drugbank_target|P22460 Potassium voltage-gated channel subfamily A member 5 (DB06217; DB06637; DB11633)
 OpenBabel12092120583D

  0  0  0     0  0            999 V3000
M  V30 BEGIN CTAB
M  V30 COUNTS 9452 9569 0 0 0
M  V30 BEGIN ATOM
M  V30 1 H -0.908 1.98254 -0.117106 0
M  V30 2 N 0 1.576 0 0
M  V30 3 C 0.933 2.03868 1.02534 0
M  V30 4 C 1.911 0.928543 1.3348 0
M  V30 5 O 3.095 1.19667 1.45644 0
M  V30 6 C 0.222 2.43627 2.35294 0
M  V30 7 C -0.732 3.65373 2.2001 0
M  V30 8 S 0.101 5.13292 1.52614 0
M  V30 9 C 1.257 5.56322 2.86805 0
M  V30 10 H 1.49 2.90518 0.631377 0
M  V30 11 H -0.977 1.52953 0.210867 0
M  V30 12 H 0.981 2.67203 3.11629 0
M  V30 13 H -0.358 1.57376 2.7183 0
M  V30 14 H -1.165 3.90944 3.18086 0
M  V30 15 H -1.563 3.418 1.51819 0
M  V30 16 H 0.729 5.58782 3.83104 0
M  V30 17 H 1.672 6.56266 2.65933 0
M  V30 18 H 2.08 4.83886 2.90714 0
M  V30 19 N 1.4781 -0.272755 1.55222 0
M  V30 20 C 2.3881 -1.35918 1.91216 0
M  V30 21 C 3.4041 -1.54026 0.809436 0
M  V30 22 O 4.5801 -1.68148 1.10852 0
M  V30 23 C 1.6451 -2.69834 2.17693 0
M  V30 24 C 0.7061 -2.6047 3.41253 0
M  V30 25 C -0.0609 -3.88 3.66458 0
M  V30 26 O 0.1621 -4.88693 2.94169 0
M  V30 27 O -0.9039 -3.88189 4.59992 0
M  V30 28 H 2.9221 -1.0839 2.83699 0
M  V30 29 H 0.5071 -0.471301 1.41771 0
M  V30 30 H 2.3891 -3.49017 2.36147 0
M  V30 31 H 1.0641 -2.97148 1.28392 0
M  V30 32 H -0.0289 -1.79663 3.28134 0
M  V30 33 H 1.3041 -2.38106 4.30774 0
M  V30 34 N 2.9562 -1.48159 -0.537278 0
M  V30 35 C 4.2052 -1.5506 -1.28993 0
M  V30 36 C 4.5182 -0.226211 -1.94288 0
M  V30 37 O 5.7242 -0.173395 -2.70946 0
M  V30 38 C 4.1802 -2.73429 -2.34018 0
M  V30 39 C 3.7882 -4.1248 -1.74825 0
M  V30 40 C 5.5322 -2.89638 -3.10339 0
M  V30 41 C 3.4392 -5.22121 -2.77747 0
M  V30 42 H 2.3692 -0.577231 -0.485098 0
M  V30 43 H 5.0202 -1.74478 -0.568317 0
M  V30 44 H 3.4022 -2.47431 -3.09182 0
M  V30 45 H 4.5762 -4.48466 -1.05899 0
M  V30 46 H 2.8912 -4.01327 -1.11022 0
M  V30 47 H 5.4882 -3.68718 -3.87235 0
M  V30 48 H 5.8312 -1.9882 -3.65754 0
M  V30 49 H 6.3642 -3.15502 -2.42288 0
M  V30 50 H 3.1032 -6.1488 -2.27161 0
M  V30 51 H 2.6232 -4.90631 -3.45024 0
M  V30 52 H 4.3022 -5.49924 -3.4087 0
M  V30 53 N 4.4343 0.785586 -1.36625 0
M  V30 54 C 5.3973 1.87999 -1.31107 0
M  V30 55 C 6.3973 1.59316 -0.217959 0
M  V30 56 O 7.5873 1.67656 -0.472977 0
M  V30 57 C 4.7193 3.24861 -1.03334 0
M  V30 58 H 5.9123 1.94307 -2.2844 0
M  V30 59 H 3.4653 0.983813 -1.21453 0
M  V30 60 H 4.2003 3.24235 -0.0647432 0
M  V30 61 H 3.9853 3.4707 -1.82441 0
M  V30 62 H 5.4753 4.04929 -1.02088 0
M  V30 63 N 5.9124 1.20967 1.01018 0
M  V30 64 C 6.8424 0.988272 2.11555 0
M  V30 65 C 7.8234 -0.0849778 1.69888 0
M  V30 66 O 9.0084 0.0738202 1.9406 0
M  V30 67 C 6.1384 0.546528 3.42973 0
M  V30 68 C 5.0924 1.56375 3.9841 0
M  V30 69 C 4.4184 0.97842 5.25672 0
M  V30 70 C 5.7184 2.94922 4.31066 0
M  V30 71 H 7.4124 1.91276 2.30334 0
M  V30 72 H 4.9584 0.921073 1.1069 0
M  V30 73 H 6.9114 0.378839 4.19694 0
M  V30 74 H 5.6354 -0.413598 3.23971 0
M  V30 75 H 4.2944 1.71891 3.23804 0
M  V30 76 H 3.9424 0.0101688 5.02999 0
M  V30 77 H 3.6424 1.65784 5.63728 0
M  V30 78 H 5.1664 0.821939 6.05043 0
M  V30 79 H 6.5804 2.8288 4.9865 0
M  V30 80 H 4.9774 3.5983 4.80253 0
M  V30 81 H 6.0474 3.4616 3.39561 0
M  V30 82 N 7.3905 -1.2043 1.01659 0
M  V30 83 C 8.6365 -1.90079 0.706963 0
M  V30 84 C 8.9695 -1.78648 -0.761474 0
M  V30 85 O 8.2445 -1.17069 -1.55323 0
M  V30 86 C 8.5275 -3.41469 1.14327 0
M  V30 87 C 8.3805 -3.61833 2.67201 0
M  V30 88 C 9.6995 -4.34261 0.714529 0
M  V30 89 H 6.8185 -0.690254 0.2583 0
M  V30 90 H 9.4605 -1.41826 1.26433 0
M  V30 91 H 7.6105 -3.82696 0.669056 0
M  V30 92 H 9.2825 -3.2986 3.22475 0
M  V30 93 H 7.5255 -3.05304 3.08175 0
M  V30 94 H 8.1965 -4.67955 2.92783 0
M  V30 95 H 10.6725 -4.00682 1.12221 0
M  V30 96 H 9.5485 -5.38806 1.04784 0
M  V30 97 H 9.8095 -4.40431 -0.383799 0
M  V30 98 N 8.8686 -0.792821 -1.36206 0
M  V30 99 C 10.2796 -0.429513 -1.81692 0
M  V30 100 C 10.6306 1.04695 -1.65932 0
M  V30 101 O 9.7556 1.81256 -1.18218 0
M  V30 102 C 10.3506 -0.772831 -3.29868 0
M  V30 103 C 8.9096 -0.462307 -3.7355 0
M  V30 104 C 8.0566 -1.00569 -2.5842 0
M  V30 105 H 11.0076 -0.985672 -1.24379 0
M  V30 106 H 11.0286 -0.0651928 -3.80444 0
M  V30 107 H 10.5406 -1.84747 -3.41307 0
M  V30 108 H 8.6416 0.604158 -3.67669 0
M  V30 109 H 8.7546 -0.985299 -4.68859 0
M  V30 110 H 7.1186 -0.428734 -2.51066 0
M  V30 111 H 7.9016 -2.08616 -2.72643 0
M  V30 112 N 10.3467 1.47872 -0.545128 0
M  V30 113 C 11.2767 2.32661 0.197793 0
M  V30 114 C 12.2577 1.43041 0.920504 0
M  V30 115 O 13.4427 1.71912 0.90333 0
M  V30 116 C 10.5727 3.24569 1.23582 0
M  V30 117 C 9.5267 4.23333 0.630323 0
M  V30 118 C 8.8527 5.0448 1.77211 0
M  V30 119 C 10.1527 5.20704 -0.407974 0
M  V30 120 H 11.8467 2.95024 -0.510045 0
M  V30 121 H 9.3927 1.4187 -0.246731 0
M  V30 122 H 11.3457 3.8272 1.76362 0
M  V30 123 H 10.0697 2.60236 1.97344 0
M  V30 124 H 8.7287 3.6639 0.123922 0
M  V30 125 H 8.3767 4.36561 2.49847 0
M  V30 126 H 8.0767 5.71339 1.37281 0
M  V30 127 H 9.6007 5.65487 2.3034 0
M  V30 128 H 11.0147 5.7329 0.033305 0
M  V30 129 H 9.4117 5.95699 -0.725486 0
M  V30 130 H 10.4817 4.66917 -1.30828 0
M  V30 131 N 11.8248 0.280983 1.55075 0
M  V30 132 C 12.7348 -0.61388 2.26426 0
M  V30 133 C 13.7508 -1.16521 1.29224 0
M  V30 134 O 14.9268 -1.19426 1.62171 0
M  V30 135 C 11.9918 -1.7788 2.9759 0
M  V30 136 C 11.0528 -1.26355 4.10284 0
M  V30 137 C 10.2858 -2.37295 4.78045 0
M  V30 138 O 10.5088 -3.56777 4.45047 0
M  V30 139 O 9.4428 -2.05119 5.65871 0
M  V30 140 H 13.2688 -0.0356932 3.03679 0
M  V30 141 H 10.8538 0.0481686 1.49322 0
M  V30 142 H 12.7358 -2.45791 3.42293 0
M  V30 143 H 11.4108 -2.34397 2.23249 0
M  V30 144 H 10.3178 -0.550735 3.70024 0
M  V30 145 H 11.6508 -0.744065 4.86543 0
M  V30 146 N 13.3029 -1.57598 0.00835791 0
M  V30 147 C 14.2509 -2.10078 -0.998508 0
M  V30 148 C 15.2449 -1.02262 -1.35051 0
M  V30 149 O 16.4509 -1.20719 -1.33518 0
M  V30 150 H 12.8259 -0.670903 -0.339696 0
M  V30 151 H 14.7969 -2.93648 -0.530398 0
M  V30 152 C 13.5459 -2.62615 -2.27879 0
M  V30 153 H 12.8689 -3.45213 -2.01662 0
M  V30 154 H 14.3089 -3.03004 -2.96588 0
M  V30 155 C 12.7679 -1.54407 -2.99433 0
M  V30 156 O 13.2979 -0.931812 -3.90743 0
M  V30 157 N 11.5039 -1.2695 -2.61404 0
M  V30 158 H 11.0509 -1.76924 -1.87232 0
M  V30 159 H 11.0089 -0.547704 -3.09593 0
M  V30 160 N 14.781 0.264519 -1.55364 0
M  V30 161 C 16.029 0.993021 -1.76021 0
M  V30 162 C 16.35 1.86511 -0.569099 0
M  V30 163 O 15.62 1.91438 0.415735 0
M  V30 164 H 14.2 0.369639 -0.649135 0
M  V30 165 H 16.862 0.286707 -1.9278 0
M  V30 166 H 15.958 1.62502 -2.66457 0
M  V30 167 N 16.2591 1.48442 0.529413 0
M  V30 168 C 17.5071 1.56179 1.28267 0
M  V30 169 C 17.8281 0.237721 1.93546 0
M  V30 170 O 17.0981 -0.740779 1.81354 0
M  V30 171 H 15.6781 0.575367 0.476405 0
M  V30 172 H 18.3401 1.84909 0.61602 0
M  V30 173 H 17.4361 2.34312 2.06165 0
M  V30 174 N 17.7372 -0.778329 1.37039 0
M  V30 175 C 18.7002 -1.87301 1.32102 0
M  V30 176 C 19.7002 -1.59198 0.226405 0
M  V30 177 O 20.8902 -1.67403 0.481861 0
M  V30 178 C 18.0222 -3.24309 1.05055 0
M  V30 179 H 19.2152 -1.93093 2.29467 0
M  V30 180 H 16.7682 -0.977358 1.21973 0
M  V30 181 H 17.5032 -3.24196 0.0819373 0
M  V30 182 H 17.2882 -3.46098 1.84279 0
M  V30 183 H 18.7782 -4.04382 1.04234 0
M  V30 184 N 19.2153 -1.21501 -1.00376 0
M  V30 185 C 20.1483 -0.918669 -2.08892 0
M  V30 186 C 21.1263 0.134277 -1.62045 0
M  V30 187 O 22.3103 0.00504255 -1.88499 0
M  V30 188 C 19.4373 -0.379645 -3.36566 0
M  V30 189 C 18.4833 -1.41559 -4.02323 0
M  V30 190 S 19.3163 -2.98521 -4.44574 0
M  V30 191 C 20.4723 -2.46228 -5.75433 0
M  V30 192 H 20.7053 -1.83761 -2.33707 0
M  V30 193 H 18.2383 -1.04489 -1.13673 0
M  V30 194 H 20.1963 -0.0752195 -4.10431 0
M  V30 195 H 18.8573 0.518008 -3.09799 0
M  V30 196 H 18.0503 -0.988076 -4.9422 0
M  V30 197 H 17.6523 -1.66815 -3.34737 0
M  V30 198 H 19.9443 -1.86791 -6.51241 0
M  V30 199 H 20.8873 -3.36572 -6.22997 0
M  V30 200 H 21.2953 -1.87894 -5.32312 0
M  V30 201 N 20.6934 1.19889 -1.02296 0
M  V30 202 C 21.9214 1.9339 -0.735399 0
M  V30 203 C 22.3364 1.75148 0.704887 0
M  V30 204 O 21.6934 1.06954 1.47875 0
M  V30 205 C 21.7444 3.45313 -1.06962 0
M  V30 206 O 21.4654 3.62964 -2.45334 0
M  V30 207 C 22.9664 4.35948 -0.804021 0
M  V30 208 H 20.1864 0.61448 -0.269546 0
M  V30 209 H 22.7304 1.522 -1.36585 0
M  V30 210 H 20.8854 3.84359 -0.484455 0
M  V30 211 H 21.2994 4.56886 -2.57595 0
M  V30 212 H 22.7734 5.41174 -1.0879 0
M  V30 213 H 23.2504 4.3842 0.261691 0
M  V30 214 H 23.8564 4.02574 -1.37164 0
M  V30 215 N 22.1715 0.800033 1.35784 0
M  V30 216 C 23.4175 0.377901 1.99248 0
M  V30 217 C 23.7505 -1.05052 1.63333 0
M  V30 218 O 23.0255 -1.72768 0.893385 0
M  V30 219 C 23.3085 0.553922 3.55814 0
M  V30 220 C 23.1615 2.0268 4.01548 0
M  V30 221 C 24.4805 -0.0244802 4.40093 0
M  V30 222 H 21.5995 0.138782 0.723815 0
M  V30 223 H 24.2415 1.00835 1.61035 0
M  V30 224 H 22.3915 0.0172398 3.88496 0
M  V30 225 H 24.0635 2.62536 3.79305 0
M  V30 226 H 22.3065 2.5256 3.52698 0
M  V30 227 H 22.9775 2.10087 5.10458 0
M  V30 228 H 25.4535 0.433775 4.13833 0
M  V30 229 H 24.3295 0.128637 5.48749 0
M  V30 230 H 24.5905 -1.11758 4.27741 0
M  V30 231 N 23.6496 -1.47581 0.552962 0
M  V30 232 C 25.0656 -1.5818 0.212424 0
M  V30 233 C 25.2656 -1.55213 -1.28496 0
M  V30 234 O 24.3216 -1.45329 -2.06484 0
M  V30 235 C 25.6346 -2.88865 0.835318 0
M  V30 236 C 27.1826 -3.0244 0.806156 0
M  V30 237 C 27.6576 -4.35819 1.40804 0
M  V30 238 N 29.1486 -4.42444 1.37103 0
M  V30 239 C 29.8836 -5.44202 1.80641 0
M  V30 240 N 29.3796 -6.52795 2.32015 0
M  V30 241 N 31.1726 -5.35222 1.71738 0
M  V30 242 H 23.3236 -1.47753 1.52587 0
M  V30 243 H 25.5866 -0.702941 0.636064 0
M  V30 244 H 25.2926 -2.9676 1.88749 0
M  V30 245 H 25.1666 -3.7579 0.325848 0
M  V30 246 H 27.5536 -2.94144 -0.237317 0
M  V30 247 H 27.6346 -2.17068 1.35334 0
M  V30 248 H 27.2786 -4.44871 2.45056 0
M  V30 249 H 27.2086 -5.19916 0.836338 0
M  V30 250 H 29.6996 -3.6456 0.995202 0
M  V30 251 H 30.0126 -7.26609 2.63171 0
M  V30 252 H 28.3576 -6.53696 2.36023 0
M  V30 253 H 31.5486 -4.49284 1.31382 0
M  V30 254 H 31.7216 -6.14389 2.05987 0
M  V30 255 N 25.1277 -0.289203 -1.54924 0
M  V30 256 C 26.3757 0.322879 -1.99504 0
M  V30 257 C 26.6967 1.55313 -1.1791 0
M  V30 258 O 25.9667 1.94001 -0.272097 0
M  V30 259 H 24.5467 0.122291 -0.736922 0
M  V30 260 H 27.2087 -0.397802 -1.90797 0
M  V30 261 H 26.3047 0.603061 -3.06218 0
M  V30 262 N 26.6058 1.57591 -0.0167156 0
M  V30 263 C 27.8538 1.90906 0.663285 0
M  V30 264 C 28.1748 0.892509 1.73376 0
M  V30 265 O 27.4448 -0.0677623 1.95783 0
M  V30 266 H 26.0248 0.704637 0.247983 0
M  V30 267 H 28.6868 1.94803 -0.0615909 0
M  V30 268 H 27.7828 2.9116 1.12393 0
M  V30 269 N 28.0839 -0.256276 1.55502 0
M  V30 270 C 29.3609 -1.00789 1.67633 0
M  V30 271 C 29.7409 -2.03706 0.553826 0
M  V30 272 O 29.0889 -2.24145 -0.443969 0
M  V30 273 C 29.2989 -1.64968 3.07549 0
M  V30 274 C 30.6469 -2.15505 3.65845 0
M  V30 275 O 31.6709 -1.74925 3.1029 0
M  V30 276 O 30.5299 -2.89986 4.63217 0
M  V30 277 H 27.6239 -0.468553 0.681459 0
M  V30 278 H 30.1699 -0.250806 1.67836 0
M  V30 279 H 28.9419 -0.904785 3.80696 0
M  V30 280 H 28.5649 -2.47321 3.11317 0
M  V30 281 N 29.562 -1.4872 -0.521534 0
M  V30 282 C 30.472 -1.66569 -1.65203 0
M  V30 283 C 31.488 -0.548197 -1.65139 0
M  V30 284 O 32.664 -0.820339 -1.83936 0
M  V30 285 C 29.729 -1.70917 -3.01642 0
M  V30 286 C 28.79 -2.94356 -3.12495 0
M  V30 287 C 28.023 -2.98487 -4.42426 0
M  V30 288 O 28.246 -2.10786 -5.30024 0
M  V30 289 O 27.18 -3.90746 -4.57822 0
M  V30 290 H 31.006 -2.62298 -1.5308 0
M  V30 291 H 28.591 -1.3222 -0.695565 0
M  V30 292 H 30.473 -1.7625 -3.82771 0
M  V30 293 H 29.148 -0.783633 -3.14071 0
M  V30 294 H 28.055 -2.94552 -2.3063 0
M  V30 295 H 29.388 -3.86322 -3.04986 0
M  V30 296 N 31.0401 0.771051 -1.3745 0
M  V30 297 C 32.0031 1.86598 -1.33093 0
M  V30 298 C 33.0031 1.59076 -0.234845 0
M  V30 299 O 34.1931 1.67145 -0.490732 0
M  V30 300 C 31.3251 3.23747 -1.06773 0
M  V30 301 H 32.5181 1.91873 -2.30488 0
M  V30 302 H 30.0711 0.970876 -1.2249 0
M  V30 303 H 30.8061 3.24148 -0.099129 0
M  V30 304 H 30.5911 3.45115 -1.86112 0
M  V30 305 H 32.0811 4.03824 -1.06377 0
M  V30 306 N 32.5182 1.22032 0.997298 0
M  V30 307 C 33.9342 0.979326 1.26021 0
M  V30 308 C 34.1342 -0.32972 1.98784 0
M  V30 309 O 33.1902 -1.05345 2.29475 0
M  V30 310 C 34.5032 2.17509 2.07631 0
M  V30 311 C 36.0512 2.21817 2.2083 0
M  V30 312 C 36.5262 3.40933 3.05825 0
M  V30 313 N 38.0172 3.41067 3.13412 0
M  V30 314 C 38.7522 4.29885 3.79455 0
M  V30 315 N 38.2482 5.28914 4.47462 0
M  V30 316 N 40.0412 4.17673 3.76173 0
M  V30 317 H 32.1922 2.06202 0.509352 0
M  V30 318 H 34.4552 0.90334 0.287541 0
M  V30 319 H 34.1612 3.12415 1.61524 0
M  V30 320 H 34.0352 2.17206 3.08385 0
M  V30 321 H 36.4222 1.27462 2.66153 0
M  V30 322 H 36.5032 2.2616 1.1952 0
M  V30 323 H 36.1472 4.35586 2.61203 0
M  V30 324 H 36.0772 3.33829 4.07266 0
M  V30 325 H 38.5682 2.69406 2.65007 0
M  V30 326 H 38.8812 5.92973 4.95583 0
M  V30 327 H 37.2262 5.32831 4.46224 0
M  V30 328 H 40.4172 3.39564 3.22202 0
M  V30 329 H 40.5902 4.87098 4.27363 0
M  V30 330 N 33.9963 -1.19345 1.0293 0
M  V30 331 C 34.9593 -2.20793 0.615069 0
M  V30 332 C 35.9593 -1.57553 -0.321533 0
M  V30 333 O 37.1493 -1.73862 -0.108483 0
M  V30 334 C 34.2813 -3.40754 -0.0999222 0
M  V30 335 H 35.4743 -2.58955 1.51269 0
M  V30 336 H 33.0273 -1.3303 0.820534 0
M  V30 337 H 33.7623 -3.0811 -1.01187 0
M  V30 338 H 33.5473 -3.87889 0.57309 0
M  V30 339 H 35.0373 -4.15898 -0.376645 0
M  V30 340 N 35.4744 -0.807222 -1.35358 0
M  V30 341 C 36.7224 -0.387122 -1.98358 0
M  V30 342 C 37.0434 1.04942 -1.64354 0
M  V30 343 O 36.3134 1.72615 -0.926339 0
M  V30 344 H 34.8934 -0.140154 -0.733734 0
M  V30 345 H 37.5554 -1.0332 -1.6526 0
M  V30 346 H 36.6514 -0.493352 -3.08176 0
M  V30 347 N 36.9525 1.47285 -0.560781 0
M  V30 348 C 38.1925 2.0436 -0.0404627 0
M  V30 349 C 38.5565 1.42534 1.28639 0
M  V30 350 O 39.7575 1.90677 1.89462 0
M  V30 351 C 38.0285 3.57369 0.0471856 0
M  V30 352 S 39.5875 4.3579 0.513109 0
M  V30 353 H 36.4055 0.710492 -0.0268674 0
M  V30 354 H 39.0075 1.80611 -0.748323 0
M  V30 355 H 37.7115 3.9989 -0.922817 0
M  V30 356 H 37.2425 3.8562 0.778491 0
M  V30 357 H 39.2575 4.63476 1.77212 0
M  V30 358 N 38.4306 0.297415 1.54768 0
M  V30 359 C 39.6786 -0.312295 1.99673 0
M  V30 360 C 39.9996 -1.54686 1.18732 0
M  V30 361 O 39.2696 -1.93854 0.282382 0
M  V30 362 H 37.8496 -0.118381 0.73756 0
M  V30 363 H 40.5116 0.407915 1.90583 0
M  V30 364 H 39.6076 -0.586813 3.06534 0
M  V30 365 N 39.9087 -1.5758 0.0250728 0
M  V30 366 C 40.8407 -2.06869 -0.986796 0
M  V30 367 C 41.8537 -0.991332 -1.29137 0
M  V30 368 O 43.0427 -1.26761 -1.25674 0
M  V30 369 C 40.1427 -2.47486 -2.31525 0
M  V30 370 C 39.3157 -3.78253 -2.19643 0
M  V30 371 C 38.3747 -4.05464 -3.35388 0
M  V30 372 O 37.4007 -4.75774 -3.12454 0
M  V30 373 N 38.6027 -3.55321 -4.59051 0
M  V30 374 H 41.3677 -2.94302 -0.566276 0
M  V30 375 H 38.9287 -1.6109 -0.161776 0
M  V30 376 H 40.9207 -2.62785 -3.07776 0
M  V30 377 H 39.4907 -1.65441 -2.65232 0
M  V30 378 H 38.7107 -3.7279 -1.28144 0
M  V30 379 H 39.9987 -4.63936 -2.08903 0
M  V30 380 H 39.3967 -2.98431 -4.80578 0
M  V30 381 H 37.9537 -3.75905 -5.32483 0
M  V30 382 N 41.3868 0.248026 -1.55636 0
M  V30 383 C 42.3498 1.29044 -1.89421 0
M  V30 384 C 43.3498 1.41134 -0.770581 0
M  V30 385 O 44.5398 1.39854 -1.03858 0
M  V30 386 C 41.6718 2.66831 -2.12165 0
M  V30 387 H 42.8648 1.00305 -2.82629 0
M  V30 388 H 40.4178 0.487265 -1.48511 0
M  V30 389 H 41.1528 3.00711 -1.21422 0
M  V30 390 H 40.9378 2.59438 -2.93997 0
M  V30 391 H 42.4278 3.42103 -2.3949 0
M  V30 392 N 42.8649 1.48995 0.513639 0
M  V30 393 C 44.0929 1.61531 1.29288 0
M  V30 394 C 44.5079 0.281801 1.86685 0
M  V30 395 O 43.8649 -0.731111 1.67215 0
M  V30 396 C 43.9159 2.67449 2.43215 0
M  V30 397 O 43.6369 3.95626 1.88179 0
M  V30 398 C 45.1379 2.90575 3.34785 0
M  V30 399 H 42.3579 0.544165 0.392588 0
M  V30 400 H 44.9019 1.9494 0.617956 0
M  V30 401 H 43.0569 2.36853 3.0656 0
M  V30 402 H 43.4709 4.53868 2.62876 0
M  V30 403 H 44.9449 3.68449 4.11035 0
M  V30 404 H 45.4219 2.00011 3.91015 0
M  V30 405 H 46.0279 3.22538 2.77218 0
M  V30 406 N 44.343 -0.763751 1.37857 0
M  V30 407 C 45.591 -1.51957 1.33243 0
M  V30 408 C 45.912 -1.94835 -0.0801709 0
M  V30 409 O 45.182 -1.66894 -1.02582 0
M  V30 410 H 43.762 -0.563626 0.49024 0
M  V30 411 H 46.424 -0.908504 1.7243 0
M  V30 412 H 45.52 -2.41523 1.97669 0
M  V30 413 N 45.8211 -1.22559 -0.990812 0
M  V30 414 C 47.0691 -1.04933 -1.72724 0
M  V30 415 C 47.3901 0.416158 -1.90508 0
M  V30 416 O 46.6601 1.29918 -1.46622 0
M  V30 417 H 45.2401 -0.385296 -0.639965 0
M  V30 418 H 47.9021 -1.54105 -1.19322 0
M  V30 419 H 46.9981 -1.52886 -2.72089 0
M  V30 420 N 47.2992 1.18797 -1.03562 0
M  V30 421 C 48.2092 2.25913 -0.632505 0
M  V30 422 C 49.2252 1.70668 0.338882 0
M  V30 423 O 50.4012 2.00453 0.195076 0
M  V30 424 C 47.4662 3.467 0.00350942 0
M  V30 425 C 46.5272 4.17098 -1.01624 0
M  V30 426 C 45.7602 5.32119 -0.410478 0
M  V30 427 O 45.9832 5.64976 0.784725 0
M  V30 428 O 44.9172 5.9107 -1.13667 0
M  V30 429 H 48.7432 2.62648 -1.52478 0
M  V30 430 H 46.3282 1.25781 -0.806195 0
M  V30 431 H 48.2102 4.19878 0.35781 0
M  V30 432 H 46.8852 3.11798 0.869686 0
M  V30 433 H 45.7922 3.4601 -1.42224 0
M  V30 434 H 47.1252 4.55987 -1.85301 0
M  V30 435 N 48.7773 0.814389 1.34928 0
M  V30 436 C 49.7073 0.244827 2.32213 0
M  V30 437 C 50.6883 -0.634024 1.57842 0
M  V30 438 O 51.8733 -0.562676 1.8587 0
M  V30 439 C 49.0033 -0.601106 3.42058 0
M  V30 440 C 47.9573 0.179896 4.27622 0
M  V30 441 C 47.2833 -0.788237 5.28858 0
M  V30 442 C 48.5833 1.38329 5.03649 0
M  V30 443 H 50.2773 1.05763 2.80097 0
M  V30 444 H 47.8233 0.510029 1.34665 0
M  V30 445 H 49.7763 -1.00968 4.09125 0
M  V30 446 H 48.5003 -1.44688 2.92802 0
M  V30 447 H 47.1593 0.569739 3.62146 0
M  V30 448 H 46.8073 -1.62973 4.75866 0
M  V30 449 H 46.5073 -0.269942 5.8698 0
M  V30 450 H 48.0313 -1.19485 5.98795 0
M  V30 451 H 49.4453 1.04918 5.63618 0
M  V30 452 H 47.8423 1.83662 5.71304 0
M  V30 453 H 48.9123 2.16592 4.33839 0
M  V30 454 N 50.2554 -1.46986 0.568584 0
M  V30 455 C 51.1874 -2.28233 -0.210337 0
M  V30 456 C 52.2004 -1.37682 -0.868767 0
M  V30 457 O 53.3894 -1.62406 -0.740705 0
M  V30 458 C 50.4894 -3.12293 -1.3163 0
M  V30 459 C 49.6624 -4.30878 -0.7525 0
M  V30 460 C 48.7214 -4.96445 -1.74439 0
M  V30 461 O 47.7474 -5.54482 -1.286 0
M  V30 462 N 48.9494 -4.92171 -3.07812 0
M  V30 463 H 51.7144 -2.95723 0.486648 0
M  V30 464 H 49.2754 -1.56742 0.405409 0
M  V30 465 H 51.2674 -3.53022 -1.97883 0
M  V30 466 H 49.8374 -2.46971 -1.91636 0
M  V30 467 H 49.0574 -3.94104 0.0871128 0
M  V30 468 H 50.3454 -5.07558 -0.35536 0
M  V30 469 H 49.7434 -4.46239 -3.47688 0
M  V30 470 H 48.3004 -5.36884 -3.69592 0
M  V30 471 N 51.7335 -0.305618 -1.54608 0
M  V30 472 C 52.9735 0.303114 -2.0214 0
M  V30 473 C 53.3375 1.50737 -1.18921 0
M  V30 474 O 54.5385 2.18778 -1.56172 0
M  V30 475 C 52.8095 0.646332 -3.51507 0
M  V30 476 S 54.3685 1.23727 -4.20995 0
M  V30 477 H 51.1865 0.0927643 -0.704923 0
M  V30 478 H 53.7885 -0.434566 -1.90609 0
M  V30 479 H 52.4925 -0.238541 -4.09706 0
M  V30 480 H 52.0235 1.41468 -3.67084 0
M  V30 481 H 54.0385 2.52489 -4.27158 0
M  V30 482 N 53.2116 1.57565 -0.0334293 0
M  V30 483 C 54.6226 1.79746 0.504798 0
M  V30 484 C 54.9736 0.944091 1.71992 0
M  V30 485 O 54.0986 0.155694 2.15839 0
M  V30 486 C 54.6936 3.25997 0.922567 0
M  V30 487 C 53.2526 3.49159 1.40588 0
M  V30 488 C 52.3996 2.74785 0.372633 0
M  V30 489 H 55.3506 1.56565 -0.259436 0
M  V30 490 H 55.3716 3.35945 1.78666 0
M  V30 491 H 54.8836 3.88081 0.0379825 0
M  V30 492 H 52.9846 2.92332 2.31025 0
M  V30 493 H 53.0976 4.57873 1.41028 0
M  V30 494 H 51.4616 2.40391 0.841672 0
M  V30 495 H 52.2446 3.39587 -0.503559 0
M  V30 496 N 54.6897 -0.239769 1.55765 0
M  V30 497 C 56.1007 -0.808263 1.68297 0
M  V30 498 C 56.4517 -1.85736 0.632181 0
M  V30 499 O 55.5767 -2.15277 -0.220204 0
M  V30 500 C 56.1717 -1.47284 3.05111 0
M  V30 501 C 54.7307 -1.98895 3.19559 0
M  V30 502 C 53.8777 -0.842575 2.64189 0
M  V30 503 H 56.8287 -0.0154422 1.58692 0
M  V30 504 H 56.8497 -2.34111 2.99954 0
M  V30 505 H 56.3617 -0.709053 3.81568 0
M  V30 506 H 54.4627 -2.78132 2.47938 0
M  V30 507 H 54.5757 -2.18143 4.26556 0
M  V30 508 H 52.9397 -1.24501 2.22197 0
M  V30 509 H 53.7227 -0.0917552 3.43177 0
M  V30 510 N 56.1678 -1.49265 -0.50573 0
M  V30 511 C 57.3958 -1.62215 -1.28429 0
M  V30 512 C 57.8108 -0.291697 -1.86533 0
M  V30 513 O 57.1678 0.722233 -1.67601 0
M  V30 514 C 57.2188 -2.68735 -2.41793 0
M  V30 515 O 56.9398 -3.96619 -1.86078 0
M  V30 516 C 58.4408 -2.92346 -3.3324 0
M  V30 517 H 55.6608 -0.546239 -0.389697 0
M  V30 518 H 58.2048 -1.95265 -0.607609 0
M  V30 519 H 56.3598 -2.38476 -3.053 0
M  V30 520 H 56.7738 -4.55256 -2.60465 0
M  V30 521 H 58.2478 -3.70623 -4.09075 0
M  V30 522 H 58.7248 -2.02081 -3.89948 0
M  V30 523 H 59.3308 -3.24003 -2.75503 0
M  V30 524 N 57.6459 0.756429 -1.3826 0
M  V30 525 C 58.6089 1.85176 -1.35065 0
M  V30 526 C 59.6089 1.58818 -0.251703 0
M  V30 527 O 60.7989 1.66615 -0.508433 0
M  V30 528 C 57.9309 3.22596 -1.10201 0
M  V30 529 H 59.1239 1.89417 -2.3251 0
M  V30 530 H 56.6769 0.95783 -1.23512 0
M  V30 531 H 57.4119 3.24025 -0.133504 0
M  V30 532 H 57.1969 3.43122 -1.89762 0
M  V30 533 H 58.6869 4.02673 -1.10654 0
M  V30 534 N 59.124 1.23083 0.984299 0
M  V30 535 C 60.372 1.05848 1.72165 0
M  V30 536 C 60.693 -0.406049 1.90726 0
M  V30 537 O 59.963 -1.29139 1.47309 0
M  V30 538 H 58.543 0.388685 0.637913 0
M  V30 539 H 61.205 1.54736 1.18503 0
M  V30 540 H 60.301 1.54327 2.71274 0
M  V30 541 N 60.6021 -1.18246 1.0419 0
M  V30 542 C 61.5321 -2.24127 0.654914 0
M  V30 543 C 62.5131 -1.66617 -0.342451 0
M  V30 544 O 63.6981 -1.92924 -0.222277 0
M  V30 545 C 60.8281 -3.47295 0.0183757 0
M  V30 546 C 59.7821 -4.17563 0.939414 0
M  V30 547 C 59.1081 -5.34438 0.167286 0
M  V30 548 C 60.4081 -4.70917 2.25908 0
M  V30 549 H 62.1021 -2.56753 1.54007 0
M  V30 550 H 59.6481 -1.23414 0.74195 0
M  V30 551 H 61.6011 -4.20572 -0.264082 0
M  V30 552 H 60.3251 -3.13907 -0.901664 0
M  V30 553 H 58.9841 -3.46186 1.20628 0
M  V30 554 H 58.6321 -4.97298 -0.7552 0
M  V30 555 H 58.3321 -5.82388 0.780901 0
M  V30 556 H 59.8561 -6.10504 -0.108125 0
M  V30 557 H 61.2701 -5.35882 2.03724 0
M  V30 558 H 59.6671 -5.29406 2.82577 0
M  V30 559 H 60.7371 -3.88272 2.9047 0
M  V30 560 N 62.0802 -0.821533 -1.34494 0
M  V30 561 C 63.3052 -0.420873 -2.03085 0
M  V30 562 C 63.7302 0.964915 -1.61465 0
M  V30 563 O 63.0882 1.62763 -0.798607 0
M  V30 564 C 63.1362 -0.529414 -3.56693 0
M  V30 565 O 62.2402 0.451302 -4.09923 0
M  V30 566 H 61.5812 -0.173489 -0.640935 0
M  V30 567 H 64.1112 -1.11157 -1.71771 0
M  V30 568 H 64.1212 -0.404671 -4.05988 0
M  V30 569 H 62.7962 -1.54014 -3.86332 0
M  V30 570 H 61.3732 0.285558 -3.71805 0
M  V30 571 N 63.5583 1.46682 -0.576371 0
M  V30 572 C 64.8353 1.95599 0.00703437 0
M  V30 573 C 65.2153 1.51904 1.46589 0
M  V30 574 O 64.5633 0.766755 2.15251 0
M  V30 575 C 64.7733 3.4864 -0.158404 0
M  V30 576 C 66.1213 4.24594 -0.0229439 0
M  V30 577 O 67.1453 3.56094 -0.0869173 0
M  V30 578 O 66.0043 5.46373 0.118015 0
M  V30 579 H 63.0983 0.825275 0.053384 0
M  V30 580 H 65.6443 1.56996 -0.644244 0
M  V30 581 H 64.4163 3.7331 -1.17282 0
M  V30 582 H 64.0393 3.94057 0.5296 0
M  V30 583 N 65.0364 0.313813 1.54444 0
M  V30 584 C 66.2844 -0.291099 1.99993 0
M  V30 585 C 66.6054 -1.53418 1.20366 0
M  V30 586 O 65.8754 -1.93544 0.302927 0
M  V30 587 H 64.4554 -0.110552 0.738774 0
M  V30 588 H 67.1174 0.428106 1.9014 0
M  V30 589 H 66.2134 -0.554268 3.07139 0
M  V30 590 N 66.5145 -1.57545 0.0417849 0
M  V30 591 C 67.9255 -1.80011 -0.495259 0
M  V30 592 C 68.2765 -0.953199 -1.71489 0
M  V30 593 O 67.4015 -0.167138 -2.15754 0
M  V30 594 C 67.9965 -3.26482 -0.905265 0
M  V30 595 C 66.5555 -3.499 -1.38734 0
M  V30 596 C 65.7025 -2.74979 -0.358056 0
M  V30 597 H 68.6535 -1.56425 0.267736 0
M  V30 598 H 68.6745 -3.36887 -1.76882 0
M  V30 599 H 68.1865 -3.88096 -0.017401 0
M  V30 600 H 66.2875 -2.93553 -2.29471 0
M  V30 601 H 66.4005 -4.58615 -1.38598 0
M  V30 602 H 64.7645 -2.40834 -0.828912 0
M  V30 603 H 65.5475 -3.39315 0.521561 0
M  V30 604 N 67.9926 0.231505 -1.5589 0
M  V30 605 C 68.9396 1.28682 -1.91598 0
M  V30 606 C 69.9096 1.47071 -0.771974 0
M  V30 607 O 71.0946 1.60802 -1.027 0
M  V30 608 C 68.2346 2.6342 -2.22944 0
M  V30 609 C 67.3476 2.52912 -3.50228 0
M  V30 610 C 66.4826 3.80106 -3.7107 0
M  V30 611 C 65.5216 3.64279 -4.91902 0
M  V30 612 N 64.6586 4.834 -5.09184 0
M  V30 613 H 69.4986 0.975305 -2.81588 0
M  V30 614 H 67.0356 0.470299 -1.39379 0
M  V30 615 H 68.9936 3.41869 -2.39126 0
M  V30 616 H 67.6236 2.92687 -1.36139 0
M  V30 617 H 66.6756 1.6595 -3.42294 0
M  V30 618 H 67.9876 2.37133 -4.38827 0
M  V30 619 H 67.1416 4.66999 -3.87295 0
M  V30 620 H 65.8806 3.98799 -2.80733 0
M  V30 621 H 64.8856 2.7577 -4.75637 0
M  V30 622 H 66.1106 3.47067 -5.83714 0
M  V30 623 H 64.0566 5.02425 -4.21788 0
M  V30 624 H 63.9736 4.70311 -5.91898 0
M  V30 625 H 65.2416 5.71747 -5.29835 0
M  V30 626 N 69.4707 1.49531 0.497807 0
M  V30 627 C 70.3807 1.69176 1.62532 0
M  V30 628 C 71.3967 0.5744 1.64246 0
M  V30 629 O 72.5727 0.849497 1.82608 0
M  V30 630 C 69.6377 1.75695 2.98885 0
M  V30 631 C 68.6987 2.9929 3.07773 0
M  V30 632 C 67.9317 3.05488 4.37622 0
M  V30 633 O 68.1547 2.19192 5.26603 0
M  V30 634 O 67.0887 3.9798 4.51548 0
M  V30 635 H 70.9147 2.647 1.48887 0
M  V30 636 H 68.4997 1.3331 0.674441 0
M  V30 637 H 70.3817 1.82317 3.79919 0
M  V30 638 H 69.0567 0.8335 3.12785 0
M  V30 639 H 67.9637 2.98183 2.25915 0
M  V30 640 H 69.2967 3.91125 2.98801 0
M  V30 641 N 70.9488 -0.749086 1.3866 0
M  V30 642 C 72.3598 -1.32664 1.31366 0
M  V30 643 C 72.7108 -1.96179 -0.028484 0
M  V30 644 O 71.8358 -1.9537 -0.93057 0
M  V30 645 C 72.4308 -2.41219 2.37905 0
M  V30 646 C 70.9898 -2.94684 2.34176 0
M  V30 647 C 70.1368 -1.68108 2.20533 0
M  V30 648 H 73.0878 -0.547628 1.48952 0
M  V30 649 H 73.1088 -3.21268 2.0388 0
M  V30 650 H 72.6208 -1.94962 3.35576 0
M  V30 651 H 70.7218 -3.45258 1.401 0
M  V30 652 H 70.8348 -3.48757 3.2849 0
M  V30 653 H 69.1988 -1.91907 1.67463 0
M  V30 654 H 69.9818 -1.23923 3.20153 0
M  V30 655 N 72.4269 -1.23603 -0.977757 0
M  V30 656 C 73.3899 -1.02069 -2.05218 0
M  V30 657 C 74.3899 0.0184305 -1.60789 0
M  V30 658 O 75.5799 -0.221569 -1.72785 0
M  V30 659 C 72.7119 -0.544926 -3.36517 0
M  V30 660 H 73.9049 -1.9742 -2.25755 0
M  V30 661 H 71.4579 -1.05684 -1.15155 0
M  V30 662 H 72.1929 0.412241 -3.21669 0
M  V30 663 H 71.9779 -1.2948 -3.70105 0
M  V30 664 H 73.4679 -0.414985 -4.15533 0
M  V30 665 N 73.905 1.17692 -1.04816 0
M  V30 666 C 75.316 1.69501 -0.782698 0
M  V30 667 C 75.667 1.83456 0.695577 0
M  V30 668 O 74.792 1.51942 1.54086 0
M  V30 669 C 75.387 3.07874 -1.41419 0
M  V30 670 C 73.946 3.56864 -1.19686 0
M  V30 671 C 73.093 2.3322 -1.50012 0
M  V30 672 H 76.044 1.02262 -1.2136 0
M  V30 673 H 76.065 3.71528 -0.821428 0
M  V30 674 H 75.577 2.97685 -2.49009 0
M  V30 675 H 73.678 3.72337 -0.140043 0
M  V30 676 H 73.791 4.39851 -1.89916 0
M  V30 677 H 72.155 2.37501 -0.920071 0
M  V30 678 H 72.938 2.25644 -2.58727 0
M  V30 679 N 75.3831 0.828654 1.34056 0
M  V30 680 C 76.3301 0.252567 2.29414 0
M  V30 681 C 77.3001 -0.62588 1.53857 0
M  V30 682 O 78.4851 -0.566312 1.82202 0
M  V30 683 C 75.6251 -0.574831 3.40279 0
M  V30 684 C 74.7381 0.326499 4.30764 0
M  V30 685 C 73.8731 -0.511016 5.28736 0
M  V30 686 C 72.9121 0.389342 6.1086 0
M  V30 687 N 72.0491 -0.409439 7.00905 0
M  V30 688 H 76.8891 1.07108 2.78086 0
M  V30 689 H 74.4261 0.539677 1.36843 0
M  V30 690 H 76.3841 -1.06992 4.03248 0
M  V30 691 H 75.0141 -1.35841 2.92826 0
M  V30 692 H 74.0661 0.939837 3.68607 0
M  V30 693 H 75.3781 1.01857 4.88289 0
M  V30 694 H 74.5321 -1.07035 5.97184 0
M  V30 695 H 73.2711 -1.23657 4.71763 0
M  V30 696 H 72.2761 0.960769 5.4134 0
M  V30 697 H 73.5011 1.1131 6.69916 0
M  V30 698 H 71.4471 -1.11856 6.46393 0
M  V30 699 H 71.3641 0.224126 7.55668 0
M  V30 700 H 72.6321 -0.951336 7.73673 0
M  V30 701 N 76.8612 -1.46375 0.584142 0
M  V30 702 C 78.1092 -2.01978 0.0701287 0
M  V30 703 C 78.4302 -1.4579 -1.295 0
M  V30 704 O 77.7002 -0.64314 -1.85042 0
M  V30 705 H 76.2802 -0.746648 0.0229345 0
M  V30 706 H 78.9422 -1.79461 0.760245 0
M  V30 707 H 78.0382 -3.121 0.0022064 0
M  V30 708 N 78.3393 -0.321999 -1.54275 0
M  V30 709 C 79.7553 0.0306999 -1.5957 0
M  V30 710 C 79.9553 1.50614 -1.33857 0
M  V30 711 O 79.0113 2.2619 -1.12223 0
M  V30 712 C 80.3243 -0.386122 -2.98211 0
M  V30 713 C 81.8723 -0.336647 -3.11184 0
M  V30 714 C 82.3473 -0.728607 -4.52167 0
M  V30 715 N 83.8383 -0.681952 -4.58152 0
M  V30 716 C 84.5733 -0.957449 -5.6535 0
M  V30 717 N 84.0693 -1.3 -6.80494 0
M  V30 718 N 85.8623 -0.883113 -5.55119 0
M  V30 719 H 78.0133 -1.28332 -1.69247 0
M  V30 720 H 80.2763 -0.521716 -0.791528 0
M  V30 721 H 79.9823 -1.41404 -3.22022 0
M  V30 722 H 79.8563 0.249662 -3.76373 0
M  V30 723 H 82.2433 0.682058 -2.8711 0
M  V30 724 H 82.3243 -1.00734 -2.3513 0
M  V30 725 H 81.9683 -1.74522 -4.76974 0
M  V30 726 H 81.8983 -0.0356152 -5.26588 0
M  V30 727 H 84.3893 -0.428985 -3.75457 0
M  V30 728 H 84.7023 -1.49563 -7.58189 0
M  V30 729 H 83.0473 -1.33824 -6.81994 0
M  V30 730 H 86.2383 -0.615001 -4.64042 0
M  V30 731 H 86.4113 -1.10118 -6.38575 0
M  V30 732 N 79.8174 1.5752 -0.0501392 0
M  V30 733 C 81.0654 1.9227 0.622642 0
M  V30 734 C 81.3864 0.929083 1.71444 0
M  V30 735 O 80.6564 -0.0262186 1.95882 0
M  V30 736 H 79.2364 0.709739 0.232981 0
M  V30 737 H 81.8984 1.94628 -0.102898 0
M  V30 738 H 80.9944 2.93479 1.06191 0
M  V30 739 N 81.2955 -0.223234 1.56011 0
M  V30 740 C 82.2585 -1.26014 1.9145 0
M  V30 741 C 83.2585 -1.3989 0.792937 0
M  V30 742 O 84.4485 -1.38184 1.0607 0
M  V30 743 C 81.5805 -2.63422 2.16383 0
M  V30 744 H 82.7735 -0.95796 2.84189 0
M  V30 745 H 80.3265 -0.463576 1.49267 0
M  V30 746 H 81.0615 -2.98741 1.2619 0
M  V30 747 H 80.8465 -2.54728 2.98088 0
M  V30 748 H 82.3365 -3.38249 2.44903 0
M  V30 749 N 82.7736 -1.49793 -0.48987 0
M  V30 750 C 83.7056 -1.63413 -1.60713 0
M  V30 751 C 84.7186 -0.516329 -1.54395 0
M  V30 752 O 85.9076 -0.788812 -1.60125 0
M  V30 753 C 83.0076 -1.58516 -2.99543 0
M  V30 754 C 82.1806 -2.86016 -3.30928 0
M  V30 755 C 81.2396 -2.74018 -4.49222 0
M  V30 756 O 80.2656 -3.47964 -4.50455 0
M  V30 757 N 81.4676 -1.86309 -5.4979 0
M  V30 758 H 84.2326 -2.59777 -1.49452 0
M  V30 759 H 81.7936 -1.47022 -0.677955 0
M  V30 760 H 83.7856 -1.48128 -3.76617 0
M  V30 761 H 82.3556 -0.69965 -3.0467 0
M  V30 762 H 81.5756 -3.10672 -2.42645 0
M  V30 763 H 82.8636 -3.70521 -3.487 0
M  V30 764 H 82.2616 -1.2551 -5.51601 0
M  V30 765 H 80.8186 -1.81837 -6.25922 0
M  V30 766 N 84.2517 0.741722 -1.39055 0
M  V30 767 C 85.6677 1.04638 -1.20512 0
M  V30 768 C 85.8677 2.01405 -0.0620218 0
M  V30 769 O 84.9237 2.45547 0.588457 0
M  V30 770 C 86.2367 1.6151 -2.53643 0
M  V30 771 C 87.7847 1.73623 -2.6043 0
M  V30 772 C 88.2597 2.33906 -3.93767 0
M  V30 773 N 89.7507 2.41323 -3.9537 0
M  V30 774 C 90.4857 2.88888 -4.95309 0
M  V30 775 N 89.9817 3.36401 -6.05645 0
M  V30 776 N 91.7747 2.88037 -4.82692 0
M  V30 777 H 83.9257 0.0998155 -2.12165 0
M  V30 778 H 86.1887 0.106907 -0.941953 0
M  V30 779 H 85.8947 0.978739 -3.37807 0
M  V30 780 H 85.7687 2.60411 -2.72885 0
M  V30 781 H 88.1557 2.36384 -1.76655 0
M  V30 782 H 88.2367 0.733945 -2.45045 0
M  V30 783 H 87.8807 1.71776 -4.7797 0
M  V30 784 H 87.8107 3.34799 -4.06469 0
M  V30 785 H 90.3017 2.07734 -3.15682 0
M  V30 786 H 90.6147 3.71186 -6.77821 0
M  V30 787 H 88.9597 3.34427 -6.09248 0
M  V30 788 H 92.1507 2.50237 -3.95599 0
M  V30 789 H 92.3237 3.24792 -5.60726 0
M  V30 790 N 85.7298 1.2412 0.971189 0
M  V30 791 C 87.0068 0.986867 1.6888 0
M  V30 792 C 87.3868 -0.491857 2.0529 0
M  V30 793 O 86.7348 -1.46531 1.75331 0
M  V30 794 C 86.9448 1.9063 2.92338 0
M  V30 795 C 88.2928 2.17515 3.64654 0
M  V30 796 O 89.3168 1.88254 3.02388 0
M  V30 797 O 88.1758 2.6719 4.7673 0
M  V30 798 H 85.2698 0.372944 0.738134 0
M  V30 799 H 87.8158 1.35203 1.02559 0
M  V30 800 H 86.5878 2.90552 2.62097 0
M  V30 801 H 86.2108 1.54408 3.66393 0
M  V30 802 N 87.2079 -1.17134 1.05439 0
M  V30 803 C 88.1709 -2.19439 0.661764 0
M  V30 804 C 89.1709 -1.58199 -0.288042 0
M  V30 805 O 90.3609 -1.74053 -0.0715803 0
M  V30 806 C 87.4929 -3.40889 -0.0276209 0
M  V30 807 H 88.6859 -2.55688 1.56728 0
M  V30 808 H 86.2389 -1.31259 0.848567 0
M  V30 809 H 86.9739 -3.10187 -0.94629 0
M  V30 810 H 86.7589 -3.86586 0.655238 0
M  V30 811 H 88.2489 -4.16603 -0.288342 0
M  V30 812 N 88.686 -0.835752 -1.33615 0
M  V30 813 C 89.963 -0.352017 -1.92406 0
M  V30 814 C 90.343 1.16225 -1.76224 0
M  V30 815 O 89.691 1.97526 -1.14873 0
M  V30 816 C 89.901 -0.795485 -3.39813 0
M  V30 817 C 91.249 -0.801703 -4.16963 0
M  V30 818 O 92.273 -0.738889 -3.48452 0
M  V30 819 O 91.132 -0.886607 -5.3926 0
M  V30 820 H 88.226 -0.0989641 -0.821057 0
M  V30 821 H 90.772 -0.921397 -1.42507 0
M  V30 822 H 89.544 -1.83795 -3.45449 0
M  V30 823 H 89.167 -0.202505 -3.97084 0
M  V30 824 N 90.1641 1.46063 -0.591896 0
M  V30 825 C 91.3891 2.07226 -0.0850314 0
M  V30 826 C 91.8141 1.43625 1.21463 0
M  V30 827 O 91.1721 0.523305 1.73583 0
M  V30 828 C 91.2201 3.60554 0.0576567 0
M  V30 829 O 90.3241 3.97128 1.11188 0
M  V30 830 H 89.6651 0.660615 -0.0669568 0
M  V30 831 H 92.1951 1.8756 -0.81745 0
M  V30 832 H 92.2051 4.07165 0.2609 0
M  V30 833 H 90.8801 4.06235 -0.891416 0
M  V30 834 H 89.4571 3.62213 0.886356 0
M  V30 835 N 91.6422 0.330177 1.54103 0
M  V30 836 C 92.8902 -0.269871 2.0029 0
M  V30 837 C 93.2112 -1.52133 1.21986 0
M  V30 838 O 92.4812 -1.93212 0.323438 0
M  V30 839 H 91.0612 -0.10271 0.739905 0
M  V30 840 H 93.7232 0.448249 1.89675 0
M  V30 841 H 92.8192 -0.52166 3.07709 0
M  V30 842 N 93.1203 -1.57491 0.0584922 0
M  V30 843 C 94.3663 -1.93264 -0.614558 0
M  V30 844 C 94.6993 -0.937717 -1.7006 0
M  V30 845 O 93.9743 0.0351652 -1.94468 0
M  V30 846 C 94.2573 -3.3938 -1.20386 0
M  V30 847 C 94.1103 -4.49625 -0.125375 0
M  V30 848 C 95.4293 -3.86039 -2.11334 0
M  V30 849 H 92.5483 -0.702791 -0.221933 0
M  V30 850 H 95.1903 -1.8961 0.12175 0
M  V30 851 H 93.3403 -3.42626 -1.83139 0
M  V30 852 H 95.0123 -4.58506 0.506971 0
M  V30 853 H 93.2553 -4.30354 0.545672 0
M  V30 854 H 93.9263 -5.48967 -0.577861 0
M  V30 855 H 96.4023 -3.84716 -1.58534 0
M  V30 856 H 95.2783 -4.88914 -2.49507 0
M  V30 857 H 95.5393 -3.23215 -3.01636 0
M  V30 858 N 94.5984 0.214957 -1.56127 0
M  V30 859 C 96.0144 0.564948 -1.49267 0
M  V30 860 C 96.2144 1.86827 -0.754838 0
M  V30 861 O 95.2704 2.50745 -0.297198 0
M  V30 862 C 96.5834 0.638071 -2.93852 0
M  V30 863 C 98.1314 0.728253 -3.0441 0
M  V30 864 C 98.6064 0.832663 -4.50367 0
M  V30 865 N 100.097 0.896712 -4.54437 0
M  V30 866 C 100.832 0.997324 -5.6466 0
M  V30 867 N 100.328 1.06147 -6.8462 0
M  V30 868 N 102.121 1.03297 -5.52527 0
M  V30 869 H 94.2724 -0.640211 -2.02522 0
M  V30 870 H 96.5354 -0.225507 -0.920788 0
M  V30 871 H 96.2414 -0.250126 -3.50809 0
M  V30 872 H 96.1154 1.49947 -3.46115 0
M  V30 873 H 98.5024 1.60689 -2.47514 0
M  V30 874 H 98.5834 -0.158952 -2.55306 0
M  V30 875 H 98.2274 -0.0415417 -5.07883 0
M  V30 876 H 98.1574 1.73538 -4.97184 0
M  V30 877 H 100.648 0.857188 -3.6805 0
M  V30 878 H 100.961 1.1382 -7.64372 0
M  V30 879 H 99.3064 1.03049 -6.87318 0
M  V30 880 H 102.497 0.979558 -4.57736 0
M  V30 881 H 102.67 1.10793 -6.38458 0
M  V30 882 N 96.0765 1.50051 0.48192 0
M  V30 883 C 97.4875 1.5348 1.06305 0
M  V30 884 C 97.8385 0.331997 1.93371 0
M  V30 885 O 96.9635 -0.556256 2.09129 0
M  V30 886 C 97.5585 2.7813 1.93466 0
M  V30 887 C 96.1175 2.84275 2.46707 0
M  V30 888 C 95.2645 2.47637 1.24785 0
M  V30 889 H 98.2155 1.56472 0.264995 0
M  V30 890 H 98.2365 2.59372 2.78399 0
M  V30 891 H 97.7485 3.65654 1.30072 0
M  V30 892 H 95.8495 2.01077 3.13686 0
M  V30 893 H 95.9625 3.8691 2.82555 0
M  V30 894 H 94.3265 1.99835 1.57918 0
M  V30 895 H 95.1095 3.37457 0.630694 0
M  V30 896 N 97.5546 -0.734337 1.39446 0
M  V30 897 C 98.4846 -1.86155 1.40955 0
M  V30 898 C 99.4656 -1.67898 0.272827 0
M  V30 899 O 100.651 -1.88207 0.478743 0
M  V30 900 C 97.7806 -3.23912 1.25294 0
M  V30 901 C 96.7346 -3.56808 2.36373 0
M  V30 902 C 96.0606 -4.93508 2.058 0
M  V30 903 C 97.3606 -3.59713 3.78687 0
M  V30 904 H 99.0546 -1.8515 2.35287 0
M  V30 905 H 96.6006 -0.889367 1.13253 0
M  V30 906 H 98.5536 -4.02443 1.2497 0
M  V30 907 H 97.2776 -3.25446 0.274308 0
M  V30 908 H 95.9366 -2.80606 2.35914 0
M  V30 909 H 95.5846 -4.91623 1.06374 0
M  V30 910 H 95.2846 -5.16486 2.80208 0
M  V30 911 H 96.8086 -5.74396 2.07128 0
M  V30 912 H 98.2226 -4.2832 3.81071 0
M  V30 913 H 96.6196 -3.94209 4.52459 0
M  V30 914 H 97.6896 -2.59504 4.09617 0
M  V30 915 N 99.0327 -1.24633 -0.964593 0
M  V30 916 C 100.444 -1.08045 -1.5226 0
M  V30 917 C 100.795 0.347116 -1.93105 0
M  V30 918 O 99.9197 1.23588 -1.77637 0
M  V30 919 C 100.515 -1.95514 -2.76695 0
M  V30 920 C 99.0737 -1.8314 -3.28841 0
M  V30 921 C 98.2207 -1.90262 -2.01732 0
M  V30 922 H 101.172 -1.38064 -0.782553 0
M  V30 923 H 101.193 -1.48925 -3.50145 0
M  V30 924 H 100.705 -2.99407 -2.46936 0
M  V30 925 H 98.8057 -0.82092 -3.63444 0
M  V30 926 H 98.9187 -2.67406 -3.97531 0
M  V30 927 H 97.2827 -1.34027 -2.16584 0
M  V30 928 H 98.0657 -2.9574 -1.74334 0
M  V30 929 N 100.511 1.16574 -1.06058 0
M  V30 930 C 101.922 1.68662 -0.800632 0
M  V30 931 C 102.273 1.84184 0.67608 0
M  V30 932 O 101.398 1.53568 1.52466 0
M  V30 933 C 101.993 3.06356 -1.44676 0
M  V30 934 C 100.552 3.55575 -1.23465 0
M  V30 935 C 99.6988 2.31616 -1.52477 0
M  V30 936 H 102.65 1.00969 -1.22438 0
M  V30 937 H 102.671 3.70636 -0.860788 0
M  V30 938 H 102.183 2.95027 -2.52152 0
M  V30 939 H 100.284 3.72167 -0.179527 0
M  V30 940 H 100.397 4.37812 -1.94571 0
M  V30 941 H 98.7608 2.36512 -0.945209 0
M  V30 942 H 99.5438 2.22887 -2.61106 0
M  V30 943 N 101.989 0.842826 1.3317 0
M  V30 944 C 102.919 0.294028 2.31641 0
M  V30 945 C 103.9 -0.600401 1.59151 0
M  V30 946 O 105.085 -0.523124 1.87022 0
M  V30 947 C 102.215 -0.528416 3.43257 0
M  V30 948 C 101.169 0.27056 4.27144 0
M  V30 949 C 100.495 -0.675881 5.30411 0
M  V30 950 C 101.795 1.48981 5.00602 0
M  V30 951 H 103.489 1.11681 2.77791 0
M  V30 952 H 101.035 0.538478 1.33553 0
M  V30 953 H 102.988 -0.922674 4.11175 0
M  V30 954 H 101.712 -1.38445 2.95805 0
M  V30 955 H 100.371 0.646427 3.60856 0
M  V30 956 H 100.019 -1.52842 4.79216 0
M  V30 957 H 99.7189 -0.145374 5.8742 0
M  V30 958 H 101.243 -1.06757 6.01195 0
M  V30 959 H 102.657 1.16849 5.61266 0
M  V30 960 H 101.054 1.95739 5.6728 0
M  V30 961 H 102.124 2.25746 4.29147 0
M  V30 962 N 103.467 -1.45747 0.599634 0
M  V30 963 C 104.878 -1.85853 0.177681 0
M  V30 964 C 105.229 -1.50102 -1.26348 0
M  V30 965 O 104.354 -0.923905 -1.95686 0
M  V30 966 C 104.949 -3.37326 0.315688 0
M  V30 967 C 103.508 -3.76365 -0.0515144 0
M  V30 968 C 102.655 -2.69722 0.643822 0
M  V30 969 H 105.606 -1.36661 0.806814 0
M  V30 970 H 105.627 -3.77778 -0.454321 0
M  V30 971 H 105.139 -3.63315 1.36468 0
M  V30 972 H 103.24 -3.55993 -1.09999 0
M  V30 973 H 103.353 -4.77916 0.336594 0
M  V30 974 H 101.717 -2.54567 0.0822881 0
M  V30 975 H 102.5 -2.98549 1.6948 0
M  V30 976 N 104.945 -0.338344 -1.53925 0
M  V30 977 C 106.222 0.314774 -1.93051 0
M  V30 978 C 106.602 1.68669 -1.26941 0
M  V30 979 O 105.95 2.24636 -0.418445 0
M  V30 980 C 106.16 0.392249 -3.46789 0
M  V30 981 C 107.508 0.645554 -4.19664 0
M  V30 982 O 108.532 0.474575 -3.53024 0
M  V30 983 O 107.391 0.976408 -5.37707 0
M  V30 984 H 104.485 0.182598 -0.80659 0
M  V30 985 H 107.031 -0.389141 -1.65178 0
M  V30 986 H 105.803 -0.570702 -3.87116 0
M  V30 987 H 105.426 1.14316 -3.80812 0
M  V30 988 N 106.423 1.57458 -0.0668435 0
M  V30 989 C 107.834 1.80776 0.466558 0
M  V30 990 C 108.185 0.980361 1.69951 0
M  V30 991 O 107.31 0.201441 2.1546 0
M  V30 992 C 107.905 3.27881 0.85321 0
M  V30 993 C 106.464 3.52062 1.3315 0
M  V30 994 C 105.611 2.75513 0.314264 0
M  V30 995 H 108.562 1.5598 -0.292588 0
M  V30 996 H 108.583 3.39659 1.715 0
M  V30 997 H 108.095 3.88075 -0.0443439 0
M  V30 998 H 106.196 2.97167 2.24772 0
M  V30 999 H 106.309 4.60762 1.31285 0
M  V30 1000 H 104.673 2.42123 0.790492 0
M  V30 1001 H 105.456 3.38442 -0.575477 0
M  V30 1002 N 107.901 -0.206675 1.56239 0
M  V30 1003 C 109.149 -0.927007 1.79586 0
M  V30 1004 C 109.47 -1.8427 0.637929 0
M  V30 1005 O 108.74 -1.92849 -0.344398 0
M  V30 1006 H 107.32 -0.345292 0.662407 0
M  V30 1007 H 109.982 -0.21496 1.93711 0
M  V30 1008 H 109.078 -1.52501 2.72305 0
M  V30 1009 N 109.379 -1.50304 -0.473955 0
M  V30 1010 C 110.625 -1.61389 -1.22806 0
M  V30 1011 C 110.958 -0.311955 -1.91678 0
M  V30 1012 O 110.233 0.686384 -1.81986 0
M  V30 1013 C 110.516 -2.79219 -2.27396 0
M  V30 1014 C 110.369 -4.19286 -1.62848 0
M  V30 1015 C 111.688 -2.92614 -3.28732 0
M  V30 1016 H 108.807 -0.587399 -0.445119 0
M  V30 1017 H 111.449 -1.82681 -0.522265 0
M  V30 1018 H 109.599 -2.61195 -2.87592 0
M  V30 1019 H 111.271 -4.48892 -1.06271 0
M  V30 1020 H 109.514 -4.23677 -0.931693 0
M  V30 1021 H 110.185 -4.97655 -2.38838 0
M  V30 1022 H 112.661 -3.09105 -2.78556 0
M  V30 1023 H 111.537 -3.76688 -3.99246 0
M  V30 1024 H 111.798 -2.03107 -3.92683 0
M  V30 1025 N 110.857 0.726932 -1.39834 0
M  V30 1026 C 112.273 1.03354 -1.21615 0
M  V30 1027 C 112.473 2.01327 -0.08338 0
M  V30 1028 O 111.529 2.46158 0.56238 0
M  V30 1029 C 112.842 1.58811 -2.55342 0
M  V30 1030 C 114.39 1.70851 -2.62257 0
M  V30 1031 C 114.865 2.29716 -3.96225 0
M  V30 1032 N 116.356 2.37116 -3.97907 0
M  V30 1033 C 117.091 2.83619 -4.98345 0
M  V30 1034 N 116.587 3.29958 -6.09179 0
M  V30 1035 N 118.38 2.82901 -4.8572 0
M  V30 1036 H 110.531 0.0773069 -2.12259 0
M  V30 1037 H 112.794 0.0969102 -0.943034 0
M  V30 1038 H 112.5 0.942855 -3.38826 0
M  V30 1039 H 112.374 2.57502 -2.75632 0
M  V30 1040 H 114.761 2.34497 -1.79152 0
M  V30 1041 H 114.842 0.707913 -2.45809 0
M  V30 1042 H 114.486 1.66696 -4.79765 0
M  V30 1043 H 114.416 3.30469 -4.09997 0
M  V30 1044 H 116.907 2.04374 -3.17868 0
M  V30 1045 H 117.22 3.63976 -6.8172 0
M  V30 1046 H 115.565 3.27946 -6.12761 0
M  V30 1047 H 118.756 2.46027 -3.98231 0
M  V30 1048 H 118.929 3.18827 -5.6414 0
M  V30 1049 N 112.336 1.25143 0.95797 0
M  V30 1050 C 113.747 1.08851 1.51685 0
M  V30 1051 C 114.098 -0.33687 1.93286 0
M  V30 1052 O 113.223 -1.22644 1.7829 0
M  V30 1053 C 113.818 1.96978 2.75654 0
M  V30 1054 C 112.377 1.84881 3.27866 0
M  V30 1055 C 111.524 1.91329 2.0072 0
M  V30 1056 H 114.475 1.38478 0.77522 0
M  V30 1057 H 114.496 1.5078 3.4935 0
M  V30 1058 H 114.008 3.00712 2.45345 0
M  V30 1059 H 112.109 0.840182 3.63004 0
M  V30 1060 H 112.222 2.6951 3.96107 0
M  V30 1061 H 110.586 1.35174 2.15871 0
M  V30 1062 H 111.369 2.96661 1.72764 0
M  V30 1063 N 113.814 -1.1601 1.06675 0
M  V30 1064 C 114.744 -2.22688 0.702307 0
M  V30 1065 C 115.725 -1.67306 -0.307032 0
M  V30 1066 O 116.91 -1.93352 -0.181305 0
M  V30 1067 C 114.04 -3.47178 0.092038 0
M  V30 1068 C 112.994 -4.15477 1.02777 0
M  V30 1069 C 112.32 -5.33963 0.28061 0
M  V30 1070 C 113.62 -4.66019 2.35846 0
M  V30 1071 H 115.314 -2.53429 1.59419 0
M  V30 1072 H 112.86 -1.21813 0.767961 0
M  V30 1073 H 114.813 -4.21037 -0.174814 0
M  V30 1074 H 113.537 -3.15749 -0.834877 0
M  V30 1075 H 112.196 -3.43549 1.27944 0
M  V30 1076 H 111.844 -4.98788 -0.649545 0
M  V30 1077 H 111.544 -5.806 0.904258 0
M  V30 1078 H 113.068 -6.10596 0.021396 0
M  V30 1079 H 114.482 -5.3144 2.15045 0
M  V30 1080 H 112.879 -5.23293 2.93743 0
M  V30 1081 H 113.949 -3.82023 2.98641 0
M  V30 1082 N 115.292 -0.849877 -1.32721 0
M  V30 1083 C 116.703 -0.506188 -1.79707 0
M  V30 1084 C 117.054 0.975627 -1.70223 0
M  V30 1085 O 116.179 1.76078 -1.25799 0
M  V30 1086 C 116.774 -0.912044 -3.26293 0
M  V30 1087 C 115.333 -0.620326 -3.71253 0
M  V30 1088 C 114.48 -1.11439 -2.53922 0
M  V30 1089 H 117.431 -1.03754 -1.20087 0
M  V30 1090 H 117.452 -0.226493 -3.79825 0
M  V30 1091 H 116.964 -1.99057 -3.33164 0
M  V30 1092 H 115.065 0.447674 -3.69901 0
M  V30 1093 H 115.178 -1.18327 -4.64258 0
M  V30 1094 H 113.542 -0.534834 -2.49021 0
M  V30 1095 H 114.325 -2.19992 -2.6355 0
M  V30 1096 N 116.77 1.45427 -0.607355 0
M  V30 1097 C 118.181 1.85756 -0.187535 0
M  V30 1098 C 118.532 1.5077 1.25551 0
M  V30 1099 O 117.657 0.93427 1.95193 0
M  V30 1100 C 118.252 3.37154 -0.333572 0
M  V30 1101 C 116.811 3.76387 0.0315542 0
M  V30 1102 C 115.958 2.69377 -0.658117 0
M  V30 1103 H 118.909 1.36231 -0.81405 0
M  V30 1104 H 118.93 3.78014 0.43428 0
M  V30 1105 H 118.442 3.62586 -1.38393 0
M  V30 1106 H 116.543 3.56571 1.0811 0
M  V30 1107 H 116.656 4.77731 -0.361935 0
M  V30 1108 H 115.02 2.5452 -0.0957873 0
M  V30 1109 H 115.803 2.97646 -1.7106 0
M  V30 1110 N 118.248 0.346503 1.53744 0
M  V30 1111 C 119.178 -0.501193 2.28058 0
M  V30 1112 C 120.159 -1.10014 1.29734 0
M  V30 1113 O 121.344 -1.12097 1.58581 0
M  V30 1114 C 118.474 -1.65078 3.05559 0
M  V30 1115 C 117.428 -1.18003 4.11411 0
M  V30 1116 C 116.754 -2.41837 4.76884 0
M  V30 1117 C 118.054 -0.278394 5.21558 0
M  V30 1118 H 119.748 0.11875 2.99164 0
M  V30 1119 H 117.294 0.0585531 1.43881 0
M  V30 1120 H 119.247 -2.25028 3.56287 0
M  V30 1121 H 117.971 -2.29767 2.32109 0
M  V30 1122 H 116.63 -0.603331 3.61601 0
M  V30 1123 H 116.278 -3.0494 4.00026 0
M  V30 1124 H 115.978 -2.1102 5.48402 0
M  V30 1125 H 117.502 -3.02508 5.30397 0
M  V30 1126 H 118.916 -0.784823 5.67903 0
M  V30 1127 H 117.313 -0.0619707 6.00068 0
M  V30 1128 H 118.383 0.684677 4.80042 0
M  V30 1129 N 119.726 -1.57421 0.075193 0
M  V30 1130 C 121.137 -1.81021 -0.456964 0
M  V30 1131 C 121.488 -0.98936 -1.69429 0
M  V30 1132 O 120.613 -0.212865 -2.15351 0
M  V30 1133 C 121.208 -3.28329 -0.83581 0
M  V30 1134 C 119.767 -3.52764 -1.31281 0
M  V30 1135 C 118.914 -2.75676 -0.299648 0
M  V30 1136 H 121.865 -1.55822 0.300856 0
M  V30 1137 H 121.886 -3.40564 -1.69696 0
M  V30 1138 H 121.398 -3.88046 0.0649238 0
M  V30 1139 H 119.499 -2.98355 -2.23193 0
M  V30 1140 H 119.612 -4.61451 -1.28839 0
M  V30 1141 H 117.976 -2.42538 -0.777641 0
M  V30 1142 H 118.759 -3.38132 0.593417 0
M  V30 1143 N 121.204 0.198386 -1.56346 0
M  V30 1144 C 122.114 1.2664 -1.97483 0
M  V30 1145 C 123.13 1.49989 -0.882002 0
M  V30 1146 O 124.306 1.62668 -1.18748 0
M  V30 1147 C 121.371 2.59141 -2.30319 0
M  V30 1148 C 120.432 2.43892 -3.53292 0
M  V30 1149 C 119.665 3.70074 -3.84553 0
M  V30 1150 O 119.888 4.74101 -3.1715 0
M  V30 1151 O 118.822 3.658 -4.7799 0
M  V30 1152 H 122.648 0.947304 -2.88548 0
M  V30 1153 H 120.233 0.403123 -1.43859 0
M  V30 1154 H 122.115 3.37352 -2.5253 0
M  V30 1155 H 120.79 2.90684 -1.42423 0
M  V30 1156 H 119.697 1.63803 -3.36332 0
M  V30 1157 H 121.03 2.17282 -4.41644 0
M  V30 1158 N 122.682 1.50554 0.465978 0
M  V30 1159 C 123.592 1.72585 1.58907 0
M  V30 1160 C 124.608 0.60911 1.6299 0
M  V30 1161 O 125.784 0.88804 1.80765 0
M  V30 1162 C 122.849 1.81995 2.95091 0
M  V30 1163 C 121.91 3.05751 3.01355 0
M  V30 1164 C 121.143 3.14702 4.31043 0
M  V30 1165 O 121.366 2.30313 5.21835 0
M  V30 1166 O 120.3 4.07468 4.43005 0
M  V30 1167 H 124.126 2.67799 1.43239 0
M  V30 1168 H 121.711 1.34711 0.646013 0
M  V30 1169 H 123.593 1.90335 3.75966 0
M  V30 1170 H 122.268 0.899659 3.10947 0
M  V30 1171 H 121.175 3.02908 2.19539 0
M  V30 1172 H 122.508 3.97375 2.90437 0
M  V30 1173 N 124.16 -0.719506 1.40217 0
M  V30 1174 C 125.09 -1.8465 1.42922 0
M  V30 1175 C 126.071 -1.67599 0.29062 0
M  V30 1176 O 127.256 -1.87688 0.498677 0
M  V30 1177 C 124.386 -3.22565 1.28722 0
M  V30 1178 C 123.34 -3.54281 2.40144 0
M  V30 1179 C 122.666 -4.91298 2.11023 0
M  V30 1180 C 123.966 -3.55676 3.82481 0
M  V30 1181 H 125.66 -1.82644 2.37237 0
M  V30 1182 H 123.206 -0.877305 1.1419 0
M  V30 1183 H 125.159 -4.01095 1.29232 0
M  V30 1184 H 123.883 -3.25137 0.308811 0
M  V30 1185 H 122.542 -2.78088 2.38877 0
M  V30 1186 H 122.19 -4.90468 1.11582 0
M  V30 1187 H 121.89 -5.13485 2.8567 0
M  V30 1188 H 123.414 -5.72166 2.13209 0
M  V30 1189 H 124.828 -4.24254 3.85592 0
M  V30 1190 H 123.225 -3.89388 4.56614 0
M  V30 1191 H 124.295 -2.55144 4.12346 0
M  V30 1192 N 125.638 -1.25649 -0.95132 0
M  V30 1193 C 127.049 -1.09654 -1.51106 0
M  V30 1194 C 127.4 0.326615 -1.93462 0
M  V30 1195 O 126.525 1.21697 -1.78938 0
M  V30 1196 C 127.12 -1.98437 -2.74605 0
M  V30 1197 C 125.679 -1.86618 -3.2688 0
M  V30 1198 C 124.826 -1.9239 -1.99703 0
M  V30 1199 H 127.777 -1.38887 -0.767865 0
M  V30 1200 H 127.798 -1.5263 -3.48546 0
M  V30 1201 H 127.31 -3.02009 -2.43746 0
M  V30 1202 H 125.411 -0.859421 -3.62553 0
M  V30 1203 H 125.524 -2.71607 -3.94673 0
M  V30 1204 H 123.888 -1.36317 -2.15151 0
M  V30 1205 H 124.671 -2.97573 -1.71188 0
M  V30 1206 N 127.117 1.15442 -1.07289 0
M  V30 1207 C 128.533 1.38201 -0.798288 0
M  V30 1208 C 128.733 1.92429 0.597769 0
M  V30 1209 O 127.789 2.12962 1.3566 0
M  V30 1210 C 129.102 2.35357 -1.87156 0
M  V30 1211 C 130.65 2.49021 -1.89624 0
M  V30 1212 C 131.125 3.49468 -2.96034 0
M  V30 1213 N 132.616 3.57003 -2.95132 0
M  V30 1214 C 133.351 4.34543 -3.74112 0
M  V30 1215 N 132.847 5.15421 -4.6294 0
M  V30 1216 N 134.64 4.29625 -3.62462 0
M  V30 1217 H 126.791 0.78584 -1.97328 0
M  V30 1218 H 129.054 0.408065 -0.855679 0
M  V30 1219 H 128.76 2.02626 -2.87464 0
M  V30 1220 H 128.634 3.35129 -1.73114 0
M  V30 1221 H 131.021 2.81051 -0.899687 0
M  V30 1222 H 131.102 1.4925 -2.07745 0
M  V30 1223 H 130.746 3.18173 -3.95889 0
M  V30 1224 H 130.676 4.48992 -2.75161 0
M  V30 1225 H 133.167 2.99276 -2.30743 0
M  V30 1226 H 133.48 5.7183 -5.19837 0
M  V30 1227 H 131.825 5.14729 -4.66989 0
M  V30 1228 H 135.016 3.65505 -2.92444 0
M  V30 1229 H 135.189 4.89807 -4.24256 0
M  V30 1230 N 128.595 0.856903 1.32268 0
M  V30 1231 C 130.006 0.515711 1.79436 0
M  V30 1232 C 130.357 -0.966586 1.70738 0
M  V30 1233 O 129.482 -1.75409 1.26731 0
M  V30 1234 C 130.077 0.929335 3.25805 0
M  V30 1235 C 128.636 0.640006 3.70919 0
M  V30 1236 C 127.783 1.12784 2.53328 0
M  V30 1237 H 130.734 1.04389 1.19535 0
M  V30 1238 H 130.755 0.246633 3.797 0
M  V30 1239 H 130.267 2.00821 3.32103 0
M  V30 1240 H 128.368 -0.428051 3.70133 0
M  V30 1241 H 128.481 1.20788 4.63624 0
M  V30 1242 H 126.845 0.548033 2.48734 0
M  V30 1243 H 127.628 2.21387 2.62379 0
M  V30 1244 N 130.073 -1.45103 0.615059 0
M  V30 1245 C 131.489 -1.57137 0.279322 0
M  V30 1246 C 131.689 -1.60523 -1.21797 0
M  V30 1247 O 130.745 -1.53956 -2.00134 0
M  V30 1248 C 132.058 -2.85062 0.957083 0
M  V30 1249 C 133.606 -2.98749 0.933706 0
M  V30 1250 C 134.081 -4.29455 1.59162 0
M  V30 1251 N 135.572 -4.36231 1.55746 0
M  V30 1252 C 136.307 -5.36051 2.0356 0
M  V30 1253 N 135.803 -6.42367 2.59494 0
M  V30 1254 N 137.596 -5.27456 1.94284 0
M  V30 1255 H 129.747 -1.41148 1.58717 0
M  V30 1256 H 132.01 -0.675331 0.665306 0
M  V30 1257 H 131.716 -2.88488 2.01166 0
M  V30 1258 H 131.59 -3.7407 0.48494 0
M  V30 1259 H 133.977 -2.94886 -0.112347 0
M  V30 1260 H 134.058 -2.11132 1.44419 0
M  V30 1261 H 133.702 -4.34077 2.63704 0
M  V30 1262 H 133.632 -5.15901 1.0561 0
M  V30 1263 H 136.123 -3.60011 1.14893 0
M  V30 1264 H 136.436 -7.14793 2.93752 0
M  V30 1265 H 134.781 -6.43097 2.63537 0
M  V30 1266 H 137.972 -4.43308 1.5032 0
M  V30 1267 H 138.145 -6.05099 2.3186 0
M  V30 1268 N 131.551 -0.354651 -1.53558 0
M  V30 1269 C 132.967 -0.00315426 -1.596 0
M  V30 1270 C 133.167 1.47741 -1.37021 0
M  V30 1271 O 132.223 2.23759 -1.16996 0
M  V30 1272 C 133.536 -0.44929 -2.97325 0
M  V30 1273 C 135.084 -0.402578 -3.104 0
M  V30 1274 C 135.559 -0.824355 -4.5052 0
M  V30 1275 N 137.05 -0.778979 -4.56603 0
M  V30 1276 C 137.785 -1.07715 -5.63192 0
M  V30 1277 N 137.281 -1.44405 -6.77583 0
M  V30 1278 N 139.074 -1.00066 -5.53121 0
M  V30 1279 H 131.225 -1.31893 -1.66487 0
M  V30 1280 H 133.488 -0.538388 -0.780284 0
M  V30 1281 H 133.194 -1.48202 -3.1895 0
M  V30 1282 H 133.068 0.169772 -3.76818 0
M  V30 1283 H 135.455 0.621004 -2.88492 0
M  V30 1284 H 135.536 -1.05699 -2.32941 0
M  V30 1285 H 135.18 -1.846 -4.73165 0
M  V30 1286 H 135.11 -0.147304 -5.26394 0
M  V30 1287 H 137.601 -0.508528 -3.74463 0
M  V30 1288 H 137.914 -1.65612 -7.54846 0
M  V30 1289 H 136.259 -1.4826 -6.79002 0
M  V30 1290 H 139.45 -0.713293 -4.62633 0
M  V30 1291 H 139.623 -1.23638 -6.36096 0
M  V30 1292 N 133.029 1.57378 -0.0835403 0
M  V30 1293 C 134.44 1.81261 0.447358 0
M  V30 1294 C 134.791 0.998331 1.68902 0
M  V30 1295 O 133.916 0.224282 2.15235 0
M  V30 1296 C 134.511 3.28767 0.818386 0
M  V30 1297 C 133.07 3.53455 1.29409 0
M  V30 1298 C 132.217 2.75831 0.285024 0
M  V30 1299 H 135.168 1.5566 -0.309115 0
M  V30 1300 H 135.189 3.41459 1.67887 0
M  V30 1301 H 134.701 3.88006 -0.0855019 0
M  V30 1302 H 132.802 2.99534 2.21608 0
M  V30 1303 H 132.915 4.62128 1.2639 0
M  V30 1304 H 131.279 2.42947 0.764767 0
M  V30 1305 H 132.062 3.37813 -0.611341 0
M  V30 1306 N 134.507 -0.190092 1.56449 0
M  V30 1307 C 135.918 -0.754312 1.70784 0
M  V30 1308 C 136.269 -1.83631 0.690951 0
M  V30 1309 O 135.394 -2.15868 -0.151604 0
M  V30 1310 C 135.989 -1.37503 3.09642 0
M  V30 1311 C 134.548 -1.88628 3.25725 0
M  V30 1312 C 133.695 -0.758098 2.66736 0
M  V30 1313 H 136.646 0.0350524 1.58661 0
M  V30 1314 H 136.667 -2.2445 3.0725 0
M  V30 1315 H 136.179 -0.587302 3.83631 0
M  V30 1316 H 134.28 -2.70103 2.56661 0
M  V30 1317 H 134.393 -2.04462 4.3328 0
M  V30 1318 H 132.757 -1.17369 2.26046 0
M  V30 1319 H 133.54 0.0174705 3.43296 0
M  V30 1320 N 135.985 -1.50799 -0.457987 0
M  V30 1321 C 137.396 -1.55152 -1.0385 0
M  V30 1322 C 137.747 -0.362719 -1.92818 0
M  V30 1323 O 136.872 0.522915 -2.09987 0
M  V30 1324 C 137.467 -2.81173 -1.89017 0
M  V30 1325 C 136.026 -2.88164 -2.42154 0
M  V30 1326 C 135.173 -2.49591 -1.20829 0
M  V30 1327 H 138.124 -1.56874 -0.240068 0
M  V30 1328 H 138.145 -2.63769 -2.74238 0
M  V30 1329 H 137.657 -3.67677 -1.24238 0
M  V30 1330 H 135.758 -2.06042 -3.10447 0
M  V30 1331 H 135.871 -3.91356 -2.76364 0
M  V30 1332 H 134.235 -2.02322 -1.54719 0
M  V30 1333 H 135.018 -3.38418 -0.576927 0
M  V30 1334 N 137.463 0.71206 -1.40597 0
M  V30 1335 C 138.373 1.8562 -1.43466 0
M  V30 1336 C 139.389 1.70902 -0.326902 0
M  V30 1337 O 140.565 1.93105 -0.572043 0
M  V30 1338 C 137.63 3.21451 -1.29884 0
M  V30 1339 C 136.691 3.48398 -2.50833 0
M  V30 1340 C 135.924 4.77749 -2.3789 0
M  V30 1341 O 136.147 5.53089 -1.39459 0
M  V30 1342 O 135.081 5.05111 -3.27333 0
M  V30 1343 H 138.907 1.86155 -2.39958 0
M  V30 1344 H 136.492 0.86295 -1.21957 0
M  V30 1345 H 138.374 4.02579 -1.24531 0
M  V30 1346 H 137.049 3.21636 -0.364997 0
M  V30 1347 H 135.956 2.67265 -2.61763 0
M  V30 1348 H 137.289 3.53014 -3.4299 0
M  V30 1349 N 138.941 1.26152 0.944643 0
M  V30 1350 C 140.218 1.02247 1.66748 0
M  V30 1351 C 140.598 -0.448202 2.06287 0
M  V30 1352 O 139.946 -1.42779 1.78399 0
M  V30 1353 C 140.156 1.96788 2.88228 0
M  V30 1354 C 141.504 2.25201 3.59958 0
M  V30 1355 O 142.528 1.94626 2.98327 0
M  V30 1356 O 141.387 2.77242 4.70956 0
M  V30 1357 H 138.481 0.388517 0.730057 0
M  V30 1358 H 141.027 1.37348 0.99668 0
M  V30 1359 H 139.799 2.96047 2.55875 0
M  V30 1360 H 139.422 1.62145 3.63035 0
M  V30 1361 N 140.419 -1.14872 1.07899 0
M  V30 1362 C 141.329 -2.2341 0.715915 0
M  V30 1363 C 142.345 -1.71808 -0.275306 0
M  V30 1364 O 143.521 -2.01039 -0.120545 0
M  V30 1365 C 140.586 -3.46474 0.125168 0
M  V30 1366 C 139.647 -4.13039 1.17034 0
M  V30 1367 C 138.88 -5.30229 0.607688 0
M  V30 1368 O 139.103 -5.675 -0.574497 0
M  V30 1369 O 138.037 -5.86444 1.35526 0
M  V30 1370 H 141.863 -2.56808 1.62121 0
M  V30 1371 H 139.448 -1.22702 0.852322 0
M  V30 1372 H 141.33 -4.20917 -0.201729 0
M  V30 1373 H 140.005 -3.14811 -0.753364 0
M  V30 1374 H 138.912 -3.40493 1.54968 0
M  V30 1375 H 140.245 -4.48796 2.02097 0
M  V30 1376 N 141.898 -0.863906 -1.31812 0
M  V30 1377 C 142.808 -0.318461 -2.32428 0
M  V30 1378 C 143.824 0.568496 -1.64451 0
M  V30 1379 O 145 0.46666 -1.95919 0
M  V30 1380 C 142.065 0.476355 -3.43412 0
M  V30 1381 C 141.126 -0.43784 -4.27061 0
M  V30 1382 C 140.359 0.319138 -5.32745 0
M  V30 1383 O 140.582 1.54799 -5.48993 0
M  V30 1384 O 139.516 -0.319861 -6.01049 0
M  V30 1385 H 143.342 -1.15229 -2.80991 0
M  V30 1386 H 140.927 -0.627103 -1.35602 0
M  V30 1387 H 142.809 0.927156 -4.11074 0
M  V30 1388 H 141.484 1.28683 -2.97022 0
M  V30 1389 H 140.391 -0.937013 -3.62175 0
M  V30 1390 H 141.724 -1.21375 -4.77 0
M  V30 1391 N 143.376 1.44774 -0.622745 0
M  V30 1392 C 144.286 2.34433 0.0886031 0
M  V30 1393 C 145.302 1.52131 0.844529 0
M  V30 1394 O 146.478 1.84886 0.798691 0
M  V30 1395 C 143.543 3.29986 1.0635 0
M  V30 1396 C 142.604 4.28195 0.307873 0
M  V30 1397 C 141.837 5.19183 1.23633 0
M  V30 1398 O 142.06 5.13918 2.47476 0
M  V30 1399 O 140.994 5.97515 0.725189 0
M  V30 1400 H 144.82 2.96693 -0.648599 0
M  V30 1401 H 142.405 1.44408 -0.382957 0
M  V30 1402 H 144.287 3.88825 1.6246 0
M  V30 1403 H 142.962 2.70269 1.78146 0
M  V30 1404 H 141.869 3.72927 -0.296064 0
M  V30 1405 H 143.202 4.90808 -0.3699 0
M  V30 1406 N 144.854 0.36279 1.53368 0
M  V30 1407 C 145.764 -0.492994 2.29362 0
M  V30 1408 C 146.78 -1.09507 1.35219 0
M  V30 1409 O 147.956 -1.10662 1.68273 0
M  V30 1410 C 145.021 -1.61855 3.066 0
M  V30 1411 C 144.082 -1.04429 4.16405 0
M  V30 1412 C 143.315 -2.11621 4.89951 0
M  V30 1413 O 143.538 -3.32684 4.63333 0
M  V30 1414 O 142.472 -1.74835 5.75948 0
M  V30 1415 H 146.298 0.125331 3.03441 0
M  V30 1416 H 143.883 0.127253 1.48857 0
M  V30 1417 H 145.765 -2.27302 3.54841 0
M  V30 1418 H 144.44 -2.22233 2.3536 0
M  V30 1419 H 143.347 -0.353819 3.72423 0
M  V30 1420 H 144.68 -0.485113 4.89804 0
M  V30 1421 N 146.332 -1.57332 0.0918853 0
M  V30 1422 C 147.58 -1.93853 -0.571446 0
M  V30 1423 C 147.901 -0.974212 -1.6892 0
M  V30 1424 O 147.171 -0.0257254 -1.95883 0
M  V30 1425 H 145.751 -0.715666 -0.214082 0
M  V30 1426 H 148.413 -1.94287 0.154464 0
M  V30 1427 H 147.509 -2.96191 -0.983729 0
M  V30 1428 N 147.81 0.181792 -1.56548 0
M  V30 1429 C 149.087 0.926765 -1.72251 0
M  V30 1430 C 149.467 2.00831 -0.650386 0
M  V30 1431 O 148.815 2.26008 0.336521 0
M  V30 1432 C 149.025 1.50106 -3.1507 0
M  V30 1433 C 150.373 1.97805 -3.75711 0
M  V30 1434 O 151.397 1.59922 -3.18282 0
M  V30 1435 O 150.256 2.67555 -4.76525 0
M  V30 1436 H 147.35 0.435506 -0.703039 0
M  V30 1437 H 149.896 0.170443 -1.68842 0
M  V30 1438 H 148.668 0.72212 -3.84579 0
M  V30 1439 H 148.291 2.32186 -3.22763 0
M  V30 1440 N 149.288 1.51039 0.449983 0
M  V30 1441 C 150.699 1.557 1.03026 0
M  V30 1442 C 151.05 0.372939 1.92623 0
M  V30 1443 O 150.175 -0.511771 2.10261 0
M  V30 1444 C 150.77 2.82171 1.87523 0
M  V30 1445 C 149.329 2.89444 2.40622 0
M  V30 1446 C 148.476 2.50228 1.19504 0
M  V30 1447 H 151.427 1.56999 0.231745 0
M  V30 1448 H 151.448 2.65219 2.72835 0
M  V30 1449 H 150.96 3.68331 1.22286 0
M  V30 1450 H 149.061 2.07685 3.0935 0
M  V30 1451 H 149.174 3.92816 2.74285 0
M  V30 1452 H 147.538 2.03139 1.53644 0
M  V30 1453 H 148.321 3.38719 0.558972 0
M  V30 1454 N 150.766 -0.704594 1.40972 0
M  V30 1455 C 152.014 -1.46169 1.39568 0
M  V30 1456 C 152.335 -1.95 0.00253745 0
M  V30 1457 O 151.605 -1.71095 -0.954114 0
M  V30 1458 H 150.185 -0.542326 0.513704 0
M  V30 1459 H 152.847 -0.834553 1.76128 0
M  V30 1460 H 151.943 -2.32922 2.07735 0
M  V30 1461 N 152.244 -1.26651 -0.937939 0
M  V30 1462 C 153.174 -1.10993 -2.05433 0
M  V30 1463 C 154.155 -0.0142161 -1.70094 0
M  V30 1464 O 155.34 -0.186837 -1.93299 0
M  V30 1465 C 152.47 -0.745561 -3.39203 0
M  V30 1466 C 151.424 -1.79337 -3.88616 0
M  V30 1467 C 150.75 -1.28324 -5.19073 0
M  V30 1468 C 152.05 -3.19553 -4.13138 0
M  V30 1469 H 153.744 -2.0438 -2.1879 0
M  V30 1470 H 151.29 -0.984041 -1.05131 0
M  V30 1471 H 153.243 -0.622888 -4.16771 0
M  V30 1472 H 151.967 0.22401 -3.25831 0
M  V30 1473 H 150.626 -1.90477 -3.13231 0
M  V30 1474 H 150.274 -0.303414 -5.02084 0
M  V30 1475 H 149.974 -1.98369 -5.53103 0
M  V30 1476 H 151.498 -1.1733 -5.99221 0
M  V30 1477 H 152.912 -3.11471 -4.81309 0
M  V30 1478 H 151.309 -3.87218 -4.58457 0
M  V30 1479 H 152.379 -3.65368 -3.18801 0
M  V30 1480 N 153.722 1.14298 -1.08507 0
M  V30 1481 C 154.97 1.84993 -0.813763 0
M  V30 1482 C 155.291 1.83405 0.662393 0
M  V30 1483 O 154.561 1.28319 1.48024 0
M  V30 1484 H 153.141 0.684966 -0.298045 0
M  V30 1485 H 155.803 1.385 -1.37126 0
M  V30 1486 H 154.899 2.89788 -1.15884 0
M  V30 1487 N 155.201 0.870884 1.31352 0
M  V30 1488 C 156.429 0.49677 2.00848 0
M  V30 1489 C 156.844 -0.910998 1.65367 0
M  V30 1490 O 156.201 -1.59696 0.883374 0
M  V30 1491 C 156.252 0.645308 3.55694 0
M  V30 1492 O 155.973 1.99764 3.89905 0
M  V30 1493 C 157.474 0.272326 4.42463 0
M  V30 1494 H 154.694 0.193462 0.642506 0
M  V30 1495 H 157.238 1.1723 1.67563 0
M  V30 1496 H 155.393 0.0173176 3.87396 0
M  V30 1497 H 155.807 2.00607 4.84621 0
M  V30 1498 H 157.281 0.427208 5.50344 0
M  V30 1499 H 157.758 -0.788587 4.32062 0
M  V30 1500 H 158.364 0.876054 4.1618 0
M  V30 1501 N 156.679 -1.44442 0.630414 0
M  V30 1502 C 157.925 -2.02351 0.134816 0
M  V30 1503 C 158.258 -1.4947 -1.23986 0
M  V30 1504 O 157.533 -0.678475 -1.82283 0
M  V30 1505 C 157.816 -3.59898 0.120707 0
M  V30 1506 C 157.669 -4.23063 1.52767 0
M  V30 1507 C 158.988 -4.36585 -0.555127 0
M  V30 1508 H 156.107 -0.73527 0.0504646 0
M  V30 1509 H 158.749 -1.72022 0.806751 0
M  V30 1510 H 156.899 -3.85868 -0.451477 0
M  V30 1511 H 158.571 -4.08202 2.14869 0
M  V30 1512 H 156.814 -3.80586 2.08175 0
M  V30 1513 H 157.485 -5.32071 1.46984 0
M  V30 1514 H 159.961 -4.16044 -0.0685429 0
M  V30 1515 H 158.837 -5.46294 -0.534185 0
M  V30 1516 H 159.098 -4.11138 -1.62535 0
M  V30 1517 N 158.157 -0.370918 -1.53173 0
M  V30 1518 C 159.067 0.480823 -2.2962 0
M  V30 1519 C 160.083 1.08789 -1.35798 0
M  V30 1520 O 161.259 1.09768 -1.68858 0
M  V30 1521 C 158.324 1.60227 -3.07454 0
M  V30 1522 C 157.385 1.0222 -4.16953 0
M  V30 1523 C 156.618 2.0902 -4.91066 0
M  V30 1524 O 156.841 3.30222 -4.65091 0
M  V30 1525 O 155.775 1.71778 -5.76867 0
M  V30 1526 H 159.601 -0.141421 -3.03371 0
M  V30 1527 H 157.186 -0.135146 -1.48787 0
M  V30 1528 H 159.068 2.25417 -3.56041 0
M  V30 1529 H 157.743 2.20982 -2.36535 0
M  V30 1530 H 156.65 0.334064 -3.72605 0
M  V30 1531 H 157.983 0.459131 -4.90054 0
M  V30 1532 N 159.635 1.57281 -0.100228 0
M  V30 1533 C 160.912 1.86014 0.604812 0
M  V30 1534 C 161.292 0.998025 1.86018 0
M  V30 1535 O 160.64 0.0718184 2.28387 0
M  V30 1536 C 160.85 3.36784 0.915278 0
M  V30 1537 C 162.198 4.04957 1.27651 0
M  V30 1538 O 163.222 3.41695 1.00613 0
M  V30 1539 O 162.081 5.16593 1.7831 0
M  V30 1540 H 159.175 0.76942 0.303185 0
M  V30 1541 H 161.721 1.69176 -0.133313 0
M  V30 1542 H 160.493 3.91292 0.0248896 0
M  V30 1543 H 160.116 3.58987 1.70921 0
M  V30 1544 N 161.113 -0.173488 1.56642 0
M  V30 1545 C 162.045 -1.23935 1.92802 0
M  V30 1546 C 163.058 -1.40589 0.820889 0
M  V30 1547 O 164.247 -1.40631 1.09933 0
M  V30 1548 C 161.347 -2.60837 2.16373 0
M  V30 1549 C 160.52 -2.6551 3.47596 0
M  V30 1550 C 159.579 -3.8376 3.60021 0
M  V30 1551 O 158.605 -3.69859 4.32658 0
M  V30 1552 N 159.807 -5.00127 2.94709 0
M  V30 1553 H 162.572 -0.932236 2.84832 0
M  V30 1554 H 160.133 -0.363268 1.57772 0
M  V30 1555 H 162.125 -3.38407 2.21952 0
M  V30 1556 H 160.695 -2.83948 1.30738 0
M  V30 1557 H 159.915 -1.74052 3.53694 0
M  V30 1558 H 161.203 -2.65641 4.33949 0
M  V30 1559 H 160.601 -5.14322 2.35563 0
M  V30 1560 H 159.158 -5.75567 3.05886 0
M  V30 1561 N 162.591 -1.51276 -0.441967 0
M  V30 1562 C 163.554 -1.7167 -1.51862 0
M  V30 1563 C 164.554 -0.586793 -1.49711 0
M  V30 1564 O 165.744 -0.854276 -1.51815 0
M  V30 1565 C 162.876 -1.76889 -2.91416 0
M  V30 1566 H 164.069 -2.67754 -1.35084 0
M  V30 1567 H 161.622 -1.41196 -0.670333 0
M  V30 1568 H 162.357 -0.826026 -3.13604 0
M  V30 1569 H 162.142 -2.59001 -2.94382 0
M  V30 1570 H 163.632 -1.94522 -3.69528 0
M  V30 1571 N 164.069 0.697108 -1.41344 0
M  V30 1572 C 164.999 1.82353 -1.45841 0
M  V30 1573 C 165.98 1.67115 -0.317247 0
M  V30 1574 O 167.165 1.86871 -0.528474 0
M  V30 1575 C 164.295 3.20476 -1.33838 0
M  V30 1576 C 163.249 3.50415 -2.4575 0
M  V30 1577 C 162.575 4.87878 -2.18813 0
M  V30 1578 C 163.875 3.49546 -3.88091 0
M  V30 1579 H 165.569 1.78846 -2.40113 0
M  V30 1580 H 163.115 0.859028 -1.15571 0
M  V30 1581 H 165.068 3.98988 -1.35596 0
M  V30 1582 H 163.792 3.24604 -0.360498 0
M  V30 1583 H 162.451 2.74253 -2.43271 0
M  V30 1584 H 162.099 4.8863 -1.19371 0
M  V30 1585 H 161.799 5.08875 -2.93803 0
M  V30 1586 H 163.323 5.68702 -2.22284 0
M  V30 1587 H 164.737 4.18066 -3.92293 0
M  V30 1588 H 163.134 3.82075 -4.62751 0
M  V30 1589 H 164.204 2.48552 -4.16353 0
M  V30 1590 N 165.547 1.27147 0.931209 0
M  V30 1591 C 166.795 1.13055 1.6752 0
M  V30 1592 C 167.116 -0.324791 1.92276 0
M  V30 1593 O 166.386 -1.22775 1.52654 0
M  V30 1594 H 164.966 0.415391 0.620854 0
M  V30 1595 H 167.628 1.59623 1.11833 0
M  V30 1596 H 166.724 1.65694 2.64485 0
M  V30 1597 N 167.025 -1.13721 1.09112 0
M  V30 1598 C 168.253 -1.88773 0.846899 0
M  V30 1599 C 168.668 -1.7896 -0.601572 0
M  V30 1600 O 168.025 -1.15394 -1.41388 0
M  V30 1601 C 168.076 -3.3849 1.26913 0
M  V30 1602 O 167.797 -3.48043 2.66079 0
M  V30 1603 C 169.298 -4.30518 1.05682 0
M  V30 1604 H 166.518 -0.59772 0.304914 0
M  V30 1605 H 169.062 -1.43977 1.45227 0
M  V30 1606 H 167.217 -3.80881 0.707723 0
M  V30 1607 H 167.631 -4.4109 2.83795 0
M  V30 1608 H 169.105 -5.3391 1.40156 0
M  V30 1609 H 169.582 -4.392 -0.00563416 0
M  V30 1610 H 170.188 -3.93893 1.60402 0
M  V30 1611 N 168.503 -0.877838 -1.30888 0
M  V30 1612 C 169.466 -0.344265 -2.266 0
M  V30 1613 C 170.466 0.50922 -1.52524 0
M  V30 1614 O 171.656 0.317398 -1.71284 0
M  V30 1615 C 168.788 0.510198 -3.37061 0
M  V30 1616 H 169.981 -1.1893 -2.7531 0
M  V30 1617 H 167.534 -0.654088 -1.41956 0
M  V30 1618 H 168.269 1.37612 -2.93655 0
M  V30 1619 H 168.054 -0.101047 -3.9197 0
M  V30 1620 H 169.544 0.875537 -4.08319 0
M  V30 1621 N 169.982 1.44106 -0.638065 0
M  V30 1622 C 171.207 2.0685 -0.150916 0
M  V30 1623 C 171.632 1.47417 1.16833 0
M  V30 1624 O 170.99 0.578264 1.71831 0
M  V30 1625 C 171.038 3.60555 -0.05708 0
M  V30 1626 O 170.142 4.00465 0.984972 0
M  V30 1627 H 169.483 0.658151 -0.0879399 0
M  V30 1628 H 172.013 1.84865 -0.876707 0
M  V30 1629 H 172.023 4.07789 0.131232 0
M  V30 1630 H 170.698 4.03193 -1.02021 0
M  V30 1631 H 169.275 3.64849 0.770672 0
M  V30 1632 N 171.46 0.379036 1.52974 0
M  V30 1633 C 172.39 -0.452706 2.29069 0
M  V30 1634 C 173.371 -1.07237 1.32039 0
M  V30 1635 O 174.556 -1.08708 1.60923 0
M  V30 1636 C 171.686 -1.5856 3.08992 0
M  V30 1637 C 170.64 -1.0925 4.13822 0
M  V30 1638 C 169.966 -2.31668 4.81907 0
M  V30 1639 C 171.266 -0.167702 5.22031 0
M  V30 1640 H 172.96 0.182181 2.98845 0
M  V30 1641 H 170.506 0.0890592 1.43724 0
M  V30 1642 H 172.459 -2.1742 3.6098 0
M  V30 1643 H 171.183 -2.24792 2.36931 0
M  V30 1644 H 169.842 -0.526494 3.628 0
M  V30 1645 H 169.49 -2.96386 4.06404 0
M  V30 1646 H 169.19 -1.9934 5.52754 0
M  V30 1647 H 170.714 -2.91189 5.36695 0
M  V30 1648 H 172.128 -0.664186 5.6944 0
M  V30 1649 H 170.525 0.0653265 6.00064 0
M  V30 1650 H 171.595 0.786347 4.78482 0
M  V30 1651 N 172.938 -1.57226 0.108567 0
M  V30 1652 C 173.888 -2.11305 -0.856396 0
M  V30 1653 C 174.872 -1.03129 -1.23504 0
M  V30 1654 O 176.064 -1.29381 -1.20787 0
M  V30 1655 C 173.193 -2.70771 -2.11041 0
M  V30 1656 C 172.279 -3.86011 -1.7566 0
M  V30 1657 N 172.67 -4.93492 -1.10902 0
M  V30 1658 C 170.968 -3.95999 -2.05185 0
M  V30 1659 C 171.669 -5.73984 -0.944308 0
M  V30 1660 N 170.645 -5.2346 -1.46596 0
M  V30 1661 H 174.447 -2.91784 -0.352002 0
M  V30 1662 H 171.961 -1.62126 -0.0942324 0
M  V30 1663 H 173.958 -3.07851 -2.81128 0
M  V30 1664 H 172.618 -1.91751 -2.62034 0
M  V30 1665 H 173.629 -5.1208 -0.774235 0
M  V30 1666 H 170.306 -3.28007 -2.58298 0
M  V30 1667 H 171.696 -6.70479 -0.436813 0
M  V30 1668 N 174.416 0.165178 -1.56732 0
M  V30 1669 C 175.366 1.20917 -1.93295 0
M  V30 1670 C 176.35 1.39488 -0.801985 0
M  V30 1671 O 177.542 1.41356 -1.06525 0
M  V30 1672 C 174.671 2.54718 -2.3016 0
M  V30 1673 C 173.757 2.39815 -3.49785 0
M  V30 1674 N 174.148 1.94637 -4.66851 0
M  V30 1675 C 172.446 2.70623 -3.54513 0
M  V30 1676 C 173.147 1.92344 -5.4898 0
M  V30 1677 N 172.123 2.34978 -4.9019 0
M  V30 1678 H 175.925 0.851675 -2.81289 0
M  V30 1679 H 173.439 0.373399 -1.58049 0
M  V30 1680 H 175.436 3.30165 -2.54552 0
M  V30 1681 H 174.096 2.91265 -1.43508 0
M  V30 1682 H 175.107 1.6488 -4.90953 0
M  V30 1683 H 171.784 3.11167 -2.78354 0
M  V30 1684 H 173.174 1.5906 -6.52801 0
M  V30 1685 N 175.894 1.51508 0.433938 0
M  V30 1686 C 176.826 1.69266 1.54537 0
M  V30 1687 C 177.839 0.573276 1.52373 0
M  V30 1688 O 179.028 0.847698 1.57087 0
M  V30 1689 C 176.128 1.69524 2.93453 0
M  V30 1690 C 175.301 2.98101 3.20085 0
M  V30 1691 C 174.36 2.90502 4.38742 0
M  V30 1692 O 173.386 3.64442 4.3723 0
M  V30 1693 N 174.588 2.06586 5.42496 0
M  V30 1694 H 177.353 2.65145 1.39708 0
M  V30 1695 H 174.914 1.49437 0.622922 0
M  V30 1696 H 176.906 1.62004 3.70859 0
M  V30 1697 H 175.476 0.812245 3.01863 0
M  V30 1698 H 174.696 3.19464 2.30947 0
M  V30 1699 H 175.984 3.83207 3.34708 0
M  V30 1700 H 175.382 1.45896 5.46563 0
M  V30 1701 H 173.939 2.04943 6.18742 0
M  V30 1702 N 177.372 -0.689602 1.41712 0
M  V30 1703 C 178.788 -1.00093 1.24312 0
M  V30 1704 C 178.988 -2.01036 0.136729 0
M  V30 1705 O 178.044 -2.47562 -0.496918 0
M  V30 1706 C 179.357 -1.51985 2.59463 0
M  V30 1707 C 180.905 -1.63838 2.66695 0
M  V30 1708 C 181.38 -2.1913 4.02177 0
M  V30 1709 N 182.871 -2.26483 4.04054 0
M  V30 1710 C 183.606 -2.70306 5.0569 0
M  V30 1711 N 183.102 -3.13691 6.17713 0
M  V30 1712 N 184.895 -2.69923 4.9305 0
M  V30 1713 H 177.046 -0.0210029 2.1239 0
M  V30 1714 H 179.309 -0.0718733 0.945272 0
M  V30 1715 H 179.015 -0.85269 3.41207 0
M  V30 1716 H 178.889 -2.50103 2.82362 0
M  V30 1717 H 181.276 -2.29664 1.85306 0
M  V30 1718 H 181.357 -0.642492 2.476 0
M  V30 1719 H 181.001 -1.53918 4.84016 0
M  V30 1720 H 180.931 -3.19482 4.18615 0
M  V30 1721 H 183.422 -1.95874 3.23174 0
M  V30 1722 H 183.735 -3.45773 6.9113 0
M  V30 1723 H 182.08 -3.11585 6.21241 0
M  V30 1724 H 185.271 -2.35382 4.04614 0
M  V30 1725 H 185.444 -3.03758 5.72394 0
M  V30 1726 N 178.85 -1.27639 -0.924453 0
M  V30 1727 C 180.096 -1.14336 -1.67497 0
M  V30 1728 C 180.429 0.309465 -1.91718 0
M  V30 1729 O 179.704 1.22608 -1.50989 0
M  V30 1730 C 179.987 -1.93096 -3.0395 0
M  V30 1731 C 179.84 -3.46381 -2.8695 0
M  V30 1732 C 181.159 -1.73798 -4.0433 0
M  V30 1733 H 178.278 -0.416728 -0.607871 0
M  V30 1734 H 180.92 -1.56832 -1.07256 0
M  V30 1735 H 179.07 -1.56982 -3.55372 0
M  V30 1736 H 180.742 -3.92343 -2.42621 0
M  V30 1737 H 178.985 -3.72557 -2.22225 0
M  V30 1738 H 179.656 -3.96735 -3.83804 0
M  V30 1739 H 182.132 -2.05293 -3.61931 0
M  V30 1740 H 181.008 -2.31294 -4.97789 0
M  V30 1741 H 181.269 -0.686725 -4.36734 0
M  V30 1742 N 180.328 1.1314 -1.09713 0
M  V30 1743 C 181.278 2.16709 -0.708593 0
M  V30 1744 C 182.262 1.58471 0.278523 0
M  V30 1745 O 183.454 1.76779 0.088427 0
M  V30 1746 C 180.583 3.43039 -0.133923 0
M  V30 1747 C 179.669 4.08277 -1.14763 0
M  V30 1748 N 180.06 4.48637 -2.33577 0
M  V30 1749 C 178.358 4.34954 -0.986446 0
M  V30 1750 C 179.059 4.9952 -2.98085 0
M  V30 1751 N 178.035 4.94561 -2.25632 0
M  V30 1752 H 181.837 2.45672 -1.61315 0
M  V30 1753 H 179.351 1.29967 -0.973775 0
M  V30 1754 H 181.348 4.16583 0.162465 0
M  V30 1755 H 180.008 3.15549 0.765447 0
M  V30 1756 H 181.019 4.41246 -2.7115 0
M  V30 1757 H 177.696 4.17258 -0.142008 0
M  V30 1758 H 179.086 5.40521 -3.99108 0
M  V30 1759 N 181.806 0.884767 1.30421 0
M  V30 1760 C 183.055 0.499164 1.95426 0
M  V30 1761 C 183.368 -0.95645 1.70621 0
M  V30 1762 O 184.574 -1.44889 2.29607 0
M  V30 1763 C 183.03 0.84177 3.49917 0
M  V30 1764 C 182.638 2.31514 3.83543 0
M  V30 1765 C 184.382 0.525355 4.21237 0
M  V30 1766 C 182.289 2.59939 5.31212 0
M  V30 1767 H 181.219 0.182944 0.73147 0
M  V30 1768 H 183.87 1.07971 1.48373 0
M  V30 1769 H 182.252 0.190311 3.95542 0
M  V30 1770 H 183.426 3.0109 3.48829 0
M  V30 1771 H 181.741 2.59907 3.25326 0
M  V30 1772 H 184.338 0.714762 5.29901 0
M  V30 1773 H 184.681 -0.535222 4.12845 0
M  V30 1774 H 185.214 1.134 3.81294 0
M  V30 1775 H 181.953 3.64736 5.44654 0
M  V30 1776 H 181.473 1.94972 5.67227 0
M  V30 1777 H 183.152 2.45429 5.98643 0
M  V30 1778 N 183.284 -1.43765 0.645699 0
M  V30 1779 C 184.232 -2.32516 -0.0624849 0
M  V30 1780 C 185.226 -1.48183 -0.820855 0
M  V30 1781 O 186.432 -1.64439 -0.732106 0
M  V30 1782 H 182.807 -0.750989 -0.0389864 0
M  V30 1783 H 184.778 -2.89979 0.703892 0
M  V30 1784 C 183.527 -3.32389 -1.02044 0
M  V30 1785 H 182.85 -3.97301 -0.446312 0
M  V30 1786 H 184.29 -3.97138 -1.48517 0
M  V30 1787 C 182.749 -2.62416 -2.11281 0
M  V30 1788 O 183.279 -2.434 -3.19561 0
M  V30 1789 N 181.485 -2.21913 -1.87624 0
M  V30 1790 H 181.032 -2.37578 -0.995703 0
M  V30 1791 H 180.99 -1.75424 -2.6091 0
M  V30 1792 N 184.763 -0.387143 -1.52771 0
M  V30 1793 C 186.012 0.19697 -2.00736 0
M  V30 1794 C 186.325 1.48082 -1.27793 0
M  V30 1795 O 187.531 2.14485 -1.66458 0
M  V30 1796 C 185.987 0.401568 -3.57653 0
M  V30 1797 C 185.595 -0.868907 -4.39493 0
M  V30 1798 C 187.339 0.942164 -4.13912 0
M  V30 1799 C 185.246 -0.632705 -5.88006 0
M  V30 1800 H 184.176 0.0773827 -0.750019 0
M  V30 1801 H 186.827 -0.50921 -1.76293 0
M  V30 1802 H 185.209 1.16954 -3.78335 0
M  V30 1803 H 186.383 -1.64133 -4.30577 0
M  V30 1804 H 184.698 -1.33429 -3.94443 0
M  V30 1805 H 187.295 1.13455 -5.22525 0
M  V30 1806 H 187.638 1.9106 -3.69867 0
M  V30 1807 H 188.171 0.233814 -3.97112 0
M  V30 1808 H 184.91 -1.57208 -6.36369 0
M  V30 1809 H 184.43 0.100825 -5.99715 0
M  V30 1810 H 186.109 -0.26642 -6.46451 0
M  V30 1811 N 186.241 1.57166 -0.116904 0
M  V30 1812 C 187.466 1.999 0.55271 0
M  V30 1813 C 187.891 0.996039 1.59564 0
M  V30 1814 O 187.249 -0.032556 1.81271 0
M  V30 1815 C 187.297 3.4152 1.15742 0
M  V30 1816 O 186.401 3.44106 2.27299 0
M  V30 1817 H 185.742 0.649447 0.138258 0
M  V30 1818 H 188.272 2.03573 -0.204759 0
M  V30 1819 H 188.282 3.79684 1.49346 0
M  V30 1820 H 186.957 4.14034 0.393493 0
M  V30 1821 H 185.534 3.17759 1.9515 0
M  V30 1822 N 187.719 -0.156864 1.56817 0
M  V30 1823 C 188.967 -0.869404 1.82444 0
M  V30 1824 C 189.288 -1.82147 0.69623 0
M  V30 1825 O 188.558 -1.93847 -0.28287 0
M  V30 1826 H 187.138 -0.324043 0.673056 0
M  V30 1827 H 189.8 -0.153224 1.94297 0
M  V30 1828 H 188.896 -1.43761 2.77019 0
M  V30 1829 N 189.197 -1.51736 -0.425897 0
M  V30 1830 C 190.127 -1.76827 -1.52494 0
M  V30 1831 C 191.108 -0.618524 -1.58456 0
M  V30 1832 O 192.293 -0.862416 -1.74 0
M  V30 1833 C 189.423 -1.90374 -2.90474 0
M  V30 1834 C 188.377 -3.0588 -2.99369 0
M  V30 1835 C 187.703 -3.04625 -4.3944 0
M  V30 1836 C 189.003 -4.45644 -2.72394 0
M  V30 1837 H 190.697 -2.68855 -1.31748 0
M  V30 1838 H 188.243 -1.29372 -0.632362 0
M  V30 1839 H 190.196 -2.0651 -3.6733 0
M  V30 1840 H 188.92 -0.95004 -3.12477 0
M  V30 1841 H 187.579 -2.89467 -2.24954 0
M  V30 1842 H 187.227 -2.0701 -4.58428 0
M  V30 1843 H 186.927 -3.82195 -4.46319 0
M  V30 1844 H 188.451 -3.22869 -5.18255 0
M  V30 1845 H 189.865 -4.62348 -3.38979 0
M  V30 1846 H 188.262 -5.25006 -2.9067 0
M  V30 1847 H 189.332 -4.54893 -1.67929 0
M  V30 1848 N 190.675 0.682077 -1.42076 0
M  V30 1849 C 192.091 0.994324 -1.24841 0
M  V30 1850 C 192.291 2.0096 -0.147389 0
M  V30 1851 O 191.347 2.47822 0.483782 0
M  V30 1852 C 192.66 1.50607 -2.60265 0
M  V30 1853 C 194.208 1.62421 -2.6756 0
M  V30 1854 C 194.683 2.16994 -4.03333 0
M  V30 1855 N 196.174 2.24337 -4.0525 0
M  V30 1856 C 196.909 2.67621 -5.07116 0
M  V30 1857 N 196.405 3.1041 -6.19368 0
M  V30 1858 N 198.198 2.67305 -4.94474 0
M  V30 1859 H 190.349 0.00973908 -2.12398 0
M  V30 1860 H 192.612 0.0668593 -0.945639 0
M  V30 1861 H 192.318 0.834583 -3.41654 0
M  V30 1862 H 192.192 2.48602 -2.83684 0
M  V30 1863 H 194.579 2.28678 -1.86521 0
M  V30 1864 H 194.66 0.629352 -2.47937 0
M  V30 1865 H 194.304 1.51349 -4.84826 0
M  V30 1866 H 194.234 3.17258 -4.20304 0
M  V30 1867 H 196.725 1.94158 -3.24209 0
M  V30 1868 H 197.038 3.42103 -6.92954 0
M  V30 1869 H 195.383 3.08286 -6.22884 0
M  V30 1870 H 198.574 2.33233 -4.05857 0
M  V30 1871 H 198.747 3.00718 -5.73997 0
M  V30 1872 N 192.153 1.28127 0.917671 0
M  V30 1873 C 193.4 1.15052 1.66641 0
M  V30 1874 C 193.728 -0.301677 1.92146 0
M  V30 1875 O 192.983 -1.23622 1.51711 0
M  V30 1876 C 193.282 1.89018 3.03327 0
M  V30 1877 C 192.948 3.38832 2.97496 0
M  V30 1878 C 191.61 3.79693 2.95613 0
M  V30 1879 C 193.962 4.34378 2.88036 0
M  V30 1880 C 191.29 5.14447 2.82066 0
M  V30 1881 C 193.642 5.69201 2.7603 0
M  V30 1882 C 192.306 6.09343 2.72502 0
M  V30 1883 H 191.576 0.421006 0.609783 0
M  V30 1884 H 194.223 1.58855 1.06945 0
M  V30 1885 H 192.528 1.37752 3.66785 0
M  V30 1886 H 194.225 1.76321 3.60156 0
M  V30 1887 H 190.815 3.06342 2.99754 0
M  V30 1888 H 194.999 4.03775 2.88581 0
M  V30 1889 H 190.255 5.44681 2.77728 0
M  V30 1890 H 194.429 6.42901 2.67678 0
M  V30 1891 H 192.056 7.13712 2.61762 0
M  V30 1892 N 193.631 -1.12557 1.10312 0
M  V30 1893 C 194.541 -2.21841 0.763142 0
M  V30 1894 C 195.557 -1.72354 -0.238801 0
M  V30 1895 O 196.733 -2.01249 -0.0778746 0
M  V30 1896 C 193.798 -3.46131 0.198632 0
M  V30 1897 C 192.859 -4.10464 1.25769 0
M  V30 1898 C 192.092 -5.28821 0.72002 0
M  V30 1899 O 192.315 -5.6859 -0.453993 0
M  V30 1900 O 191.249 -5.83437 1.47935 0
M  V30 1901 H 195.075 -2.53312 1.67532 0
M  V30 1902 H 192.66 -1.20867 0.878157 0
M  V30 1903 H 194.542 -4.2125 -0.112401 0
M  V30 1904 H 193.217 -3.16338 -0.686419 0
M  V30 1905 H 192.124 -3.3713 1.62156 0
M  V30 1906 H 193.457 -4.44408 2.11571 0
M  V30 1907 N 195.109 -0.891671 -1.2995 0
M  V30 1908 C 196.337 -0.52866 -2.00032 0
M  V30 1909 C 196.752 0.884574 -1.66795 0
M  V30 1910 O 196.109 1.5827 -0.908669 0
M  V30 1911 C 196.16 -0.701814 -3.54622 0
M  V30 1912 O 195.881 -2.05942 -3.86678 0
M  V30 1913 C 197.382 -0.342683 -4.41973 0
M  V30 1914 H 194.602 -0.203659 -0.639347 0
M  V30 1915 H 197.146 -1.19881 -1.65677 0
M  V30 1916 H 195.301 -0.0789468 -3.8732 0
M  V30 1917 H 195.715 -2.08291 -4.81368 0
M  V30 1918 H 197.189 -0.514709 -5.49595 0
M  V30 1919 H 197.666 0.71975 -4.33262 0
M  V30 1920 H 198.272 -0.942154 -4.14733 0
M  V30 1921 N 196.587 1.43421 -0.653314 0
M  V30 1922 C 197.519 2.29071 0.0769134 0
M  V30 1923 C 198.532 1.42513 0.787017 0
M  V30 1924 O 199.721 1.66449 0.644757 0
M  V30 1925 C 196.821 3.19436 1.13199 0
M  V30 1926 C 195.994 4.34533 0.500006 0
M  V30 1927 C 195.053 5.05771 1.45198 0
M  V30 1928 O 194.079 5.61037 0.960538 0
M  V30 1929 N 195.281 5.0928 2.78594 0
M  V30 1930 H 198.046 2.92382 -0.658235 0
M  V30 1931 H 195.607 1.54112 -0.496104 0
M  V30 1932 H 197.599 3.63958 1.76964 0
M  V30 1933 H 196.169 2.57724 1.7691 0
M  V30 1934 H 195.389 3.92925 -0.316738 0
M  V30 1935 H 196.677 5.08766 0.0588345 0
M  V30 1936 H 196.075 4.65751 3.2108 0
M  V30 1937 H 194.632 5.57519 3.37662 0
M  V30 1938 N 198.065 0.39524 1.52563 0
M  V30 1939 C 198.995 -0.428384 2.29537 0
M  V30 1940 C 199.976 -1.05831 1.33169 0
M  V30 1941 O 201.161 -1.06995 1.62067 0
M  V30 1942 C 198.291 -1.55274 3.10656 0
M  V30 1943 C 197.245 -1.04855 4.14957 0
M  V30 1944 C 196.571 -2.26543 4.84337 0
M  V30 1945 C 197.871 -0.112324 5.22179 0
M  V30 1946 H 199.565 0.213867 2.98635 0
M  V30 1947 H 197.111 0.104298 1.43622 0
M  V30 1948 H 199.064 -2.1358 3.63265 0
M  V30 1949 H 197.788 -2.22266 2.39302 0
M  V30 1950 H 196.447 -0.487985 3.63338 0
M  V30 1951 H 196.095 -2.92059 4.09525 0
M  V30 1952 H 195.795 -1.93466 5.54837 0
M  V30 1953 H 197.319 -2.85481 5.39753 0
M  V30 1954 H 198.733 -0.603752 5.70112 0
M  V30 1955 H 197.13 0.128968 5.99961 0
M  V30 1956 H 198.2 0.837052 4.77621 0
M  V30 1957 N 199.544 -1.57102 0.125237 0
M  V30 1958 C 200.792 -1.95021 -0.530198 0
M  V30 1959 C 201.113 -1.00982 -1.66816 0
M  V30 1960 O 200.383 -0.0672693 -1.95784 0
M  V30 1961 H 198.963 -0.720046 -0.198853 0
M  V30 1962 H 201.625 -1.93916 0.19564 0
M  V30 1963 H 200.721 -2.98211 -0.920681 0
M  V30 1964 N 201.022 0.148545 -1.56898 0
M  V30 1965 C 202.25 0.876389 -1.87422 0
M  V30 1966 C 202.665 1.74809 -0.713256 0
M  V30 1967 O 202.022 1.79725 0.317025 0
M  V30 1968 C 202.073 1.73438 -3.17178 0
M  V30 1969 O 201.794 0.897809 -4.28802 0
M  V30 1970 C 203.295 2.56993 -3.61205 0
M  V30 1971 H 200.515 0.253489 -0.621277 0
M  V30 1972 H 203.059 0.141798 -2.04008 0
M  V30 1973 H 201.214 2.42205 -3.0235 0
M  V30 1974 H 201.628 1.48672 -5.02988 0
M  V30 1975 H 203.102 3.12773 -4.54838 0
M  V30 1976 H 203.579 3.32958 -2.86419 0
M  V30 1977 H 204.185 1.9352 -3.78722 0
M  V30 1978 N 202.5 1.5196 0.417844 0
M  V30 1979 C 203.43 1.77634 1.51554 0
M  V30 1980 C 204.411 0.626918 1.58126 0
M  V30 1981 O 205.596 0.871632 1.7354 0
M  V30 1982 C 202.726 1.91911 2.8946 0
M  V30 1983 C 201.68 3.07463 2.97743 0
M  V30 1984 C 201.006 3.06951 4.37819 0
M  V30 1985 C 202.306 4.47082 2.70027 0
M  V30 1986 H 204 2.6955 1.3032 0
M  V30 1987 H 201.546 1.29706 0.625492 0
M  V30 1988 H 203.499 2.08455 3.6623 0
M  V30 1989 H 202.223 0.966598 3.11969 0
M  V30 1990 H 200.882 2.90656 2.23416 0
M  V30 1991 H 200.53 2.09438 4.57323 0
M  V30 1992 H 200.23 3.84556 4.44286 0
M  V30 1993 H 201.754 3.25613 5.16535 0
M  V30 1994 H 203.168 4.6414 3.36522 0
M  V30 1995 H 201.565 5.2654 2.87881 0
M  V30 1996 H 202.635 4.55777 1.65514 0
M  V30 1997 N 203.978 -0.674533 1.42435 0
M  V30 1998 C 204.941 -1.76986 1.45632 0
M  V30 1999 C 205.941 -1.5708 0.343871 0
M  V30 2000 O 207.131 -1.63367 0.604709 0
M  V30 2001 C 204.263 -3.15623 1.28822 0
M  V30 2002 H 205.456 -1.75539 2.43158 0
M  V30 2003 H 203.009 -0.884189 1.28887 0
M  V30 2004 H 203.744 -3.22696 0.322193 0
M  V30 2005 H 203.529 -3.31475 2.09444 0
M  V30 2006 H 205.019 -3.95537 1.33942 0
M  V30 2007 N 205.456 -1.28612 -0.910864 0
M  V30 2008 C 206.388 -1.08589 -2.01844 0
M  V30 2009 C 207.401 -0.0367419 -1.62759 0
M  V30 2010 O 208.59 -0.280101 -1.76289 0
M  V30 2011 C 205.69 -0.628626 -3.33019 0
M  V30 2012 C 204.863 -1.75382 -4.00699 0
M  V30 2013 C 203.922 -1.28945 -5.10156 0
M  V30 2014 O 202.948 -1.9922 -5.33198 0
M  V30 2015 N 204.15 -0.154224 -5.80295 0
M  V30 2016 H 206.915 -2.03973 -2.19579 0
M  V30 2017 H 204.476 -1.20403 -1.08234 0
M  V30 2018 H 206.468 -0.301508 -4.03575 0
M  V30 2019 H 205.038 0.232451 -3.11735 0
M  V30 2020 H 204.258 -2.25039 -3.23653 0
M  V30 2021 H 205.546 -2.50854 -4.42662 0
M  V30 2022 H 204.944 0.43194 -5.64049 0
M  V30 2023 H 203.501 0.113599 -6.51701 0
M  V30 2024 N 206.934 1.1197 -1.10907 0
M  V30 2025 C 208.181 1.83588 -0.854507 0
M  V30 2026 C 208.509 1.84357 0.6199 0
M  V30 2027 O 207.764 1.28809 1.47332 0
M  V30 2028 C 208.063 3.30749 -1.35425 0
M  V30 2029 C 207.729 3.50146 -2.84093 0
M  V30 2030 C 206.391 3.55148 -3.2469 0
M  V30 2031 C 208.743 3.56857 -3.79872 0
M  V30 2032 C 206.071 3.6441 -4.59806 0
M  V30 2033 C 208.423 3.6765 -5.14797 0
M  V30 2034 C 207.087 3.7091 -5.54961 0
M  V30 2035 H 206.357 0.671795 -0.312686 0
M  V30 2036 H 209.004 1.32091 -1.38652 0
M  V30 2037 H 207.309 3.84703 -0.742361 0
M  V30 2038 H 209.006 3.8464 -1.1337 0
M  V30 2039 H 205.596 3.46919 -2.51685 0
M  V30 2040 H 209.78 3.52258 -3.49611 0
M  V30 2041 H 205.036 3.65208 -4.9034 0
M  V30 2042 H 209.21 3.71786 -5.88853 0
M  V30 2043 H 206.837 3.7784 -6.59652 0
M  V30 2044 N 208.412 0.89855 1.29475 0
M  V30 2045 C 209.823 0.572537 1.77705 0
M  V30 2046 C 210.174 -0.911778 1.73727 0
M  V30 2047 O 209.299 -1.71288 1.32247 0
M  V30 2048 C 209.894 1.03252 3.22683 0
M  V30 2049 C 208.453 0.757687 3.68695 0
M  V30 2050 C 207.6 1.20787 2.49612 0
M  V30 2051 H 210.551 1.08139 1.16153 0
M  V30 2052 H 210.572 0.367307 3.78723 0
M  V30 2053 H 210.084 2.11285 3.25546 0
M  V30 2054 H 208.185 -0.310079 3.71308 0
M  V30 2055 H 208.298 1.35476 4.59547 0
M  V30 2056 H 206.662 0.626888 2.46865 0
M  V30 2057 H 207.445 2.29622 2.55203 0
M  V30 2058 N 209.89 -1.43072 0.660911 0
M  V30 2059 C 210.838 -2.32569 -0.0378199 0
M  V30 2060 C 211.832 -1.49046 -0.805092 0
M  V30 2061 O 213.038 -1.65206 -0.714624 0
M  V30 2062 H 209.413 -0.75136 -0.031019 0
M  V30 2063 H 211.384 -2.89216 0.734609 0
M  V30 2064 C 210.133 -3.33453 -0.985124 0
M  V30 2065 H 209.456 -3.97752 -0.404147 0
M  V30 2066 H 210.896 -3.98691 -1.44297 0
M  V30 2067 C 209.355 -2.64642 -2.08486 0
M  V30 2068 O 209.885 -2.46776 -3.16961 0
M  V30 2069 N 208.091 -2.23891 -1.8526 0
M  V30 2070 H 207.638 -2.38621 -0.970449 0
M  V30 2071 H 207.596 -1.78181 -2.59034 0
M  V30 2072 N 211.368 -0.403325 -1.52352 0
M  V30 2073 C 212.596 0.174012 -2.06167 0
M  V30 2074 C 213.011 1.39347 -1.27388 0
M  V30 2075 O 212.368 1.79597 -0.324201 0
M  V30 2076 C 212.419 0.530223 -3.5759 0
M  V30 2077 O 212.14 -0.640806 -4.33388 0
M  V30 2078 C 213.641 1.16192 -4.27802 0
M  V30 2079 H 210.861 0.0229464 -0.670608 0
M  V30 2080 H 213.405 -0.572604 -1.9632 0
M  V30 2081 H 211.56 1.22673 -3.67464 0
M  V30 2082 H 211.974 -0.344851 -5.23365 0
M  V30 2083 H 213.448 1.36141 -5.34948 0
M  V30 2084 H 213.925 2.13335 -3.83907 0
M  V30 2085 H 214.531 0.505775 -4.22282 0
M  V30 2086 N 212.846 1.57033 -0.133567 0
M  V30 2087 C 213.776 2.1909 0.807567 0
M  V30 2088 C 214.757 1.13517 1.26681 0
M  V30 2089 O 215.942 1.41809 1.32679 0
M  V30 2090 C 213.072 2.80188 2.05212 0
M  V30 2091 C 212.026 3.91471 1.73015 0
M  V30 2092 C 211.352 4.39443 3.04622 0
M  V30 2093 C 212.652 5.12886 0.987168 0
M  V30 2094 H 214.346 2.97988 0.290403 0
M  V30 2095 H 211.892 1.43335 0.138239 0
M  V30 2096 H 213.845 3.22264 2.71521 0
M  V30 2097 H 212.569 1.98601 2.59278 0
M  V30 2098 H 211.228 3.49993 1.0909 0
M  V30 2099 H 210.876 3.54695 3.56651 0
M  V30 2100 H 210.576 5.14495 2.83847 0
M  V30 2101 H 212.1 4.8418 3.72024 0
M  V30 2102 H 213.514 5.51891 1.55208 0
M  V30 2103 H 211.911 5.93615 0.87985 0
M  V30 2104 H 212.981 4.84894 -0.0235286 0
M  V30 2105 N 214.325 -0.140222 1.56975 0
M  V30 2106 C 215.255 -1.17456 2.01808 0
M  V30 2107 C 216.236 -1.44415 0.898794 0
M  V30 2108 O 217.421 -1.5522 1.16707 0
M  V30 2109 C 214.551 -2.50607 2.40444 0
M  V30 2110 C 213.505 -2.38155 3.55621 0
M  V30 2111 C 212.831 -3.76078 3.80091 0
M  V30 2112 C 214.131 -1.85991 4.88062 0
M  V30 2113 H 215.825 -0.801743 2.88466 0
M  V30 2114 H 213.371 -0.38422 1.38779 0
M  V30 2115 H 215.324 -3.23197 2.7041 0
M  V30 2116 H 214.048 -2.89737 1.50732 0
M  V30 2117 H 212.707 -1.68016 3.25832 0
M  V30 2118 H 212.355 -4.12656 2.87618 0
M  V30 2119 H 212.055 -3.68606 4.57606 0
M  V30 2120 H 213.579 -4.50206 4.12488 0
M  V30 2121 H 214.993 -2.4838 5.16701 0
M  V30 2122 H 213.39 -1.89393 5.6943 0
M  V30 2123 H 214.46 -0.816023 4.77984 0
M  V30 2124 N 215.803 -1.52179 -0.40978 0
M  V30 2125 C 217.051 -1.65878 -1.15451 0
M  V30 2126 C 217.372 -0.390771 -1.91044 0
M  V30 2127 O 216.642 0.594323 -1.86667 0
M  V30 2128 H 215.222 -0.611405 -0.429177 0
M  V30 2129 H 217.884 -1.89219 -0.467134 0
M  V30 2130 H 216.98 -2.49954 -1.86894 0
M  V30 2131 N 217.281 0.66697 -1.42791 0
M  V30 2132 C 218.558 1.4234 -1.34159 0
M  V30 2133 C 218.938 2.11093 0.0172729 0
M  V30 2134 O 218.286 2.03808 1.03318 0
M  V30 2135 C 218.496 2.41942 -2.51526 0
M  V30 2136 C 219.844 3.06353 -2.93995 0
M  V30 2137 O 220.868 2.52269 -2.51473 0
M  V30 2138 O 219.727 4.04376 -3.67617 0
M  V30 2139 H 216.821 0.635277 -0.529483 0
M  V30 2140 H 219.367 0.695034 -1.54814 0
M  V30 2141 H 218.139 1.89991 -3.42081 0
M  V30 2142 H 217.762 3.22249 -2.32898 0
M  V30 2143 N 218.759 1.29093 0.90403 0
M  V30 2144 C 220.17 1.15186 1.46932 0
M  V30 2145 C 220.521 -0.254587 1.94541 0
M  V30 2146 O 219.646 -1.14972 1.83332 0
M  V30 2147 C 220.241 2.08492 2.67051 0
M  V30 2148 C 218.8 1.98621 3.19729 0
M  V30 2149 C 217.947 1.9967 1.92425 0
M  V30 2150 H 220.898 1.41641 0.715789 0
M  V30 2151 H 220.919 1.65461 3.42641 0
M  V30 2152 H 220.431 3.10847 2.3237 0
M  V30 2153 H 218.532 0.993389 3.59114 0
M  V30 2154 H 218.645 2.86068 3.8432 0
M  V30 2155 H 217.009 1.44208 2.09943 0
M  V30 2156 H 217.792 3.03721 1.60026 0
M  V30 2157 N 220.237 -1.11381 1.11499 0
M  V30 2158 C 221.2 -2.15622 0.777153 0
M  V30 2159 C 222.2 -1.59504 -0.203779 0
M  V30 2160 O 223.39 -1.74188 0.020782 0
M  V30 2161 C 220.522 -3.40556 0.153116 0
M  V30 2162 H 221.715 -2.47021 1.70061 0
M  V30 2163 H 219.268 -1.26577 0.916952 0
M  V30 2164 H 220.003 -3.14767 -0.780536 0
M  V30 2165 H 219.788 -3.8257 0.859238 0
M  V30 2166 H 221.278 -4.17546 -0.0671044 0
M  V30 2167 N 221.715 -0.905404 -1.28997 0
M  V30 2168 C 222.662 -0.385892 -2.27551 0
M  V30 2169 C 223.632 0.535113 -1.57244 0
M  V30 2170 O 224.817 0.459119 -1.85194 0
M  V30 2171 C 221.957 0.375461 -3.43051 0
M  V30 2172 C 221.07 -0.577092 -4.28128 0
M  V30 2173 C 220.205 0.201879 -5.30816 0
M  V30 2174 C 219.244 -0.744829 -6.07551 0
M  V30 2175 N 218.381 9.42587e-05 -7.021 0
M  V30 2176 H 223.221 -1.23139 -2.71368 0
M  V30 2177 H 220.758 -0.618542 -1.33463 0
M  V30 2178 H 222.716 0.832992 -4.088 0
M  V30 2179 H 221.346 1.18537 -3.00248 0
M  V30 2180 H 220.398 -1.15315 -3.62501 0
M  V30 2181 H 221.71 -1.30152 -4.8152 0
M  V30 2182 H 220.864 0.720351 -6.02408 0
M  V30 2183 H 219.603 0.959413 -4.7817 0
M  V30 2184 H 218.608 -1.27475 -5.34818 0
M  V30 2185 H 219.833 -1.50178 -6.62286 0
M  V30 2186 H 217.779 0.739791 -6.51815 0
M  V30 2187 H 217.696 -0.664321 -7.53076 0
M  V30 2188 H 218.964 0.498644 -7.77903 0
M  V30 2189 N 223.193 1.4272 -0.668489 0
M  V30 2190 C 224.609 1.55992 -0.33745 0
M  V30 2191 C 224.809 1.64933 1.15756 0
M  V30 2192 O 223.865 1.61278 1.94282 0
M  V30 2193 C 225.178 2.81314 -1.06222 0
M  V30 2194 C 226.726 2.95078 -1.04394 0
M  V30 2195 C 227.201 4.23252 -1.74991 0
M  V30 2196 N 228.692 4.3015 -1.71829 0
M  V30 2197 C 229.427 5.28127 -2.23315 0
M  V30 2198 N 228.923 6.32293 -2.83156 0
M  V30 2199 N 230.716 5.19882 -2.13726 0
M  V30 2200 H 222.867 1.3516 -1.63846 0
M  V30 2201 H 225.13 0.650174 -0.689912 0
M  V30 2202 H 224.836 2.80823 -2.11734 0
M  V30 2203 H 224.71 3.72012 -0.62344 0
M  V30 2204 H 227.097 2.951 0.0028244 0
M  V30 2205 H 227.178 2.05627 -1.52155 0
M  V30 2206 H 226.822 4.2399 -2.79633 0
M  V30 2207 H 226.752 5.11626 -1.24685 0
M  V30 2208 H 229.243 3.55499 -1.28175 0
M  V30 2209 H 229.556 7.03398 -3.20079 0
M  V30 2210 H 227.901 6.32873 -2.87223 0
M  V30 2211 H 231.092 4.37423 -1.66669 0
M  V30 2212 H 231.265 5.96077 -2.54158 0
M  V30 2213 N 224.671 0.411399 1.52136 0
M  V30 2214 C 225.601 -0.404015 2.29978 0
M  V30 2215 C 226.582 -1.04412 1.34284 0
M  V30 2216 O 227.767 -1.0527 1.63192 0
M  V30 2217 C 224.897 -1.5197 3.12286 0
M  V30 2218 C 223.851 -1.00448 4.16046 0
M  V30 2219 C 223.177 -2.21393 4.86712 0
M  V30 2220 C 224.477 -0.0569336 5.22269 0
M  V30 2221 H 226.171 0.245529 2.98392 0
M  V30 2222 H 223.717 0.119525 1.43503 0
M  V30 2223 H 225.67 -2.09715 3.6551 0
M  V30 2224 H 224.394 -2.19716 2.41646 0
M  V30 2225 H 223.053 -0.449421 3.63835 0
M  V30 2226 H 222.701 -2.87699 4.12599 0
M  V30 2227 H 222.401 -1.87571 5.56858 0
M  V30 2228 H 223.925 -2.7974 5.4275 0
M  V30 2229 H 225.339 -0.54325 5.7072 0
M  V30 2230 H 223.736 0.192594 5.99791 0
M  V30 2231 H 224.806 0.887663 4.76706 0
M  V30 2232 N 226.149 -1.5696 0.141893 0
M  V30 2233 C 227.565 -1.58151 -0.21456 0
M  V30 2234 C 227.765 -1.1559 -1.65049 0
M  V30 2235 O 226.821 -0.853832 -2.37626 0
M  V30 2236 C 228.134 -3.00674 0.0395576 0
M  V30 2237 C 229.682 -3.1299 -0.0245529 0
M  V30 2238 C 230.157 -4.57554 0.202167 0
M  V30 2239 N 231.648 -4.62961 0.148919 0
M  V30 2240 C 232.383 -5.7262 0.298924 0
M  V30 2241 N 231.879 -6.90947 0.50637 0
M  V30 2242 N 233.672 -5.61601 0.236886 0
M  V30 2243 H 225.823 -1.8292 1.07953 0
M  V30 2244 H 228.086 -0.846425 0.42693 0
M  V30 2245 H 227.792 -3.36183 1.03315 0
M  V30 2246 H 227.666 -3.70981 -0.682143 0
M  V30 2247 H 230.053 -2.77326 -1.00869 0
M  V30 2248 H 230.134 -2.4518 0.729396 0
M  V30 2249 H 229.778 -4.93922 1.18338 0
M  V30 2250 H 229.708 -5.23484 -0.572044 0
M  V30 2251 H 232.199 -3.77899 -0.00697015 0
M  V30 2252 H 232.512 -7.7038 0.611076 0
M  V30 2253 H 230.857 -6.92878 0.542628 0
M  V30 2254 H 234.048 -4.68039 0.0756209 0
M  V30 2255 H 234.221 -6.47015 0.357227 0
M  V30 2256 N 227.627 0.131896 -1.57047 0
M  V30 2257 C 228.857 0.855219 -1.88068 0
M  V30 2258 C 229.265 1.74557 -0.729817 0
M  V30 2259 O 228.608 1.81083 0.308962 0
M  V30 2260 C 228.67 1.75119 -3.13964 0
M  V30 2261 C 228.334 1.03646 -4.45091 0
M  V30 2262 C 229.331 0.383276 -5.18485 0
M  V30 2263 C 227.016 1.02148 -4.91804 0
M  V30 2264 C 229.01 -0.275347 -6.36805 0
M  V30 2265 C 226.697 0.359047 -6.10044 0
M  V30 2266 C 227.695 -0.288222 -6.82392 0
M  V30 2267 O 227.383 -0.94011 -7.98384 0
M  V30 2268 H 227.115 0.251864 -0.627328 0
M  V30 2269 H 229.669 0.124782 -2.05021 0
M  V30 2270 H 227.899 2.52295 -2.9306 0
M  V30 2271 H 229.588 2.3478 -3.31109 0
M  V30 2272 H 230.354 0.386562 -4.83457 0
M  V30 2273 H 226.233 1.5147 -4.35405 0
M  V30 2274 H 229.777 -0.781148 -6.93213 0
M  V30 2275 H 225.674 0.35348 -6.44531 0
M  V30 2276 H 226.442 -0.84329 -8.14144 0
M  V30 2277 N 229.106 1.52395 0.401703 0
M  V30 2278 C 230.353 1.66817 1.14796 0
M  V30 2279 C 230.681 0.401772 1.90305 0
M  V30 2280 O 229.936 -0.615487 1.85769 0
M  V30 2281 C 230.235 2.84578 2.16217 0
M  V30 2282 C 229.901 4.22513 1.5746 0
M  V30 2283 C 228.563 4.60029 1.41161 0
M  V30 2284 C 230.915 5.0844 1.14622 0
M  V30 2285 C 228.243 5.81144 0.80552 0
M  V30 2286 C 230.595 6.30167 0.55428 0
M  V30 2287 C 229.259 6.66426 0.378482 0
M  V30 2288 H 228.529 0.610428 0.420069 0
M  V30 2289 H 231.176 1.86512 0.434212 0
M  V30 2290 H 229.481 2.59248 2.93764 0
M  V30 2291 H 231.178 2.92933 2.73845 0
M  V30 2292 H 227.768 3.92953 1.71132 0
M  V30 2293 H 231.952 4.80034 1.26021 0
M  V30 2294 H 227.208 6.07855 0.657399 0
M  V30 2295 H 231.382 6.96071 0.213983 0
M  V30 2296 H 229.009 7.60143 -0.0932606 0
M  V30 2297 N 230.584 -0.659388 1.43143 0
M  V30 2298 C 231.861 -1.41627 1.34912 0
M  V30 2299 C 232.241 -2.11099 -0.00607785 0
M  V30 2300 O 231.589 -2.04353 -1.02236 0
M  V30 2301 C 231.799 -2.40604 2.52805 0
M  V30 2302 C 233.147 -3.04789 2.95616 0
M  V30 2303 O 234.171 -2.50932 2.52807 0
M  V30 2304 O 233.03 -4.02421 3.69756 0
M  V30 2305 H 230.124 -0.63246 0.532844 0
M  V30 2306 H 232.67 -0.686814 1.5518 0
M  V30 2307 H 231.442 -1.88174 3.43083 0
M  V30 2308 H 231.065 -3.21009 2.34604 0
M  V30 2309 N 232.062 -1.29571 -0.897171 0
M  V30 2310 C 233.473 -1.15964 -1.46319 0
M  V30 2311 C 233.824 0.244267 -1.94674 0
M  V30 2312 O 232.949 1.13998 -1.83939 0
M  V30 2313 C 233.544 -2.09906 -2.65942 0
M  V30 2314 C 232.103 -2.00314 -3.18671 0
M  V30 2315 C 231.25 -2.00687 -1.91363 0
M  V30 2316 H 234.201 -1.42019 -0.708268 0
M  V30 2317 H 234.222 -1.67276 -3.41759 0
M  V30 2318 H 233.734 -3.12075 -2.30718 0
M  V30 2319 H 231.835 -1.01242 -3.58582 0
M  V30 2320 H 231.948 -2.88102 -3.82798 0
M  V30 2321 H 230.312 -1.45319 -2.09175 0
M  V30 2322 H 231.095 -3.04566 -1.58413 0
M  V30 2323 N 233.54 1.10788 -1.12088 0
M  V30 2324 C 234.47 2.19083 -0.807755 0
M  V30 2325 C 235.451 1.6858 0.226859 0
M  V30 2326 O 236.636 1.93997 0.0888475 0
M  V30 2327 C 233.766 3.46344 -0.257576 0
M  V30 2328 C 232.72 4.101 -1.22483 0
M  V30 2329 C 232.046 5.32016 -0.535052 0
M  V30 2330 C 233.346 4.54236 -2.57811 0
M  V30 2331 H 235.04 2.45534 -1.71328 0
M  V30 2332 H 232.586 1.1801 -0.825205 0
M  V30 2333 H 234.539 4.21392 -0.0262679 0
M  V30 2334 H 233.263 3.19373 0.683278 0
M  V30 2335 H 231.922 3.37054 -1.44189 0
M  V30 2336 H 231.57 5.01319 0.410827 0
M  V30 2337 H 231.27 5.75625 -1.18024 0
M  V30 2338 H 232.794 6.09799 -0.312695 0
M  V30 2339 H 234.208 5.20575 -2.40155 0
M  V30 2340 H 232.605 5.08682 -3.18375 0
M  V30 2341 H 233.675 3.6734 -3.16528 0
M  V30 2342 N 235.018 0.912232 1.28515 0
M  V30 2343 C 236.434 0.610159 1.47476 0
M  V30 2344 C 236.634 -0.844955 1.82928 0
M  V30 2345 O 235.69 -1.62416 1.93332 0
M  V30 2346 C 237.003 1.54675 2.57868 0
M  V30 2347 C 238.551 1.55331 2.71738 0
M  V30 2348 C 239.026 2.47649 3.85272 0
M  V30 2349 N 240.517 2.45767 3.92623 0
M  V30 2350 C 241.252 3.13896 4.79851 0
M  V30 2351 N 240.748 3.9135 5.71679 0
M  V30 2352 N 242.541 3.02991 4.73448 0
M  V30 2353 H 234.692 1.85318 1.03783 0
M  V30 2354 H 236.955 0.794777 0.516753 0
M  V30 2355 H 236.661 2.5841 2.38574 0
M  V30 2356 H 236.535 1.27671 3.54937 0
M  V30 2357 H 238.922 0.52335 2.90422 0
M  V30 2358 H 239.003 1.86378 1.75205 0
M  V30 2359 H 238.647 3.50745 3.67342 0
M  V30 2360 H 238.577 2.13904 4.81199 0
M  V30 2361 H 241.068 1.89503 3.26951 0
M  V30 2362 H 241.381 4.40359 6.35062 0
M  V30 2363 H 239.726 3.95455 5.71524 0
M  V30 2364 H 242.917 2.41987 4.007 0
M  V30 2365 H 243.09 3.5636 5.41213 0
M  V30 2366 N 236.496 -1.42363 0.676048 0
M  V30 2367 C 237.444 -2.32596 -0.0131507 0
M  V30 2368 C 238.438 -1.49891 -0.789238 0
M  V30 2369 O 239.644 -1.65955 -0.697061 0
M  V30 2370 H 236.019 -0.751647 -0.0230481 0
M  V30 2371 H 237.99 -2.88421 0.765243 0
M  V30 2372 C 236.739 -3.34479 -0.949702 0
M  V30 2373 H 236.062 -3.98158 -0.361938 0
M  V30 2374 H 237.502 -4.00199 -1.4006 0
M  V30 2375 C 235.961 -2.66838 -2.05667 0
M  V30 2376 O 236.491 -2.50124 -3.14326 0
M  V30 2377 N 234.697 -2.25843 -1.82875 0
M  V30 2378 H 234.244 -2.39637 -0.945085 0
M  V30 2379 H 234.202 -1.80918 -2.5713 0
M  V30 2380 N 237.974 -0.419461 -1.51915 0
M  V30 2381 C 238.884 0.407528 -2.31033 0
M  V30 2382 C 239.9 1.04413 -1.3919 0
M  V30 2383 O 241.076 1.0434 -1.72265 0
M  V30 2384 C 238.141 1.50365 -3.12396 0
M  V30 2385 C 237.202 0.889029 -4.19994 0
M  V30 2386 C 236.435 1.93291 -4.97468 0
M  V30 2387 O 236.658 3.15259 -4.75361 0
M  V30 2388 O 235.592 1.53339 -5.8204 0
M  V30 2389 H 239.418 -0.237865 -3.02767 0
M  V30 2390 H 237.003 -0.182413 -1.48282 0
M  V30 2391 H 238.885 2.13975 -3.63032 0
M  V30 2392 H 237.56 2.13345 -2.43445 0
M  V30 2393 H 236.467 0.215353 -3.7348 0
M  V30 2394 H 237.8 0.302991 -4.91267 0
M  V30 2395 N 239.452 1.56882 -0.150215 0
M  V30 2396 C 240.682 2.00302 0.506213 0
M  V30 2397 C 241.09 1.02934 1.58749 0
M  V30 2398 O 240.433 0.0188384 1.8369 0
M  V30 2399 C 240.495 3.40156 1.16337 0
M  V30 2400 C 240.159 4.56439 0.226311 0
M  V30 2401 C 241.156 5.17012 -0.547265 0
M  V30 2402 C 238.841 5.02136 0.128279 0
M  V30 2403 C 240.835 6.21693 -1.40629 0
M  V30 2404 C 238.522 6.06672 -0.734345 0
M  V30 2405 C 239.52 6.6632 -1.50023 0
M  V30 2406 O 239.208 7.68831 -2.34848 0
M  V30 2407 H 238.94 0.662182 0.135984 0
M  V30 2408 H 241.494 2.03961 -0.242746 0
M  V30 2409 H 239.724 3.33346 1.96004 0
M  V30 2410 H 241.413 3.67663 1.71985 0
M  V30 2411 H 242.179 4.82603 -0.48158 0
M  V30 2412 H 238.058 4.55435 0.714157 0
M  V30 2413 H 241.602 6.68179 -2.00455 0
M  V30 2414 H 237.499 6.40507 -0.801309 0
M  V30 2415 H 238.267 7.86065 -2.28131 0
M  V30 2416 N 240.93 -0.123565 1.57115 0
M  V30 2417 C 242.177 -0.832153 1.84612 0
M  V30 2418 C 242.505 -1.80093 0.734627 0
M  V30 2419 O 241.76 -1.93766 -0.27442 0
M  V30 2420 C 242.059 -1.62016 3.18568 0
M  V30 2421 C 241.725 -0.796084 4.43817 0
M  V30 2422 C 240.387 -0.568816 4.77826 0
M  V30 2423 C 242.739 -0.221364 5.2073 0
M  V30 2424 C 240.067 0.243499 5.86194 0
M  V30 2425 C 242.419 0.578117 6.29953 0
M  V30 2426 C 241.083 0.815744 6.62497 0
M  V30 2427 H 240.353 -0.304507 0.675542 0
M  V30 2428 H 243 -0.0947248 1.91266 0
M  V30 2429 H 241.305 -2.42837 3.0747 0
M  V30 2430 H 243.002 -2.17231 3.37064 0
M  V30 2431 H 239.592 -0.983307 4.17168 0
M  V30 2432 H 243.776 -0.384173 4.94811 0
M  V30 2433 H 239.032 0.436871 6.09837 0
M  V30 2434 H 243.206 1.03046 6.88734 0
M  V30 2435 H 240.833 1.44701 7.46301 0
M  V30 2436 N 242.408 -1.52605 -0.393616 0
M  V30 2437 C 243.655 -1.67424 -1.1391 0
M  V30 2438 C 243.983 -0.411859 -1.90089 0
M  V30 2439 O 243.238 0.605626 -1.86093 0
M  V30 2440 C 243.537 -2.85721 -2.14705 0
M  V30 2441 C 243.203 -4.23342 -1.55218 0
M  V30 2442 C 241.865 -4.60771 -1.3872 0
M  V30 2443 C 244.217 -5.09041 -1.11924 0
M  V30 2444 C 241.545 -5.81563 -0.774689 0
M  V30 2445 C 243.897 -6.30452 -0.520853 0
M  V30 2446 C 242.561 -6.66617 -0.343134 0
M  V30 2447 H 241.831 -0.612648 -0.416826 0
M  V30 2448 H 244.478 -1.8674 -0.424315 0
M  V30 2449 H 242.783 -2.60803 -2.92385 0
M  V30 2450 H 244.48 -2.94382 -2.72288 0
M  V30 2451 H 241.07 -3.93855 -1.69045 0
M  V30 2452 H 245.254 -4.80695 -1.23473 0
M  V30 2453 H 240.51 -6.08196 -0.625154 0
M  V30 2454 H 244.684 -6.96175 -0.177065 0
M  V30 2455 H 242.311 -7.60083 0.133571 0
M  V30 2456 N 243.887 0.651787 -1.4349 0
M  V30 2457 C 245.164 1.40909 -1.35661 0
M  V30 2458 C 245.544 2.11099 -0.00511733 0
M  V30 2459 O 244.892 2.04892 1.0115 0
M  V30 2460 C 245.102 2.3926 -2.54078 0
M  V30 2461 C 246.45 3.03217 -2.97228 0
M  V30 2462 O 247.474 2.49588 -2.54135 0
M  V30 2463 O 246.333 4.00455 -3.71885 0
M  V30 2464 H 243.427 0.629625 -0.536191 0
M  V30 2465 H 245.973 0.678575 -1.55542 0
M  V30 2466 H 244.745 1.86352 -3.44076 0
M  V30 2467 H 244.368 3.1976 -2.36303 0
M  V30 2468 N 245.365 1.30045 0.890287 0
M  V30 2469 C 246.781 1.08261 1.17268 0
M  V30 2470 C 246.981 -0.160063 2.00863 0
M  V30 2471 O 246.037 -0.855181 2.37577 0
M  V30 2472 C 247.35 2.34323 1.8845 0
M  V30 2473 C 248.898 2.39735 2.01237 0
M  V30 2474 C 249.373 3.65625 2.7583 0
M  V30 2475 N 250.864 3.66402 2.83379 0
M  V30 2476 C 251.599 4.60498 3.41657 0
M  V30 2477 N 251.095 5.64933 4.01026 0
M  V30 2478 N 252.888 4.48051 3.39421 0
M  V30 2479 H 245.039 2.09777 0.332762 0
M  V30 2480 H 247.302 0.92446 0.209948 0
M  V30 2481 H 247.008 3.2498 1.34465 0
M  V30 2482 H 246.882 2.4256 2.88867 0
M  V30 2483 H 249.269 1.4956 2.54393 0
M  V30 2484 H 249.35 2.35476 0.999232 0
M  V30 2485 H 248.994 4.56156 2.23347 0
M  V30 2486 H 248.924 3.67144 3.77509 0
M  V30 2487 H 251.415 2.90896 2.41222 0
M  V30 2488 H 251.728 6.32841 4.43545 0
M  V30 2489 H 250.073 5.68732 3.99461 0
M  V30 2490 H 253.264 3.65649 2.92264 0
M  V30 2491 H 253.437 5.21565 3.84544 0
M  V30 2492 N 246.843 -1.10192 1.12674 0
M  V30 2493 C 247.791 -2.18694 0.792196 0
M  V30 2494 C 248.785 -1.67938 -0.222058 0
M  V30 2495 O 249.991 -1.79822 -0.0800074 0
M  V30 2496 H 246.366 -0.713223 0.238364 0
M  V30 2497 H 248.337 -2.44149 1.71564 0
M  V30 2498 C 247.086 -3.46682 0.265859 0
M  V30 2499 H 246.409 -3.86101 1.03761 0
M  V30 2500 H 247.849 -4.23942 0.0701128 0
M  V30 2501 C 246.308 -3.21506 -1.00675 0
M  V30 2502 O 246.838 -3.43408 -2.08408 0
M  V30 2503 N 245.044 -2.75158 -0.934692 0
M  V30 2504 H 244.591 -2.57535 -0.0578604 0
M  V30 2505 H 244.549 -2.58691 -1.7868 0
M  V30 2506 N 248.321 -0.919034 -1.28029 0
M  V30 2507 C 249.737 -0.617972 -1.4715 0
M  V30 2508 C 249.937 0.835242 -1.83374 0
M  V30 2509 O 248.993 1.61388 -1.94191 0
M  V30 2510 C 250.306 -1.56041 -2.57044 0
M  V30 2511 C 251.854 -1.56769 -2.7091 0
M  V30 2512 C 252.329 -2.49688 -3.83953 0
M  V30 2513 N 253.82 -2.47845 -3.91314 0
M  V30 2514 C 254.555 -3.16437 -4.78179 0
M  V30 2515 N 254.051 -3.94376 -5.69596 0
M  V30 2516 N 255.844 -3.05498 -4.71834 0
M  V30 2517 H 247.995 -1.85866 -1.02798 0
M  V30 2518 H 250.258 -0.797506 -0.512531 0
M  V30 2519 H 249.964 -2.59671 -2.372 0
M  V30 2520 H 249.838 -1.29551 -3.54255 0
M  V30 2521 H 252.225 -0.538745 -2.90141 0
M  V30 2522 H 252.306 -1.87305 -1.74214 0
M  V30 2523 H 251.95 -3.52688 -3.65477 0
M  V30 2524 H 251.88 -2.16453 -4.80058 0
M  V30 2525 H 254.371 -1.91234 -3.25941 0
M  V30 2526 H 254.684 -4.43721 -6.32718 0
M  V30 2527 H 253.029 -3.98481 -5.69419 0
M  V30 2528 H 256.22 -2.44108 -3.99411 0
M  V30 2529 H 256.393 -3.59225 -5.39316 0
M  V30 2530 N 249.799 1.42003 -0.683588 0
M  V30 2531 C 251.21 1.84501 -0.285736 0
M  V30 2532 C 251.561 1.57213 1.17382 0
M  V30 2533 O 250.686 1.03642 1.89966 0
M  V30 2534 C 251.281 3.34912 -0.511821 0
M  V30 2535 C 249.84 3.76025 -0.168005 0
M  V30 2536 C 248.987 2.6551 -0.799983 0
M  V30 2537 H 251.938 1.31724 -0.885119 0
M  V30 2538 H 251.959 3.79784 0.233292 0
M  V30 2539 H 251.471 3.54741 -1.57418 0
M  V30 2540 H 249.572 3.61801 0.890567 0
M  V30 2541 H 249.685 4.75141 -0.614661 0
M  V30 2542 H 248.049 2.53654 -0.230568 0
M  V30 2543 H 248.832 2.8816 -1.86597 0
M  V30 2544 N 251.277 0.427512 1.51691 0
M  V30 2545 C 252.502 -0.143601 2.06902 0
M  V30 2546 C 252.927 -1.36536 1.29382 0
M  V30 2547 O 252.285 -1.78289 0.329043 0
M  V30 2548 C 252.333 -0.454207 3.57728 0
M  V30 2549 O 251.437 -1.54228 3.82475 0
M  V30 2550 H 250.778 -0.00617128 0.663971 0
M  V30 2551 H 253.308 0.606014 1.95419 0
M  V30 2552 H 253.318 -0.707525 4.01818 0
M  V30 2553 H 251.993 0.438812 4.13579 0
M  V30 2554 H 250.57 -1.2797 3.50254 0
M  V30 2555 N 252.755 -1.56801 0.158532 0
M  V30 2556 C 254.002 -1.9649 -0.489679 0
M  V30 2557 C 254.33 -1.04394 -1.6411 0
M  V30 2558 O 253.585 -0.0754401 -1.95555 0
M  V30 2559 C 253.884 -3.4235 -1.02623 0
M  V30 2560 C 253.55 -4.50899 0.00794526 0
M  V30 2561 C 252.212 -4.80312 0.292207 0
M  V30 2562 C 254.564 -5.16333 0.710584 0
M  V30 2563 C 251.892 -5.72461 1.28472 0
M  V30 2564 C 254.244 -6.09553 1.69199 0
M  V30 2565 C 252.908 -6.37339 1.98383 0
M  V30 2566 H 252.178 -0.719009 -0.179186 0
M  V30 2567 H 254.825 -1.8989 0.247798 0
M  V30 2568 H 253.13 -3.45838 -1.84128 0
M  V30 2569 H 254.827 -3.70393 -1.53656 0
M  V30 2570 H 251.417 -4.28015 -0.22379 0
M  V30 2571 H 255.601 -4.93732 0.504174 0
M  V30 2572 H 250.857 -5.92278 1.51714 0
M  V30 2573 H 255.031 -6.59327 2.24189 0
M  V30 2574 H 252.658 -7.08546 2.7544 0
M  V30 2575 N 254.233 0.115231 -1.57178 0
M  V30 2576 C 255.51 0.852873 -1.76027 0
M  V30 2577 C 255.89 1.97892 -0.73498 0
M  V30 2578 O 255.238 2.27232 0.24036 0
M  V30 2579 C 255.448 1.36608 -3.21153 0
M  V30 2580 C 256.796 1.81692 -3.83762 0
M  V30 2581 O 257.82 1.46278 -3.24779 0
M  V30 2582 O 256.679 2.47104 -4.87444 0
M  V30 2583 H 253.773 0.405296 -0.720877 0
M  V30 2584 H 256.319 0.0986785 -1.69413 0
M  V30 2585 H 255.091 0.558357 -3.87296 0
M  V30 2586 H 254.714 2.18287 -3.3232 0
M  V30 2587 N 255.711 1.52812 0.385517 0
M  V30 2588 C 256.959 1.67694 1.12797 0
M  V30 2589 C 257.28 0.421115 1.90399 0
M  V30 2590 O 256.55 -0.564551 1.87589 0
M  V30 2591 H 255.13 0.618155 0.419396 0
M  V30 2592 H 257.792 1.89938 0.436972 0
M  V30 2593 H 256.888 2.52896 1.82894 0
M  V30 2594 N 257.189 -0.644168 1.43834 0
M  V30 2595 C 258.438 -1.39985 1.45214 0
M  V30 2596 C 258.751 -1.95421 0.0835494 0
M  V30 2597 O 259.957 -2.71488 -0.0251748 0
M  V30 2598 C 258.413 -2.53384 2.55587 0
M  V30 2599 C 258.021 -2.04517 3.98594 0
M  V30 2600 C 259.765 -3.30685 2.66172 0
M  V30 2601 C 257.672 -3.1518 5.00416 0
M  V30 2602 H 256.602 -0.526005 0.540218 0
M  V30 2603 H 259.253 -0.694367 1.69855 0
M  V30 2604 H 257.635 -3.26446 2.24163 0
M  V30 2605 H 258.809 -1.38405 4.39523 0
M  V30 2606 H 257.124 -1.40068 3.92135 0
M  V30 2607 H 259.721 -4.13158 3.39418 0
M  V30 2608 H 260.064 -3.79312 1.71546 0
M  V30 2609 H 260.597 -2.64708 2.96942 0
M  V30 2610 H 257.336 -2.71511 5.96625 0
M  V30 2611 H 256.856 -3.79974 4.64091 0
M  V30 2612 H 258.535 -3.80166 5.23529 0
M  V30 2613 N 258.668 -1.30515 -0.883378 0
M  V30 2614 C 259.598 -1.19607 -2.00541 0
M  V30 2615 C 260.579 -0.086346 -1.69881 0
M  V30 2616 O 261.764 -0.268654 -1.92333 0
M  V30 2617 C 258.894 -0.888758 -3.35736 0
M  V30 2618 C 257.848 -1.95659 -3.8066 0
M  V30 2619 C 257.174 -1.50224 -5.13164 0
M  V30 2620 C 258.474 -3.36788 -3.99213 0
M  V30 2621 H 260.168 -2.13476 -2.09925 0
M  V30 2622 H 257.714 -1.02775 -1.00863 0
M  V30 2623 H 259.667 -0.799094 -4.13754 0
M  V30 2624 H 258.391 0.0856125 -3.26488 0
M  V30 2625 H 257.05 -2.03591 -3.04871 0
M  V30 2626 H 256.698 -0.516092 -5.00345 0
M  V30 2627 H 256.398 -2.2165 -5.44192 0
M  V30 2628 H 257.922 -1.42639 -5.93706 0
M  V30 2629 H 259.336 -3.31605 -4.67665 0
M  V30 2630 H 257.733 -4.06314 -4.41621 0
M  V30 2631 H 258.803 -3.78561 -3.03017 0
M  V30 2632 N 260.146 1.09593 -1.13257 0
M  V30 2633 C 261.376 1.85231 -0.915049 0
M  V30 2634 C 261.784 1.81345 0.539498 0
M  V30 2635 O 261.127 1.20664 1.38513 0
M  V30 2636 C 261.189 3.34275 -1.3229 0
M  V30 2637 C 260.853 3.6191 -2.79052 0
M  V30 2638 C 261.85 3.57777 -3.77216 0
M  V30 2639 C 259.535 3.90309 -3.16171 0
M  V30 2640 C 261.529 3.81652 -5.1051 0
M  V30 2641 C 259.216 4.13839 -4.49644 0
M  V30 2642 C 260.214 4.09502 -5.46623 0
M  V30 2643 O 259.902 4.32426 -6.77689 0
M  V30 2644 H 259.634 0.591997 -0.326367 0
M  V30 2645 H 262.188 1.394 -1.50854 0
M  V30 2646 H 260.418 3.80805 -0.672667 0
M  V30 2647 H 262.107 3.9132 -1.07812 0
M  V30 2648 H 262.873 3.35865 -3.49885 0
M  V30 2649 H 258.752 3.92811 -2.41289 0
M  V30 2650 H 262.296 3.78182 -5.86195 0
M  V30 2651 H 258.193 4.35232 -4.767 0
M  V30 2652 H 258.961 4.49896 -6.83766 0
M  V30 2653 N 261.624 0.925811 1.2754 0
M  V30 2654 C 262.854 0.580666 1.98272 0
M  V30 2655 C 263.262 -0.845207 1.69272 0
M  V30 2656 O 262.605 -1.57306 0.948707 0
M  V30 2657 C 262.667 0.724418 3.52126 0
M  V30 2658 C 262.331 2.12206 4.04744 0
M  V30 2659 C 263.328 3.09604 4.17662 0
M  V30 2660 C 261.013 2.4385 4.39138 0
M  V30 2661 C 263.007 4.36755 4.64246 0
M  V30 2662 C 260.694 3.71237 4.85414 0
M  V30 2663 C 261.692 4.67503 4.97926 0
M  V30 2664 O 261.38 5.92624 5.43187 0
M  V30 2665 H 261.112 0.218987 0.639547 0
M  V30 2666 H 263.666 1.24452 1.63404 0
M  V30 2667 H 261.896 0.0034663 3.867 0
M  V30 2668 H 263.585 0.384607 4.04074 0
M  V30 2669 H 264.351 2.86478 3.91351 0
M  V30 2670 H 260.23 1.69665 4.28643 0
M  V30 2671 H 263.774 5.11898 4.73927 0
M  V30 2672 H 259.671 3.94182 5.11166 0
M  V30 2673 H 260.439 5.95585 5.61445 0
M  V30 2674 N 263.102 -1.41638 0.69111 0
M  V30 2675 C 264.332 -2.0533 0.228758 0
M  V30 2676 C 264.74 -1.52089 -1.12541 0
M  V30 2677 O 264.083 -0.662145 -1.71351 0
M  V30 2678 C 264.145 -3.59349 0.10407 0
M  V30 2679 C 263.809 -4.35362 1.38956 0
M  V30 2680 C 264.806 -4.64942 2.32648 0
M  V30 2681 C 262.491 -4.74714 1.64169 0
M  V30 2682 C 264.485 -5.32828 3.49818 0
M  V30 2683 C 262.172 -5.42338 2.81625 0
M  V30 2684 C 263.17 -5.71322 3.74273 0
M  V30 2685 O 262.858 -6.37554 4.89673 0
M  V30 2686 H 262.59 -0.667796 0.104997 0
M  V30 2687 H 265.144 -1.82477 0.942938 0
M  V30 2688 H 263.374 -3.80924 -0.665839 0
M  V30 2689 H 265.063 -4.04633 -0.320519 0
M  V30 2690 H 265.829 -4.35025 2.14425 0
M  V30 2691 H 261.708 -4.51538 0.929202 0
M  V30 2692 H 265.252 -5.55368 4.22152 0
M  V30 2693 H 261.149 -5.71673 2.99768 0
M  V30 2694 H 261.917 -6.56049 4.8943 0
M  V30 2695 N 264.58 -0.43555 -1.51462 0
M  V30 2696 C 265.512 0.41257 -2.25456 0
M  V30 2697 C 266.525 0.987822 -1.29406 0
M  V30 2698 O 267.714 0.882266 -1.55172 0
M  V30 2699 C 264.814 1.58894 -2.99342 0
M  V30 2700 C 263.987 1.13288 -4.22474 0
M  V30 2701 C 263.046 2.17917 -4.78956 0
M  V30 2702 O 262.072 1.77425 -5.40841 0
M  V30 2703 N 263.274 3.50382 -4.62832 0
M  V30 2704 H 266.039 -0.221603 -2.9888 0
M  V30 2705 H 263.6 -0.264342 -1.59727 0
M  V30 2706 H 265.592 2.28508 -3.34015 0
M  V30 2707 H 264.162 2.12849 -2.28941 0
M  V30 2708 H 263.382 0.263881 -3.93316 0
M  V30 2709 H 264.67 0.805542 -5.02383 0
M  V30 2710 H 264.068 3.86013 -4.13534 0
M  V30 2711 H 262.625 4.15895 -5.01871 0
M  V30 2712 N 266.058 1.56714 -0.166846 0
M  V30 2713 C 267.283 2.01557 0.488833 0
M  V30 2714 C 267.708 1.0463 1.56314 0
M  V30 2715 O 267.066 0.0251304 1.81283 0
M  V30 2716 C 267.114 3.4503 1.04818 0
M  V30 2717 O 266.218 3.51163 2.16236 0
M  V30 2718 H 265.559 0.653516 0.117526 0
M  V30 2719 H 268.089 2.02818 -0.269421 0
M  V30 2720 H 268.099 3.84243 1.37191 0
M  V30 2721 H 266.774 4.15077 0.261572 0
M  V30 2722 H 265.351 3.23807 1.84942 0
M  V30 2723 N 267.536 -0.106894 1.57237 0
M  V30 2724 C 268.784 -0.810921 1.85117 0
M  V30 2725 C 269.105 -1.7984 0.753827 0
M  V30 2726 O 268.375 -1.94649 -0.221056 0
M  V30 2727 H 266.955 -0.302466 0.683025 0
M  V30 2728 H 269.617 -0.0913324 1.94686 0
M  V30 2729 H 268.713 -1.34875 2.81452 0
M  V30 2730 N 269.014 -1.53014 -0.377408 0
M  V30 2731 C 270.262 -1.6829 -1.11906 0
M  V30 2732 C 270.583 -0.431206 -1.90173 0
M  V30 2733 O 269.853 0.554595 -1.87886 0
M  V30 2734 H 268.433 -0.620371 -0.416112 0
M  V30 2735 H 271.095 -1.90167 -0.426893 0
M  V30 2736 H 270.191 -2.53862 -1.8155 0
M  V30 2737 N 270.492 0.636531 -1.44174 0
M  V30 2738 C 271.908 0.954104 -1.27941 0
M  V30 2739 C 272.108 2.0039 -0.211248 0
M  V30 2740 O 271.164 2.49236 0.404695 0
M  V30 2741 C 272.477 1.4225 -2.64925 0
M  V30 2742 C 274.025 1.53827 -2.72592 0
M  V30 2743 C 274.5 2.04053 -4.10032 0
M  V30 2744 N 275.991 2.11331 -4.12182 0
M  V30 2745 C 276.726 2.51352 -5.15374 0
M  V30 2746 N 276.222 2.90549 -6.2893 0
M  V30 2747 N 278.015 2.51438 -5.02728 0
M  V30 2748 H 270.166 -0.0578386 -2.12321 0
M  V30 2749 H 272.429 0.0367406 -0.947288 0
M  V30 2750 H 272.135 0.725466 -3.44136 0
M  V30 2751 H 272.009 2.39451 -2.9145 0
M  V30 2752 H 274.396 2.22628 -1.93702 0
M  V30 2753 H 274.477 0.550154 -2.49814 0
M  V30 2754 H 274.121 1.35848 -4.89395 0
M  V30 2755 H 274.051 3.03726 -4.30184 0
M  V30 2756 H 276.542 1.83745 -3.30222 0
M  V30 2757 H 276.855 3.19884 -7.03487 0
M  V30 2758 H 275.2 2.88313 -6.32377 0
M  V30 2759 H 278.391 2.20203 -4.13072 0
M  V30 2760 H 278.564 2.82304 -5.83274 0
M  V30 2761 N 271.97 1.30982 0.876444 0
M  V30 2762 C 272.9 1.20668 1.99903 0
M  V30 2763 C 273.881 0.095354 1.69833 0
M  V30 2764 O 275.066 0.27885 1.92188 0
M  V30 2765 C 272.196 0.90655 3.3526 0
M  V30 2766 C 271.15 1.97675 3.79617 0
M  V30 2767 C 270.476 1.52943 5.1236 0
M  V30 2768 C 271.776 3.389 3.97422 0
M  V30 2769 H 273.47 2.14586 2.0879 0
M  V30 2770 H 271.016 1.03308 1.00317 0
M  V30 2771 H 272.969 0.821025 4.13324 0
M  V30 2772 H 271.693 -0.0682969 3.26529 0
M  V30 2773 H 270.352 2.05205 3.03787 0
M  V30 2774 H 270 0.54262 5.00065 0
M  V30 2775 H 269.7 2.24532 5.43009 0
M  V30 2776 H 271.224 1.45786 5.92941 0
M  V30 2777 H 272.638 3.34081 4.659 0
M  V30 2778 H 271.035 4.0865 4.3946 0
M  V30 2779 H 272.105 3.80163 3.01006 0
M  V30 2780 N 273.449 -1.08991 1.13837 0
M  V30 2781 C 274.865 -1.33312 0.877506 0
M  V30 2782 C 275.065 -1.95587 -0.48456 0
M  V30 2783 O 274.121 -2.20509 -1.23013 0
M  V30 2784 C 275.434 -2.24045 2.0056 0
M  V30 2785 C 276.982 -2.37542 2.03821 0
M  V30 2786 C 277.457 -3.31614 3.15905 0
M  V30 2787 N 278.948 -3.39189 3.15445 0
M  V30 2788 C 279.683 -4.11992 3.98811 0
M  V30 2789 N 279.179 -4.87553 4.92203 0
M  V30 2790 N 280.972 -4.07762 3.86894 0
M  V30 2791 H 273.123 -0.669456 2.01574 0
M  V30 2792 H 275.386 -0.357482 0.878015 0
M  V30 2793 H 275.092 -1.85521 2.98789 0
M  V30 2794 H 274.966 -3.24466 1.92359 0
M  V30 2795 H 277.353 -2.75327 1.06202 0
M  V30 2796 H 277.434 -1.36884 2.16093 0
M  V30 2797 H 277.078 -2.94551 4.13766 0
M  V30 2798 H 277.008 -4.32186 3.0087 0
M  V30 2799 H 279.499 -2.85314 2.47799 0
M  V30 2800 H 279.812 -5.40549 5.52292 0
M  V30 2801 H 278.157 -4.86627 4.96205 0
M  V30 2802 H 281.348 -3.47833 3.13257 0
M  V30 2803 H 281.521 -4.64238 4.52092 0
M  V30 2804 N 274.927 -0.932562 -1.27047 0
M  V30 2805 C 276.343 -0.633544 -1.46487 0
M  V30 2806 C 276.543 0.815746 -1.84249 0
M  V30 2807 O 275.599 1.59319 -1.95892 0
M  V30 2808 C 276.912 -1.58758 -2.55375 0
M  V30 2809 C 278.46 -1.59634 -2.69232 0
M  V30 2810 C 278.935 -2.53747 -3.81283 0
M  V30 2811 N 280.426 -2.51982 -3.88664 0
M  V30 2812 C 281.161 -3.21491 -4.74796 0
M  V30 2813 N 280.657 -4.00395 -5.65381 0
M  V30 2814 N 282.45 -3.10485 -4.68568 0
M  V30 2815 H 274.601 -1.86946 -1.00821 0
M  V30 2816 H 276.864 -0.802897 -0.504044 0
M  V30 2817 H 276.57 -2.62172 -2.34432 0
M  V30 2818 H 276.444 -1.33301 -3.52861 0
M  V30 2819 H 278.831 -0.569488 -2.89553 0
M  V30 2820 H 278.912 -1.89142 -1.72218 0
M  V30 2821 H 278.556 -3.56545 -3.61715 0
M  V30 2822 H 278.486 -2.21532 -4.77735 0
M  V30 2823 H 280.977 -1.94681 -3.23895 0
M  V30 2824 H 281.29 -4.50406 -6.27976 0
M  V30 2825 H 279.635 -4.04498 -5.65161 0
M  V30 2826 H 282.826 -2.48331 -3.96799 0
M  V30 2827 H 282.999 -3.64925 -5.35475 0
M  V30 2828 N 276.405 1.4127 -0.698611 0
M  V30 2829 C 277.816 1.84187 -0.305289 0
M  V30 2830 C 278.167 1.58449 1.15708 0
M  V30 2831 O 277.292 1.05651 1.88856 0
M  V30 2832 C 277.887 3.3435 -0.547314 0
M  V30 2833 C 276.446 3.75826 -0.207878 0
M  V30 2834 C 275.593 2.64647 -0.828099 0
M  V30 2835 H 278.544 1.30778 -0.89904 0
M  V30 2836 H 278.565 3.8001 0.192998 0
M  V30 2837 H 278.077 3.53051 -1.61172 0
M  V30 2838 H 276.178 3.62725 0.852143 0
M  V30 2839 H 276.291 4.74462 -0.665021 0
M  V30 2840 H 274.655 2.53395 -0.257458 0
M  V30 2841 H 275.438 2.86165 -1.89643 0
M  V30 2842 N 277.883 0.443576 1.51229 0
M  V30 2843 C 279.129 -0.120975 2.02439 0
M  V30 2844 C 279.462 -1.41815 1.32674 0
M  V30 2845 O 278.737 -1.89373 0.443622 0
M  V30 2846 C 279.02 -0.333291 3.58554 0
M  V30 2847 C 278.873 0.982968 4.38928 0
M  V30 2848 C 280.192 -1.10028 4.26124 0
M  V30 2849 H 277.311 -0.0424923 0.735774 0
M  V30 2850 H 279.953 0.583794 1.80809 0
M  V30 2851 H 278.103 -0.933614 3.77115 0
M  V30 2852 H 279.775 1.61775 4.32003 0
M  V30 2853 H 278.018 1.58611 4.03763 0
M  V30 2854 H 278.689 0.788379 5.46341 0
M  V30 2855 H 281.165 -0.591711 4.11871 0
M  V30 2856 H 280.041 -1.21761 5.35225 0
M  V30 2857 H 280.302 -2.12996 3.87408 0
M  V30 2858 N 279.361 -1.56624 0.175154 0
M  V30 2859 C 280.309 -2.19468 -0.770495 0
M  V30 2860 C 281.303 -1.15985 -1.23466 0
M  V30 2861 O 282.509 -1.34176 -1.19987 0
M  V30 2862 H 278.884 -0.703095 -0.266761 0
M  V30 2863 H 280.855 -2.97613 -0.216542 0
M  V30 2864 C 279.604 -2.85264 -1.98796 0
M  V30 2865 H 278.927 -3.64623 -1.63983 0
M  V30 2866 H 280.367 -3.327 -2.62843 0
M  V30 2867 C 278.826 -1.85239 -2.81404 0
M  V30 2868 O 279.356 -1.34024 -3.78682 0
M  V30 2869 N 277.562 -1.53911 -2.46495 0
M  V30 2870 H 277.109 -1.95751 -1.67449 0
M  V30 2871 H 277.067 -0.872382 -3.02054 0
M  V30 2872 N 280.839 0.0985539 -1.57292 0
M  V30 2873 C 282.085 0.803867 -1.86188 0
M  V30 2874 C 282.418 1.78549 -0.763794 0
M  V30 2875 O 281.693 1.93153 0.22855 0
M  V30 2876 C 281.976 1.53568 -3.25713 0
M  V30 2877 C 281.829 0.572277 -4.46145 0
M  V30 2878 C 283.148 2.48708 -3.63087 0
M  V30 2879 H 280.267 0.290781 -0.677211 0
M  V30 2880 H 282.909 0.0675783 -1.8988 0
M  V30 2881 H 281.059 2.16332 -3.22696 0
M  V30 2882 H 282.731 -0.0480894 -4.61275 0
M  V30 2883 H 280.974 -0.114618 -4.33649 0
M  V30 2884 H 281.645 1.12139 -5.40489 0
M  V30 2885 H 284.121 1.96039 -3.67026 0
M  V30 2886 H 282.997 2.96932 -4.61652 0
M  V30 2887 H 283.258 3.32309 -2.91588 0
M  V30 2888 N 282.317 1.53212 0.369288 0
M  V30 2889 C 283.542 1.73423 1.1375 0
M  V30 2890 C 283.967 0.460404 1.82378 0
M  V30 2891 O 283.325 -0.585298 1.71592 0
M  V30 2892 C 283.373 2.89769 2.1463 0
M  V30 2893 O 282.477 2.58119 3.21634 0
M  V30 2894 H 281.818 0.576061 0.330227 0
M  V30 2895 H 284.348 2.00083 0.427547 0
M  V30 2896 H 284.358 3.15829 2.58294 0
M  V30 2897 H 283.033 3.8217 1.64071 0
M  V30 2898 H 281.61 2.42864 2.82969 0
M  V30 2899 N 283.795 -0.628877 1.44509 0
M  V30 2900 C 284.725 -1.75187 1.54376 0
M  V30 2901 C 285.706 -1.65411 0.396618 0
M  V30 2902 O 286.891 -1.84137 0.617031 0
M  V30 2903 C 284.021 -3.13725 1.48976 0
M  V30 2904 C 282.975 -3.38291 2.62189 0
M  V30 2905 C 282.301 -4.76883 2.41841 0
M  V30 2906 C 283.601 -3.30632 4.04326 0
M  V30 2907 H 285.295 -1.67187 2.48373 0
M  V30 2908 H 282.841 -0.802909 1.19538 0
M  V30 2909 H 284.794 -3.92064 1.54478 0
M  V30 2910 H 283.518 -3.22515 0.514961 0
M  V30 2911 H 282.177 -2.62334 2.56079 0
M  V30 2912 H 281.825 -4.82378 1.42548 0
M  V30 2913 H 281.525 -4.94278 3.17747 0
M  V30 2914 H 283.049 -5.57449 2.49165 0
M  V30 2915 H 284.463 -3.98873 4.11793 0
M  V30 2916 H 282.86 -3.59561 4.80454 0
M  V30 2917 H 283.93 -2.28404 4.27738 0
M  V30 2918 N 285.273 -1.31445 -0.869486 0
M  V30 2919 C 286.55 -1.11795 -1.60503 0
M  V30 2920 C 286.93 0.327168 -2.08549 0
M  V30 2921 O 286.278 1.32135 -1.8642 0
M  V30 2922 C 286.488 -2.13258 -2.76265 0
M  V30 2923 C 287.836 -2.45805 -3.46215 0
M  V30 2924 O 288.86 -2.11688 -2.86473 0
M  V30 2925 O 287.719 -3.04228 -4.5399 0
M  V30 2926 H 284.813 -0.430421 -0.706163 0
M  V30 2927 H 287.359 -1.42925 -0.914907 0
M  V30 2928 H 286.131 -3.10461 -2.3818 0
M  V30 2929 H 285.754 -1.83035 -3.52964 0
M  V30 2930 N 286.751 1.08385 -1.14413 0
M  V30 2931 C 287.997 1.81044 -0.913834 0
M  V30 2932 C 288.33 1.86004 0.558209 0
M  V30 2933 O 287.605 1.33606 1.4135 0
M  V30 2934 C 287.888 3.26648 -1.51569 0
M  V30 2935 C 287.741 3.29895 -3.0576 0
M  V30 2936 C 289.06 4.23629 -1.19273 0
M  V30 2937 H 286.179 0.65727 -0.333414 0
M  V30 2938 H 288.821 1.26896 -1.41412 0
M  V30 2939 H 286.971 3.72889 -1.09023 0
M  V30 2940 H 288.643 2.91977 -3.57137 0
M  V30 2941 H 286.886 2.69163 -3.40197 0
M  V30 2942 H 287.557 4.32516 -3.42977 0
M  V30 2943 H 290.033 3.85727 -1.56057 0
M  V30 2944 H 288.909 5.23822 -1.64017 0
M  V30 2945 H 289.17 4.41968 -0.108068 0
M  V30 2946 N 288.23 0.939286 1.26551 0
M  V30 2947 C 289.477 0.585847 1.9384 0
M  V30 2948 C 289.805 -0.874784 1.73718 0
M  V30 2949 O 289.06 -1.64092 1.06642 0
M  V30 2950 C 289.359 0.872106 3.46596 0
M  V30 2951 C 289.025 2.31632 3.86856 0
M  V30 2952 C 287.687 2.71111 3.97558 0
M  V30 2953 C 290.039 3.25494 4.07066 0
M  V30 2954 C 287.367 4.03553 4.25866 0
M  V30 2955 C 289.719 4.57531 4.36862 0
M  V30 2956 C 288.383 4.96828 4.45778 0
M  V30 2957 H 287.653 0.214377 0.709312 0
M  V30 2958 H 290.3 1.18544 1.50398 0
M  V30 2959 H 288.605 0.18996 3.91339 0
M  V30 2960 H 290.302 0.577442 3.96821 0
M  V30 2961 H 286.892 2.00008 3.79071 0
M  V30 2962 H 291.076 2.9619 3.98227 0
M  V30 2963 H 286.332 4.33665 4.30981 0
M  V30 2964 H 290.506 5.30254 4.51446 0
M  V30 2965 H 288.133 5.99482 4.67468 0
M  V30 2966 N 289.708 -1.40897 0.706093 0
M  V30 2967 C 290.671 -2.29131 0.0562841 0
M  V30 2968 C 291.671 -1.44901 -0.697166 0
M  V30 2969 O 292.861 -1.65926 -0.530484 0
M  V30 2970 C 289.993 -3.27957 -0.93043 0
M  V30 2971 H 291.186 -2.88091 0.833284 0
M  V30 2972 H 288.739 -1.4906 0.470192 0
M  V30 2973 H 289.474 -2.73997 -1.73482 0
M  V30 2974 H 289.259 -3.90124 -0.393166 0
M  V30 2975 H 290.749 -3.94049 -1.38256 0
M  V30 2976 N 291.186 -0.45159 -1.50991 0
M  V30 2977 C 292.463 0.170707 -1.94854 0
M  V30 2978 C 292.843 1.58788 -1.39103 0
M  V30 2979 O 292.191 2.20913 -0.583921 0
M  V30 2980 C 292.401 0.133929 -3.48743 0
M  V30 2981 C 293.749 0.33248 -4.23296 0
M  V30 2982 O 294.773 0.211403 -3.55572 0
M  V30 2983 O 293.632 0.57486 -5.43468 0
M  V30 2984 H 290.726 0.122264 -0.817912 0
M  V30 2985 H 293.272 -0.510594 -1.61836 0
M  V30 2986 H 292.044 -0.856283 -3.81816 0
M  V30 2987 H 291.667 0.857529 -3.88242 0
M  V30 2988 N 292.664 1.56529 -0.183458 0
M  V30 2989 C 293.574 2.22144 0.754272 0
M  V30 2990 C 294.59 1.21684 1.24374 0
M  V30 2991 O 295.766 1.54385 1.29333 0
M  V30 2992 C 292.831 2.85884 1.96141 0
M  V30 2993 C 291.892 4.01579 1.51765 0
M  V30 2994 C 291.125 4.6227 2.66725 0
M  V30 2995 O 291.348 4.21865 3.83909 0
M  V30 2996 O 290.282 5.51936 2.40104 0
M  V30 2997 H 294.108 3.02861 0.225527 0
M  V30 2998 H 291.693 1.49331 0.0453032 0
M  V30 2999 H 293.575 3.26253 2.66715 0
M  V30 3000 H 292.25 2.08154 2.47899 0
M  V30 3001 H 291.157 3.65856 0.781049 0
M  V30 3002 H 292.49 4.80938 1.04686 0
M  V30 3003 N 294.142 -0.090211 1.57342 0
M  V30 3004 C 295.391 -0.791531 1.8552 0
M  V30 3005 C 295.704 -1.79659 0.773441 0
M  V30 3006 O 296.91 -2.54616 0.942497 0
M  V30 3007 C 295.366 -1.45856 3.2902 0
M  V30 3008 C 294.974 -0.493017 4.45279 0
M  V30 3009 C 296.718 -2.14332 3.66418 0
M  V30 3010 C 294.625 -1.16491 5.79814 0
M  V30 3011 H 293.555 -0.299356 0.692027 0
M  V30 3012 H 296.206 -0.0445343 1.83446 0
M  V30 3013 H 294.588 -2.25318 3.2565 0
M  V30 3014 H 295.762 0.270464 4.60006 0
M  V30 3015 H 294.077 0.0863061 4.16311 0
M  V30 3016 H 296.674 -2.65344 4.64216 0
M  V30 3017 H 297.017 -2.93447 2.95287 0
M  V30 3018 H 297.55 -1.41724 3.71698 0
M  V30 3019 H 294.289 -0.41447 6.54188 0
M  V30 3020 H 293.809 -1.8997 5.68921 0
M  V30 3021 H 295.488 -1.69001 6.24538 0
M  V30 3022 N 295.62 -1.53406 -0.361157 0
M  V30 3023 C 297.036 -1.43277 -0.703124 0
M  V30 3024 C 297.236 -0.575384 -1.9311 0
M  V30 3025 O 296.292 -0.0595362 -2.5243 0
M  V30 3026 C 297.605 -2.8653 -0.9122 0
M  V30 3027 C 299.153 -2.96191 -1.01193 0
M  V30 3028 C 299.628 -4.40514 -1.25345 0
M  V30 3029 N 301.119 -4.43962 -1.32105 0
M  V30 3030 C 301.854 -5.52746 -1.5251 0
M  V30 3031 N 301.35 -6.71567 -1.70203 0
M  V30 3032 N 303.143 -5.40331 -1.54916 0
M  V30 3033 H 295.294 -2.07654 0.446475 0
M  V30 3034 H 297.557 -0.937944 0.137715 0
M  V30 3035 H 297.263 -3.51605 -0.0816414 0
M  V30 3036 H 297.137 -3.30441 -1.81903 0
M  V30 3037 H 299.524 -2.31266 -1.83303 0
M  V30 3038 H 299.605 -2.55667 -0.0823929 0
M  V30 3039 H 299.249 -5.06014 -0.437346 0
M  V30 3040 H 299.179 -4.78614 -2.19627 0
M  V30 3041 H 301.67 -3.58332 -1.20028 0
M  V30 3042 H 301.983 -7.50241 -1.85359 0
M  V30 3043 H 300.328 -6.74545 -1.67373 0
M  V30 3044 H 303.519 -4.46465 -1.40663 0
M  V30 3045 H 303.692 -6.25173 -1.70477 0
M  V30 3046 N 297.098 0.621204 -1.44841 0
M  V30 3047 C 298.345 1.38055 -1.48145 0
M  V30 3048 C 298.673 1.94143 -0.117867 0
M  V30 3049 O 297.928 1.74713 0.881694 0
M  V30 3050 C 298.227 2.55675 -2.4973 0
M  V30 3051 C 297.893 2.17817 -3.94799 0
M  V30 3052 C 296.555 2.07205 -4.34303 0
M  V30 3053 C 298.907 1.88065 -4.86087 0
M  V30 3054 C 296.235 1.65045 -5.63007 0
M  V30 3055 C 298.587 1.47394 -6.15189 0
M  V30 3056 C 297.251 1.35331 -6.53637 0
M  V30 3057 H 296.521 0.505181 -0.542101 0
M  V30 3058 H 299.168 0.703477 -1.78111 0
M  V30 3059 H 297.473 3.2866 -2.13284 0
M  V30 3060 H 299.17 3.13904 -2.4953 0
M  V30 3061 H 295.76 2.26998 -3.63552 0
M  V30 3062 H 299.944 1.95168 -4.56315 0
M  V30 3063 H 295.2 1.54317 -5.91605 0
M  V30 3064 H 299.374 1.23415 -6.85377 0
M  V30 3065 H 297.001 1.02435 -7.53267 0
M  V30 3066 N 298.576 1.31904 0.862503 0
M  V30 3067 C 299.806 1.24817 1.64634 0
M  V30 3068 C 300.214 -0.187579 1.88268 0
M  V30 3069 O 299.557 -1.13253 1.44635 0
M  V30 3070 C 299.619 1.92996 3.03303 0
M  V30 3071 C 299.283 3.42336 3.02746 0
M  V30 3072 C 300.28 4.37956 2.80162 0
M  V30 3073 C 297.965 3.84147 3.2363 0
M  V30 3074 C 299.959 5.73361 2.78453 0
M  V30 3075 C 297.646 5.19663 3.21549 0
M  V30 3076 C 298.644 6.14081 2.98988 0
M  V30 3077 O 298.332 7.47118 2.96766 0
M  V30 3078 H 298.064 0.432222 0.519769 0
M  V30 3079 H 300.618 1.7445 1.08427 0
M  V30 3080 H 298.848 1.37922 3.61268 0
M  V30 3081 H 300.537 1.79723 3.63943 0
M  V30 3082 H 301.303 4.06981 2.63802 0
M  V30 3083 H 297.182 3.11083 3.40218 0
M  V30 3084 H 300.726 6.4703 2.60763 0
M  V30 3085 H 296.623 5.5027 3.37451 0
M  V30 3086 H 297.391 7.56382 3.12775 0
M  V30 3087 N 300.054 -1.07777 1.14986 0
M  V30 3088 C 300.986 -2.14769 0.800436 0
M  V30 3089 C 301.999 -1.61739 -0.185595 0
M  V30 3090 O 303.188 -1.78462 0.0370358 0
M  V30 3091 C 300.288 -3.38481 0.168533 0
M  V30 3092 C 299.461 -4.20876 1.1909 0
M  V30 3093 C 298.52 -5.22976 0.581575 0
M  V30 3094 O 297.546 -5.55388 1.24633 0
M  V30 3095 N 298.748 -5.76976 -0.638706 0
M  V30 3096 H 301.513 -2.45348 1.72118 0
M  V30 3097 H 299.074 -1.23645 1.04515 0
M  V30 3098 H 301.066 -4.03916 -0.251764 0
M  V30 3099 H 299.636 -3.05651 -0.655467 0
M  V30 3100 H 298.856 -3.51322 1.78791 0
M  V30 3101 H 300.144 -4.7274 1.88133 0
M  V30 3102 H 299.542 -5.52886 -1.19723 0
M  V30 3103 H 298.099 -6.44061 -1.00142 0
M  V30 3104 N 301.532 -0.945985 -1.26051 0
M  V30 3105 C 302.462 -0.477172 -2.28572 0
M  V30 3106 C 303.443 0.472032 -1.63419 0
M  V30 3107 O 304.628 0.372853 -1.90587 0
M  V30 3108 C 301.758 0.253975 -3.4637 0
M  V30 3109 C 300.712 -0.609135 -4.23643 0
M  V30 3110 C 300.038 0.252252 -5.34105 0
M  V30 3111 C 301.338 -1.8829 -4.8718 0
M  V30 3112 H 303.032 -1.33402 -2.68038 0
M  V30 3113 H 300.578 -0.642904 -1.28852 0
M  V30 3114 H 302.531 0.593016 -4.17207 0
M  V30 3115 H 301.255 1.145 -3.05871 0
M  V30 3116 H 299.914 -0.931138 -3.54578 0
M  V30 3117 H 299.562 1.14278 -4.89846 0
M  V30 3118 H 299.262 -0.32188 -5.86718 0
M  V30 3119 H 300.786 0.586454 -6.07777 0
M  V30 3120 H 302.2 -1.61081 -5.50205 0
M  V30 3121 H 300.597 -2.40199 -5.49931 0
M  V30 3122 H 301.667 -2.59134 -4.09851 0
M  V30 3123 N 303.011 1.40521 -0.713556 0
M  V30 3124 C 304.259 2.00527 -0.251692 0
M  V30 3125 C 304.58 1.56857 1.15848 0
M  V30 3126 O 303.85 0.807127 1.785 0
M  V30 3127 H 302.43 0.741551 -0.0900646 0
M  V30 3128 H 305.092 1.71887 -0.918733 0
M  V30 3129 H 304.188 3.10813 -0.283192 0
M  V30 3130 N 304.489 0.459591 1.5075 0
M  V30 3131 C 305.766 -0.160371 1.94941 0
M  V30 3132 C 306.146 -1.58048 1.39943 0
M  V30 3133 O 305.494 -2.206 0.595629 0
M  V30 3134 C 305.704 -0.115432 3.48809 0
M  V30 3135 C 307.052 -0.310026 4.23467 0
M  V30 3136 O 308.076 -0.192543 3.55679 0
M  V30 3137 O 306.935 -0.546031 5.43765 0
M  V30 3138 H 304.029 -0.117925 0.818549 0
M  V30 3139 H 306.575 0.519169 1.61563 0
M  V30 3140 H 305.347 0.87652 3.81357 0
M  V30 3141 H 304.97 -0.836928 3.88692 0
M  V30 3142 N 305.967 -1.56429 0.191757 0
M  V30 3143 C 306.877 -2.22541 -0.742481 0
M  V30 3144 C 307.893 -1.22342 -1.23727 0
M  V30 3145 O 309.069 -1.55069 -1.28513 0
M  V30 3146 C 306.134 -2.8692 -1.94623 0
M  V30 3147 C 305.195 -4.02378 -1.49633 0
M  V30 3148 C 304.428 -4.63678 -2.6427 0
M  V30 3149 O 304.651 -4.23895 -3.81666 0
M  V30 3150 O 303.585 -5.53202 -2.37174 0
M  V30 3151 H 307.411 -3.02977 -0.209462 0
M  V30 3152 H 304.996 -1.49353 -0.0373832 0
M  V30 3153 H 306.878 -3.27663 -2.64982 0
M  V30 3154 H 305.553 -2.09466 -2.46791 0
M  V30 3155 H 304.46 -3.66265 -0.761636 0
M  V30 3156 H 305.793 -4.81487 -1.02134 0
M  V30 3157 N 307.445 0.0818655 -1.57387 0
M  V30 3158 C 308.408 1.08265 -2.02018 0
M  V30 3159 C 309.408 1.32183 -0.915664 0
M  V30 3160 O 310.598 1.28073 -1.18081 0
M  V30 3161 C 307.73 2.42871 -2.39221 0
M  V30 3162 H 308.923 0.698204 -2.91659 0
M  V30 3163 H 306.476 0.327303 -1.52835 0
M  V30 3164 H 307.211 2.86167 -1.52575 0
M  V30 3165 H 306.996 2.26855 -3.19811 0
M  V30 3166 H 308.486 3.14826 -2.74362 0
M  V30 3167 N 308.923 1.53595 0.353017 0
M  V30 3168 C 309.856 1.7572 1.45594 0
M  V30 3169 C 310.834 0.605961 1.50887 0
M  V30 3170 O 312.018 0.840023 1.68748 0
M  V30 3171 C 309.145 1.84732 2.83887 0
M  V30 3172 C 308.191 3.06808 2.96262 0
M  V30 3173 S 309.024 4.66065 2.63711 0
M  V30 3174 C 310.18 4.77943 4.04131 0
M  V30 3175 H 310.413 2.68994 1.26608 0
M  V30 3176 H 307.946 1.44343 0.548117 0
M  V30 3177 H 309.904 1.9061 3.63563 0
M  V30 3178 H 308.565 0.92488 3.00175 0
M  V30 3179 H 307.758 3.09761 3.97573 0
M  V30 3180 H 307.36 2.99108 2.24523 0
M  V30 3181 H 309.652 4.5877 4.98534 0
M  V30 3182 H 310.595 5.80022 4.06177 0
M  V30 3183 H 311.003 4.06472 3.91715 0
M  V30 3184 N 310.401 -0.613514 1.45168 0
M  V30 3185 C 311.311 -1.75296 1.55912 0
M  V30 3186 C 312.327 -1.68244 0.443856 0
M  V30 3187 O 313.503 -1.88706 0.70371 0
M  V30 3188 C 310.568 -3.1174 1.5172 0
M  V30 3189 C 309.629 -3.30291 2.74238 0
M  V30 3190 C 308.862 -4.60226 2.70236 0
M  V30 3191 O 309.085 -5.42168 1.77229 0
M  V30 3192 O 308.019 -4.81361 3.61352 0
M  V30 3193 H 311.845 -1.69183 2.52212 0
M  V30 3194 H 309.43 -0.776886 1.27612 0
M  V30 3195 H 311.312 -3.93044 1.51968 0
M  V30 3196 H 309.987 -3.18357 0.585697 0
M  V30 3197 H 308.894 -2.48598 2.79553 0
M  V30 3198 H 310.227 -3.28547 3.66494 0
M  V30 3199 N 311.879 -1.3236 -0.855495 0
M  V30 3200 C 313.295 -1.11332 -1.14356 0
M  V30 3201 C 313.495 0.106751 -2.01217 0
M  V30 3202 O 312.551 0.791891 -2.39761 0
M  V30 3203 C 313.864 -2.39237 -1.82171 0
M  V30 3204 C 315.412 -2.44986 -1.9481 0
M  V30 3205 C 315.887 -3.7281 -2.66039 0
M  V30 3206 N 317.378 -3.73787 -2.73565 0
M  V30 3207 C 318.113 -4.69394 -3.29327 0
M  V30 3208 N 317.609 -5.75367 -3.85907 0
M  V30 3209 N 319.402 -4.56893 -3.27423 0
M  V30 3210 H 311.553 -2.10586 -0.277027 0
M  V30 3211 H 313.816 -0.929701 -0.185364 0
M  V30 3212 H 313.522 -3.28431 -1.25802 0
M  V30 3213 H 313.396 -2.50134 -2.82335 0
M  V30 3214 H 315.783 -1.56252 -2.50338 0
M  V30 3215 H 315.864 -2.38043 -0.936448 0
M  V30 3216 H 315.508 -4.61918 -2.11174 0
M  V30 3217 H 315.438 -3.77024 -3.67642 0
M  V30 3218 H 317.929 -2.97189 -2.33424 0
M  V30 3219 H 318.242 -6.44378 -4.26611 0
M  V30 3220 H 316.587 -5.79123 -3.84242 0
M  V30 3221 H 319.778 -3.73269 -2.82467 0
M  V30 3222 H 319.951 -5.31577 -3.7058 0
M  V30 3223 N 313.357 1.07166 -1.15556 0
M  V30 3224 C 314.604 1.79798 -0.931604 0
M  V30 3225 C 314.932 1.8682 0.54115 0
M  V30 3226 O 314.187 1.34942 1.41736 0
M  V30 3227 C 314.486 3.24707 -1.49332 0
M  V30 3228 C 314.152 3.37781 -2.98688 0
M  V30 3229 C 312.814 3.41057 -3.39461 0
M  V30 3230 C 315.166 3.40424 -3.94665 0
M  V30 3231 C 312.494 3.4458 -4.74849 0
M  V30 3232 C 314.846 3.45485 -5.29927 0
M  V30 3233 C 313.51 3.47039 -5.70193 0
M  V30 3234 H 312.78 0.657928 -0.340898 0
M  V30 3235 H 315.427 1.26091 -1.44129 0
M  V30 3236 H 313.732 3.81208 -0.904859 0
M  V30 3237 H 315.429 3.79486 -1.29582 0
M  V30 3238 H 312.019 3.35932 -2.66172 0
M  V30 3239 H 316.203 3.37113 -3.64237 0
M  V30 3240 H 311.459 3.44083 -5.05388 0
M  V30 3241 H 315.633 3.46476 -6.04092 0
M  V30 3242 H 313.26 3.49522 -6.75084 0
M  V30 3243 N 314.835 0.952656 1.25548 0
M  V30 3244 C 316.251 0.656769 1.4546 0
M  V30 3245 C 316.451 -0.78633 1.85524 0
M  V30 3246 O 315.507 -1.56183 1.98402 0
M  V30 3247 C 316.82 1.62801 2.52817 0
M  V30 3248 C 318.368 1.63897 2.66659 0
M  V30 3249 C 318.843 2.5978 3.77198 0
M  V30 3250 N 320.334 2.58133 3.84606 0
M  V30 3251 C 321.069 3.29003 4.69621 0
M  V30 3252 N 320.565 4.09339 5.58939 0
M  V30 3253 N 322.358 3.179 4.63569 0
M  V30 3254 H 314.509 1.88526 0.978344 0
M  V30 3255 H 316.772 0.810815 0.491206 0
M  V30 3256 H 316.478 2.65869 2.30232 0
M  V30 3257 H 316.352 1.38898 3.50695 0
M  V30 3258 H 318.739 0.615481 2.8861 0
M  V30 3259 H 318.82 1.91858 1.69187 0
M  V30 3260 H 318.464 3.62254 3.55997 0
M  V30 3261 H 318.394 2.29105 4.7415 0
M  V30 3262 H 320.885 1.99809 3.20757 0
M  V30 3263 H 321.198 4.6034 6.20731 0
M  V30 3264 H 319.543 4.13438 5.58654 0
M  V30 3265 H 322.734 2.54612 3.92798 0
M  V30 3266 H 322.907 3.73398 5.29602 0
M  V30 3267 N 316.313 -1.40141 0.720998 0
M  V30 3268 C 317.223 -2.34486 0.0731031 0
M  V30 3269 C 318.239 -1.57587 -0.737723 0
M  V30 3270 O 319.415 -1.89949 -0.669429 0
M  V30 3271 C 316.48 -3.36528 -0.833656 0
M  V30 3272 C 315.541 -4.29298 -0.0121673 0
M  V30 3273 C 314.774 -5.26466 -0.875742 0
M  V30 3274 O 314.997 -5.29745 -2.11485 0
M  V30 3275 O 313.931 -6.01092 -0.31185 0
M  V30 3276 H 317.757 -2.9152 0.851444 0
M  V30 3277 H 315.342 -1.41427 0.481527 0
M  V30 3278 H 317.224 -3.99093 -1.35289 0
M  V30 3279 H 315.899 -2.81899 -1.59105 0
M  V30 3280 H 314.806 -3.70001 0.552262 0
M  V30 3281 H 316.139 -4.87094 0.707129 0
M  V30 3282 N 317.792 -0.46758 -1.50504 0
M  V30 3283 C 319.069 0.15003 -1.95024 0
M  V30 3284 C 319.449 1.57304 -1.40779 0
M  V30 3285 O 318.797 2.20281 -0.607319 0
M  V30 3286 C 319.007 0.0969324 -3.48865 0
M  V30 3287 C 320.355 0.287565 -4.23625 0
M  V30 3288 O 321.379 0.173678 -3.55776 0
M  V30 3289 O 320.238 0.517186 -5.44047 0
M  V30 3290 H 317.332 0.113582 -0.819163 0
M  V30 3291 H 319.878 -0.52773 -1.61286 0
M  V30 3292 H 318.65 -0.896732 -3.80886 0
M  V30 3293 H 318.273 0.816303 -3.8913 0
M  V30 3294 N 319.27 1.56325 -0.20005 0
M  V30 3295 C 320.18 2.22931 0.730668 0
M  V30 3296 C 321.196 1.22997 1.23076 0
M  V30 3297 O 322.372 1.55748 1.27689 0
M  V30 3298 C 319.437 2.87948 1.93098 0
M  V30 3299 C 318.498 4.03166 1.47497 0
M  V30 3300 C 317.731 4.65073 2.61807 0
M  V30 3301 O 317.954 4.25913 3.79413 0
M  V30 3302 O 316.888 5.54452 2.34237 0
M  V30 3303 H 320.714 3.03084 0.193391 0
M  V30 3304 H 318.299 1.49371 0.0294621 0
M  V30 3305 H 320.181 3.29063 2.6324 0
M  V30 3306 H 318.856 2.10771 2.45677 0
M  V30 3307 H 317.763 3.66664 0.742201 0
M  V30 3308 H 319.096 4.82022 0.995796 0
M  V30 3309 N 320.748 -0.0735177 1.57428 0
M  V30 3310 C 321.996 -0.771472 1.86796 0
M  V30 3311 C 322.317 -1.78201 0.791804 0
M  V30 3312 O 321.587 -1.95074 -0.179718 0
M  V30 3313 H 320.167 -0.28791 0.689287 0
M  V30 3314 H 322.829 -0.0500161 1.94836 0
M  V30 3315 H 321.925 -1.28874 2.8425 0
M  V30 3316 N 322.226 -1.5378 -0.344866 0
M  V30 3317 C 323.473 -1.70963 -1.08526 0
M  V30 3318 C 323.801 -0.472126 -1.88683 0
M  V30 3319 O 323.056 0.546116 -1.87926 0
M  V30 3320 C 323.355 -2.92407 -2.05506 0
M  V30 3321 C 323.021 -4.28066 -1.41671 0
M  V30 3322 C 321.683 -4.64951 -1.2399 0
M  V30 3323 C 324.035 -5.12344 -0.956726 0
M  V30 3324 C 321.363 -5.83733 -0.589277 0
M  V30 3325 C 323.715 -6.3179 -0.320015 0
M  V30 3326 C 322.379 -6.67372 -0.130881 0
M  V30 3327 H 321.649 -0.625598 -0.397124 0
M  V30 3328 H 324.296 -1.87995 -0.36469 0
M  V30 3329 H 322.601 -2.69973 -2.8394 0
M  V30 3330 H 324.298 -3.02895 -2.62784 0
M  V30 3331 H 320.888 -3.99034 -1.56429 0
M  V30 3332 H 325.072 -4.8438 -1.08118 0
M  V30 3333 H 320.328 -6.09877 -0.431344 0
M  V30 3334 H 324.502 -6.96386 0.0445072 0
M  V30 3335 H 322.129 -7.59273 0.375318 0
M  V30 3336 N 323.704 0.605807 -1.45491 0
M  V30 3337 C 324.953 1.36086 -1.48874 0
M  V30 3338 C 325.266 1.95131 -0.135333 0
M  V30 3339 O 326.472 2.7146 -0.0468144 0
M  V30 3340 C 324.928 2.46518 -2.62215 0
M  V30 3341 C 324.536 1.93877 -4.03876 0
M  V30 3342 C 326.28 3.23512 -2.74846 0
M  V30 3343 C 324.187 3.01801 -5.08596 0
M  V30 3344 H 323.117 0.511497 -0.553974 0
M  V30 3345 H 325.768 0.649089 -1.71636 0
M  V30 3346 H 324.15 3.20388 -2.32739 0
M  V30 3347 H 325.324 1.26704 -4.43038 0
M  V30 3348 H 323.639 1.29622 -3.95711 0
M  V30 3349 H 326.236 4.04013 -3.50253 0
M  V30 3350 H 326.579 3.74631 -1.81542 0
M  V30 3351 H 327.112 2.56742 -3.03856 0
M  V30 3352 H 323.851 2.55597 -6.03614 0
M  V30 3353 H 323.371 3.67535 -4.74002 0
M  V30 3354 H 325.05 3.66152 -5.33424 0
M  V30 3355 N 325.182 1.32811 0.848464 0
M  V30 3356 C 326.129 1.22265 1.95755 0
M  V30 3357 C 327.099 0.103413 1.65778 0
M  V30 3358 O 328.284 0.280033 1.88734 0
M  V30 3359 C 325.424 0.958014 3.31536 0
M  V30 3360 C 324.537 2.16262 3.73971 0
M  V30 3361 C 323.672 1.83295 4.98575 0
M  V30 3362 C 322.711 3.00041 5.33518 0
M  V30 3363 N 321.848 2.67125 6.49299 0
M  V30 3364 H 326.688 2.17128 2.04107 0
M  V30 3365 H 324.225 1.07982 0.998913 0
M  V30 3366 H 326.183 0.785052 4.09747 0
M  V30 3367 H 324.813 0.046159 3.22767 0
M  V30 3368 H 323.865 2.44565 2.91362 0
M  V30 3369 H 325.177 3.03572 3.95785 0
M  V30 3370 H 324.331 1.62586 5.84509 0
M  V30 3371 H 323.07 0.932078 4.7871 0
M  V30 3372 H 322.075 3.21374 4.46093 0
M  V30 3373 H 323.3 3.90869 5.55336 0
M  V30 3374 H 321.246 1.79586 6.3094 0
M  V30 3375 H 321.163 3.47965 6.71161 0
M  V30 3376 H 322.431 2.49861 7.3837 0
M  V30 3377 N 326.66 -1.06551 1.16123 0
M  V30 3378 C 327.57 -2.17484 0.879662 0
M  V30 3379 C 328.586 -1.73377 -0.147104 0
M  V30 3380 O 329.762 -2.01379 0.0289128 0
M  V30 3381 C 326.827 -3.44591 0.381829 0
M  V30 3382 C 325.888 -4.0322 1.4735 0
M  V30 3383 C 325.121 -5.24261 0.999324 0
M  V30 3384 O 325.344 -5.70198 -0.151957 0
M  V30 3385 O 324.278 -5.74775 1.78653 0
M  V30 3386 H 328.104 -2.44075 1.80724 0
M  V30 3387 H 325.689 -1.16042 0.940992 0
M  V30 3388 H 327.571 -4.21254 0.111053 0
M  V30 3389 H 326.246 -3.19532 -0.51777 0
M  V30 3390 H 325.153 -3.2806 1.79798 0
M  V30 3391 H 326.486 -4.32568 2.34831 0
M  V30 3392 N 328.138 -0.959301 -1.25041 0
M  V30 3393 C 329.048 -0.489994 -2.29426 0
M  V30 3394 C 330.064 0.444944 -1.68215 0
M  V30 3395 O 331.24 0.320046 -1.98841 0
M  V30 3396 C 328.305 0.220309 -3.45999 0
M  V30 3397 C 327.366 -0.753418 -4.22637 0
M  V30 3398 C 326.599 -0.076918 -5.33645 0
M  V30 3399 O 326.822 1.13649 -5.58963 0
M  V30 3400 O 325.756 -0.764824 -5.97021 0
M  V30 3401 H 329.582 -1.35755 -2.71669 0
M  V30 3402 H 327.167 -0.725961 -1.30576 0
M  V30 3403 H 329.049 0.619677 -4.16819 0
M  V30 3404 H 327.724 1.06296 -3.0575 0
M  V30 3405 H 326.631 -1.20308 -3.54227 0
M  V30 3406 H 327.964 -1.56423 -4.66683 0
M  V30 3407 N 329.616 1.39756 -0.72842 0
M  V30 3408 C 330.526 2.34444 -0.0855374 0
M  V30 3409 C 331.542 1.57976 0.729356 0
M  V30 3410 O 332.718 1.90301 0.659346 0
M  V30 3411 C 329.783 3.36965 0.815798 0
M  V30 3412 C 328.844 4.29299 -0.0105996 0
M  V30 3413 C 328.077 5.26923 0.84781 0
M  V30 3414 O 328.3 5.30859 2.08673 0
M  V30 3415 O 327.234 6.01249 0.279969 0
M  V30 3416 H 331.06 2.91065 -0.866892 0
M  V30 3417 H 328.645 1.4117 -0.48902 0
M  V30 3418 H 330.527 3.99804 1.33171 0
M  V30 3419 H 329.202 2.82739 1.57608 0
M  V30 3420 H 328.109 3.69703 -0.571877 0
M  V30 3421 H 329.442 4.86712 -0.73295 0
M  V30 3422 N 331.094 0.475555 1.50254 0
M  V30 3423 C 332.041 -0.316293 2.28622 0
M  V30 3424 C 333.011 -0.983227 1.33873 0
M  V30 3425 O 334.196 -0.994805 1.62814 0
M  V30 3426 C 331.336 -1.38975 3.1588 0
M  V30 3427 C 330.449 -0.737146 4.25664 0
M  V30 3428 C 329.584 -1.78887 5.00173 0
M  V30 3429 C 328.623 -1.11676 6.01826 0
M  V30 3430 N 327.76 -2.11154 6.69596 0
M  V30 3431 H 332.6 0.358297 2.95838 0
M  V30 3432 H 330.137 0.188541 1.45887 0
M  V30 3433 H 332.095 -2.02383 3.64825 0
M  V30 3434 H 330.725 -2.03344 2.50701 0
M  V30 3435 H 329.777 0.0096065 3.80399 0
M  V30 3436 H 331.089 -0.206816 4.98371 0
M  V30 3437 H 330.243 -2.49865 5.52859 0
M  V30 3438 H 328.982 -2.35302 4.27182 0
M  V30 3439 H 327.987 -0.392633 5.48396 0
M  V30 3440 H 329.212 -0.55945 6.76792 0
M  V30 3441 H 327.158 -2.66577 5.99394 0
M  V30 3442 H 327.075 -1.63118 7.38193 0
M  V30 3443 H 328.343 -2.81497 7.26897 0
M  V30 3444 N 332.573 -1.56217 0.208337 0
M  V30 3445 C 333.984 -1.84243 -0.301904 0
M  V30 3446 C 334.335 -1.12939 -1.60434 0
M  V30 3447 O 333.46 -0.39461 -2.12772 0
M  V30 3448 C 334.055 -3.34231 -0.554543 0
M  V30 3449 C 332.614 -3.62621 -1.00912 0
M  V30 3450 C 331.761 -2.77224 -0.064933 0
M  V30 3451 H 334.712 -1.52712 0.431833 0
M  V30 3452 H 334.733 -3.5372 -1.40223 0
M  V30 3453 H 334.245 -3.86099 0.393561 0
M  V30 3454 H 332.346 -3.16197 -1.97104 0
M  V30 3455 H 332.459 -4.7071 -0.892674 0
M  V30 3456 H 330.823 -2.48256 -0.56929 0
M  V30 3457 H 331.606 -3.31887 0.877851 0
M  V30 3458 N 334.051 0.0651679 -1.57465 0
M  V30 3459 C 334.981 1.07693 -2.07182 0
M  V30 3460 C 335.962 1.39962 -0.966673 0
M  V30 3461 O 337.147 1.49475 -1.2398 0
M  V30 3462 C 334.277 2.3885 -2.52127 0
M  V30 3463 C 333.231 2.20917 -3.66579 0
M  V30 3464 C 332.557 3.57515 -3.97601 0
M  V30 3465 C 333.857 1.62493 -4.9638 0
M  V30 3466 H 335.551 0.663199 -2.91962 0
M  V30 3467 H 333.097 0.317569 -1.40455 0
M  V30 3468 H 335.05 3.09928 -2.85522 0
M  V30 3469 H 333.774 2.82215 -1.64384 0
M  V30 3470 H 332.433 1.52279 -3.33477 0
M  V30 3471 H 332.081 3.98463 -3.06979 0
M  V30 3472 H 331.781 3.46353 -4.74672 0
M  V30 3473 H 333.305 4.30013 -4.33499 0
M  V30 3474 H 334.719 2.23445 -5.27963 0
M  V30 3475 H 333.116 1.62009 -5.77818 0
M  V30 3476 H 334.186 0.587041 -4.81333 0
M  V30 3477 N 335.529 1.53961 0.336706 0
M  V30 3478 C 336.94 1.62914 0.911925 0
M  V30 3479 C 337.291 0.514795 1.89326 0
M  V30 3480 O 336.416 -0.354395 2.13478 0
M  V30 3481 C 337.011 2.95304 1.66076 0
M  V30 3482 C 335.57 3.06496 2.18489 0
M  V30 3483 C 334.717 2.58403 1.00613 0
M  V30 3484 H 337.668 1.58285 0.114649 0
M  V30 3485 H 337.689 2.84727 2.5241 0
M  V30 3486 H 337.201 3.76387 0.946276 0
M  V30 3487 H 335.302 2.3006 2.93092 0
M  V30 3488 H 335.415 4.1208 2.44391 0
M  V30 3489 H 333.779 2.13977 1.38152 0
M  V30 3490 H 334.562 3.41932 0.306179 0
M  V30 3491 N 337.007 -0.598083 1.45811 0
M  V30 3492 C 338.423 -0.919847 1.30426 0
M  V30 3493 C 338.623 -1.99759 0.264303 0
M  V30 3494 O 337.679 -2.50221 -0.338472 0
M  V30 3495 C 338.992 -1.35176 2.68603 0
M  V30 3496 C 340.54 -1.46546 2.76574 0
M  V30 3497 C 341.015 -1.9311 4.15298 0
M  V30 3498 N 342.506 -2.00328 4.1764 0
M  V30 3499 C 343.241 -2.37599 5.21856 0
M  V30 3500 N 342.737 -2.73771 6.36413 0
M  V30 3501 N 344.53 -2.38021 5.09218 0
M  V30 3502 H 336.681 0.114111 2.12093 0
M  V30 3503 H 338.944 -0.0116121 0.947929 0
M  V30 3504 H 338.65 -0.633969 3.45939 0
M  V30 3505 H 338.524 -2.3164 2.97696 0
M  V30 3506 H 340.911 -2.17415 1.99537 0
M  V30 3507 H 340.992 -0.483727 2.51185 0
M  V30 3508 H 340.636 -1.22824 4.92825 0
M  V30 3509 H 340.566 -2.92213 4.38086 0
M  V30 3510 H 343.057 -1.74925 3.34977 0
M  V30 3511 H 343.37 -3.0112 7.11721 0
M  V30 3512 H 341.715 -2.71445 6.39799 0
M  V30 3513 H 344.906 -2.09174 4.18765 0
M  V30 3514 H 345.079 -2.66741 5.90554 0
M  V30 3515 N 338.485 -1.33259 -0.841409 0
M  V30 3516 C 339.433 -1.23279 -1.97244 0
M  V30 3517 C 340.427 -0.134706 -1.68864 0
M  V30 3518 O 341.633 -0.298501 -1.77508 0
M  V30 3519 H 338.008 -0.382497 -0.647457 0
M  V30 3520 H 339.979 -2.18906 -2.02787 0
M  V30 3521 C 338.728 -0.986268 -3.33419 0
M  V30 3522 H 338.051 -1.82347 -3.55794 0
M  V30 3523 H 339.491 -0.956728 -4.13065 0
M  V30 3524 C 337.95 0.310842 -3.35463 0
M  V30 3525 O 338.48 1.31838 -3.79449 0
M  V30 3526 N 336.686 0.337485 -2.88634 0
M  V30 3527 H 336.233 -0.482967 -2.53032 0
M  V30 3528 H 336.191 1.20518 -2.90384 0
M  V30 3529 N 339.963 1.05934 -1.16686 0
M  V30 3530 C 340.873 2.17014 -0.891183 0
M  V30 3531 C 341.889 1.73453 0.137907 0
M  V30 3532 O 343.065 2.01361 -0.039592 0
M  V30 3533 C 340.13 3.44384 -0.400099 0
M  V30 3534 C 339.191 4.02433 -1.49486 0
M  V30 3535 C 338.424 5.23723 -1.02711 0
M  V30 3536 O 338.647 5.7027 0.121716 0
M  V30 3537 O 337.581 5.7382 -1.81699 0
M  V30 3538 H 341.407 2.43113 -1.82015 0
M  V30 3539 H 338.992 1.15541 -0.947132 0
M  V30 3540 H 340.874 4.21189 -0.133392 0
M  V30 3541 H 339.549 3.19802 0.500817 0
M  V30 3542 H 338.456 3.27102 -1.81535 0
M  V30 3543 H 339.789 4.31317 -2.37121 0
M  V30 3544 N 341.441 0.965919 1.2453 0
M  V30 3545 C 342.688 0.626831 1.92554 0
M  V30 3546 C 343.016 -0.837739 1.75534 0
M  V30 3547 O 342.271 -1.61793 1.10098 0
M  V30 3548 C 342.57 0.945428 3.44669 0
M  V30 3549 C 342.236 2.39785 3.81856 0
M  V30 3550 C 340.898 2.79483 3.91718 0
M  V30 3551 C 343.25 3.34055 4.00071 0
M  V30 3552 C 340.578 4.12496 4.1721 0
M  V30 3553 C 342.93 4.66694 4.27059 0
M  V30 3554 C 341.594 5.06172 4.3514 0
M  V30 3555 H 340.864 0.229374 0.704605 0
M  V30 3556 H 343.511 1.21707 1.4785 0
M  V30 3557 H 341.816 0.272926 3.90848 0
M  V30 3558 H 343.513 0.661484 3.95507 0
M  V30 3559 H 340.103 2.08003 3.74743 0
M  V30 3560 H 344.287 3.04571 3.91855 0
M  V30 3561 H 339.543 4.42709 4.21685 0
M  V30 3562 H 343.717 5.3971 4.40097 0
M  V30 3563 H 341.344 6.09262 4.54646 0
M  V30 3564 N 342.919 -1.39368 0.735821 0
M  V30 3565 C 343.851 -2.2913 0.0567723 0
M  V30 3566 C 344.864 -1.46859 -0.702589 0
M  V30 3567 O 346.053 -1.69925 -0.546616 0
M  V30 3568 C 343.153 -3.25492 -0.943823 0
M  V30 3569 C 342.326 -4.36709 -0.24581 0
M  V30 3570 C 341.385 -5.13376 -1.15463 0
M  V30 3571 O 340.411 -5.65683 -0.631803 0
M  V30 3572 N 341.613 -5.24656 -2.48427 0
M  V30 3573 H 344.378 -2.88047 0.827582 0
M  V30 3574 H 341.939 -1.50957 0.585112 0
M  V30 3575 H 343.931 -3.73657 -1.55443 0
M  V30 3576 H 342.501 -2.676 -1.61583 0
M  V30 3577 H 341.721 -3.9041 0.545286 0
M  V30 3578 H 343.009 -5.08244 0.237891 0
M  V30 3579 H 342.407 -4.83679 -2.93379 0
M  V30 3580 H 340.964 -5.76258 -3.04582 0
M  V30 3581 N 344.397 -0.483516 -1.5 0
M  V30 3582 C 345.813 -0.138404 -1.58999 0
M  V30 3583 C 346.013 1.35597 -1.4905 0
M  V30 3584 O 345.069 2.13039 -1.35539 0
M  V30 3585 C 346.382 -0.699658 -2.92447 0
M  V30 3586 C 347.93 -0.664195 -3.05872 0
M  V30 3587 C 348.405 -1.20321 -4.41913 0
M  V30 3588 N 349.896 -1.16315 -4.48358 0
M  V30 3589 C 350.631 -1.55058 -5.52037 0
M  V30 3590 N 350.127 -2.01311 -6.62907 0
M  V30 3591 N 351.92 -1.46584 -5.42651 0
M  V30 3592 H 344.071 -1.45529 -1.5471 0
M  V30 3593 H 346.334 -0.60258 -0.731848 0
M  V30 3594 H 346.04 -1.747 -3.05242 0
M  V30 3595 H 345.914 -0.150194 -3.76901 0
M  V30 3596 H 348.301 0.374272 -2.92717 0
M  V30 3597 H 348.382 -1.25061 -2.23144 0
M  V30 3598 H 348.026 -2.24037 -4.55818 0
M  V30 3599 H 347.956 -0.592896 -5.23252 0
M  V30 3600 H 350.447 -0.824058 -3.68806 0
M  V30 3601 H 350.76 -2.2899 -7.38095 0
M  V30 3602 H 349.105 -2.05273 -6.63994 0
M  V30 3603 H 352.296 -1.10281 -4.54924 0
M  V30 3604 H 352.469 -1.77103 -6.23329 0
M  V30 3605 N 345.875 1.56104 -0.216619 0
M  V30 3606 C 346.807 2.17339 0.72776 0
M  V30 3607 C 347.82 1.14109 1.16116 0
M  V30 3608 O 349.009 1.4111 1.09317 0
M  V30 3609 C 346.109 2.73818 1.99693 0
M  V30 3610 C 345.282 4.02168 1.71988 0
M  V30 3611 C 344.341 4.43259 2.83562 0
M  V30 3612 O 343.367 5.10257 2.52244 0
M  V30 3613 N 344.569 4.08535 4.12407 0
M  V30 3614 H 347.334 2.99005 0.203983 0
M  V30 3615 H 344.895 1.61861 -0.0354289 0
M  V30 3616 H 346.887 2.9828 2.73516 0
M  V30 3617 H 345.457 1.96483 2.43132 0
M  V30 3618 H 344.677 3.85612 0.818337 0
M  V30 3619 H 345.965 4.85907 1.50903 0
M  V30 3620 H 345.363 3.54687 4.40696 0
M  V30 3621 H 343.92 4.37901 4.8279 0
M  V30 3622 N 347.353 -0.0568162 1.57498 0
M  V30 3623 C 348.599 -0.75422 1.88253 0
M  V30 3624 C 348.932 -1.76461 0.810865 0
M  V30 3625 O 348.207 -1.93691 -0.177259 0
M  V30 3626 C 348.49 -1.44878 3.2967 0
M  V30 3627 C 348.343 -0.453789 4.47505 0
M  V30 3628 C 349.662 -2.38994 3.69554 0
M  V30 3629 H 346.781 -0.272724 0.684683 0
M  V30 3630 H 349.423 -0.0172113 1.89992 0
M  V30 3631 H 347.573 -2.077 3.28318 0
M  V30 3632 H 349.245 0.170371 4.60985 0
M  V30 3633 H 347.488 0.229552 4.33192 0
M  V30 3634 H 348.159 -0.977699 5.43273 0
M  V30 3635 H 350.635 -1.86239 3.72095 0
M  V30 3636 H 349.511 -2.84587 4.69363 0
M  V30 3637 H 349.772 -3.24461 3.00296 0
M  V30 3638 N 348.832 -1.54138 -0.328536 0
M  V30 3639 C 350.078 -1.73297 -1.06488 0
M  V30 3640 C 350.433 -0.497958 -1.85844 0
M  V30 3641 O 349.726 0.509591 -1.84699 0
M  V30 3642 C 349.92 -2.9457 -2.02393 0
M  V30 3643 C 349.749 -4.29747 -1.32467 0
M  V30 3644 C 348.519 -4.93987 -1.06324 0
M  V30 3645 C 350.717 -5.08903 -0.743137 0
M  V30 3646 N 348.699 -6.13005 -0.331359 0
M  V30 3647 C 350.07 -6.19836 -0.142602 0
M  V30 3648 C 352.125 -4.93699 -0.64546 0
M  V30 3649 C 350.828 -7.17224 0.546125 0
M  V30 3650 C 352.854 -5.91393 0.0295558 0
M  V30 3651 C 352.216 -7.01674 0.619056 0
M  V30 3652 H 348.315 -0.687017 -0.373539 0
M  V30 3653 H 350.899 -1.91589 -0.346659 0
M  V30 3654 H 349.07 -2.77752 -2.71493 0
M  V30 3655 H 350.802 -3.0238 -2.68977 0
M  V30 3656 H 347.557 -4.53824 -1.35428 0
M  V30 3657 H 347.981 -6.76997 0.0202939 0
M  V30 3658 H 352.623 -4.08589 -1.08695 0
M  V30 3659 H 350.341 -8.01896 0.999459 0
M  V30 3660 H 353.927 -5.81706 0.104705 0
M  V30 3661 H 352.807 -7.75971 1.13309 0
M  V30 3662 N 350.31 0.590341 -1.46126 0
M  V30 3663 C 351.24 1.71032 -1.58966 0
M  V30 3664 C 352.221 1.64302 -0.440335 0
M  V30 3665 O 353.406 1.82436 -0.665634 0
M  V30 3666 C 350.536 3.09665 -1.57241 0
M  V30 3667 C 349.49 3.31221 -2.71066 0
M  V30 3668 C 348.816 4.70303 -2.54399 0
M  V30 3669 C 350.116 3.19796 -4.1295 0
M  V30 3670 H 351.81 1.60543 -2.52718 0
M  V30 3671 H 349.356 0.770933 -1.21625 0
M  V30 3672 H 351.309 3.87831 -1.64819 0
M  V30 3673 H 350.033 3.21036 -0.600289 0
M  V30 3674 H 348.692 2.55452 -2.62944 0
M  V30 3675 H 348.34 4.78429 -1.55288 0
M  V30 3676 H 348.04 4.85679 -3.30741 0
M  V30 3677 H 349.564 5.50647 -2.63857 0
M  V30 3678 H 350.978 3.87815 -4.22223 0
M  V30 3679 H 349.375 3.46696 -4.89818 0
M  V30 3680 H 350.445 2.16983 -4.33643 0
M  V30 3681 N 351.788 1.33704 0.83433 0
M  V30 3682 C 353.037 1.24763 1.58484 0
M  V30 3683 C 353.35 -0.183775 1.94735 0
M  V30 3684 O 354.556 -0.395234 2.68608 0
M  V30 3685 C 353.012 2.18638 2.85876 0
M  V30 3686 C 352.62 3.66974 2.56971 0
M  V30 3687 C 354.364 2.18581 3.63899 0
M  V30 3688 C 352.271 4.5275 3.80488 0
M  V30 3689 H 351.201 0.463425 0.594772 0
M  V30 3690 H 353.852 1.58797 0.919551 0
M  V30 3691 H 352.234 1.77542 3.5397 0
M  V30 3692 H 353.408 4.16538 1.9706 0
M  V30 3693 H 351.723 3.69366 1.92244 0
M  V30 3694 H 354.32 2.79894 4.55591 0
M  V30 3695 H 354.663 1.18207 3.99165 0
M  V30 3696 H 355.196 2.58062 3.02735 0
M  V30 3697 H 351.935 5.54017 3.5035 0
M  V30 3698 H 351.455 4.07927 4.39722 0
M  V30 3699 H 353.134 4.66784 4.4802 0
M  V30 3700 N 353.266 -1.05314 1.17247 0
M  V30 3701 C 354.513 -1.78293 0.960091 0
M  V30 3702 C 354.841 -1.87658 -0.51136 0
M  V30 3703 O 354.096 -1.3718 -1.39571 0
M  V30 3704 C 354.395 -3.2229 1.54479 0
M  V30 3705 C 354.061 -3.32987 3.04024 0
M  V30 3706 C 352.723 -3.35613 3.44844 0
M  V30 3707 C 355.075 -3.34102 4.00031 0
M  V30 3708 C 352.403 -3.36982 4.8027 0
M  V30 3709 C 354.755 -3.3701 5.35357 0
M  V30 3710 C 353.419 -3.37923 5.75642 0
M  V30 3711 H 352.689 -0.652422 0.351322 0
M  V30 3712 H 355.336 -1.23782 1.46117 0
M  V30 3713 H 353.641 -3.7972 0.965391 0
M  V30 3714 H 355.338 -3.77376 1.35603 0
M  V30 3715 H 351.928 -3.31655 2.71483 0
M  V30 3716 H 356.112 -3.31276 3.69554 0
M  V30 3717 H 351.368 -3.35999 5.10798 0
M  V30 3718 H 355.542 -3.36822 6.09528 0
M  V30 3719 H 353.169 -3.38738 6.80559 0
M  V30 3720 N 354.744 -0.972509 -1.24016 0
M  V30 3721 C 355.654 -0.5143 -2.28893 0
M  V30 3722 C 356.67 0.427078 -1.68677 0
M  V30 3723 O 357.846 0.298939 -1.99169 0
M  V30 3724 C 354.911 0.183598 -3.46214 0
M  V30 3725 C 353.972 -0.798202 -4.21814 0
M  V30 3726 C 353.205 -0.133514 -5.33533 0
M  V30 3727 O 353.428 1.07714 -5.60137 0
M  V30 3728 O 352.362 -0.828103 -5.96176 0
M  V30 3729 H 356.188 -1.38629 -2.70214 0
M  V30 3730 H 353.773 -0.739769 -1.29799 0
M  V30 3731 H 355.655 0.575433 -4.17453 0
M  V30 3732 H 354.33 1.03048 -3.0686 0
M  V30 3733 H 353.237 -1.24059 -3.52931 0
M  V30 3734 H 354.57 -1.61364 -4.64997 0
M  V30 3735 N 356.222 1.38976 -0.743202 0
M  V30 3736 C 357.452 2.04339 -0.304807 0
M  V30 3737 C 357.86 1.56162 1.06819 0
M  V30 3738 O 357.203 0.725284 1.68776 0
M  V30 3739 C 357.265 3.58716 -0.237369 0
M  V30 3740 C 356.929 4.29905 -1.55018 0
M  V30 3741 C 357.926 4.55987 -2.49744 0
M  V30 3742 C 355.611 4.68294 -1.81675 0
M  V30 3743 C 357.605 5.19478 -3.69353 0
M  V30 3744 C 355.292 5.31512 -3.0156 0
M  V30 3745 C 356.29 5.57037 -3.9522 0
M  V30 3746 O 355.978 6.18941 -5.12998 0
M  V30 3747 H 355.71 0.663439 -0.12971 0
M  V30 3748 H 358.264 1.78852 -1.01001 0
M  V30 3749 H 356.494 3.83133 0.524003 0
M  V30 3750 H 358.183 4.05543 0.170121 0
M  V30 3751 H 358.949 4.26767 -2.30423 0
M  V30 3752 H 354.828 4.47779 -1.09615 0
M  V30 3753 H 358.372 5.39318 -4.42473 0
M  V30 3754 H 354.269 5.60153 -3.20778 0
M  V30 3755 H 355.037 6.37433 -5.13441 0
M  V30 3756 N 357.7 0.491464 1.49741 0
M  V30 3757 C 359.111 0.0413169 1.86654 0
M  V30 3758 C 359.462 -1.36985 1.40462 0
M  V30 3759 O 358.587 -2.01917 0.778354 0
M  V30 3760 C 359.182 0.0682023 3.38731 0
M  V30 3761 C 357.741 -0.32656 3.74981 0
M  V30 3762 C 356.888 0.444888 2.73708 0
M  V30 3763 H 359.839 0.704733 1.42194 0
M  V30 3764 H 359.86 -0.729322 3.73445 0
M  V30 3765 H 359.372 1.09539 3.72321 0
M  V30 3766 H 357.473 -1.35734 3.46997 0
M  V30 3767 H 357.586 -0.013741 4.79098 0
M  V30 3768 H 355.95 -0.104062 2.54487 0
M  V30 3769 H 356.733 1.47197 3.10142 0
M  V30 3770 N 359.178 -1.55987 0.224894 0
M  V30 3771 C 360.088 -2.24066 -0.69511 0
M  V30 3772 C 361.104 -1.24939 -1.21104 0
M  V30 3773 O 362.28 -1.5776 -1.25195 0
M  V30 3774 C 359.345 -2.90983 -1.88493 0
M  V30 3775 C 358.406 -4.05462 -1.41064 0
M  V30 3776 C 357.639 -4.69179 -2.54375 0
M  V30 3777 O 357.862 -4.31895 -3.72589 0
M  V30 3778 O 356.796 -5.58108 -2.25386 0
M  V30 3779 H 360.622 -3.03353 -0.145149 0
M  V30 3780 H 358.207 -1.49399 -0.00569476 0
M  V30 3781 H 360.089 -3.33209 -2.57972 0
M  V30 3782 H 358.764 -2.14653 -2.42293 0
M  V30 3783 H 357.671 -3.67798 -0.683774 0
M  V30 3784 H 359.004 -4.83545 -0.918985 0
M  V30 3785 N 360.656 0.0484629 -1.57525 0
M  V30 3786 C 361.881 0.759177 -1.93006 0
M  V30 3787 C 362.306 1.69125 -0.823317 0
M  V30 3788 O 361.664 1.79931 0.222364 0
M  V30 3789 C 361.712 1.50899 -3.27509 0
M  V30 3790 O 360.816 2.62112 -3.18388 0
M  V30 3791 H 360.157 0.205564 -0.631379 0
M  V30 3792 H 362.687 0.00972959 -2.04598 0
M  V30 3793 H 362.697 1.88317 -3.6194 0
M  V30 3794 H 361.372 0.825269 -4.0763 0
M  V30 3795 H 359.949 2.27379 -2.95556 0
M  V30 3796 N 362.134 1.5431 0.320358 0
M  V30 3797 C 363.359 1.76954 1.08175 0
M  V30 3798 C 363.784 0.518193 1.80821 0
M  V30 3799 O 363.142 -0.530411 1.73368 0
M  V30 3800 C 363.19 2.96451 2.05303 0
M  V30 3801 O 362.294 2.68221 3.13259 0
M  V30 3802 H 361.635 0.586275 0.311733 0
M  V30 3803 H 364.165 2.01342 0.363676 0
M  V30 3804 H 364.175 3.23887 2.48116 0
M  V30 3805 H 362.85 3.87196 1.51829 0
M  V30 3806 H 361.427 2.51744 2.75099 0
M  V30 3807 N 363.613 -0.582584 1.46437 0
M  V30 3808 C 364.861 -1.33814 1.51453 0
M  V30 3809 C 365.182 -1.94277 0.167792 0
M  V30 3810 O 364.452 -1.78566 -0.805677 0
M  V30 3811 H 363.032 -0.496838 0.557818 0
M  V30 3812 H 365.694 -0.682281 1.82568 0
M  V30 3813 H 364.79 -2.14479 2.26728 0
M  V30 3814 N 365.091 -1.34144 -0.827227 0
M  V30 3815 C 366.316 -1.29476 -1.62021 0
M  V30 3816 C 366.741 0.129292 -1.87655 0
M  V30 3817 O 366.099 1.08967 -1.449 0
M  V30 3818 C 366.147 -2.08702 -2.94068 0
M  V30 3819 O 365.251 -1.45359 -3.85933 0
M  V30 3820 H 364.592 -0.444881 -0.492927 0
M  V30 3821 H 367.122 -1.76882 -1.02829 0
M  V30 3822 H 367.132 -2.19898 -3.43669 0
M  V30 3823 H 365.807 -3.12241 -2.74734 0
M  V30 3824 H 364.384 -1.42879 -3.44442 0
M  V30 3825 N 366.569 1.04691 -1.17803 0
M  V30 3826 C 367.532 2.10724 -0.901545 0
M  V30 3827 C 368.532 1.6042 0.110437 0
M  V30 3828 O 369.722 1.7377 -0.122303 0
M  V30 3829 C 366.854 3.39084 -0.351409 0
M  V30 3830 H 368.047 2.36686 -1.84174 0
M  V30 3831 H 365.6 1.21015 -0.98919 0
M  V30 3832 H 366.335 3.18782 0.59569 0
M  V30 3833 H 366.12 3.76909 -1.08083 0
M  V30 3834 H 367.61 4.17227 -0.176451 0
M  V30 3835 N 368.047 0.979072 1.23499 0
M  V30 3836 C 369.463 0.687475 1.44034 0
M  V30 3837 C 369.663 -0.746801 1.8715 0
M  V30 3838 O 368.719 -1.51939 2.0167 0
M  V30 3839 C 370.032 1.68127 2.49307 0
M  V30 3840 C 371.58 1.69516 2.63122 0
M  V30 3841 C 372.055 2.67723 3.71603 0
M  V30 3842 N 373.546 2.66233 3.79044 0
M  V30 3843 C 374.281 3.38891 4.62537 0
M  V30 3844 N 373.777 4.21103 5.50131 0
M  V30 3845 N 375.57 3.27661 4.56721 0
M  V30 3846 H 367.721 1.90559 0.938135 0
M  V30 3847 H 369.984 0.821051 0.473897 0
M  V30 3848 H 369.69 2.70693 2.2454 0
M  V30 3849 H 369.564 1.46306 3.4767 0
M  V30 3850 H 371.951 0.676561 2.8724 0
M  V30 3851 H 372.032 1.95404 1.65079 0
M  V30 3852 H 371.676 3.69724 3.48233 0
M  V30 3853 H 371.606 2.39111 4.69184 0
M  V30 3854 H 374.097 2.06568 3.16446 0
M  V30 3855 H 374.41 4.73403 6.10827 0
M  V30 3856 H 372.755 4.25195 5.49759 0
M  V30 3857 H 375.946 2.62887 3.87309 0
M  V30 3858 H 376.119 3.84547 5.21562 0
M  V30 3859 N 369.525 -1.3858 0.750561 0
M  V30 3860 C 370.488 -2.28836 0.129152 0
M  V30 3861 C 371.488 -1.47045 -0.650714 0
M  V30 3862 O 372.678 -1.6753 -0.477428 0
M  V30 3863 C 369.81 -3.30751 -0.825622 0
M  V30 3864 H 371.003 -2.85294 0.924516 0
M  V30 3865 H 368.556 -1.47489 0.517376 0
M  V30 3866 H 369.291 -2.79378 -1.64677 0
M  V30 3867 H 369.076 -3.91177 -0.268852 0
M  V30 3868 H 370.566 -3.98249 -1.2565 0
M  V30 3869 N 371.003 -0.499398 -1.49478 0
M  V30 3870 C 372.252 0.0475259 -2.01644 0
M  V30 3871 C 372.565 1.38195 -1.38425 0
M  V30 3872 O 373.771 2.01547 -1.8191 0
M  V30 3873 C 372.227 0.135164 -3.59646 0
M  V30 3874 C 371.835 -1.19252 -4.31837 0
M  V30 3875 C 373.579 0.632538 -4.19761 0
M  V30 3876 C 371.486 -1.06713 -5.81693 0
M  V30 3877 H 370.416 0.0215349 -0.753692 0
M  V30 3878 H 373.067 -0.638577 -1.7203 0
M  V30 3879 H 371.449 0.885681 -3.85969 0
M  V30 3880 H 372.623 -1.9562 -4.17216 0
M  V30 3881 H 370.938 -1.62321 -3.83459 0
M  V30 3882 H 373.535 0.743833 -5.29501 0
M  V30 3883 H 373.878 1.63098 -3.83021 0
M  V30 3884 H 374.411 -0.0613987 -3.97753 0
M  V30 3885 H 371.15 -2.03979 -6.22955 0
M  V30 3886 H 370.67 -0.344307 -5.98811 0
M  V30 3887 H 372.349 -0.745208 -6.42694 0
M  V30 3888 N 372.481 1.55866 -0.233164 0
M  V30 3889 C 373.444 2.1953 0.658715 0
M  V30 3890 C 374.444 1.16053 1.11303 0
M  V30 3891 O 375.634 1.41218 1.01996 0
M  V30 3892 C 372.766 2.82791 1.90373 0
M  V30 3893 H 373.959 2.99721 0.10347 0
M  V30 3894 H 371.512 1.56291 0.0164245 0
M  V30 3895 H 372.247 2.06501 2.50056 0
M  V30 3896 H 372.032 3.58578 1.58632 0
M  V30 3897 H 373.522 3.31556 2.53891 0
M  V30 3898 N 373.959 -0.0401083 1.57549 0
M  V30 3899 C 375.208 -0.732108 1.87944 0
M  V30 3900 C 375.521 -1.77107 0.830206 0
M  V30 3901 O 376.727 -2.51488 1.02302 0
M  V30 3902 C 375.183 -1.35315 3.33494 0
M  V30 3903 C 374.791 -0.351105 4.46622 0
M  V30 3904 C 376.535 -2.02566 3.73051 0
M  V30 3905 C 374.442 -0.979859 5.83226 0
M  V30 3906 H 373.372 -0.277188 0.701201 0
M  V30 3907 H 376.023 0.0138501 1.83495 0
M  V30 3908 H 374.405 -2.14844 3.32653 0
M  V30 3909 H 375.579 0.416674 4.58912 0
M  V30 3910 H 373.894 0.218708 4.15825 0
M  V30 3911 H 376.491 -2.50441 4.72423 0
M  V30 3912 H 376.834 -2.83904 3.04474 0
M  V30 3913 H 377.367 -1.29827 3.76018 0
M  V30 3914 H 374.106 -0.206135 6.55176 0
M  V30 3915 H 373.626 -1.71774 5.74677 0
M  V30 3916 H 375.305 -1.49046 6.29599 0
M  V30 3917 N 375.437 -1.54477 -0.31217 0
M  V30 3918 C 376.683 -1.73483 -1.0503 0
M  V30 3919 C 377.016 -0.513125 -1.87298 0
M  V30 3920 O 376.291 0.489864 -1.8823 0
M  V30 3921 C 376.574 -3.01723 -1.96558 0
M  V30 3922 C 376.427 -4.3417 -1.17545 0
M  V30 3923 C 377.746 -3.25772 -2.95907 0
M  V30 3924 H 374.865 -0.631222 -0.380432 0
M  V30 3925 H 377.507 -1.87184 -0.325932 0
M  V30 3926 H 375.657 -2.90174 -2.58324 0
M  V30 3927 H 377.329 -4.5762 -0.581513 0
M  V30 3928 H 375.572 -4.31159 -0.477925 0
M  V30 3929 H 376.243 -5.20143 -1.84811 0
M  V30 3930 H 378.719 -3.36857 -2.44267 0
M  V30 3931 H 377.595 -4.16838 -3.57123 0
M  V30 3932 H 377.856 -2.43537 -3.68974 0
M  V30 3933 N 376.915 0.57481 -1.46744 0
M  V30 3934 C 378.14 1.36341 -1.56288 0
M  V30 3935 C 378.565 1.86954 -0.207347 0
M  V30 3936 O 377.923 1.62006 0.813871 0
M  V30 3937 C 377.971 2.52147 -2.57787 0
M  V30 3938 O 377.075 3.53834 -2.11838 0
M  V30 3939 H 376.416 0.405713 -0.525636 0
M  V30 3940 H 378.946 0.696453 -1.92382 0
M  V30 3941 H 378.956 2.98958 -2.77648 0
M  V30 3942 H 377.631 2.14663 -3.5622 0
M  V30 3943 H 376.208 3.1345 -2.01999 0
M  V30 3944 N 378.394 1.34581 0.820102 0
M  V30 3945 C 379.64 1.27285 1.57881 0
M  V30 3946 C 379.973 -0.156137 1.93571 0
M  V30 3947 O 379.248 -1.10222 1.60254 0
M  V30 3948 C 379.531 2.16639 2.87645 0
M  V30 3949 C 379.384 3.68088 2.58517 0
M  V30 3950 C 380.703 2.05378 3.8924 0
M  V30 3951 H 377.822 0.463714 0.572833 0
M  V30 3952 H 380.464 1.64859 0.944539 0
M  V30 3953 H 378.614 1.84725 3.41773 0
M  V30 3954 H 380.286 4.10382 2.10676 0
M  V30 3955 H 378.529 3.89038 1.91917 0
M  V30 3956 H 379.2 4.2598 3.51063 0
M  V30 3957 H 381.676 2.33404 3.44473 0
M  V30 3958 H 380.552 2.7012 4.77835 0
M  V30 3959 H 380.813 1.0316 4.29896 0
M  V30 3960 N 379.872 -1.04064 1.18357 0
M  V30 3961 C 380.802 -2.14001 0.934113 0
M  V30 3962 C 381.783 -1.69616 -0.128186 0
M  V30 3963 O 382.968 -1.94185 0.0244093 0
M  V30 3964 C 380.098 -3.44253 0.459066 0
M  V30 3965 C 379.052 -4.02261 1.46185 0
M  V30 3966 C 378.378 -5.27992 0.844322 0
M  V30 3967 C 379.678 -4.38432 2.83856 0
M  V30 3968 H 381.372 -2.35127 1.85352 0
M  V30 3969 H 378.918 -1.12998 0.892604 0
M  V30 3970 H 380.871 -4.20522 0.271907 0
M  V30 3971 H 379.595 -3.22813 -0.495912 0
M  V30 3972 H 378.254 -3.28074 1.63595 0
M  V30 3973 H 377.902 -5.02862 -0.117845 0
M  V30 3974 H 377.602 -5.67765 1.51384 0
M  V30 3975 H 379.126 -6.06938 0.667693 0
M  V30 3976 H 380.54 -5.05688 2.70098 0
M  V30 3977 H 378.937 -4.89254 3.47491 0
M  V30 3978 H 380.007 -3.4826 3.37406 0
M  V30 3979 N 381.35 -0.985608 -1.22978 0
M  V30 3980 C 382.596 -0.65836 -1.91816 0
M  V30 3981 C 382.929 0.806692 -1.76653 0
M  V30 3982 O 382.204 1.58252 -1.13078 0
M  V30 3983 C 382.487 -1.056 -3.44268 0
M  V30 3984 C 382.34 -2.57906 -3.68516 0
M  V30 3985 C 383.659 -0.603781 -4.35939 0
M  V30 3986 H 380.778 -0.24065 -0.696604 0
M  V30 3987 H 383.42 -1.22783 -1.44998 0
M  V30 3988 H 381.57 -0.571445 -3.84274 0
M  V30 3989 H 383.242 -3.13976 -3.3796 0
M  V30 3990 H 381.485 -3.00305 -3.13048 0
M  V30 3991 H 382.156 -2.80779 -4.75255 0
M  V30 3992 H 384.632 -1.01987 -4.03408 0
M  V30 3993 H 383.508 -0.910383 -5.41298 0
M  V30 3994 H 383.769 0.495761 -4.39312 0
M  V30 3995 N 382.828 1.3818 -0.7579 0
M  V30 3996 C 384.077 1.99261 -0.312744 0
M  V30 3997 C 384.39 1.60846 1.11301 0
M  V30 3998 O 385.596 2.14929 1.65885 0
M  V30 3999 C 384.052 3.56294 -0.50821 0
M  V30 4000 C 383.66 4.03657 -1.94333 0
M  V30 4001 C 385.404 4.24313 -0.125982 0
M  V30 4002 C 383.311 5.53347 -2.08712 0
M  V30 4003 H 382.241 0.745456 -0.113185 0
M  V30 4004 H 384.892 1.57889 -0.935056 0
M  V30 4005 H 383.274 3.95575 0.183353 0
M  V30 4006 H 384.448 3.75655 -2.66871 0
M  V30 4007 H 382.763 3.48376 -2.28086 0
M  V30 4008 H 385.36 5.34279 -0.212125 0
M  V30 4009 H 385.703 4.05962 0.921964 0
M  V30 4010 H 386.236 3.90285 -0.769563 0
M  V30 4011 H 382.975 5.76607 -3.11777 0
M  V30 4012 H 382.495 5.83078 -1.4064 0
M  V30 4013 H 384.174 6.19111 -1.87912 0
M  V30 4014 N 384.306 0.507319 1.49211 0
M  V30 4015 C 385.236 -0.256939 2.32082 0
M  V30 4016 C 386.217 -0.956609 1.40652 0
M  V30 4017 O 387.402 -0.946788 1.69557 0
M  V30 4018 C 384.532 -1.31802 3.21318 0
M  V30 4019 C 383.486 -0.737855 4.21592 0
M  V30 4020 C 382.812 -1.89992 4.99807 0
M  V30 4021 C 384.112 0.275325 5.21574 0
M  V30 4022 H 385.806 0.434798 2.96226 0
M  V30 4023 H 383.352 0.210546 1.42452 0
M  V30 4024 H 385.305 -1.86045 3.78107 0
M  V30 4025 H 384.029 -2.03903 2.5513 0
M  V30 4026 H 382.688 -0.217126 3.65956 0
M  V30 4027 H 382.336 -2.60877 4.30061 0
M  V30 4028 H 382.036 -1.51777 5.6766 0
M  V30 4029 H 383.56 -2.44657 5.59442 0
M  V30 4030 H 384.974 -0.179193 5.7302 0
M  V30 4031 H 383.371 0.573649 5.97352 0
M  V30 4032 H 384.441 1.18903 4.70096 0
M  V30 4033 N 385.784 -1.5574 0.241426 0
M  V30 4034 C 387.033 -1.97986 -0.385295 0
M  V30 4035 C 387.346 -1.13267 -1.59468 0
M  V30 4036 O 388.552 -1.45501 -2.2922 0
M  V30 4037 C 387.008 -3.52275 -0.736884 0
M  V30 4038 C 386.616 -4.45726 0.450796 0
M  V30 4039 C 388.36 -4.03189 -1.3281 0
M  V30 4040 C 386.267 -5.91352 0.0756662 0
M  V30 4041 H 385.197 -0.739386 -0.147731 0
M  V30 4042 H 387.848 -1.80308 0.340779 0
M  V30 4043 H 386.23 -3.65628 -1.52094 0
M  V30 4044 H 387.404 -4.44131 1.22819 0
M  V30 4045 H 385.719 -4.05264 0.956573 0
M  V30 4046 H 388.316 -5.09505 -1.62201 0
M  V30 4047 H 388.659 -3.50212 -2.25071 0
M  V30 4048 H 389.192 -3.93141 -0.607069 0
M  V30 4049 H 385.931 -6.48354 0.965272 0
M  V30 4050 H 385.451 -5.96095 -0.665635 0
M  V30 4051 H 387.13 -6.46084 -0.344075 0
M  V30 4052 N 387.262 0.0317525 -1.57568 0
M  V30 4053 C 388.487 0.738664 -1.938 0
M  V30 4054 C 388.912 1.68242 -0.841208 0
M  V30 4055 O 388.27 1.80157 0.203267 0
M  V30 4056 C 388.318 1.47417 -3.29091 0
M  V30 4057 O 387.422 2.5872 -3.2115 0
M  V30 4058 H 386.763 0.198856 -0.633524 0
M  V30 4059 H 389.293 -0.0119713 -2.04596 0
M  V30 4060 H 389.303 1.84468 -3.63917 0
M  V30 4061 H 387.978 0.781988 -4.08482 0
M  V30 4062 H 386.555 2.24231 -2.97951 0
M  V30 4063 N 388.74 1.54641 0.303973 0
M  V30 4064 C 389.989 1.7299 1.03717 0
M  V30 4065 C 390.302 0.521168 1.88529 0
M  V30 4066 O 391.508 0.586408 2.65092 0
M  V30 4067 C 389.964 3.06051 1.89369 0
M  V30 4068 C 389.572 4.34393 1.09574 0
M  V30 4069 C 391.316 3.3376 2.62306 0
M  V30 4070 C 389.223 5.58506 1.94486 0
M  V30 4071 H 388.153 0.64473 0.390947 0
M  V30 4072 H 390.804 1.81124 0.294328 0
M  V30 4073 H 389.186 2.91874 2.67629 0
M  V30 4074 H 390.36 4.59396 0.359485 0
M  V30 4075 H 388.675 4.13597 0.482324 0
M  V30 4076 H 391.272 4.23687 3.26181 0
M  V30 4077 H 391.615 2.52503 3.3098 0
M  V30 4078 H 392.148 3.48894 1.91097 0
M  V30 4079 H 388.887 6.42422 1.30287 0
M  V30 4080 H 388.407 5.37694 2.65792 0
M  V30 4081 H 390.086 5.95651 2.52605 0
M  V30 4082 N 390.218 -0.567019 1.47046 0
M  V30 4083 C 391.467 -1.32091 1.5243 0
M  V30 4084 C 391.78 -1.94704 0.187021 0
M  V30 4085 O 392.986 -2.7124 0.118771 0
M  V30 4086 C 391.442 -2.39479 2.68659 0
M  V30 4087 C 391.05 -1.831 4.08874 0
M  V30 4088 C 392.794 -3.16111 2.83327 0
M  V30 4089 C 390.701 -2.8821 5.16419 0
M  V30 4090 H 389.631 -0.496629 0.56734 0
M  V30 4091 H 392.282 -0.603354 1.73297 0
M  V30 4092 H 390.664 -3.14105 2.41152 0
M  V30 4093 H 391.838 -1.14913 4.46242 0
M  V30 4094 H 390.153 -1.19085 3.99008 0
M  V30 4095 H 392.75 -3.94585 3.60842 0
M  V30 4096 H 393.093 -3.69686 1.91411 0
M  V30 4097 H 393.626 -2.48595 3.10556 0
M  V30 4098 H 390.365 -2.39504 6.10179 0
M  V30 4099 H 389.885 -3.54839 4.8358 0
M  V30 4100 H 391.564 -3.51881 5.42945 0
M  V30 4101 N 391.696 -1.35014 -0.812953 0
M  V30 4102 C 392.924 -1.31031 -1.6012 0
M  V30 4103 C 393.339 0.113558 -1.88458 0
M  V30 4104 O 392.696 1.06363 -1.48301 0
M  V30 4105 C 392.747 -2.10872 -2.93624 0
M  V30 4106 O 392.468 -3.47706 -2.66518 0
M  V30 4107 C 393.969 -2.14401 -3.88004 0
M  V30 4108 H 391.189 -0.45037 -0.497401 0
M  V30 4109 H 393.733 -1.77775 -1.01076 0
M  V30 4110 H 391.888 -1.67744 -3.492 0
M  V30 4111 H 392.302 -3.89097 -3.51715 0
M  V30 4112 H 393.776 -2.74669 -4.78812 0
M  V30 4113 H 394.253 -1.14105 -4.24119 0
M  V30 4114 H 394.859 -2.57662 -3.38364 0
M  V30 4115 N 393.175 1.03435 -1.18907 0
M  V30 4116 C 394.422 1.76743 -0.988334 0
M  V30 4117 C 394.75 1.88447 0.481441 0
M  V30 4118 O 394.005 1.39383 1.37371 0
M  V30 4119 C 394.304 3.19792 -1.59586 0
M  V30 4120 C 393.97 3.28108 -3.09283 0
M  V30 4121 C 392.632 3.30084 -3.5014 0
M  V30 4122 C 394.984 3.27696 -4.05296 0
M  V30 4123 C 392.312 3.29299 -4.85571 0
M  V30 4124 C 394.664 3.28451 -5.4065 0
M  V30 4125 C 393.328 3.28723 -5.80946 0
M  V30 4126 H 392.598 0.64675 -0.361657 0
M  V30 4127 H 395.245 1.21442 -1.48068 0
M  V30 4128 H 393.55 3.78136 -1.02568 0
M  V30 4129 H 395.247 3.75171 -1.41589 0
M  V30 4130 H 391.837 3.27294 -2.76725 0
M  V30 4131 H 396.021 3.25354 -3.74778 0
M  V30 4132 H 391.277 3.2783 -5.16079 0
M  V30 4133 H 395.451 3.27082 -6.14809 0
M  V30 4134 H 393.078 3.27868 -6.85862 0
M  V30 4135 N 394.653 0.992116 1.22453 0
M  V30 4136 C 395.893 0.675727 1.92907 0
M  V30 4137 C 396.257 -0.777762 1.75542 0
M  V30 4138 O 397.458 -1.20553 2.40251 0
M  V30 4139 C 395.729 1.0696 3.4102 0
M  V30 4140 S 397.288 0.871456 4.30059 0
M  V30 4141 H 394.106 0.247089 0.666684 0
M  V30 4142 H 396.708 1.27423 1.48269 0
M  V30 4143 H 395.412 2.12383 3.51172 0
M  V30 4144 H 394.943 0.462858 3.90668 0
M  V30 4145 H 396.958 -0.238436 4.95627 0
M  V30 4146 N 396.131 -1.37776 0.765217 0
M  V30 4147 C 397.061 -2.32945 0.160953 0
M  V30 4148 C 398.042 -1.55454 -0.690516 0
M  V30 4149 O 399.227 -1.83721 -0.629318 0
M  V30 4150 C 396.357 -3.39669 -0.724031 0
M  V30 4151 C 395.311 -4.27992 0.0256173 0
M  V30 4152 C 394.637 -5.25673 -0.978383 0
M  V30 4153 C 395.937 -5.08309 1.20082 0
M  V30 4154 H 397.631 -2.83728 0.955969 0
M  V30 4155 H 395.177 -1.36416 0.461149 0
M  V30 4156 H 397.13 -4.05219 -1.15652 0
M  V30 4157 H 395.854 -2.87396 -1.5515 0
M  V30 4158 H 394.513 -3.63964 0.438812 0
M  V30 4159 H 394.161 -4.69682 -1.80022 0
M  V30 4160 H 393.861 -5.85625 -0.481378 0
M  V30 4161 H 395.385 -5.94098 -1.40995 0
M  V30 4162 H 396.799 -5.67034 0.845307 0
M  V30 4163 H 395.196 -5.77554 1.62947 0
M  V30 4164 H 396.266 -4.41365 2.00811 0
M  V30 4165 N 397.609 -0.515225 -1.4894 0
M  V30 4166 C 398.519 0.259774 -2.33157 0
M  V30 4167 C 399.535 0.953501 -1.45548 0
M  V30 4168 O 400.711 0.931735 -1.78552 0
M  V30 4169 C 397.776 1.30193 -3.21326 0
M  V30 4170 C 396.837 0.620129 -4.24797 0
M  V30 4171 C 396.07 1.61263 -5.08753 0
M  V30 4172 O 396.293 2.84389 -4.94448 0
M  V30 4173 O 395.227 1.16013 -5.90614 0
M  V30 4174 H 399.053 -0.429932 -3.00641 0
M  V30 4175 H 396.638 -0.276346 -1.46822 0
M  V30 4176 H 398.52 1.90455 -3.75905 0
M  V30 4177 H 397.195 1.97431 -2.56521 0
M  V30 4178 H 396.102 -0.0226019 -3.74093 0
M  V30 4179 H 397.435 -0.0100493 -4.92199 0
M  V30 4180 N 399.087 1.5561 -0.249682 0
M  V30 4181 C 400.315 2.03411 0.378352 0
M  V30 4182 C 400.73 1.12886 1.51335 0
M  V30 4183 O 400.087 0.143833 1.81932 0
M  V30 4184 C 400.138 3.50537 0.88351 0
M  V30 4185 O 399.859 4.37614 -0.20626 0
M  V30 4186 C 401.36 4.14113 1.58195 0
M  V30 4187 H 398.58 0.664994 0.08958 0
M  V30 4188 H 401.124 2.01044 -0.374357 0
M  V30 4189 H 399.279 3.5343 1.58639 0
M  V30 4190 H 399.693 5.24199 0.177782 0
M  V30 4191 H 401.167 5.18741 1.8871 0
M  V30 4192 H 401.644 3.60767 2.50487 0
M  V30 4193 H 402.25 4.15151 0.923573 0
M  V30 4194 N 400.565 -0.0233959 1.57583 0
M  V30 4195 C 401.495 -1.02162 2.09965 0
M  V30 4196 C 402.476 -1.3735 1.00344 0
M  V30 4197 O 403.661 -1.46135 1.27899 0
M  V30 4198 C 400.791 -2.32081 2.58371 0
M  V30 4199 C 399.745 -2.1112 3.72307 0
M  V30 4200 C 399.071 -3.46848 4.06941 0
M  V30 4201 C 400.371 -1.49276 5.00514 0
M  V30 4202 H 402.065 -0.585557 2.93618 0
M  V30 4203 H 399.611 -0.280218 1.41247 0
M  V30 4204 H 401.564 -3.02249 2.93639 0
M  V30 4205 H 400.288 -2.77758 1.71808 0
M  V30 4206 H 398.947 -1.43384 3.37397 0
M  V30 4207 H 398.595 -3.90184 3.17436 0
M  V30 4208 H 398.295 -3.33646 4.83688 0
M  V30 4209 H 399.819 -4.18369 4.44747 0
M  V30 4210 H 401.233 -2.09368 5.33702 0
M  V30 4211 H 399.63 -1.46632 5.8191 0
M  V30 4212 H 400.7 -0.459217 4.82721 0
M  V30 4213 N 402.043 -1.548 -0.295768 0
M  V30 4214 C 403.454 -1.65274 -0.868411 0
M  V30 4215 C 403.805 -0.56481 -1.87894 0
M  V30 4216 O 402.93 0.29767 -2.14343 0
M  V30 4217 C 403.525 -2.99603 -1.58188 0
M  V30 4218 C 402.084 -3.12181 -2.10286 0
M  V30 4219 C 401.231 -2.6098 -0.93727 0
M  V30 4220 H 404.182 -1.58534 -0.0726422 0
M  V30 4221 H 404.203 -2.91319 -2.44772 0
M  V30 4222 H 403.715 -3.78764 -0.846151 0
M  V30 4223 H 401.816 -2.3775 -2.8689 0
M  V30 4224 H 401.929 -4.18415 -2.33379 0
M  V30 4225 H 400.293 -2.17564 -1.32431 0
M  V30 4226 H 401.076 -3.42623 -0.215414 0
M  V30 4227 N 403.521 0.559213 -1.47345 0
M  V30 4228 C 404.431 1.69388 -1.62311 0
M  V30 4229 C 405.447 1.6648 -0.505993 0
M  V30 4230 O 406.623 1.85964 -0.773262 0
M  V30 4231 C 403.688 3.05894 -1.63185 0
M  V30 4232 C 402.749 3.19885 -2.86307 0
M  V30 4233 C 401.982 4.49879 -2.87131 0
M  V30 4234 O 402.205 5.35217 -1.97229 0
M  V30 4235 O 401.139 4.67618 -3.78968 0
M  V30 4236 H 404.965 1.59706 -2.58317 0
M  V30 4237 H 402.55 0.728989 -1.30407 0
M  V30 4238 H 404.432 3.87133 -1.66451 0
M  V30 4239 H 403.107 3.15964 -0.70345 0
M  V30 4240 H 402.014 2.38052 -2.88587 0
M  V30 4241 H 403.347 3.14718 -3.78435 0
M  V30 4242 N 404.999 1.35443 0.805782 0
M  V30 4243 C 406.246 1.28761 1.56291 0
M  V30 4244 C 406.574 -0.137747 1.94012 0
M  V30 4245 O 405.829 -1.1032 1.61642 0
M  V30 4246 C 406.128 2.14045 2.86216 0
M  V30 4247 C 405.794 3.62826 2.67709 0
M  V30 4248 C 404.456 4.0338 2.6237 0
M  V30 4249 C 406.808 4.57227 2.50186 0
M  V30 4250 C 404.136 5.36501 2.37451 0
M  V30 4251 C 406.488 5.90547 2.26797 0
M  V30 4252 C 405.152 6.30245 2.1988 0
M  V30 4253 H 404.422 0.471171 0.571908 0
M  V30 4254 H 407.069 1.67347 0.930974 0
M  V30 4255 H 405.374 1.68342 3.53791 0
M  V30 4256 H 407.071 2.0621 3.43917 0
M  V30 4257 H 403.661 3.30644 2.72713 0
M  V30 4258 H 407.845 4.2678 2.53323 0
M  V30 4259 H 403.101 5.66259 2.30567 0
M  V30 4260 H 407.275 6.63274 2.12228 0
M  V30 4261 H 404.902 7.33328 2.00333 0
M  V30 4262 N 406.477 -1.02803 1.19454 0
M  V30 4263 C 407.893 -1.28473 0.946937 0
M  V30 4264 C 408.093 -1.97881 -0.380202 0
M  V30 4265 O 407.149 -2.26719 -1.11151 0
M  V30 4266 C 408.462 -2.13099 2.12154 0
M  V30 4267 C 410.01 -2.26404 2.16126 0
M  V30 4268 C 410.485 -3.14402 3.33039 0
M  V30 4269 N 411.976 -3.21991 3.32981 0
M  V30 4270 C 412.711 -3.90272 4.20089 0
M  V30 4271 N 412.207 -4.60777 5.17355 0
M  V30 4272 N 414 -3.8668 4.07964 0
M  V30 4273 H 406.151 -0.561665 2.04839 0
M  V30 4274 H 408.414 -0.310438 0.89573 0
M  V30 4275 H 408.12 -1.69422 3.08203 0
M  V30 4276 H 407.994 -3.13813 2.09287 0
M  V30 4277 H 410.381 -2.69311 1.20647 0
M  V30 4278 H 410.462 -1.25237 2.23045 0
M  V30 4279 H 410.106 -2.72204 4.28798 0
M  V30 4280 H 410.036 -4.1563 3.23356 0
M  V30 4281 H 412.527 -2.71778 2.62574 0
M  V30 4282 H 412.84 -5.10513 5.80169 0
M  V30 4283 H 411.185 -4.5964 5.21302 0
M  V30 4284 H 414.376 -3.30739 3.31254 0
M  V30 4285 H 414.549 -4.39621 4.76064 0
M  V30 4286 N 407.956 -0.998596 -1.21925 0
M  V30 4287 C 409.233 -0.593401 -1.86382 0
M  V30 4288 C 409.613 0.92916 -1.89552 0
M  V30 4289 O 408.961 1.81347 -1.39017 0
M  V30 4290 C 409.171 -1.22039 -3.26967 0
M  V30 4291 C 410.519 -1.32449 -4.03413 0
M  V30 4292 O 411.543 -1.17522 -3.36254 0
M  V30 4293 O 410.402 -1.56395 -5.23644 0
M  V30 4294 H 407.496 -0.202385 -0.801854 0
M  V30 4295 H 410.042 -1.09484 -1.29659 0
M  V30 4296 H 408.814 -2.26158 -3.19325 0
M  V30 4297 H 408.437 -0.704906 -3.91301 0
M  V30 4298 N 409.434 1.37368 -0.772513 0
M  V30 4299 C 410.344 2.34053 -0.160081 0
M  V30 4300 C 411.36 1.60216 0.678728 0
M  V30 4301 O 412.536 1.92303 0.59847 0
M  V30 4302 C 409.601 3.3939 0.708182 0
M  V30 4303 C 408.662 4.29048 -0.147172 0
M  V30 4304 C 407.895 5.29354 0.679744 0
M  V30 4305 O 408.118 5.3723 1.91678 0
M  V30 4306 O 407.052 6.01835 0.0885444 0
M  V30 4307 H 410.878 2.88159 -0.959053 0
M  V30 4308 H 408.463 1.39543 -0.533685 0
M  V30 4309 H 410.345 4.03839 1.20384 0
M  V30 4310 H 409.02 2.8761 1.48533 0
M  V30 4311 H 407.927 3.67697 -0.689205 0
M  V30 4312 H 409.26 4.84134 -0.887423 0
M  V30 4313 N 410.912 0.523116 1.48665 0
M  V30 4314 C 412.328 0.180511 1.58576 0
M  V30 4315 C 412.528 -1.31597 1.52592 0
M  V30 4316 O 411.584 -2.0937 1.4114 0
M  V30 4317 C 412.897 0.776949 2.90489 0
M  V30 4318 C 414.445 0.745058 3.04003 0
M  V30 4319 C 414.92 1.31995 4.38567 0
M  V30 4320 N 416.411 1.28162 4.45117 0
M  V30 4321 C 417.146 1.6964 5.47731 0
M  V30 4322 N 416.642 2.18816 6.57337 0
M  V30 4323 N 418.435 1.6092 5.38573 0
M  V30 4324 H 410.586 1.4958 1.50797 0
M  V30 4325 H 412.849 0.621772 0.715614 0
M  V30 4326 H 412.555 1.82732 3.00503 0
M  V30 4327 H 412.429 0.25007 3.7637 0
M  V30 4328 H 414.816 -0.296532 2.93606 0
M  V30 4329 H 414.897 1.30933 2.1975 0
M  V30 4330 H 414.541 2.36043 4.49718 0
M  V30 4331 H 414.471 0.731418 5.21496 0
M  V30 4332 H 416.962 0.92155 3.66491 0
M  V30 4333 H 417.275 2.48478 7.31764 0
M  V30 4334 H 415.62 2.22805 6.58318 0
M  V30 4335 H 418.811 1.22304 4.5184 0
M  V30 4336 H 418.984 1.93567 6.18414 0
M  V30 4337 N 412.39 -1.55475 0.257931 0
M  V30 4338 C 413.3 -2.2549 -0.647425 0
M  V30 4339 C 414.316 -1.2748 -1.18427 0
M  V30 4340 O 415.492 -1.6038 -1.2182 0
M  V30 4341 C 412.557 -2.94916 -1.82278 0
M  V30 4342 C 411.618 -4.08363 -1.32432 0
M  V30 4343 C 410.851 -4.74469 -2.44366 0
M  V30 4344 O 411.074 -4.39701 -3.63344 0
M  V30 4345 O 410.008 -5.62763 -2.13497 0
M  V30 4346 H 413.834 -3.03593 -0.0807707 0
M  V30 4347 H 411.419 -1.49377 0.0259962 0
M  V30 4348 H 413.301 -3.38606 -2.50846 0
M  V30 4349 H 411.976 -2.19744 -2.37685 0
M  V30 4350 H 410.883 -3.69166 -0.605605 0
M  V30 4351 H 412.216 -4.85385 -0.816211 0
M  V30 4352 N 413.868 0.0150385 -1.57593 0
M  V30 4353 C 414.798 1.01047 -2.10503 0
M  V30 4354 C 415.779 1.36816 -1.01071 0
M  V30 4355 O 416.964 1.45455 -1.28672 0
M  V30 4356 C 414.094 2.30708 -2.59598 0
M  V30 4357 C 413.048 2.09142 -3.73421 0
M  V30 4358 C 412.374 3.44685 -4.08774 0
M  V30 4359 C 413.674 1.46619 -5.01298 0
M  V30 4360 H 415.368 0.569978 -2.93925 0
M  V30 4361 H 412.914 0.272724 -1.41394 0
M  V30 4362 H 414.867 3.00687 -2.95238 0
M  V30 4363 H 413.591 2.76843 -1.73279 0
M  V30 4364 H 412.25 1.41592 -3.38153 0
M  V30 4365 H 411.898 3.88495 -3.195 0
M  V30 4366 H 411.598 3.31077 -4.8545 0
M  V30 4367 H 413.122 4.16004 -4.4696 0
M  V30 4368 H 414.536 2.06535 -5.34805 0
M  V30 4369 H 412.933 1.43544 -5.82679 0
M  V30 4370 H 414.003 0.433611 -4.82957 0
M  V30 4371 N 415.346 1.54954 0.287554 0
M  V30 4372 C 416.276 1.89839 1.35954 0
M  V30 4373 C 417.257 0.758675 1.52244 0
M  V30 4374 O 418.442 1.01557 1.65529 0
M  V30 4375 C 415.572 2.15753 2.72154 0
M  V30 4376 C 414.526 3.3159 2.70614 0
M  V30 4377 C 413.852 3.42952 4.10229 0
M  V30 4378 C 415.152 4.68359 2.31165 0
M  V30 4379 H 416.846 2.79625 1.07007 0
M  V30 4380 H 414.392 1.3454 0.513316 0
M  V30 4381 H 416.345 2.38743 3.47246 0
M  V30 4382 H 415.069 1.22752 3.02654 0
M  V30 4383 H 413.728 3.08545 1.97979 0
M  V30 4384 H 413.376 2.47443 4.37928 0
M  V30 4385 H 413.076 4.20826 4.10097 0
M  V30 4386 H 414.6 3.68218 4.87081 0
M  V30 4387 H 416.014 4.9099 2.95976 0
M  V30 4388 H 414.411 5.49044 2.42221 0
M  V30 4389 H 415.481 4.68165 1.26291 0
M  V30 4390 N 416.824 -0.551391 1.4764 0
M  V30 4391 C 418.24 -0.877887 1.33287 0
M  V30 4392 C 418.44 -1.98817 0.327721 0
M  V30 4393 O 417.496 -2.51171 -0.258695 0
M  V30 4394 C 418.809 -1.26563 2.72768 0
M  V30 4395 C 420.357 -1.37673 2.81097 0
M  V30 4396 C 420.832 -1.79799 4.21232 0
M  V30 4397 N 422.323 -1.8694 4.23802 0
M  V30 4398 C 423.058 -2.20876 5.29151 0
M  V30 4399 N 422.554 -2.53386 6.448 0
M  V30 4400 N 424.347 -2.217 5.16532 0
M  V30 4401 H 416.498 0.18153 2.11623 0
M  V30 4402 H 418.761 0.0185514 0.947818 0
M  V30 4403 H 418.467 -0.523591 3.47781 0
M  V30 4404 H 418.341 -2.22052 3.04915 0
M  V30 4405 H 420.728 -2.10956 2.06353 0
M  V30 4406 H 420.809 -0.40357 2.52596 0
M  V30 4407 H 420.453 -1.07083 4.96483 0
M  V30 4408 H 420.383 -2.78128 4.4716 0
M  V30 4409 H 422.874 -1.64179 3.40373 0
M  V30 4410 H 423.187 -2.78325 7.20941 0
M  V30 4411 H 421.532 -2.50953 6.48111 0
M  V30 4412 H 424.723 -1.95745 4.25207 0
M  V30 4413 H 424.896 -2.47818 5.98741 0
M  V30 4414 N 418.302 -1.35869 -0.798587 0
M  V30 4415 C 419.252 -1.25982 -1.90033 0
M  V30 4416 C 420.236 -0.153303 -1.60168 0
M  V30 4417 O 421.428 -0.38527 -1.72756 0
M  V30 4418 C 418.557 -1.04211 -3.27101 0
M  V30 4419 C 417.643 -2.19289 -3.63006 0
M  V30 4420 N 418.034 -3.44559 -3.70287 0
M  V30 4421 C 416.332 -2.10852 -3.93011 0
M  V30 4422 C 417.033 -4.20283 -4.02166 0
M  V30 4423 N 416.009 -3.49124 -4.16669 0
M  V30 4424 H 419.811 -2.20883 -1.93876 0
M  V30 4425 H 417.325 -1.28457 -0.993614 0
M  V30 4426 H 419.322 -0.952155 -4.05881 0
M  V30 4427 H 417.982 -0.102013 -3.2454 0
M  V30 4428 H 418.993 -3.7881 -3.53162 0
M  V30 4429 H 415.67 -1.24744 -3.98428 0
M  V30 4430 H 417.06 -5.28575 -4.14799 0
M  V30 4431 N 419.78 1.02168 -1.19998 0
M  V30 4432 C 421.191 1.57135 -1.00825 0
M  V30 4433 C 421.542 1.91276 0.436818 0
M  V30 4434 O 420.667 1.71679 1.3174 0
M  V30 4435 C 421.262 2.85514 -1.82393 0
M  V30 4436 C 419.821 3.37027 -1.67601 0
M  V30 4437 C 418.968 2.10388 -1.80644 0
M  V30 4438 H 421.919 0.846106 -1.34264 0
M  V30 4439 H 421.94 3.56711 -1.32429 0
M  V30 4440 H 421.452 2.60634 -2.87561 0
M  V30 4441 H 419.553 3.66878 -0.650485 0
M  V30 4442 H 419.666 4.09572 -2.4857 0
M  V30 4443 H 418.03 2.22601 -1.23778 0
M  V30 4444 H 418.813 1.8794 -2.87286 0
M  V30 4445 N 421.258 1.00505 1.21394 0
M  V30 4446 C 422.669 0.721082 1.72213 0
M  V30 4447 C 423.02 -0.761263 1.80829 0
M  V30 4448 O 422.145 -1.59464 1.46288 0
M  V30 4449 C 422.74 1.30228 3.12772 0
M  V30 4450 C 421.299 1.06743 3.60947 0
M  V30 4451 C 420.446 1.41507 2.38477 0
M  V30 4452 H 423.397 1.17594 1.06571 0
M  V30 4453 H 423.418 0.686955 3.74247 0
M  V30 4454 H 422.93 2.38115 3.06468 0
M  V30 4455 H 421.031 0.00572162 3.726 0
M  V30 4456 H 421.144 1.73936 4.46411 0
M  V30 4457 H 419.508 0.833852 2.40664 0
M  V30 4458 H 420.291 2.50424 2.34824 0
M  V30 4459 N 422.737 -1.36956 0.779787 0
M  V30 4460 C 423.7 -2.2851 0.177662 0
M  V30 4461 C 424.7 -1.48393 -0.619377 0
M  V30 4462 O 425.89 -1.68505 -0.441785 0
M  V30 4463 C 423.022 -3.32428 -0.755279 0
M  V30 4464 H 424.215 -2.83269 0.984823 0
M  V30 4465 H 421.768 -1.46358 0.548544 0
M  V30 4466 H 422.503 -2.82808 -1.58714 0
M  V30 4467 H 422.288 -3.91659 -0.185817 0
M  V30 4468 H 423.778 -4.00824 -1.17174 0
M  V30 4469 N 424.215 -0.530993 -1.48385 0
M  V30 4470 C 425.626 -0.0907905 -1.86479 0
M  V30 4471 C 425.977 1.33213 -1.44044 0
M  V30 4472 O 425.102 1.99783 -0.831615 0
M  V30 4473 C 425.697 -0.157987 -3.38431 0
M  V30 4474 C 424.256 0.227026 -3.75715 0
M  V30 4475 C 423.403 -0.5173 -2.72432 0
M  V30 4476 H 426.354 -0.742186 -1.40276 0
M  V30 4477 H 426.375 0.630053 -3.75247 0
M  V30 4478 H 425.887 -1.19372 -3.69286 0
M  V30 4479 H 423.988 1.26486 -3.50474 0
M  V30 4480 H 424.101 -0.113288 -4.78966 0
M  V30 4481 H 422.465 0.0365527 -2.54674 0
M  V30 4482 H 423.248 -1.55368 -3.0613 0
M  V30 4483 N 425.693 1.55336 -0.266172 0
M  V30 4484 C 426.643 2.18848 0.639497 0
M  V30 4485 C 427.627 1.1503 1.12503 0
M  V30 4486 O 428.819 1.40875 1.0716 0
M  V30 4487 C 425.948 2.90626 1.82733 0
M  V30 4488 C 425.034 4.01723 1.35939 0
M  V30 4489 N 425.425 5.02145 0.606988 0
M  V30 4490 C 423.723 4.1463 1.6431 0
M  V30 4491 C 424.424 5.80572 0.362138 0
M  V30 4492 N 423.4 5.35551 0.931971 0
M  V30 4493 H 427.202 2.93845 0.0567057 0
M  V30 4494 H 424.716 1.62252 -0.0693312 0
M  V30 4495 H 426.713 3.34569 2.48735 0
M  V30 4496 H 425.373 2.17137 2.41416 0
M  V30 4497 H 426.384 5.17271 0.255198 0
M  V30 4498 H 423.061 3.52326 2.23993 0
M  V30 4499 H 424.451 6.71472 -0.239848 0
M  V30 4500 N 427.171 -0.0066808 1.57599 0
M  V30 4501 C 428.103 -1.02827 2.04839 0
M  V30 4502 C 429.116 -1.31108 0.965113 0
M  V30 4503 O 430.305 -1.28202 1.24203 0
M  V30 4504 C 427.405 -2.36464 2.42771 0
M  V30 4505 C 426.578 -2.27219 3.73751 0
M  V30 4506 C 425.637 -3.43489 3.98625 0
M  V30 4507 O 424.663 -3.21976 4.69382 0
M  V30 4508 N 425.865 -4.66116 3.46 0
M  V30 4509 H 428.63 -0.625455 2.93101 0
M  V30 4510 H 426.191 -0.194198 1.60731 0
M  V30 4511 H 428.183 -3.13008 2.56531 0
M  V30 4512 H 426.753 -2.68512 1.60063 0
M  V30 4513 H 425.973 -1.35629 3.70133 0
M  V30 4514 H 427.261 -2.18208 4.59633 0
M  V30 4515 H 426.659 -4.86493 2.88688 0
M  V30 4516 H 425.216 -5.39949 3.65101 0
M  V30 4517 N 428.649 -1.55105 -0.279332 0
M  V30 4518 C 430.06 -1.66186 -0.850832 0
M  V30 4519 C 430.411 -0.584707 -1.87285 0
M  V30 4520 O 429.536 0.274919 -2.14647 0
M  V30 4521 C 430.131 -3.01264 -1.55001 0
M  V30 4522 C 428.69 -3.14394 -2.06963 0
M  V30 4523 C 427.837 -2.61959 -0.909536 0
M  V30 4524 H 430.788 -1.58602 -0.0558235 0
M  V30 4525 H 430.809 -2.93899 -2.41669 0
M  V30 4526 H 430.321 -3.7964 -0.805931 0
M  V30 4527 H 428.422 -2.4078 -2.84352 0
M  V30 4528 H 428.535 -4.20867 -2.28928 0
M  V30 4529 H 426.899 -2.18957 -1.30116 0
M  V30 4530 H 427.682 -3.42833 -0.179062 0
M  V30 4531 N 430.127 0.543554 -1.4793 0
M  V30 4532 C 431.538 1.12561 -1.48953 0
M  V30 4533 C 431.889 1.94578 -0.251754 0
M  V30 4534 O 431.014 2.0665 0.642255 0
M  V30 4535 C 431.609 2.04801 -2.69892 0
M  V30 4536 C 430.168 2.58251 -2.73831 0
M  V30 4537 C 429.315 1.34918 -2.42265 0
M  V30 4538 H 432.266 0.32947 -1.55242 0
M  V30 4539 H 432.287 2.88886 -2.47639 0
M  V30 4540 H 431.799 1.4508 -3.59963 0
M  V30 4541 H 429.9 3.21732 -1.87934 0
M  V30 4542 H 430.013 2.98312 -3.74895 0
M  V30 4543 H 428.377 1.66046 -1.93134 0
M  V30 4544 H 429.16 0.769693 -3.3456 0
M  V30 4545 N 431.605 1.3629 0.791371 0
M  V30 4546 C 432.568 1.30309 1.88553 0
M  V30 4547 C 433.568 0.211204 1.59407 0
M  V30 4548 O 434.758 0.465865 1.67855 0
M  V30 4549 C 431.89 1.01956 3.25297 0
M  V30 4550 H 433.083 2.27614 1.95273 0
M  V30 4551 H 430.636 1.21035 0.988953 0
M  V30 4552 H 431.371 0.050998 3.2426 0
M  V30 4553 H 431.156 1.80968 3.4784 0
M  V30 4554 H 432.646 1.0037 4.05359 0
M  V30 4555 N 433.083 -1.0153 1.20538 0
M  V30 4556 C 434.494 -1.56598 1.01657 0
M  V30 4557 C 434.845 -1.91505 -0.426668 0
M  V30 4558 O 433.97 -1.72375 -1.30827 0
M  V30 4559 C 434.565 -2.84542 1.83905 0
M  V30 4560 C 433.124 -3.36133 1.69386 0
M  V30 4561 C 432.271 -2.09427 1.81757 0
M  V30 4562 H 435.222 -0.838974 1.34711 0
M  V30 4563 H 435.243 -3.56004 1.34319 0
M  V30 4564 H 434.755 -2.59105 2.8894 0
M  V30 4565 H 432.856 -3.66528 0.669933 0
M  V30 4566 H 432.969 -4.08248 2.50739 0
M  V30 4567 H 431.333 -2.21941 1.24957 0
M  V30 4568 H 432.116 -1.86414 2.88279 0
M  V30 4569 N 434.561 -1.01147 -1.20859 0
M  V30 4570 C 435.524 -0.582224 -2.21682 0
M  V30 4571 C 436.524 0.344887 -1.57058 0
M  V30 4572 O 437.714 0.134281 -1.73682 0
M  V30 4573 C 434.846 0.150496 -3.40568 0
M  V30 4574 H 436.039 -1.47408 -2.61172 0
M  V30 4575 H 433.592 -0.800695 -1.34233 0
M  V30 4576 H 434.327 1.0575 -3.06574 0
M  V30 4577 H 434.112 -0.515444 -3.88697 0
M  V30 4578 H 435.602 0.438344 -4.15293 0
M  V30 4579 N 436.039 1.36541 -0.78704 0
M  V30 4580 C 437.45 1.81873 -0.421807 0
M  V30 4581 C 437.801 1.65487 1.05397 0
M  V30 4582 O 436.926 1.17448 1.81755 0
M  V30 4583 C 437.521 3.30192 -0.758841 0
M  V30 4584 C 436.08 3.73743 -0.446468 0
M  V30 4585 C 435.227 2.58844 -0.994728 0
M  V30 4586 H 438.178 1.24796 -0.98039 0
M  V30 4587 H 438.199 3.80468 -0.0490648 0
M  V30 4588 H 437.711 3.42087 -1.83299 0
M  V30 4589 H 435.812 3.6741 0.619739 0
M  V30 4590 H 435.925 4.69272 -0.965415 0
M  V30 4591 H 434.289 2.51245 -0.418087 0
M  V30 4592 H 435.072 2.73525 -2.07458 0
M  V30 4593 N 437.518 0.538854 1.48102 0
M  V30 4594 C 438.766 0.00798599 2.02098 0
M  V30 4595 C 439.087 -1.33922 1.41739 0
M  V30 4596 O 438.357 -1.86932 0.585934 0
M  V30 4597 H 436.937 -3.62179e-05 0.747 0
M  V30 4598 H 439.599 0.7047 1.81714 0
M  V30 4599 H 438.695 -0.0937672 3.11959 0
M  V30 4600 N 438.996 -1.55193 0.274407 0
M  V30 4601 C 439.959 -2.212 -0.600279 0
M  V30 4602 C 440.959 -1.18963 -1.08187 0
M  V30 4603 O 442.149 -1.43873 -0.982158 0
M  V30 4604 C 439.281 -2.87739 -1.82809 0
M  V30 4605 H 440.474 -2.9989 -0.0239682 0
M  V30 4606 H 438.027 -1.5628 0.0250192 0
M  V30 4607 H 438.762 -2.13058 -2.44493 0
M  V30 4608 H 438.547 -3.62658 -1.49069 0
M  V30 4609 H 440.037 -3.38171 -2.45011 0
M  V30 4610 N 440.474 -0.00167713 -1.576 0
M  V30 4611 C 441.422 1.0074 -2.09652 0
M  V30 4612 C 442.416 1.35483 -1.01689 0
M  V30 4613 O 443.622 1.34028 -1.20152 0
M  V30 4614 H 439.997 0.342537 -0.669457 0
M  V30 4615 H 441.968 0.542841 -2.93421 0
M  V30 4616 C 440.717 2.2899 -2.61647 0
M  V30 4617 H 440.04 2.03124 -3.44355 0
M  V30 4618 H 441.48 2.9787 -3.01744 0
M  V30 4619 C 439.939 3.00085 -1.53136 0
M  V30 4620 O 440.469 3.91135 -0.91524 0
M  V30 4621 N 438.675 2.6194 -1.25841 0
M  V30 4622 H 438.222 1.8798 -1.76129 0
M  V30 4623 H 438.18 3.09822 -0.534576 0
M  V30 4624 N 441.952 1.55251 0.271103 0
M  V30 4625 C 443.2 1.75599 1.00047 0
M  V30 4626 C 443.521 0.561188 1.8675 0
M  V30 4627 O 442.791 -0.423846 1.9126 0
M  V30 4628 H 441.371 0.647562 0.372387 0
M  V30 4629 H 444.033 1.92656 0.294876 0
M  V30 4630 H 443.129 2.65766 1.6363 0
M  V30 4631 N 443.43 -0.535701 1.48216 0
M  V30 4632 C 444.655 -1.32149 1.59848 0
M  V30 4633 C 445.08 -1.86338 0.256842 0
M  V30 4634 O 444.438 -1.64107 -0.770632 0
M  V30 4635 C 444.486 -2.45224 2.64381 0
M  V30 4636 O 443.59 -3.48093 2.21144 0
M  V30 4637 H 442.931 -0.391634 0.536208 0
M  V30 4638 H 445.461 -0.645202 1.94161 0
M  V30 4639 H 445.471 -2.91491 2.85476 0
M  V30 4640 H 444.146 -2.05143 3.61786 0
M  V30 4641 H 442.723 -3.07984 2.10239 0
M  V30 4642 N 444.908 -1.36708 -0.784132 0
M  V30 4643 C 446.156 -1.30972 -1.53918 0
M  V30 4644 C 446.477 0.109086 -1.94695 0
M  V30 4645 O 445.747 1.05048 -1.65353 0
M  V30 4646 H 444.327 -0.481819 -0.570841 0
M  V30 4647 H 446.989 -1.71063 -0.934002 0
M  V30 4648 H 446.085 -1.94061 -2.44431 0
M  V30 4649 N 446.386 1.0089 -1.21074 0
M  V30 4650 C 447.632 1.74866 -1.02712 0
M  V30 4651 C 447.965 1.89178 0.438787 0
M  V30 4652 O 447.24 1.42325 1.32567 0
M  V30 4653 C 447.523 3.16347 -1.72036 0
M  V30 4654 C 447.376 3.09782 -3.26121 0
M  V30 4655 C 448.695 4.15187 -1.45973 0
M  V30 4656 H 445.814 0.634736 -0.374539 0
M  V30 4657 H 448.456 1.17646 -1.49196 0
M  V30 4658 H 446.606 3.65201 -1.32517 0
M  V30 4659 H 448.278 2.68673 -3.74983 0
M  V30 4660 H 446.521 2.46982 -3.56626 0
M  V30 4661 H 447.192 4.09829 -3.6979 0
M  V30 4662 H 449.668 3.75022 -1.80272 0
M  V30 4663 H 448.544 5.12331 -1.96999 0
M  V30 4664 H 448.805 4.40386 -0.388924 0
M  V30 4665 N 447.864 1.01787 1.20321 0
M  V30 4666 C 448.797 0.533882 2.21867 0
M  V30 4667 C 449.775 -0.419361 1.57099 0
M  V30 4668 O 450.959 -0.339062 1.85426 0
M  V30 4669 C 448.086 -0.222899 3.37966 0
M  V30 4670 C 447.132 0.680091 4.21043 0
M  V30 4671 S 447.965 2.14997 4.90445 0
M  V30 4672 C 449.121 1.40339 6.09964 0
M  V30 4673 H 449.354 1.39429 2.62577 0
M  V30 4674 H 446.887 0.826867 1.30393 0
M  V30 4675 H 448.845 -0.653425 4.05266 0
M  V30 4676 H 447.506 -1.0589 2.95713 0
M  V30 4677 H 446.699 0.0964704 5.03908 0
M  V30 4678 H 446.301 1.04845 3.59004 0
M  V30 4679 H 448.593 0.68407 6.74038 0
M  V30 4680 H 449.536 2.20823 6.72787 0
M  V30 4681 H 449.944 0.905716 5.57187 0
M  V30 4682 N 449.342 -1.36122 0.79427 0
M  V30 4683 C 450.305 -2.28309 0.201889 0
M  V30 4684 C 451.305 -1.49041 -0.603603 0
M  V30 4685 O 452.495 -1.68964 -0.423888 0
M  V30 4686 C 449.627 -3.3321 -0.719978 0
M  V30 4687 H 450.82 -2.82208 1.01481 0
M  V30 4688 H 448.373 -1.45768 0.564037 0
M  V30 4689 H 449.108 -2.84475 -1.55706 0
M  V30 4690 H 448.893 -3.91835 -0.144266 0
M  V30 4691 H 450.383 -4.02044 -1.12916 0
M  V30 4692 N 450.82 -0.546701 -1.47814 0
M  V30 4693 C 452.231 -0.110564 -1.86372 0
M  V30 4694 C 452.582 1.31678 -1.45449 0
M  V30 4695 O 451.707 1.98889 -0.852758 0
M  V30 4696 C 452.302 -0.193873 -3.38245 0
M  V30 4697 C 450.861 0.187164 -3.75934 0
M  V30 4698 C 450.008 -0.546166 -2.71868 0
M  V30 4699 H 452.959 -0.757022 -1.39481 0
M  V30 4700 H 452.98 0.590218 -3.75895 0
M  V30 4701 H 452.492 -1.23282 -3.67999 0
M  V30 4702 H 450.593 1.22762 -3.51796 0
M  V30 4703 H 450.706 -0.164083 -4.78819 0
M  V30 4704 H 449.07 0.00953904 -2.54698 0
M  V30 4705 H 449.853 -1.58606 -3.04465 0
M  V30 4706 N 452.299 1.55045 -0.282633 0
M  V30 4707 C 453.71 1.85473 0.213655 0
M  V30 4708 C 454.061 1.20465 1.54863 0
M  V30 4709 O 453.186 0.495676 2.10647 0
M  V30 4710 C 453.781 3.36496 0.394445 0
M  V30 4711 C 452.34 3.67022 0.834961 0
M  V30 4712 C 451.487 2.77218 -0.0674081 0
M  V30 4713 H 454.438 1.50478 -0.504202 0
M  V30 4714 H 454.459 3.60007 1.23186 0
M  V30 4715 H 453.971 3.83782 -0.577326 0
M  V30 4716 H 452.072 3.25241 1.81794 0
M  V30 4717 H 452.185 4.74433 0.667075 0
M  V30 4718 H 450.549 2.5069 0.450196 0
M  V30 4719 H 451.332 3.2732 -1.0352 0
M  V30 4720 N 453.777 0.010035 1.57597 0
M  V30 4721 C 455.002 -0.687021 1.95691 0
M  V30 4722 C 455.427 -1.65952 0.885519 0
M  V30 4723 O 454.785 -1.80633 -0.15543 0
M  V30 4724 C 454.833 -1.3864 3.32884 0
M  V30 4725 O 453.937 -2.50115 3.27897 0
M  V30 4726 H 453.278 -0.181989 0.638573 0
M  V30 4727 H 455.808 0.0662122 2.04493 0
M  V30 4728 H 455.818 -1.74754 3.6868 0
M  V30 4729 H 454.493 -0.673411 4.10412 0
M  V30 4730 H 453.07 -2.16253 3.03791 0
M  V30 4731 N 455.255 -1.55392 -0.262866 0
M  V30 4732 C 456.503 -1.76127 -0.991147 0
M  V30 4733 C 456.824 -0.571083 -1.8645 0
M  V30 4734 O 456.094 0.413698 -1.91482 0
M  V30 4735 H 454.674 -0.649528 -0.368948 0
M  V30 4736 H 457.336 -1.9281 -0.284655 0
M  V30 4737 H 456.432 -2.6663 -1.62219 0
M  V30 4738 N 456.733 0.527833 -1.48498 0
M  V30 4739 C 458.144 1.10975 -1.50138 0
M  V30 4740 C 458.495 1.943 -0.272378 0
M  V30 4741 O 457.62 2.07319 0.620301 0
M  V30 4742 C 458.215 2.01927 -2.72049 0
M  V30 4743 C 456.774 2.55332 -2.76554 0
M  V30 4744 C 455.921 1.32341 -2.43683 0
M  V30 4745 H 458.872 0.312986 -1.55583 0
M  V30 4746 H 458.893 2.86244 -2.50689 0
M  V30 4747 H 458.405 1.41254 -3.61481 0
M  V30 4748 H 456.506 3.19721 -1.91336 0
M  V30 4749 H 456.619 2.94319 -3.78038 0
M  V30 4750 H 454.983 1.63989 -1.94884 0
M  V30 4751 H 455.766 0.734165 -3.35358 0
M  V30 4752 N 458.211 1.37122 0.776871 0
M  V30 4753 C 459.439 1.3523 1.5659 0
M  V30 4754 C 459.854 -0.0635518 1.88693 0
M  V30 4755 O 459.211 -1.02394 1.51069 0
M  V30 4756 C 459.262 2.18583 2.8793 0
M  V30 4757 O 458.983 3.5465 2.57206 0
M  V30 4758 C 460.484 2.24612 3.82183 0
M  V30 4759 H 457.704 0.4634 0.485285 0
M  V30 4760 H 460.248 1.80392 0.963266 0
M  V30 4761 H 458.403 1.76943 3.4463 0
M  V30 4762 H 458.817 3.98286 3.41275 0
M  V30 4763 H 460.291 2.87267 4.71361 0
M  V30 4764 H 460.768 1.25309 4.20944 0
M  V30 4765 H 461.374 2.66543 3.31414 0
M  V30 4766 N 459.689 -1.00246 1.21608 0
M  V30 4767 C 460.935 -1.74319 1.03638 0
M  V30 4768 C 461.268 -1.89408 -0.428749 0
M  V30 4769 O 460.543 -1.43026 -1.3181 0
M  V30 4770 C 460.826 -3.15431 1.73711 0
M  V30 4771 C 460.679 -3.08049 3.27759 0
M  V30 4772 C 461.998 -4.14407 1.48173 0
M  V30 4773 H 459.117 -0.632741 0.377899 0
M  V30 4774 H 461.759 -1.16853 1.49818 0
M  V30 4775 H 459.909 -3.64493 1.34452 0
M  V30 4776 H 461.581 -2.66681 3.76403 0
M  V30 4777 H 459.824 -2.45088 3.57931 0
M  V30 4778 H 460.495 -4.07862 3.71958 0
M  V30 4779 H 462.971 -3.74061 1.82258 0
M  V30 4780 H 461.847 -5.11279 1.99713 0
M  V30 4781 H 462.108 -4.40174 0.412273 0
M  V30 4782 N 461.167 -1.02423 -1.1978 0
M  V30 4783 C 462.13 -0.605703 -2.21052 0
M  V30 4784 C 463.13 0.328209 -1.57415 0
M  V30 4785 O 464.32 0.115853 -1.73814 0
M  V30 4786 C 461.452 0.114366 -3.40708 0
M  V30 4787 H 462.645 -1.5017 -2.59594 0
M  V30 4788 H 460.198 -0.814888 -1.33376 0
M  V30 4789 H 460.933 1.02492 -3.07678 0
M  V30 4790 H 460.718 -0.556641 -3.88129 0
M  V30 4791 H 462.208 0.394272 -4.15735 0
M  V30 4792 N 462.645 1.35699 -0.801477 0
M  V30 4793 C 464.056 1.81415 -0.441073 0
M  V30 4794 C 464.407 1.66595 1.03636 0
M  V30 4795 O 463.532 1.19369 1.80499 0
M  V30 4796 C 464.127 3.29369 -0.793819 0
M  V30 4797 C 462.686 3.73248 -0.486083 0
M  V30 4798 C 461.833 2.57775 -1.02213 0
M  V30 4799 H 464.784 1.23749 -0.993572 0
M  V30 4800 H 464.805 3.80395 -0.0894158 0
M  V30 4801 H 464.317 3.40123 -1.86917 0
M  V30 4802 H 462.418 3.68046 0.580735 0
M  V30 4803 H 462.531 4.68222 -1.01513 0
M  V30 4804 H 460.895 2.50788 -0.444712 0
M  V30 4805 H 461.678 2.71309 -2.10348 0
M  V30 4806 N 464.123 0.554532 1.47522 0
M  V30 4807 C 465.053 -0.182974 2.32782 0
M  V30 4808 C 466.034 -0.911377 1.43624 0
M  V30 4809 O 467.219 -0.892366 1.72483 0
M  V30 4810 C 464.349 -1.21513 3.25349 0
M  V30 4811 C 463.303 -0.603355 4.23726 0
M  V30 4812 C 462.629 -1.73995 5.05598 0
M  V30 4813 C 463.929 0.441121 5.20434 0
M  V30 4814 H 465.623 0.52882 2.94693 0
M  V30 4815 H 463.169 0.255759 1.41711 0
M  V30 4816 H 465.122 -1.73922 3.83835 0
M  V30 4817 H 463.846 -1.95683 2.61487 0
M  V30 4818 H 462.505 -0.10059 3.66462 0
M  V30 4819 H 462.153 -2.47063 4.38143 0
M  V30 4820 H 461.853 -1.3364 5.72201 0
M  V30 4821 H 463.377 -2.26735 5.66942 0
M  V30 4822 H 464.791 0.00319931 5.733 0
M  V30 4823 H 463.188 0.763402 5.95224 0
M  V30 4824 H 464.258 1.33799 4.66075 0
M  V30 4825 N 465.601 -1.54893 0.290851 0
M  V30 4826 C 466.531 -2.26103 -0.583084 0
M  V30 4827 C 467.512 -1.25684 -1.14619 0
M  V30 4828 O 468.697 -1.54436 -1.17741 0
M  V30 4829 C 465.827 -2.99409 -1.75987 0
M  V30 4830 C 464.781 -4.0689 -1.32758 0
M  V30 4831 C 464.107 -4.67856 -2.58872 0
M  V30 4832 C 465.407 -5.20215 -0.46624 0
M  V30 4833 H 467.101 -2.99398 0.0108214 0
M  V30 4834 H 464.647 -1.43998 0.00664468 0
M  V30 4835 H 466.6 -3.47943 -2.37727 0
M  V30 4836 H 465.324 -2.23675 -2.37985 0
M  V30 4837 H 463.983 -3.59191 -0.733299 0
M  V30 4838 H 463.631 -3.88772 -3.19163 0
M  V30 4839 H 463.331 -5.40438 -2.30653 0
M  V30 4840 H 464.855 -5.19147 -3.21433 0
M  V30 4841 H 466.269 -5.64704 -0.989047 0
M  V30 4842 H 464.666 -5.99455 -0.27826 0
M  V30 4843 H 465.736 -4.82198 0.511173 0
M  V30 4844 N 467.08 -0.0183926 -1.57589 0
M  V30 4845 C 468.491 0.521927 -1.79256 0
M  V30 4846 C 468.842 1.72885 -0.927636 0
M  V30 4847 O 467.967 2.15978 -0.135091 0
M  V30 4848 C 468.562 0.953632 -3.25102 0
M  V30 4849 C 467.121 1.43913 -3.47801 0
M  V30 4850 C 466.268 0.398837 -2.74417 0
M  V30 4851 H 469.219 -0.244485 -1.56805 0
M  V30 4852 H 469.24 1.81863 -3.34224 0
M  V30 4853 H 468.752 0.0750123 -3.88028 0
M  V30 4854 H 466.853 2.33804 -2.90115 0
M  V30 4855 H 466.966 1.45391 -4.56507 0
M  V30 4856 H 465.33 0.864572 -2.39577 0
M  V30 4857 H 466.113 -0.471132 -3.40052 0
M  V30 4858 N 468.558 1.5553 0.254621 0
M  V30 4859 C 469.974 1.4778 0.602753 0
M  V30 4860 C 470.174 0.707047 1.88688 0
M  V30 4861 O 469.23 0.233288 2.5142 0
M  V30 4862 C 470.543 2.92133 0.712648 0
M  V30 4863 C 472.091 3.02458 0.805488 0
M  V30 4864 C 472.566 4.48102 0.947009 0
M  V30 4865 N 474.057 4.52008 1.01207 0
M  V30 4866 C 474.792 5.61939 1.1407 0
M  V30 4867 N 474.288 6.81697 1.23536 0
M  V30 4868 N 476.081 5.49719 1.17325 0
M  V30 4869 H 468.232 2.04085 -0.588463 0
M  V30 4870 H 470.495 0.926229 -0.202001 0
M  V30 4871 H 470.201 3.51332 -0.160766 0
M  V30 4872 H 470.075 3.42187 1.58707 0
M  V30 4873 H 472.462 2.43344 1.66936 0
M  V30 4874 H 472.543 2.55627 -0.0939266 0
M  V30 4875 H 472.187 5.07824 0.087725 0
M  V30 4876 H 472.117 4.92607 1.86135 0
M  V30 4877 H 474.608 3.65749 0.950577 0
M  V30 4878 H 474.921 7.61228 1.33236 0
M  V30 4879 H 473.266 6.84473 1.20508 0
M  V30 4880 H 476.457 4.55095 1.09573 0
M  V30 4881 H 476.63 6.35432 1.27005 0
M  V30 4882 N 470.036 -0.519951 1.48776 0
M  V30 4883 C 471.264 -1.29971 1.60982 0
M  V30 4884 C 471.679 -1.86803 0.273885 0
M  V30 4885 O 471.036 -1.66904 -0.738193 0
M  V30 4886 C 471.087 -2.44346 2.66415 0
M  V30 4887 O 470.808 -1.89855 3.94825 0
M  V30 4888 C 472.309 -3.36014 2.89153 0
M  V30 4889 H 469.529 -0.394891 0.542496 0
M  V30 4890 H 472.073 -0.626214 1.94676 0
M  V30 4891 H 470.228 -3.07562 2.35552 0
M  V30 4892 H 470.642 -2.64798 4.5275 0
M  V30 4893 H 472.116 -4.12593 3.66703 0
M  V30 4894 H 472.593 -3.91859 1.98351 0
M  V30 4895 H 473.199 -2.78582 3.21359 0
M  V30 4896 N 471.514 -1.37532 -0.769588 0
M  V30 4897 C 472.444 -1.36172 -1.89682 0
M  V30 4898 C 473.425 -0.23001 -1.68538 0
M  V30 4899 O 474.61 -0.43069 -1.89364 0
M  V30 4900 C 471.74 -1.1701 -3.26995 0
M  V30 4901 C 470.694 -2.27216 -3.62708 0
M  V30 4902 C 470.02 -1.93174 -4.98586 0
M  V30 4903 C 471.32 -3.6941 -3.69234 0
M  V30 4904 H 473.014 -2.30499 -1.91078 0
M  V30 4905 H 470.56 -1.10953 -0.917902 0
M  V30 4906 H 472.513 -1.14688 -4.05493 0
M  V30 4907 H 471.237 -0.191395 -3.26039 0
M  V30 4908 H 469.896 -2.28697 -2.86519 0
M  V30 4909 H 469.544 -0.938281 -4.94171 0
M  V30 4910 H 469.244 -2.66973 -5.23449 0
M  V30 4911 H 470.768 -1.92443 -5.79481 0
M  V30 4912 H 472.182 -3.70047 -4.37879 0
M  V30 4913 H 470.579 -4.4228 -4.05597 0
M  V30 4914 H 471.649 -4.0288 -2.69844 0
M  V30 4915 N 472.992 0.995999 -1.22138 0
M  V30 4916 C 473.955 2.06711 -0.990109 0
M  V30 4917 C 474.955 1.60744 0.0422978 0
M  V30 4918 O 476.145 1.73095 -0.195895 0
M  V30 4919 C 473.277 3.37288 -0.49491 0
M  V30 4920 H 474.47 2.28661 -1.94047 0
M  V30 4921 H 472.023 1.16711 -1.03963 0
M  V30 4922 H 472.758 3.21022 0.459948 0
M  V30 4923 H 472.543 3.71986 -1.23971 0
M  V30 4924 H 474.033 4.16103 -0.353253 0
M  V30 4925 N 474.47 1.03057 1.19235 0
M  V30 4926 C 475.747 0.642608 1.84743 0
M  V30 4927 C 476.127 -0.878577 1.91948 0
M  V30 4928 O 475.475 -1.77597 1.43776 0
M  V30 4929 C 475.685 1.30665 3.23616 0
M  V30 4930 C 477.033 1.43098 3.9976 0
M  V30 4931 O 478.057 1.26396 3.3302 0
M  V30 4932 O 476.916 1.70223 5.19313 0
M  V30 4933 H 474.01 0.223573 0.796206 0
M  V30 4934 H 476.556 1.12883 1.26711 0
M  V30 4935 H 475.328 2.34544 3.13217 0
M  V30 4936 H 474.951 0.808405 3.89295 0
M  V30 4937 N 475.948 -1.35272 0.808662 0
M  V30 4938 C 477.359 -1.81179 0.450688 0
M  V30 4939 C 477.71 -1.67143 -1.02751 0
M  V30 4940 O 476.835 -1.20325 -1.79864 0
M  V30 4941 C 477.43 -3.28943 0.811275 0
M  V30 4942 C 475.989 -3.72985 0.505871 0
M  V30 4943 C 475.136 -2.57229 1.03578 0
M  V30 4944 H 478.087 -1.2322 1.00012 0
M  V30 4945 H 478.108 -3.80342 0.109588 0
M  V30 4946 H 477.62 -3.39127 1.88718 0
M  V30 4947 H 475.721 -3.68349 -0.561209 0
M  V30 4948 H 475.834 -4.67677 1.03995 0
M  V30 4949 H 474.198 -2.50548 0.458005 0
M  V30 4950 H 474.981 -2.7019 2.11784 0
M  V30 4951 N 477.426 -0.562348 -1.47226 0
M  V30 4952 C 478.673 -0.0402165 -2.0246 0
M  V30 4953 C 479.001 1.31169 -1.43614 0
M  V30 4954 O 478.256 1.86805 -0.5833 0
M  V30 4955 C 478.555 0.0969817 -3.57268 0
M  V30 4956 C 478.221 -1.1847 -4.35058 0
M  V30 4957 C 476.883 -1.53588 -4.56031 0
M  V30 4958 C 479.235 -2.03378 -4.79882 0
M  V30 4959 C 476.563 -2.73452 -5.19077 0
M  V30 4960 C 478.915 -3.2245 -5.44251 0
M  V30 4961 C 477.579 -3.57876 -5.63455 0
M  V30 4962 H 476.849 -0.0147163 -0.740854 0
M  V30 4963 H 479.496 -0.734895 -1.76838 0
M  V30 4964 H 477.801 0.87466 -3.81912 0
M  V30 4965 H 479.498 0.516408 -3.97661 0
M  V30 4966 H 476.088 -0.90126 -4.19017 0
M  V30 4967 H 480.272 -1.77553 -4.63453 0
M  V30 4968 H 475.528 -3.01062 -5.32139 0
M  V30 4969 H 479.702 -3.88526 -5.77945 0
M  V30 4970 H 477.329 -4.50849 -6.12078 0
M  V30 4971 N 478.904 1.54736 -0.299062 0
M  V30 4972 C 480.151 2.00101 0.310784 0
M  V30 4973 C 480.479 1.18746 1.54045 0
M  V30 4974 O 479.734 0.251198 1.94081 0
M  V30 4975 C 480.033 3.50199 0.713835 0
M  V30 4976 C 479.699 4.48997 -0.413873 0
M  V30 4977 C 478.361 4.7573 -0.723462 0
M  V30 4978 C 480.713 5.07839 -1.17257 0
M  V30 4979 C 478.041 5.5857 -1.79491 0
M  V30 4980 C 480.393 5.91844 -2.23392 0
M  V30 4981 C 479.057 6.16889 -2.54959 0
M  V30 4982 H 478.327 0.732221 0.113724 0
M  V30 4983 H 480.974 1.86888 -0.417756 0
M  V30 4984 H 479.279 3.61012 1.52243 0
M  V30 4985 H 480.976 3.82723 1.19684 0
M  V30 4986 H 477.566 4.28292 -0.162476 0
M  V30 4987 H 481.75 4.87188 -0.946651 0
M  V30 4988 H 477.006 5.76213 -2.04423 0
M  V30 4989 H 481.18 6.36465 -2.8264 0
M  V30 4990 H 478.807 6.80869 -3.38114 0
M  V30 4991 N 480.382 0.0267497 1.57577 0
M  V30 4992 C 481.631 -0.651736 1.9088 0
M  V30 4993 C 481.944 -1.73427 0.904576 0
M  V30 4994 O 483.15 -2.46923 1.12877 0
M  V30 4995 C 481.606 -1.21048 3.38933 0
M  V30 4996 C 481.214 -0.161362 4.47709 0
M  V30 4997 C 482.958 -1.86562 3.81307 0
M  V30 4998 C 480.865 -0.731611 5.86857 0
M  V30 4999 H 479.795 -0.247198 0.712326 0
M  V30 5000 H 482.446 0.0916641 1.83271 0
M  V30 5001 H 480.828 -2.00542 3.41466 0
M  V30 5002 H 482.002 0.61094 4.56732 0
M  V30 5003 H 480.317 0.394877 4.14523 0
M  V30 5004 H 482.914 -2.30178 4.8262 0
M  V30 5005 H 483.257 -2.70735 3.16241 0
M  V30 5006 H 483.79 -1.13762 3.81186 0
M  V30 5007 H 480.529 0.0719329 6.55461 0
M  V30 5008 H 480.049 -1.47245 5.81445 0
M  V30 5009 H 481.728 -1.22208 6.35354 0
M  V30 5010 N 481.861 -1.55662 -0.24637 0
M  V30 5011 C 483.107 -1.77782 -0.975779 0
M  V30 5012 C 483.44 -0.592103 -1.84953 0
M  V30 5013 O 482.715 0.409588 -1.90138 0
M  V30 5014 C 482.998 -3.09788 -1.83584 0
M  V30 5015 C 482.851 -4.38764 -0.990241 0
M  V30 5016 C 484.17 -3.38029 -2.81823 0
M  V30 5017 H 481.289 -0.646789 -0.353317 0
M  V30 5018 H 483.931 -1.88398 -0.246248 0
M  V30 5019 H 482.081 -3.00869 -2.45784 0
M  V30 5020 H 483.753 -4.59675 -0.386897 0
M  V30 5021 H 481.996 -4.32798 -0.294626 0
M  V30 5022 H 482.667 -5.27514 -1.62584 0
M  V30 5023 H 485.143 -3.46915 -2.2976 0
M  V30 5024 H 484.019 -4.3161 -3.39122 0
M  V30 5025 H 484.28 -2.58968 -3.58313 0
M  V30 5026 N 483.339 0.512053 -1.4905 0
M  V30 5027 C 484.249 1.64139 -1.67617 0
M  V30 5028 C 485.265 1.64786 -0.558701 0
M  V30 5029 O 486.441 1.8341 -0.832034 0
M  V30 5030 C 483.506 3.00548 -1.72835 0
M  V30 5031 C 482.567 3.10615 -2.96339 0
M  V30 5032 C 481.8 4.40517 -3.01298 0
M  V30 5033 O 482.023 5.28671 -2.14157 0
M  V30 5034 O 480.957 4.55325 -3.93653 0
M  V30 5035 H 484.783 1.51407 -2.63267 0
M  V30 5036 H 482.368 0.687131 -1.32661 0
M  V30 5037 H 484.25 3.81641 -1.78683 0
M  V30 5038 H 482.925 3.13566 -0.803616 0
M  V30 5039 H 481.832 2.2875 -2.96014 0
M  V30 5040 H 483.165 3.0252 -3.88256 0
M  V30 5041 N 484.817 1.37938 0.762283 0
M  V30 5042 C 486.045 1.36883 1.55147 0
M  V30 5043 C 486.46 -0.0435348 1.8875 0
M  V30 5044 O 485.817 -1.00786 1.52146 0
M  V30 5045 C 485.868 2.21624 2.85596 0
M  V30 5046 O 485.589 3.57358 2.5343 0
M  V30 5047 C 487.09 2.28653 3.7978 0
M  V30 5048 H 484.31 0.468521 0.480343 0
M  V30 5049 H 486.854 1.81404 0.944079 0
M  V30 5050 H 485.009 1.80588 3.42734 0
M  V30 5051 H 485.423 4.01883 3.37032 0
M  V30 5052 H 486.897 2.9225 4.68288 0
M  V30 5053 H 487.374 1.29767 4.19592 0
M  V30 5054 H 487.98 2.70043 3.28568 0
M  V30 5055 N 486.295 -0.989507 1.22664 0
M  V30 5056 C 487.523 -1.76496 1.07967 0
M  V30 5057 C 487.938 -1.85148 -0.369543 0
M  V30 5058 O 487.295 -1.32408 -1.25596 0
M  V30 5059 C 487.346 -3.19642 1.68853 0
M  V30 5060 O 487.067 -3.11453 3.08105 0
M  V30 5061 C 488.568 -4.13621 1.59475 0
M  V30 5062 H 485.788 -0.55418 0.378319 0
M  V30 5063 H 488.332 -1.24378 1.62328 0
M  V30 5064 H 486.487 -3.68816 1.18547 0
M  V30 5065 H 486.901 -4.01499 3.37489 0
M  V30 5066 H 488.375 -5.11801 2.06795 0
M  V30 5067 H 488.852 -4.35718 0.55191 0
M  V30 5068 H 489.458 -3.70346 2.09103 0
M  V30 5069 N 487.773 -1.03688 -1.18687 0
M  V30 5070 C 489.013 -0.746858 -1.90267 0
M  V30 5071 C 489.377 0.712075 -1.78307 0
M  V30 5072 O 490.578 1.11553 -2.44559 0
M  V30 5073 C 488.849 -1.19543 -3.36815 0
M  V30 5074 S 490.408 -1.03047 -4.26529 0
M  V30 5075 H 487.226 -0.271663 -0.657054 0
M  V30 5076 H 489.828 -1.32838 -1.43437 0
M  V30 5077 H 488.532 -2.2527 -3.43047 0
M  V30 5078 H 488.063 -0.607533 -3.88681 0
M  V30 5079 H 490.078 0.0543232 -4.9617 0
M  V30 5080 N 489.251 1.34841 -0.815825 0
M  V30 5081 C 490.497 1.98793 -0.401129 0
M  V30 5082 C 490.83 1.64548 1.03139 0
M  V30 5083 O 490.105 0.913487 1.71714 0
M  V30 5084 C 490.388 3.55143 -0.595409 0
M  V30 5085 C 490.241 3.99155 -2.07352 0
M  V30 5086 C 491.56 4.40092 -0.0268823 0
M  V30 5087 H 488.679 0.722146 -0.14722 0
M  V30 5088 H 491.321 1.59847 -1.02707 0
M  V30 5089 H 489.471 3.8845 -0.0625779 0
M  V30 5090 H 491.143 3.76216 -2.66945 0
M  V30 5091 H 489.386 3.49726 -2.56659 0
M  V30 5092 H 490.057 5.07971 -2.1603 0
M  V30 5093 H 492.533 4.13298 -0.482042 0
M  V30 5094 H 491.409 5.48562 -0.19267 0
M  V30 5095 H 491.67 4.29016 1.06759 0
M  V30 5096 N 490.729 0.570148 1.46925 0
M  V30 5097 C 491.978 0.0487352 2.01641 0
M  V30 5098 C 492.291 -1.31433 1.44861 0
M  V30 5099 O 493.497 -1.92638 1.91318 0
M  V30 5100 C 491.953 0.0365817 3.59881 0
M  V30 5101 C 491.561 1.39719 4.25655 0
M  V30 5102 C 493.305 -0.431545 4.22301 0
M  V30 5103 C 491.212 1.34345 5.75939 0
M  V30 5104 H 490.142 0.0144492 0.753862 0
M  V30 5105 H 492.793 0.719928 1.68788 0
M  V30 5106 H 491.175 -0.700522 3.89755 0
M  V30 5107 H 492.349 2.15303 4.07408 0
M  V30 5108 H 490.664 1.80431 3.75278 0
M  V30 5109 H 493.261 -0.490354 5.32447 0
M  V30 5110 H 493.604 -1.44638 3.90366 0
M  V30 5111 H 494.137 0.251102 3.97007 0
M  V30 5112 H 490.876 2.33469 6.12513 0
M  V30 5113 H 490.396 0.629615 5.96486 0
M  V30 5114 H 492.075 1.051 6.38407 0
M  V30 5115 N 492.207 -1.54576 0.307264 0
M  V30 5116 C 493.453 -2.01272 -0.293453 0
M  V30 5117 C 493.808 -1.19178 -1.51044 0
M  V30 5118 O 493.101 -0.261704 -1.89804 0
M  V30 5119 C 493.295 -3.50572 -0.695253 0
M  V30 5120 C 493.124 -4.47118 0.481249 0
M  V30 5121 C 491.894 -4.958 0.97524 0
M  V30 5122 C 494.092 -4.96853 1.32823 0
M  V30 5123 N 492.074 -5.76212 2.11785 0
M  V30 5124 C 493.445 -5.75028 2.31824 0
M  V30 5125 C 495.5 -4.79026 1.35788 0
M  V30 5126 C 494.203 -6.37276 3.33574 0
M  V30 5127 C 496.229 -5.42097 2.364 0
M  V30 5128 C 495.591 -6.2011 3.34129 0
M  V30 5129 H 491.69 -0.778709 -0.0716705 0
M  V30 5130 H 494.274 -1.89695 0.438602 0
M  V30 5131 H 492.445 -3.62427 -1.39647 0
M  V30 5132 H 494.177 -3.84056 -1.27604 0
M  V30 5133 H 490.932 -4.70405 0.549184 0
M  V30 5134 H 491.356 -6.21101 2.69375 0
M  V30 5135 H 495.998 -4.18288 0.616021 0
M  V30 5136 H 493.716 -6.97144 4.08676 0
M  V30 5137 H 497.302 -5.30229 2.39475 0
M  V30 5138 H 496.182 -6.68049 4.10707 0
M  V30 5139 N 493.685 -0.035106 -1.57561 0
M  V30 5140 C 494.932 0.642229 -1.92046 0
M  V30 5141 C 495.26 1.7179 -0.91206 0
M  V30 5142 O 494.515 1.95544 0.0781153 0
M  V30 5143 C 494.814 1.29149 -3.3325 0
M  V30 5144 C 494.48 0.345604 -4.49574 0
M  V30 5145 C 493.142 0.0852775 -4.81124 0
M  V30 5146 C 495.494 -0.303569 -5.20315 0
M  V30 5147 C 492.822 -0.831927 -5.80772 0
M  V30 5148 C 495.174 -1.20886 -6.20942 0
M  V30 5149 C 493.838 -1.47802 -6.50931 0
M  V30 5150 H 493.108 0.235008 -0.702746 0
M  V30 5151 H 495.755 -0.0981529 -1.91248 0
M  V30 5152 H 494.06 2.10676 -3.30337 0
M  V30 5153 H 495.757 1.82223 -3.57205 0
M  V30 5154 H 492.347 0.558683 -4.24943 0
M  V30 5155 H 496.531 -0.115515 -4.96166 0
M  V30 5156 H 491.787 -1.0481 -6.02349 0
M  V30 5157 H 495.961 -1.71804 -6.74875 0
M  V30 5158 H 493.588 -2.19039 -7.2796 0
M  V30 5159 N 495.163 1.55791 0.238111 0
M  V30 5160 C 496.391 1.82098 0.982233 0
M  V30 5161 C 496.806 0.612025 1.78605 0
M  V30 5162 O 496.163 -0.419381 1.77616 0
M  V30 5163 C 496.214 3.0673 1.91309 0
M  V30 5164 O 495.935 4.2296 1.14179 0
M  V30 5165 C 497.436 3.45903 2.77248 0
M  V30 5166 H 494.656 0.605748 0.288635 0
M  V30 5167 H 497.2 2.02862 0.258341 0
M  V30 5168 H 495.355 2.87991 2.59114 0
M  V30 5169 H 495.769 4.93653 1.7722 0
M  V30 5170 H 497.243 4.36189 3.38295 0
M  V30 5171 H 497.72 2.66891 3.48806 0
M  V30 5172 H 498.326 3.67024 2.14881 0
M  V30 5173 N 496.642 -0.504142 1.49319 0
M  V30 5174 C 497.889 -1.25846 1.58647 0
M  V30 5175 C 498.217 -1.92592 0.27177 0
M  V30 5176 O 497.472 -1.81167 -0.74007 0
M  V30 5177 C 497.771 -2.35021 2.69258 0
M  V30 5178 C 497.437 -1.85755 4.1086 0
M  V30 5179 C 496.099 -1.72038 4.49395 0
M  V30 5180 C 498.451 -1.48844 4.99495 0
M  V30 5181 C 495.779 -1.19783 5.74342 0
M  V30 5182 C 498.131 -0.980422 6.24956 0
M  V30 5183 C 496.795 -0.829622 6.62324 0
M  V30 5184 H 496.065 -0.460505 0.580531 0
M  V30 5185 H 498.712 -0.559716 1.83138 0
M  V30 5186 H 497.017 -3.10672 2.38726 0
M  V30 5187 H 498.714 -2.93083 2.73685 0
M  V30 5188 H 495.304 -1.9739 3.80441 0
M  V30 5189 H 499.488 -1.5829 4.70381 0
M  V30 5190 H 494.744 -1.06817 6.01997 0
M  V30 5191 H 498.918 -0.685608 6.93017 0
M  V30 5192 H 496.545 -0.42253 7.59025 0
M  V30 5193 N 498.12 -1.38341 -0.754957 0
M  V30 5194 C 499.03 -1.3769 -1.89944 0
M  V30 5195 C 500.046 -0.274194 -1.71826 0
M  V30 5196 O 501.222 -0.512391 -1.94773 0
M  V30 5197 C 498.287 -1.19938 -3.25293 0
M  V30 5198 C 497.348 -2.40001 -3.55946 0
M  V30 5199 C 496.581 -2.23087 -4.84838 0
M  V30 5200 O 496.804 -1.22386 -5.57116 0
M  V30 5201 O 495.738 -3.11646 -5.14937 0
M  V30 5202 H 499.564 -2.3412 -1.93446 0
M  V30 5203 H 497.149 -1.19246 -0.900044 0
M  V30 5204 H 499.031 -1.12093 -4.06218 0
M  V30 5205 H 497.706 -0.265919 -3.22606 0
M  V30 5206 H 496.613 -2.53421 -2.75188 0
M  V30 5207 H 497.946 -3.31973 -3.63394 0
M  V30 5208 N 499.598 0.982988 -1.23187 0
M  V30 5209 C 500.528 2.09301 -1.03515 0
M  V30 5210 C 501.509 1.70035 0.0471136 0
M  V30 5211 O 502.694 1.93847 -0.117029 0
M  V30 5212 C 499.824 3.4167 -0.622791 0
M  V30 5213 C 498.778 3.94828 -1.65211 0
M  V30 5214 C 498.104 5.23362 -1.09527 0
M  V30 5215 C 499.404 4.2439 -3.04451 0
M  V30 5216 H 501.098 2.26016 -1.96359 0
M  V30 5217 H 498.644 1.08611 -0.945501 0
M  V30 5218 H 500.597 4.18746 -0.472233 0
M  V30 5219 H 499.321 3.24811 0.341329 0
M  V30 5220 H 497.98 3.19895 -1.79061 0
M  V30 5221 H 497.628 5.02852 -0.122211 0
M  V30 5222 H 497.328 5.59895 -1.783 0
M  V30 5223 H 498.852 6.03062 -0.956511 0
M  V30 5224 H 500.266 4.92225 -2.93917 0
M  V30 5225 H 498.663 4.72118 -3.70438 0
M  V30 5226 H 499.733 3.31765 -3.53638 0
M  V30 5227 N 501.076 1.04316 1.18135 0
M  V30 5228 C 502.006 0.657299 2.24058 0
M  V30 5229 C 502.987 -0.340678 1.66654 0
M  V30 5230 O 504.172 -0.220223 1.92947 0
M  V30 5231 C 501.302 0.0220715 3.47293 0
M  V30 5232 C 500.256 0.943857 4.17463 0
M  V30 5233 C 499.582 0.172973 5.3442 0
M  V30 5234 C 500.882 2.26409 4.70677 0
M  V30 5235 H 502.576 1.5428 2.56589 0
M  V30 5236 H 500.122 0.743263 1.23335 0
M  V30 5237 H 502.075 -0.259607 4.206 0
M  V30 5238 H 500.799 -0.898323 3.14003 0
M  V30 5239 H 499.458 1.20996 3.46057 0
M  V30 5240 H 499.106 -0.749907 4.97379 0
M  V30 5241 H 498.806 0.787098 5.82304 0
M  V30 5242 H 500.33 -0.101628 6.10515 0
M  V30 5243 H 501.744 2.04294 5.35665 0
M  V30 5244 H 500.141 2.8314 5.29105 0
M  V30 5245 H 501.211 2.90883 3.87962 0
M  V30 5246 N 502.554 -1.34406 0.822964 0
M  V30 5247 C 503.8 -1.98578 0.411666 0
M  V30 5248 C 504.133 -1.65093 -1.02264 0
M  V30 5249 O 503.408 -0.92258 -1.71227 0
M  V30 5250 C 503.691 -3.54823 0.614235 0
M  V30 5251 C 503.544 -3.9805 2.09466 0
M  V30 5252 C 504.863 -4.40071 0.050221 0
M  V30 5253 H 501.982 -0.721355 0.151047 0
M  V30 5254 H 504.624 -1.59301 1.03554 0
M  V30 5255 H 502.774 -3.88411 0.0831774 0
M  V30 5256 H 504.446 -3.74795 2.68936 0
M  V30 5257 H 502.689 -3.4836 2.5851 0
M  V30 5258 H 503.36 -5.06819 2.18721 0
M  V30 5259 H 505.836 -4.13037 0.503953 0
M  V30 5260 H 504.712 -5.48452 0.221759 0
M  V30 5261 H 504.973 -4.29576 -1.04482 0
M  V30 5262 N 504.032 -0.577932 -1.46621 0
M  V30 5263 C 505.448 -0.239242 -1.57797 0
M  V30 5264 C 505.648 1.25843 -1.57371 0
M  V30 5265 O 504.704 2.03988 -1.48813 0
M  V30 5266 C 506.017 -0.884227 -2.87405 0
M  V30 5267 C 507.565 -0.857373 -3.01028 0
M  V30 5268 C 508.04 -1.48181 -4.33366 0
M  V30 5269 N 509.531 -1.44593 -4.40053 0
M  V30 5270 C 510.266 -1.89852 -5.41058 0
M  V30 5271 N 509.762 -2.43062 -6.48762 0
M  V30 5272 N 511.555 -1.80797 -5.3223 0
M  V30 5273 H 503.706 -1.55073 -1.45142 0
M  V30 5274 H 505.969 -0.647903 -0.692044 0
M  V30 5275 H 505.675 -1.93759 -2.93514 0
M  V30 5276 H 505.549 -0.389585 -3.75183 0
M  V30 5277 H 507.936 0.187357 -2.94505 0
M  V30 5278 H 508.017 -1.38999 -2.14739 0
M  V30 5279 H 507.661 -2.52572 -4.40647 0
M  V30 5280 H 507.591 -0.924464 -5.18422 0
M  V30 5281 H 510.082 -1.05694 -3.62819 0
M  V30 5282 H 510.395 -2.75466 -7.22038 0
M  V30 5283 H 508.74 -2.47085 -6.49595 0
M  V30 5284 H 511.931 -1.38989 -4.46989 0
M  V30 5285 H 512.104 -2.16385 -6.10804 0
M  V30 5286 N 505.51 1.54411 -0.315457 0
M  V30 5287 C 506.757 2.00419 0.289543 0
M  V30 5288 C 507.085 1.20373 1.52776 0
M  V30 5289 O 506.34 0.271769 1.93804 0
M  V30 5290 C 506.639 3.50936 0.676652 0
M  V30 5291 C 506.305 4.48532 -0.461472 0
M  V30 5292 C 504.967 4.74936 -0.773879 0
M  V30 5293 C 507.319 5.06567 -1.22637 0
M  V30 5294 C 504.647 5.56634 -1.85405 0
M  V30 5295 C 506.999 5.89441 -2.29657 0
M  V30 5296 C 505.663 6.1415 -2.61488 0
M  V30 5297 H 504.933 0.733386 0.105951 0
M  V30 5298 H 507.58 1.86434 -0.437554 0
M  V30 5299 H 505.885 3.62606 1.48405 0
M  V30 5300 H 507.582 3.83971 1.15618 0
M  V30 5301 H 504.172 4.28096 -0.207893 0
M  V30 5302 H 508.356 4.86157 -0.998271 0
M  V30 5303 H 503.612 5.74012 -2.10523 0
M  V30 5304 H 507.786 6.33432 -2.89374 0
M  V30 5305 H 505.413 6.77245 -3.45317 0
M  V30 5306 N 506.988 0.0434614 1.5754 0
M  V30 5307 C 508.235 -0.632035 1.92384 0
M  V30 5308 C 508.563 -1.71304 0.921157 0
M  V30 5309 O 507.818 -1.95583 -0.067744 0
M  V30 5310 C 508.117 -1.2738 3.3393 0
M  V30 5311 C 507.783 -0.321757 4.49751 0
M  V30 5312 C 506.445 -0.0597611 4.81163 0
M  V30 5313 C 508.797 0.331158 5.20147 0
M  V30 5314 C 506.125 0.862715 5.80322 0
M  V30 5315 C 508.477 1.24178 6.20292 0
M  V30 5316 C 507.141 1.51252 6.50138 0
M  V30 5317 H 506.411 -0.231278 0.703983 0
M  V30 5318 H 509.058 0.108294 1.91194 0
M  V30 5319 H 507.363 -2.08921 3.3145 0
M  V30 5320 H 509.06 -1.80326 3.58167 0
M  V30 5321 H 505.65 -0.53614 4.25233 0
M  V30 5322 H 509.834 0.141826 4.96097 0
M  V30 5323 H 505.09 1.08003 6.01785 0
M  V30 5324 H 509.264 1.75381 6.73954 0
M  V30 5325 H 506.891 2.22897 7.26788 0
M  V30 5326 N 508.466 -1.55915 -0.229846 0
M  V30 5327 C 509.429 -1.90914 -1.26824 0
M  V30 5328 C 510.429 -0.786999 -1.40225 0
M  V30 5329 O 511.619 -1.05484 -1.38632 0
M  V30 5330 C 508.751 -2.15264 -2.64337 0
M  V30 5331 H 509.944 -2.8378 -0.969998 0
M  V30 5332 H 507.497 -1.49069 -0.4699 0
M  V30 5333 H 508.232 -1.24923 -2.99274 0
M  V30 5334 H 508.017 -2.97005 -2.55989 0
M  V30 5335 H 509.507 -2.43467 -3.39284 0
M  V30 5336 N 509.944 0.496216 -1.49584 0
M  V30 5337 C 511.184 1.26015 -1.60933 0
M  V30 5338 C 511.548 1.89772 -0.291646 0
M  V30 5339 O 512.749 2.67334 -0.280357 0
M  V30 5340 C 511.02 2.29506 -2.73974 0
M  V30 5341 S 512.579 3.15175 -3.05303 0
M  V30 5342 H 509.397 0.428194 -0.567601 0
M  V30 5343 H 511.999 0.561484 -1.87263 0
M  V30 5344 H 510.703 1.81205 -3.68229 0
M  V30 5345 H 510.234 3.04036 -2.49651 0
M  V30 5346 H 512.249 4.30244 -2.47193 0
M  V30 5347 N 511.423 1.38739 0.74761 0
M  V30 5348 C 512.834 1.31507 1.32524 0
M  V30 5349 C 513.185 -0.0263963 1.96182 0
M  V30 5350 O 512.31 -0.92849 1.95469 0
M  V30 5351 C 512.905 2.38162 2.40966 0
M  V30 5352 C 511.464 2.34489 2.94434 0
M  V30 5353 C 510.611 2.20712 1.67873 0
M  V30 5354 H 513.562 1.4901 0.546043 0
M  V30 5355 H 513.583 2.04222 3.21051 0
M  V30 5356 H 513.095 3.35783 1.94605 0
M  V30 5357 H 511.196 1.40467 3.45108 0
M  V30 5358 H 511.309 3.28861 3.48407 0
M  V30 5359 H 509.673 1.67667 1.91729 0
M  V30 5360 H 510.456 3.20285 1.23582 0
M  V30 5361 N 512.901 -0.976442 1.23707 0
M  V30 5362 C 514.126 -1.75875 1.09922 0
M  V30 5363 C 514.551 -1.84911 -0.34489 0
M  V30 5364 O 513.909 -1.31363 -1.24954 0
M  V30 5365 C 513.957 -3.16179 1.73388 0
M  V30 5366 O 513.061 -4.00124 0.99871 0
M  V30 5367 H 512.402 -0.540954 0.385052 0
M  V30 5368 H 514.932 -1.22546 1.6384 0
M  V30 5369 H 514.942 -3.66741 1.78788 0
M  V30 5370 H 513.617 -3.08917 2.78466 0
M  V30 5371 H 512.194 -3.58624 1.02193 0
M  V30 5372 N 514.379 -1.04941 -1.1758 0
M  V30 5373 C 515.326 -0.648155 -2.21512 0
M  V30 5374 C 516.296 0.348431 -1.62404 0
M  V30 5375 O 517.481 0.240419 -1.89279 0
M  V30 5376 C 514.621 -0.0264291 -3.4509 0
M  V30 5377 C 513.734 -1.07154 -4.185 0
M  V30 5378 C 512.869 -0.417403 -5.29558 0
M  V30 5379 C 511.908 -1.447 -5.94751 0
M  V30 5380 N 511.045 -0.817203 -6.97328 0
M  V30 5381 H 515.885 -1.53891 -2.55189 0
M  V30 5382 H 513.422 -0.769699 -1.25356 0
M  V30 5383 H 515.38 0.351456 -4.15717 0
M  V30 5384 H 514.01 0.827802 -3.12005 0
M  V30 5385 H 513.062 -1.56728 -3.46613 0
M  V30 5386 H 514.374 -1.8532 -4.63096 0
M  V30 5387 H 513.528 0.0142061 -6.06698 0
M  V30 5388 H 512.267 0.396265 -4.86087 0
M  V30 5389 H 511.272 -1.88865 -5.16343 0
M  V30 5390 H 512.497 -2.26252 -6.40302 0
M  V30 5391 H 510.443 -0.0239995 -6.55996 0
M  V30 5392 H 510.36 -1.53644 -7.40223 0
M  V30 5393 H 511.628 -0.410283 -7.7842 0
M  V30 5394 N 515.857 1.33968 -0.830081 0
M  V30 5395 C 516.82 2.27694 -0.26235 0
M  V30 5396 C 517.82 1.50589 0.563876 0
M  V30 5397 O 519.01 1.70028 0.378941 0
M  V30 5398 C 516.142 3.35002 0.63138 0
M  V30 5399 H 517.335 2.79419 -1.08928 0
M  V30 5400 H 514.888 1.44221 -0.602486 0
M  V30 5401 H 515.623 2.88504 1.48109 0
M  V30 5402 H 515.408 3.92079 0.0403276 0
M  V30 5403 H 516.898 4.04897 1.02217 0
M  V30 5404 N 517.335 0.585699 1.46312 0
M  V30 5405 C 518.583 0.072278 2.01971 0
M  V30 5406 C 518.904 -1.29345 1.45928 0
M  V30 5407 O 518.174 -1.84973 0.645109 0
M  V30 5408 H 516.754 0.023729 0.746623 0
M  V30 5409 H 519.416 0.762155 1.7938 0
M  V30 5410 H 518.512 0.00552767 3.121 0
M  V30 5411 N 518.813 -1.54241 0.323641 0
M  V30 5412 C 520.06 -2.0057 -0.27891 0
M  V30 5413 C 520.388 -1.21181 -1.52136 0
M  V30 5414 O 519.643 -0.282043 -1.93657 0
M  V30 5415 C 519.942 -3.5129 -0.658031 0
M  V30 5416 C 519.608 -4.48281 0.485252 0
M  V30 5417 C 518.27 -4.74519 0.799055 0
M  V30 5418 C 520.622 -5.05909 1.25322 0
M  V30 5419 C 517.95 -5.55643 1.88354 0
M  V30 5420 C 520.302 -5.88215 2.32779 0
M  V30 5421 C 518.966 -6.12755 2.64741 0
M  V30 5422 H 518.236 -0.733938 -0.10206 0
M  V30 5423 H 520.883 -1.862 0.447435 0
M  V30 5424 H 519.188 -3.63388 -1.4648 0
M  V30 5425 H 520.885 -3.84578 -1.1358 0
M  V30 5426 H 517.475 -4.27979 0.230593 0
M  V30 5427 H 521.659 -4.8562 1.02404 0
M  V30 5428 H 516.915 -5.72888 2.13564 0
M  V30 5429 H 521.089 -6.31888 2.92729 0
M  V30 5430 H 518.716 -6.75404 3.48904 0
M  V30 5431 N 520.291 -0.0518155 -1.57515 0
M  V30 5432 C 521.516 0.634896 -1.97443 0
M  V30 5433 C 521.941 1.63546 -0.929207 0
M  V30 5434 O 521.299 1.80981 0.107484 0
M  V30 5435 C 521.347 1.29765 -3.36442 0
M  V30 5436 O 520.451 2.41333 -3.34413 0
M  V30 5437 H 519.792 0.164994 -0.643174 0
M  V30 5438 H 522.322 -0.120407 -2.04245 0
M  V30 5439 H 522.332 1.64918 -3.73184 0
M  V30 5440 H 521.007 0.564361 -4.12053 0
M  V30 5441 H 519.584 2.08122 -3.09418 0
M  V30 5442 N 521.769 1.56035 0.221574 0
M  V30 5443 C 523.185 1.49026 0.571271 0
M  V30 5444 C 523.385 0.746912 1.87146 0
M  V30 5445 O 522.441 0.286566 2.50869 0
M  V30 5446 C 523.754 2.93579 0.650522 0
M  V30 5447 C 525.302 3.04099 0.741151 0
M  V30 5448 C 525.777 4.5001 0.851747 0
M  V30 5449 N 527.268 4.54053 0.915968 0
M  V30 5450 C 528.003 5.64232 1.02125 0
M  V30 5451 N 527.499 6.84164 1.09049 0
M  V30 5452 N 529.292 5.52084 1.05639 0
M  V30 5453 H 521.443 2.02791 -0.63162 0
M  V30 5454 H 523.706 0.921736 -0.221602 0
M  V30 5455 H 523.412 3.50912 -0.235253 0
M  V30 5456 H 523.286 3.45476 1.51413 0
M  V30 5457 H 525.673 2.4683 1.61737 0
M  V30 5458 H 525.754 2.55371 -0.148128 0
M  V30 5459 H 525.398 5.07896 -0.0200117 0
M  V30 5460 H 525.328 4.96444 1.75644 0
M  V30 5461 H 527.819 3.67683 0.872782 0
M  V30 5462 H 528.132 7.63883 1.1706 0
M  V30 5463 H 526.477 6.86875 1.05962 0
M  V30 5464 H 529.668 4.57317 0.998953 0
M  V30 5465 H 529.841 6.37983 1.13498 0
M  V30 5466 N 523.247 -0.488276 1.49845 0
M  V30 5467 C 524.195 -1.60917 1.67954 0
M  V30 5468 C 525.189 -1.6038 0.54539 0
M  V30 5469 O 526.395 -1.64736 0.7254 0
M  V30 5470 H 522.77 -0.533658 0.529824 0
M  V30 5471 H 524.741 -1.428 2.62013 0
M  V30 5472 C 523.49 -2.98975 1.77509 0
M  V30 5473 H 522.813 -3.00099 2.6416 0
M  V30 5474 H 524.253 -3.76906 1.9421 0
M  V30 5475 C 522.712 -3.3282 0.522745 0
M  V30 5476 O 523.242 -4.00208 -0.345866 0
M  V30 5477 N 521.448 -2.8808 0.381882 0
M  V30 5478 H 520.995 -2.33415 1.08974 0
M  V30 5479 H 520.953 -3.11091 -0.454929 0
M  V30 5480 N 524.725 -1.39134 -0.740242 0
M  V30 5481 C 525.974 -1.35384 -1.49512 0
M  V30 5482 C 526.287 0.04919 -1.95538 0
M  V30 5483 O 527.493 0.209257 -2.70692 0
M  V30 5484 C 525.949 -2.37812 -2.70136 0
M  V30 5485 C 525.557 -3.83804 -2.31081 0
M  V30 5486 C 527.301 -2.4313 -3.47977 0
M  V30 5487 C 525.208 -4.77886 -3.48395 0
M  V30 5488 H 524.138 -0.503297 -0.561434 0
M  V30 5489 H 526.789 -1.64754 -0.807974 0
M  V30 5490 H 525.171 -2.01505 -3.40899 0
M  V30 5491 H 526.345 -4.29123 -1.67898 0
M  V30 5492 H 524.66 -3.81732 -1.66343 0
M  V30 5493 H 527.257 -3.10614 -4.35228 0
M  V30 5494 H 527.6 -1.45423 -3.90074 0
M  V30 5495 H 528.133 -2.78304 -2.84239 0
M  V30 5496 H 524.872 -5.76836 -3.11353 0
M  V30 5497 H 524.392 -4.3725 -4.10576 0
M  V30 5498 H 526.071 -4.96538 -4.148 0
M  V30 5499 N 526.204 0.969867 -1.24223 0
M  V30 5500 C 527.137 2.06279 -0.975926 0
M  V30 5501 C 528.115 1.62353 0.0895385 0
M  V30 5502 O 529.299 1.88442 -0.0469418 0
M  V30 5503 C 526.426 3.35391 -0.472315 0
M  V30 5504 C 525.472 3.98266 -1.526 0
M  V30 5505 S 526.305 4.36172 -3.10667 0
M  V30 5506 C 527.461 5.68423 -2.62003 0
M  V30 5507 H 527.694 2.28551 -1.90137 0
M  V30 5508 H 525.227 1.10748 -1.07584 0
M  V30 5509 H 527.185 4.10068 -0.188376 0
M  V30 5510 H 525.846 3.1111 0.432378 0
M  V30 5511 H 525.039 4.91307 -1.12399 0
M  V30 5512 H 524.641 3.30009 -1.75983 0
M  V30 5513 H 526.933 6.45842 -2.0468 0
M  V30 5514 H 527.876 6.13478 -3.53625 0
M  V30 5515 H 528.284 5.26928 -2.02502 0
M  V30 5516 N 527.682 1.05563 1.17022 0
M  V30 5517 C 528.63 0.653887 2.2322 0
M  V30 5518 C 529.624 -0.326642 1.66221 0
M  V30 5519 O 530.83 -0.192301 1.7897 0
M  V30 5520 H 527.205 0.193297 0.726733 0
M  V30 5521 H 529.176 1.5596 2.54399 0
M  V30 5522 C 527.925 0.0485434 3.47666 0
M  V30 5523 H 527.248 0.79413 3.91834 0
M  V30 5524 H 528.688 -0.195133 4.23551 0
M  V30 5525 C 527.147 -1.20583 3.14581 0
M  V30 5526 O 527.677 -2.29475 3.29703 0
M  V30 5527 N 525.883 -1.10493 2.68774 0
M  V30 5528 H 525.43 -0.218795 2.56669 0
M  V30 5529 H 525.388 -1.94507 2.47011 0
M  V30 5530 N 529.16 -1.33526 0.837174 0
M  V30 5531 C 530.409 -1.97098 0.428387 0
M  V30 5532 C 530.722 -1.67062 -1.01734 0
M  V30 5533 O 531.928 -2.24235 -1.53072 0
M  V30 5534 C 530.384 -3.52725 0.715075 0
M  V30 5535 C 529.992 -3.9164 2.17537 0
M  V30 5536 C 531.736 -4.22857 0.373154 0
M  V30 5537 C 529.643 -5.40237 2.40619 0
M  V30 5538 H 528.573 -0.737589 0.156455 0
M  V30 5539 H 531.224 -1.52169 1.02552 0
M  V30 5540 H 529.606 -3.95971 0.0475904 0
M  V30 5541 H 530.78 -3.59456 2.88319 0
M  V30 5542 H 529.095 -3.34485 2.4801 0
M  V30 5543 H 531.692 -5.32133 0.523264 0
M  V30 5544 H 532.035 -4.10647 -0.683708 0
M  V30 5545 H 532.568 -3.85135 0.995801 0
M  V30 5546 H 529.307 -5.57449 3.44864 0
M  V30 5547 H 528.827 -5.73887 1.74396 0
M  V30 5548 H 530.506 -6.07102 2.23688 0
M  V30 5549 N 530.638 -0.59345 -1.46 0
M  V30 5550 C 531.887 -0.0808084 -2.01538 0
M  V30 5551 C 532.2 1.29112 -1.46934 0
M  V30 5552 O 533.406 1.8957 -1.94359 0
M  V30 5553 C 531.862 -0.0938311 -3.59778 0
M  V30 5554 C 531.47 -1.46474 -4.23379 0
M  V30 5555 C 533.214 0.364306 -4.22934 0
M  V30 5556 C 531.121 -1.4349 -5.73729 0
M  V30 5557 H 530.051 -0.0264407 -0.753536 0
M  V30 5558 H 532.702 -0.746689 -1.67621 0
M  V30 5559 H 531.084 0.638427 -3.9082 0
M  V30 5560 H 532.258 -2.21758 -4.03931 0
M  V30 5561 H 530.573 -1.86379 -3.7236 0
M  V30 5562 H 533.17 0.405584 -5.3316 0
M  V30 5563 H 533.513 1.38409 -3.92618 0
M  V30 5564 H 534.046 -0.31423 -3.96557 0
M  V30 5565 H 530.785 -2.43184 -6.08722 0
M  V30 5566 H 530.305 -0.724431 -5.95409 0
M  V30 5567 H 531.984 -1.15243 -6.36654 0
M  V30 5568 N 532.116 1.54067 -0.331816 0
M  V30 5569 C 533.393 1.92915 0.322955 0
M  V30 5570 C 533.773 1.26225 1.69205 0
M  V30 5571 O 533.121 0.408919 2.24811 0
M  V30 5572 C 533.331 3.46619 0.406946 0
M  V30 5573 C 534.679 4.19386 0.663339 0
M  V30 5574 O 535.703 3.5282 0.489536 0
M  V30 5575 O 534.562 5.37288 0.999193 0
M  V30 5576 H 531.656 0.805808 0.186016 0
M  V30 5577 H 534.202 1.65342 -0.382135 0
M  V30 5578 H 532.974 3.87354 -0.554287 0
M  V30 5579 H 532.597 3.80324 1.15929 0
M  V30 5580 N 533.594 0.0601682 1.57485 0
M  V30 5581 C 534.84 -0.612501 1.93329 0
M  V30 5582 C 535.173 -1.6996 0.939526 0
M  V30 5583 O 534.448 -1.94472 -0.0330957 0
M  V30 5584 C 534.731 -1.20025 3.39508 0
M  V30 5585 C 534.584 -0.12059 4.49638 0
M  V30 5586 C 535.903 -2.10923 3.86264 0
M  V30 5587 H 533.022 -0.221185 0.703027 0
M  V30 5588 H 535.664 0.123768 1.89596 0
M  V30 5589 H 533.814 -1.82774 3.42821 0
M  V30 5590 H 535.486 0.51185 4.58452 0
M  V30 5591 H 533.729 0.550251 4.30296 0
M  V30 5592 H 534.4 -0.572019 5.49028 0
M  V30 5593 H 536.876 -1.58124 3.84884 0
M  V30 5594 H 535.752 -2.48987 4.8918 0
M  V30 5595 H 536.013 -3.01292 3.23536 0
M  V30 5596 N 535.072 -1.5615 -0.213296 0
M  V30 5597 C 536.318 -1.79812 -0.937849 0
M  V30 5598 C 536.651 -0.631201 -1.83656 0
M  V30 5599 O 535.926 0.369165 -1.90964 0
M  V30 5600 C 536.209 -3.13613 -1.76972 0
M  V30 5601 C 536.062 -4.40766 -0.89695 0
M  V30 5602 C 537.381 -3.43931 -2.7459 0
M  V30 5603 H 534.5 -0.654138 -0.339518 0
M  V30 5604 H 537.142 -1.88877 -0.20623 0
M  V30 5605 H 535.292 -3.06015 -2.39347 0
M  V30 5606 H 536.964 -4.60392 -0.289306 0
M  V30 5607 H 535.207 -4.33326 -0.202756 0
M  V30 5608 H 535.878 -5.30843 -1.51358 0
M  V30 5609 H 538.354 -3.5171 -2.22349 0
M  V30 5610 H 537.23 -4.38706 -3.29891 0
M  V30 5611 H 537.491 -2.6651 -3.52739 0
M  V30 5612 N 536.55 0.480323 -1.50102 0
M  V30 5613 C 537.513 1.56181 -1.6775 0
M  V30 5614 C 538.513 1.51156 -0.548503 0
M  V30 5615 O 539.703 1.5394 -0.815363 0
M  V30 5616 C 536.835 2.95823 -1.69415 0
M  V30 5617 H 538.028 1.41855 -2.6423 0
M  V30 5618 H 535.581 0.70605 -1.39444 0
M  V30 5619 H 536.316 3.15604 -0.745948 0
M  V30 5620 H 536.101 3.00878 -2.51425 0
M  V30 5621 H 537.591 3.74359 -1.85054 0
M  V30 5622 N 538.028 1.39524 0.732853 0
M  V30 5623 C 539.277 1.36175 1.48792 0
M  V30 5624 C 539.59 -0.0388195 1.95561 0
M  V30 5625 O 540.796 -0.194899 2.708 0
M  V30 5626 C 539.252 2.39242 2.68871 0
M  V30 5627 C 538.86 3.85024 2.29042 0
M  V30 5628 C 540.604 2.44972 3.46683 0
M  V30 5629 C 538.511 4.79727 3.45856 0
M  V30 5630 H 537.441 0.506267 0.558757 0
M  V30 5631 H 540.092 1.65181 0.799226 0
M  V30 5632 H 538.474 2.0331 3.39825 0
M  V30 5633 H 539.648 4.30008 1.6562 0
M  V30 5634 H 537.963 3.82609 1.64316 0
M  V30 5635 H 540.56 3.12918 4.33574 0
M  V30 5636 H 540.903 1.4749 3.89297 0
M  V30 5637 H 541.436 2.79808 2.82759 0
M  V30 5638 H 538.175 5.78479 3.08289 0
M  V30 5639 H 537.695 4.39421 4.08251 0
M  V30 5640 H 539.374 4.98731 4.12161 0
M  V30 5641 N 539.506 -0.963266 1.24736 0
M  V30 5642 C 540.753 -1.7068 1.0897 0
M  V30 5643 C 541.081 -1.90934 -0.370751 0
M  V30 5644 O 540.336 -1.47155 -1.29011 0
M  V30 5645 C 540.635 -3.09944 1.7796 0
M  V30 5646 C 540.301 -3.09518 3.27887 0
M  V30 5647 C 538.963 -3.09109 3.68789 0
M  V30 5648 C 541.315 -3.03509 4.23712 0
M  V30 5649 C 538.643 -3.00429 5.03944 0
M  V30 5650 C 540.995 -2.96371 5.5888 0
M  V30 5651 C 539.659 -2.94293 5.99123 0
M  V30 5652 H 538.929 -0.624564 0.398749 0
M  V30 5653 H 541.576 -1.12603 1.54896 0
M  V30 5654 H 539.881 -3.71513 1.2444 0
M  V30 5655 H 541.578 -3.66278 1.63222 0
M  V30 5656 H 538.168 -3.10603 2.95337 0
M  V30 5657 H 542.352 -3.0295 3.93109 0
M  V30 5658 H 537.608 -2.97183 5.34314 0
M  V30 5659 H 541.782 -2.90681 6.32833 0
M  V30 5660 H 539.409 -2.87322 7.03811 0
M  V30 5661 N 540.985 -1.06182 -1.16461 0
M  V30 5662 C 542.396 -0.802426 -1.68576 0
M  V30 5663 C 542.747 0.67412 -1.84255 0
M  V30 5664 O 541.872 1.52303 -1.5373 0
M  V30 5665 C 542.467 -1.45002 -3.06202 0
M  V30 5666 C 541.026 -1.23843 -3.55443 0
M  V30 5667 C 540.173 -1.52724 -2.31454 0
M  V30 5668 H 543.124 -1.22545 -1.00839 0
M  V30 5669 H 543.145 -0.864731 -3.70544 0
M  V30 5670 H 542.657 -2.52466 -2.94759 0
M  V30 5671 H 540.758 -0.183487 -3.72148 0
M  V30 5672 H 540.871 -1.95036 -4.37604 0
M  V30 5673 H 539.235 -0.947726 -2.36411 0
M  V30 5674 H 540.018 -2.61343 -2.22609 0
M  V30 5675 N 542.463 1.3308 -0.844243 0
M  V30 5676 C 543.693 2.01515 -0.455541 0
M  V30 5677 C 544.101 1.63655 0.949406 0
M  V30 5678 O 543.444 0.84848 1.62931 0
M  V30 5679 C 543.506 3.55967 -0.502801 0
M  V30 5680 C 543.17 4.17222 -1.86481 0
M  V30 5681 C 544.167 4.36205 -2.8288 0
M  V30 5682 C 541.852 4.53528 -2.15911 0
M  V30 5683 C 543.846 4.90649 -4.06869 0
M  V30 5684 C 541.533 5.07679 -3.40155 0
M  V30 5685 C 542.531 5.26186 -4.35451 0
M  V30 5686 O 542.219 5.79183 -5.57496 0
M  V30 5687 H 541.951 0.65199 -0.178565 0
M  V30 5688 H 544.505 1.70867 -1.1399 0
M  V30 5689 H 542.735 3.85965 0.23836 0
M  V30 5690 H 544.424 4.05688 -0.131169 0
M  V30 5691 H 545.19 4.085 -2.61444 0
M  V30 5692 H 541.069 4.38414 -1.42528 0
M  V30 5693 H 544.613 5.0501 -4.81259 0
M  V30 5694 H 540.51 5.34815 -3.61446 0
M  V30 5695 H 541.278 5.97591 -5.5931 0
M  V30 5696 N 543.941 0.601185 1.45683 0
M  V30 5697 C 545.188 0.0938811 2.02282 0
M  V30 5698 C 545.516 -1.27315 1.47041 0
M  V30 5699 O 544.771 -1.85193 0.632623 0
M  V30 5700 C 545.07 -0.00222425 3.574 0
M  V30 5701 C 544.736 1.29963 4.31764 0
M  V30 5702 C 543.398 1.65625 4.51798 0
M  V30 5703 C 545.75 2.1603 4.74321 0
M  V30 5704 C 543.078 2.87119 5.11644 0
M  V30 5705 C 545.43 3.36766 5.3551 0
M  V30 5706 C 544.094 3.72689 5.53768 0
M  V30 5707 H 543.364 0.0343535 0.740203 0
M  V30 5708 H 546.011 0.781522 1.74827 0
M  V30 5709 H 544.316 -0.773096 3.84097 0
M  V30 5710 H 546.013 -0.410794 3.9889 0
M  V30 5711 H 542.603 1.01204 4.1648 0
M  V30 5712 H 546.787 1.89778 4.58582 0
M  V30 5713 H 542.043 3.15065 5.2397 0
M  V30 5714 H 546.217 4.03713 5.67441 0
M  V30 5715 H 543.844 4.66918 5.99909 0
M  V30 5716 N 545.419 -1.53889 0.339982 0
M  V30 5717 C 546.668 -2.00035 -0.258604 0
M  V30 5718 C 546.981 -1.23179 -1.51942 0
M  V30 5719 O 548.187 -1.59784 -2.19503 0
M  V30 5720 C 546.643 -3.56249 -0.511359 0
M  V30 5721 C 546.251 -4.41957 0.733349 0
M  V30 5722 C 547.995 -4.1082 -1.069 0
M  V30 5723 C 545.902 -5.89673 0.451591 0
M  V30 5724 H 544.832 -0.747284 -0.10041 0
M  V30 5725 H 547.483 -1.77776 0.454758 0
M  V30 5726 H 545.865 -3.7456 -1.28533 0
M  V30 5727 H 547.039 -4.35421 1.50815 0
M  V30 5728 H 545.354 -3.9836 1.21237 0
M  V30 5729 H 547.951 -5.18789 -1.2947 0
M  V30 5730 H 548.294 -3.63817 -2.02343 0
M  V30 5731 H 548.827 -3.96205 -0.355817 0
M  V30 5732 H 545.566 -6.40903 1.37565 0
M  V30 5733 H 545.086 -5.99122 -0.285193 0
M  V30 5734 H 546.765 -6.46965 0.0675067 0
M  V30 5735 N 546.897 -0.0685191 -1.57451 0
M  V30 5736 C 548.125 0.610462 -1.97689 0
M  V30 5737 C 548.54 1.63346 -0.946758 0
M  V30 5738 O 547.897 1.82377 0.0669868 0
M  V30 5739 C 547.948 1.28196 -3.38006 0
M  V30 5740 O 547.669 0.299906 -4.37072 0
M  V30 5741 C 549.17 2.04907 -3.931 0
M  V30 5742 H 546.39 0.165689 -0.650222 0
M  V30 5743 H 548.934 -0.139953 -2.04021 0
M  V30 5744 H 547.089 1.98348 -3.32771 0
M  V30 5745 H 547.503 0.78126 -5.18649 0
M  V30 5746 H 548.977 2.47287 -4.93511 0
M  V30 5747 H 549.454 2.9043 -3.29465 0
M  V30 5748 H 550.06 1.39629 -4.01726 0
M  V30 5749 N 548.375 1.56261 0.205012 0
M  V30 5750 C 549.305 1.96779 1.257 0
M  V30 5751 C 550.286 0.838309 1.48008 0
M  V30 5752 O 551.471 1.10189 1.59913 0
M  V30 5753 C 548.601 2.29876 2.60335 0
M  V30 5754 C 547.555 3.45469 2.52656 0
M  V30 5755 C 546.881 3.64215 3.91473 0
M  V30 5756 C 548.181 4.79954 2.06014 0
M  V30 5757 H 549.875 2.84904 0.920338 0
M  V30 5758 H 547.421 1.37072 0.441277 0
M  V30 5759 H 549.374 2.56814 3.34102 0
M  V30 5760 H 548.098 1.38622 2.95722 0
M  V30 5761 H 546.757 3.18605 1.81345 0
M  V30 5762 H 546.405 2.70309 4.24196 0
M  V30 5763 H 546.105 4.41973 3.87213 0
M  V30 5764 H 547.629 3.93519 4.66878 0
M  V30 5765 H 549.043 5.05989 2.69533 0
M  V30 5766 H 547.44 5.61111 2.12777 0
M  V30 5767 H 548.51 4.74201 1.01297 0
M  V30 5768 N 549.853 -0.472356 1.50355 0
M  V30 5769 C 551.101 -1.22211 1.60962 0
M  V30 5770 C 551.422 -1.92497 0.311439 0
M  V30 5771 O 550.692 -1.8405 -0.671002 0
M  V30 5772 H 549.272 -0.454092 0.593135 0
M  V30 5773 H 551.934 -0.544977 1.87126 0
M  V30 5774 H 551.03 -1.9707 2.42012 0
M  V30 5775 N 551.331 -1.39911 -0.725443 0
M  V30 5776 C 552.559 -1.40949 -1.51463 0
M  V30 5777 C 552.974 -0.0065242 -1.88799 0
M  V30 5778 O 552.331 0.967163 -1.54765 0
M  V30 5779 C 552.382 -2.29119 -2.79619 0
M  V30 5780 O 552.103 -3.63952 -2.43866 0
M  V30 5781 C 553.604 -2.38642 -3.73584 0
M  V30 5782 H 550.824 -0.481091 -0.467752 0
M  V30 5783 H 553.368 -1.83843 -0.895651 0
M  V30 5784 H 551.523 -1.89612 -3.37826 0
M  V30 5785 H 551.937 -4.10677 -3.26258 0
M  V30 5786 H 553.411 -3.04563 -4.60375 0
M  V30 5787 H 553.888 -1.40846 -4.16004 0
M  V30 5788 H 554.494 -2.78659 -3.21293 0
M  V30 5789 N 552.809 0.956637 -1.25245 0
M  V30 5790 C 553.719 2.0868 -1.0719 0
M  V30 5791 C 554.735 1.73997 -0.00959074 0
M  V30 5792 O 555.911 2.00301 -0.210104 0
M  V30 5793 C 552.976 3.39754 -0.690526 0
M  V30 5794 C 552.037 3.88316 -1.83055 0
M  V30 5795 C 551.27 5.13134 -1.46728 0
M  V30 5796 O 551.493 5.6925 -0.362029 0
M  V30 5797 O 550.427 5.56356 -2.29677 0
M  V30 5798 H 554.253 2.26813 -2.01965 0
M  V30 5799 H 551.838 1.07098 -1.04165 0
M  V30 5800 H 553.72 4.18543 -0.489871 0
M  V30 5801 H 552.395 3.22896 0.227981 0
M  V30 5802 H 551.302 3.1054 -2.08604 0
M  V30 5803 H 552.635 4.09669 -2.72822 0
M  V30 5804 N 554.287 1.06798 1.15896 0
M  V30 5805 C 555.217 0.704677 2.22613 0
M  V30 5806 C 556.198 -0.305252 1.67339 0
M  V30 5807 O 557.383 -0.179247 1.93371 0
M  V30 5808 C 554.513 0.0957325 3.47168 0
M  V30 5809 C 553.467 1.0322 4.15367 0
M  V30 5810 C 552.793 0.286293 5.33933 0
M  V30 5811 C 554.093 2.36341 4.65768 0
M  V30 5812 H 555.787 1.59688 2.53259 0
M  V30 5813 H 553.333 0.769257 1.21731 0
M  V30 5814 H 555.286 -0.170333 4.21056 0
M  V30 5815 H 554.01 -0.831516 3.15838 0
M  V30 5816 H 552.669 1.28309 3.43413 0
M  V30 5817 H 552.317 -0.644237 4.98857 0
M  V30 5818 H 552.017 0.910436 5.80504 0
M  V30 5819 H 553.541 0.0278938 6.10594 0
M  V30 5820 H 554.955 2.1561 5.31211 0
M  V30 5821 H 553.352 2.94299 5.2298 0
M  V30 5822 H 554.422 2.99047 3.81705 0
M  V30 5823 N 555.766 -1.3263 0.851289 0
M  V30 5824 C 556.729 -2.27247 0.298541 0
M  V30 5825 C 557.729 -1.51467 -0.539847 0
M  V30 5826 O 558.919 -1.7061 -0.351843 0
M  V30 5827 C 556.051 -3.35964 -0.578004 0
M  V30 5828 H 557.244 -2.7765 1.13359 0
M  V30 5829 H 554.797 -1.43245 0.625354 0
M  V30 5830 H 555.532 -2.90823 -1.435 0
M  V30 5831 H 555.317 -3.92094 0.0220539 0
M  V30 5832 H 556.807 -4.06472 -0.957626 0
M  V30 5833 N 557.244 -0.608902 -1.45362 0
M  V30 5834 C 558.154 0.110969 -2.34337 0
M  V30 5835 C 559.17 0.859007 -1.51318 0
M  V30 5836 O 560.346 0.816296 -1.84116 0
M  V30 5837 C 557.411 1.09494 -3.28956 0
M  V30 5838 C 556.472 0.348718 -4.27881 0
M  V30 5839 C 555.705 1.28582 -5.17979 0
M  V30 5840 O 555.928 2.52369 -5.11533 0
M  V30 5841 O 554.862 0.782172 -5.96796 0
M  V30 5842 H 558.688 -0.620258 -2.97299 0
M  V30 5843 H 556.273 -0.36916 -1.44767 0
M  V30 5844 H 558.155 1.66163 -3.87257 0
M  V30 5845 H 556.83 1.80717 -2.68557 0
M  V30 5846 H 555.737 -0.260465 -3.73192 0
M  V30 5847 H 557.07 -0.323049 -4.91139 0
M  V30 5848 N 558.722 1.53707 -0.348139 0
M  V30 5849 C 559.654 2.22725 0.540946 0
M  V30 5850 C 560.667 1.2354 1.06027 0
M  V30 5851 O 561.856 1.49867 0.96964 0
M  V30 5852 C 558.956 2.89756 1.75768 0
M  V30 5853 C 558.129 4.15297 1.37285 0
M  V30 5854 C 557.188 4.65697 2.44976 0
M  V30 5855 O 556.214 5.29798 2.08092 0
M  V30 5856 N 557.416 4.42017 3.763 0
M  V30 5857 H 560.181 2.99658 -0.0501592 0
M  V30 5858 H 557.742 1.60979 -0.17248 0
M  V30 5859 H 559.734 3.20388 2.47252 0
M  V30 5860 H 558.304 2.16382 2.25605 0
M  V30 5861 H 557.524 3.9116 0.488584 0
M  V30 5862 H 558.812 4.96948 1.09179 0
M  V30 5863 H 558.21 3.9076 4.09051 0
M  V30 5864 H 556.767 4.77242 4.4394 0
M  V30 5865 N 560.2 0.0768682 1.57412 0
M  V30 5866 C 561.132 -0.918248 2.10002 0
M  V30 5867 C 562.145 -1.25808 1.03325 0
M  V30 5868 O 563.334 -1.21438 1.30824 0
M  V30 5869 C 560.434 -2.23263 2.54964 0
M  V30 5870 C 559.607 -2.07088 3.8527 0
M  V30 5871 C 558.666 -3.21876 4.16272 0
M  V30 5872 O 557.692 -2.96643 4.8579 0
M  V30 5873 N 558.894 -4.4712 3.70221 0
M  V30 5874 H 561.659 -0.469209 2.96004 0
M  V30 5875 H 559.22 -0.108725 1.61535 0
M  V30 5876 H 561.212 -2.9897 2.72762 0
M  V30 5877 H 559.782 -2.59649 1.74072 0
M  V30 5878 H 559.002 -1.15818 3.76802 0
M  V30 5879 H 560.29 -1.93537 4.70554 0
M  V30 5880 H 559.688 -4.70506 3.1407 0
M  V30 5881 H 558.245 -5.19837 3.93209 0
M  V30 5882 N 561.678 -1.56367 -0.196722 0
M  V30 5883 C 563.089 -1.70462 -0.761545 0
M  V30 5884 C 563.44 -0.683161 -1.83922 0
M  V30 5885 O 562.565 0.160753 -2.15802 0
M  V30 5886 C 563.16 -3.09057 -1.38814 0
M  V30 5887 C 561.719 -3.24922 -1.90007 0
M  V30 5888 C 560.866 -2.66412 -0.769399 0
M  V30 5889 H 563.817 -1.58675 0.0283263 0
M  V30 5890 H 563.838 -3.06296 -2.2575 0
M  V30 5891 H 563.35 -3.83378 -0.603559 0
M  V30 5892 H 561.451 -2.55514 -2.71189 0
M  V30 5893 H 561.564 -4.3241 -2.06297 0
M  V30 5894 H 559.928 -2.25546 -1.18326 0
M  V30 5895 H 560.711 -3.433 0.00291773 0
M  V30 5896 N 563.156 0.464375 -1.50603 0
M  V30 5897 C 564.404 1.21356 -1.61608 0
M  V30 5898 C 564.725 1.92329 -0.321643 0
M  V30 5899 O 563.995 1.84403 0.661232 0
M  V30 5900 H 562.575 0.45094 -0.595535 0
M  V30 5901 H 565.237 0.535046 -1.87412 0
M  V30 5902 H 564.333 1.95783 -2.43054 0
M  V30 5903 N 564.634 1.40294 0.718013 0
M  V30 5904 C 565.882 1.38167 1.47494 0
M  V30 5905 C 566.203 -0.01607 1.94993 0
M  V30 5906 O 565.473 -0.970396 1.70177 0
M  V30 5907 H 564.053 0.508505 0.547203 0
M  V30 5908 H 566.715 1.75324 0.851322 0
M  V30 5909 H 565.811 2.05503 2.34894 0
M  V30 5910 N 566.112 -0.949982 1.2575 0
M  V30 5911 C 567.36 -1.6918 1.10555 0
M  V30 5912 C 567.681 -1.91773 -0.353298 0
M  V30 5913 O 566.951 -1.50814 -1.25027 0
M  V30 5914 H 565.531 -0.626952 0.406129 0
M  V30 5915 H 568.193 -1.1419 1.57945 0
M  V30 5916 H 567.289 -2.66915 1.61749 0
M  V30 5917 N 567.59 -1.07411 -1.15328 0
M  V30 5918 C 568.838 -0.796073 -1.85761 0
M  V30 5919 C 569.159 0.679864 -1.82764 0
M  V30 5920 O 568.429 1.49242 -1.269 0
M  V30 5921 H 567.009 -0.291495 -0.687779 0
M  V30 5922 H 569.671 -1.35799 -1.39802 0
M  V30 5923 H 568.767 -1.13114 -2.90881 0
M  V30 5924 N 569.068 1.32177 -0.85831 0
M  V30 5925 C 570.316 1.96735 -0.462568 0
M  V30 5926 C 570.637 1.6824 0.985911 0
M  V30 5927 O 569.907 0.991564 1.68952 0
M  V30 5928 H 568.487 0.727849 -0.168064 0
M  V30 5929 H 571.149 1.61195 -1.09554 0
M  V30 5930 H 570.245 3.06068 -0.610647 0
M  V30 5931 N 570.547 0.616602 1.45037 0
M  V30 5932 C 571.795 0.115103 2.01772 0
M  V30 5933 C 572.116 -1.2622 1.48639 0
M  V30 5934 O 571.386 -1.83563 0.684199 0
M  V30 5935 H 569.966 0.0395607 0.745952 0
M  V30 5936 H 572.628 0.800032 1.77723 0
M  V30 5937 H 571.724 0.0717274 3.12018 0
M  V30 5938 N 572.025 -1.5352 0.356285 0
M  V30 5939 C 572.957 -2.23009 -0.529127 0
M  V30 5940 C 573.97 -1.241 -1.05371 0
M  V30 5941 O 575.159 -1.50379 -0.961679 0
M  V30 5942 C 572.259 -2.90685 -1.74229 0
M  V30 5943 C 571.432 -4.16019 -1.35081 0
M  V30 5944 C 570.491 -4.66989 -2.42502 0
M  V30 5945 O 569.517 -5.30895 -2.05279 0
M  V30 5946 N 570.719 -4.44006 -3.7395 0
M  V30 5947 H 573.484 -2.99627 0.0660501 0
M  V30 5948 H 571.045 -1.60885 0.181014 0
M  V30 5949 H 573.037 -3.21695 -2.4555 0
M  V30 5950 H 571.607 -2.17575 -2.24454 0
M  V30 5951 H 570.827 -3.91414 -0.467833 0
M  V30 5952 H 572.115 -4.9752 -1.06542 0
M  V30 5953 H 571.513 -3.92924 -4.06973 0
M  V30 5954 H 570.07 -4.7959 -4.41403 0
M  V30 5955 N 573.503 -0.0852151 -1.57369 0
M  V30 5956 C 574.451 0.894856 -2.14698 0
M  V30 5957 C 575.445 1.29903 -1.08727 0
M  V30 5958 O 576.651 1.27471 -1.27088 0
M  V30 5959 H 573.026 0.306569 -0.686673 0
M  V30 5960 H 574.997 0.386542 -2.95886 0
M  V30 5961 C 573.746 2.14798 -2.73417 0
M  V30 5962 H 573.069 1.84585 -3.54638 0
M  V30 5963 H 574.509 2.81456 -3.1711 0
M  V30 5964 C 572.968 2.91546 -1.68828 0
M  V30 5965 O 573.498 3.85733 -1.12129 0
M  V30 5966 N 571.704 2.54901 -1.39549 0
M  V30 5967 H 571.251 1.7838 -1.85845 0
M  V30 5968 H 571.209 3.06553 -0.698054 0
M  V30 5969 N 574.981 1.5647 0.188427 0
M  V30 5970 C 576.229 1.80655 0.905986 0
M  V30 5971 C 576.55 0.659391 1.83513 0
M  V30 5972 O 575.82 -0.321868 1.93238 0
M  V30 5973 H 574.4 0.666391 0.337538 0
M  V30 5974 H 577.062 1.93949 0.192339 0
M  V30 5975 H 576.158 2.74066 1.49313 0
M  V30 5976 N 576.459 -0.456382 1.50847 0
M  V30 5977 C 577.391 -1.57033 1.66953 0
M  V30 5978 C 578.404 -1.53207 0.550593 0
M  V30 5979 O 579.593 -1.58328 0.824285 0
M  V30 5980 C 576.693 -2.95937 1.65149 0
M  V30 5981 C 575.866 -3.24475 2.93317 0
M  V30 5982 C 574.925 -4.43007 2.83957 0
M  V30 5983 O 573.951 -4.42592 3.57912 0
M  V30 5984 N 575.153 -5.45503 1.9851 0
M  V30 5985 H 577.918 -1.43629 2.63042 0
M  V30 5986 H 575.479 -0.645037 1.48495 0
M  V30 5987 H 577.471 -3.73224 1.56481 0
M  V30 5988 H 576.041 -3.03036 0.767343 0
M  V30 5989 H 575.261 -2.35664 3.16 0
M  V30 5990 H 576.549 -3.4036 3.78196 0
M  V30 5991 H 575.947 -5.48668 1.37766 0
M  V30 5992 H 574.504 -6.21716 1.95735 0
M  V30 5993 N 577.937 -1.40673 -0.710563 0
M  V30 5994 C 578.869 -1.37256 -1.83558 0
M  V30 5995 C 579.882 -0.277133 -1.60424 0
M  V30 5996 O 581.071 -0.537831 -1.70205 0
M  V30 5997 C 578.171 -1.1144 -3.20054 0
M  V30 5998 C 577.344 -2.32734 -3.70342 0
M  V30 5999 C 576.403 -2.03002 -4.85465 0
M  V30 6000 O 575.429 -2.75912 -4.97857 0
M  V30 6001 N 576.631 -1.01105 -5.71627 0
M  V30 6002 H 579.396 -2.34215 -1.86985 0
M  V30 6003 H 576.957 -1.35091 -0.892301 0
M  V30 6004 H 578.949 -0.895265 -3.94673 0
M  V30 6005 H 577.519 -0.231307 -3.11743 0
M  V30 6006 H 576.739 -2.70446 -2.86798 0
M  V30 6007 H 578.027 -3.13584 -4.00678 0
M  V30 6008 H 577.425 -0.407303 -5.64232 0
M  V30 6009 H 575.982 -0.85182 -6.4621 0
M  V30 6010 N 579.415 0.9433 -1.26252 0
M  V30 6011 C 580.378 2.02326 -1.07689 0
M  V30 6012 C 581.378 1.60779 -0.0259174 0
M  V30 6013 O 582.568 1.72108 -0.269134 0
M  V30 6014 C 579.7 3.34886 -0.63752 0
M  V30 6015 H 580.893 2.20225 -2.0357 0
M  V30 6016 H 578.446 1.12197 -1.08819 0
M  V30 6017 H 579.181 3.22684 0.323377 0
M  V30 6018 H 578.966 3.66393 -1.39637 0
M  V30 6019 H 580.456 4.14231 -0.529418 0
M  V30 6020 N 580.893 1.08022 1.14757 0
M  V30 6021 C 581.826 0.650738 2.18725 0
M  V30 6022 C 582.804 -0.335496 1.59101 0
M  V30 6023 O 583.988 -0.240295 1.86962 0
M  V30 6024 C 581.115 -0.0434377 3.38672 0
M  V30 6025 C 580.161 0.90232 4.16846 0
M  V30 6026 S 580.994 2.40693 4.78359 0
M  V30 6027 C 582.15 1.72475 6.01667 0
M  V30 6028 H 582.383 1.53152 2.54817 0
M  V30 6029 H 579.916 0.894823 1.25826 0
M  V30 6030 H 581.874 -0.437684 4.0816 0
M  V30 6031 H 580.535 -0.900659 3.0091 0
M  V30 6032 H 579.728 0.363445 5.02688 0
M  V30 6033 H 579.33 1.23728 3.52941 0
M  V30 6034 H 581.622 1.0404 6.69464 0
M  V30 6035 H 582.565 2.56175 6.60136 0
M  V30 6036 H 582.973 1.19979 5.51602 0
M  V30 6037 N 582.371 -1.3172 0.865308 0
M  V30 6038 C 583.596 -2.01591 0.487415 0
M  V30 6039 C 584.021 -1.6455 -0.911307 0
M  V30 6040 O 583.379 -0.851689 -1.6005 0
M  V30 6041 C 583.427 -3.54759 0.646401 0
M  V30 6042 O 582.531 -4.11185 -0.316284 0
M  V30 6043 H 581.872 -0.634884 0.194468 0
M  V30 6044 H 584.402 -1.68024 1.16744 0
M  V30 6045 H 584.412 -4.04438 0.537932 0
M  V30 6046 H 583.087 -3.8106 1.66632 0
M  V30 6047 H 581.664 -3.72543 -0.163162 0
M  V30 6048 N 583.85 -0.624285 -1.44708 0
M  V30 6049 C 584.779 0.0717025 -2.3339 0
M  V30 6050 C 585.76 0.841814 -1.47809 0
M  V30 6051 O 586.946 0.809056 -1.76544 0
M  V30 6052 C 584.076 1.05852 -3.30776 0
M  V30 6053 C 583.029 0.400503 -4.26122 0
M  V30 6054 C 582.356 1.49674 -5.13324 0
M  V30 6055 C 583.656 -0.688924 -5.17737 0
M  V30 6056 H 585.35 -0.668819 -2.91834 0
M  V30 6057 H 582.896 -0.32308 -1.40329 0
M  V30 6058 H 584.849 1.5541 -3.91696 0
M  V30 6059 H 583.572 1.82984 -2.70526 0
M  V30 6060 H 582.231 -0.0743687 -3.66525 0
M  V30 6061 H 581.88 2.25877 -4.49431 0
M  V30 6062 H 581.58 1.06188 -5.77926 0
M  V30 6063 H 583.104 1.99427 -5.77115 0
M  V30 6064 H 584.518 -0.276724 -5.72632 0
M  V30 6065 H 582.915 -1.04652 -5.90904 0
M  V30 6066 H 583.985 -1.55884 -4.5916 0
M  V30 6067 N 585.328 1.53329 -0.364422 0
M  V30 6068 C 586.291 2.24323 0.470292 0
M  V30 6069 C 587.291 1.25068 1.01067 0
M  V30 6070 O 588.481 1.49354 0.896605 0
M  V30 6071 C 585.613 2.97908 1.65722 0
M  V30 6072 H 586.806 2.9952 -0.150917 0
M  V30 6073 H 584.359 1.55868 -0.116092 0
M  V30 6074 H 585.094 2.2695 2.31655 0
M  V30 6075 H 584.879 3.70732 1.27671 0
M  V30 6076 H 586.369 3.5188 2.24878 0
M  V30 6077 N 586.806 0.0935595 1.57322 0
M  V30 6078 C 588.055 -0.570191 1.93473 0
M  V30 6079 C 588.368 -1.69434 0.977318 0
M  V30 6080 O 589.574 -2.41914 1.23248 0
M  V30 6081 C 588.03 -1.06564 3.43762 0
M  V30 6082 C 587.638 0.0286723 4.47991 0
M  V30 6083 C 589.382 -1.70221 3.88877 0
M  V30 6084 C 587.289 -0.482046 5.89432 0
M  V30 6085 H 586.219 -0.216764 0.72217 0
M  V30 6086 H 588.87 0.169313 1.82717 0
M  V30 6087 H 587.252 -1.85878 3.49664 0
M  V30 6088 H 588.426 0.804106 4.5373 0
M  V30 6089 H 586.741 0.570336 4.12476 0
M  V30 6090 H 589.338 -2.09502 4.91948 0
M  V30 6091 H 589.681 -2.57078 3.27439 0
M  V30 6092 H 590.214 -0.974919 3.85668 0
M  V30 6093 H 586.953 0.349871 6.54566 0
M  V30 6094 H 586.473 -1.22452 5.87167 0
M  V30 6095 H 588.152 -0.951508 6.39965 0
M  V30 6096 N 588.284 -1.56567 -0.180126 0
M  V30 6097 C 589.214 -1.98753 -1.22553 0
M  V30 6098 C 590.195 -0.86175 -1.46656 0
M  V30 6099 O 591.38 -1.12719 -1.58139 0
M  V30 6100 C 588.51 -2.33988 -2.56645 0
M  V30 6101 C 587.464 -3.49445 -2.47128 0
M  V30 6102 C 586.79 -3.70397 -3.8563 0
M  V30 6103 C 588.09 -4.83171 -1.98352 0
M  V30 6104 H 589.784 -2.86332 -0.874896 0
M  V30 6105 H 587.33 -1.37757 -0.419414 0
M  V30 6106 H 589.283 -2.62097 -3.29974 0
M  V30 6107 H 588.007 -1.43309 -2.93479 0
M  V30 6108 H 586.666 -3.2145 -1.76254 0
M  V30 6109 H 586.314 -2.77023 -4.19842 0
M  V30 6110 H 586.014 -4.48077 -3.80132 0
M  V30 6111 H 587.538 -4.00897 -4.60558 0
M  V30 6112 H 588.952 -5.10213 -2.61449 0
M  V30 6113 H 587.349 -5.64425 -2.03823 0
M  V30 6114 H 588.419 -4.75753 -0.937402 0
M  V30 6115 N 589.762 0.448376 -1.51087 0
M  V30 6116 C 591.178 0.783984 -1.39017 0
M  V30 6117 C 591.378 1.96087 -0.463904 0
M  V30 6118 O 590.434 2.52357 0.0850534 0
M  V30 6119 C 591.747 1.07471 -2.80839 0
M  V30 6120 C 593.295 1.17981 -2.89913 0
M  V30 6121 C 593.77 1.50354 -4.32617 0
M  V30 6122 N 595.261 1.57301 -4.35673 0
M  V30 6123 C 595.996 1.839 -5.4311 0
M  V30 6124 N 595.492 2.08365 -6.60724 0
M  V30 6125 N 597.285 1.8559 -5.30578 0
M  V30 6126 H 589.436 -0.326881 -2.0987 0
M  V30 6127 H 591.699 -0.0838006 -0.944289 0
M  V30 6128 H 591.405 0.282768 -3.50561 0
M  V30 6129 H 591.279 2.00519 -3.19487 0
M  V30 6130 H 593.666 1.9624 -2.20395 0
M  V30 6131 H 593.747 0.228603 -2.54776 0
M  V30 6132 H 593.391 0.726273 -5.0268 0
M  V30 6133 H 593.321 2.46663 -4.65258 0
M  V30 6134 H 595.812 1.40342 -3.50874 0
M  V30 6135 H 596.125 2.27999 -7.38401 0
M  V30 6136 H 594.47 2.0571 -6.63859 0
M  V30 6137 H 597.661 1.65989 -4.37682 0
M  V30 6138 H 597.834 2.05983 -6.1439 0
M  V30 6139 N 591.24 1.41047 0.703093 0
M  V30 6140 C 592.486 1.40207 1.46526 0
M  V30 6141 C 592.819 0.00847763 1.94198 0
M  V30 6142 O 592.094 -0.962437 1.69019 0
M  V30 6143 C 592.377 2.40238 2.6825 0
M  V30 6144 C 592.23 3.88674 2.26391 0
M  V30 6145 C 593.549 2.37627 3.70434 0
M  V30 6146 H 590.668 0.510594 0.531472 0
M  V30 6147 H 593.31 1.72271 0.801422 0
M  V30 6148 H 591.46 2.13026 3.24888 0
M  V30 6149 H 593.132 4.2676 1.75138 0
M  V30 6150 H 591.375 4.03903 1.58255 0
M  V30 6151 H 592.046 4.542 3.13698 0
M  V30 6152 H 594.522 2.61759 3.23452 0
M  V30 6153 H 593.398 3.09645 4.53223 0
M  V30 6154 H 593.659 1.39223 4.19606 0
M  V30 6155 N 592.718 -0.936591 1.26751 0
M  V30 6156 C 593.967 -1.67778 1.11953 0
M  V30 6157 C 594.28 -1.92694 -0.33589 0
M  V30 6158 O 595.486 -2.64682 -0.604618 0
M  V30 6159 C 593.942 -3.02138 1.95551 0
M  V30 6160 C 593.55 -2.84953 3.45696 0
M  V30 6161 C 595.294 -3.79917 1.89377 0
M  V30 6162 C 593.201 -4.14814 4.21525 0
M  V30 6163 H 592.131 -0.629275 0.415366 0
M  V30 6164 H 594.782 -1.04122 1.51099 0
M  V30 6165 H 593.164 -3.668 1.49243 0
M  V30 6166 H 594.338 -2.29112 3.99805 0
M  V30 6167 H 592.653 -2.20612 3.53156 0
M  V30 6168 H 595.25 -4.76134 2.43312 0
M  V30 6169 H 595.593 -4.07204 0.865464 0
M  V30 6170 H 596.126 -3.22037 2.33532 0
M  V30 6171 H 592.865 -3.92709 5.24843 0
M  V30 6172 H 592.385 -4.70352 3.72195 0
M  V30 6173 H 594.064 -4.83239 4.3022 0
M  V30 6174 N 594.196 -1.08629 -1.14182 0
M  V30 6175 C 595.612 -0.814363 -1.3726 0
M  V30 6176 C 595.812 0.575271 -1.93114 0
M  V30 6177 O 594.868 1.33165 -2.1453 0
M  V30 6178 C 596.181 -1.8989 -2.33157 0
M  V30 6179 C 597.729 -1.92518 -2.46791 0
M  V30 6180 C 598.204 -3.00092 -3.45989 0
M  V30 6181 N 599.695 -2.99279 -3.53534 0
M  V30 6182 C 600.43 -3.79158 -4.30147 0
M  V30 6183 N 599.926 -4.68923 -5.09983 0
M  V30 6184 N 601.719 -3.67451 -4.25366 0
M  V30 6185 H 593.87 -1.98232 -0.762758 0
M  V30 6186 H 596.133 -0.860383 -0.398051 0
M  V30 6187 H 595.839 -2.89809 -1.99257 0
M  V30 6188 H 595.713 -1.77013 -3.33086 0
M  V30 6189 H 598.1 -0.932425 -2.79982 0
M  V30 6190 H 598.181 -2.09473 -1.46816 0
M  V30 6191 H 597.825 -3.99575 -3.13532 0
M  V30 6192 H 597.755 -2.80382 -4.45751 0
M  V30 6193 H 600.246 -2.3422 -2.96563 0
M  V30 6194 H 600.559 -5.26475 -5.65724 0
M  V30 6195 H 598.904 -4.72964 -5.09244 0
M  V30 6196 H 602.095 -2.9669 -3.62067 0
M  V30 6197 H 602.268 -4.29944 -4.84822 0
M  V30 6198 N 595.674 1.31259 -0.872281 0
M  V30 6199 C 596.604 2.30929 -0.345554 0
M  V30 6200 C 597.585 1.60449 0.5648 0
M  V30 6201 O 598.77 1.8814 0.481335 0
M  V30 6202 C 595.9 3.44348 0.451823 0
M  V30 6203 C 594.854 4.26435 -0.365641 0
M  V30 6204 C 594.18 5.31785 0.557562 0
M  V30 6205 C 595.48 4.97159 -1.60095 0
M  V30 6206 H 597.174 2.75234 -1.17841 0
M  V30 6207 H 594.72 1.3232 -0.568094 0
M  V30 6208 H 596.673 4.13128 0.830854 0
M  V30 6209 H 595.397 2.98816 1.31821 0
M  V30 6210 H 594.056 3.59326 -0.726649 0
M  V30 6211 H 593.704 4.82502 1.4213 0
M  V30 6212 H 593.404 5.87598 0.0144878 0
M  V30 6213 H 594.928 6.03424 0.933387 0
M  V30 6214 H 596.342 5.58523 -1.29323 0
M  V30 6215 H 594.739 5.62779 -2.08327 0
M  V30 6216 H 595.809 4.24012 -2.35249 0
M  V30 6217 N 597.152 0.631951 1.44375 0
M  V30 6218 C 598.398 0.13697 2.02337 0
M  V30 6219 C 598.731 -1.23826 1.49602 0
M  V30 6220 O 598.006 -1.8221 0.680415 0
M  V30 6221 C 598.289 0.124536 3.59885 0
M  V30 6222 C 598.142 1.53217 4.229 0
M  V30 6223 C 599.461 -0.550481 4.36644 0
M  V30 6224 H 596.58 0.051247 0.735216 0
M  V30 6225 H 599.222 0.808581 1.71936 0
M  V30 6226 H 597.372 -0.44737 3.85916 0
M  V30 6227 H 599.044 2.15303 4.07973 0
M  V30 6228 H 597.287 2.0858 3.80364 0
M  V30 6229 H 597.958 1.4755 5.31914 0
M  V30 6230 H 600.434 -0.0641154 4.16051 0
M  V30 6231 H 599.31 -0.528371 5.46351 0
M  V30 6232 H 599.571 -1.62097 4.11311 0
M  V30 6233 N 598.631 -1.53133 0.372548 0
M  V30 6234 C 600.047 -1.59585 0.02178 0
M  V30 6235 C 600.247 -1.38736 -1.46132 0
M  V30 6236 O 599.303 -1.19599 -2.22379 0
M  V30 6237 C 600.616 -2.9678 0.483959 0
M  V30 6238 C 602.164 -3.09909 0.438775 0
M  V30 6239 C 602.639 -4.49527 0.876876 0
M  V30 6240 N 604.13 -4.55663 0.832214 0
M  V30 6241 C 604.865 -5.61896 1.14281 0
M  V30 6242 N 604.361 -6.75852 1.52303 0
M  V30 6243 N 606.154 -5.51916 1.06515 0
M  V30 6244 H 598.305 -1.64936 1.33827 0
M  V30 6245 H 600.568 -0.773947 0.547458 0
M  V30 6246 H 600.274 -3.17198 1.51915 0
M  V30 6247 H 600.148 -3.7699 -0.125784 0
M  V30 6248 H 602.535 -2.89197 -0.587294 0
M  V30 6249 H 602.616 -2.31691 1.0841 0
M  V30 6250 H 602.26 -4.70979 1.90109 0
M  V30 6251 H 602.19 -5.26186 0.208727 0
M  V30 6252 H 604.681 -3.73844 0.552195 0
M  V30 6253 H 604.994 -7.52862 1.7441 0
M  V30 6254 H 603.339 -6.77226 1.56175 0
M  V30 6255 H 606.53 -4.6177 0.767235 0
M  V30 6256 H 606.703 -6.34609 1.31053 0
M  V30 6257 N 600.109 -0.101901 -1.5727 0
M  V30 6258 C 601.355 0.561027 -1.94885 0
M  V30 6259 C 601.688 1.6741 -0.984258 0
M  V30 6260 O 600.963 1.94491 -0.0184767 0
M  V30 6261 C 601.246 1.10982 -3.42571 0
M  V30 6262 C 601.099 0.00133418 -4.498 0
M  V30 6263 C 602.418 2.00608 -3.9172 0
M  V30 6264 H 599.537 0.202467 -0.708644 0
M  V30 6265 H 602.179 -0.173992 -1.89202 0
M  V30 6266 H 600.329 1.73621 -3.47546 0
M  V30 6267 H 602.001 -0.63322 -4.56933 0
M  V30 6268 H 600.244 -0.664143 -4.28686 0
M  V30 6269 H 600.915 0.426253 -5.50352 0
M  V30 6270 H 603.391 1.47864 -3.88941 0
M  V30 6271 H 602.267 2.3593 -4.95609 0
M  V30 6272 H 602.528 2.92608 -3.3141 0
M  V30 6273 N 601.587 1.56661 0.17182 0
M  V30 6274 C 602.834 1.81965 0.888529 0
M  V30 6275 C 603.162 0.6789 1.82267 0
M  V30 6276 O 602.417 -0.333875 1.92831 0
M  V30 6277 C 602.716 3.13435 1.71736 0
M  V30 6278 C 602.382 4.41159 0.932184 0
M  V30 6279 C 601.044 4.75851 0.715481 0
M  V30 6280 C 603.396 5.19803 0.381387 0
M  V30 6281 C 600.724 5.86666 -0.063126 0
M  V30 6282 C 603.076 6.31433 -0.384129 0
M  V30 6283 C 601.74 6.64692 -0.611637 0
M  V30 6284 H 601.01 0.665859 0.325136 0
M  V30 6285 H 603.657 1.90884 0.153495 0
M  V30 6286 H 601.962 2.99857 2.52177 0
M  V30 6287 H 603.659 3.30224 2.27493 0
M  V30 6288 H 600.249 4.13947 1.11112 0
M  V30 6289 H 604.433 4.93396 0.536148 0
M  V30 6290 H 599.689 6.10892 -0.249136 0
M  V30 6291 H 603.863 6.91577 -0.818185 0
M  V30 6292 H 601.49 7.50398 -1.21684 0
M  V30 6293 N 603.065 -0.440357 1.51323 0
M  V30 6294 C 604.481 -0.7766 1.39431 0
M  V30 6295 C 604.681 -1.95838 0.474296 0
M  V30 6296 O 603.737 -2.52398 -0.0716692 0
M  V30 6297 C 605.05 -1.05981 2.81405 0
M  V30 6298 C 606.598 -1.16442 2.90534 0
M  V30 6299 C 607.073 -1.48058 4.33408 0
M  V30 6300 N 608.564 -1.54988 4.36501 0
M  V30 6301 C 609.299 -1.81017 5.44078 0
M  V30 6302 N 608.795 -2.04858 6.61819 0
M  V30 6303 N 610.588 -1.82774 5.31554 0
M  V30 6304 H 602.739 0.338006 2.09693 0
M  V30 6305 H 605.002 0.0888072 0.943831 0
M  V30 6306 H 604.708 -0.264173 3.50706 0
M  V30 6307 H 604.582 -1.98822 3.20546 0
M  V30 6308 H 606.969 -1.95068 2.21432 0
M  V30 6309 H 607.05 -0.215088 2.54894 0
M  V30 6310 H 606.694 -0.699605 5.03059 0
M  V30 6311 H 606.624 -2.44192 4.66559 0
M  V30 6312 H 609.115 -1.38479 3.51613 0
M  V30 6313 H 609.428 -2.2408 7.396 0
M  V30 6314 H 607.773 -2.02187 6.6494 0
M  V30 6315 H 610.964 -1.63665 4.38556 0
M  V30 6316 H 611.137 -2.02722 6.15474 0
M  V30 6317 N 604.543 -1.41418 -0.695603 0
M  V30 6318 C 605.792 -1.40073 -1.4513 0
M  V30 6319 C 606.105 -0.0130439 -1.95596 0
M  V30 6320 O 607.311 0.123032 -2.71221 0
M  V30 6321 C 605.767 -2.46286 -2.62433 0
M  V30 6322 C 605.375 -3.90962 -2.18753 0
M  V30 6323 C 607.119 -2.54077 -3.40066 0
M  V30 6324 C 605.026 -4.88728 -3.33015 0
M  V30 6325 H 603.956 -0.520903 -0.545138 0
M  V30 6326 H 606.607 -1.67242 -0.75515 0
M  V30 6327 H 604.989 -2.12248 -3.34315 0
M  V30 6328 H 606.163 -4.34248 -1.54161 0
M  V30 6329 H 604.478 -3.86831 -1.54114 0
M  V30 6330 H 607.075 -3.24303 -4.25125 0
M  V30 6331 H 607.418 -1.5776 -3.8525 0
M  V30 6332 H 607.951 -2.87206 -2.75241 0
M  V30 6333 H 604.69 -5.86449 -2.92844 0
M  V30 6334 H 604.21 -4.50091 -3.96457 0
M  V30 6335 H 605.889 -5.09483 -3.98793 0
M  V30 6336 N 606.021 0.929856 -1.27246 0
M  V30 6337 C 607.268 1.67731 -1.13457 0
M  V30 6338 C 607.596 1.9185 0.319998 0
M  V30 6339 O 606.851 1.50524 1.25064 0
M  V30 6340 C 607.15 3.05116 -1.86115 0
M  V30 6341 C 606.816 3.00715 -3.35978 0
M  V30 6342 C 605.478 2.99222 -3.76855 0
M  V30 6343 C 607.83 2.92168 -4.3161 0
M  V30 6344 C 605.158 2.86962 -5.11732 0
M  V30 6345 C 607.51 2.81449 -5.66542 0
M  V30 6346 C 606.174 2.78305 -6.06715 0
M  V30 6347 H 605.444 0.613772 -0.415168 0
M  V30 6348 H 608.091 1.08456 -1.57827 0
M  V30 6349 H 606.396 3.68083 -1.34246 0
M  V30 6350 H 608.093 3.61822 -1.72876 0
M  V30 6351 H 604.683 3.02664 -3.03468 0
M  V30 6352 H 608.867 2.92421 -4.01003 0
M  V30 6353 H 604.123 2.82913 -5.42006 0
M  V30 6354 H 608.297 2.738 -6.40317 0
M  V30 6355 H 605.924 2.68561 -7.11181 0
M  V30 6356 N 607.499 1.09233 1.13605 0
M  V30 6357 C 608.446 0.729921 2.18954 0
M  V30 6358 C 609.416 -0.287916 1.63586 0
M  V30 6359 O 610.601 -0.170003 1.90041 0
M  V30 6360 C 607.741 0.154489 3.44754 0
M  V30 6361 C 606.854 1.22613 4.14234 0
M  V30 6362 C 605.989 0.613657 5.27644 0
M  V30 6363 C 605.028 1.66674 5.8897 0
M  V30 6364 N 604.165 1.07545 6.93814 0
M  V30 6365 H 609.005 1.63257 2.49302 0
M  V30 6366 H 606.542 0.815693 1.22413 0
M  V30 6367 H 608.5 -0.196923 4.16735 0
M  V30 6368 H 607.13 -0.711433 3.14863 0
M  V30 6369 H 606.182 1.69485 3.40557 0
M  V30 6370 H 607.494 2.0238 4.55899 0
M  V30 6371 H 606.648 0.210976 6.06333 0
M  V30 6372 H 605.387 -0.215584 4.87223 0
M  V30 6373 H 604.392 2.07899 5.08978 0
M  V30 6374 H 605.617 2.49861 6.31464 0
M  V30 6375 H 603.563 0.267451 6.55455 0
M  V30 6376 H 603.48 1.81011 7.3401 0
M  V30 6377 H 604.748 0.698906 7.7636 0
M  V30 6378 N 608.977 -1.30795 0.87923 0
M  V30 6379 C 609.907 -2.30742 0.357796 0
M  V30 6380 C 610.888 -1.60747 -0.556283 0
M  V30 6381 O 612.073 -1.88393 -0.47135 0
M  V30 6382 C 609.203 -3.44583 -0.433555 0
M  V30 6383 C 608.157 -4.26235 0.388251 0
M  V30 6384 C 607.483 -5.32073 -0.529352 0
M  V30 6385 C 608.783 -4.96303 1.62729 0
M  V30 6386 H 610.477 -2.74605 1.19299 0
M  V30 6387 H 608.023 -1.32017 0.575104 0
M  V30 6388 H 609.976 -4.13563 -0.808934 0
M  V30 6389 H 608.7 -2.99511 -1.30234 0
M  V30 6390 H 607.359 -3.58936 0.745695 0
M  V30 6391 H 607.007 -4.83249 -1.39569 0
M  V30 6392 H 606.707 -5.87598 0.0166741 0
M  V30 6393 H 608.231 -6.0391 -0.901373 0
M  V30 6394 H 609.645 -5.5783 1.32283 0
M  V30 6395 H 608.042 -5.61666 2.11309 0
M  V30 6396 H 609.112 -4.22758 2.37494 0
M  V30 6397 N 610.455 -0.639598 -1.44038 0
M  V30 6398 C 611.68 -0.153117 -2.06834 0
M  V30 6399 C 612.105 1.16676 -1.47541 0
M  V30 6400 O 611.463 1.71769 -0.580093 0
M  V30 6401 C 611.511 -0.0609169 -3.60549 0
M  V30 6402 O 610.615 0.98071 -4.00569 0
M  V30 6403 H 609.956 -0.0886402 -0.658057 0
M  V30 6404 H 612.486 -0.878674 -1.84771 0
M  V30 6405 H 612.496 0.126892 -4.07803 0
M  V30 6406 H 611.171 -1.0245 -4.03084 0
M  V30 6407 H 609.748 0.766789 -3.64931 0
M  V30 6408 N 611.933 1.52934 -0.380664 0
M  V30 6409 C 613.349 1.59571 -0.0302429 0
M  V30 6410 C 613.549 1.39509 1.45394 0
M  V30 6411 O 612.605 1.20777 2.21741 0
M  V30 6412 C 613.918 2.96519 -0.499691 0
M  V30 6413 C 615.466 3.09672 -0.455204 0
M  V30 6414 C 615.941 4.49056 -0.900703 0
M  V30 6415 N 617.432 4.55215 -0.856367 0
M  V30 6416 C 618.167 5.61282 -1.17259 0
M  V30 6417 N 617.663 6.75035 -1.55885 0
M  V30 6418 N 619.456 5.51343 -1.0944 0
M  V30 6419 H 611.607 1.64224 -1.347 0
M  V30 6420 H 613.87 0.771033 -0.551554 0
M  V30 6421 H 613.576 3.16388 -1.53595 0
M  V30 6422 H 613.45 3.77052 0.105789 0
M  V30 6423 H 615.837 2.89504 0.571949 0
M  V30 6424 H 615.918 2.31113 -1.09638 0
M  V30 6425 H 615.562 4.69964 -1.92604 0
M  V30 6426 H 615.492 5.26068 -0.236629 0
M  V30 6427 H 617.983 3.73546 -0.572013 0
M  V30 6428 H 618.296 7.51926 -1.784 0
M  V30 6429 H 616.641 6.76388 -1.59764 0
M  V30 6430 H 619.832 4.61356 -0.791713 0
M  V30 6431 H 620.005 6.33905 -1.34417 0
M  V30 6432 N 613.412 0.11024 1.57214 0
M  V30 6433 C 614.362 -0.854147 2.11396 0
M  V30 6434 C 615.346 -1.23394 1.03261 0
M  V30 6435 O 616.538 -1.20649 1.2951 0
M  V30 6436 C 613.667 -2.10752 2.70995 0
M  V30 6437 C 612.753 -1.75249 3.86198 0
M  V30 6438 N 613.144 -1.10377 4.9361 0
M  V30 6439 C 611.442 -2.04763 3.96217 0
M  V30 6440 C 612.143 -0.938199 5.74084 0
M  V30 6441 N 611.119 -1.46039 5.23616 0
M  V30 6442 H 614.921 -0.348897 2.91822 0
M  V30 6443 H 612.435 -0.0925071 1.62136 0
M  V30 6444 H 614.432 -2.80801 3.0815 0
M  V30 6445 H 613.092 -2.61829 1.9203 0
M  V30 6446 H 614.103 -0.768785 5.12162 0
M  V30 6447 H 610.78 -2.57948 3.28282 0
M  V30 6448 H 612.17 -0.429678 6.70525 0
M  V30 6449 N 614.89 -1.56749 -0.16351 0
M  V30 6450 C 616.115 -1.86938 -0.898264 0
M  V30 6451 C 616.54 -0.697456 -1.74692 0
M  V30 6452 O 615.898 0.353327 -1.77824 0
M  V30 6453 C 615.946 -3.15599 -1.74441 0
M  V30 6454 O 615.05 -2.98371 -2.8469 0
M  V30 6455 H 614.391 -0.614659 -0.251178 0
M  V30 6456 H 616.921 -2.03979 -0.159298 0
M  V30 6457 H 616.931 -3.47202 -2.14277 0
M  V30 6458 H 615.606 -4.00505 -1.1211 0
M  V30 6459 H 614.183 -2.7814 -2.4838 0
M  V30 6460 N 616.368 0.432326 -1.51554 0
M  V30 6461 C 617.315 1.52512 -1.7323 0
M  V30 6462 C 618.285 1.55863 -0.5741 0
M  V30 6463 O 619.47 1.72796 -0.809093 0
M  V30 6464 C 616.61 2.90183 -1.86783 0
M  V30 6465 C 615.723 2.96322 -3.14352 0
M  V30 6466 C 614.858 4.25147 -3.18471 0
M  V30 6467 C 613.897 4.25172 -4.40335 0
M  V30 6468 N 613.034 5.45529 -4.41975 0
M  V30 6469 H 617.874 1.33332 -2.66508 0
M  V30 6470 H 615.411 0.647613 -1.32077 0
M  V30 6471 H 617.369 3.70071 -1.92623 0
M  V30 6472 H 615.999 3.0791 -0.969087 0
M  V30 6473 H 615.051 2.09066 -3.17798 0
M  V30 6474 H 616.363 2.92203 -4.04251 0
M  V30 6475 H 615.517 5.13411 -3.23255 0
M  V30 6476 H 614.256 4.31929 -2.2647 0
M  V30 6477 H 613.261 3.353 -4.35723 0
M  V30 6478 H 614.486 4.20049 -5.33606 0
M  V30 6479 H 612.432 5.53024 -3.52847 0
M  V30 6480 H 612.349 5.43311 -5.25689 0
M  V30 6481 H 613.617 6.35812 -4.50958 0
M  V30 6482 N 617.846 1.41785 0.688094 0
M  V30 6483 C 619.094 1.41264 1.4453 0
M  V30 6484 C 619.415 0.0252946 1.94984 0
M  V30 6485 O 618.685 -0.934081 1.72197 0
M  V30 6486 H 617.265 0.519998 0.536294 0
M  V30 6487 H 619.927 1.7709 0.813941 0
M  V30 6488 H 619.023 2.10439 2.30482 0
M  V30 6489 N 619.324 -0.923095 1.27737 0
M  V30 6490 C 620.254 -2.04124 1.13383 0
M  V30 6491 C 621.235 -1.70066 0.0340658 0
M  V30 6492 O 622.42 -1.93068 0.209383 0
M  V30 6493 C 619.55 -3.3831 0.785097 0
M  V30 6494 C 618.504 -3.86496 1.8386 0
M  V30 6495 C 617.83 -5.1754 1.34373 0
M  V30 6496 C 619.13 -4.09381 3.24353 0
M  V30 6497 H 620.824 -2.1639 2.06919 0
M  V30 6498 H 618.37 -1.03976 0.996243 0
M  V30 6499 H 620.323 -4.16016 0.671485 0
M  V30 6500 H 619.047 -3.2607 -0.185969 0
M  V30 6501 H 617.706 -3.10987 1.9412 0
M  V30 6502 H 617.354 -5.01696 0.361989 0
M  V30 6503 H 617.054 -5.50751 2.04811 0
M  V30 6504 H 618.578 -5.97811 1.24315 0
M  V30 6505 H 619.992 -4.77641 3.17067 0
M  V30 6506 H 618.389 -4.53906 3.92542 0
M  V30 6507 H 619.459 -3.14515 3.69064 0
M  V30 6508 N 620.802 -1.09834 -1.13024 0
M  V30 6509 C 621.734 -0.699379 -2.18269 0
M  V30 6510 C 622.747 0.260841 -1.60697 0
M  V30 6511 O 623.936 0.0462538 -1.7844 0
M  V30 6512 C 621.036 -0.0104537 -3.38898 0
M  V30 6513 C 620.209 -0.993275 -4.25973 0
M  V30 6514 C 619.268 -0.336982 -5.2512 0
M  V30 6515 O 618.294 -0.985892 -5.60597 0
M  V30 6516 N 619.496 0.90716 -5.73368 0
M  V30 6517 H 622.261 -1.60486 -2.5311 0
M  V30 6518 H 619.822 -0.986337 -1.28386 0
M  V30 6519 H 621.814 0.43991 -4.02302 0
M  V30 6520 H 620.384 0.797335 -3.0226 0
M  V30 6521 H 619.604 -1.62208 -3.5928 0
M  V30 6522 H 620.892 -1.65876 -4.81002 0
M  V30 6523 H 620.29 1.45384 -5.46699 0
M  V30 6524 H 618.847 1.30077 -6.38689 0
M  V30 6525 N 622.28 1.30327 -0.886154 0
M  V30 6526 C 623.529 1.95373 -0.501243 0
M  V30 6527 C 623.842 1.70722 0.954634 0
M  V30 6528 O 625.048 2.29761 1.44644 0
M  V30 6529 C 623.504 3.49828 -0.845493 0
M  V30 6530 C 623.112 3.83296 -2.31922 0
M  V30 6531 C 624.856 4.2118 -0.529838 0
M  V30 6532 C 622.763 5.30935 -2.60504 0
M  V30 6533 H 621.693 0.731274 -0.183722 0
M  V30 6534 H 624.344 1.48258 -1.08129 0
M  V30 6535 H 622.726 3.95522 -0.19452 0
M  V30 6536 H 623.9 3.48508 -3.01461 0
M  V30 6537 H 622.215 3.2505 -2.60253 0
M  V30 6538 H 624.812 5.29825 -0.720401 0
M  V30 6539 H 625.155 4.12902 0.530828 0
M  V30 6540 H 625.688 3.81173 -1.13806 0
M  V30 6541 H 622.427 5.44265 -3.65316 0
M  V30 6542 H 621.947 5.67019 -1.95575 0
M  V30 6543 H 623.626 5.98381 -2.46066 0
M  V30 6544 N 623.758 0.647228 1.43697 0
M  V30 6545 C 624.688 -0.0345631 2.33474 0
M  V30 6546 C 625.669 -0.818193 1.4913 0
M  V30 6547 O 626.854 -0.780867 1.77809 0
M  V30 6548 C 623.984 -1.00576 3.32418 0
M  V30 6549 C 622.938 -0.33266 4.26705 0
M  V30 6550 C 622.264 -1.41489 5.1564 0
M  V30 6551 C 623.564 0.771204 5.16575 0
M  V30 6552 H 625.258 0.715163 2.90733 0
M  V30 6553 H 622.804 0.345364 1.39797 0
M  V30 6554 H 624.757 -1.49159 3.94119 0
M  V30 6555 H 623.481 -1.78657 2.73403 0
M  V30 6556 H 622.14 0.13267 3.6636 0
M  V30 6557 H 621.788 -2.18698 4.52968 0
M  V30 6558 H 621.488 -0.969799 5.79542 0
M  V30 6559 H 623.012 -1.9022 5.80214 0
M  V30 6560 H 624.426 0.36779 5.72119 0
M  V30 6561 H 622.823 1.1404 5.89165 0
M  V30 6562 H 623.893 1.63169 4.56622 0
M  V30 6563 N 625.236 -1.5273 0.388769 0
M  V30 6564 C 626.484 -2.01174 -0.193208 0
M  V30 6565 C 626.805 -1.27705 -1.47365 0
M  V30 6566 O 626.075 -0.396966 -1.91836 0
M  V30 6567 H 624.655 -0.743287 -0.0743871 0
M  V30 6568 H 627.317 -1.87826 0.520336 0
M  V30 6569 H 626.413 -3.09477 -0.403803 0
M  V30 6570 N 626.714 -0.118576 -1.57153 0
M  V30 6571 C 627.661 0.831789 -2.1529 0
M  V30 6572 C 628.631 1.26385 -1.07778 0
M  V30 6573 O 629.816 1.34144 -1.35684 0
M  V30 6574 C 626.956 2.07664 -2.75626 0
M  V30 6575 C 626.069 1.69298 -3.97444 0
M  V30 6576 C 625.204 2.88747 -4.45868 0
M  V30 6577 C 624.243 2.46619 -5.60219 0
M  V30 6578 N 623.38 3.5898 -6.03389 0
M  V30 6579 H 628.22 0.329183 -2.96176 0
M  V30 6580 H 625.757 0.150792 -1.46325 0
M  V30 6581 H 627.715 2.80601 -3.08738 0
M  V30 6582 H 626.345 2.55384 -1.97431 0
M  V30 6583 H 625.397 0.862374 -3.70496 0
M  V30 6584 H 626.709 1.34338 -4.80369 0
M  V30 6585 H 625.863 3.69909 -4.80887 0
M  V30 6586 H 624.602 3.26933 -3.61892 0
M  V30 6587 H 623.607 1.63889 -5.24805 0
M  V30 6588 H 624.832 2.0955 -6.45961 0
M  V30 6589 H 622.778 3.9684 -5.22354 0
M  V30 6590 H 622.695 3.27942 -6.81168 0
M  V30 6591 H 623.963 4.40583 -6.43045 0
M  V30 6592 N 628.193 1.56834 0.155195 0
M  V30 6593 C 629.421 1.87049 0.884326 0
M  V30 6594 C 629.836 0.705839 1.7511 0
M  V30 6595 O 629.193 -0.324641 1.79589 0
M  V30 6596 C 629.244 3.1644 1.74781 0
M  V30 6597 O 628.965 4.28417 0.915978 0
M  V30 6598 C 630.466 3.60113 2.58522 0
M  V30 6599 H 627.686 0.620196 0.25612 0
M  V30 6600 H 630.23 2.03946 0.150445 0
M  V30 6601 H 628.385 3.01321 2.43484 0
M  V30 6602 H 628.799 5.02353 1.50803 0
M  V30 6603 H 630.273 4.53508 3.14698 0
M  V30 6604 H 630.75 2.85005 3.34169 0
M  V30 6605 H 631.356 3.77898 1.95124 0
M  V30 6606 N 629.671 -0.424282 1.51781 0
M  V30 6607 C 630.601 -1.52305 1.7699 0
M  V30 6608 C 631.582 -1.5839 0.620209 0
M  V30 6609 O 632.767 -1.73908 0.864268 0
M  V30 6610 C 629.897 -2.90271 1.90683 0
M  V30 6611 C 628.851 -2.99043 3.06198 0
M  V30 6612 C 628.177 -4.39116 3.05092 0
M  V30 6613 C 629.477 -2.7192 4.45934 0
M  V30 6614 H 631.171 -1.31461 2.68995 0
M  V30 6615 H 628.717 -0.630985 1.29439 0
M  V30 6616 H 630.67 -3.6711 2.06901 0
M  V30 6617 H 629.394 -3.12376 0.953365 0
M  V30 6618 H 628.053 -2.24646 2.89706 0
M  V30 6619 H 627.701 -4.58207 2.07498 0
M  V30 6620 H 627.401 -4.45912 3.82669 0
M  V30 6621 H 628.925 -5.17911 3.2342 0
M  V30 6622 H 630.339 -3.38487 4.62709 0
M  V30 6623 H 628.736 -2.90111 5.25315 0
M  V30 6624 H 629.806 -1.67445 4.55072 0
M  V30 6625 N 631.149 -1.42148 -0.680565 0
M  V30 6626 C 632.081 -1.41119 -1.80605 0
M  V30 6627 C 633.094 -0.311099 -1.598 0
M  V30 6628 O 634.283 -0.573813 -1.69026 0
M  V30 6629 C 631.383 -1.18204 -3.17618 0
M  V30 6630 C 630.556 -2.40537 -3.65322 0
M  V30 6631 C 629.615 -2.13254 -4.8105 0
M  V30 6632 O 628.641 -2.8641 -4.91892 0
M  V30 6633 N 629.843 -1.13208 -5.69354 0
M  V30 6634 H 632.608 -2.38128 -1.81975 0
M  V30 6635 H 630.169 -1.36953 -0.863446 0
M  V30 6636 H 632.161 -0.97878 -3.92686 0
M  V30 6637 H 630.731 -0.29738 -3.11182 0
M  V30 6638 H 629.951 -2.76468 -2.80996 0
M  V30 6639 H 631.239 -3.22012 -3.93936 0
M  V30 6640 H 630.637 -0.526893 -5.63241 0
M  V30 6641 H 629.194 -0.988699 -6.44258 0
M  V30 6642 N 632.627 0.916307 -1.28225 0
M  V30 6643 C 633.59 1.99996 -1.11957 0
M  V30 6644 C 634.59 1.60688 -0.0600152 0
M  V30 6645 O 635.78 1.71499 -0.30558 0
M  V30 6646 C 632.912 3.33458 -0.708411 0
M  V30 6647 H 634.105 2.15858 -2.08196 0
M  V30 6648 H 631.658 1.09863 -1.11175 0
M  V30 6649 H 632.393 3.23297 0.254859 0
M  V30 6650 H 632.178 3.63349 -1.47377 0
M  V30 6651 H 633.668 4.13014 -0.617164 0
M  V30 6652 N 634.105 1.10431 1.1244 0
M  V30 6653 C 635.33 0.869089 1.88313 0
M  V30 6654 C 635.755 -0.574912 1.79099 0
M  V30 6655 O 635.113 -1.40496 1.14589 0
M  V30 6656 C 635.161 1.32208 3.3549 0
M  V30 6657 O 634.265 0.487092 4.09513 0
M  V30 6658 H 633.606 0.313894 0.585121 0
M  V30 6659 H 636.136 1.47111 1.42195 0
M  V30 6660 H 636.146 1.31201 3.86329 0
M  V30 6661 H 634.821 2.37364 3.41513 0
M  V30 6662 H 633.398 0.562372 3.68635 0
M  V30 6663 N 635.583 -1.29855 0.893053 0
M  V30 6664 C 636.516 -2.26079 0.3104 0
M  V30 6665 C 637.494 -1.52145 -0.573644 0
M  V30 6666 O 638.678 -1.8113 -0.521937 0
M  V30 6667 C 635.805 -3.34069 -0.558179 0
M  V30 6668 C 634.851 -4.25721 0.257638 0
M  V30 6669 S 635.684 -5.09409 1.65114 0
M  V30 6670 C 636.84 -6.20903 0.789307 0
M  V30 6671 H 637.073 -2.75151 1.12602 0
M  V30 6672 H 634.606 -1.37975 0.692978 0
M  V30 6673 H 636.564 -3.9675 -1.05355 0
M  V30 6674 H 635.225 -2.83705 -1.34797 0
M  V30 6675 H 634.418 -5.02366 -0.405562 0
M  V30 6676 H 634.02 -3.67656 0.685917 0
M  V30 6677 H 636.312 -6.77499 0.00978451 0
M  V30 6678 H 637.255 -6.91426 1.52762 0
M  V30 6679 H 637.663 -5.63435 0.346634 0
M  V30 6680 N 637.061 -0.65484 -1.43351 0
M  V30 6681 C 638.477 -0.32255 -1.56307 0
M  V30 6682 C 638.677 1.17324 -1.63821 0
M  V30 6683 O 637.733 1.95813 -1.59417 0
M  V30 6684 C 639.046 -1.03533 -2.82314 0
M  V30 6685 C 640.594 -1.01574 -2.9606 0
M  V30 6686 C 641.069 -1.70945 -4.24902 0
M  V30 6687 N 642.56 -1.67716 -4.3177 0
M  V30 6688 C 643.295 -2.18265 -5.30234 0
M  V30 6689 N 642.791 -2.7711 -6.34966 0
M  V30 6690 N 644.584 -2.08756 -5.21898 0
M  V30 6691 H 636.735 -1.62549 -1.36717 0
M  V30 6692 H 638.998 -0.683676 -0.656727 0
M  V30 6693 H 638.704 -2.09045 -2.8283 0
M  V30 6694 H 638.578 -0.587913 -3.7259 0
M  V30 6695 H 640.965 0.0309834 -2.95084 0
M  V30 6696 H 641.046 -1.50186 -2.07069 0
M  V30 6697 H 640.69 -2.75574 -4.26639 0
M  V30 6698 H 640.62 -1.19797 -5.12793 0
M  V30 6699 H 643.111 -1.24777 -3.56706 0
M  V30 6700 H 643.424 -3.13353 -7.06421 0
M  V30 6701 H 641.769 -2.81171 -6.35585 0
M  V30 6702 H 644.96 -1.62488 -4.38994 0
M  V30 6703 H 645.133 -2.48459 -5.98475 0
M  V30 6704 N 638.539 1.52521 -0.396863 0
M  V30 6705 C 639.449 2.30403 0.44178 0
M  V30 6706 C 640.465 1.37625 1.06468 0
M  V30 6707 O 641.641 1.70697 1.06886 0
M  V30 6708 C 638.706 3.1013 1.54986 0
M  V30 6709 C 637.767 4.18628 0.951279 0
M  V30 6710 C 637 4.94543 2.00655 0
M  V30 6711 O 637.223 4.70629 3.22281 0
M  V30 6712 O 636.157 5.797 1.61962 0
M  V30 6713 H 639.983 3.03087 -0.192892 0
M  V30 6714 H 637.568 1.48537 -0.16038 0
M  V30 6715 H 639.45 3.59816 2.19341 0
M  V30 6716 H 638.125 2.40251 2.16935 0
M  V30 6717 H 637.032 3.73119 0.270773 0
M  V30 6718 H 638.365 4.90763 0.375887 0
M  V30 6719 N 640.017 0.126909 1.57088 0
M  V30 6720 C 640.947 -0.816847 2.18746 0
M  V30 6721 C 641.928 -1.27161 1.12979 0
M  V30 6722 O 643.113 -1.33279 1.41246 0
M  V30 6723 C 640.243 -2.06398 2.79315 0
M  V30 6724 C 639.197 -1.74673 3.90735 0
M  V30 6725 C 638.523 -3.06482 4.38147 0
M  V30 6726 C 639.823 -1.0089 5.12463 0
M  V30 6727 H 641.517 -0.303032 2.97863 0
M  V30 6728 H 639.063 -0.144314 1.43275 0
M  V30 6729 H 641.016 -2.72885 3.2111 0
M  V30 6730 H 639.74 -2.60118 1.975 0
M  V30 6731 H 638.399 -1.10572 3.49527 0
M  V30 6732 H 638.047 -3.58152 3.5318 0
M  V30 6733 H 637.747 -2.86025 5.13287 0
M  V30 6734 H 639.271 -3.74073 4.82599 0
M  V30 6735 H 640.685 -1.57546 5.51228 0
M  V30 6736 H 639.082 -0.905006 5.93237 0
M  V30 6737 H 640.152 0.00297335 4.849 0
M  V30 6738 N 641.495 -1.56914 -0.146875 0
M  V30 6739 C 642.743 -1.82994 -0.85777 0
M  V30 6740 C 643.064 -0.707814 -1.817 0
M  V30 6741 O 642.334 0.270521 -1.94023 0
M  V30 6742 H 640.914 -0.675106 -0.319751 0
M  V30 6743 H 643.576 -1.9439 -0.140849 0
M  V30 6744 H 642.672 -2.77928 -1.41994 0
M  V30 6745 N 642.974 0.416227 -1.52004 0
M  V30 6746 C 643.904 1.51365 -1.77795 0
M  V30 6747 C 644.885 1.58059 -0.628601 0
M  V30 6748 O 646.07 1.73447 -0.873478 0
M  V30 6749 C 643.2 2.89256 -1.92219 0
M  V30 6750 C 642.154 2.97415 -3.0778 0
M  V30 6751 C 641.48 4.37492 -3.07417 0
M  V30 6752 C 642.78 2.69551 -4.47369 0
M  V30 6753 H 644.474 1.30033 -2.69688 0
M  V30 6754 H 642.02 0.624112 -1.29772 0
M  V30 6755 H 643.973 3.66008 -2.08845 0
M  V30 6756 H 642.697 3.11866 -0.969917 0
M  V30 6757 H 641.356 2.23107 -2.90893 0
M  V30 6758 H 641.004 4.571 -2.09925 0
M  V30 6759 H 640.704 4.43877 -3.85029 0
M  V30 6760 H 642.228 5.16188 -3.26162 0
M  V30 6761 H 643.642 3.36028 -4.64497 0
M  V30 6762 H 642.039 2.87321 -5.26846 0
M  V30 6763 H 643.109 1.65029 -4.55953 0
M  V30 6764 N 644.452 1.42507 0.673017 0
M  V30 6765 C 645.382 1.48916 1.79851 0
M  V30 6766 C 646.363 0.345566 1.66553 0
M  V30 6767 O 647.548 0.560116 1.85947 0
M  V30 6768 C 644.678 1.39258 3.18158 0
M  V30 6769 C 643.632 2.51662 3.46194 0
M  V30 6770 C 642.958 2.27062 4.84094 0
M  V30 6771 C 644.258 3.93968 3.42909 0
M  V30 6772 H 645.952 2.43114 1.74745 0
M  V30 6773 H 643.498 1.17013 0.839288 0
M  V30 6774 H 645.451 1.42349 3.96629 0
M  V30 6775 H 644.175 0.415542 3.23946 0
M  V30 6776 H 642.834 2.47891 2.70084 0
M  V30 6777 H 642.482 1.27648 4.86534 0
M  V30 6778 H 642.182 3.02398 5.03815 0
M  V30 6779 H 643.706 2.31905 5.64847 0
M  V30 6780 H 645.12 3.99332 4.11347 0
M  V30 6781 H 643.517 4.6917 3.74165 0
M  V30 6782 H 644.587 4.20512 2.41449 0
M  V30 6783 N 645.93 -0.909495 1.28709 0
M  V30 6784 C 647.179 -1.65365 1.15487 0
M  V30 6785 C 647.492 -1.93364 -0.294941 0
M  V30 6786 O 648.698 -2.65905 -0.548338 0
M  V30 6787 C 647.154 -2.97923 2.01916 0
M  V30 6788 C 646.762 -2.77556 3.51663 0
M  V30 6789 C 648.506 -3.75814 1.97393 0
M  V30 6790 C 646.413 -4.0578 4.30229 0
M  V30 6791 H 645.343 -0.620323 0.42862 0
M  V30 6792 H 647.994 -1.00894 1.53273 0
M  V30 6793 H 646.376 -3.63552 1.5699 0
M  V30 6794 H 647.55 -2.2058 4.04575 0
M  V30 6795 H 645.865 -2.13072 3.57756 0
M  V30 6796 H 648.462 -4.70866 2.53357 0
M  V30 6797 H 648.805 -4.05277 0.951643 0
M  V30 6798 H 649.338 -3.1701 2.40311 0
M  V30 6799 H 646.077 -3.81488 5.33055 0
M  V30 6800 H 645.597 -4.62351 3.82089 0
M  V30 6801 H 647.276 -4.74004 4.40374 0
M  V30 6802 N 647.408 -1.11026 -1.11852 0
M  V30 6803 C 648.655 -0.85646 -1.83497 0
M  V30 6804 C 648.983 0.617938 -1.84423 0
M  V30 6805 O 648.238 1.47194 -1.28966 0
M  V30 6806 C 648.537 -1.35777 -3.30604 0
M  V30 6807 C 648.203 -2.84465 -3.49843 0
M  V30 6808 C 646.865 -3.25068 -3.54802 0
M  V30 6809 C 649.217 -3.80251 -3.56453 0
M  V30 6810 C 646.545 -4.60194 -3.63921 0
M  V30 6811 C 648.897 -5.15188 -3.67102 0
M  V30 6812 C 647.561 -5.55356 -3.70319 0
M  V30 6813 H 646.831 -0.313401 -0.671462 0
M  V30 6814 H 649.478 -1.38792 -1.31943 0
M  V30 6815 H 647.783 -0.746455 -3.84624 0
M  V30 6816 H 649.48 -1.13779 -3.8452 0
M  V30 6817 H 646.07 -2.52054 -3.46651 0
M  V30 6818 H 650.254 -3.49986 -3.51886 0
M  V30 6819 H 645.51 -4.90728 -3.64686 0
M  V30 6820 H 649.684 -5.89248 -3.71159 0
M  V30 6821 H 647.311 -6.60054 -3.77138 0
M  V30 6822 N 648.886 1.2938 -0.899927 0
M  V30 6823 C 650.133 1.9555 -0.525963 0
M  V30 6824 C 650.461 1.70945 0.927789 0
M  V30 6825 O 649.716 1.01545 1.67293 0
M  V30 6826 C 650.015 3.49114 -0.765113 0
M  V30 6827 C 649.681 3.93796 -2.19626 0
M  V30 6828 C 648.343 4.05707 -2.58758 0
M  V30 6829 C 650.695 4.16883 -3.12823 0
M  V30 6830 C 648.023 4.38074 -3.90267 0
M  V30 6831 C 650.375 4.50725 -4.4388 0
M  V30 6832 C 649.039 4.60845 -4.82885 0
M  V30 6833 H 648.309 0.715569 -0.192463 0
M  V30 6834 H 650.956 1.53972 -1.13863 0
M  V30 6835 H 649.261 3.91738 -0.069531 0
M  V30 6836 H 650.958 3.98409 -0.455144 0
M  V30 6837 H 647.548 3.85042 -1.88256 0
M  V30 6838 H 651.732 4.07147 -2.83804 0
M  V30 6839 H 646.988 4.44112 -4.20207 0
M  V30 6840 H 651.162 4.67538 -5.16121 0
M  V30 6841 H 648.789 4.85681 -5.84823 0
M  V30 6842 N 650.364 0.662433 1.43002 0
M  V30 6843 C 651.294 -0.00979809 2.33498 0
M  V30 6844 C 652.275 -0.802329 1.49989 0
M  V30 6845 O 653.46 -0.761964 1.78627 0
M  V30 6846 C 650.59 -0.970446 3.33466 0
M  V30 6847 C 649.544 -0.287383 4.27034 0
M  V30 6848 C 648.87 -1.36012 5.17112 0
M  V30 6849 C 650.17 0.82595 5.15728 0
M  V30 6850 H 651.864 0.745959 2.89958 0
M  V30 6851 H 649.41 0.360172 1.39423 0
M  V30 6852 H 651.363 -1.44971 3.95679 0
M  V30 6853 H 650.087 -1.75748 2.75282 0
M  V30 6854 H 648.746 0.17152 3.66199 0
M  V30 6855 H 648.394 -2.13882 4.55262 0
M  V30 6856 H 648.094 -0.908276 5.80538 0
M  V30 6857 H 649.618 -1.84056 5.82199 0
M  V30 6858 H 651.032 0.42845 5.71697 0
M  V30 6859 H 649.429 1.20282 5.87922 0
M  V30 6860 H 650.499 1.68003 4.54866 0
M  V30 6861 N 651.842 -1.52309 0.404946 0
M  V30 6862 C 653.089 -2.01767 -0.1722 0
M  V30 6863 C 653.417 -1.29075 -1.45498 0
M  V30 6864 O 652.672 -0.3843 -1.9189 0
M  V30 6865 C 652.971 -3.54284 -0.470895 0
M  V30 6866 C 652.637 -4.45079 0.722194 0
M  V30 6867 C 651.299 -4.69617 1.04946 0
M  V30 6868 C 653.651 -4.98555 1.51962 0
M  V30 6869 C 650.979 -5.44878 2.17543 0
M  V30 6870 C 653.331 -5.75049 2.63632 0
M  V30 6871 C 651.995 -5.9786 2.9685 0
M  V30 6872 H 651.265 -0.738316 -0.0630125 0
M  V30 6873 H 653.912 -1.83566 0.545506 0
M  V30 6874 H 652.217 -3.70642 -1.27012 0
M  V30 6875 H 653.914 -3.90058 -0.930346 0
M  V30 6876 H 650.504 -4.26155 0.457131 0
M  V30 6877 H 654.688 -4.79509 1.28002 0
M  V30 6878 H 649.944 -5.60762 2.43631 0
M  V30 6879 H 654.118 -6.15483 3.25813 0
M  V30 6880 H 651.745 -6.5596 3.84215 0
M  V30 6881 N 653.32 -0.135238 -1.57019 0
M  V30 6882 C 654.569 0.518694 -1.94917 0
M  V30 6883 C 654.882 1.66783 -1.0219 0
M  V30 6884 O 656.088 2.38561 -1.29619 0
M  V30 6885 C 654.544 0.974123 -3.46466 0
M  V30 6886 C 654.152 -0.147439 -4.47757 0
M  V30 6887 C 655.896 1.59851 -3.93253 0
M  V30 6888 C 653.803 0.325599 -5.90503 0
M  V30 6889 H 652.733 0.19754 -0.727663 0
M  V30 6890 H 655.384 -0.217698 -1.82204 0
M  V30 6891 H 653.766 1.76542 -3.5447 0
M  V30 6892 H 654.94 -0.924122 -4.51438 0
M  V30 6893 H 653.255 -0.679496 -4.10818 0
M  V30 6894 H 655.852 1.96385 -4.9733 0
M  V30 6895 H 656.195 2.48306 -3.3414 0
M  V30 6896 H 656.728 0.872323 -3.88118 0
M  V30 6897 H 653.467 -0.523295 -6.53408 0
M  V30 6898 H 652.987 1.06841 -5.90208 0
M  V30 6899 H 654.666 0.781498 -6.42263 0
M  V30 6900 N 654.798 1.5699 0.138552 0
M  V30 6901 C 656.046 1.83446 0.848053 0
M  V30 6902 C 656.367 0.71744 1.81322 0
M  V30 6903 O 655.637 -0.260228 1.94164 0
M  V30 6904 H 654.217 0.676792 0.316166 0
M  V30 6905 H 656.879 1.94462 0.130538 0
M  V30 6906 H 655.975 2.78677 1.40518 0
M  V30 6907 N 656.276 -0.40816 1.52223 0
M  V30 6908 C 657.522 -1.15673 1.66576 0
M  V30 6909 C 657.855 -1.90141 0.394996 0
M  V30 6910 O 657.13 -1.84798 -0.606613 0
M  V30 6911 C 657.413 -2.15042 2.88841 0
M  V30 6912 C 657.266 -1.44465 4.25969 0
M  V30 6913 C 658.585 -3.15699 3.0663 0
M  V30 6914 H 655.704 -0.41916 0.606196 0
M  V30 6915 H 658.346 -0.442348 1.84779 0
M  V30 6916 H 656.496 -2.75964 2.73452 0
M  V30 6917 H 658.168 -0.866544 4.53088 0
M  V30 6918 H 656.411 -0.746612 4.27327 0
M  V30 6919 H 657.082 -2.16976 5.07568 0
M  V30 6920 H 659.558 -2.64854 3.20923 0
M  V30 6921 H 658.434 -3.82491 3.9369 0
M  V30 6922 H 658.695 -3.83481 2.19987 0
M  V30 6923 N 657.755 -1.42862 -0.66545 0
M  V30 6924 C 659.004 -1.43119 -1.42126 0
M  V30 6925 C 659.317 -0.0545297 -1.95524 0
M  V30 6926 O 660.523 0.0654747 -2.71421 0
M  V30 6927 C 658.979 -2.51797 -2.5715 0
M  V30 6928 C 658.587 -3.95514 -2.10411 0
M  V30 6929 C 660.331 -2.61233 -3.346 0
M  V30 6930 C 658.238 -4.95682 -3.22573 0
M  V30 6931 H 657.168 -0.532349 -0.533966 0
M  V30 6932 H 659.819 -1.68806 -0.719506 0
M  V30 6933 H 658.201 -2.19292 -3.29738 0
M  V30 6934 H 659.375 -4.3742 -1.44915 0
M  V30 6935 H 657.69 -3.90012 -1.45874 0
M  V30 6936 H 660.287 -3.33248 -4.18151 0
M  V30 6937 H 660.63 -1.65896 -3.81817 0
M  V30 6938 H 661.163 -2.9298 -2.69087 0
M  V30 6939 H 657.902 -5.92529 -2.80338 0
M  V30 6940 H 657.422 -4.58399 -3.86821 0
M  V30 6941 H 659.101 -5.17828 -3.87896 0
M  V30 6942 N 659.233 0.902656 -1.29189 0
M  V30 6943 C 660.163 2.02294 -1.16616 0
M  V30 6944 C 661.144 1.6999 -0.0611175 0
M  V30 6945 O 662.329 1.9271 -0.240072 0
M  V30 6946 C 659.459 3.37018 -0.83882 0
M  V30 6947 C 658.413 3.83522 -1.89986 0
M  V30 6948 C 657.739 5.15337 -1.42589 0
M  V30 6949 C 659.039 4.04169 -3.30824 0
M  V30 6950 H 660.733 2.13071 -2.10336 0
M  V30 6951 H 658.279 1.02378 -1.01266 0
M  V30 6952 H 660.232 4.14895 -0.737584 0
M  V30 6953 H 658.956 3.26325 0.134071 0
M  V30 6954 H 657.615 3.07859 -1.99043 0
M  V30 6955 H 657.263 5.01056 -0.441759 0
M  V30 6956 H 656.963 5.47423 -2.13547 0
M  V30 6957 H 658.487 5.95758 -1.3381 0
M  V30 6958 H 659.901 4.72537 -3.24626 0
M  V30 6959 H 658.298 4.47604 -3.99713 0
M  V30 6960 H 659.368 3.08604 -3.74021 0
M  V30 6961 N 660.711 1.11618 1.11262 0
M  V30 6962 C 661.958 0.86618 1.8304 0
M  V30 6963 C 662.286 -0.608149 1.84748 0
M  V30 6964 O 661.541 -1.46508 1.29745 0
M  V30 6965 C 661.84 1.37529 3.2988 0
M  V30 6966 C 661.506 2.86317 3.4833 0
M  V30 6967 C 660.168 3.26945 3.53073 0
M  V30 6968 C 662.52 3.82136 3.54431 0
M  V30 6969 C 659.848 4.62117 3.61475 0
M  V30 6970 C 662.2 5.17128 3.64365 0
M  V30 6971 C 660.864 5.57312 3.67369 0
M  V30 6972 H 660.134 0.316958 0.66979 0
M  V30 6973 H 662.781 1.3949 1.31205 0
M  V30 6974 H 661.086 0.766842 3.84222 0
M  V30 6975 H 662.783 1.15817 3.83911 0
M  V30 6976 H 659.373 2.53889 3.45309 0
M  V30 6977 H 663.557 3.51847 3.50025 0
M  V30 6978 H 658.813 4.92655 3.62079 0
M  V30 6979 H 662.987 5.91208 3.68029 0
M  V30 6980 H 660.614 6.62045 3.73632 0
M  V30 6981 N 662.189 -1.289 0.906776 0
M  V30 6982 C 663.414 -1.99939 0.551303 0
M  V30 6983 C 663.839 -1.67366 -0.858496 0
M  V30 6984 O 663.197 -0.902176 -1.57259 0
M  V30 6985 C 663.245 -3.52523 0.758937 0
M  V30 6986 O 662.349 -4.11983 -0.185308 0
M  V30 6987 H 661.69 -0.628376 0.214568 0
M  V30 6988 H 664.22 -1.64225 1.2203 0
M  V30 6989 H 664.23 -4.02522 0.666329 0
M  V30 6990 H 662.905 -3.75566 1.78671 0
M  V30 6991 H 661.482 -3.72873 -0.0445577 0
M  V30 6992 N 663.667 -0.670007 -1.42649 0
M  V30 6993 C 664.892 -0.196955 -2.06463 0
M  V30 6994 C 665.317 1.1352 -1.49983 0
M  V30 6995 O 664.675 1.705 -0.616397 0
M  V30 6996 C 664.723 -0.137381 -3.60338 0
M  V30 6997 O 663.827 0.895523 -4.02559 0
M  V30 6998 H 663.168 -0.102579 -0.656029 0
M  V30 6999 H 665.698 -0.917669 -1.82866 0
M  V30 7000 H 665.708 0.0403625 -4.0798 0
M  V30 7001 H 664.383 -1.10977 -4.0082 0
M  V30 7002 H 662.96 0.689209 -3.66476 0
M  V30 7003 N 665.145 1.52092 -0.413018 0
M  V30 7004 C 666.108 2.25706 0.398687 0
M  V30 7005 C 667.108 1.28221 0.970368 0
M  V30 7006 O 668.298 1.52131 0.848635 0
M  V30 7007 C 665.43 3.03029 1.5616 0
M  V30 7008 H 666.623 2.98888 -0.246131 0
M  V30 7009 H 664.176 1.5542 -0.165622 0
M  V30 7010 H 664.911 2.34205 2.24317 0
M  V30 7011 H 664.696 3.74606 1.15812 0
M  V30 7012 H 666.186 3.58857 2.13569 0
M  V30 7013 N 666.623 0.143563 1.56945 0
M  V30 7014 C 667.869 -0.50916 1.96304 0
M  V30 7015 C 668.202 -1.64741 1.0283 0
M  V30 7016 O 667.477 -1.94374 0.0700361 0
M  V30 7017 C 667.76 -1.0186 3.45393 0
M  V30 7018 C 667.613 0.117923 4.49645 0
M  V30 7019 C 668.932 -1.90151 3.96901 0
M  V30 7020 H 666.051 -0.183608 0.713763 0
M  V30 7021 H 668.693 0.224095 1.88674 0
M  V30 7022 H 666.843 -1.64345 3.52027 0
M  V30 7023 H 668.515 0.754145 4.55094 0
M  V30 7024 H 666.758 0.777568 4.26774 0
M  V30 7025 H 667.429 -0.280187 5.51288 0
M  V30 7026 H 669.905 -1.375 3.92725 0
M  V30 7027 H 668.781 -2.22707 5.0169 0
M  V30 7028 H 669.042 -2.83718 3.39052 0
M  V30 7029 N 668.101 -1.57061 -0.130224 0
M  V30 7030 C 669.331 -1.88159 -0.853217 0
M  V30 7031 C 669.739 -0.731675 -1.7448 0
M  V30 7032 O 669.082 0.307035 -1.81116 0
M  V30 7033 C 669.144 -3.1415 -1.74785 0
M  V30 7034 C 668.808 -4.45202 -1.03173 0
M  V30 7035 C 669.805 -5.18526 -0.377759 0
M  V30 7036 C 667.49 -4.91912 -1.01624 0
M  V30 7037 C 669.484 -6.36775 0.282123 0
M  V30 7038 C 667.171 -6.10082 -0.352555 0
M  V30 7039 C 668.169 -6.82361 0.295483 0
M  V30 7040 O 667.857 -7.98284 0.948606 0
M  V30 7041 H 667.589 -0.627596 -0.251197 0
M  V30 7042 H 670.143 -2.05034 -0.1226 0
M  V30 7043 H 668.373 -2.93328 -2.51983 0
M  V30 7044 H 670.062 -3.31359 -2.34427 0
M  V30 7045 H 670.828 -4.83498 -0.381417 0
M  V30 7046 H 666.707 -4.35566 -1.51007 0
M  V30 7047 H 670.251 -6.93129 0.788525 0
M  V30 7048 H 666.148 -6.44569 -0.346621 0
M  V30 7049 H 666.916 -8.14054 0.851954 0
M  V30 7050 N 669.579 0.400081 -1.52437 0
M  V30 7051 C 670.826 1.14619 -1.6694 0
M  V30 7052 C 671.154 1.90262 -0.403797 0
M  V30 7053 O 670.409 1.85835 0.61351 0
M  V30 7054 C 670.708 2.15914 -2.84808 0
M  V30 7055 C 670.374 1.57011 -4.2268 0
M  V30 7056 C 669.036 1.40672 -4.60179 0
M  V30 7057 C 671.388 1.14081 -5.08562 0
M  V30 7058 C 668.716 0.799335 -5.81229 0
M  V30 7059 C 671.068 0.547573 -6.30226 0
M  V30 7060 C 669.732 0.371389 -6.66466 0
M  V30 7061 H 669.002 0.419419 -0.610875 0
M  V30 7062 H 671.649 0.432227 -1.86558 0
M  V30 7063 H 669.954 2.93488 -2.59561 0
M  V30 7064 H 671.651 2.73533 -2.93225 0
M  V30 7065 H 668.241 1.70713 -3.93135 0
M  V30 7066 H 672.425 1.2551 -4.80168 0
M  V30 7067 H 667.681 0.65093 -6.07925 0
M  V30 7068 H 671.855 0.206575 -6.96094 0
M  V30 7069 H 669.482 -0.10135 -7.60132 0
M  V30 7070 N 671.057 1.43213 0.657864 0
M  V30 7071 C 672.02 1.47687 1.75275 0
M  V30 7072 C 673.02 0.362179 1.56668 0
M  V30 7073 O 674.21 0.623734 1.62651 0
M  V30 7074 C 671.342 1.32497 3.14098 0
M  V30 7075 H 672.535 2.4519 1.7269 0
M  V30 7076 H 670.088 1.2991 0.869087 0
M  V30 7077 H 670.823 0.359831 3.22298 0
M  V30 7078 H 670.608 2.13299 3.29008 0
M  V30 7079 H 672.098 1.38549 3.93946 0
M  V30 7080 N 672.536 -0.895792 1.29666 0
M  V30 7081 C 673.446 -2.03329 1.17024 0
M  V30 7082 C 674.462 -1.73753 0.0925962 0
M  V30 7083 O 675.638 -1.99071 0.305431 0
M  V30 7084 C 672.703 -3.36072 0.851841 0
M  V30 7085 C 671.764 -3.7914 2.01373 0
M  V30 7086 C 670.997 -5.05549 1.71043 0
M  V30 7087 O 671.22 -5.66874 0.633213 0
M  V30 7088 O 670.154 -5.44764 2.5596 0
M  V30 7089 H 673.98 -2.16918 2.12556 0
M  V30 7090 H 671.565 -1.02007 1.09156 0
M  V30 7091 H 673.447 -4.15729 0.689006 0
M  V30 7092 H 672.122 -3.23616 -0.0736634 0
M  V30 7093 H 671.029 -3.00233 2.23183 0
M  V30 7094 H 672.362 -3.96186 2.92058 0
M  V30 7095 N 674.014 -1.12206 -1.10668 0
M  V30 7096 C 674.977 -0.790867 -2.15123 0
M  V30 7097 C 675.977 0.193618 -1.5963 0
M  V30 7098 O 677.167 -0.0318728 -1.74171 0
M  V30 7099 C 674.299 -0.174797 -3.40452 0
M  V30 7100 H 675.492 -1.7163 -2.45933 0
M  V30 7101 H 673.045 -0.924993 -1.2599 0
M  V30 7102 H 673.78 0.760478 -3.15257 0
M  V30 7103 H 673.565 -0.88358 -3.82015 0
M  V30 7104 H 675.055 0.0405162 -4.1758 0
M  V30 7105 N 675.492 1.28418 -0.913599 0
M  V30 7106 C 676.769 1.89977 -0.465619 0
M  V30 7107 C 677.149 1.82813 1.05559 0
M  V30 7108 O 676.497 1.26397 1.90358 0
M  V30 7109 C 676.707 3.34492 -0.995813 0
M  V30 7110 C 678.055 4.11468 -1.04782 0
M  V30 7111 O 679.079 3.43451 -0.944445 0
M  V30 7112 O 677.938 5.33046 -1.20518 0
M  V30 7113 H 675.032 0.813734 -0.147532 0
M  V30 7114 H 677.578 1.36786 -1.00437 0
M  V30 7115 H 676.35 3.33929 -2.03978 0
M  V30 7116 H 675.973 3.95181 -0.437878 0
M  V30 7117 N 676.97 0.677563 1.42291 0
M  V30 7118 C 677.918 -0.0106755 2.32598 0
M  V30 7119 C 678.912 -0.787643 1.49975 0
M  V30 7120 O 680.118 -0.695295 1.66029 0
M  V30 7121 H 676.493 -0.0222482 0.751671 0
M  V30 7122 H 678.464 0.768312 2.88339 0
M  V30 7123 C 677.213 -0.946142 3.3458 0
M  V30 7124 H 676.536 -0.357701 3.98197 0
M  V30 7125 H 677.976 -1.39634 4.00348 0
M  V30 7126 C 676.435 -2.05383 2.67057 0
M  V30 7127 O 676.965 -3.1406 2.50458 0
M  V30 7128 N 675.171 -1.82635 2.26038 0
M  V30 7129 H 674.718 -0.942534 2.39737 0
M  V30 7130 H 674.676 -2.56937 1.81192 0
M  V30 7131 N 678.448 -1.51871 0.421078 0
M  V30 7132 C 679.38 -2.25052 -0.434065 0
M  V30 7133 C 680.393 -1.28458 -1.00013 0
M  V30 7134 O 681.582 -1.54323 -0.897033 0
M  V30 7135 C 678.682 -2.97813 -1.61743 0
M  V30 7136 C 677.855 -4.21374 -1.17315 0
M  V30 7137 C 676.914 -4.76854 -2.22478 0
M  V30 7138 O 675.94 -5.39123 -1.82577 0
M  V30 7139 N 677.142 -4.59467 -3.54782 0
M  V30 7140 H 679.907 -2.99077 0.193073 0
M  V30 7141 H 677.468 -1.59972 0.249088 0
M  V30 7142 H 679.46 -3.3182 -2.31685 0
M  V30 7143 H 678.03 -2.26899 -2.15024 0
M  V30 7144 H 677.25 -3.93046 -0.3014 0
M  V30 7145 H 678.538 -5.01591 -0.853444 0
M  V30 7146 H 677.936 -4.09832 -3.89941 0
M  V30 7147 H 676.493 -4.9788 -4.20665 0
M  V30 7148 N 679.926 -0.151884 -1.56866 0
M  V30 7149 C 681.174 0.497021 -1.95893 0
M  V30 7150 C 681.495 1.65078 -1.03799 0
M  V30 7151 O 680.765 1.95642 -0.10049 0
M  V30 7152 H 679.345 0.186603 -0.723318 0
M  V30 7153 H 682.007 -0.228525 -1.93556 0
M  V30 7154 H 681.103 0.869933 -2.99731 0
M  V30 7155 N 681.404 1.57128 0.121893 0
M  V30 7156 C 682.632 1.88883 0.844451 0
M  V30 7157 C 683.047 0.742824 1.73573 0
M  V30 7158 O 682.404 -0.286475 1.80238 0
M  V30 7159 C 682.455 3.20076 1.68029 0
M  V30 7160 O 682.176 4.30264 0.824898 0
M  V30 7161 C 683.677 3.65515 2.50826 0
M  V30 7162 H 680.897 0.62549 0.242907 0
M  V30 7163 H 683.441 2.04219 0.107151 0
M  V30 7164 H 681.596 3.06418 2.37038 0
M  V30 7165 H 682.01 5.05439 1.40113 0
M  V30 7166 H 683.484 4.60081 3.05008 0
M  V30 7167 H 683.961 2.92029 3.28048 0
M  V30 7168 H 684.567 3.81952 1.87064 0
M  V30 7169 N 682.882 -0.391992 1.52647 0
M  V30 7170 C 683.832 -1.47815 1.73594 0
M  V30 7171 C 684.816 -1.49693 0.589979 0
M  V30 7172 O 686.008 -1.5538 0.847701 0
M  V30 7173 C 683.137 -2.85561 1.90551 0
M  V30 7174 C 682.223 -2.88264 3.1107 0
M  V30 7175 N 682.614 -2.60642 4.33474 0
M  V30 7176 C 680.912 -3.19432 3.11254 0
M  V30 7177 C 681.613 -2.70351 5.15058 0
M  V30 7178 N 680.589 -3.03956 4.50679 0
M  V30 7179 H 684.391 -1.2528 2.65861 0
M  V30 7180 H 681.905 -0.599907 1.50913 0
M  V30 7181 H 683.902 -3.63759 2.03678 0
M  V30 7182 H 682.562 -3.09081 0.994952 0
M  V30 7183 H 683.573 -2.34718 4.61658 0
M  V30 7184 H 680.25 -3.48436 2.29997 0
M  V30 7185 H 681.64 -2.52565 6.22624 0
M  V30 7186 N 684.36 -1.4356 -0.65026 0
M  V30 7187 C 685.607 -1.45333 -1.41012 0
M  V30 7188 C 685.935 -0.0787282 -1.94341 0
M  V30 7189 O 685.19 0.916715 -1.72901 0
M  V30 7190 C 685.489 -2.44528 -2.60654 0
M  V30 7191 C 685.155 -3.90331 -2.25727 0
M  V30 7192 C 683.817 -4.3004 -2.15914 0
M  V30 7193 C 686.169 -4.822 -1.97821 0
M  V30 7194 C 683.497 -5.59568 -1.76354 0
M  V30 7195 C 685.849 -6.12095 -1.59759 0
M  V30 7196 C 684.513 -6.50778 -1.48473 0
M  V30 7197 H 683.783 -0.531813 -0.516 0
M  V30 7198 H 686.43 -1.76657 -0.739219 0
M  V30 7199 H 684.735 -2.06619 -3.3289 0
M  V30 7200 H 686.432 -2.43155 -3.18868 0
M  V30 7201 H 683.022 -3.58905 -2.34276 0
M  V30 7202 H 687.206 -4.5229 -2.04322 0
M  V30 7203 H 682.462 -5.88376 -1.66205 0
M  V30 7204 H 686.636 -6.82751 -1.37198 0
M  V30 7205 H 684.263 -7.5105 -1.17591 0
M  V30 7206 N 685.838 0.888903 -1.30139 0
M  V30 7207 C 687.063 1.67884 -1.21777 0
M  V30 7208 C 687.488 1.86848 0.216689 0
M  V30 7209 O 686.846 1.39659 1.15608 0
M  V30 7210 C 686.894 3.03483 -1.94757 0
M  V30 7211 O 685.998 3.92294 -1.27198 0
M  V30 7212 H 685.339 0.513144 -0.421402 0
M  V30 7213 H 687.869 1.10968 -1.71893 0
M  V30 7214 H 687.879 3.53553 -2.03627 0
M  V30 7215 H 686.554 2.89 -2.99085 0
M  V30 7216 H 685.131 3.50732 -1.26655 0
M  V30 7217 N 687.317 1.12792 1.10072 0
M  V30 7218 C 688.542 0.908838 1.86427 0
M  V30 7219 C 688.967 -0.536793 1.80278 0
M  V30 7220 O 688.325 -1.38033 1.17543 0
M  V30 7221 C 688.373 1.39295 3.3261 0
M  V30 7222 O 687.477 0.573846 4.08388 0
M  V30 7223 H 686.818 0.326234 0.578331 0
M  V30 7224 H 689.348 1.50094 1.39043 0
M  V30 7225 H 689.358 1.39366 3.83459 0
M  V30 7226 H 688.033 2.44555 3.36401 0
M  V30 7227 H 686.61 0.640438 3.67359 0
M  V30 7228 N 688.795 -1.27931 0.920396 0
M  V30 7229 C 690.044 -1.93975 0.552867 0
M  V30 7230 C 690.357 -1.73193 -0.909035 0
M  V30 7231 O 691.563 -2.33515 -1.38502 0
M  V30 7232 C 690.019 -3.47463 0.937947 0
M  V30 7233 C 689.627 -3.77013 2.42003 0
M  V30 7234 C 691.371 -4.19628 0.64132 0
M  V30 7235 C 689.278 -5.23841 2.74489 0
M  V30 7236 H 688.208 -0.726146 0.203046 0
M  V30 7237 H 690.859 -1.45339 1.12022 0
M  V30 7238 H 689.241 -3.94867 0.299317 0
M  V30 7239 H 690.415 -3.40393 3.10595 0
M  V30 7240 H 688.73 -3.18035 2.6878 0
M  V30 7241 H 691.327 -5.27729 0.860622 0
M  V30 7242 H 691.67 -4.14164 -0.421168 0
M  V30 7243 H 692.203 -3.78022 1.23872 0
M  V30 7244 H 688.942 -5.34388 3.79618 0
M  V30 7245 H 688.462 -5.61634 2.1054 0
M  V30 7246 H 690.141 -5.91647 2.61845 0
M  V30 7247 N 690.273 -0.685099 -1.4193 0
M  V30 7248 C 691.684 -0.287699 -1.8447 0
M  V30 7249 C 692.035 1.17215 -1.57338 0
M  V30 7250 O 691.16 1.89856 -1.03845 0
M  V30 7251 C 691.755 -0.515385 -3.34857 0
M  V30 7252 C 690.314 -0.172006 -3.76007 0
M  V30 7253 C 689.461 -0.802808 -2.65425 0
M  V30 7254 H 692.412 -0.88652 -1.3163 0
M  V30 7255 H 692.433 0.229251 -3.79809 0
M  V30 7256 H 691.945 -1.57796 -3.54573 0
M  V30 7257 H 690.046 0.886716 -3.61895 0
M  V30 7258 H 690.159 -0.619717 -4.75075 0
M  V30 7259 H 688.523 -0.233267 -2.5363 0
M  V30 7260 H 689.306 -1.86904 -2.87961 0
M  V30 7261 N 691.751 1.51645 -0.429126 0
M  V30 7262 C 693.028 1.94579 0.199614 0
M  V30 7263 C 693.408 1.3673 1.60836 0
M  V30 7264 O 692.756 0.551062 2.21756 0
M  V30 7265 C 692.966 3.48506 0.185685 0
M  V30 7266 C 694.314 4.22756 0.395282 0
M  V30 7267 O 695.338 3.55219 0.264165 0
M  V30 7268 O 694.197 5.42555 0.655475 0
M  V30 7269 H 691.291 0.816007 0.134393 0
M  V30 7270 H 693.837 1.62577 -0.486513 0
M  V30 7271 H 692.609 3.83045 -0.799508 0
M  V30 7272 H 692.232 3.86927 0.91507 0
M  V30 7273 N 693.229 0.160201 1.56784 0
M  V30 7274 C 694.192 -0.760405 2.16219 0
M  V30 7275 C 695.192 -1.16595 1.10735 0
M  V30 7276 O 696.382 -1.08472 1.36306 0
M  V30 7277 C 693.514 -2.03358 2.73603 0
M  V30 7278 H 694.707 -0.243173 2.98912 0
M  V30 7279 H 692.26 -0.0893139 1.56045 0
M  V30 7280 H 692.995 -2.59416 1.94612 0
M  V30 7281 H 692.78 -1.75186 3.50788 0
M  V30 7282 H 694.27 -2.69081 3.19351 0
M  V30 7283 N 694.707 -1.5719 -0.113559 0
M  V30 7284 C 695.954 -1.85138 -0.820382 0
M  V30 7285 C 696.282 -0.74608 -1.79622 0
M  V30 7286 O 695.537 0.262077 -1.93937 0
M  V30 7287 C 695.836 -3.19593 -1.59984 0
M  V30 7288 C 695.502 -4.44315 -0.767809 0
M  V30 7289 C 694.164 -4.78179 -0.538379 0
M  V30 7290 C 696.516 -5.2086 -0.188203 0
M  V30 7291 C 693.844 -5.86028 0.28082 0
M  V30 7292 C 696.196 -6.29572 0.618217 0
M  V30 7293 C 694.86 -6.61964 0.857912 0
M  V30 7294 H 694.13 -0.677467 -0.300199 0
M  V30 7295 H 696.777 -1.91322 -0.0825443 0
M  V30 7296 H 695.082 -3.0901 -2.40874 0
M  V30 7297 H 696.779 -3.3844 -2.1508 0
M  V30 7298 H 693.369 -4.17786 -0.956724 0
M  V30 7299 H 697.553 -4.95045 -0.352658 0
M  V30 7300 H 692.809 -6.09547 0.475693 0
M  V30 7301 H 696.983 -6.88064 1.0743 0
M  V30 7302 H 694.61 -7.45365 1.49451 0
M  V30 7303 N 696.185 0.383891 -1.52853 0
M  V30 7304 C 697.431 1.12667 -1.69345 0
M  V30 7305 C 697.786 1.87519 -0.430635 0
M  V30 7306 O 697.079 1.82742 0.575846 0
M  V30 7307 C 697.273 2.12881 -2.87082 0
M  V30 7308 C 697.102 1.47873 -4.24692 0
M  V30 7309 C 695.872 1.24064 -4.89833 0
M  V30 7310 C 698.07 0.926118 -5.05893 0
M  V30 7311 N 696.052 0.552138 -6.11412 0
M  V30 7312 C 697.423 0.365966 -6.18919 0
M  V30 7313 C 699.478 0.823023 -4.91051 0
M  V30 7314 C 698.181 -0.287204 -7.18726 0
M  V30 7315 C 700.207 0.183666 -5.91115 0
M  V30 7316 C 699.569 -0.365693 -7.0345 0
M  V30 7317 H 695.668 0.398064 -0.673104 0
M  V30 7318 H 698.252 0.415504 -1.90215 0
M  V30 7319 H 696.423 2.81329 -2.67784 0
M  V30 7320 H 698.155 2.79703 -2.92486 0
M  V30 7321 H 694.91 1.51701 -4.48647 0
M  V30 7322 H 695.334 0.223783 -6.7663 0
M  V30 7323 H 699.976 1.23354 -4.04405 0
M  V30 7324 H 697.694 -0.709719 -8.04977 0
M  V30 7325 H 701.28 0.105074 -5.81705 0
M  V30 7326 H 700.16 -0.85261 -7.79551 0
M  V30 7327 N 697.663 1.43903 0.642637 0
M  V30 7328 C 698.909 1.47291 1.40275 0
M  V30 7329 C 699.264 0.0996024 1.92142 0
M  V30 7330 O 698.557 -0.883423 1.70018 0
M  V30 7331 C 698.751 2.45907 2.59354 0
M  V30 7332 C 698.58 3.92691 2.19143 0
M  V30 7333 C 697.35 4.6097 2.06966 0
M  V30 7334 C 699.548 4.82231 1.78768 0
M  V30 7335 N 697.53 5.9263 1.60196 0
M  V30 7336 C 698.901 6.03246 1.43159 0
M  V30 7337 C 700.956 4.69397 1.66045 0
M  V30 7338 C 699.659 7.12851 0.961014 0
M  V30 7339 C 701.685 5.79016 1.20392 0
M  V30 7340 C 701.047 6.99164 0.857271 0
M  V30 7341 H 697.146 0.594055 0.50855 0
M  V30 7342 H 699.73 1.80153 0.738434 0
M  V30 7343 H 697.901 2.15054 3.23429 0
M  V30 7344 H 699.633 2.39665 3.26102 0
M  V30 7345 H 696.388 4.15622 2.27058 0
M  V30 7346 H 696.812 6.62547 1.39143 0
M  V30 7347 H 701.454 3.76954 1.91482 0
M  V30 7348 H 699.172 8.05113 0.694148 0
M  V30 7349 H 702.758 5.71109 1.11023 0
M  V30 7350 H 701.638 7.82544 0.509408 0
M  V30 7351 N 699.141 -0.881989 1.30609 0
M  V30 7352 C 700.104 -1.96957 1.1722 0
M  V30 7353 C 701.104 -1.60472 0.102598 0
M  V30 7354 O 702.294 -1.70628 0.350943 0
M  V30 7355 C 699.426 -3.31463 0.796572 0
M  V30 7356 H 700.619 -2.10262 2.13846 0
M  V30 7357 H 698.172 -1.06877 1.14048 0
M  V30 7358 H 698.907 -3.23859 -0.169053 0
M  V30 7359 H 698.692 -3.59314 1.56959 0
M  V30 7360 H 700.182 -4.11233 0.72645 0
M  V30 7361 N 700.619 -1.13374 -1.09472 0
M  V30 7362 C 701.865 -0.896516 -1.81908 0
M  V30 7363 C 702.198 0.575933 -1.85463 0
M  V30 7364 O 701.473 1.42618 -1.32251 0
M  V30 7365 C 701.756 -1.48445 -3.28079 0
M  V30 7366 C 701.609 -3.02598 -3.32798 0
M  V30 7367 C 702.928 -1.15226 -4.24748 0
M  V30 7368 H 700.047 -0.327127 -0.660422 0
M  V30 7369 H 702.689 -1.40195 -1.2824 0
M  V30 7370 H 700.839 -1.0546 -3.73912 0
M  V30 7371 H 702.511 -3.54335 -2.95372 0
M  V30 7372 H 700.754 -3.37613 -2.72397 0
M  V30 7373 H 701.425 -3.38835 -4.3577 0
M  V30 7374 H 703.901 -1.52369 -3.87199 0
M  V30 7375 H 702.777 -1.59012 -5.25363 0
M  V30 7376 H 703.038 -0.0658891 -4.42051 0
M  V30 7377 N 702.098 1.27442 -0.927168 0
M  V30 7378 C 703.344 1.94679 -0.568164 0
M  V30 7379 C 703.677 1.72697 0.888219 0
M  V30 7380 O 702.952 1.05573 1.63354 0
M  V30 7381 C 703.235 3.4882 -0.894253 0
M  V30 7382 C 703.088 3.80146 -2.40435 0
M  V30 7383 C 704.407 4.38281 -0.399766 0
M  V30 7384 H 701.526 0.707071 -0.207892 0
M  V30 7385 H 704.168 1.50568 -1.15885 0
M  V30 7386 H 702.318 3.86522 -0.391566 0
M  V30 7387 H 703.99 3.52238 -2.97869 0
M  V30 7388 H 702.233 3.26716 -2.85375 0
M  V30 7389 H 702.904 4.87835 -2.58304 0
M  V30 7390 H 705.38 4.07726 -0.83058 0
M  V30 7391 H 704.256 5.44955 -0.656885 0
M  V30 7392 H 704.517 4.36521 0.700153 0
M  V30 7393 N 703.576 0.692616 1.41565 0
M  V30 7394 C 704.804 0.231279 2.05603 0
M  V30 7395 C 705.219 -1.11837 1.52111 0
M  V30 7396 O 704.576 -1.6983 0.66813 0
M  V30 7397 C 704.627 0.177125 3.61066 0
M  V30 7398 O 704.348 1.47346 4.12578 0
M  V30 7399 C 705.849 -0.30556 4.42246 0
M  V30 7400 H 703.069 0.108238 0.662213 0
M  V30 7401 H 705.613 0.944369 1.81389 0
M  V30 7402 H 703.768 -0.486769 3.8433 0
M  V30 7403 H 704.182 1.35861 5.06599 0
M  V30 7404 H 705.656 -0.29233 5.51225 0
M  V30 7405 H 706.133 -1.34393 4.18133 0
M  V30 7406 H 706.739 0.327229 4.24039 0
M  V30 7407 N 705.054 -1.51416 0.437162 0
M  V30 7408 C 705.987 -2.24309 -0.419602 0
M  V30 7409 C 706.965 -1.26236 -1.02485 0
M  V30 7410 O 708.149 -1.5537 -1.06735 0
M  V30 7411 C 705.276 -2.99335 -1.58482 0
M  V30 7412 C 704.322 -4.12064 -1.10027 0
M  V30 7413 S 705.155 -5.35483 -0.0424476 0
M  V30 7414 C 706.311 -6.14047 -1.21234 0
M  V30 7415 H 706.544 -2.96632 0.199259 0
M  V30 7416 H 704.077 -1.528 0.22168 0
M  V30 7417 H 706.035 -3.43159 -2.25282 0
M  V30 7418 H 704.696 -2.26602 -2.17509 0
M  V30 7419 H 703.889 -4.63836 -1.97161 0
M  V30 7420 H 703.491 -3.70499 -0.510507 0
M  V30 7421 H 705.783 -6.43123 -2.13072 0
M  V30 7422 H 706.726 -7.04279 -0.734582 0
M  V30 7423 H 707.134 -5.45538 -1.45082 0
M  V30 7424 N 706.532 -0.168513 -1.56696 0
M  V30 7425 C 707.76 0.483503 -2.01171 0
M  V30 7426 C 708.175 1.56994 -1.04872 0
M  V30 7427 O 707.532 1.82434 -0.0491337 0
M  V30 7428 C 707.583 1.0644 -3.45475 0
M  V30 7429 O 707.304 0.0213375 -4.38095 0
M  V30 7430 C 708.805 1.79493 -4.05336 0
M  V30 7431 H 706.025 0.124002 -0.659443 0
M  V30 7432 H 708.569 -0.269419 -2.02717 0
M  V30 7433 H 706.724 1.76784 -3.44712 0
M  V30 7434 H 707.138 0.449837 -5.22567 0
M  V30 7435 H 708.612 2.15401 -5.08238 0
M  V30 7436 H 709.089 2.68889 -3.47269 0
M  V30 7437 H 709.695 1.13798 -4.09793 0
M  V30 7438 N 708.01 1.57248 0.105221 0
M  V30 7439 C 709.238 1.89768 0.82437 0
M  V30 7440 C 709.653 0.761192 1.72775 0
M  V30 7441 O 709.01 -0.267342 1.80531 0
M  V30 7442 C 709.061 3.2184 1.64625 0
M  V30 7443 O 708.782 4.31115 0.779217 0
M  V30 7444 C 710.283 3.68155 2.46935 0
M  V30 7445 H 707.503 0.628031 0.236259 0
M  V30 7446 H 710.047 2.04321 0.085485 0
M  V30 7447 H 708.202 3.08915 2.33775 0
M  V30 7448 H 708.616 5.06897 1.34745 0
M  V30 7449 H 710.09 4.6329 3.00111 0
M  V30 7450 H 710.567 2.95492 3.24932 0
M  V30 7451 H 711.173 3.83914 1.83002 0
M  V30 7452 N 709.488 -0.375779 1.53054 0
M  V30 7453 C 710.734 -1.12114 1.68992 0
M  V30 7454 C 711.067 -1.8926 0.435238 0
M  V30 7455 O 710.342 -1.86044 -0.567278 0
M  V30 7456 C 710.625 -2.08867 2.93337 0
M  V30 7457 C 710.478 -1.35397 4.28938 0
M  V30 7458 C 711.797 -3.09124 3.13257 0
M  V30 7459 H 708.916 -0.406207 0.614951 0
M  V30 7460 H 711.558 -0.403054 1.85676 0
M  V30 7461 H 709.708 -2.70102 2.79244 0
M  V30 7462 H 711.38 -0.770242 4.54824 0
M  V30 7463 H 709.623 -0.655801 4.28814 0
M  V30 7464 H 710.294 -2.06161 5.12056 0
M  V30 7465 H 712.77 -2.57987 3.26469 0
M  V30 7466 H 711.646 -3.74054 4.01715 0
M  V30 7467 H 711.907 -3.78729 2.28072 0
M  V30 7468 N 710.966 -1.44241 -0.634997 0
M  V30 7469 C 712.214 -1.46531 -1.39187 0
M  V30 7470 C 712.535 -0.0976441 -1.94755 0
M  V30 7471 O 711.805 0.869528 -1.75545 0
M  V30 7472 H 710.385 -0.539544 -0.516625 0
M  V30 7473 H 713.047 -1.79989 -0.747655 0
M  V30 7474 H 712.143 -2.18848 -2.22513 0
M  V30 7475 N 712.444 0.87505 -1.31075 0
M  V30 7476 C 713.674 1.65818 -1.2324 0
M  V30 7477 C 714.082 1.8808 0.205536 0
M  V30 7478 O 713.425 1.43548 1.14628 0
M  V30 7479 C 713.487 3.05131 -1.90093 0
M  V30 7480 C 713.151 3.05999 -3.39432 0
M  V30 7481 C 714.148 2.84328 -4.35263 0
M  V30 7482 C 711.833 3.27281 -3.81041 0
M  V30 7483 C 713.827 2.83912 -5.70678 0
M  V30 7484 C 711.514 3.26493 -5.16571 0
M  V30 7485 C 712.512 3.04834 -6.112 0
M  V30 7486 O 712.2 3.03882 -7.44252 0
M  V30 7487 H 711.932 0.52387 -0.427242 0
M  V30 7488 H 714.486 1.10086 -1.73408 0
M  V30 7489 H 712.716 3.62568 -1.34468 0
M  V30 7490 H 714.405 3.65641 -1.76242 0
M  V30 7491 H 715.171 2.67673 -4.04445 0
M  V30 7492 H 711.05 3.43171 -3.07822 0
M  V30 7493 H 714.594 2.66925 -6.44513 0
M  V30 7494 H 710.491 3.42687 -5.47025 0
M  V30 7495 H 711.259 3.19979 -7.53363 0
M  V30 7496 N 713.922 1.13953 1.08869 0
M  V30 7497 C 715.17 0.903023 1.80803 0
M  V30 7498 C 715.491 -0.572151 1.86417 0
M  V30 7499 O 714.761 -1.41589 1.35386 0
M  V30 7500 H 713.341 0.331099 0.669614 0
M  V30 7501 H 716.003 1.43719 1.31647 0
M  V30 7502 H 715.099 1.29881 2.83791 0
M  V30 7503 N 715.4 -1.26948 0.933913 0
M  V30 7504 C 716.677 -1.89212 0.495784 0
M  V30 7505 C 717.057 -1.84469 -1.02637 0
M  V30 7506 O 716.405 -1.29409 -1.88323 0
M  V30 7507 C 716.615 -3.32865 1.0489 0
M  V30 7508 C 717.963 -4.09749 1.11315 0
M  V30 7509 O 718.987 -3.41905 0.998966 0
M  V30 7510 O 717.846 -5.31061 1.28983 0
M  V30 7511 H 714.94 -0.811284 0.160459 0
M  V30 7512 H 717.486 -1.35171 1.02601 0
M  V30 7513 H 716.258 -3.30642 2.09265 0
M  V30 7514 H 715.881 -3.94435 0.500692 0
M  V30 7515 N 716.879 -0.700114 -1.41195 0
M  V30 7516 C 717.812 0.0129614 -2.28196 0
M  V30 7517 C 718.79 0.783367 -1.42486 0
M  V30 7518 O 719.974 0.773238 -1.71911 0
M  V30 7519 C 717.101 1.02575 -3.22794 0
M  V30 7520 C 716.147 0.347977 -4.25078 0
M  V30 7521 S 716.98 -0.912938 -5.27661 0
M  V30 7522 C 718.136 0.0981362 -6.25823 0
M  V30 7523 H 718.369 -0.724927 -2.88326 0
M  V30 7524 H 715.902 -0.490554 -1.464 0
M  V30 7525 H 717.86 1.60491 -3.77826 0
M  V30 7526 H 716.521 1.73624 -2.61751 0
M  V30 7527 H 715.714 1.11305 -4.91556 0
M  V30 7528 H 715.316 -0.15823 -3.73665 0
M  V30 7529 H 717.608 0.949965 -6.70807 0
M  V30 7530 H 718.551 -0.532838 -7.06092 0
M  V30 7531 H 718.959 0.454944 -5.62664 0
M  V30 7532 N 718.357 1.51182 -0.445186 0
M  V30 7533 C 719.773 1.59299 -0.0978954 0
M  V30 7534 C 719.973 1.4555 1.39346 0
M  V30 7535 O 719.029 1.30073 2.16419 0
M  V30 7536 C 720.342 2.94133 -0.625005 0
M  V30 7537 C 721.89 3.07463 -0.586137 0
M  V30 7538 C 722.365 4.44832 -1.09035 0
M  V30 7539 N 723.856 4.51173 -1.04867 0
M  V30 7540 C 724.591 5.55804 -1.40959 0
M  V30 7541 N 724.087 6.67816 -1.84375 0
M  V30 7542 N 725.88 5.46205 -1.32726 0
M  V30 7543 H 718.031 1.58363 -1.41544 0
M  V30 7544 H 720.294 0.746946 -0.58376 0
M  V30 7545 H 720 3.09589 -1.66876 0
M  V30 7546 H 719.874 3.77161 -0.0542262 0
M  V30 7547 H 722.261 2.9167 0.448646 0
M  V30 7548 H 722.342 2.26255 -1.19341 0
M  V30 7549 H 721.986 4.61372 -2.12364 0
M  V30 7550 H 721.916 5.24591 -0.459539 0
M  V30 7551 H 724.407 3.70783 -0.729932 0
M  V30 7552 H 724.72 7.43683 -2.10131 0
M  V30 7553 H 723.065 6.69003 -1.88308 0
M  V30 7554 H 726.256 4.57583 -0.986678 0
M  V30 7555 H 726.429 6.27634 -1.61182 0
M  V30 7556 N 719.835 0.176821 1.56605 0
M  V30 7557 C 721.246 -0.338963 1.83597 0
M  V30 7558 C 721.597 -1.62677 1.09684 0
M  V30 7559 O 720.722 -2.13524 0.351661 0
M  V30 7560 C 721.317 -0.62177 3.33046 0
M  V30 7561 C 719.876 -1.08198 3.60514 0
M  V30 7562 C 719.023 -0.120774 2.77037 0
M  V30 7563 H 721.974 0.400978 1.53551 0
M  V30 7564 H 721.995 -1.47321 3.50823 0
M  V30 7565 H 721.507 0.315692 3.86814 0
M  V30 7566 H 719.608 -2.03435 3.12162 0
M  V30 7567 H 719.721 -0.987329 4.68816 0
M  V30 7568 H 718.085 -0.619192 2.47059 0
M  V30 7569 H 718.868 0.810806 3.33588 0
M  V30 7570 N 721.313 -1.57302 -0.09688 0
M  V30 7571 C 722.562 -1.85183 -0.799388 0
M  V30 7572 C 722.875 -0.765818 -1.79985 0
M  V30 7573 O 724.081 -0.931696 -2.55013 0
M  V30 7574 C 722.537 -3.28399 -1.47249 0
M  V30 7575 C 722.145 -4.45066 -0.511888 0
M  V30 7576 C 723.889 -3.65506 -2.15883 0
M  V30 7577 C 721.796 -5.79315 -1.18948 0
M  V30 7578 H 720.726 -0.690752 -0.302287 0
M  V30 7579 H 723.377 -1.83425 -0.0523104 0
M  V30 7580 H 721.759 -3.24692 -2.26697 0
M  V30 7581 H 722.933 -4.60116 0.250962 0
M  V30 7582 H 721.248 -4.16343 0.0686576 0
M  V30 7583 H 723.845 -4.63087 -2.67309 0
M  V30 7584 H 724.188 -2.94041 -2.94696 0
M  V30 7585 H 724.721 -3.71094 -1.43298 0
M  V30 7586 H 721.46 -6.54007 -0.442198 0
M  V30 7587 H 720.98 -5.68111 -1.9238 0
M  V30 7588 H 722.659 -6.23816 -1.71646 0
M  V30 7589 N 722.791 0.367657 -1.53252 0
M  V30 7590 C 724.019 1.13119 -1.73239 0
M  V30 7591 C 724.434 1.831 -0.460404 0
M  V30 7592 O 723.791 1.73483 0.566557 0
M  V30 7593 C 723.842 2.16308 -2.89643 0
M  V30 7594 O 723.563 1.49175 -4.1192 0
M  V30 7595 C 725.064 3.05224 -3.21486 0
M  V30 7596 H 722.284 0.338318 -0.579467 0
M  V30 7597 H 724.828 0.42721 -1.99988 0
M  V30 7598 H 722.983 2.82307 -2.65295 0
M  V30 7599 H 723.397 2.17912 -4.7709 0
M  V30 7600 H 724.871 3.73613 -4.06346 0
M  V30 7601 H 725.348 3.69919 -2.36763 0
M  V30 7602 H 725.954 2.44843 -3.47753 0
M  V30 7603 N 724.269 1.44576 0.627338 0
M  V30 7604 C 725.515 1.47777 1.38888 0
M  V30 7605 C 725.848 0.111406 1.9388 0
M  V30 7606 O 725.123 -0.87149 1.73883 0
M  V30 7607 C 725.406 2.54119 2.55138 0
M  V30 7608 C 725.259 4.00128 2.0547 0
M  V30 7609 C 726.578 2.56929 3.57317 0
M  V30 7610 H 723.697 0.538048 0.50366 0
M  V30 7611 H 726.339 1.76277 0.708978 0
M  V30 7612 H 724.489 2.29948 3.13139 0
M  V30 7613 H 726.161 4.35444 1.5227 0
M  V30 7614 H 724.404 4.11724 1.36623 0
M  V30 7615 H 725.075 4.7019 2.89181 0
M  V30 7616 H 727.551 2.78536 3.09122 0
M  V30 7617 H 726.427 3.33234 4.36173 0
M  V30 7618 H 726.688 1.6127 4.11636 0
M  V30 7619 N 725.747 -0.868086 1.31537 0
M  V30 7620 C 726.995 -1.61807 1.21091 0
M  V30 7621 C 727.316 -1.93631 -0.230623 0
M  V30 7622 O 726.586 -1.5846 -1.15183 0
M  V30 7623 H 725.166 -0.599854 0.445178 0
M  V30 7624 H 727.828 -1.03915 1.64887 0
M  V30 7625 H 726.924 -2.56088 1.78396 0
M  V30 7626 N 727.225 -1.14528 -1.08264 0
M  V30 7627 C 728.473 -0.912599 -1.80322 0
M  V30 7628 C 728.794 0.562256 -1.86718 0
M  V30 7629 O 728.064 1.40869 -1.36135 0
M  V30 7630 H 726.644 -0.334645 -0.667849 0
M  V30 7631 H 729.306 -1.44415 -1.30883 0
M  V30 7632 H 728.402 -1.31384 -2.83098 0
M  V30 7633 N 728.703 1.26451 -0.940633 0
M  V30 7634 C 729.65 2.264 -0.448497 0
M  V30 7635 C 730.62 1.5866 0.491546 0
M  V30 7636 O 731.805 1.86389 0.407874 0
M  V30 7637 C 728.945 3.43956 0.280715 0
M  V30 7638 C 728.058 4.26374 -0.694937 0
M  V30 7639 C 727.193 5.31171 0.0554186 0
M  V30 7640 C 726.232 6.05266 -0.912091 0
M  V30 7641 N 725.369 7.01833 -0.193524 0
M  V30 7642 H 730.209 2.67869 -1.30576 0
M  V30 7643 H 727.746 1.31707 -0.655112 0
M  V30 7644 H 729.704 4.10941 0.71994 0
M  V30 7645 H 728.334 3.03403 1.10212 0
M  V30 7646 H 727.386 3.59183 -1.25267 0
M  V30 7647 H 728.698 4.77748 -1.43382 0
M  V30 7648 H 727.852 6.04166 0.553951 0
M  V30 7649 H 726.591 4.80634 0.827183 0
M  V30 7650 H 725.596 5.31099 -1.42175 0
M  V30 7651 H 726.821 6.57893 -1.68385 0
M  V30 7652 H 724.767 6.53607 0.559758 0
M  V30 7653 H 724.684 7.50957 -0.871744 0
M  V30 7654 H 725.952 7.78983 0.283932 0
M  V30 7655 N 730.181 0.707592 1.40822 0
M  V30 7656 C 731.43 0.240705 2.00259 0
M  V30 7657 C 731.743 -1.17027 1.56729 0
M  V30 7658 O 732.949 -1.73526 2.08809 0
M  V30 7659 C 731.405 0.379432 3.57894 0
M  V30 7660 C 731.013 1.79654 4.104 0
M  V30 7661 C 732.757 -0.0270684 4.24491 0
M  V30 7662 C 730.664 1.88628 5.60512 0
M  V30 7663 H 729.594 0.0862369 0.749052 0
M  V30 7664 H 732.245 0.877528 1.61157 0
M  V30 7665 H 730.627 -0.325842 3.94657 0
M  V30 7666 H 731.801 2.53155 3.85032 0
M  V30 7667 H 730.116 2.15379 3.56372 0
M  V30 7668 H 732.713 0.0193743 5.34696 0
M  V30 7669 H 733.056 -1.06772 4.02375 0
M  V30 7670 H 733.589 0.628361 3.92806 0
M  V30 7671 H 730.328 2.90787 5.87472 0
M  V30 7672 H 729.848 1.19528 5.8777 0
M  V30 7673 H 731.527 1.6547 6.25483 0
M  V30 7674 N 731.66 -1.50943 0.453197 0
M  V30 7675 C 732.906 -2.02512 -0.108082 0
M  V30 7676 C 733.239 -1.33574 -1.40967 0
M  V30 7677 O 732.514 -0.455671 -1.89087 0
M  V30 7678 C 732.797 -3.58759 -0.310453 0
M  V30 7679 C 732.65 -4.38293 1.0109 0
M  V30 7680 C 733.969 -4.26816 -1.07313 0
M  V30 7681 H 731.088 -0.73603 -0.0378064 0
M  V30 7682 H 733.73 -1.80433 0.595295 0
M  V30 7683 H 731.88 -3.77702 -0.909582 0
M  V30 7684 H 733.552 -4.30964 1.64523 0
M  V30 7685 H 731.795 -4.02745 1.61179 0
M  V30 7686 H 732.466 -5.45828 0.82315 0
M  V30 7687 H 734.942 -4.1224 -0.565473 0
M  V30 7688 H 733.818 -5.35989 -1.1835 0
M  V30 7689 H 734.079 -3.88757 -2.10525 0
M  V30 7690 N 733.138 -0.185124 -1.56509 0
M  V30 7691 C 734.386 0.455357 -1.96903 0
M  V30 7692 C 734.707 1.62839 -1.07277 0
M  V30 7693 O 733.977 1.95385 -0.141966 0
M  V30 7694 H 732.557 0.171218 -0.727113 0
M  V30 7695 H 735.219 -0.26953 -1.93027 0
M  V30 7696 H 734.315 0.80616 -3.01509 0
M  V30 7697 N 734.616 1.57351 0.0885366 0
M  V30 7698 C 735.841 1.91011 0.80805 0
M  V30 7699 C 736.266 0.780009 1.71165 0
M  V30 7700 O 735.624 -0.268083 1.79307 0
M  V30 7701 C 735.672 3.23562 1.59185 0
M  V30 7702 O 734.776 3.11615 2.7013 0
M  V30 7703 H 734.117 0.625943 0.221565 0
M  V30 7704 H 736.647 2.04507 0.0617954 0
M  V30 7705 H 736.657 3.5703 1.97468 0
M  V30 7706 H 735.332 4.05398 0.928741 0
M  V30 7707 H 733.909 2.89673 2.34827 0
M  V30 7708 N 736.094 -0.359525 1.53444 0
M  V30 7709 C 737.024 -1.44662 1.8329 0
M  V30 7710 C 738.005 -1.55617 0.68683 0
M  V30 7711 O 739.19 -1.70086 0.93725 0
M  V30 7712 C 736.32 -2.81923 2.02822 0
M  V30 7713 C 735.274 -2.85787 3.18606 0
M  V30 7714 C 734.6 -4.25781 3.23442 0
M  V30 7715 C 735.9 -2.52762 4.57065 0
M  V30 7716 H 737.594 -1.19934 2.74329 0
M  V30 7717 H 735.14 -0.575517 1.31999 0
M  V30 7718 H 737.093 -3.58005 2.22285 0
M  V30 7719 H 735.817 -3.08051 1.085 0
M  V30 7720 H 734.476 -2.12157 2.98973 0
M  V30 7721 H 734.124 -4.48994 2.26745 0
M  V30 7722 H 733.824 -4.29281 4.01238 0
M  V30 7723 H 735.348 -5.03727 3.45096 0
M  V30 7724 H 736.762 -3.18557 4.76649 0
M  V30 7725 H 735.159 -2.67569 5.37147 0
M  V30 7726 H 736.229 -1.47993 4.61764 0
M  V30 7727 N 737.572 -1.44907 -0.619662 0
M  V30 7728 C 738.812 -1.49822 -1.39042 0
M  V30 7729 C 739.176 -0.131803 -1.91547 0
M  V30 7730 O 740.377 -0.0556413 -2.68742 0
M  V30 7731 C 738.648 -2.53805 -2.5163 0
M  V30 7732 S 740.207 -2.77855 -3.3962 0
M  V30 7733 H 737.025 -0.529774 -0.474195 0
M  V30 7734 H 739.627 -1.81907 -0.716236 0
M  V30 7735 H 738.331 -3.51772 -2.11387 0
M  V30 7736 H 737.862 -2.23331 -3.23863 0
M  V30 7737 H 739.877 -2.10319 -4.49422 0
M  V30 7738 N 739.05 0.861098 -1.31996 0
M  V30 7739 C 740.013 1.95068 -1.20338 0
M  V30 7740 C 741.013 1.60289 -0.128114 0
M  V30 7741 O 742.203 1.70048 -0.378044 0
M  V30 7742 C 739.335 3.30153 -0.849205 0
M  V30 7743 H 740.528 2.06833 -2.17164 0
M  V30 7744 H 738.081 1.05049 -1.15734 0
M  V30 7745 H 738.816 3.24087 0.117508 0
M  V30 7746 H 738.601 3.56771 -1.62655 0
M  V30 7747 H 740.091 4.10025 -0.791782 0
M  V30 7748 N 740.528 1.15101 1.07655 0
M  V30 7749 C 741.777 0.918528 1.79572 0
M  V30 7750 C 742.09 -0.555922 1.87534 0
M  V30 7751 O 743.296 -0.905893 2.55941 0
M  V30 7752 C 741.752 1.59394 3.22679 0
M  V30 7753 C 741.36 3.1052 3.22927 0
M  V30 7754 C 743.104 1.44289 3.99225 0
M  V30 7755 C 741.011 3.70862 4.60668 0
M  V30 7756 H 739.941 0.340006 0.672987 0
M  V30 7757 H 742.592 1.38079 1.20857 0
M  V30 7758 H 740.974 1.05936 3.81567 0
M  V30 7759 H 742.148 3.70708 2.737 0
M  V30 7760 H 740.463 3.25351 2.59876 0
M  V30 7761 H 743.06 1.86766 5.01022 0
M  V30 7762 H 743.403 0.389975 4.14469 0
M  V30 7763 H 743.936 1.94826 3.46825 0
M  V30 7764 H 740.675 4.7604 4.50628 0
M  V30 7765 H 740.195 3.15456 5.10145 0
M  V30 7766 H 741.874 3.71607 5.29639 0
M  V30 7767 N 742.006 -1.2595 0.947325 0
M  V30 7768 C 742.969 -2.24407 0.466285 0
M  V30 7769 C 743.969 -1.55054 -0.426005 0
M  V30 7770 O 745.159 -1.7275 -0.224319 0
M  V30 7771 C 742.291 -3.39326 -0.327201 0
M  V30 7772 H 743.484 -2.68477 1.33642 0
M  V30 7773 H 741.037 -1.38211 0.729887 0
M  V30 7774 H 741.772 -3.00667 -1.21532 0
M  V30 7775 H 741.557 -3.9085 0.312839 0
M  V30 7776 H 743.047 -4.12455 -0.653477 0
M  V30 7777 N 743.484 -0.715051 -1.40445 0
M  V30 7778 C 744.732 -0.253826 -2.005 0
M  V30 7779 C 745.053 1.15681 -1.5698 0
M  V30 7780 O 744.323 1.78414 -0.809027 0
M  V30 7781 H 742.903 -0.0908537 -0.741454 0
M  V30 7782 H 745.565 -0.920561 -1.7179 0
M  V30 7783 H 744.661 -0.286499 -3.10782 0
M  V30 7784 N 744.962 1.50701 -0.461195 0
M  V30 7785 C 746.208 2.02566 0.0973411 0
M  V30 7786 C 746.541 1.3432 1.40257 0
M  V30 7787 O 745.816 0.465692 1.88843 0
M  V30 7788 C 746.099 3.58919 0.291423 0
M  V30 7789 C 745.952 4.37751 -1.03413 0
M  V30 7790 C 747.271 4.27379 1.05048 0
M  V30 7791 H 744.39 0.73622 0.0339026 0
M  V30 7792 H 747.032 1.80115 -0.604855 0
M  V30 7793 H 745.182 3.78179 0.889539 0
M  V30 7794 H 746.854 4.30085 -1.66806 0
M  V30 7795 H 745.097 4.01885 -1.63313 0
M  V30 7796 H 745.768 5.45384 -0.852085 0
M  V30 7797 H 748.244 4.12534 0.543603 0
M  V30 7798 H 747.12 5.36609 1.15506 0
M  V30 7799 H 747.381 3.89868 2.0846 0
M  V30 7800 N 746.441 0.193421 1.56409 0
M  V30 7801 C 747.371 -0.723334 2.22014 0
M  V30 7802 C 748.352 -1.22254 1.1827 0
M  V30 7803 O 749.537 -1.27168 1.46771 0
M  V30 7804 C 746.667 -1.94366 2.87818 0
M  V30 7805 C 745.621 -1.57943 3.97791 0
M  V30 7806 C 744.947 -2.87623 4.50752 0
M  V30 7807 C 746.247 -0.790639 5.16281 0
M  V30 7808 H 747.941 -0.176426 2.9888 0
M  V30 7809 H 745.487 -0.0834166 1.43758 0
M  V30 7810 H 747.44 -2.5902 3.32396 0
M  V30 7811 H 746.164 -2.51507 2.08355 0
M  V30 7812 H 744.823 -0.956482 3.53903 0
M  V30 7813 H 744.471 -3.4285 3.68053 0
M  V30 7814 H 744.171 -2.63998 5.24956 0
M  V30 7815 H 745.695 -3.53268 4.9803 0
M  V30 7816 H 747.109 -1.34024 5.57414 0
M  V30 7817 H 745.506 -0.65258 5.96541 0
M  V30 7818 H 746.576 0.208633 4.84451 0
M  V30 7819 N 747.919 -1.57396 -0.0801906 0
M  V30 7820 C 749.147 -1.91055 -0.794075 0
M  V30 7821 C 749.562 -0.788583 -1.71542 0
M  V30 7822 O 748.919 0.238587 -1.80934 0
M  V30 7823 C 748.97 -3.24418 -1.59484 0
M  V30 7824 O 748.691 -4.323 -0.710532 0
M  V30 7825 C 750.192 -3.72037 -2.41046 0
M  V30 7826 H 747.412 -0.63171 -0.226238 0
M  V30 7827 H 749.956 -2.04431 -0.0529685 0
M  V30 7828 H 748.111 -3.12595 -2.2883 0
M  V30 7829 H 748.525 -5.08976 -1.26663 0
M  V30 7830 H 749.999 -4.68006 -2.92702 0
M  V30 7831 H 750.476 -3.00624 -3.2019 0
M  V30 7832 H 751.082 -3.86777 -1.76871 0
M  V30 7833 N 749.397 0.351382 -1.53633 0
M  V30 7834 C 750.646 1.08988 -1.69719 0
M  V30 7835 C 750.959 1.90043 -0.462948 0
M  V30 7836 O 752.165 2.66769 -0.504613 0
M  V30 7837 C 750.621 1.98691 -3.00083 0
M  V30 7838 C 750.229 1.22881 -4.30818 0
M  V30 7839 C 751.973 2.72446 -3.25536 0
M  V30 7840 C 749.88 2.11568 -5.52262 0
M  V30 7841 H 748.81 0.410588 -0.632403 0
M  V30 7842 H 751.461 0.349886 -1.80133 0
M  V30 7843 H 749.843 2.76478 -2.83506 0
M  V30 7844 H 751.017 0.500582 -4.58073 0
M  V30 7845 H 749.332 0.60928 -4.11918 0
M  V30 7846 H 751.929 3.39055 -4.13456 0
M  V30 7847 H 752.272 3.38588 -2.42206 0
M  V30 7848 H 752.805 2.01735 -3.42852 0
M  V30 7849 H 749.544 1.4998 -6.38111 0
M  V30 7850 H 749.064 2.82201 -5.29266 0
M  V30 7851 H 750.743 2.70802 -5.87601 0
M  V30 7852 N 750.875 1.45233 0.611969 0
M  V30 7853 C 751.838 1.53189 1.70487 0
M  V30 7854 C 752.838 0.411839 1.55437 0
M  V30 7855 O 754.028 0.675164 1.60584 0
M  V30 7856 C 751.16 1.42422 3.09723 0
M  V30 7857 H 752.353 2.5056 1.64802 0
M  V30 7858 H 749.906 1.32609 0.827318 0
M  V30 7859 H 750.641 0.462185 3.2099 0
M  V30 7860 H 750.426 2.23658 3.22055 0
M  V30 7861 H 751.916 1.51012 3.89339 0
M  V30 7862 N 752.353 -0.854086 1.3245 0
M  V30 7863 C 753.283 -1.97827 1.24044 0
M  V30 7864 C 754.264 -1.69646 0.124166 0
M  V30 7865 O 755.449 -1.91687 0.31143 0
M  V30 7866 C 752.579 -3.33673 0.963324 0
M  V30 7867 C 751.533 -3.76207 2.04089 0
M  V30 7868 C 750.859 -5.0969 1.61618 0
M  V30 7869 C 752.159 -3.91612 3.45597 0
M  V30 7870 H 753.853 -2.05118 2.18099 0
M  V30 7871 H 751.399 -0.985489 1.04996 0
M  V30 7872 H 753.352 -4.11871 0.891061 0
M  V30 7873 H 752.076 -3.26597 -0.0128649 0
M  V30 7874 H 750.735 -3.0026 2.10332 0
M  V30 7875 H 750.383 -4.99072 0.627418 0
M  V30 7876 H 750.083 -5.3912 2.33717 0
M  V30 7877 H 751.607 -5.90381 1.55829 0
M  V30 7878 H 753.021 -4.60163 3.4194 0
M  V30 7879 H 751.418 -4.3246 4.16051 0
M  V30 7880 H 752.488 -2.9451 3.85217 0
M  V30 7881 N 753.831 -1.1567 -1.07043 0
M  V30 7882 C 755.242 -0.942408 -1.61169 0
M  V30 7883 C 755.593 0.515537 -1.89306 0
M  V30 7884 O 754.718 1.38726 -1.66084 0
M  V30 7885 C 755.313 -1.70431 -2.92812 0
M  V30 7886 C 753.872 -1.53521 -3.43669 0
M  V30 7887 C 753.019 -1.7179 -2.17678 0
M  V30 7888 H 755.97 -1.3065 -0.9009 0
M  V30 7889 H 755.991 -1.17566 -3.61882 0
M  V30 7890 H 755.503 -2.76538 -2.72302 0
M  V30 7891 H 753.604 -0.498224 -3.69254 0
M  V30 7892 H 753.717 -2.31422 -4.19501 0
M  V30 7893 H 752.081 -1.14468 -2.27529 0
M  V30 7894 H 752.864 -2.79269 -1.99659 0
M  V30 7895 N 755.309 1.25446 -0.953992 0
M  V30 7896 C 756.555 1.9343 -0.60933 0
M  V30 7897 C 756.888 1.74542 0.851388 0
M  V30 7898 O 756.163 1.09014 1.61078 0
M  V30 7899 C 756.446 3.46844 -0.968041 0
M  V30 7900 C 756.299 3.74961 -2.48444 0
M  V30 7901 C 757.618 4.37334 -0.492641 0
M  V30 7902 H 754.737 0.702502 -0.222844 0
M  V30 7903 H 757.379 1.48076 -1.19053 0
M  V30 7904 H 755.529 3.85604 -0.473465 0
M  V30 7905 H 757.201 3.45841 -3.05273 0
M  V30 7906 H 755.444 3.20589 -2.92241 0
M  V30 7907 H 756.115 4.82246 -2.68594 0
M  V30 7908 H 758.591 4.05873 -0.916878 0
M  V30 7909 H 757.467 5.43439 -0.772331 0
M  V30 7910 H 757.728 4.37908 0.607403 0
M  V30 7911 N 756.787 0.722489 1.40064 0
M  V30 7912 C 758.198 0.336507 1.83642 0
M  V30 7913 C 758.549 -1.13002 1.6039 0
M  V30 7914 O 757.674 -1.87036 1.08842 0
M  V30 7915 C 758.269 0.603985 3.33373 0
M  V30 7916 C 756.828 0.271637 3.75419 0
M  V30 7917 C 755.975 0.872898 2.63203 0
M  V30 7918 H 758.926 0.921108 1.29233 0
M  V30 7919 H 758.947 -0.128471 3.80283 0
M  V30 7920 H 758.459 1.67141 3.50265 0
M  V30 7921 H 756.56 -0.790455 3.64119 0
M  V30 7922 H 756.673 0.745457 4.73265 0
M  V30 7923 H 755.037 0.300431 2.52922 0
M  V30 7924 H 755.82 1.94473 2.82905 0
M  V30 7925 N 758.265 -1.50454 0.469181 0
M  V30 7926 C 759.511 -2.02615 -0.0865971 0
M  V30 7927 C 759.844 -1.35062 -1.39542 0
M  V30 7928 O 759.119 -0.475701 -1.88593 0
M  V30 7929 C 759.402 -3.59068 -0.272385 0
M  V30 7930 C 759.255 -4.37196 1.05733 0
M  V30 7931 C 760.574 -4.2793 -1.0278 0
M  V30 7932 H 757.693 -0.736389 -0.0299977 0
M  V30 7933 H 760.335 -1.79792 0.614399 0
M  V30 7934 H 758.485 -3.78646 -0.869471 0
M  V30 7935 H 760.157 -4.29195 1.69084 0
M  V30 7936 H 758.4 -4.01013 1.65442 0
M  V30 7937 H 759.071 -5.44924 0.880997 0
M  V30 7938 H 761.547 -4.12816 -0.521718 0
M  V30 7939 H 760.423 -5.37214 -1.12659 0
M  V30 7940 H 760.684 -3.90968 -2.0639 0
M  V30 7941 N 759.743 -0.201713 -1.56304 0
M  V30 7942 C 760.992 0.435557 -1.96941 0
M  V30 7943 C 761.305 1.62299 -1.09172 0
M  V30 7944 O 762.511 2.32849 -1.3962 0
M  V30 7945 C 760.967 0.826298 -3.50286 0
M  V30 7946 C 760.575 -0.337216 -4.46729 0
M  V30 7947 C 762.319 1.43028 -3.99679 0
M  V30 7948 C 760.226 0.0748539 -5.91353 0
M  V30 7949 H 759.156 0.1665 -0.735387 0
M  V30 7950 H 761.807 -0.294781 -1.81117 0
M  V30 7951 H 760.189 1.61349 -3.61639 0
M  V30 7952 H 761.363 -1.11476 -4.47113 0
M  V30 7953 H 759.678 -0.853126 -4.07567 0
M  V30 7954 H 762.275 1.75115 -5.05212 0
M  V30 7955 H 762.618 2.33911 -3.44371 0
M  V30 7956 H 763.151 0.706924 -3.91468 0
M  V30 7957 H 759.89 -0.799957 -6.506 0
M  V30 7958 H 759.41 0.817122 -5.94208 0
M  V30 7959 H 761.089 0.508389 -6.45 0
M  V30 7960 N 761.222 1.57436 0.0718424 0
M  V30 7961 C 762.468 1.87525 0.772149 0
M  V30 7962 C 762.801 0.79399 1.77227 0
M  V30 7963 O 762.076 -0.195733 1.93513 0
M  V30 7964 C 762.359 3.28272 1.48018 0
M  V30 7965 C 762.212 4.47052 0.49647 0
M  V30 7966 C 763.531 3.67256 2.42509 0
M  V30 7967 H 760.65 0.682049 0.279245 0
M  V30 7968 H 763.292 1.89967 0.03534 0
M  V30 7969 H 761.442 3.26321 2.10824 0
M  V30 7970 H 763.114 4.61127 -0.126375 0
M  V30 7971 H 761.357 4.33392 -0.188205 0
M  V30 7972 H 762.028 5.42315 1.02949 0
M  V30 7973 H 764.504 3.70301 1.89781 0
M  V30 7974 H 763.38 4.66626 2.89053 0
M  V30 7975 H 763.641 2.97186 3.27312 0
M  V30 7976 N 762.7 -0.34323 1.53817 0
M  V30 7977 C 763.925 -1.1079 1.75329 0
M  V30 7978 C 764.35 -1.81571 0.491293 0
M  V30 7979 O 763.708 -1.72561 -0.556089 0
M  V30 7980 C 763.756 -2.09681 2.9337 0
M  V30 7981 O 762.86 -3.17207 2.63541 0
M  V30 7982 H 762.201 -0.320402 0.581583 0
M  V30 7983 H 764.731 -0.393525 2.0078 0
M  V30 7984 H 764.741 -2.52897 3.20168 0
M  V30 7985 H 763.416 -1.5756 3.84899 0
M  V30 7986 H 761.993 -2.78806 2.47632 0
M  V30 7987 N 764.178 -1.45556 -0.604258 0
M  V30 7988 C 765.126 -1.5482 -1.7359 0
M  V30 7989 C 766.12 -0.417966 -1.64163 0
M  V30 7990 O 767.326 -0.594007 -1.69916 0
M  V30 7991 H 763.701 -0.486352 -0.573556 0
M  V30 7992 H 765.672 -2.5001 -1.62903 0
M  V30 7993 C 764.421 -1.53521 -3.11972 0
M  V30 7994 H 763.744 -2.39818 -3.19886 0
M  V30 7995 H 765.184 -1.64061 -3.90973 0
M  V30 7996 C 763.643 -0.260191 -3.35894 0
M  V30 7997 O 764.173 0.658582 -3.96265 0
M  V30 7998 N 762.379 -0.154839 -2.90187 0
M  V30 7999 H 761.926 -0.903378 -2.4124 0
M  V30 8000 H 761.884 0.697437 -3.06567 0
M  V30 8001 N 765.656 0.84705 -1.32902 0
M  V30 8002 C 766.903 1.60176 -1.23894 0
M  V30 8003 C 767.231 1.93496 0.197341 0
M  V30 8004 O 766.486 1.58173 1.15238 0
M  V30 8005 C 766.785 2.92663 -2.05142 0
M  V30 8006 C 766.451 2.7874 -3.54422 0
M  V30 8007 C 765.113 2.7465 -3.95121 0
M  V30 8008 C 767.465 2.64128 -4.49317 0
M  V30 8009 C 764.793 2.53837 -5.28946 0
M  V30 8010 C 767.145 2.44849 -5.83294 0
M  V30 8011 C 765.809 2.39156 -6.23186 0
M  V30 8012 H 765.079 0.586127 -0.453361 0
M  V30 8013 H 767.726 0.981994 -1.64405 0
M  V30 8014 H 766.031 3.588 -1.57383 0
M  V30 8015 H 767.728 3.50095 -1.95537 0
M  V30 8016 H 764.318 2.82751 -3.22102 0
M  V30 8017 H 768.502 2.66327 -4.18788 0
M  V30 8018 H 763.758 2.4787 -5.58901 0
M  V30 8019 H 767.932 2.32524 -6.56434 0
M  V30 8020 H 765.559 2.22789 -7.26821 0
M  V30 8021 N 767.134 1.16236 1.06428 0
M  V30 8022 C 768.082 0.863669 2.15971 0
M  V30 8023 C 769.076 -0.166723 1.68578 0
M  V30 8024 O 770.282 -0.0208425 1.79988 0
M  V30 8025 H 766.657 0.261684 0.705 0
M  V30 8026 H 768.628 1.79498 2.38376 0
M  V30 8027 C 767.377 0.379697 3.45621 0
M  V30 8028 H 766.7 1.16399 3.82481 0
M  V30 8029 H 768.14 0.209458 4.23482 0
M  V30 8030 C 766.599 -0.900499 3.24642 0
M  V30 8031 O 767.129 -1.97004 3.50074 0
M  V30 8032 N 765.335 -0.843721 2.78082 0
M  V30 8033 H 764.882 0.0268429 2.57586 0
M  V30 8034 H 764.84 -1.70078 2.64425 0
M  V30 8035 N 768.612 -1.24939 0.960631 0
M  V30 8036 C 769.842 -1.96595 0.635123 0
M  V30 8037 C 770.25 -1.71538 -0.798206 0
M  V30 8038 O 769.593 -0.991727 -1.5463 0
M  V30 8039 C 769.655 -3.49994 0.821248 0
M  V30 8040 C 769.319 -3.98738 2.23287 0
M  V30 8041 C 770.316 -4.08965 3.21004 0
M  V30 8042 C 768.001 -4.32247 2.55867 0
M  V30 8043 C 769.995 -4.52025 4.49391 0
M  V30 8044 C 767.682 -4.74991 3.84482 0
M  V30 8045 C 768.68 -4.84844 4.81056 0
M  V30 8046 O 768.368 -5.26638 6.07378 0
M  V30 8047 H 768.1 -0.633265 0.23654 0
M  V30 8048 H 770.654 -1.5991 1.28911 0
M  V30 8049 H 768.884 -3.86543 0.110105 0
M  V30 8050 H 770.573 -4.02859 0.495892 0
M  V30 8051 H 771.339 -3.83302 2.97161 0
M  V30 8052 H 767.218 -4.23801 1.81421 0
M  V30 8053 H 770.762 -4.5963 5.24773 0
M  V30 8054 H 766.659 -5.00101 4.08129 0
M  V30 8055 H 767.427 -5.44807 6.10842 0
M  V30 8056 N 770.09 -0.729906 -1.39679 0
M  V30 8057 C 771.337 -0.275622 -2.00615 0
M  V30 8058 C 771.665 1.13559 -1.57907 0
M  V30 8059 O 770.92 1.78745 -0.796789 0
M  V30 8060 C 771.219 -0.319564 -3.55968 0
M  V30 8061 C 770.885 -1.68308 -4.1831 0
M  V30 8062 C 769.547 -2.05629 -4.35052 0
M  V30 8063 C 771.899 -2.57857 -4.52945 0
M  V30 8064 C 769.227 -3.32018 -4.83716 0
M  V30 8065 C 771.579 -3.83613 -5.03015 0
M  V30 8066 C 770.243 -4.21033 -5.17965 0
M  V30 8067 H 769.513 -0.100857 -0.734104 0
M  V30 8068 H 772.16 -0.93575 -1.67081 0
M  V30 8069 H 770.465 0.42414 -3.89497 0
M  V30 8070 H 772.162 0.0499905 -4.00969 0
M  V30 8071 H 768.752 -1.3829 -4.05677 0
M  V30 8072 H 772.936 -2.30295 -4.39634 0
M  V30 8073 H 768.192 -3.6096 -4.93475 0
M  V30 8074 H 772.366 -4.53162 -5.28788 0
M  V30 8075 H 769.993 -5.19034 -5.55435 0
M  V30 8076 N 771.568 1.50203 -0.477153 0
M  V30 8077 C 772.798 2.0647 0.0731427 0
M  V30 8078 C 773.206 1.3405 1.33518 0
M  V30 8079 O 772.549 0.405164 1.79176 0
M  V30 8080 C 772.611 3.57025 0.421121 0
M  V30 8081 C 772.275 4.50973 -0.739765 0
M  V30 8082 C 773.272 4.939 -1.62353 0
M  V30 8083 C 770.957 4.93581 -0.93181 0
M  V30 8084 C 772.951 5.78149 -2.6837 0
M  V30 8085 C 770.638 5.77612 -1.99519 0
M  V30 8086 C 771.636 6.19798 -2.86949 0
M  V30 8087 O 771.324 7.02152 -3.91456 0
M  V30 8088 H 771.056 0.675969 -0.00648243 0
M  V30 8089 H 773.61 1.94278 -0.66673 0
M  V30 8090 H 771.84 3.67141 1.21426 0
M  V30 8091 H 773.529 3.95632 0.907213 0
M  V30 8092 H 774.295 4.61646 -1.48687 0
M  V30 8093 H 770.174 4.60262 -0.260739 0
M  V30 8094 H 773.718 6.10997 -3.36643 0
M  V30 8095 H 769.615 6.09279 -2.13189 0
M  V30 8096 H 770.383 7.20414 -3.88518 0
M  V30 8097 N 773.046 0.209999 1.56195 0
M  V30 8098 C 773.996 -0.717978 2.164 0
M  V30 8099 C 774.98 -1.16577 1.10899 0
M  V30 8100 O 776.172 -1.12169 1.3692 0
M  V30 8101 C 773.301 -1.93091 2.8385 0
M  V30 8102 C 772.387 -1.50333 3.96561 0
M  V30 8103 N 772.778 -0.787621 4.9963 0
M  V30 8104 C 771.076 -1.79151 4.08437 0
M  V30 8105 C 771.777 -0.571204 5.78889 0
M  V30 8106 N 770.753 -1.12444 5.31843 0
M  V30 8107 H 774.555 -0.162603 2.9345 0
M  V30 8108 H 772.069 0.0107928 1.62396 0
M  V30 8109 H 774.066 -2.60635 3.25384 0
M  V30 8110 H 772.726 -2.49087 2.08293 0
M  V30 8111 H 773.737 -0.441513 5.16015 0
M  V30 8112 H 770.414 -2.36549 3.44022 0
M  V30 8113 H 771.804 -0.00237941 6.719 0
M  V30 8114 N 774.524 -1.57472 -0.0634922 0
M  V30 8115 C 775.94 -1.54016 -0.418466 0
M  V30 8116 C 776.14 -0.931376 -1.78683 0
M  V30 8117 O 775.196 -0.537465 -2.46714 0
M  V30 8118 C 776.509 -2.98634 -0.351906 0
M  V30 8119 C 778.057 -3.10012 -0.431494 0
M  V30 8120 C 778.532 -4.56296 -0.394754 0
M  V30 8121 N 780.023 -4.60964 -0.454583 0
M  V30 8122 C 780.758 -5.71643 -0.448501 0
M  V30 8123 N 780.254 -6.91663 -0.396742 0
M  V30 8124 N 782.047 -5.5991 -0.495677 0
M  V30 8125 H 774.198 -1.95409 0.832408 0
M  V30 8126 H 776.461 -0.894769 0.313197 0
M  V30 8127 H 776.167 -3.46766 0.587048 0
M  V30 8128 H 776.041 -3.58955 -1.15893 0
M  V30 8129 H 778.428 -2.61848 -1.36087 0
M  V30 8130 H 778.509 -2.52585 0.404258 0
M  V30 8131 H 778.153 -5.05119 0.530811 0
M  V30 8132 H 778.083 -5.11594 -1.24815 0
M  V30 8133 H 780.574 -3.74598 -0.498496 0
M  V30 8134 H 780.887 -7.71783 -0.396256 0
M  V30 8135 H 779.232 -6.9405 -0.363304 0
M  V30 8136 H 782.423 -4.65046 -0.533864 0
M  V30 8137 H 782.596 -6.46164 -0.487469 0
M  V30 8138 N 776.003 0.335068 -1.53997 0
M  V30 8139 C 776.913 1.43511 -1.85585 0
M  V30 8140 C 777.929 1.57162 -0.746726 0
M  V30 8141 O 779.105 1.72477 -1.03988 0
M  V30 8142 C 776.17 2.78386 -2.06646 0
M  V30 8143 C 775.231 2.74007 -3.30483 0
M  V30 8144 C 774.464 4.02449 -3.50529 0
M  V30 8145 O 774.687 5.00147 -2.74242 0
M  V30 8146 O 773.621 4.06405 -4.4398 0
M  V30 8147 H 777.447 1.19731 -2.79102 0
M  V30 8148 H 775.032 0.528033 -1.39758 0
M  V30 8149 H 776.914 3.58247 -2.21894 0
M  V30 8150 H 775.589 3.0208 -1.16317 0
M  V30 8151 H 774.496 1.92736 -3.2063 0
M  V30 8152 H 775.829 2.55267 -4.20832 0
M  V30 8153 N 777.481 1.45874 0.596531 0
M  V30 8154 C 778.709 1.54013 1.38158 0
M  V30 8155 C 779.124 0.17648 1.87973 0
M  V30 8156 O 778.481 -0.823895 1.62844 0
M  V30 8157 C 778.532 2.53363 2.57855 0
M  V30 8158 O 778.253 3.8443 2.10108 0
M  V30 8159 C 779.754 2.71308 3.50581 0
M  V30 8160 H 776.974 0.521251 0.422538 0
M  V30 8161 H 779.518 1.9116 0.726493 0
M  V30 8162 H 777.673 2.19257 3.19382 0
M  V30 8163 H 778.087 4.38384 2.87958 0
M  V30 8164 H 779.561 3.44776 4.31084 0
M  V30 8165 H 780.038 1.77728 4.01633 0
M  V30 8166 H 780.644 3.06455 2.94899 0
M  V30 8167 N 778.959 -0.83999 1.33349 0
M  V30 8168 C 780.236 -1.57973 1.15342 0
M  V30 8169 C 780.616 -2.09226 -0.280632 0
M  V30 8170 O 779.964 -1.89317 -1.2795 0
M  V30 8171 C 780.174 -2.71446 2.19359 0
M  V30 8172 C 781.522 -3.40654 2.53456 0
M  V30 8173 O 782.546 -2.81686 2.18017 0
M  V30 8174 O 781.405 -4.47101 3.14266 0
M  V30 8175 H 778.499 -0.6964 0.446044 0
M  V30 8176 H 781.045 -0.882843 1.44927 0
M  V30 8177 H 779.817 -2.31205 3.1569 0
M  V30 8178 H 779.44 -3.488 1.90852 0
M  V30 8179 N 780.437 -1.16799 -1.0581 0
M  V30 8180 C 781.387 -0.847231 -2.11674 0
M  V30 8181 C 782.371 0.175476 -1.5994 0
M  V30 8182 O 783.563 -0.0260602 -1.76981 0
M  V30 8183 C 780.692 -0.355446 -3.41455 0
M  V30 8184 C 779.778 -1.40922 -4.00002 0
M  V30 8185 N 780.169 -2.62096 -4.32596 0
M  V30 8186 C 778.467 -1.26562 -4.27666 0
M  V30 8187 C 779.168 -3.29759 -4.79201 0
M  V30 8188 N 778.144 -2.57138 -4.78938 0
M  V30 8189 H 781.946 -1.76862 -2.34727 0
M  V30 8190 H 779.46 -1.05577 -1.23399 0
M  V30 8191 H 781.457 -0.107231 -4.16762 0
M  V30 8192 H 780.117 0.559817 -3.19838 0
M  V30 8193 H 781.128 -2.99113 -4.22791 0
M  V30 8194 H 777.805 -0.411503 -4.15467 0
M  V30 8195 H 779.195 -4.33222 -5.13584 0
M  V30 8196 N 781.915 1.24427 -0.967243 0
M  V30 8197 C 782.825 2.29109 -0.504592 0
M  V30 8198 C 783.841 1.68495 0.434224 0
M  V30 8199 O 785.017 1.99041 0.307379 0
M  V30 8200 C 782.082 3.46133 0.198273 0
M  V30 8201 C 781.143 4.22149 -0.780313 0
M  V30 8202 C 780.376 5.33585 -0.110896 0
M  V30 8203 O 780.599 5.59676 1.10088 0
M  V30 8204 O 779.533 5.96522 -0.802823 0
M  V30 8205 H 783.359 2.708 -1.37482 0
M  V30 8206 H 780.944 1.30111 -0.73426 0
M  V30 8207 H 782.826 4.17205 0.593124 0
M  V30 8208 H 781.501 3.0642 1.04347 0
M  V30 8209 H 780.408 3.53454 -1.22561 0
M  V30 8210 H 781.741 4.65677 -1.59392 0
M  V30 8211 N 783.393 0.737304 1.3929 0
M  V30 8212 C 784.303 0.100464 2.34385 0
M  V30 8213 C 785.319 -0.719282 1.58437 0
M  V30 8214 O 786.495 -0.647216 1.90717 0
M  V30 8215 C 783.56 -0.794325 3.37478 0
M  V30 8216 C 782.621 0.0379345 4.29283 0
M  V30 8217 C 781.854 -0.814241 5.27452 0
M  V30 8218 O 782.077 -2.05288 5.32177 0
M  V30 8219 O 781.011 -0.241679 6.01415 0
M  V30 8220 H 784.837 0.885407 2.90507 0
M  V30 8221 H 782.422 0.497999 1.40856 0
M  V30 8222 H 784.304 -1.30622 4.00644 0
M  V30 8223 H 782.979 -1.55804 2.83737 0
M  V30 8224 H 781.886 0.595405 3.69331 0
M  V30 8225 H 783.219 0.763926 4.86236 0
M  V30 8226 N 784.871 -1.49948 0.485112 0
M  V30 8227 C 786.282 -1.8667 0.0334041 0
M  V30 8228 C 786.633 -1.3988 -1.37579 0
M  V30 8229 O 785.758 -0.769788 -2.02245 0
M  V30 8230 C 786.353 -3.38757 0.0538426 0
M  V30 8231 C 784.912 -3.74839 -0.342453 0
M  V30 8232 C 784.059 -2.73894 0.433281 0
M  V30 8233 H 787.01 -1.42492 0.698699 0
M  V30 8234 H 787.031 -3.73132 -0.745146 0
M  V30 8235 H 786.543 -3.72782 1.07959 0
M  V30 8236 H 784.644 -3.46419 -1.37203 0
M  V30 8237 H 784.757 -4.79088 -0.0340503 0
M  V30 8238 H 783.121 -2.54441 -0.114849 0
M  V30 8239 H 783.904 -3.10763 1.45881 0
M  V30 8240 N 786.349 -0.21828 -1.56081 0
M  V30 8241 C 787.312 0.679633 -2.18892 0
M  V30 8242 C 788.312 1.12405 -1.14986 0
M  V30 8243 O 789.502 1.03339 -1.40238 0
M  V30 8244 C 786.634 1.93063 -2.80962 0
M  V30 8245 H 787.827 0.132066 -2.99609 0
M  V30 8246 H 785.38 0.0313374 -1.56269 0
M  V30 8247 H 786.115 2.52015 -2.04106 0
M  V30 8248 H 785.9 1.62046 -3.57048 0
M  V30 8249 H 787.39 2.57043 -3.29118 0
M  V30 8250 N 787.827 1.57504 0.0551401 0
M  V30 8251 C 789.073 1.88334 0.752216 0
M  V30 8252 C 789.406 0.812742 1.76375 0
M  V30 8253 O 788.681 -0.175198 1.93709 0
M  V30 8254 C 788.964 3.29824 1.44528 0
M  V30 8255 C 788.817 4.47553 0.449026 0
M  V30 8256 C 790.136 3.69808 2.38601 0
M  V30 8257 H 787.255 0.684973 0.271995 0
M  V30 8258 H 789.897 1.89994 0.0151895 0
M  V30 8259 H 788.047 3.28539 2.07351 0
M  V30 8260 H 789.719 4.60967 -0.175277 0
M  V30 8261 H 787.962 4.33168 -0.234162 0
M  V30 8262 H 788.633 5.43376 0.971917 0
M  V30 8263 H 791.109 3.72293 1.85842 0
M  V30 8264 H 789.985 4.69665 2.84088 0
M  V30 8265 H 790.246 3.00641 3.24141 0
M  V30 8266 N 789.305 -0.326896 1.54172 0
M  V30 8267 C 790.235 -1.40741 1.86317 0
M  V30 8268 C 791.216 -1.54125 0.719684 0
M  V30 8269 O 792.401 -1.6806 0.973117 0
M  V30 8270 C 789.531 -2.77557 2.08757 0
M  V30 8271 C 788.485 -2.78965 3.24596 0
M  V30 8272 C 787.811 -4.18824 3.32401 0
M  V30 8273 C 789.111 -2.4301 4.62324 0
M  V30 8274 H 790.805 -1.14088 2.76811 0
M  V30 8275 H 788.351 -0.547389 1.3319 0
M  V30 8276 H 790.304 -3.53209 2.29829 0
M  V30 8277 H 789.028 -3.0568 1.15009 0
M  V30 8278 H 787.687 -2.05767 3.03406 0
M  V30 8279 H 787.335 -4.44083 2.36218 0
M  V30 8280 H 787.035 -4.20673 4.10253 0
M  V30 8281 H 788.559 -4.96294 3.55703 0
M  V30 8282 H 789.973 -3.08375 4.83299 0
M  V30 8283 H 788.37 -2.56116 5.42701 0
M  V30 8284 H 789.44 -1.38165 4.64799 0
M  V30 8285 N 790.784 -1.46188 -0.588786 0
M  V30 8286 C 791.731 -1.56292 -1.69828 0
M  V30 8287 C 792.701 -0.407581 -1.61022 0
M  V30 8288 O 793.886 -0.623532 -1.80324 0
M  V30 8289 C 791.026 -1.55341 -3.08161 0
M  V30 8290 C 790.139 -2.81564 -3.27636 0
M  V30 8291 C 789.274 -2.72158 -4.56183 0
M  V30 8292 C 788.313 -3.93348 -4.68981 0
M  V30 8293 N 787.45 -3.82365 -5.88848 0
M  V30 8294 H 792.29 -2.51066 -1.6053 0
M  V30 8295 H 789.827 -1.24562 -0.782474 0
M  V30 8296 H 791.785 -1.52776 -3.88221 0
M  V30 8297 H 790.415 -0.641034 -3.16371 0
M  V30 8298 H 789.467 -2.94136 -2.41223 0
M  V30 8299 H 790.779 -3.714 -3.32962 0
M  V30 8300 H 789.933 -2.67665 -5.44464 0
M  V30 8301 H 788.672 -1.79953 -4.53286 0
M  V30 8302 H 787.677 -3.98181 -3.7912 0
M  V30 8303 H 788.902 -4.86643 -4.73662 0
M  V30 8304 H 786.848 -2.92942 -5.86959 0
M  V30 8305 H 786.765 -4.65851 -5.95415 0
M  V30 8306 H 788.033 -3.81836 -6.79575 0
M  V30 8307 N 792.262 0.832906 -1.33792 0
M  V30 8308 C 793.172 1.97514 -1.26592 0
M  V30 8309 C 794.188 1.73114 -0.175391 0
M  V30 8310 O 795.364 1.97387 -0.400062 0
M  V30 8311 C 792.429 3.31625 -1.01121 0
M  V30 8312 C 791.49 3.69101 -2.19233 0
M  V30 8313 C 790.723 4.96813 -1.94968 0
M  V30 8314 O 790.946 5.63208 -0.902955 0
M  V30 8315 O 789.88 5.31932 -2.8166 0
M  V30 8316 H 793.706 2.0653 -2.22664 0
M  V30 8317 H 791.291 0.966826 -1.13898 0
M  V30 8318 H 793.173 4.11968 -0.886571 0
M  V30 8319 H 791.848 3.23599 -0.080822 0
M  V30 8320 H 790.755 2.89243 -2.37253 0
M  V30 8321 H 792.088 3.818 -3.10628 0
M  V30 8322 N 793.74 1.17359 1.05189 0
M  V30 8323 C 794.65 0.904984 2.16442 0
M  V30 8324 C 795.666 -0.12686 1.73537 0
M  V30 8325 O 796.842 0.0524127 2.01332 0
M  V30 8326 C 793.907 0.422019 3.44122 0
M  V30 8327 C 792.968 1.52045 4.01473 0
M  V30 8328 C 792.201 1.06044 5.23059 0
M  V30 8329 O 792.424 -0.0854023 5.70336 0
M  V30 8330 O 791.358 1.85349 5.72651 0
M  V30 8331 H 795.184 1.8356 2.41949 0
M  V30 8332 H 792.769 0.95447 1.14936 0
M  V30 8333 H 794.651 0.160208 4.21095 0
M  V30 8334 H 793.326 -0.480444 3.20115 0
M  V30 8335 H 792.233 1.83615 3.25939 0
M  V30 8336 H 793.566 2.39863 4.29798 0
M  V30 8337 N 795.218 -1.23913 0.973828 0
M  V30 8338 C 796.15 -2.24397 0.466763 0
M  V30 8339 C 797.163 -1.57078 -0.427828 0
M  V30 8340 O 798.352 -1.76973 -0.233019 0
M  V30 8341 C 795.452 -3.37141 -0.344798 0
M  V30 8342 C 794.625 -4.34037 0.541349 0
M  V30 8343 C 793.684 -5.2576 -0.215243 0
M  V30 8344 O 792.71 -5.67842 0.39291 0
M  V30 8345 N 793.912 -5.60702 -1.5031 0
M  V30 8346 H 796.677 -2.68536 1.33074 0
M  V30 8347 H 794.238 -1.38017 0.846346 0
M  V30 8348 H 796.23 -3.95476 -0.859133 0
M  V30 8349 H 794.8 -2.92239 -1.10974 0
M  V30 8350 H 794.02 -3.74302 1.23659 0
M  V30 8351 H 795.308 -4.95738 1.1455 0
M  V30 8352 H 794.706 -5.28451 -2.01882 0
M  V30 8353 H 793.263 -6.21538 -1.96301 0
M  V30 8354 N 796.696 -0.74468 -1.38897 0
M  V30 8355 C 797.944 -0.296298 -1.99916 0
M  V30 8356 C 798.265 1.12325 -1.59399 0
M  V30 8357 O 797.535 1.76658 -0.846689 0
M  V30 8358 H 796.115 -0.106561 -0.73936 0
M  V30 8359 H 798.777 -0.956793 -1.69798 0
M  V30 8360 H 797.873 -0.352356 -3.10105 0
M  V30 8361 N 798.174 1.49689 -0.493057 0
M  V30 8362 C 799.402 2.06836 0.0513141 0
M  V30 8363 C 799.817 1.35436 1.31539 0
M  V30 8364 O 799.174 0.430248 1.77356 0
M  V30 8365 C 799.225 3.60107 0.317003 0
M  V30 8366 O 798.946 4.2882 -0.896957 0
M  V30 8367 C 800.447 4.33945 0.905902 0
M  V30 8368 H 797.667 0.670787 -0.0169048 0
M  V30 8369 H 800.211 1.92574 -0.688139 0
M  V30 8370 H 798.366 3.74099 1.00642 0
M  V30 8371 H 798.78 5.20395 -0.654939 0
M  V30 8372 H 800.254 5.42087 1.04144 0
M  V30 8373 H 800.731 3.95895 1.90168 0
M  V30 8374 H 801.337 4.2454 0.254195 0
M  V30 8375 N 799.652 0.226554 1.55963 0
M  V30 8376 C 800.584 -0.713907 2.17798 0
M  V30 8377 C 801.597 -1.15387 1.14846 0
M  V30 8378 O 802.786 -1.08416 1.41804 0
M  V30 8379 C 799.886 -1.97945 2.75084 0
M  V30 8380 C 799.059 -1.69424 4.03255 0
M  V30 8381 C 798.118 -2.80734 4.45056 0
M  V30 8382 O 797.144 -2.4899 5.11852 0
M  V30 8383 N 798.346 -4.09797 4.11152 0
M  V30 8384 H 801.111 -0.18494 2.99129 0
M  V30 8385 H 798.672 0.0457346 1.61835 0
M  V30 8386 H 800.664 -2.71611 3.00016 0
M  V30 8387 H 799.234 -2.41876 1.98027 0
M  V30 8388 H 798.454 -0.793767 3.86126 0
M  V30 8389 H 799.742 -1.47806 4.86858 0
M  V30 8390 H 799.14 -4.38429 3.57486 0
M  V30 8391 H 797.697 -4.79992 4.40966 0
M  V30 8392 N 801.13 -1.57531 -0.0467866 0
M  V30 8393 C 802.355 -1.93087 -0.757123 0
M  V30 8394 C 802.78 -0.825116 -1.69037 0
M  V30 8395 O 802.138 0.220449 -1.79955 0
M  V30 8396 C 802.186 -3.27669 -1.5055 0
M  V30 8397 O 801.29 -3.18667 -2.61773 0
M  V30 8398 H 800.631 -0.631597 -0.204892 0
M  V30 8399 H 803.161 -2.04599 -0.00755232 0
M  V30 8400 H 803.171 -3.6214 -1.87932 0
M  V30 8401 H 801.846 -4.07717 -0.820931 0
M  V30 8402 H 800.423 -2.95798 -2.27064 0
M  V30 8403 N 802.608 0.318715 -1.54344 0
M  V30 8404 C 803.54 1.41364 -1.80413 0
M  V30 8405 C 804.553 1.47627 -0.686294 0
M  V30 8406 O 805.742 1.50264 -0.963486 0
M  V30 8407 C 802.842 2.79867 -1.91123 0
M  V30 8408 C 802.015 2.96749 -3.21339 0
M  V30 8409 C 801.074 4.15642 -3.22689 0
M  V30 8410 O 800.1 4.08571 -3.96306 0
M  V30 8411 N 801.302 5.25416 -2.46817 0
M  V30 8412 H 804.067 1.19363 -2.74905 0
M  V30 8413 H 801.628 0.508722 -1.537 0
M  V30 8414 H 803.62 3.57619 -1.89448 0
M  V30 8415 H 802.19 2.94896 -1.03706 0
M  V30 8416 H 801.41 2.06257 -3.35934 0
M  V30 8417 H 802.698 3.04927 -4.07304 0
M  V30 8418 H 802.096 5.34037 -1.86605 0
M  V30 8419 H 800.653 6.01569 -2.50915 0
M  V30 8420 N 804.086 1.46499 0.581025 0
M  V30 8421 C 805.334 1.51596 1.33653 0
M  V30 8422 C 805.655 0.169859 1.94259 0
M  V30 8423 O 804.925 -0.803776 1.78651 0
M  V30 8424 H 803.505 0.558346 0.496244 0
M  V30 8425 H 806.167 1.8264 0.680338 0
M  V30 8426 H 805.263 2.26956 2.14237 0
M  V30 8427 N 805.565 -0.825799 1.34232 0
M  V30 8428 C 806.976 -1.39835 1.23706 0
M  V30 8429 C 807.327 -1.95709 -0.138649 0
M  V30 8430 O 806.452 -1.89833 -1.03886 0
M  V30 8431 C 807.047 -2.54203 2.23978 0
M  V30 8432 C 805.606 -3.07374 2.17251 0
M  V30 8433 C 804.753 -1.80232 2.10741 0
M  V30 8434 H 807.704 -0.630442 1.4564 0
M  V30 8435 H 807.725 -3.32214 1.8551 0
M  V30 8436 H 807.237 -2.13506 3.24094 0
M  V30 8437 H 805.338 -3.52583 1.20483 0
M  V30 8438 H 805.451 -3.6666 3.08379 0
M  V30 8439 H 803.815 -2.01012 1.56417 0
M  V30 8440 H 804.598 -1.41713 3.12686 0
M  V30 8441 N 807.043 -1.17915 -1.04565 0
M  V30 8442 C 808.291 -0.969505 -1.77327 0
M  V30 8443 C 808.612 0.502569 -1.88412 0
M  V30 8444 O 807.882 1.36467 -1.40547 0
M  V30 8445 H 806.462 -0.355723 -0.656864 0
M  V30 8446 H 809.124 -1.48506 -1.26223 0
M  V30 8447 H 808.22 -1.40324 -2.78775 0
M  V30 8448 N 808.521 1.23394 -0.980386 0
M  V30 8449 C 809.451 2.2717 -0.540024 0
M  V30 8450 C 810.432 1.64659 0.426787 0
M  V30 8451 O 811.617 1.91543 0.320153 0
M  V30 8452 C 808.747 3.46939 0.15836 0
M  V30 8453 C 807.701 4.21802 -0.725732 0
M  V30 8454 C 807.027 5.34597 0.104866 0
M  V30 8455 C 808.327 4.81802 -2.01654 0
M  V30 8456 H 810.021 2.64257 -1.40743 0
M  V30 8457 H 807.567 1.2703 -0.678193 0
M  V30 8458 H 809.52 4.18683 0.477737 0
M  V30 8459 H 808.244 3.08912 1.06022 0
M  V30 8460 H 806.903 3.51875 -1.02857 0
M  V30 8461 H 806.551 4.92812 1.00726 0
M  V30 8462 H 806.251 5.85607 -0.483557 0
M  V30 8463 H 807.775 6.09163 0.418624 0
M  V30 8464 H 809.189 5.45554 -1.76193 0
M  V30 8465 H 807.586 5.43098 -2.55273 0
M  V30 8466 H 808.656 4.02549 -2.70338 0
M  V30 8467 N 809.999 0.752036 1.385 0
M  V30 8468 C 811.276 0.233075 1.94206 0
M  V30 8469 C 811.656 -1.26838 1.68746 0
M  V30 8470 O 811.004 -2.04214 1.02513 0
M  V30 8471 C 811.214 0.58509 3.44061 0
M  V30 8472 C 812.562 0.543871 4.21102 0
M  V30 8473 O 813.586 0.523291 3.52335 0
M  V30 8474 O 812.445 0.553436 5.4369 0
M  V30 8475 H 809.539 0.0483049 0.825588 0
M  V30 8476 H 812.085 0.832053 1.47902 0
M  V30 8477 H 810.857 1.62212 3.56094 0
M  V30 8478 H 810.48 -0.0419738 3.97578 0
M  V30 8479 N 811.477 -1.49425 0.500989 0
M  V30 8480 C 812.893 -1.58826 0.156951 0
M  V30 8481 C 813.093 -1.50622 -1.33848 0
M  V30 8482 O 812.149 -1.38016 -2.11442 0
M  V30 8483 C 813.462 -2.91611 0.73374 0
M  V30 8484 C 815.01 -3.05076 0.699846 0
M  V30 8485 C 815.485 -4.40479 1.2547 0
M  V30 8486 N 816.976 -4.4697 1.2154 0
M  V30 8487 C 817.711 -5.50189 1.6149 0
M  V30 8488 N 817.207 -6.60512 2.09034 0
M  V30 8489 N 819 -5.40903 1.52907 0
M  V30 8490 H 811.151 -1.53001 1.47324 0
M  V30 8491 H 813.414 -0.724765 0.61108 0
M  V30 8492 H 813.12 -3.03182 1.78251 0
M  V30 8493 H 812.994 -3.767 0.19417 0
M  V30 8494 H 815.381 -2.93134 -0.340085 0
M  V30 8495 H 815.462 -2.2167 1.27656 0
M  V30 8496 H 815.106 -4.53172 2.29341 0
M  V30 8497 H 815.036 -5.22524 0.653921 0
M  V30 8498 H 817.527 -3.67819 0.867043 0
M  V30 8499 H 817.84 -7.35372 2.37588 0
M  V30 8500 H 816.185 -6.61553 2.13008 0
M  V30 8501 H 819.376 -4.53606 1.15583 0
M  V30 8502 H 819.549 -6.21219 1.84365 0
M  V30 8503 N 812.955 -0.234822 -1.55841 0
M  V30 8504 C 814.203 0.392483 -1.98252 0
M  V30 8505 C 814.524 1.59344 -1.12404 0
M  V30 8506 O 813.794 1.94834 -0.204055 0
M  V30 8507 H 812.374 0.147999 -0.732192 0
M  V30 8508 H 815.036 -0.330804 -1.92072 0
M  V30 8509 H 814.132 0.709829 -3.03921 0
M  V30 8510 N 814.433 1.57553 0.0384317 0
M  V30 8511 C 815.679 1.89121 0.732199 0
M  V30 8512 C 816.012 0.831404 1.75503 0
M  V30 8513 O 815.287 -0.154642 1.93884 0
M  V30 8514 C 815.57 3.31338 1.41021 0
M  V30 8515 C 815.423 4.48004 0.401532 0
M  V30 8516 C 816.742 3.72318 2.34665 0
M  V30 8517 H 813.861 0.687819 0.264715 0
M  V30 8518 H 816.503 1.89999 -0.00496279 0
M  V30 8519 H 814.653 3.3072 2.03854 0
M  V30 8520 H 816.325 4.60755 -0.224159 0
M  V30 8521 H 814.568 4.32895 -0.280092 0
M  V30 8522 H 815.239 5.44377 0.91423 0
M  V30 8523 H 817.715 3.74243 1.81883 0
M  V30 8524 H 816.591 4.72652 2.7909 0
M  V30 8525 H 816.852 3.04062 3.20934 0
M  V30 8526 N 815.911 -0.310526 1.54511 0
M  V30 8527 C 816.843 -1.40405 1.8116 0
M  V30 8528 C 817.856 -1.47261 0.694114 0
M  V30 8529 O 819.045 -1.49751 0.971441 0
M  V30 8530 C 816.145 -2.78849 1.92604 0
M  V30 8531 C 815.318 -2.95041 3.22908 0
M  V30 8532 C 814.377 -4.13925 3.24889 0
M  V30 8533 O 813.403 -4.06463 3.98467 0
M  V30 8534 N 814.605 -5.24099 2.496 0
M  V30 8535 H 817.37 -1.17903 2.75534 0
M  V30 8536 H 814.931 -0.500564 1.53967 0
M  V30 8537 H 816.923 -3.5661 1.91342 0
M  V30 8538 H 815.493 -2.94342 1.05268 0
M  V30 8539 H 814.713 -2.04472 3.37023 0
M  V30 8540 H 816.001 -3.02763 4.08916 0
M  V30 8541 H 815.399 -5.33039 1.89435 0
M  V30 8542 H 813.956 -6.0023 2.54102 0
M  V30 8543 N 817.389 -1.46805 -0.573248 0
M  V30 8544 C 818.805 -1.31969 -0.897577 0
M  V30 8545 C 819.005 -0.298171 -1.99282 0
M  V30 8546 O 818.061 0.295953 -2.5076 0
M  V30 8547 C 819.374 -2.70859 -1.30598 0
M  V30 8548 C 820.922 -2.79022 -1.4183 0
M  V30 8549 C 821.397 -4.18516 -1.86033 0
M  V30 8550 N 822.888 -4.2098 -1.9321 0
M  V30 8551 C 823.623 -5.25814 -2.28707 0
M  V30 8552 N 823.119 -6.40968 -2.6293 0
M  V30 8553 N 824.912 -5.13184 -2.29343 0
M  V30 8554 H 817.063 -2.11869 0.150094 0
M  V30 8555 H 819.326 -0.947989 0.00447895 0
M  V30 8556 H 819.032 -3.46965 -0.575161 0
M  V30 8557 H 818.906 -3.01585 -2.26554 0
M  V30 8558 H 821.293 -2.03198 -2.13996 0
M  V30 8559 H 821.374 -2.51969 -0.441024 0
M  V30 8560 H 821.018 -4.94839 -1.14442 0
M  V30 8561 H 820.948 -4.42982 -2.84735 0
M  V30 8562 H 823.439 -3.37898 -1.69214 0
M  V30 8563 H 823.752 -7.16729 -2.88996 0
M  V30 8564 H 822.097 -6.44314 -2.60547 0
M  V30 8565 H 825.288 -4.22255 -2.02036 0
M  V30 8566 H 825.461 -5.94996 -2.56679 0
M  V30 8567 N 818.867 0.818669 -1.34668 0
M  V30 8568 C 819.814 1.92983 -1.26595 0
M  V30 8569 C 820.784 1.65506 -0.140315 0
M  V30 8570 O 821.969 1.88063 -0.322005 0
M  V30 8571 C 819.109 3.2932 -1.03163 0
M  V30 8572 C 818.222 3.69061 -2.24539 0
M  V30 8573 C 817.357 4.94368 -1.94355 0
M  V30 8574 C 816.396 5.26702 -3.11851 0
M  V30 8575 N 815.533 6.43187 -2.81522 0
M  V30 8576 H 820.373 1.99219 -2.2162 0
M  V30 8577 H 817.91 0.974612 -1.1018 0
M  V30 8578 H 819.868 4.07897 -0.87613 0
M  V30 8579 H 818.498 3.22584 -0.118045 0
M  V30 8580 H 817.55 2.85842 -2.50995 0
M  V30 8581 H 818.862 3.88924 -3.12313 0
M  V30 8582 H 818.016 5.80742 -1.75566 0
M  V30 8583 H 816.755 4.76515 -1.03848 0
M  V30 8584 H 815.76 4.38823 -3.31231 0
M  V30 8585 H 816.985 5.46492 -4.03142 0
M  V30 8586 H 814.931 6.26783 -1.93596 0
M  V30 8587 H 814.848 6.63243 -3.62829 0
M  V30 8588 H 816.116 7.32621 -2.66247 0
M  V30 8589 N 820.346 1.18468 1.03938 0
M  V30 8590 C 821.592 0.982286 1.77423 0
M  V30 8591 C 821.925 -0.48679 1.88 0
M  V30 8592 O 821.2 -1.36146 1.38905 0
M  V30 8593 C 821.483 1.63929 3.20623 0
M  V30 8594 C 821.336 3.18132 3.17982 0
M  V30 8595 C 822.655 1.3536 4.18767 0
M  V30 8596 H 819.774 0.358264 0.644062 0
M  V30 8597 H 822.416 1.46154 1.21405 0
M  V30 8598 H 820.566 1.2318 3.68455 0
M  V30 8599 H 822.238 3.68024 2.78129 0
M  V30 8600 H 820.481 3.50225 2.55978 0
M  V30 8601 H 821.152 3.5924 4.19107 0
M  V30 8602 H 823.628 1.70669 3.79488 0
M  V30 8603 H 822.504 1.83896 5.17178 0
M  V30 8604 H 822.765 0.276722 4.41233 0
M  V30 8605 N 821.824 -1.22873 0.986916 0
M  V30 8606 C 823.049 -1.96028 0.677341 0
M  V30 8607 C 823.474 -1.72487 -0.750319 0
M  V30 8608 O 822.832 -1.00036 -1.51203 0
M  V30 8609 C 822.88 -3.46983 0.981593 0
M  V30 8610 O 821.984 -4.12328 0.0770729 0
M  V30 8611 H 821.325 -0.613458 0.254096 0
M  V30 8612 H 823.855 -1.56132 1.32227 0
M  V30 8613 H 823.865 -3.9747 0.920969 0
M  V30 8614 H 822.54 -3.63442 2.02194 0
M  V30 8615 H 821.117 -3.72402 0.192666 0
M  V30 8616 N 823.302 -0.75937 -1.38099 0
M  V30 8617 C 824.55 -0.317485 -1.99591 0
M  V30 8618 C 824.871 1.10628 -1.60581 0
M  V30 8619 O 824.141 1.7575 -0.865378 0
M  V30 8620 H 822.721 -0.114397 -0.738189 0
M  V30 8621 H 825.383 -0.974749 -1.68774 0
M  V30 8622 H 824.479 -0.385227 -3.09713 0
M  V30 8623 N 824.78 1.49157 -0.508906 0
M  V30 8624 C 826.005 2.07376 0.0315182 0
M  V30 8625 C 826.43 1.36575 1.2934 0
M  V30 8626 O 825.788 0.424963 1.76249 0
M  V30 8627 C 825.836 3.59661 0.260118 0
M  V30 8628 O 824.94 3.90255 1.33322 0
M  V30 8629 H 824.281 0.663334 -0.029739 0
M  V30 8630 H 826.811 1.91857 -0.710791 0
M  V30 8631 H 826.821 4.05056 0.489225 0
M  V30 8632 H 825.496 4.10601 -0.661794 0
M  V30 8633 H 824.073 3.56661 1.08844 0
M  V30 8634 N 826.258 0.243083 1.55714 0
M  V30 8635 C 827.674 -0.111853 1.59208 0
M  V30 8636 C 827.874 -1.5723 1.2602 0
M  V30 8637 O 826.93 -2.31608 1.00569 0
M  V30 8638 C 828.243 0.233885 2.99789 0
M  V30 8639 C 829.791 0.177873 3.12494 0
M  V30 8640 C 830.266 0.49759 4.55289 0
M  V30 8641 N 831.757 0.447949 4.61029 0
M  V30 8642 C 832.492 0.668545 5.69489 0
M  V30 8643 N 831.988 0.952064 6.86227 0
M  V30 8644 N 833.781 0.599512 5.58894 0
M  V30 8645 H 825.932 1.19554 1.75558 0
M  V30 8646 H 828.195 0.480765 0.817049 0
M  V30 8647 H 827.901 1.24835 3.28799 0
M  V30 8648 H 827.775 -0.440846 3.74615 0
M  V30 8649 H 830.162 -0.827263 2.83267 0
M  V30 8650 H 830.243 0.886399 2.39951 0
M  V30 8651 H 829.887 1.50026 4.85237 0
M  V30 8652 H 829.817 -0.232371 5.26087 0
M  V30 8653 H 832.308 0.237388 3.77154 0
M  V30 8654 H 832.621 1.10791 7.64817 0
M  V30 8655 H 830.966 0.989496 6.8792 0
M  V30 8656 H 834.157 0.378088 4.66571 0
M  V30 8657 H 834.33 0.774828 6.43351 0
M  V30 8658 N 827.736 -1.57571 -0.0300757 0
M  V30 8659 C 828.984 -1.88852 -0.719666 0
M  V30 8660 C 829.305 -0.840645 -1.75949 0
M  V30 8661 O 828.575 0.125854 -1.95495 0
M  V30 8662 H 827.155 -0.696965 -0.268792 0
M  V30 8663 H 829.817 -1.949 0.00373285 0
M  V30 8664 H 828.913 -2.87695 -1.20987 0
M  V30 8665 N 829.214 0.302327 -1.54673 0
M  V30 8666 C 830.439 1.06103 -1.78205 0
M  V30 8667 C 830.864 1.80204 -0.53926 0
M  V30 8668 O 830.222 1.73975 0.510142 0
M  V30 8669 C 830.27 2.01829 -2.98827 0
M  V30 8670 O 829.374 3.10108 -2.71858 0
M  V30 8671 H 828.715 0.30487 -0.589873 0
M  V30 8672 H 831.245 0.340153 -2.01753 0
M  V30 8673 H 831.255 2.44319 -3.2676 0
M  V30 8674 H 829.93 1.473 -3.88942 0
M  V30 8675 H 828.507 2.72142 -2.54937 0
M  V30 8676 N 830.692 1.47107 0.565454 0
M  V30 8677 C 831.939 1.53308 1.32299 0
M  V30 8678 C 832.267 0.1919 1.93551 0
M  V30 8679 O 831.522 -0.81435 1.77952 0
M  V30 8680 C 831.821 2.59309 2.45954 0
M  V30 8681 C 831.487 4.02827 2.02586 0
M  V30 8682 C 830.149 4.41897 1.90474 0
M  V30 8683 C 832.501 4.92913 1.6937 0
M  V30 8684 C 829.829 5.68898 1.4343 0
M  V30 8685 C 832.181 6.20368 1.238 0
M  V30 8686 C 830.845 6.58327 1.10278 0
M  V30 8687 H 830.115 0.560993 0.484116 0
M  V30 8688 H 832.762 1.80667 0.634965 0
M  V30 8689 H 831.067 2.25676 3.20277 0
M  V30 8690 H 832.764 2.61332 3.04149 0
M  V30 8691 H 829.354 3.71953 2.12952 0
M  V30 8692 H 833.538 4.63433 1.77605 0
M  V30 8693 H 828.794 5.97065 1.31618 0
M  V30 8694 H 832.968 6.89589 0.971586 0
M  V30 8695 H 830.595 7.56628 0.736027 0
M  V30 8696 N 832.17 -0.811516 1.35101 0
M  V30 8697 C 833.41 -1.58177 1.29458 0
M  V30 8698 C 833.774 -1.91555 -0.130688 0
M  V30 8699 O 834.975 -2.6699 -0.311428 0
M  V30 8700 C 833.246 -2.83896 2.17112 0
M  V30 8701 S 834.805 -3.74344 2.28936 0
M  V30 8702 H 831.623 -0.542021 0.460146 0
M  V30 8703 H 834.225 -0.957653 1.70438 0
M  V30 8704 H 832.929 -2.57391 3.19653 0
M  V30 8705 H 832.46 -3.51297 1.7707 0
M  V30 8706 H 834.475 -4.73909 1.47054 0
M  V30 8707 N 833.648 -1.19017 -1.03309 0
M  V30 8708 C 834.595 -0.924088 -2.11493 0
M  V30 8709 C 835.565 0.139464 -1.65513 0
M  V30 8710 O 836.75 -0.00178761 -1.908 0
M  V30 8711 C 833.89 -0.464255 -3.41963 0
M  V30 8712 C 833.003 -1.5941 -4.01513 0
M  V30 8713 C 832.138 -1.08622 -5.19976 0
M  V30 8714 C 831.177 -2.19024 -5.71572 0
M  V30 8715 N 830.314 -1.69575 -6.81314 0
M  V30 8716 H 835.154 -1.85039 -2.33591 0
M  V30 8717 H 832.691 -0.922593 -1.14572 0
M  V30 8718 H 834.649 -0.179078 -4.16815 0
M  V30 8719 H 833.279 0.425062 -3.19989 0
M  V30 8720 H 832.331 -1.99458 -3.23915 0
M  V30 8721 H 833.643 -2.42604 -4.35826 0
M  V30 8722 H 832.797 -0.756022 -6.01971 0
M  V30 8723 H 831.536 -0.223955 -4.87186 0
M  V30 8724 H 830.541 -2.5288 -4.88193 0
M  V30 8725 H 831.766 -3.05699 -6.06403 0
M  V30 8726 H 829.712 -0.856494 -6.50385 0
M  V30 8727 H 829.629 -2.46361 -7.14732 0
M  V30 8728 H 830.897 -1.39505 -7.66915 0
M  V30 8729 N 835.127 1.22348 -0.993418 0
M  V30 8730 C 836.09 2.22522 -0.549251 0
M  V30 8731 C 837.09 1.56529 0.368164 0
M  V30 8732 O 838.28 1.73463 0.16005 0
M  V30 8733 C 835.412 3.40307 0.201037 0
M  V30 8734 H 836.605 2.63332 -1.43515 0
M  V30 8735 H 834.158 1.35407 -0.78068 0
M  V30 8736 H 834.893 3.0497 1.10289 0
M  V30 8737 H 834.678 3.8942 -0.457685 0
M  V30 8738 H 836.168 4.14597 0.499946 0
M  V30 8739 N 836.605 0.766683 1.37694 0
M  V30 8740 C 837.853 0.328065 1.9942 0
M  V30 8741 C 838.174 -1.09775 1.61166 0
M  V30 8742 O 837.444 -1.75288 0.874686 0
M  V30 8743 H 836.024 0.11831 0.737572 0
M  V30 8744 H 838.686 0.983686 1.68255 0
M  V30 8745 H 837.782 0.401647 3.09505 0
M  V30 8746 N 838.083 -1.48885 0.516809 0
M  V30 8747 C 839.331 -2.02088 -0.0220166 0
M  V30 8748 C 839.652 -1.39735 -1.36011 0
M  V30 8749 O 838.922 -0.558119 -1.87781 0
M  V30 8750 H 837.502 -0.746917 -0.0111255 0
M  V30 8751 H 840.164 -1.8274 0.677647 0
M  V30 8752 H 839.26 -3.11786 -0.140067 0
M  V30 8753 N 839.561 -0.251338 -1.55583 0
M  V30 8754 C 840.789 0.376187 -2.03451 0
M  V30 8755 C 841.204 1.51215 -1.13047 0
M  V30 8756 O 840.561 1.81917 -0.145769 0
M  V30 8757 C 840.612 0.879779 -3.50631 0
M  V30 8758 O 840.333 -0.210917 -4.37592 0
M  V30 8759 C 841.834 1.57754 -4.14281 0
M  V30 8760 H 839.054 0.0888722 -0.665089 0
M  V30 8761 H 841.598 -0.376497 -2.01004 0
M  V30 8762 H 839.753 1.58263 -3.53598 0
M  V30 8763 H 840.167 0.172203 -5.24217 0
M  V30 8764 H 841.641 1.88158 -5.18942 0
M  V30 8765 H 842.118 2.50103 -3.61034 0
M  V30 8766 H 842.724 0.919154 -4.15249 0
M  V30 8767 N 841.039 1.57585 0.0217189 0
M  V30 8768 C 841.969 2.10073 1.01939 0
M  V30 8769 C 842.95 1.0049 1.37243 0
M  V30 8770 O 844.135 1.28055 1.45999 0
M  V30 8771 C 841.265 2.58618 2.31806 0
M  V30 8772 C 840.219 3.72531 2.10724 0
M  V30 8773 C 839.545 4.07309 3.46415 0
M  V30 8774 C 840.845 5.00672 1.48743 0
M  V30 8775 H 842.539 2.9368 0.582432 0
M  V30 8776 H 840.085 1.41277 0.278715 0
M  V30 8777 H 842.038 2.9396 3.01936 0
M  V30 8778 H 840.762 1.72104 2.77575 0
M  V30 8779 H 839.421 3.37549 1.43025 0
M  V30 8780 H 839.069 3.17851 3.89846 0
M  V30 8781 H 838.769 4.84042 3.33132 0
M  V30 8782 H 840.293 4.45192 4.17895 0
M  V30 8783 H 841.707 5.33925 2.088 0
M  V30 8784 H 840.104 5.82065 1.46013 0
M  V30 8785 H 841.174 4.82769 0.45408 0
M  V30 8786 N 842.517 -0.29412 1.54831 0
M  V30 8787 C 843.427 -1.3854 1.89325 0
M  V30 8788 C 844.443 -1.55127 0.788133 0
M  V30 8789 O 845.619 -1.6966 1.08524 0
M  V30 8790 C 842.684 -2.72809 2.13954 0
M  V30 8791 C 841.745 -2.65148 3.37631 0
M  V30 8792 C 840.978 -3.93014 3.61076 0
M  V30 8793 O 841.201 -4.927 2.87406 0
M  V30 8794 O 840.135 -3.94491 4.54599 0
M  V30 8795 H 843.961 -1.12289 2.82179 0
M  V30 8796 H 841.546 -0.490793 1.41108 0
M  V30 8797 H 843.428 -3.52238 2.31315 0
M  V30 8798 H 842.103 -2.9889 1.24285 0
M  V30 8799 H 841.01 -1.84168 3.25627 0
M  V30 8800 H 842.343 -2.4402 4.27452 0
M  V30 8801 N 843.995 -1.47404 -0.557645 0
M  V30 8802 C 844.943 -1.60265 -1.68576 0
M  V30 8803 C 845.937 -0.469982 -1.6275 0
M  V30 8804 O 847.143 -0.647764 -1.67941 0
M  V30 8805 H 843.518 -0.504353 -0.557792 0
M  V30 8806 H 845.489 -2.55066 -1.54867 0
M  V30 8807 C 844.238 -1.63369 -3.0693 0
M  V30 8808 H 843.561 -2.49874 -3.12095 0
M  V30 8809 H 845.001 -1.76417 -3.85556 0
M  V30 8810 C 843.46 -0.366921 -3.34896 0
M  V30 8811 O 843.99 0.53218 -3.98159 0
M  V30 8812 N 842.196 -0.247082 -2.89548 0
M  V30 8813 H 841.743 -0.979669 -2.38244 0
M  V30 8814 H 841.701 0.599552 -3.0863 0
M  V30 8815 N 845.473 0.80434 -1.35529 0
M  V30 8816 C 846.436 1.89788 -1.28503 0
M  V30 8817 C 847.436 1.59601 -0.195983 0
M  V30 8818 O 848.626 1.68292 -0.449827 0
M  V30 8819 C 845.758 3.26255 -0.98847 0
M  V30 8820 H 846.951 1.97436 -2.25741 0
M  V30 8821 H 844.504 1.00046 -1.20086 0
M  V30 8822 H 845.239 3.24294 -0.0200541 0
M  V30 8823 H 845.024 3.49551 -1.77641 0
M  V30 8824 H 846.514 4.06298 -0.964975 0
M  V30 8825 N 846.951 1.19563 1.02676 0
M  V30 8826 C 848.228 0.908857 1.73203 0
M  V30 8827 C 848.608 -0.584928 2.02834 0
M  V30 8828 O 847.956 -1.54372 1.68469 0
M  V30 8829 C 848.166 1.77105 3.00724 0
M  V30 8830 C 849.514 2.00667 3.7419 0
M  V30 8831 O 850.538 1.74274 3.10656 0
M  V30 8832 O 849.397 2.4518 4.88415 0
M  V30 8833 H 846.491 0.338909 0.754367 0
M  V30 8834 H 849.037 1.30387 1.08616 0
M  V30 8835 H 847.809 2.78303 2.7507 0
M  V30 8836 H 847.432 1.37546 3.73051 0
M  V30 8837 N 848.429 -1.21819 0.999893 0
M  V30 8838 C 849.654 -1.95298 0.698094 0
M  V30 8839 C 850.079 -1.73273 -0.731982 0
M  V30 8840 O 849.437 -1.01634 -1.50134 0
M  V30 8841 C 849.485 -3.45922 1.01834 0
M  V30 8842 O 848.589 -4.12223 0.120801 0
M  V30 8843 H 847.93 -0.610729 0.260588 0
M  V30 8844 H 850.46 -1.5472 1.33876 0
M  V30 8845 H 850.47 -3.96471 0.963074 0
M  V30 8846 H 849.145 -3.61278 2.06037 0
M  V30 8847 H 847.722 -3.72177 0.232153 0
M  V30 8848 N 849.908 -0.773975 -1.37286 0
M  V30 8849 C 850.871 -0.167974 -2.28584 0
M  V30 8850 C 851.871 0.625662 -1.48129 0
M  V30 8851 O 853.061 0.448924 -1.68316 0
M  V30 8852 C 850.193 0.769364 -3.32105 0
M  V30 8853 H 851.386 -0.972806 -2.83684 0
M  V30 8854 H 848.939 -0.542335 -1.46589 0
M  V30 8855 H 849.674 1.59912 -2.82132 0
M  V30 8856 H 849.459 0.202419 -3.91577 0
M  V30 8857 H 850.949 1.18872 -4.00324 0
M  V30 8858 N 851.386 1.48609 -0.524698 0
M  V30 8859 C 852.802 1.58557 -0.182199 0
M  V30 8860 C 853.002 1.52732 1.31435 0
M  V30 8861 O 852.058 1.41362 2.0922 0
M  V30 8862 C 853.371 2.90406 -0.78004 0
M  V30 8863 C 854.919 3.03924 -0.748293 0
M  V30 8864 C 855.394 4.38427 -1.32462 0
M  V30 8865 N 856.885 4.4498 -1.28635 0
M  V30 8866 C 857.62 5.47551 -1.70223 0
M  V30 8867 N 857.116 6.57103 -2.19515 0
M  V30 8868 N 858.909 5.38402 -1.61493 0
M  V30 8869 H 851.06 1.50638 -1.4974 0
M  V30 8870 H 853.323 0.714952 -0.622533 0
M  V30 8871 H 853.029 3.00308 -1.83052 0
M  V30 8872 H 852.903 3.76343 -0.254075 0
M  V30 8873 H 855.29 2.93638 0.293407 0
M  V30 8874 H 855.371 2.19611 -1.31167 0
M  V30 8875 H 855.015 4.49466 -2.36522 0
M  V30 8876 H 854.945 5.21418 -0.736967 0
M  V30 8877 H 857.436 3.66393 -0.92545 0
M  V30 8878 H 857.749 7.31499 -2.49257 0
M  V30 8879 H 856.094 6.58081 -2.23506 0
M  V30 8880 H 859.285 4.5171 -1.22785 0
M  V30 8881 H 859.458 6.18208 -1.94225 0
M  V30 8882 N 852.864 0.259585 1.55447 0
M  V30 8883 C 854.28 -0.094961 1.59317 0
M  V30 8884 C 854.48 -1.55884 1.2768 0
M  V30 8885 O 853.536 -2.30528 1.0302 0
M  V30 8886 C 854.849 0.265669 2.99524 0
M  V30 8887 C 856.397 0.211007 3.12288 0
M  V30 8888 C 856.872 0.545851 4.54736 0
M  V30 8889 N 858.363 0.496823 4.60528 0
M  V30 8890 C 859.098 0.728909 5.68748 0
M  V30 8891 N 858.594 1.02479 6.85179 0
M  V30 8892 N 860.387 0.658756 5.58226 0
M  V30 8893 H 852.538 1.2141 1.7428 0
M  V30 8894 H 854.801 0.489404 0.811904 0
M  V30 8895 H 854.507 1.28316 3.27457 0
M  V30 8896 H 854.381 -0.401089 3.75061 0
M  V30 8897 H 856.768 -0.797172 2.84129 0
M  V30 8898 H 856.849 0.911799 2.38998 0
M  V30 8899 H 856.493 1.55164 4.83618 0
M  V30 8900 H 856.423 -0.17656 5.26304 0
M  V30 8901 H 858.914 0.277376 3.76881 0
M  V30 8902 H 859.227 1.18897 7.63599 0
M  V30 8903 H 857.572 1.0624 6.86832 0
M  V30 8904 H 860.763 0.427553 4.66143 0
M  V30 8905 H 860.936 0.84302 6.42493 0
M  V30 8906 N 854.342 -1.57594 -0.0133615 0
M  V30 8907 C 855.59 -1.89605 -0.699596 0
M  V30 8908 C 855.911 -0.85926 -1.75048 0
M  V30 8909 O 855.181 0.105112 -1.95618 0
M  V30 8910 H 853.761 -0.699776 -0.261385 0
M  V30 8911 H 856.423 -1.94885 0.0244044 0
M  V30 8912 H 855.519 -2.88962 -1.17928 0
M  V30 8913 N 855.82 0.285905 -1.54985 0
M  V30 8914 C 857.045 1.04207 -1.7932 0
M  V30 8915 C 857.47 1.79622 -0.558343 0
M  V30 8916 O 856.828 1.74506 0.491661 0
M  V30 8917 C 856.876 1.98648 -3.0095 0
M  V30 8918 O 855.98 3.07207 -2.75132 0
M  V30 8919 H 855.321 0.298596 -0.593074 0
M  V30 8920 H 857.851 0.318736 -2.02102 0
M  V30 8921 H 857.861 2.4084 -3.29333 0
M  V30 8922 H 856.536 1.43167 -3.90482 0
M  V30 8923 H 855.113 2.69423 -2.57809 0
M  V30 8924 N 857.298 1.47698 0.54982 0
M  V30 8925 C 858.538 1.56286 1.31735 0
M  V30 8926 C 858.902 0.223042 1.907 0
M  V30 8927 O 860.103 0.183798 2.68171 0
M  V30 8928 C 858.374 2.65522 2.39234 0
M  V30 8929 S 859.933 2.93742 3.25977 0
M  V30 8930 H 856.751 0.551795 0.448378 0
M  V30 8931 H 859.353 1.85118 0.628629 0
M  V30 8932 H 858.057 3.61457 1.94362 0
M  V30 8933 H 857.588 2.38528 3.12838 0
M  V30 8934 H 859.603 2.31522 4.38876 0
M  V30 8935 N 858.776 -0.797141 1.35954 0
M  V30 8936 C 860.187 -1.37179 1.26644 0
M  V30 8937 C 860.538 -1.9596 -0.0971046 0
M  V30 8938 O 859.663 -1.91994 -0.998355 0
M  V30 8939 C 860.258 -2.49395 2.2932 0
M  V30 8940 C 858.817 -3.02697 2.23722 0
M  V30 8941 C 857.964 -1.75721 2.14517 0
M  V30 8942 H 860.915 -0.599407 1.46945 0
M  V30 8943 H 860.936 -3.28204 1.92515 0
M  V30 8944 H 860.448 -2.06584 3.2855 0
M  V30 8945 H 858.549 -3.49948 1.27934 0
M  V30 8946 H 858.662 -3.60036 3.16087 0
M  V30 8947 H 857.026 -1.97649 1.60646 0
M  V30 8948 H 857.809 -1.35049 3.15621 0
M  V30 8949 N 860.254 -1.20106 -1.0204 0
M  V30 8950 C 861.184 -0.970301 -2.12385 0
M  V30 8951 C 862.165 0.099378 -1.69809 0
M  V30 8952 O 863.35 -0.057365 -1.94115 0
M  V30 8953 C 860.48 -0.517431 -3.43424 0
M  V30 8954 C 859.434 -1.52992 -3.99722 0
M  V30 8955 C 858.76 -0.933817 -5.26483 0
M  V30 8956 C 860.06 -2.91257 -4.33551 0
M  V30 8957 H 861.754 -1.89316 -2.31948 0
M  V30 8958 H 859.3 -0.911655 -1.11467 0
M  V30 8959 H 861.253 -0.343243 -4.2 0
M  V30 8960 H 859.977 0.441049 -3.23608 0
M  V30 8961 H 858.636 -1.6914 -3.2525 0
M  V30 8962 H 858.284 0.0324763 -5.0299 0
M  V30 8963 H 857.984 -1.60999 -5.65113 0
M  V30 8964 H 859.508 -0.770614 -6.05718 0
M  V30 8965 H 860.922 -2.78642 -5.0103 0
M  V30 8966 H 859.319 -3.55745 -4.83286 0
M  V30 8967 H 860.389 -3.43269 -3.42483 0
M  V30 8968 N 861.732 1.21287 -1.00634 0
M  V30 8969 C 862.642 2.27388 -0.577226 0
M  V30 8970 C 863.658 1.69791 0.380399 0
M  V30 8971 O 864.834 1.99918 0.2439 0
M  V30 8972 C 861.899 3.46588 0.0880532 0
M  V30 8973 C 860.96 4.19453 -0.914222 0
M  V30 8974 C 860.193 5.32962 -0.280596 0
M  V30 8975 O 860.416 5.62895 0.922265 0
M  V30 8976 O 859.35 5.93666 -0.992196 0
M  V30 8977 H 863.176 2.66289 -1.46028 0
M  V30 8978 H 860.761 1.2771 -0.775283 0
M  V30 8979 H 862.643 4.18881 0.460094 0
M  V30 8980 H 861.318 3.09585 0.945461 0
M  V30 8981 H 860.225 3.49376 -1.33744 0
M  V30 8982 H 861.558 4.6037 -1.74126 0
M  V30 8983 N 863.21 0.781244 1.36873 0
M  V30 8984 C 864.157 0.172146 2.30157 0
M  V30 8985 C 865.127 -0.679328 1.51573 0
M  V30 8986 O 866.312 -0.629713 1.80109 0
M  V30 8987 C 863.452 -0.693534 3.38059 0
M  V30 8988 C 862.565 0.175586 4.31643 0
M  V30 8989 C 861.7 -0.695695 5.26625 0
M  V30 8990 C 860.739 0.17538 6.11849 0
M  V30 8991 N 859.876 -0.654416 6.99043 0
M  V30 8992 H 864.716 0.973133 2.81663 0
M  V30 8993 H 862.253 0.491469 1.38647 0
M  V30 8994 H 864.211 -1.21035 3.99257 0
M  V30 8995 H 862.841 -1.46003 2.87894 0
M  V30 8996 H 861.893 0.810295 3.7167 0
M  V30 8997 H 863.205 0.847107 4.91554 0
M  V30 8998 H 862.359 -1.27863 5.93073 0
M  V30 8999 H 861.098 -1.40087 4.67148 0
M  V30 9000 H 860.103 0.77078 5.4437 0
M  V30 9001 H 861.328 0.87803 6.734 0
M  V30 9002 H 859.274 -1.34403 6.42084 0
M  V30 9003 H 859.191 -0.0403998 7.55989 0
M  V30 9004 H 860.459 -1.22144 7.69871 0
M  V30 9005 N 864.689 -1.48329 0.532571 0
M  V30 9006 C 865.929 -2.044 0.00145618 0
M  V30 9007 C 866.293 -1.40053 -1.31336 0
M  V30 9008 O 867.494 -1.87026 -1.93066 0
M  V30 9009 C 865.765 -3.57214 -0.115376 0
M  V30 9010 S 867.324 -4.34731 -0.59618 0
M  V30 9011 H 864.142 -0.710876 0.0133038 0
M  V30 9012 H 866.744 -1.82006 0.71372 0
M  V30 9013 H 865.448 -4.01579 0.846335 0
M  V30 9014 H 864.979 -3.84065 -0.85194 0
M  V30 9015 H 866.994 -4.6001 -1.86025 0
M  V30 9016 N 866.167 -0.267825 -1.55308 0
M  V30 9017 C 867.115 0.638848 -2.23655 0
M  V30 9018 C 868.109 1.16363 -1.2311 0
M  V30 9019 O 869.315 1.1181 -1.41062 0
M  V30 9020 H 865.69 0.224551 -0.717691 0
M  V30 9021 H 867.661 0.0394809 -2.98374 0
M  V30 9022 C 866.41 1.8151 -2.96562 0
M  V30 9023 H 865.733 1.42048 -3.73715 0
M  V30 9024 H 867.173 2.42629 -3.47717 0
M  V30 9025 C 865.632 2.69911 -2.01618 0
M  V30 9026 O 866.162 3.70058 -1.56268 0
M  V30 9027 N 864.368 2.36924 -1.68272 0
M  V30 9028 H 863.915 1.55533 -2.05347 0
M  V30 9029 H 863.873 2.96343 -1.05016 0
M  V30 9030 N 867.645 1.57599 0.00500368 0
M  V30 9031 C 868.891 1.90631 0.691919 0
M  V30 9032 C 869.224 0.868443 1.737 0
M  V30 9033 O 868.499 -0.113482 1.94169 0
M  V30 9034 C 868.782 3.34255 1.33961 0
M  V30 9035 C 868.635 4.48755 0.306413 0
M  V30 9036 C 869.954 3.77211 2.26715 0
M  V30 9037 H 867.073 0.693279 0.250066 0
M  V30 9038 H 869.715 1.89946 -0.0452634 0
M  V30 9039 H 867.865 3.3497 1.96793 0
M  V30 9040 H 869.537 4.60176 -0.321841 0
M  V30 9041 H 867.78 4.32203 -0.371852 0
M  V30 9042 H 868.451 5.46193 0.798554 0
M  V30 9043 H 870.927 3.78017 1.73904 0
M  V30 9044 H 869.803 4.78466 2.69002 0
M  V30 9045 H 870.064 3.10801 3.14413 0
M  V30 9046 N 869.123 -0.277682 1.55134 0
M  V30 9047 C 870.07 -1.34313 1.87693 0
M  V30 9048 C 871.04 -1.49298 0.727973 0
M  V30 9049 O 872.225 -1.6378 0.978807 0
M  V30 9050 C 869.365 -2.69922 2.15026 0
M  V30 9051 C 868.478 -2.63197 3.42565 0
M  V30 9052 C 867.613 -3.90955 3.59622 0
M  V30 9053 C 866.652 -3.78722 4.8087 0
M  V30 9054 N 865.789 -4.98303 4.94609 0
M  V30 9055 H 870.629 -1.05847 2.78569 0
M  V30 9056 H 868.166 -0.511469 1.37922 0
M  V30 9057 H 870.124 -3.48817 2.28872 0
M  V30 9058 H 868.754 -2.966 1.2739 0
M  V30 9059 H 867.806 -1.76038 3.37216 0
M  V30 9060 H 869.118 -2.50056 4.31594 0
M  V30 9061 H 868.272 -4.78291 3.7326 0
M  V30 9062 H 867.011 -4.06957 2.6877 0
M  V30 9063 H 866.016 -2.89769 4.67241 0
M  V30 9064 H 867.241 -3.64242 5.73153 0
M  V30 9065 H 865.187 -5.14725 4.06687 0
M  V30 9066 H 865.104 -4.87675 5.77676 0
M  V30 9067 H 866.372 -5.87225 5.12628 0
M  V30 9068 N 870.601 -1.47988 -0.541979 0
M  V30 9069 C 871.564 -1.61148 -1.62984 0
M  V30 9070 C 872.564 -0.48553 -1.53295 0
M  V30 9071 O 873.754 -0.751012 -1.5718 0
M  V30 9072 C 870.886 -1.57038 -3.02576 0
M  V30 9073 H 872.079 -2.58138 -1.52659 0
M  V30 9074 H 869.632 -1.36405 -0.763106 0
M  V30 9075 H 870.367 -0.614807 -3.18419 0
M  V30 9076 H 870.152 -2.38769 -3.11018 0
M  V30 9077 H 871.642 -1.69416 -3.81691 0
M  V30 9078 N 872.079 0.78992 -1.36375 0
M  V30 9079 C 873.026 1.90254 -1.3066 0
M  V30 9080 C 873.996 1.65171 -0.17539 0
M  V30 9081 O 875.181 1.87338 -0.361824 0
M  V30 9082 C 872.321 3.27057 -1.10125 0
M  V30 9083 C 871.434 3.64215 -2.32317 0
M  V30 9084 C 870.569 4.90134 -2.04798 0
M  V30 9085 C 869.608 5.19969 -3.22953 0
M  V30 9086 N 868.745 6.37071 -2.95102 0
M  V30 9087 H 873.585 1.94474 -2.25796 0
M  V30 9088 H 871.122 0.951022 -1.12223 0
M  V30 9089 H 873.08 4.05947 -0.962453 0
M  V30 9090 H 871.71 3.22261 -0.186444 0
M  V30 9091 H 870.762 2.80454 -2.57002 0
M  V30 9092 H 872.074 3.82212 -3.20492 0
M  V30 9093 H 871.228 5.76888 -1.87845 0
M  V30 9094 H 869.967 4.74205 -1.13932 0
M  V30 9095 H 868.972 4.31699 -3.40465 0
M  V30 9096 H 870.197 5.37817 -4.14644 0
M  V30 9097 H 868.143 6.22535 -2.06848 0
M  V30 9098 H 868.06 6.55398 -3.76815 0
M  V30 9099 H 869.328 7.26808 -2.81727 0
M  V30 9100 N 873.557 1.20646 1.01402 0
M  V30 9101 C 874.782 1.04462 1.79172 0
M  V30 9102 C 875.207 -0.401588 1.83763 0
M  V30 9103 O 874.565 -1.28934 1.27459 0
M  V30 9104 C 874.613 1.63583 3.21361 0
M  V30 9105 O 873.717 0.875198 4.03006 0
M  V30 9106 H 873.058 0.368235 0.552539 0
M  V30 9107 H 875.588 1.59994 1.27526 0
M  V30 9108 H 875.598 1.67426 3.72065 0
M  V30 9109 H 874.273 2.68835 3.17334 0
M  V30 9110 H 872.85 0.911172 3.61597 0
M  V30 9111 N 875.035 -1.20752 1.01276 0
M  V30 9112 C 875.983 -2.25432 0.572989 0
M  V30 9113 C 876.977 -1.64935 -0.386354 0
M  V30 9114 O 878.183 -1.7816 -0.256696 0
M  V30 9115 H 874.558 -0.733229 0.166972 0
M  V30 9116 H 876.529 -2.59856 1.46687 0
M  V30 9117 C 875.278 -3.47615 -0.0768249 0
M  V30 9118 H 874.601 -3.94442 0.652354 0
M  V30 9119 H 876.041 -4.22572 -0.3477 0
M  V30 9120 C 874.5 -3.1003 -1.31845 0
M  V30 9121 O 875.03 -3.21216 -2.41211 0
M  V30 9122 N 873.236 -2.64616 -1.20111 0
M  V30 9123 H 872.783 -2.55714 -0.311184 0
M  V30 9124 H 872.741 -2.39838 -2.03286 0
M  V30 9125 N 876.513 -0.788492 -1.36457 0
M  V30 9126 C 877.759 -0.360995 -1.99561 0
M  V30 9127 C 878.092 1.06433 -1.62437 0
M  V30 9128 O 877.367 1.7352 -0.878705 0
M  V30 9129 C 877.65 -0.523735 -3.56271 0
M  V30 9130 C 877.503 -1.99268 -4.03252 0
M  V30 9131 C 878.822 0.0617908 -4.40057 0
M  V30 9132 H 875.941 -0.13264 -0.724966 0
M  V30 9133 H 878.583 -0.994659 -1.61884 0
M  V30 9134 H 876.733 0.0156979 -3.88497 0
M  V30 9135 H 878.405 -2.59311 -3.81518 0
M  V30 9136 H 876.648 -2.49561 -3.54826 0
M  V30 9137 H 877.319 -2.05752 -5.12221 0
M  V30 9138 H 879.795 -0.398674 -4.14186 0
M  V30 9139 H 878.671 -0.0821089 -5.48839 0
M  V30 9140 H 878.932 1.15381 -4.26778 0
M  V30 9141 N 877.991 1.48044 -0.54043 0
M  V30 9142 C 879.268 1.95523 0.0547302 0
M  V30 9143 C 879.648 1.48284 1.5025 0
M  V30 9144 O 878.996 0.714037 2.17057 0
M  V30 9145 C 879.206 3.48923 -0.0733393 0
M  V30 9146 C 880.554 4.24523 0.0806026 0
M  V30 9147 O 881.578 3.562 -5.58687e-05 0
M  V30 9148 O 880.437 5.45922 0.251216 0
M  V30 9149 H 877.531 0.823728 0.073493 0
M  V30 9150 H 880.077 1.5852 -0.605768 0
M  V30 9151 H 878.849 3.76059 -1.08144 0
M  V30 9152 H 878.472 3.92648 0.625536 0
M  V30 9153 N 879.47 0.276058 1.55163 0
M  V30 9154 C 880.4 -0.604633 2.25536 0
M  V30 9155 C 881.381 -1.15813 1.24585 0
M  V30 9156 O 882.566 -1.1921 1.53306 0
M  V30 9157 C 879.696 -1.78836 2.97716 0
M  V30 9158 C 878.65 -1.36635 4.05604 0
M  V30 9159 C 877.976 -2.63325 4.65364 0
M  V30 9160 C 879.276 -0.515858 5.19746 0
M  V30 9161 H 880.97 -0.0177483 2.99395 0
M  V30 9162 H 878.516 -0.00709627 1.43998 0
M  V30 9163 H 880.469 -2.41036 3.45658 0
M  V30 9164 H 879.193 -2.40109 2.21394 0
M  V30 9165 H 877.852 -0.767541 3.58475 0
M  V30 9166 H 877.5 -3.22858 3.85709 0
M  V30 9167 H 877.2 -2.358 5.38212 0
M  V30 9168 H 878.724 -3.26372 5.16056 0
M  V30 9169 H 880.138 -1.04289 5.63735 0
M  V30 9170 H 878.535 -0.335449 5.99162 0
M  V30 9171 H 879.605 0.465137 4.82664 0
M  V30 9172 N 880.948 -1.576 0.00335426 0
M  V30 9173 C 882.364 -1.55653 -0.352766 0
M  V30 9174 C 882.564 -1.00632 -1.74572 0
M  V30 9175 O 881.62 -0.641621 -2.44212 0
M  V30 9176 C 882.933 -2.99858 -0.224929 0
M  V30 9177 C 884.481 -3.11563 -0.299619 0
M  V30 9178 C 884.956 -4.57559 -0.200868 0
M  V30 9179 N 886.447 -4.62477 -0.258663 0
M  V30 9180 C 887.182 -5.73031 -0.205644 0
M  V30 9181 N 886.678 -6.92723 -0.103027 0
M  V30 9182 N 888.471 -5.61509 -0.257754 0
M  V30 9183 H 880.622 -1.91703 0.914539 0
M  V30 9184 H 882.885 -0.88068 0.350865 0
M  V30 9185 H 882.591 -3.43964 0.733595 0
M  V30 9186 H 882.465 -3.63547 -1.00564 0
M  V30 9187 H 884.852 -2.67384 -1.24859 0
M  V30 9188 H 884.933 -2.50644 0.511025 0
M  V30 9189 H 884.577 -5.02413 0.744572 0
M  V30 9190 H 884.507 -5.16428 -1.03004 0
M  V30 9191 H 886.998 -3.76375 -0.339168 0
M  V30 9192 H 887.311 -7.7277 -0.0685593 0
M  V30 9193 H 885.656 -6.94966 -0.0686069 0
M  V30 9194 H 888.847 -4.66892 -0.336142 0
M  V30 9195 H 889.02 -6.4765 -0.21297 0
M  V30 9196 N 882.426 0.269451 -1.5528 0
M  V30 9197 C 883.842 0.616827 -1.47199 0
M  V30 9198 C 884.042 1.89354 -0.68901 0
M  V30 9199 O 883.098 2.51631 -0.209287 0
M  V30 9200 C 884.411 0.740492 -2.9144 0
M  V30 9201 C 885.959 0.834312 -3.01676 0
M  V30 9202 C 886.434 0.989725 -4.47178 0
M  V30 9203 N 887.925 1.05516 -4.51022 0
M  V30 9204 C 888.66 1.19427 -5.60825 0
M  V30 9205 N 888.156 1.30035 -6.80487 0
M  V30 9206 N 889.949 1.22566 -5.48575 0
M  V30 9207 H 882.1 -0.568962 -2.04638 0
M  V30 9208 H 884.363 -0.193153 -0.928114 0
M  V30 9209 H 884.069 -0.127234 -3.5147 0
M  V30 9210 H 883.943 1.61965 -3.40657 0
M  V30 9211 H 886.33 1.6925 -2.4174 0
M  V30 9212 H 886.411 -0.0695298 -2.55705 0
M  V30 9213 H 886.055 0.136179 -5.07717 0
M  V30 9214 H 885.985 1.90827 -4.90808 0
M  V30 9215 H 888.476 0.985434 -3.64825 0
M  V30 9216 H 888.789 1.40494 -7.59922 0
M  V30 9217 H 887.134 1.27033 -6.83292 0
M  V30 9218 H 890.325 1.13911 -4.54029 0
M  V30 9219 H 890.498 1.33063 -6.34191 0
M  V30 9220 N 883.904 1.48273 0.534124 0
M  V30 9221 C 885.129 1.59988 1.31979 0
M  V30 9222 C 885.554 0.258824 1.86311 0
M  V30 9223 O 884.912 -0.768885 1.64188 0
M  V30 9224 C 884.96 2.64642 2.44943 0
M  V30 9225 O 884.064 2.21515 3.47858 0
M  V30 9226 H 883.405 0.536625 0.391063 0
M  V30 9227 H 885.935 1.94229 0.643135 0
M  V30 9228 H 885.945 2.85786 2.91187 0
M  V30 9229 H 884.62 3.62004 2.04758 0
M  V30 9230 H 883.197 2.10567 3.0776 0
M  V30 9231 N 885.382 -0.782676 1.36792 0
M  V30 9232 C 886.312 -1.90973 1.34356 0
M  V30 9233 C 887.293 -1.6875 0.213917 0
M  V30 9234 O 888.478 -1.89766 0.412601 0
M  V30 9235 C 885.608 -3.28097 1.13884 0
M  V30 9236 C 884.562 -3.6486 2.23744 0
M  V30 9237 C 883.888 -5.00406 1.88408 0
M  V30 9238 C 885.188 -3.72742 3.6587 0
M  V30 9239 H 886.882 -1.93268 2.28665 0
M  V30 9240 H 884.428 -0.928447 1.10072 0
M  V30 9241 H 886.381 -4.06569 1.10813 0
M  V30 9242 H 885.105 -3.26206 0.160275 0
M  V30 9243 H 883.764 -2.88689 2.25952 0
M  V30 9244 H 883.412 -4.95044 0.891083 0
M  V30 9245 H 883.112 -5.25973 2.61966 0
M  V30 9246 H 884.636 -5.81291 1.86905 0
M  V30 9247 H 886.05 -4.4139 3.65852 0
M  V30 9248 H 884.447 -4.09798 4.38389 0
M  V30 9249 H 885.517 -2.73676 4.00287 0
M  V30 9250 N 886.86 -1.21182 -1.00761 0
M  V30 9251 C 888.09 -1.05182 -1.77821 0
M  V30 9252 C 888.498 0.401527 -1.8489 0
M  V30 9253 O 887.841 1.29042 -1.30743 0
M  V30 9254 C 887.903 -1.57066 -3.23374 0
M  V30 9255 C 887.567 -3.05491 -3.39889 0
M  V30 9256 C 888.564 -4.03065 -3.28381 0
M  V30 9257 C 886.249 -3.44641 -3.65415 0
M  V30 9258 C 888.243 -5.37778 -3.4216 0
M  V30 9259 C 885.93 -4.79507 -3.78836 0
M  V30 9260 C 886.928 -5.75884 -3.67214 0
M  V30 9261 O 886.616 -7.08304 -3.80212 0
M  V30 9262 H 886.348 -0.369983 -0.565763 0
M  V30 9263 H 888.902 -1.60914 -1.27655 0
M  V30 9264 H 887.132 -0.957273 -3.74664 0
M  V30 9265 H 888.821 -1.36949 -3.82099 0
M  V30 9266 H 889.587 -3.74163 -3.08588 0
M  V30 9267 H 885.466 -2.7016 -3.73544 0
M  V30 9268 H 889.01 -6.12987 -3.33005 0
M  V30 9269 H 884.907 -5.08096 -3.98132 0
M  V30 9270 H 885.675 -7.15677 -3.97175 0
M  V30 9271 N 888.338 1.20213 -1.01915 0
M  V30 9272 C 889.301 2.21307 -0.596327 0
M  V30 9273 C 890.301 1.57274 0.334879 0
M  V30 9274 O 891.491 1.73764 0.12322 0
M  V30 9275 C 888.623 3.40657 0.128808 0
M  V30 9276 H 889.816 2.60228 -1.49068 0
M  V30 9277 H 887.369 1.33721 -0.809226 0
M  V30 9278 H 888.104 3.07241 1.03796 0
M  V30 9279 H 887.889 3.88361 -0.540183 0
M  V30 9280 H 889.379 4.15564 0.411892 0
M  V30 9281 N 889.816 0.795718 1.36037 0
M  V30 9282 C 890.746 0.212803 2.32528 0
M  V30 9283 C 891.727 -0.655716 1.56953 0
M  V30 9284 O 892.912 -0.588238 1.85077 0
M  V30 9285 C 890.042 -0.648189 3.41198 0
M  V30 9286 C 888.996 0.120948 4.27829 0
M  V30 9287 C 888.322 -0.861044 5.27722 0
M  V30 9288 C 889.622 1.31375 5.05508 0
M  V30 9289 H 891.316 1.01893 2.81528 0
M  V30 9290 H 888.862 0.491422 1.35355 0
M  V30 9291 H 890.815 -1.06597 4.07695 0
M  V30 9292 H 889.539 -1.48709 2.9078 0
M  V30 9293 H 888.198 0.519777 3.62897 0
M  V30 9294 H 887.846 -1.69515 4.73575 0
M  V30 9295 H 887.546 -0.350808 5.86552 0
M  V30 9296 H 889.07 -1.27726 5.97092 0
M  V30 9297 H 890.484 0.971406 5.6501 0
M  V30 9298 H 888.881 1.75772 5.73781 0
M  V30 9299 H 889.951 2.10593 4.36782 0
M  V30 9300 N 891.294 -1.47756 0.548274 0
M  V30 9301 C 892.534 -2.04387 0.0231354 0
M  V30 9302 C 892.898 -1.41438 -1.29843 0
M  V30 9303 O 894.099 -1.89064 -1.91072 0
M  V30 9304 C 892.37 -3.57316 -0.077482 0
M  V30 9305 S 893.929 -4.35339 -0.550038 0
M  V30 9306 H 890.747 -0.710694 0.0208428 0
M  V30 9307 H 893.349 -1.81239 0.732984 0
M  V30 9308 H 892.053 -4.00658 0.88888 0
M  V30 9309 H 891.584 -3.84947 -0.811157 0
M  V30 9310 H 893.599 -4.61957 -1.81135 0
M  V30 9311 N 892.772 -0.284283 -1.55015 0
M  V30 9312 C 893.702 0.592663 -2.25853 0
M  V30 9313 C 894.683 1.15151 -1.25197 0
M  V30 9314 O 895.868 1.18395 -1.53936 0
M  V30 9315 C 892.998 1.77254 -2.98661 0
M  V30 9316 C 891.952 1.34482 -4.06323 0
M  V30 9317 C 891.278 2.60853 -4.66754 0
M  V30 9318 C 892.578 0.488288 -5.20013 0
M  V30 9319 H 894.272 0.00187041 -2.994 0
M  V30 9320 H 891.818 -0.000540402 -1.44 0
M  V30 9321 H 893.771 2.39199 -3.46932 0
M  V30 9322 H 892.495 2.38931 -2.22664 0
M  V30 9323 H 891.154 0.748519 -3.58877 0
M  V30 9324 H 890.802 3.20808 -3.87416 0
M  V30 9325 H 890.502 2.32942 -5.39455 0
M  V30 9326 H 892.026 3.23631 -5.1778 0
M  V30 9327 H 893.44 1.01298 -5.6428 0
M  V30 9328 H 891.837 0.303669 -5.99331 0
M  V30 9329 H 892.907 -0.490727 -4.8241 0
M  V30 9330 N 894.251 1.57596 -0.0117121 0
M  V30 9331 C 895.528 1.82323 0.708356 0
M  V30 9332 C 895.908 0.891947 1.91331 0
M  V30 9333 O 895.256 -0.0565984 2.2843 0
M  V30 9334 C 895.466 3.31111 1.10303 0
M  V30 9335 C 896.814 3.97147 1.50199 0
M  V30 9336 O 897.838 3.35503 1.1965 0
M  V30 9337 O 896.697 5.0576 2.07049 0
M  V30 9338 H 893.791 0.751173 0.345931 0
M  V30 9339 H 896.337 1.69657 -0.0380632 0
M  V30 9340 H 895.109 3.90534 0.24467 0
M  V30 9341 H 894.732 3.48818 1.90818 0
M  V30 9342 N 895.729 -0.261212 1.5542 0
M  V30 9343 C 896.957 -1.00916 1.8062 0
M  V30 9344 C 897.372 -1.79494 0.585444 0
M  V30 9345 O 896.729 -1.76974 -0.445702 0
M  V30 9346 C 896.78 -1.95841 3.03856 0
M  V30 9347 O 896.501 -1.20445 4.21218 0
M  V30 9348 C 898.002 -2.82352 3.41749 0
M  V30 9349 H 895.222 -0.297596 0.601397 0
M  V30 9350 H 897.766 -0.288427 2.02456 0
M  V30 9351 H 895.921 -2.63361 2.84112 0
M  V30 9352 H 896.335 -1.84528 4.90968 0
M  V30 9353 H 897.809 -3.44733 4.31118 0
M  V30 9354 H 898.286 -3.5273 2.61683 0
M  V30 9355 H 898.892 -2.20306 3.63793 0
M  V30 9356 N 897.207 -1.48554 -0.526253 0
M  V30 9357 C 898.432 -1.60686 -1.31129 0
M  V30 9358 C 898.857 -0.268701 -1.86171 0
M  V30 9359 O 898.215 0.760167 -1.64594 0
M  V30 9360 C 898.263 -2.65938 -2.43536 0
M  V30 9361 O 897.367 -2.23356 -3.46678 0
M  V30 9362 H 896.708 -0.538691 -0.388211 0
M  V30 9363 H 899.238 -1.94567 -0.632826 0
M  V30 9364 H 899.248 -2.87327 -2.89668 0
M  V30 9365 H 897.923 -3.63085 -2.02835 0
M  V30 9366 H 896.5 -2.12196 -3.06639 0
M  V30 9367 N 898.685 0.775411 -1.37205 0
M  V30 9368 C 900.101 1.07546 -1.17924 0
M  V30 9369 C 900.301 2.01496 -0.0128897 0
M  V30 9370 O 899.357 2.44039 0.64816 0
M  V30 9371 C 900.67 1.67647 -2.49629 0
M  V30 9372 C 902.218 1.79923 -2.56119 0
M  V30 9373 C 902.693 2.43438 -3.87946 0
M  V30 9374 N 904.184 2.50893 -3.89368 0
M  V30 9375 C 904.919 3.00881 -4.88117 0
M  V30 9376 N 904.415 3.5107 -5.97262 0
M  V30 9377 N 906.208 2.99722 -4.75524 0
M  V30 9378 H 898.359 0.151524 -2.11859 0
M  V30 9379 H 900.622 0.129845 -0.939066 0
M  V30 9380 H 900.328 1.06082 -3.3532 0
M  V30 9381 H 900.202 2.66988 -2.66453 0
M  V30 9382 H 902.589 2.40621 -1.70838 0
M  V30 9383 H 902.67 0.793482 -2.43182 0
M  V30 9384 H 902.314 1.8338 -4.73639 0
M  V30 9385 H 902.244 3.44611 -3.98184 0
M  V30 9386 H 904.735 2.1537 -3.10522 0
M  V30 9387 H 905.048 3.87604 -6.68568 0
M  V30 9388 H 903.393 3.49184 -6.00912 0
M  V30 9389 H 906.584 2.5981 -3.8938 0
M  V30 9390 H 906.757 3.38369 -5.52639 0
M  V30 9391 N 900.163 1.21714 1.00117 0
M  V30 9392 C 901.073 0.99597 2.12409 0
M  V30 9393 C 902.089 -0.0531431 1.73919 0
M  V30 9394 O 903.265 0.137757 2.00928 0
M  V30 9395 C 900.33 0.567593 3.42022 0
M  V30 9396 C 899.391 1.68936 3.94663 0
M  V30 9397 C 898.624 1.28133 5.1809 0
M  V30 9398 O 898.847 0.156574 5.70185 0
M  V30 9399 O 897.781 2.0947 5.64275 0
M  V30 9400 H 901.607 1.93657 2.33946 0
M  V30 9401 H 899.192 1.00236 1.10784 0
M  V30 9402 H 901.074 0.338664 4.20037 0
M  V30 9403 H 899.749 -0.34424 3.21864 0
M  V30 9404 H 898.656 1.97274 3.17858 0
M  V30 9405 H 899.989 2.57876 4.19238 0
M  V30 9406 N 901.641 -1.19671 1.02551 0
M  V30 9407 C 902.869 -1.93233 0.739513 0
M  V30 9408 C 903.284 -1.75298 -0.701158 0
M  V30 9409 O 902.641 -1.07269 -1.47647 0
M  V30 9410 C 902.692 -3.45085 1.07697 0
M  V30 9411 O 902.413 -3.62441 2.46106 0
M  V30 9412 C 903.914 -4.35776 0.813298 0
M  V30 9413 H 901.134 -0.613905 0.270853 0
M  V30 9414 H 903.678 -1.51909 1.36909 0
M  V30 9415 H 901.833 -3.84255 0.492635 0
M  V30 9416 H 902.247 -4.56337 2.58567 0
M  V30 9417 H 903.721 -5.40941 1.09941 0
M  V30 9418 H 904.198 -4.38474 -0.252359 0
M  V30 9419 H 904.804 -4.02282 1.38021 0
M  V30 9420 N 903.119 -0.802921 -1.35613 0
M  V30 9421 C 904.396 -0.304993 -1.93208 0
M  V30 9422 C 904.776 1.20488 -1.73337 0
M  V30 9423 O 904.124 2.00268 -1.10022 0
M  V30 9424 C 904.334 -0.712383 -3.41652 0
M  V30 9425 C 905.682 -0.699785 -4.18794 0
M  V30 9426 O 906.706 -0.653698 -3.5015 0
M  V30 9427 O 905.565 -0.754842 -5.41262 0
M  V30 9428 H 902.659 -0.0789127 -0.823226 0
M  V30 9429 H 905.205 -0.886372 -1.44712 0
M  V30 9430 H 903.977 -1.75316 -3.49829 0
M  V30 9431 H 903.6 -0.105614 -3.9746 0
M  V30 9432 N 904.597 1.47463 -0.556102 0
M  V30 9433 C 905.527 2.32801 0.180497 0
M  V30 9434 C 906.508 1.43721 0.909848 0
M  V30 9435 O 907.693 1.72578 0.89053 0
M  V30 9436 C 904.823 3.25478 1.21167 0
M  V30 9437 C 903.777 4.2379 0.598846 0
M  V30 9438 C 903.103 5.05783 1.73457 0
M  V30 9439 C 904.403 5.20387 -0.446659 0
M  V30 9440 H 906.097 2.94636 -0.531956 0
M  V30 9441 H 903.643 1.41683 -0.257267 0
M  V30 9442 H 905.596 3.8402 1.73513 0
M  V30 9443 H 904.32 2.61695 1.95405 0
M  V30 9444 H 902.979 3.66472 0.0966897 0
M  V30 9445 H 902.627 4.38405 2.46596 0
M  V30 9446 H 902.327 5.72343 1.33031 0
M  V30 9447 H 903.851 5.67183 2.26131 0
M  V30 9448 H 905.265 5.73299 -0.00930019 0
M  V30 9449 H 903.662 5.95143 -0.769735 0
M  V30 9450 H 904.732 4.65932 -1.34295 0
M  V30 9451 O 906.114 0.434534 1.55544 0
M  V30 9452 H 906.805 -0.099869 1.93442 0
M  V30 END ATOM
M  V30 BEGIN BOND
M  V30 END BOND
M  V30 END CTAB
M  END
$$$$
