drugbank_target|P9WPN5 Cytochrome P450 130 (DB07705; DB07971; DB07972)
 OpenBabel12092120463D

  0  0  0     0  0            999 V3000
M  V30 BEGIN CTAB
M  V30 COUNTS 6205 6281 0 0 0
M  V30 BEGIN ATOM
M  V30 1 H -0.908 1.98254 -0.117106 0
M  V30 2 N 0 1.576 0 0
M  V30 3 C 0.933 2.03868 1.02534 0
M  V30 4 C 1.911 0.928543 1.3348 0
M  V30 5 O 3.095 1.19667 1.45644 0
M  V30 6 C 0.222 2.43627 2.35294 0
M  V30 7 C -0.732 3.65373 2.2001 0
M  V30 8 S 0.101 5.13292 1.52614 0
M  V30 9 C 1.257 5.56322 2.86805 0
M  V30 10 H 1.49 2.90518 0.631377 0
M  V30 11 H -0.977 1.52953 0.210867 0
M  V30 12 H 0.981 2.67203 3.11629 0
M  V30 13 H -0.358 1.57376 2.7183 0
M  V30 14 H -1.165 3.90944 3.18086 0
M  V30 15 H -1.563 3.418 1.51819 0
M  V30 16 H 0.729 5.58782 3.83104 0
M  V30 17 H 1.672 6.56266 2.65933 0
M  V30 18 H 2.08 4.83886 2.90714 0
M  V30 19 N 1.4781 -0.272755 1.55222 0
M  V30 20 C 2.7061 -1.02255 1.79865 0
M  V30 21 C 3.1211 -1.79924 0.572088 0
M  V30 22 O 2.4781 -1.76638 -0.458842 0
M  V30 23 C 2.5291 -1.98094 3.02392 0
M  V30 24 O 2.2501 -1.23572 4.20311 0
M  V30 25 C 3.7511 -2.84884 3.39641 0
M  V30 26 H 0.9711 -0.302057 0.599168 0
M  V30 27 H 3.5151 -0.303465 2.02236 0
M  V30 28 H 1.6701 -2.65465 2.82147 0
M  V30 29 H 2.0841 -1.88172 4.89583 0
M  V30 30 H 3.5581 -3.47927 4.28545 0
M  V30 31 H 4.0351 -3.54665 2.59055 0
M  V30 32 H 4.6411 -2.23003 3.62146 0
M  V30 33 N 2.9562 -1.48159 -0.537278 0
M  V30 34 C 4.1812 -1.59707 -1.32319 0
M  V30 35 C 4.6062 -0.254859 -1.86365 0
M  V30 36 O 3.9642 0.772378 -1.64024 0
M  V30 37 C 4.0122 -2.6412 -2.45505 0
M  V30 38 O 3.1162 -2.20774 -3.48328 0
M  V30 39 H 2.4572 -0.535791 -0.392204 0
M  V30 40 H 4.9872 -1.94092 -0.647268 0
M  V30 41 H 4.9972 -2.85166 -2.91795 0
M  V30 42 H 3.6722 -3.61567 -2.05528 0
M  V30 43 H 2.2492 -2.09911 -3.08207 0
M  V30 44 N 4.4343 0.785586 -1.36625 0
M  V30 45 C 5.6803 1.54591 -1.31261 0
M  V30 46 C 6.0133 1.93906 0.106823 0
M  V30 47 O 5.2883 1.63007 1.06108 0
M  V30 48 C 5.5713 2.82038 -2.23889 0
M  V30 49 C 5.4243 2.49066 -3.74548 0
M  V30 50 C 6.7433 3.83887 -2.15217 0
M  V30 51 H 3.8623 0.560846 -0.478143 0
M  V30 52 H 6.5043 0.902278 -1.67209 0
M  V30 53 H 4.6543 3.36961 -1.93363 0
M  V30 54 H 6.3263 2.00164 -4.15611 0
M  V30 55 H 4.5693 1.81954 -3.93796 0
M  V30 56 H 5.2403 3.40109 -4.34776 0
M  V30 57 H 7.7163 3.38421 -2.42096 0
M  V30 58 H 6.5923 4.70806 -2.82193 0
M  V30 59 H 6.8533 4.27131 -1.14068 0
M  V30 60 N 5.9124 1.20967 1.01018 0
M  V30 61 C 6.8454 0.907578 2.09376 0
M  V30 62 C 7.8234 -0.142868 1.61971 0
M  V30 63 O 9.0074 -0.0150391 1.88494 0
M  V30 64 C 6.1344 0.361791 3.36762 0
M  V30 65 C 5.1804 1.39423 4.03068 0
M  V30 66 S 6.0134 2.96159 4.4615 0
M  V30 67 C 7.1694 2.43173 5.7673 0
M  V30 68 H 7.4024 1.82519 2.34678 0
M  V30 69 H 4.9354 1.03884 1.14225 0
M  V30 70 H 6.8934 0.0534523 4.10465 0
M  V30 71 H 5.5544 -0.53443 3.0952 0
M  V30 72 H 4.7474 0.961853 4.94737 0
M  V30 73 H 4.3494 1.65038 3.35617 0
M  V30 74 H 6.6414 1.83335 6.52223 0
M  V30 75 H 7.5844 3.33264 6.24773 0
M  V30 76 H 7.9924 1.85069 5.33301 0
M  V30 77 N 7.3905 -1.2043 1.01659 0
M  V30 78 C 8.6155 -1.94318 0.724942 0
M  V30 79 C 9.0405 -1.74266 -0.708034 0
M  V30 80 O 8.3985 -1.03694 -1.48719 0
M  V30 81 C 8.4465 -3.44486 1.06591 0
M  V30 82 O 7.5505 -4.12017 0.177599 0
M  V30 83 H 6.8915 -0.60708 0.26898 0
M  V30 84 H 9.4215 -1.52861 1.35995 0
M  V30 85 H 9.4315 -3.95106 1.01762 0
M  V30 86 H 8.1065 -3.58404 2.10997 0
M  V30 87 H 6.6835 -3.71821 0.283421 0
M  V30 88 N 8.8686 -0.792821 -1.36206 0
M  V30 89 C 9.8186 -0.166598 -2.27391 0
M  V30 90 C 10.8026 0.651479 -1.47121 0
M  V30 91 O 11.9946 0.510994 -1.69463 0
M  V30 92 C 9.1236 0.695033 -3.36191 0
M  V30 93 C 8.2096 -0.132019 -4.23894 0
M  V30 94 N 8.6006 -1.18822 -4.91645 0
M  V30 95 C 6.8986 0.0885952 -4.45912 0
M  V30 96 C 7.5996 -1.69198 -5.56549 0
M  V30 97 N 6.5756 -1.00065 -5.34311 0
M  V30 98 H 10.3776 -0.974947 -2.77258 0
M  V30 99 H 7.8916 -0.632616 -1.49572 0
M  V30 100 H 9.8886 1.1596 -4.00448 0
M  V30 101 H 8.5486 1.50189 -2.87877 0
M  V30 102 H 9.5596 -1.57069 -4.93507 0
M  V30 103 H 6.2366 0.865688 -4.08426 0
M  V30 104 H 7.6266 -2.57395 -6.20643 0
M  V30 105 N 10.3467 1.47872 -0.545128 0
M  V30 106 C 11.2567 2.33633 0.212746 0
M  V30 107 C 12.2727 1.4744 0.923983 0
M  V30 108 O 13.4487 1.80393 0.895572 0
M  V30 109 C 10.5137 3.23884 1.23693 0
M  V30 110 C 9.5747 4.25961 0.534417 0
M  V30 111 C 8.8077 5.11899 1.5098 0
M  V30 112 O 9.0307 5.00077 2.7437 0
M  V30 113 O 7.9647 5.92831 1.0409 0
M  V30 114 H 11.7907 2.99714 -0.490416 0
M  V30 115 H 9.3757 1.46235 -0.305871 0
M  V30 116 H 11.2577 3.79666 1.82843 0
M  V30 117 H 9.9327 2.60446 1.92222 0
M  V30 118 H 8.8397 3.73972 -0.0979679 0
M  V30 119 H 10.1727 4.92079 -0.109213 0
M  V30 120 N 11.8248 0.280983 1.55075 0
M  V30 121 C 13.0718 -0.334115 1.99725 0
M  V30 122 C 13.3998 -1.5542 1.1694 0
M  V30 123 O 12.6548 -1.94361 0.228531 0
M  V30 124 C 12.9538 -0.754656 3.49342 0
M  V30 125 C 12.6198 0.361445 4.49449 0
M  V30 126 C 11.2818 0.667893 4.76542 0
M  V30 127 C 13.6338 1.11322 5.09173 0
M  V30 128 C 10.9618 1.7296 5.60626 0
M  V30 129 C 13.3138 2.1647 5.9441 0
M  V30 130 C 11.9778 2.47742 6.19822 0
M  V30 131 H 11.2478 -0.122261 0.730844 0
M  V30 132 H 13.8948 0.395917 1.87363 0
M  V30 133 H 12.1998 -1.56446 3.5921 0
M  V30 134 H 13.8968 -1.24142 3.813 0
M  V30 135 H 10.4868 0.112481 4.28452 0
M  V30 136 H 14.6708 0.88973 4.8826 0
M  V30 137 H 9.9268 1.97684 5.78559 0
M  V30 138 H 14.1008 2.75193 6.3972 0
M  V30 139 H 11.7278 3.30145 6.84769 0
M  V30 140 N 13.3029 -1.57598 0.00835791 0
M  V30 141 C 14.2349 -2.05811 -1.00868 0
M  V30 142 C 15.2479 -0.977579 -1.30182 0
M  V30 143 O 16.4369 -1.25421 -1.27011 0
M  V30 144 C 13.5369 -2.45016 -2.34137 0
M  V30 145 C 12.7099 -3.75903 -2.23643 0
M  V30 146 C 11.7689 -4.01884 -3.3967 0
M  V30 147 O 10.7949 -4.72433 -3.17483 0
M  V30 148 N 11.9969 -3.50432 -4.62793 0
M  V30 149 H 14.7619 -2.93684 -0.597458 0
M  V30 150 H 12.3229 -1.60909 -0.178852 0
M  V30 151 H 14.3149 -2.59506 -3.10546 0
M  V30 152 H 12.8849 -1.62618 -2.66972 0
M  V30 153 H 12.1049 -3.7141 -1.32091 0
M  V30 154 H 13.3929 -4.61695 -2.13812 0
M  V30 155 H 12.7909 -2.93317 -4.83716 0
M  V30 156 H 11.3479 -3.70236 -5.3644 0
M  V30 157 N 14.781 0.264519 -1.55364 0
M  V30 158 C 15.711 1.33121 -1.91836 0
M  V30 159 C 16.692 1.51101 -0.781192 0
M  V30 160 O 17.877 1.64003 -1.04003 0
M  V30 161 C 15.007 2.68921 -2.19769 0
M  V30 162 C 13.961 2.65661 -3.35571 0
M  V30 163 C 13.287 4.05093 -3.49004 0
M  V30 164 C 14.587 2.24187 -4.71739 0
M  V30 165 H 16.281 1.02844 -2.81182 0
M  V30 166 H 13.827 0.493286 -1.35287 0
M  V30 167 H 15.78 3.43663 -2.43872 0
M  V30 168 H 14.504 3.00799 -1.27231 0
M  V30 169 H 13.163 1.93377 -3.1145 0
M  V30 170 H 12.811 4.34206 -2.53917 0
M  V30 171 H 12.511 4.03804 -4.26868 0
M  V30 172 H 14.035 4.81561 -3.75408 0
M  V30 173 H 15.449 2.88654 -4.9533 0
M  V30 174 H 13.846 2.34044 -5.52579 0
M  V30 175 H 14.916 1.19327 -4.69988 0
M  V30 176 N 16.2591 1.48442 0.529413 0
M  V30 177 C 17.2221 1.62524 1.61612 0
M  V30 178 C 18.2221 0.498509 1.52877 0
M  V30 179 O 19.4121 0.76431 1.56537 0
M  V30 180 C 16.5441 1.59597 3.01233 0
M  V30 181 H 17.7371 2.59423 1.50465 0
M  V30 182 H 15.2901 1.37047 0.751514 0
M  V30 183 H 16.0251 0.641781 3.17886 0
M  V30 184 H 15.8101 2.41397 3.08982 0
M  V30 185 H 17.3001 1.72646 3.80241 0
M  V30 186 N 17.7372 -0.778329 1.37039 0
M  V30 187 C 18.9652 -1.56734 1.35063 0
M  V30 188 C 19.3802 -1.88686 -0.0655597 0
M  V30 189 O 18.7372 -1.5096 -1.02554 0
M  V30 190 C 18.7882 -2.88163 2.18276 0
M  V30 191 O 18.5092 -2.57583 3.54376 0
M  V30 192 C 20.0102 -3.82422 2.24206 0
M  V30 193 H 17.2302 -0.485778 0.462883 0
M  V30 194 H 19.7742 -0.965185 1.8029 0
M  V30 195 H 17.9292 -3.44818 1.76576 0
M  V30 196 H 18.3432 -3.41699 3.97922 0
M  V30 197 H 19.8172 -4.71667 2.86765 0
M  V30 198 H 20.2942 -4.21078 1.24861 0
M  V30 199 H 20.9002 -3.31697 2.6619 0
M  V30 200 N 19.2153 -1.21501 -1.00376 0
M  V30 201 C 20.1783 -0.976927 -2.07337 0
M  V30 202 C 21.1783 0.0525322 -1.60714 0
M  V30 203 O 22.3683 -0.184869 -1.73216 0
M  V30 204 C 19.5003 -0.473423 -3.37597 0
M  V30 205 H 20.6933 -1.92587 -2.29892 0
M  V30 206 H 18.2463 -1.03217 -1.17371 0
M  V30 207 H 18.9813 0.480379 -3.20722 0
M  V30 208 H 18.7663 -1.216 -3.72768 0
M  V30 209 H 20.2563 -0.32675 -4.1632 0
M  V30 210 N 20.6934 1.19889 -1.02296 0
M  V30 211 C 21.6034 2.26571 -0.608508 0
M  V30 212 C 22.6194 1.70299 0.356964 0
M  V30 213 O 23.7954 2.00235 0.216326 0
M  V30 214 C 20.8604 3.46677 0.0402814 0
M  V30 215 C 19.9214 4.18153 -0.97194 0
M  V30 216 C 19.1544 5.32525 -0.354016 0
M  V30 217 O 19.3774 5.64112 0.844604 0
M  V30 218 O 18.3114 5.92242 -1.07391 0
M  V30 219 H 22.1374 2.64251 -1.49684 0
M  V30 220 H 19.7224 1.26629 -0.792809 0
M  V30 221 H 21.6044 4.19475 0.402324 0
M  V30 222 H 20.2794 3.10858 0.902707 0
M  V30 223 H 19.1864 3.47499 -1.38546 0
M  V30 224 H 20.5194 4.57927 -1.80454 0
M  V30 225 N 22.1715 0.800033 1.35784 0
M  V30 226 C 23.3995 0.389606 2.03199 0
M  V30 227 C 23.8145 -0.997375 1.60306 0
M  V30 228 O 23.1715 -1.64154 0.797481 0
M  V30 229 C 23.2225 0.455855 3.58614 0
M  V30 230 O 22.9435 1.78815 3.99946 0
M  V30 231 C 24.4445 0.0374032 4.43284 0
M  V30 232 H 21.6645 0.159132 0.651857 0
M  V30 233 H 24.2085 1.08183 1.73541 0
M  V30 234 H 22.3635 -0.188057 3.86943 0
M  V30 235 H 22.7775 1.74636 4.94573 0
M  V30 236 H 24.2515 0.134882 5.51835 0
M  V30 237 H 24.7285 -1.01651 4.27275 0
M  V30 238 H 25.3345 0.654215 4.20238 0
M  V30 239 N 23.6496 -1.47581 0.552962 0
M  V30 240 C 24.8956 -2.03369 0.0355807 0
M  V30 241 C 25.2506 -1.42016 -1.29805 0
M  V30 242 O 24.5436 -0.564917 -1.83083 0
M  V30 243 C 24.7376 -3.57199 -0.119728 0
M  V30 244 C 24.5666 -4.33468 1.1973 0
M  V30 245 C 23.3366 -4.7353 1.76345 0
M  V30 246 C 25.5346 -4.68866 2.11351 0
M  V30 247 N 23.5166 -5.34426 3.02097 0
M  V30 248 C 24.8876 -5.3002 3.21681 0
M  V30 249 C 26.9426 -4.50795 2.11397 0
M  V30 250 C 25.6456 -5.75011 4.32151 0
M  V30 251 C 27.6716 -4.96782 3.20876 0
M  V30 252 C 27.0336 -5.57981 4.29926 0
M  V30 253 H 23.1326 -0.780058 0.0550806 0
M  V30 254 H 25.7166 -1.80117 0.739315 0
M  V30 255 H 23.8876 -3.80227 -0.792579 0
M  V30 256 H 25.6196 -3.99627 -0.638792 0
M  V30 257 H 22.3746 -4.55352 1.30196 0
M  V30 258 H 22.7986 -5.69421 3.66182 0
M  V30 259 H 27.4406 -4.0284 1.28372 0
M  V30 260 H 25.1586 -6.21959 5.15938 0
M  V30 261 H 28.7446 -4.84573 3.21994 0
M  V30 262 H 27.6246 -5.92918 5.13243 0
M  V30 263 N 25.1277 -0.289203 -1.54924 0
M  V30 264 C 26.5387 0.205791 -1.85562 0
M  V30 265 C 26.8897 1.54351 -1.2112 0
M  V30 266 O 26.0147 2.10435 -0.504601 0
M  V30 267 C 26.6097 0.380177 -3.3666 0
M  V30 268 C 25.1687 0.819395 -3.67373 0
M  V30 269 C 24.3157 -0.079159 -2.77187 0
M  V30 270 H 27.2667 -0.510577 -1.50262 0
M  V30 271 H 27.2877 1.21659 -3.60526 0
M  V30 272 H 26.7997 -0.593589 -3.83534 0
M  V30 273 H 24.9007 1.80413 -3.26009 0
M  V30 274 H 25.0137 0.646957 -4.74712 0
M  V30 275 H 23.3777 0.439565 -2.50878 0
M  V30 276 H 24.1607 -1.04906 -3.26878 0
M  V30 277 N 26.6058 1.57591 -0.0167156 0
M  V30 278 C 27.5538 2.10604 0.987353 0
M  V30 279 C 28.5478 1.02977 1.34507 0
M  V30 280 O 29.7538 1.21425 1.32875 0
M  V30 281 H 26.1288 0.672695 0.336134 0
M  V30 282 H 28.0998 2.93925 0.514817 0
M  V30 283 C 26.8488 2.6382 2.26483 0
M  V30 284 H 26.1718 3.46278 1.99829 0
M  V30 285 H 27.6118 3.04573 2.94977 0
M  V30 286 C 26.0708 1.55992 2.9861 0
M  V30 287 O 26.6008 0.952521 3.90243 0
M  V30 288 N 24.8068 1.28335 2.60727 0
M  V30 289 H 24.3538 1.77914 1.86291 0
M  V30 290 H 24.3118 0.564115 3.09298 0
M  V30 291 N 28.0839 -0.256276 1.55502 0
M  V30 292 C 29.4949 -0.826068 1.67431 0
M  V30 293 C 29.8459 -1.86396 0.612446 0
M  V30 294 O 28.9709 -2.15031 -0.243025 0
M  V30 295 C 29.5659 -1.50512 3.03532 0
M  V30 296 C 28.1249 -2.02273 3.17431 0
M  V30 297 C 27.2719 -0.870548 2.63281 0
M  V30 298 H 30.2229 -0.0322728 1.58667 0
M  V30 299 H 30.2439 -2.37279 2.97454 0
M  V30 300 H 29.7559 -0.749484 3.80794 0
M  V30 301 H 27.8569 -2.80746 2.44974 0
M  V30 302 H 27.9699 -2.22655 4.24219 0
M  V30 303 H 26.3339 -1.26851 2.20864 0
M  V30 304 H 27.1169 -0.128149 3.43061 0
M  V30 305 N 29.562 -1.4872 -0.521534 0
M  V30 306 C 30.808 -1.58378 -1.27624 0
M  V30 307 C 31.163 -0.258028 -1.90662 0
M  V30 308 O 30.456 0.739917 -1.76736 0
M  V30 309 C 30.65 -2.66497 -2.38148 0
M  V30 310 C 30.479 -4.09456 -1.85945 0
M  V30 311 C 29.249 -4.76495 -1.68168 0
M  V30 312 C 31.447 -4.95353 -1.3831 0
M  V30 313 N 29.429 -6.0384 -1.1068 0
M  V30 314 C 30.8 -6.13012 -0.928238 0
M  V30 315 C 32.855 -4.81512 -1.26692 0
M  V30 316 C 31.558 -7.18354 -0.368701 0
M  V30 317 C 33.584 -5.86984 -0.721368 0
M  V30 318 C 32.946 -7.03857 -0.276623 0
M  V30 319 H 29.045 -0.634045 -0.457724 0
M  V30 320 H 31.629 -1.85639 -0.587049 0
M  V30 321 H 29.8 -2.41043 -3.04553 0
M  V30 322 H 31.532 -2.65791 -3.05184 0
M  V30 323 H 28.287 -4.32962 -1.91939 0
M  V30 324 H 28.711 -6.71778 -0.839217 0
M  V30 325 H 33.353 -3.91487 -1.5968 0
M  V30 326 H 31.071 -8.08096 -0.0265122 0
M  V30 327 H 34.657 -5.78329 -0.634531 0
M  V30 328 H 33.537 -7.84077 0.138947 0
M  V30 329 N 31.0401 0.771051 -1.3745 0
M  V30 330 C 32.4511 1.34737 -1.29239 0
M  V30 331 C 32.8021 1.96109 0.0596908 0
M  V30 332 O 31.9271 1.93865 0.961534 0
M  V30 333 C 32.5221 2.44973 -2.34037 0
M  V30 334 C 31.0811 2.98372 -2.29458 0
M  V30 335 C 30.2281 1.71595 -2.17831 0
M  V30 336 H 33.1791 0.571256 -1.48062 0
M  V30 337 H 33.2001 3.24471 -1.98744 0
M  V30 338 H 32.7121 2.00276 -3.32432 0
M  V30 339 H 30.8131 3.47443 -1.34589 0
M  V30 340 H 30.9261 3.53939 -3.229 0
M  V30 341 H 29.2901 1.94547 -1.64388 0
M  V30 342 H 30.0731 1.29001 -3.18141 0
M  V30 343 N 32.5182 1.22032 0.997298 0
M  V30 344 C 33.4512 0.929735 2.08401 0
M  V30 345 C 34.4292 -0.125681 1.62114 0
M  V30 346 O 35.6132 0.00495409 1.88499 0
M  V30 347 C 32.7402 0.397488 3.3636 0
M  V30 348 C 31.7862 1.4369 4.01566 0
M  V30 349 S 32.6192 3.00874 4.42984 0
M  V30 350 C 33.7752 2.49276 5.74119 0
M  V30 351 H 34.0082 1.84998 2.32729 0
M  V30 352 H 31.5412 1.0509 1.13117 0
M  V30 353 H 33.4992 0.0969846 4.10385 0
M  V30 354 H 32.1602 -0.501571 3.10069 0
M  V30 355 H 31.3532 1.01427 4.93689 0
M  V30 356 H 30.9552 1.68588 3.33847 0
M  V30 357 H 33.2472 1.90242 6.50242 0
M  V30 358 H 34.1902 3.39872 6.21203 0
M  V30 359 H 34.5982 1.90714 5.31308 0
M  V30 360 N 33.9963 -1.19345 1.0293 0
M  V30 361 C 35.2263 -1.92717 0.744563 0
M  V30 362 C 35.6343 -1.75751 -0.700579 0
M  V30 363 O 34.9773 -1.07703 -1.48815 0
M  V30 364 C 35.0393 -3.44828 1.01657 0
M  V30 365 C 34.7033 -3.85564 2.45335 0
M  V30 366 C 35.7003 -3.90286 3.43472 0
M  V30 367 C 33.3853 -4.1719 2.79746 0
M  V30 368 C 35.3793 -4.26065 4.74075 0
M  V30 369 C 33.0663 -4.52642 4.10559 0
M  V30 370 C 34.0643 -4.57054 5.07534 0
M  V30 371 O 33.7523 -4.91685 6.36004 0
M  V30 372 H 33.4843 -0.618977 0.271742 0
M  V30 373 H 36.0383 -1.52415 1.37691 0
M  V30 374 H 34.2683 -3.85314 0.327084 0
M  V30 375 H 35.9573 -3.99437 0.721427 0
M  V30 376 H 36.7233 -3.66002 3.18225 0
M  V30 377 H 32.6023 -4.1294 2.04943 0
M  V30 378 H 36.1463 -4.29423 5.49765 0
M  V30 379 H 32.0433 -4.76383 4.35579 0
M  V30 380 H 32.8113 -5.09631 6.40483 0
M  V30 381 N 35.4744 -0.807222 -1.35358 0
M  V30 382 C 36.8904 -0.491038 -1.51858 0
M  V30 383 C 37.0904 0.987648 -1.75635 0
M  V30 384 O 36.1464 1.77265 -1.79815 0
M  V30 385 C 37.4594 -1.33695 -2.69344 0
M  V30 386 C 39.0074 -1.33246 -2.83222 0
M  V30 387 C 39.4824 -2.1625 -4.03733 0
M  V30 388 N 40.9734 -2.1379 -4.10911 0
M  V30 389 C 41.7084 -2.74772 -5.03277 0
M  V30 390 N 41.2044 -3.44684 -6.0097 0
M  V30 391 N 42.9974 -2.6441 -4.96028 0
M  V30 392 H 35.1484 -1.76485 -1.18181 0
M  V30 393 H 37.4114 -0.751199 -0.578276 0
M  V30 394 H 37.1174 -2.38634 -2.58354 0
M  V30 395 H 36.9914 -0.990618 -3.6396 0
M  V30 396 H 39.3784 -0.290911 -2.93663 0
M  V30 397 H 39.4594 -1.71866 -1.89461 0
M  V30 398 H 39.1034 -3.20445 -3.94052 0
M  V30 399 H 39.0334 -1.74989 -4.96675 0
M  V30 400 H 41.5244 -1.62923 -3.40976 0
M  V30 401 H 41.8374 -3.88501 -6.68047 0
M  V30 402 H 40.1824 -3.48788 -6.01142 0
M  V30 403 H 43.3734 -2.0938 -4.18662 0
M  V30 404 H 43.5464 -3.12225 -5.6782 0
M  V30 405 N 36.9525 1.47285 -0.560781 0
M  V30 406 C 37.9155 2.28535 0.174488 0
M  V30 407 C 38.9155 1.37153 0.839388 0
M  V30 408 O 40.1055 1.59748 0.694702 0
M  V30 409 C 37.2375 3.16934 1.25561 0
M  V30 410 H 38.4305 2.95012 -0.539262 0
M  V30 411 H 35.9835 1.53034 -0.317865 0
M  V30 412 H 36.7185 2.55157 2.00164 0
M  V30 413 H 36.5035 3.8419 0.783604 0
M  V30 414 H 37.9935 3.78143 1.77193 0
M  V30 415 N 38.4306 0.297415 1.54768 0
M  V30 416 C 39.3606 -0.573494 2.26348 0
M  V30 417 C 40.3416 -1.14085 1.26169 0
M  V30 418 O 41.5266 -1.17086 1.54934 0
M  V30 419 C 38.6566 -1.74716 3.00153 0
M  V30 420 C 37.6106 -1.31032 4.07449 0
M  V30 421 C 36.9366 -2.56887 4.68949 0
M  V30 422 C 38.2366 -0.444183 5.20408 0
M  V30 423 H 39.9306 0.0235131 2.99391 0
M  V30 424 H 37.4766 0.0127488 1.43994 0
M  V30 425 H 39.4296 -2.3625 3.48947 0
M  V30 426 H 38.1536 -2.37035 2.24682 0
M  V30 427 H 36.8126 -0.718066 3.59499 0
M  V30 428 H 36.4606 -3.17512 3.90122 0
M  V30 429 H 36.1606 -2.2836 5.41411 0
M  V30 430 H 37.6846 -3.19229 5.20505 0
M  V30 431 H 39.0986 -0.9651 5.65118 0
M  V30 432 H 37.4956 -0.252846 5.99567 0
M  V30 433 H 38.5656 0.531609 4.81977 0
M  V30 434 N 39.9087 -1.5758 0.0250728 0
M  V30 435 C 41.3247 -1.56124 -0.331282 0
M  V30 436 C 41.5247 -1.03029 -1.73169 0
M  V30 437 O 40.5807 -0.675215 -2.43305 0
M  V30 438 C 41.8937 -3.00139 -0.183584 0
M  V30 439 C 43.4417 -3.11946 -0.256654 0
M  V30 440 C 43.9167 -4.57793 -0.137792 0
M  V30 441 N 45.4077 -4.6279 -0.194904 0
M  V30 442 C 46.1427 -5.7326 -0.126655 0
M  V30 443 N 45.6387 -6.928 -0.00755288 0
M  V30 444 N 47.4317 -5.61811 -0.180348 0
M  V30 445 H 39.5827 -1.90424 0.94087 0
M  V30 446 H 41.8457 -0.875761 0.362968 0
M  V30 447 H 41.5517 -3.4292 0.780927 0
M  V30 448 H 41.4257 -3.64899 -0.955448 0
M  V30 449 H 43.8127 -2.69079 -1.21162 0
M  V30 450 H 43.8937 -2.49915 0.545517 0
M  V30 451 H 43.5377 -5.01339 0.813739 0
M  V30 452 H 43.4677 -5.17798 -0.958775 0
M  V30 453 H 45.9587 -3.76807 -0.287267 0
M  V30 454 H 46.2717 -7.72791 0.0379428 0
M  V30 455 H 44.6167 -6.94995 0.0271731 0
M  V30 456 H 47.8077 -4.6731 -0.271767 0
M  V30 457 H 47.9807 -6.47882 -0.123697 0
M  V30 458 N 41.3868 0.248026 -1.55636 0
M  V30 459 C 42.6638 0.998988 -1.68165 0
M  V30 460 C 43.0438 2.03409 -0.564621 0
M  V30 461 O 42.3918 2.24378 0.432076 0
M  V30 462 C 42.6018 1.63334 -3.0842 0
M  V30 463 C 43.9498 2.13562 -3.66983 0
M  V30 464 O 44.9738 1.73277 -3.11213 0
M  V30 465 O 43.8328 2.87526 -4.64749 0
M  V30 466 H 40.9268 0.464933 -0.683935 0
M  V30 467 H 43.4728 0.241902 -1.67967 0
M  V30 468 H 42.2448 0.884583 -3.8117 0
M  V30 469 H 41.8678 2.45666 -3.12624 0
M  V30 470 N 42.8649 1.48995 0.513639 0
M  V30 471 C 43.8149 1.61127 1.61314 0
M  V30 472 C 44.7989 0.467521 1.53958 0
M  V30 473 O 45.9909 0.719826 1.61702 0
M  V30 474 C 43.1199 1.66937 2.99978 0
M  V30 475 C 42.2059 2.86847 3.12377 0
M  V30 476 N 42.5969 4.11078 2.94701 0
M  V30 477 C 40.8949 2.84521 3.43459 0
M  V30 478 C 41.5959 4.91615 3.10949 0
M  V30 479 N 40.5719 4.24739 3.3926 0
M  V30 480 H 44.3739 2.54909 1.46282 0
M  V30 481 H 41.8879 1.45593 0.719483 0
M  V30 482 H 43.8849 1.73725 3.78979 0
M  V30 483 H 42.5449 0.742831 3.16089 0
M  V30 484 H 43.5559 4.41258 2.71131 0
M  V30 485 H 40.2329 2.01192 3.65825 0
M  V30 486 H 41.6229 6.00264 3.01882 0
M  V30 487 N 44.343 -0.763751 1.37857 0
M  V30 488 C 45.62 -1.51244 1.24035 0
M  V30 489 C 46 -2.10472 -0.162649 0
M  V30 490 O 45.348 -1.96206 -1.17112 0
M  V30 491 C 45.558 -2.58694 2.34261 0
M  V30 492 C 46.906 -3.25878 2.72193 0
M  V30 493 O 47.93 -2.68993 2.33497 0
M  V30 494 O 46.789 -4.2874 3.38887 0
M  V30 495 H 43.883 -0.670243 0.484462 0
M  V30 496 H 46.429 -0.800031 1.49658 0
M  V30 497 H 45.201 -2.13105 3.2818 0
M  V30 498 H 44.824 -3.37527 2.10146 0
M  V30 499 N 45.8211 -1.22559 -0.990812 0
M  V30 500 C 47.2321 -1.04791 -1.54518 0
M  V30 501 C 47.5831 0.387998 -1.92325 0
M  V30 502 O 46.7081 1.27328 -1.74976 0
M  V30 503 C 47.3031 -1.896 -2.80779 0
M  V30 504 C 45.8621 -1.76124 -3.32652 0
M  V30 505 C 45.0091 -1.8594 -2.05722 0
M  V30 506 H 47.9601 -1.36374 -0.811662 0
M  V30 507 H 47.9811 -1.41464 -3.53225 0
M  V30 508 H 47.4931 -2.94101 -2.53231 0
M  V30 509 H 45.5941 -0.743643 -3.65104 0
M  V30 510 H 45.7071 -2.58913 -4.03114 0
M  V30 511 H 44.0711 -1.29403 -2.19379 0
M  V30 512 H 44.8541 -2.91976 -1.80568 0
M  V30 513 N 47.2992 1.18797 -1.03562 0
M  V30 514 C 48.5452 1.8893 -0.737113 0
M  V30 515 C 48.8782 1.79837 0.732956 0
M  V30 516 O 48.1532 1.19525 1.5344 0
M  V30 517 C 48.4362 3.39607 -1.19745 0
M  V30 518 C 48.2892 3.57537 -2.72924 0
M  V30 519 C 49.6082 4.33069 -0.783526 0
M  V30 520 H 46.7272 0.686057 -0.269249 0
M  V30 521 H 49.3692 1.39797 -1.28673 0
M  V30 522 H 47.5192 3.81583 -0.729855 0
M  V30 523 H 49.1912 3.24688 -3.27682 0
M  V30 524 H 47.4342 3.00363 -3.12993 0
M  V30 525 H 48.1052 4.63238 -3.00191 0
M  V30 526 H 50.5812 3.98846 -1.18581 0
M  V30 527 H 49.4572 5.3707 -1.13343 0
M  V30 528 H 49.7182 4.40986 0.313681 0
M  V30 529 N 48.7773 0.814389 1.34928 0
M  V30 530 C 49.7273 0.202752 2.27097 0
M  V30 531 C 50.7113 -0.62799 1.48139 0
M  V30 532 O 51.9033 -0.483969 1.70255 0
M  V30 533 C 49.0323 -0.64146 3.37254 0
M  V30 534 C 48.1183 0.19944 4.23631 0
M  V30 535 N 48.5093 1.26628 4.89693 0
M  V30 536 C 46.8073 -0.0176433 4.45997 0
M  V30 537 C 47.5083 1.78031 5.53787 0
M  V30 538 N 46.4843 1.08553 5.32651 0
M  V30 539 H 50.2863 1.01893 2.75672 0
M  V30 540 H 47.8003 0.656332 1.48546 0
M  V30 541 H 49.7973 -1.09575 4.02243 0
M  V30 542 H 48.4573 -1.4559 2.9023 0
M  V30 543 H 49.4683 1.64901 4.90946 0
M  V30 544 H 46.1453 -0.800601 4.09752 0
M  V30 545 H 47.5353 2.67236 6.16469 0
M  V30 546 N 50.2554 -1.46986 0.568584 0
M  V30 547 C 51.2054 -2.27179 -0.193339 0
M  V30 548 C 52.1894 -1.35035 -0.874895 0
M  V30 549 O 53.3814 -1.5931 -0.771322 0
M  V30 550 C 50.5104 -3.21063 -1.21546 0
M  V30 551 C 49.5964 -4.2069 -0.536738 0
M  V30 552 N 49.9874 -5.04218 0.399673 0
M  V30 553 C 48.2854 -4.38961 -0.789254 0
M  V30 554 C 48.9864 -5.76242 0.795017 0
M  V30 555 N 47.9624 -5.434 0.1473 0
M  V30 556 H 51.7644 -2.89146 0.526458 0
M  V30 557 H 49.2784 -1.57664 0.389342 0
M  V30 558 H 51.2754 -3.77209 -1.77536 0
M  V30 559 H 49.9354 -2.60654 -1.93623 0
M  V30 560 H 50.9464 -5.12077 0.774454 0
M  V30 561 H 47.6234 -3.89713 -1.49767 0
M  V30 562 H 49.0134 -6.53417 1.56513 0
M  V30 563 N 51.7335 -0.305618 -1.54608 0
M  V30 564 C 52.9795 0.302746 -2.00528 0
M  V30 565 C 53.3125 1.53184 -1.19367 0
M  V30 566 O 52.5875 1.92598 -0.271321 0
M  V30 567 C 52.8705 0.654756 -3.54097 0
M  V30 568 C 52.7235 -0.583793 -4.45995 0
M  V30 569 C 54.0425 1.47947 -4.14487 0
M  V30 570 H 51.1615 0.108564 -0.72896 0
M  V30 571 H 53.8035 -0.418634 -1.85331 0
M  V30 572 H 51.9535 1.26935 -3.67178 0
M  V30 573 H 53.6255 -1.22224 -4.44814 0
M  V30 574 H 51.8685 -1.21615 -4.16404 0
M  V30 575 H 52.5395 -0.293287 -5.5122 0
M  V30 576 H 55.0155 0.96013 -4.04871 0
M  V30 577 H 53.8915 1.69454 -5.22088 0
M  V30 578 H 54.1525 2.47011 -3.66658 0
M  V30 579 N 53.2116 1.57565 -0.0334293 0
M  V30 580 C 54.4576 1.92262 0.645226 0
M  V30 581 C 54.7906 0.910543 1.71531 0
M  V30 582 O 54.0656 -0.066099 1.94388 0
M  V30 583 C 54.3486 3.37422 1.2577 0
M  V30 584 C 54.2016 4.49369 0.196891 0
M  V30 585 C 55.5206 3.82628 2.17449 0
M  V30 586 H 52.6396 0.699171 0.233085 0
M  V30 587 H 55.2816 1.89779 -0.0915694 0
M  V30 588 H 53.4316 3.39669 1.88566 0
M  V30 589 H 55.1036 4.59254 -0.433962 0
M  V30 590 H 53.3466 4.31168 -0.477137 0
M  V30 591 H 54.0176 5.47978 0.665124 0
M  V30 592 H 56.4936 3.82145 1.64634 0
M  V30 593 H 55.3696 4.84883 2.57254 0
M  V30 594 H 55.6306 3.18376 3.0674 0
M  V30 595 N 54.6897 -0.239769 1.55765 0
M  V30 596 C 56.1007 -0.808263 1.68297 0
M  V30 597 C 56.4517 -1.85736 0.632181 0
M  V30 598 O 55.5767 -2.15277 -0.220204 0
M  V30 599 C 56.1717 -1.47284 3.05111 0
M  V30 600 C 54.7307 -1.98895 3.19559 0
M  V30 601 C 53.8777 -0.842575 2.64189 0
M  V30 602 H 56.8287 -0.0154422 1.58692 0
M  V30 603 H 56.8497 -2.34111 2.99954 0
M  V30 604 H 56.3617 -0.709053 3.81568 0
M  V30 605 H 54.4627 -2.78132 2.47938 0
M  V30 606 H 54.5757 -2.18143 4.26556 0
M  V30 607 H 52.9397 -1.24501 2.22197 0
M  V30 608 H 53.7227 -0.0917552 3.43177 0
M  V30 609 N 56.1678 -1.49265 -0.50573 0
M  V30 610 C 57.5788 -1.51769 -1.08734 0
M  V30 611 C 57.9298 -0.301192 -1.93874 0
M  V30 612 O 57.0548 0.589456 -2.08217 0
M  V30 613 C 57.6498 -2.75017 -1.97867 0
M  V30 614 C 56.2088 -2.80314 -2.51199 0
M  V30 615 C 55.3558 -2.4562 -1.28709 0
M  V30 616 H 58.3068 -1.56031 -0.289855 0
M  V30 617 H 58.3278 -2.5491 -2.82491 0
M  V30 618 H 57.8398 -3.63539 -1.35873 0
M  V30 619 H 55.9408 -1.96061 -3.16845 0
M  V30 620 H 56.0538 -3.82366 -2.88675 0
M  V30 621 H 54.4178 -1.97297 -1.61078 0
M  V30 622 H 55.2008 -3.36411 -0.6843 0
M  V30 623 N 57.6459 0.756429 -1.3826 0
M  V30 624 C 58.5779 1.87971 -1.31147 0
M  V30 625 C 59.5909 1.61248 -0.224239 0
M  V30 626 O 60.7799 1.71881 -0.481581 0
M  V30 627 C 57.8799 3.23545 -1.00857 0
M  V30 628 C 57.0529 3.77794 -2.20432 0
M  V30 629 C 56.1119 4.91877 -1.86931 0
M  V30 630 O 55.1379 5.06659 -2.59395 0
M  V30 631 N 56.3399 5.74643 -0.822568 0
M  V30 632 H 59.1049 1.94585 -2.2794 0
M  V30 633 H 56.6659 0.936234 -1.32084 0
M  V30 634 H 58.6579 3.97403 -0.765021 0
M  V30 635 H 57.2279 3.12335 -0.128687 0
M  V30 636 H 56.4479 2.95534 -2.6087 0
M  V30 637 H 57.7359 4.10771 -3.00241 0
M  V30 638 H 57.1339 5.65266 -0.221575 0
M  V30 639 H 55.6909 6.48661 -0.638899 0
M  V30 640 N 59.124 1.23083 0.984299 0
M  V30 641 C 60.54 0.992637 1.24975 0
M  V30 642 C 60.74 -0.308618 1.99123 0
M  V30 643 O 59.796 -1.02905 2.30579 0
M  V30 644 C 61.109 2.19698 2.05312 0
M  V30 645 C 62.657 2.24147 2.18465 0
M  V30 646 C 63.132 3.44157 3.02192 0
M  V30 647 N 64.623 3.44372 3.09777 0
M  V30 648 C 65.358 4.33886 3.74874 0
M  V30 649 N 64.854 5.3363 4.41827 0
M  V30 650 N 66.647 4.21639 3.71721 0
M  V30 651 H 58.798 2.06731 0.487453 0
M  V30 652 H 61.061 0.906339 0.277944 0
M  V30 653 H 60.767 3.1411 1.58201 0
M  V30 654 H 60.641 2.20465 3.06064 0
M  V30 655 H 63.028 1.30277 2.64786 0
M  V30 656 H 63.109 2.27415 1.17115 0
M  V30 657 H 62.753 4.38332 2.56568 0
M  V30 658 H 62.683 3.3813 4.03702 0
M  V30 659 H 65.174 2.72201 2.62135 0
M  V30 660 H 65.487 5.98196 4.89266 0
M  V30 661 H 63.832 5.37534 4.40548 0
M  V30 662 H 67.023 3.42962 3.18582 0
M  V30 663 H 67.196 4.91604 4.22173 0
M  V30 664 N 60.6021 -1.18246 1.0419 0
M  V30 665 C 62.0131 -1.69914 0.773698 0
M  V30 666 C 62.3641 -1.83085 -0.705297 0
M  V30 667 O 61.4891 -1.51123 -1.5489 0
M  V30 668 C 62.0841 -3.08619 1.39784 0
M  V30 669 C 60.6431 -3.57494 1.17792 0
M  V30 670 C 59.7901 -2.34013 1.48773 0
M  V30 671 H 62.7411 -1.02904 1.20816 0
M  V30 672 H 62.7621 -3.71958 0.801714 0
M  V30 673 H 62.2741 -2.99001 2.47426 0
M  V30 674 H 60.3751 -3.72406 0.120295 0
M  V30 675 H 60.4881 -4.40852 1.87581 0
M  V30 676 H 58.8521 -2.37986 0.907463 0
M  V30 677 H 59.6351 -2.27013 2.57527 0
M  V30 678 N 62.0802 -0.821533 -1.34494 0
M  V30 679 C 62.9902 -0.244355 -2.33324 0
M  V30 680 C 64.0062 0.620527 -1.62559 0
M  V30 681 O 65.1822 0.528754 -1.94335 0
M  V30 682 C 62.2472 0.585368 -3.41723 0
M  V30 683 C 61.3082 -0.301752 -4.28238 0
M  V30 684 C 60.5412 0.488466 -5.3146 0
M  V30 685 O 60.7642 1.72186 -5.4379 0
M  V30 686 O 59.6982 -0.12848 -6.01763 0
M  V30 687 H 63.5242 -1.06231 -2.84515 0
M  V30 688 H 61.1092 -0.583645 -1.37528 0
M  V30 689 H 62.9912 1.05747 -4.07916 0
M  V30 690 H 61.6662 1.38068 -2.92778 0
M  V30 691 H 60.5732 -0.821315 -3.64973 0
M  V30 692 H 61.9062 -1.06138 -4.8062 0
M  V30 693 N 63.5583 1.46682 -0.576371 0
M  V30 694 C 64.7883 2.06498 -0.0648694 0
M  V30 695 C 65.1963 1.42665 1.24271 0
M  V30 696 O 64.5393 0.523886 1.76071 0
M  V30 697 C 64.6013 3.5904 0.181816 0
M  V30 698 C 64.2653 4.45028 -1.0392 0
M  V30 699 C 65.2623 4.81959 -1.94966 0
M  V30 700 C 62.9473 4.86259 -1.25927 0
M  V30 701 C 64.9413 5.58942 -3.06371 0
M  V30 702 C 62.6283 5.63002 -2.37638 0
M  V30 703 C 63.6263 5.99257 -3.2769 0
M  V30 704 O 63.3143 6.7445 -4.37461 0
M  V30 705 H 63.0463 0.674028 -0.0515987 0
M  V30 706 H 65.6003 1.89393 -0.794951 0
M  V30 707 H 63.8303 3.74429 0.966436 0
M  V30 708 H 65.5193 4.00806 0.641047 0
M  V30 709 H 66.2853 4.50689 -1.79177 0
M  V30 710 H 62.1643 4.57494 -0.567448 0
M  V30 711 H 65.7083 5.87158 -3.76684 0
M  V30 712 H 61.6053 5.93686 -2.53392 0
M  V30 713 H 62.3733 6.92867 -4.35749 0
M  V30 714 N 65.0364 0.313813 1.54444 0
M  V30 715 C 66.3134 -0.345447 1.92525 0
M  V30 716 C 66.6934 -1.70667 1.24242 0
M  V30 717 O 66.0414 -2.25273 0.382654 0
M  V30 718 C 66.2514 -0.44737 3.46121 0
M  V30 719 C 67.5994 -0.712238 4.18584 0
M  V30 720 O 68.6234 -0.530678 3.52225 0
M  V30 721 O 67.4824 -1.06183 5.36085 0
M  V30 722 H 64.5764 -0.195407 0.803583 0
M  V30 723 H 67.1224 0.362813 1.65776 0
M  V30 724 H 65.8944 0.509043 3.87975 0
M  V30 725 H 65.5174 -1.20359 3.78945 0
M  V30 726 N 66.5145 -1.57545 0.0417849 0
M  V30 727 C 67.7445 -1.96339 -0.642995 0
M  V30 728 C 68.1525 -0.917536 -1.65463 0
M  V30 729 O 67.4955 0.107747 -1.83384 0
M  V30 730 C 67.5575 -3.31333 -1.39494 0
M  V30 731 C 67.2215 -4.53796 -0.540204 0
M  V30 732 C 68.2185 -5.19553 0.189806 0
M  V30 733 C 65.9035 -5.0006 -0.473886 0
M  V30 734 C 67.8975 -6.29904 0.974674 0
M  V30 735 C 65.5845 -6.10289 0.314677 0
M  V30 736 C 66.5825 -6.75072 1.03765 0
M  V30 737 O 66.2705 -7.83183 1.81327 0
M  V30 738 H 66.0025 -0.651241 -0.181277 0
M  V30 739 H 68.5565 -2.05148 0.101665 0
M  V30 740 H 66.7865 -3.19052 -2.18502 0
M  V30 741 H 68.4755 -3.54942 -1.96904 0
M  V30 742 H 69.2415 -4.84774 0.147981 0
M  V30 743 H 65.1205 -4.49433 -1.0262 0
M  V30 744 H 68.6645 -6.80401 1.5395 0
M  V30 745 H 64.5615 -6.44506 0.358174 0
M  V30 746 H 65.3295 -7.99913 1.73438 0
M  V30 747 N 67.9926 0.231505 -1.5589 0
M  V30 748 C 69.2226 0.973092 -1.82248 0
M  V30 749 C 69.6306 1.78845 -0.617328 0
M  V30 750 O 68.9736 1.78752 0.423499 0
M  V30 751 C 69.0356 1.94732 -3.02192 0
M  V30 752 C 68.6996 1.31743 -4.37599 0
M  V30 753 C 69.6966 0.712238 -5.14998 0
M  V30 754 C 67.3816 1.33218 -4.84312 0
M  V30 755 C 69.3756 0.130195 -6.37267 0
M  V30 756 C 67.0626 0.746286 -6.06526 0
M  V30 757 C 68.0606 0.146337 -6.82843 0
M  V30 758 O 67.7486 -0.430465 -8.02747 0
M  V30 759 H 67.4806 0.29125 -0.61004 0
M  V30 760 H 70.0346 0.254915 -2.03812 0
M  V30 761 H 68.2646 2.70422 -2.76422 0
M  V30 762 H 69.9536 2.55362 -3.15508 0
M  V30 763 H 70.7196 0.69324 -4.8002 0
M  V30 764 H 66.5986 1.78854 -4.24891 0
M  V30 765 H 70.1426 -0.33871 -6.96777 0
M  V30 766 H 66.0396 0.762663 -6.40979 0
M  V30 767 H 66.8076 -0.323818 -8.17859 0
M  V30 768 N 69.4707 1.49531 0.497807 0
M  V30 769 C 70.7167 1.59415 1.25358 0
M  V30 770 C 71.0497 0.281422 1.9215 0
M  V30 771 O 70.3247 -0.715249 1.80871 0
M  V30 772 C 70.6077 2.75566 2.3181 0
M  V30 773 C 70.4607 4.16642 1.69498 0
M  V30 774 C 71.7797 2.87347 3.33346 0
M  V30 775 H 68.8987 0.580244 0.454408 0
M  V30 776 H 71.5407 1.81827 0.551262 0
M  V30 777 H 69.6907 2.56587 2.91711 0
M  V30 778 H 71.3627 4.47145 1.13399 0
M  V30 779 H 69.6057 4.22141 0.998978 0
M  V30 780 H 70.2767 4.93792 2.46725 0
M  V30 781 H 72.7527 3.04634 2.83438 0
M  V30 782 H 71.6287 3.70289 4.05188 0
M  V30 783 H 71.8897 1.96834 3.95865 0
M  V30 784 N 70.9488 -0.749086 1.3866 0
M  V30 785 C 71.8788 -1.8764 1.38973 0
M  V30 786 C 72.8598 -1.68178 0.255004 0
M  V30 787 O 74.0448 -1.88704 0.458754 0
M  V30 788 C 71.1748 -3.25222 1.21851 0
M  V30 789 C 70.1288 -3.59295 2.32575 0
M  V30 790 C 69.4548 -4.95663 2.00555 0
M  V30 791 C 70.7548 -3.63709 3.7485 0
M  V30 792 H 72.4488 -1.87635 2.3331 0
M  V30 793 H 69.9948 -0.901329 1.12303 0
M  V30 794 H 71.9478 -4.03746 1.20695 0
M  V30 795 H 70.6718 -3.25719 0.239775 0
M  V30 796 H 69.3308 -2.83093 2.32925 0
M  V30 797 H 68.9788 -4.92724 1.01154 0
M  V30 798 H 68.6788 -5.19429 2.74714 0
M  V30 799 H 70.2028 -5.7656 2.01024 0
M  V30 800 H 71.6168 -4.32338 3.76506 0
M  V30 801 H 70.0138 -3.98986 4.48252 0
M  V30 802 H 71.0838 -2.63834 4.06841 0
M  V30 803 N 72.4269 -1.23603 -0.977757 0
M  V30 804 C 73.6519 -1.09735 -1.75991 0
M  V30 805 C 74.0769 0.346858 -1.84874 0
M  V30 806 O 73.4349 1.25093 -1.3123 0
M  V30 807 C 73.4829 -1.73051 -3.16363 0
M  V30 808 O 72.5869 -0.994452 -4.0023 0
M  V30 809 H 71.9279 -0.384476 -0.541364 0
M  V30 810 H 74.4579 -1.6371 -1.2272 0
M  V30 811 H 74.4679 -1.78398 -3.66931 0
M  V30 812 H 73.1429 -2.78137 -3.09213 0
M  V30 813 H 71.7199 -1.01812 -3.58732 0
M  V30 814 N 73.905 1.17692 -1.04816 0
M  V30 815 C 75.321 1.39863 -0.768794 0
M  V30 816 C 75.521 1.91118 0.638451 0
M  V30 817 O 74.577 2.10036 1.40146 0
M  V30 818 C 75.89 2.39274 -1.82122 0
M  V30 819 C 77.438 2.52987 -1.843 0
M  V30 820 C 77.913 3.55669 -2.88555 0
M  V30 821 N 79.404 3.63183 -2.87493 0
M  V30 822 C 80.139 4.42381 -3.64811 0
M  V30 823 N 79.635 5.25125 -4.51903 0
M  V30 824 N 81.428 4.37217 -3.53267 0
M  V30 825 H 73.579 0.82752 -1.95617 0
M  V30 826 H 75.842 0.426123 -0.846831 0
M  V30 827 H 75.548 2.08678 -2.83102 0
M  V30 828 H 75.422 3.38725 -1.65967 0
M  V30 829 H 77.809 2.82896 -0.839869 0
M  V30 830 H 77.89 1.53623 -2.04532 0
M  V30 831 H 77.534 3.26499 -3.89051 0
M  V30 832 H 77.464 4.54728 -2.65575 0
M  V30 833 H 79.955 3.04103 -2.24343 0
M  V30 834 H 80.268 5.82728 -5.07591 0
M  V30 835 H 78.613 5.24519 -4.55966 0
M  V30 836 H 81.804 3.71626 -2.84625 0
M  V30 837 H 81.977 4.98696 -4.13771 0
M  V30 838 N 75.3831 0.828654 1.34056 0
M  V30 839 C 76.3331 0.226828 2.26869 0
M  V30 840 C 77.3171 -0.612243 1.48796 0
M  V30 841 O 78.5091 -0.465884 1.70759 0
M  V30 842 C 75.6381 -0.605654 3.37915 0
M  V30 843 C 74.7241 0.244361 4.23395 0
M  V30 844 N 75.1151 1.31815 4.88322 0
M  V30 845 C 73.4131 0.0296616 4.4599 0
M  V30 846 C 74.1141 1.83895 5.51867 0
M  V30 847 N 73.0901 1.14196 5.3147 0
M  V30 848 H 76.8921 1.04811 2.74576 0
M  V30 849 H 74.4061 0.67205 1.47842 0
M  V30 850 H 76.4031 -1.05302 4.03382 0
M  V30 851 H 75.0631 -1.42504 2.91758 0
M  V30 852 H 76.0741 1.70099 4.8917 0
M  V30 853 H 72.7511 -0.757097 4.10578 0
M  V30 854 H 74.1411 2.7376 6.136 0
M  V30 855 N 76.8612 -1.46375 0.584142 0
M  V30 856 C 77.8242 -2.28784 -0.138108 0
M  V30 857 C 78.8242 -1.38471 -0.817462 0
M  V30 858 O 80.0142 -1.60833 -0.669199 0
M  V30 859 C 77.1462 -3.18892 -1.20503 0
M  V30 860 H 78.3392 -2.94117 0.586127 0
M  V30 861 H 75.8922 -1.52509 0.342171 0
M  V30 862 H 76.6272 -2.58309 -1.96079 0
M  V30 863 H 76.4122 -3.85388 -0.722384 0
M  V30 864 H 77.9022 -3.80914 -1.71155 0
M  V30 865 N 78.3393 -0.321999 -1.54275 0
M  V30 866 C 79.6163 0.335232 -1.92706 0
M  V30 867 C 79.9963 1.70006 -1.25145 0
M  V30 868 O 79.3443 2.25067 -0.394596 0
M  V30 869 C 79.5543 0.429008 -3.46353 0
M  V30 870 C 80.9023 0.690029 -4.18956 0
M  V30 871 O 81.9263 0.511992 -3.52501 0
M  V30 872 O 80.7853 1.03338 -5.36641 0
M  V30 873 H 77.8793 0.191143 -0.804608 0
M  V30 874 H 80.4253 -0.3716 -1.65581 0
M  V30 875 H 79.1973 -0.529611 -3.87699 0
M  V30 876 H 78.8203 1.18348 -3.79578 0
M  V30 877 N 79.8174 1.5752 -0.0501392 0
M  V30 878 C 81.0634 1.92936 0.624798 0
M  V30 879 C 81.3964 0.928685 1.70555 0
M  V30 880 O 80.6714 -0.0454779 1.94447 0
M  V30 881 C 80.9544 3.38737 1.22185 0
M  V30 882 C 80.8074 4.49552 0.149218 0
M  V30 883 C 82.1264 3.84913 2.13378 0
M  V30 884 H 79.2454 0.701604 0.225657 0
M  V30 885 H 81.8874 1.89671 -0.111693 0
M  V30 886 H 80.0374 3.4165 1.84953 0
M  V30 887 H 81.7094 4.58768 -0.482648 0
M  V30 888 H 79.9524 4.30638 -0.522841 0
M  V30 889 H 80.6234 5.48653 0.606966 0
M  V30 890 H 83.0994 3.8387 1.60572 0
M  V30 891 H 81.9754 4.87584 2.52097 0
M  V30 892 H 82.2364 3.21611 3.03346 0
M  V30 893 N 81.2955 -0.223234 1.56011 0
M  V30 894 C 82.5415 -0.944891 1.8012 0
M  V30 895 C 82.8965 -1.82039 0.622862 0
M  V30 896 O 82.1895 -1.8773 -0.383143 0
M  V30 897 C 82.3835 -1.81948 3.0762 0
M  V30 898 C 82.2125 -1.03014 4.37742 0
M  V30 899 C 80.9825 -0.72574 5.00061 0
M  V30 900 C 83.1805 -0.396256 5.12771 0
M  V30 901 N 81.1625 0.0851816 6.13841 0
M  V30 902 C 82.5335 0.278137 6.19376 0
M  V30 903 C 84.5885 -0.309117 4.9694 0
M  V30 904 C 83.2915 1.03133 7.11868 0
M  V30 905 C 85.3175 0.430607 5.8983 0
M  V30 906 C 84.6795 1.09355 6.9586 0
M  V30 907 H 80.7785 -0.326081 0.710771 0
M  V30 908 H 83.3625 -0.215914 1.93499 0
M  V30 909 H 81.5335 -2.52029 2.95527 0
M  V30 910 H 83.2655 -2.47848 3.19927 0
M  V30 911 H 80.0205 -1.04335 4.61964 0
M  V30 912 H 80.4445 0.479428 6.753 0
M  V30 913 H 85.0865 -0.807313 4.15021 0
M  V30 914 H 82.8045 1.54105 7.9327 0
M  V30 915 H 86.3905 0.499012 5.79656 0
M  V30 916 H 85.2705 1.65679 7.66499 0
M  V30 917 N 82.7736 -1.49793 -0.48987 0
M  V30 918 C 83.9986 -1.63836 -1.27172 0
M  V30 919 C 84.4236 -0.31402 -1.8546 0
M  V30 920 O 83.7816 0.719803 -1.66399 0
M  V30 921 C 83.8296 -2.71797 -2.36978 0
M  V30 922 O 82.9336 -2.31744 -3.41128 0
M  V30 923 H 82.2746 -0.547997 -0.37496 0
M  V30 924 H 84.8046 -1.96053 -0.585191 0
M  V30 925 H 84.8146 -2.94305 -2.82575 0
M  V30 926 H 83.4896 -3.67923 -1.93921 0
M  V30 927 H 82.0666 -2.1961 -3.01373 0
M  V30 928 N 84.2517 0.741722 -1.39055 0
M  V30 929 C 85.2147 1.83733 -1.37021 0
M  V30 930 C 86.2147 1.58542 -0.268534 0
M  V30 931 O 87.4047 1.66067 -0.526076 0
M  V30 932 C 84.5367 3.2141 -1.13617 0
M  V30 933 H 85.7297 1.86941 -2.34506 0
M  V30 934 H 83.2827 0.944676 -1.24521 0
M  V30 935 H 84.0177 3.23865 -0.167863 0
M  V30 936 H 83.8027 3.4109 -1.93391 0
M  V30 937 H 85.2927 4.01477 -1.14918 0
M  V30 938 N 85.7298 1.2412 0.971189 0
M  V30 939 C 86.6928 1.03156 2.04674 0
M  V30 940 C 87.6928 -0.00990322 1.60797 0
M  V30 941 O 88.8828 0.230729 1.72665 0
M  V30 942 C 86.0148 0.562765 3.36223 0
M  V30 943 H 87.2078 1.98614 2.24705 0
M  V30 944 H 84.7608 1.06293 1.14593 0
M  V30 945 H 85.4958 -0.395176 3.21883 0
M  V30 946 H 85.2808 1.31441 3.69413 0
M  V30 947 H 86.7708 0.437015 4.15307 0
M  V30 948 N 87.2079 -1.17134 1.05439 0
M  V30 949 C 88.6239 -1.39454 0.776201 0
M  V30 950 C 88.8239 -1.91454 -0.628307 0
M  V30 951 O 87.8799 -2.10777 -1.39031 0
M  V30 952 C 89.1929 -2.38305 1.83388 0
M  V30 953 C 90.7409 -2.52006 1.85639 0
M  V30 954 C 91.2159 -3.54133 2.90437 0
M  V30 955 N 92.7069 -3.61653 2.89415 0
M  V30 956 C 93.4419 -4.4044 3.67152 0
M  V30 957 N 92.9379 -5.22721 4.54681 0
M  V30 958 N 94.7309 -4.35337 3.55581 0
M  V30 959 H 86.8819 -0.817134 1.96053 0
M  V30 960 H 89.1449 -0.421626 0.849079 0
M  V30 961 H 88.8509 -2.07173 2.84204 0
M  V30 962 H 88.7249 -3.37841 1.67761 0
M  V30 963 H 91.1119 -2.82447 0.85486 0
M  V30 964 H 91.1929 -1.52537 2.05344 0
M  V30 965 H 90.8369 -3.24431 3.90777 0
M  V30 966 H 90.7669 -4.53313 2.67983 0
M  V30 967 H 93.2579 -3.02909 2.25952 0
M  V30 968 H 93.5709 -5.80027 5.10674 0
M  V30 969 H 91.9159 -5.22093 4.58741 0
M  V30 970 H 95.1069 -3.70112 2.86592 0
M  V30 971 H 95.2799 -4.96494 4.1641 0
M  V30 972 N 88.686 -0.835752 -1.33615 0
M  V30 973 C 89.963 -0.352017 -1.92406 0
M  V30 974 C 90.343 1.16225 -1.76224 0
M  V30 975 O 89.691 1.97526 -1.14873 0
M  V30 976 C 89.901 -0.795485 -3.39813 0
M  V30 977 C 91.249 -0.801703 -4.16963 0
M  V30 978 O 92.273 -0.738889 -3.48452 0
M  V30 979 O 91.132 -0.886607 -5.3926 0
M  V30 980 H 88.226 -0.0989641 -0.821057 0
M  V30 981 H 90.772 -0.921397 -1.42507 0
M  V30 982 H 89.544 -1.83795 -3.45449 0
M  V30 983 H 89.167 -0.202505 -3.97084 0
M  V30 984 N 90.1641 1.46063 -0.591896 0
M  V30 985 C 91.1141 2.27458 0.157172 0
M  V30 986 C 92.0981 1.3641 0.853301 0
M  V30 987 O 93.2901 1.60517 0.74588 0
M  V30 988 C 90.4191 3.22956 1.16423 0
M  V30 989 C 89.5051 4.2149 0.469742 0
M  V30 990 N 89.8961 5.03519 -0.479839 0
M  V30 991 C 88.1941 4.40161 0.719319 0
M  V30 992 C 88.8951 5.74904 -0.886591 0
M  V30 993 N 87.8711 5.43097 -0.233731 0
M  V30 994 H 91.6731 2.88272 -0.572392 0
M  V30 995 H 89.1871 1.57024 -0.414375 0
M  V30 996 H 91.1841 3.79986 1.71513 0
M  V30 997 H 89.8441 2.63701 1.89451 0
M  V30 998 H 90.8551 5.1078 -0.855823 0
M  V30 999 H 87.5321 3.92046 1.43548 0
M  V30 1000 H 88.9221 6.50844 -1.66888 0
M  V30 1001 N 91.6422 0.330177 1.54103 0
M  V30 1002 C 92.5742 -0.566902 2.22079 0
M  V30 1003 C 93.5872 -1.07462 1.22294 0
M  V30 1004 O 94.7762 -0.987065 1.48726 0
M  V30 1005 C 91.8762 -1.79138 2.87685 0
M  V30 1006 C 91.0492 -1.42123 4.13666 0
M  V30 1007 C 90.1082 -2.50394 4.62806 0
M  V30 1008 O 89.1342 -2.14261 5.27334 0
M  V30 1009 N 90.3362 -3.81433 4.37595 0
M  V30 1010 H 93.1012 0.0151844 2.99696 0
M  V30 1011 H 90.6622 0.153681 1.61169 0
M  V30 1012 H 92.6542 -2.50975 3.1748 0
M  V30 1013 H 91.2242 -2.28115 2.13734 0
M  V30 1014 H 90.4442 -0.534201 3.90564 0
M  V30 1015 H 91.7322 -1.14971 4.9564 0
M  V30 1016 H 91.1302 -4.13584 3.8596 0
M  V30 1017 H 89.6872 -4.4948 4.72029 0
M  V30 1018 N 93.1203 -1.57491 0.0584922 0
M  V30 1019 C 94.3483 -1.97296 -0.623037 0
M  V30 1020 C 94.7633 -0.936338 -1.63946 0
M  V30 1021 O 94.1203 0.0785981 -1.82331 0
M  V30 1022 C 94.1713 -3.37183 -1.30345 0
M  V30 1023 O 93.8923 -4.36872 -0.32773 0
M  V30 1024 C 95.3933 -3.91788 -2.07406 0
M  V30 1025 H 92.6133 -0.649153 -0.169826 0
M  V30 1026 H 95.1573 -2.04106 0.12696 0
M  V30 1027 H 93.3123 -3.31502 -2.00463 0
M  V30 1028 H 93.7263 -5.18141 -0.814269 0
M  V30 1029 H 95.2003 -4.91926 -2.50425 0
M  V30 1030 H 95.6773 -3.27609 -2.92521 0
M  V30 1031 H 96.2833 -4.00829 -1.42184 0
M  V30 1032 N 94.5984 0.214957 -1.56127 0
M  V30 1033 C 95.8454 0.938372 -1.79446 0
M  V30 1034 C 96.1734 1.8407 -0.628378 0
M  V30 1035 O 95.4284 1.91837 0.386925 0
M  V30 1036 C 95.7274 1.80314 -3.0858 0
M  V30 1037 C 95.3934 1.05349 -4.3842 0
M  V30 1038 C 94.0554 0.846435 -4.73697 0
M  V30 1039 C 96.4074 0.524588 -5.18553 0
M  V30 1040 C 93.7354 0.098683 -5.86617 0
M  V30 1041 C 96.0874 -0.209853 -6.32252 0
M  V30 1042 C 94.7514 -0.428102 -6.66126 0
M  V30 1043 H 94.0214 0.343375 -0.656639 0
M  V30 1044 H 96.6684 0.206077 -1.90388 0
M  V30 1045 H 94.9734 2.6035 -2.92789 0
M  V30 1046 H 96.6704 2.36513 -3.23825 0
M  V30 1047 H 93.2604 1.22486 -4.10725 0
M  V30 1048 H 97.4444 0.672008 -4.91729 0
M  V30 1049 H 92.7004 -0.0805753 -6.11347 0
M  V30 1050 H 96.8744 -0.627157 -6.9357 0
M  V30 1051 H 94.5014 -1.00944 -7.53468 0
M  V30 1052 N 96.0765 1.50051 0.48192 0
M  V30 1053 C 97.3015 1.64508 1.26301 0
M  V30 1054 C 97.7265 0.323851 1.85291 0
M  V30 1055 O 97.0845 -0.710969 1.66778 0
M  V30 1056 C 97.1325 2.7305 2.35533 0
M  V30 1057 O 96.2365 2.3355 3.39895 0
M  V30 1058 H 95.5775 0.549978 0.372048 0
M  V30 1059 H 98.1075 1.9636 0.574786 0
M  V30 1060 H 98.1175 2.95799 2.8101 0
M  V30 1061 H 96.7925 3.68946 1.91967 0
M  V30 1062 H 95.3695 2.21205 3.00204 0
M  V30 1063 N 97.5546 -0.734337 1.39446 0
M  V30 1064 C 98.7796 -1.52866 1.40167 0
M  V30 1065 C 99.2046 -1.881 -0.00171513 0
M  V30 1066 O 98.5626 -1.51957 -0.988879 0
M  V30 1067 C 98.6106 -2.79235 2.28167 0
M  V30 1068 O 97.7146 -3.75185 1.71201 0
M  V30 1069 H 97.0556 -0.461618 0.477289 0
M  V30 1070 H 99.5856 -0.905949 1.8345 0
M  V30 1071 H 99.5956 -3.27963 2.42702 0
M  V30 1072 H 98.2706 -2.52923 3.30156 0
M  V30 1073 H 96.8476 -3.33958 1.65912 0
M  V30 1074 N 99.0327 -1.24633 -0.964593 0
M  V30 1075 C 99.9957 -1.0424 -2.04124 0
M  V30 1076 C 100.996 0.00137563 -1.608 0
M  V30 1077 O 102.186 -0.239883 -1.7254 0
M  V30 1078 C 99.3177 -0.580588 -3.3592 0
M  V30 1079 H 100.511 -1.99803 -2.23649 0
M  V30 1080 H 98.0637 -1.06899 -1.14027 0
M  V30 1081 H 98.7987 0.3781 -3.22088 0
M  V30 1082 H 98.5837 -1.33398 -3.6871 0
M  V30 1083 H 100.074 -0.459034 -4.15069 0
M  V30 1084 N 100.511 1.16574 -1.06058 0
M  V30 1085 C 101.443 2.2045 -0.627239 0
M  V30 1086 C 102.456 1.59752 0.313534 0
M  V30 1087 O 103.645 1.78192 0.104896 0
M  V30 1088 C 100.745 3.3875 0.100974 0
M  V30 1089 C 99.9178 4.29008 -0.852687 0
M  V30 1090 C 98.9768 5.25944 -0.164152 0
M  V30 1091 O 98.0028 5.63535 -0.801047 0
M  V30 1092 N 99.2048 5.70075 1.09518 0
M  V30 1093 H 101.97 2.58249 -1.52077 0
M  V30 1094 H 99.5308 1.3156 -0.943594 0
M  V30 1095 H 101.523 4.00638 0.57194 0
M  V30 1096 H 100.093 2.99476 0.89628 0
M  V30 1097 H 99.3128 3.64419 -1.50308 0
M  V30 1098 H 100.601 4.86195 -1.49972 0
M  V30 1099 H 99.9988 5.41624 1.6328 0
M  V30 1100 H 98.5558 6.34067 1.51006 0
M  V30 1101 N 101.989 0.842826 1.3317 0
M  V30 1102 C 103.237 0.439577 1.97262 0
M  V30 1103 C 103.558 -1.00548 1.67078 0
M  V30 1104 O 102.828 -1.70098 0.971779 0
M  V30 1105 H 101.408 0.159558 0.72976 0
M  V30 1106 H 104.07 1.07665 1.62463 0
M  V30 1107 H 103.166 0.574886 3.0676 0
M  V30 1108 N 103.467 -1.45747 0.599634 0
M  V30 1109 C 104.397 -2.33235 -0.111306 0
M  V30 1110 C 105.378 -1.46359 -0.866781 0
M  V30 1111 O 106.563 -1.75146 -0.838904 0
M  V30 1112 C 103.693 -3.28932 -1.11451 0
M  V30 1113 C 102.647 -4.25381 -0.472772 0
M  V30 1114 C 101.973 -5.1071 -1.58365 0
M  V30 1115 C 103.273 -5.18831 0.600948 0
M  V30 1116 H 104.967 -2.92927 0.61919 0
M  V30 1117 H 102.513 -1.40857 0.299215 0
M  V30 1118 H 104.466 -3.89002 -1.62036 0
M  V30 1119 H 103.19 -2.67381 -1.8755 0
M  V30 1120 H 101.849 -3.66598 0.0121472 0
M  V30 1121 H 101.497 -4.45533 -2.33473 0
M  V30 1122 H 101.197 -5.7604 -1.15982 0
M  V30 1123 H 102.721 -5.73647 -2.09194 0
M  V30 1124 H 104.135 -5.73019 0.179491 0
M  V30 1125 H 102.532 -5.92595 0.946076 0
M  V30 1126 H 103.602 -4.6174 1.48068 0
M  V30 1127 N 104.945 -0.338344 -1.53925 0
M  V30 1128 C 106.173 0.261298 -2.05243 0
M  V30 1129 C 106.588 1.44625 -1.21363 0
M  V30 1130 O 105.945 1.80811 -0.247736 0
M  V30 1131 C 105.996 0.681412 -3.5502 0
M  V30 1132 O 105.717 -0.456414 -4.35716 0
M  V30 1133 C 107.218 1.34232 -4.22489 0
M  V30 1134 H 104.438 0.0513685 -0.669031 0
M  V30 1135 H 106.982 -0.488822 -1.98572 0
M  V30 1136 H 105.137 1.38148 -3.61931 0
M  V30 1137 H 105.551 -0.122564 -5.24357 0
M  V30 1138 H 107.025 1.58708 -5.28693 0
M  V30 1139 H 107.502 2.29426 -3.74514 0
M  V30 1140 H 108.108 0.684424 -4.19757 0
M  V30 1141 N 106.423 1.57458 -0.0668435 0
M  V30 1142 C 107.669 1.93587 0.6043 0
M  V30 1143 C 108.002 0.946722 1.69561 0
M  V30 1144 O 107.277 -0.0248516 1.94484 0
M  V30 1145 C 107.56 3.40014 1.18585 0
M  V30 1146 C 107.413 4.49685 0.101529 0
M  V30 1147 C 108.732 3.87154 2.09284 0
M  V30 1148 H 105.851 0.703958 0.218202 0
M  V30 1149 H 108.493 1.89542 -0.131804 0
M  V30 1150 H 106.643 3.43592 1.81319 0
M  V30 1151 H 108.315 4.5823 -0.531279 0
M  V30 1152 H 106.558 4.30059 -0.568487 0
M  V30 1153 H 107.229 5.49266 0.54874 0
M  V30 1154 H 109.705 3.85551 1.56491 0
M  V30 1155 H 108.581 4.90231 2.46911 0
M  V30 1156 H 108.842 3.2481 2.99918 0
M  V30 1157 N 107.901 -0.206675 1.56239 0
M  V30 1158 C 108.849 -1.27571 1.94495 0
M  V30 1159 C 109.843 -1.47737 0.828862 0
M  V30 1160 O 111.049 -1.48735 1.0138 0
M  V30 1161 H 107.424 -0.428029 0.6183 0
M  V30 1162 H 109.395 -0.925961 2.8367 0
M  V30 1163 C 108.144 -2.61568 2.29079 0
M  V30 1164 H 107.467 -2.46863 3.14482 0
M  V30 1165 H 108.907 -3.35144 2.5972 0
M  V30 1166 C 107.366 -3.17695 1.12123 0
M  V30 1167 O 107.896 -3.99801 0.390153 0
M  V30 1168 N 106.102 -2.76276 0.901097 0
M  V30 1169 H 105.649 -2.09613 1.49733 0
M  V30 1170 H 105.607 -3.1417 0.120319 0
M  V30 1171 N 109.379 -1.50304 -0.473955 0
M  V30 1172 C 110.609 -1.64663 -1.24778 0
M  V30 1173 C 111.017 -0.328174 -1.86332 0
M  V30 1174 O 110.36 0.699536 -1.69859 0
M  V30 1175 C 110.422 -2.6778 -2.39863 0
M  V30 1176 C 110.086 -4.11413 -1.98969 0
M  V30 1177 C 111.083 -4.97372 -1.51385 0
M  V30 1178 C 108.768 -4.57312 -2.07777 0
M  V30 1179 C 110.762 -6.27277 -1.13148 0
M  V30 1180 C 108.449 -5.87223 -1.69152 0
M  V30 1181 C 109.447 -6.72031 -1.21915 0
M  V30 1182 O 109.135 -7.99518 -0.838237 0
M  V30 1183 H 108.867 -0.556602 -0.383627 0
M  V30 1184 H 111.421 -1.9726 -0.572491 0
M  V30 1185 H 109.651 -2.30419 -3.10554 0
M  V30 1186 H 111.34 -2.71388 -3.01833 0
M  V30 1187 H 112.106 -4.63128 -1.44004 0
M  V30 1188 H 107.985 -3.91449 -2.43493 0
M  V30 1189 H 111.529 -6.93425 -0.762077 0
M  V30 1190 H 107.426 -6.20989 -1.76191 0
M  V30 1191 H 108.194 -8.12764 -0.967339 0
M  V30 1192 N 110.857 0.726932 -1.39834 0
M  V30 1193 C 112.105 1.4837 -1.37225 0
M  V30 1194 C 112.426 1.94979 0.0284857 0
M  V30 1195 O 111.696 1.69555 0.981213 0
M  V30 1196 H 110.276 0.55043 -0.505011 0
M  V30 1197 H 112.938 0.862468 -1.74778 0
M  V30 1198 H 112.034 2.36198 -2.04003 0
M  V30 1199 N 112.336 1.25143 0.95797 0
M  V30 1200 C 113.246 1.06968 2.08794 0
M  V30 1201 C 114.262 0.00773911 1.73998 0
M  V30 1202 O 115.438 0.207972 2.00323 0
M  V30 1203 C 112.503 0.68691 3.39827 0
M  V30 1204 C 111.564 1.82641 3.88511 0
M  V30 1205 C 110.797 1.46181 5.1329 0
M  V30 1206 O 111.02 0.355971 5.69288 0
M  V30 1207 O 109.954 2.29085 5.566 0
M  V30 1208 H 113.78 2.01723 2.27027 0
M  V30 1209 H 111.365 1.04051 1.07209 0
M  V30 1210 H 113.247 0.485417 4.18595 0
M  V30 1211 H 111.922 -0.231417 3.22872 0
M  V30 1212 H 110.829 2.08274 3.10762 0
M  V30 1213 H 112.162 2.72386 4.09959 0
M  V30 1214 N 113.814 -1.1601 1.06675 0
M  V30 1215 C 114.744 -2.22688 0.702307 0
M  V30 1216 C 115.725 -1.67306 -0.307032 0
M  V30 1217 O 116.91 -1.93352 -0.181305 0
M  V30 1218 C 114.04 -3.47178 0.092038 0
M  V30 1219 C 112.994 -4.15477 1.02777 0
M  V30 1220 C 112.32 -5.33963 0.28061 0
M  V30 1221 C 113.62 -4.66019 2.35846 0
M  V30 1222 H 115.314 -2.53429 1.59419 0
M  V30 1223 H 112.86 -1.21813 0.767961 0
M  V30 1224 H 114.813 -4.21037 -0.174814 0
M  V30 1225 H 113.537 -3.15749 -0.834877 0
M  V30 1226 H 112.196 -3.43549 1.27944 0
M  V30 1227 H 111.844 -4.98788 -0.649545 0
M  V30 1228 H 111.544 -5.806 0.904258 0
M  V30 1229 H 113.068 -6.10596 0.021396 0
M  V30 1230 H 114.482 -5.3144 2.15045 0
M  V30 1231 H 112.879 -5.23293 2.93743 0
M  V30 1232 H 113.949 -3.82023 2.98641 0
M  V30 1233 N 115.292 -0.849877 -1.32721 0
M  V30 1234 C 116.202 -0.293791 -2.32753 0
M  V30 1235 C 117.218 0.585906 -1.63839 0
M  V30 1236 O 118.394 0.487413 -1.95413 0
M  V30 1237 C 115.459 0.512752 -3.42887 0
M  V30 1238 C 114.52 -0.39252 -4.27502 0
M  V30 1239 C 113.753 0.375625 -5.32377 0
M  V30 1240 O 113.976 1.60613 -5.4732 0
M  V30 1241 O 112.91 -0.256094 -6.01355 0
M  V30 1242 H 116.736 -1.12242 -2.82197 0
M  V30 1243 H 114.321 -0.612685 -1.36259 0
M  V30 1244 H 116.203 0.970704 -4.10067 0
M  V30 1245 H 114.878 1.31826 -2.95641 0
M  V30 1246 H 113.785 -0.898547 -3.63149 0
M  V30 1247 H 115.118 -1.16309 -4.7826 0
M  V30 1248 N 116.77 1.45427 -0.607355 0
M  V30 1249 C 117.703 2.27635 0.160482 0
M  V30 1250 C 118.681 1.37122 0.873857 0
M  V30 1251 O 119.865 1.66551 0.882775 0
M  V30 1252 C 116.992 3.15486 1.23231 0
M  V30 1253 C 116.038 4.21939 0.622097 0
M  V30 1254 S 116.871 5.32459 -0.569852 0
M  V30 1255 C 118.027 6.23879 0.502577 0
M  V30 1256 H 118.26 2.9241 -0.536983 0
M  V30 1257 H 115.793 1.49265 -0.394868 0
M  V30 1258 H 117.751 3.66659 1.84585 0
M  V30 1259 H 116.412 2.49977 1.90185 0
M  V30 1260 H 115.605 4.8333 1.42856 0
M  V30 1261 H 115.207 3.73906 0.0837063 0
M  V30 1262 H 117.499 6.63261 1.38171 0
M  V30 1263 H 118.442 7.0806 -0.0751759 0
M  V30 1264 H 118.85 5.58545 0.8178 0
M  V30 1265 N 118.248 0.346503 1.53744 0
M  V30 1266 C 119.497 -0.250122 2.00143 0
M  V30 1267 C 119.81 -1.51418 1.23822 0
M  V30 1268 O 121.016 -2.18823 1.60713 0
M  V30 1269 C 119.472 -0.496252 3.56462 0
M  V30 1270 C 119.08 0.752077 4.41642 0
M  V30 1271 C 120.824 -1.05157 4.11269 0
M  V30 1272 C 118.731 0.476583 5.89477 0
M  V30 1273 H 117.661 -0.0972409 0.747703 0
M  V30 1274 H 120.312 0.46229 1.77581 0
M  V30 1275 H 118.694 -1.26944 3.75102 0
M  V30 1276 H 119.868 1.5266 4.34778 0
M  V30 1277 H 118.183 1.22925 3.97842 0
M  V30 1278 H 120.78 -1.27269 5.19333 0
M  V30 1279 H 121.123 -2.00799 3.64672 0
M  V30 1280 H 121.656 -0.339019 3.96353 0
M  V30 1281 H 118.395 1.4028 6.40314 0
M  V30 1282 H 117.915 -0.259794 5.99237 0
M  V30 1283 H 119.594 0.0949315 6.4693 0
M  V30 1284 N 119.726 -1.57421 0.075193 0
M  V30 1285 C 120.974 -1.93236 -0.591974 0
M  V30 1286 C 121.295 -0.956241 -1.69944 0
M  V30 1287 O 120.565 -0.00494792 -1.95899 0
M  V30 1288 H 119.145 -0.713355 -0.22166 0
M  V30 1289 H 121.807 -1.9444 0.133848 0
M  V30 1290 H 120.903 -2.95131 -1.01509 0
M  V30 1291 N 121.204 0.198386 -1.56346 0
M  V30 1292 C 122.134 1.24865 -1.9731 0
M  V30 1293 C 123.115 1.47651 -0.844576 0
M  V30 1294 O 124.3 1.59444 -1.10866 0
M  V30 1295 C 121.43 2.59358 -2.30977 0
M  V30 1296 C 120.384 2.5119 -3.46537 0
M  V30 1297 C 119.71 3.89926 -3.65871 0
M  V30 1298 C 121.01 2.03977 -4.80823 0
M  V30 1299 H 122.704 0.908252 -2.85291 0
M  V30 1300 H 120.25 0.435462 -1.37258 0
M  V30 1301 H 122.203 3.33011 -2.58228 0
M  V30 1302 H 120.927 2.95132 -1.39874 0
M  V30 1303 H 119.586 1.79993 -3.19371 0
M  V30 1304 H 119.234 4.23046 -2.72105 0
M  V30 1305 H 118.934 3.85336 -4.4361 0
M  V30 1306 H 120.458 4.65205 -3.95495 0
M  V30 1307 H 121.872 2.67386 -5.07127 0
M  V30 1308 H 120.269 2.10397 -5.62008 0
M  V30 1309 H 121.339 0.992861 -4.74626 0
M  V30 1310 N 122.682 1.50554 0.465978 0
M  V30 1311 C 123.632 1.66177 1.56106 0
M  V30 1312 C 124.616 0.516265 1.52393 0
M  V30 1313 O 125.808 0.770906 1.5933 0
M  V30 1314 C 122.937 1.76396 2.94515 0
M  V30 1315 C 122.023 2.9664 3.03093 0
M  V30 1316 N 122.414 4.20245 2.81474 0
M  V30 1317 C 120.712 2.95304 3.34233 0
M  V30 1318 C 121.413 5.01259 2.95151 0
M  V30 1319 N 120.389 4.35318 3.25576 0
M  V30 1320 H 124.191 2.59434 1.38099 0
M  V30 1321 H 121.705 1.47808 0.6728 0
M  V30 1322 H 123.702 1.85694 3.73261 0
M  V30 1323 H 122.362 0.843017 3.13565 0
M  V30 1324 H 123.373 4.4966 2.56956 0
M  V30 1325 H 120.05 2.12729 3.59239 0
M  V30 1326 H 121.44 6.09564 2.82632 0
M  V30 1327 N 124.16 -0.719506 1.40217 0
M  V30 1328 C 125.437 -1.47221 1.28784 0
M  V30 1329 C 125.817 -2.10883 -0.0956067 0
M  V30 1330 O 125.165 -1.99833 -1.10811 0
M  V30 1331 C 125.375 -2.5111 2.42373 0
M  V30 1332 C 126.723 -3.17053 2.82423 0
M  V30 1333 O 127.747 -2.61429 2.41937 0
M  V30 1334 O 126.606 -4.17742 3.52355 0
M  V30 1335 H 123.7 -0.654491 0.50554 0
M  V30 1336 H 126.246 -0.752014 1.52128 0
M  V30 1337 H 125.018 -2.02556 3.34793 0
M  V30 1338 H 124.641 -3.3067 2.20778 0
M  V30 1339 N 125.638 -1.25649 -0.95132 0
M  V30 1340 C 126.866 -1.13343 -1.73092 0
M  V30 1341 C 127.281 0.312434 -1.86197 0
M  V30 1342 O 126.638 1.21465 -1.36207 0
M  V30 1343 C 126.689 -1.78602 -3.14299 0
M  V30 1344 O 126.41 -3.17537 -3.01831 0
M  V30 1345 C 127.911 -1.72119 -4.08522 0
M  V30 1346 H 125.131 -0.395181 -0.542285 0
M  V30 1347 H 127.675 -1.66076 -1.19328 0
M  V30 1348 H 125.83 -1.29832 -3.64996 0
M  V30 1349 H 126.244 -3.49676 -3.90931 0
M  V30 1350 H 127.718 -2.22435 -5.052 0
M  V30 1351 H 128.195 -0.685635 -4.33815 0
M  V30 1352 H 128.801 -2.20393 -3.63741 0
M  V30 1353 N 127.117 1.15442 -1.07289 0
M  V30 1354 C 128.528 1.67803 -0.818475 0
M  V30 1355 C 128.879 1.8489 0.656507 0
M  V30 1356 O 128.004 1.55176 1.50829 0
M  V30 1357 C 128.599 3.04805 -1.47917 0
M  V30 1358 C 127.158 3.54245 -1.27229 0
M  V30 1359 C 126.305 2.29986 -1.54925 0
M  V30 1360 H 129.256 0.996646 -1.23502 0
M  V30 1361 H 129.277 3.69702 -0.90005 0
M  V30 1362 H 128.789 2.92336 -2.55267 0
M  V30 1363 H 126.89 3.71956 -0.21899 0
M  V30 1364 H 127.003 4.35723 -1.99203 0
M  V30 1365 H 125.367 2.35496 -0.970242 0
M  V30 1366 H 126.15 2.20105 -2.63455 0
M  V30 1367 N 128.595 0.856903 1.32268 0
M  V30 1368 C 130.006 0.515711 1.79436 0
M  V30 1369 C 130.357 -0.966586 1.70738 0
M  V30 1370 O 129.482 -1.75409 1.26731 0
M  V30 1371 C 130.077 0.929335 3.25805 0
M  V30 1372 C 128.636 0.640006 3.70919 0
M  V30 1373 C 127.783 1.12784 2.53328 0
M  V30 1374 H 130.734 1.04389 1.19535 0
M  V30 1375 H 130.755 0.246633 3.797 0
M  V30 1376 H 130.267 2.00821 3.32103 0
M  V30 1377 H 128.368 -0.428051 3.70133 0
M  V30 1378 H 128.481 1.20788 4.63624 0
M  V30 1379 H 126.845 0.548033 2.48734 0
M  V30 1380 H 127.628 2.21387 2.62379 0
M  V30 1381 N 130.073 -1.45103 0.615059 0
M  V30 1382 C 131.006 -2.27717 -0.148408 0
M  V30 1383 C 131.984 -1.37584 -0.866572 0
M  V30 1384 O 133.168 -1.67017 -0.87393 0
M  V30 1385 C 130.295 -3.16136 -1.21557 0
M  V30 1386 C 129.341 -4.22263 -0.599712 0
M  V30 1387 S 130.174 -5.3215 0.598081 0
M  V30 1388 C 131.33 -6.24137 -0.469484 0
M  V30 1389 H 131.563 -2.92121 0.552483 0
M  V30 1390 H 129.096 -1.49054 0.402778 0
M  V30 1391 H 131.054 -3.67633 -1.82638 0
M  V30 1392 H 129.715 -2.50982 -1.88857 0
M  V30 1393 H 128.908 -4.84081 -1.4029 0
M  V30 1394 H 128.51 -3.73945 -0.063876 0
M  V30 1395 H 130.802 -6.63984 -1.34652 0
M  V30 1396 H 131.745 -7.0801 0.112725 0
M  V30 1397 H 132.153 -5.58971 -0.788168 0
M  V30 1398 N 131.551 -0.354651 -1.53558 0
M  V30 1399 C 132.797 0.238797 -2.01389 0
M  V30 1400 C 133.13 1.49309 -1.2418 0
M  V30 1401 O 132.405 1.91638 -0.332457 0
M  V30 1402 C 132.688 0.541771 -3.56001 0
M  V30 1403 C 132.541 -0.725388 -4.43912 0
M  V30 1404 C 133.86 1.34685 -4.18984 0
M  V30 1405 H 130.979 0.0853177 -0.732045 0
M  V30 1406 H 133.621 -0.477384 -1.83905 0
M  V30 1407 H 131.771 1.15189 -3.71031 0
M  V30 1408 H 133.443 -1.36313 -4.407 0
M  V30 1409 H 131.686 -1.34801 -4.12324 0
M  V30 1410 H 132.357 -0.468505 -5.50008 0
M  V30 1411 H 134.833 0.830837 -4.07721 0
M  V30 1412 H 133.709 1.52759 -5.27215 0
M  V30 1413 H 133.97 2.35221 -3.74331 0
M  V30 1414 N 133.029 1.57378 -0.0835403 0
M  V30 1415 C 133.962 2.09016 0.915833 0
M  V30 1416 C 134.94 0.997993 1.2837 0
M  V30 1417 O 136.124 1.27219 1.39096 0
M  V30 1418 C 133.251 2.55757 2.22049 0
M  V30 1419 C 132.297 3.76522 2.00333 0
M  V30 1420 S 133.13 5.20661 1.25191 0
M  V30 1421 C 134.286 5.70743 2.56912 0
M  V30 1422 H 134.519 2.93457 0.476492 0
M  V30 1423 H 132.052 1.53856 0.129493 0
M  V30 1424 H 134.01 2.83346 2.97027 0
M  V30 1425 H 132.671 1.71564 2.63106 0
M  V30 1426 H 131.864 4.07256 2.96916 0
M  V30 1427 H 131.466 3.49367 1.33488 0
M  V30 1428 H 133.758 5.78304 3.52946 0
M  V30 1429 H 134.701 6.6944 2.30772 0
M  V30 1430 H 135.109 4.98616 2.64655 0
M  V30 1431 N 134.507 -0.190092 1.56449 0
M  V30 1432 C 135.439 -1.25973 1.91477 0
M  V30 1433 C 136.452 -1.41452 0.805931 0
M  V30 1434 O 137.641 -1.41789 1.08435 0
M  V30 1435 C 134.741 -2.63117 2.13594 0
M  V30 1436 C 133.914 -2.69182 3.4476 0
M  V30 1437 C 132.973 -3.87557 3.5593 0
M  V30 1438 O 131.999 -3.74427 4.28711 0
M  V30 1439 N 133.201 -5.03224 2.89388 0
M  V30 1440 H 135.966 -0.962394 2.83828 0
M  V30 1441 H 133.527 -0.379981 1.57378 0
M  V30 1442 H 135.519 -3.40742 2.1835 0
M  V30 1443 H 134.089 -2.85319 1.27719 0
M  V30 1444 H 133.309 -1.77793 3.51828 0
M  V30 1445 H 134.597 -2.70229 4.31107 0
M  V30 1446 H 133.995 -5.16791 2.30094 0
M  V30 1447 H 132.552 -5.78778 2.99764 0
M  V30 1448 N 135.985 -1.50799 -0.457987 0
M  V30 1449 C 137.262 -1.52968 -1.21902 0
M  V30 1450 C 137.642 -0.281906 -2.09209 0
M  V30 1451 O 136.99 0.734076 -2.16388 0
M  V30 1452 C 137.2 -2.8326 -2.03875 0
M  V30 1453 C 138.548 -3.34425 -2.6162 0
M  V30 1454 O 139.572 -2.8467 -2.14106 0
M  V30 1455 O 138.431 -4.21188 -3.48228 0
M  V30 1456 H 135.525 -0.614129 -0.553873 0
M  V30 1457 H 138.071 -1.63098 -0.468739 0
M  V30 1458 H 136.843 -3.65543 -1.39621 0
M  V30 1459 H 136.466 -2.76195 -2.8601 0
M  V30 1460 N 137.463 0.71206 -1.40597 0
M  V30 1461 C 138.874 1.29135 -1.34837 0
M  V30 1462 C 139.225 1.96186 -0.0235395 0
M  V30 1463 O 138.35 1.97768 0.878444 0
M  V30 1464 C 138.945 2.34827 -2.44217 0
M  V30 1465 C 137.504 2.88371 -2.41907 0
M  V30 1466 C 136.651 1.62202 -2.24913 0
M  V30 1467 H 139.602 0.507944 -1.50352 0
M  V30 1468 H 139.623 3.15749 -2.12327 0
M  V30 1469 H 139.135 1.85996 -3.40627 0
M  V30 1470 H 137.236 3.41422 -1.49204 0
M  V30 1471 H 137.349 3.39925 -3.37621 0
M  V30 1472 H 135.713 1.874 -1.72492 0
M  V30 1473 H 136.496 1.15391 -3.23326 0
M  V30 1474 N 138.941 1.26152 0.944643 0
M  V30 1475 C 140.352 1.10454 1.50522 0
M  V30 1476 C 140.703 -0.31635 1.93633 0
M  V30 1477 O 139.828 -1.20746 1.79581 0
M  V30 1478 C 140.423 1.99891 2.73549 0
M  V30 1479 C 138.982 1.88348 3.25886 0
M  V30 1480 C 138.129 1.93447 1.9868 0
M  V30 1481 H 141.08 1.39292 0.760489 0
M  V30 1482 H 141.101 1.54477 3.47732 0
M  V30 1483 H 140.613 3.03297 2.42141 0
M  V30 1484 H 138.714 0.878636 3.62092 0
M  V30 1485 H 138.827 2.73696 3.93227 0
M  V30 1486 H 137.191 1.37456 2.14425 0
M  V30 1487 H 137.974 2.98476 1.69607 0
M  V30 1488 N 140.419 -1.14872 1.07899 0
M  V30 1489 C 141.665 -1.86064 0.806725 0
M  V30 1490 C 141.998 -1.82434 -0.665706 0
M  V30 1491 O 141.273 -1.25138 -1.48899 0
M  V30 1492 C 141.556 -3.34929 1.32267 0
M  V30 1493 C 141.409 -3.47161 2.86006 0
M  V30 1494 C 142.728 -4.29863 0.943717 0
M  V30 1495 H 139.847 -0.675591 0.294526 0
M  V30 1496 H 142.489 -1.34925 1.33773 0
M  V30 1497 H 140.639 -3.78611 0.870974 0
M  V30 1498 H 142.311 -3.12302 3.39507 0
M  V30 1499 H 140.554 -2.88539 3.23925 0
M  V30 1500 H 141.225 -4.51777 3.17177 0
M  V30 1501 H 143.701 -3.9417 1.33302 0
M  V30 1502 H 142.577 -5.32494 1.33198 0
M  V30 1503 H 142.838 -4.41846 -0.149796 0
M  V30 1504 N 141.898 -0.863906 -1.31812 0
M  V30 1505 C 142.848 -0.286898 -2.26188 0
M  V30 1506 C 143.832 0.572577 -1.50367 0
M  V30 1507 O 145.024 0.420447 -1.71934 0
M  V30 1508 C 142.153 0.515849 -3.39402 0
M  V30 1509 C 141.239 -0.356531 -4.22599 0
M  V30 1510 N 141.63 -1.44716 -4.84656 0
M  V30 1511 C 139.928 -0.147898 -4.45755 0
M  V30 1512 C 140.629 -1.98462 -5.46798 0
M  V30 1513 N 139.605 -1.28247 -5.28255 0
M  V30 1514 H 143.407 -1.12055 -2.717 0
M  V30 1515 H 140.921 -0.711012 -1.46008 0
M  V30 1516 H 142.918 0.945701 -4.06032 0
M  V30 1517 H 141.578 1.34718 -2.95434 0
M  V30 1518 H 142.589 -1.83008 -4.84488 0
M  V30 1519 H 139.266 0.647973 -4.12441 0
M  V30 1520 H 140.656 -2.89932 -6.06126 0
M  V30 1521 N 143.376 1.44774 -0.622745 0
M  V30 1522 C 144.604 2.06487 -0.130722 0
M  V30 1523 C 145.019 1.46476 1.19123 0
M  V30 1524 O 144.376 0.584502 1.72887 0
M  V30 1525 C 144.427 3.615 -0.000807207 0
M  V30 1526 O 144.148 4.19274 -1.27048 0
M  V30 1527 C 145.649 4.40229 0.520898 0
M  V30 1528 H 142.869 0.666704 -0.0758106 0
M  V30 1529 H 145.413 1.85779 -0.854774 0
M  V30 1530 H 143.568 3.81498 0.673643 0
M  V30 1531 H 143.982 5.12622 -1.1099 0
M  V30 1532 H 145.456 5.49144 0.560838 0
M  V30 1533 H 145.933 4.1108 1.54627 0
M  V30 1534 H 146.539 4.25131 -0.120018 0
M  V30 1535 N 144.854 0.36279 1.53368 0
M  V30 1536 C 145.764 -0.492994 2.29362 0
M  V30 1537 C 146.78 -1.09507 1.35219 0
M  V30 1538 O 147.956 -1.10662 1.68273 0
M  V30 1539 C 145.021 -1.61855 3.066 0
M  V30 1540 C 144.082 -1.04429 4.16405 0
M  V30 1541 C 143.315 -2.11621 4.89951 0
M  V30 1542 O 143.538 -3.32684 4.63333 0
M  V30 1543 O 142.472 -1.74835 5.75948 0
M  V30 1544 H 146.298 0.125331 3.03441 0
M  V30 1545 H 143.883 0.127253 1.48857 0
M  V30 1546 H 145.765 -2.27302 3.54841 0
M  V30 1547 H 144.44 -2.22233 2.3536 0
M  V30 1548 H 143.347 -0.353819 3.72423 0
M  V30 1549 H 144.68 -0.485113 4.89804 0
M  V30 1550 N 146.332 -1.57332 0.0918853 0
M  V30 1551 C 147.579 -1.94236 -0.572577 0
M  V30 1552 C 147.907 -0.973398 -1.6839 0
M  V30 1553 O 147.162 0.00756912 -1.95699 0
M  V30 1554 C 147.461 -3.37689 -1.17051 0
M  V30 1555 C 147.127 -4.50527 -0.183304 0
M  V30 1556 C 145.789 -4.81119 0.0882276 0
M  V30 1557 C 148.141 -5.18883 0.49095 0
M  V30 1558 C 145.469 -5.77395 1.04076 0
M  V30 1559 C 147.821 -6.1618 1.43193 0
M  V30 1560 C 146.485 -6.45179 1.71173 0
M  V30 1561 H 145.755 -0.710762 -0.209521 0
M  V30 1562 H 148.402 -1.9077 0.167036 0
M  V30 1563 H 146.707 -3.37718 -1.9863 0
M  V30 1564 H 148.404 -3.63543 -1.69227 0
M  V30 1565 H 144.994 -4.26681 -0.405124 0
M  V30 1566 H 149.178 -4.95427 0.294312 0
M  V30 1567 H 144.434 -5.98179 1.26457 0
M  V30 1568 H 148.608 -6.68243 1.96023 0
M  V30 1569 H 146.235 -7.1959 2.4514 0
M  V30 1570 N 147.81 0.181792 -1.56548 0
M  V30 1571 C 149.226 0.53316 -1.50431 0
M  V30 1572 C 149.426 1.85184 -0.794297 0
M  V30 1573 O 148.482 2.50058 -0.350318 0
M  V30 1574 C 149.795 0.575597 -2.9514 0
M  V30 1575 C 151.343 0.663519 -3.05886 0
M  V30 1576 C 151.818 0.736946 -4.52032 0
M  V30 1577 N 153.309 0.800118 -4.56237 0
M  V30 1578 C 154.044 0.877327 -5.66649 0
M  V30 1579 N 153.54 0.916016 -6.86718 0
M  V30 1580 N 155.333 0.915542 -5.54594 0
M  V30 1581 H 147.484 -0.683025 -2.01118 0
M  V30 1582 H 149.747 -0.244988 -0.915797 0
M  V30 1583 H 149.453 -0.324482 -3.502 0
M  V30 1584 H 149.327 1.42572 -3.49218 0
M  V30 1585 H 151.714 1.55403 -2.50867 0
M  V30 1586 H 151.795 -0.21307 -2.54911 0
M  V30 1587 H 151.439 -0.149262 -5.07681 0
M  V30 1588 H 151.369 1.62953 -5.00753 0
M  V30 1589 H 153.86 0.778926 -3.69785 0
M  V30 1590 H 154.173 0.975813 -7.66614 0
M  V30 1591 H 152.518 0.884469 -6.89349 0
M  V30 1592 H 155.709 0.882245 -4.59711 0
M  V30 1593 H 155.882 0.972253 -6.40665 0
M  V30 1594 N 149.288 1.51039 0.449983 0
M  V30 1595 C 150.235 1.71439 1.54523 0
M  V30 1596 C 151.205 0.555871 1.56522 0
M  V30 1597 O 152.39 0.788871 1.73728 0
M  V30 1598 C 149.53 1.83384 2.92343 0
M  V30 1599 C 148.643 3.10873 2.9997 0
M  V30 1600 C 147.778 3.13488 4.28834 0
M  V30 1601 C 146.817 4.35343 4.30282 0
M  V30 1602 N 145.954 4.35579 5.5065 0
M  V30 1603 H 150.794 2.64934 1.36433 0
M  V30 1604 H 148.331 1.31312 0.662982 0
M  V30 1605 H 150.289 1.88291 3.72293 0
M  V30 1606 H 148.919 0.933086 3.0902 0
M  V30 1607 H 147.971 3.15336 2.12761 0
M  V30 1608 H 149.283 4.00814 2.96901 0
M  V30 1609 H 148.437 3.17241 5.17149 0
M  V30 1610 H 147.176 2.21414 4.34543 0
M  V30 1611 H 146.181 4.3178 3.40362 0
M  V30 1612 H 147.406 5.28668 4.26248 0
M  V30 1613 H 145.352 3.46369 5.57104 0
M  V30 1614 H 145.269 5.19313 5.49409 0
M  V30 1615 H 146.537 4.43507 6.41032 0
M  V30 1616 N 150.766 -0.704594 1.40972 0
M  V30 1617 C 151.696 -1.83124 1.44872 0
M  V30 1618 C 152.677 -1.67281 0.30838 0
M  V30 1619 O 153.862 -1.87149 0.518556 0
M  V30 1620 C 150.992 -3.21181 1.32136 0
M  V30 1621 C 149.946 -3.51714 2.43888 0
M  V30 1622 C 149.272 -4.89032 2.16222 0
M  V30 1623 C 150.572 -3.516 3.86232 0
M  V30 1624 H 152.266 -1.80117 2.39161 0
M  V30 1625 H 149.812 -0.865145 1.15114 0
M  V30 1626 H 151.765 -3.99702 1.33479 0
M  V30 1627 H 150.489 -3.24791 0.343279 0
M  V30 1628 H 149.148 -2.75539 2.41813 0
M  V30 1629 H 148.796 -4.89256 1.16778 0
M  V30 1630 H 148.496 -5.10426 2.911 0
M  V30 1631 H 150.02 -5.69873 2.19265 0
M  V30 1632 H 151.434 -4.2014 3.9007 0
M  V30 1633 H 149.831 -3.84523 4.60719 0
M  V30 1634 H 150.901 -2.50757 4.15029 0
M  V30 1635 N 152.244 -1.26651 -0.937939 0
M  V30 1636 C 153.49 -1.12553 -1.687 0
M  V30 1637 C 153.823 0.329782 -1.91379 0
M  V30 1638 O 153.098 1.24202 -1.4968 0
M  V30 1639 C 153.381 -1.89862 -3.05981 0
M  V30 1640 C 153.234 -3.43318 -2.90607 0
M  V30 1641 C 154.553 -1.69499 -4.0615 0
M  V30 1642 H 151.672 -0.410257 -0.612257 0
M  V30 1643 H 154.314 -1.55685 -1.08913 0
M  V30 1644 H 152.464 -1.53204 -3.57017 0
M  V30 1645 H 154.136 -3.89747 -2.46769 0
M  V30 1646 H 152.379 -3.70179 -2.26164 0
M  V30 1647 H 153.05 -3.92642 -3.8799 0
M  V30 1648 H 155.526 -2.01442 -3.64088 0
M  V30 1649 H 154.402 -2.26002 -5.00214 0
M  V30 1650 H 154.663 -0.640365 -4.37438 0
M  V30 1651 N 153.722 1.14298 -1.08507 0
M  V30 1652 C 154.947 1.8976 -0.837001 0
M  V30 1653 C 155.372 1.78097 0.605228 0
M  V30 1654 O 154.73 1.12188 1.4242 0
M  V30 1655 C 154.778 3.37685 -1.26495 0
M  V30 1656 O 153.882 4.10281 -0.417514 0
M  V30 1657 H 153.223 0.590365 -0.303917 0
M  V30 1658 H 155.753 1.44672 -1.44676 0
M  V30 1659 H 155.763 3.88501 -1.24625 0
M  V30 1660 H 154.438 3.45492 -2.31534 0
M  V30 1661 H 153.015 3.69536 -0.499722 0
M  V30 1662 N 155.201 0.870884 1.31352 0
M  V30 1663 C 156.617 0.562932 1.49343 0
M  V30 1664 C 156.817 -0.902725 1.80148 0
M  V30 1665 O 155.873 -1.68484 1.88067 0
M  V30 1666 C 157.186 1.46393 2.62659 0
M  V30 1667 C 158.734 1.46607 2.76542 0
M  V30 1668 C 159.209 2.35266 3.92955 0
M  V30 1669 N 160.7 2.33151 4.00243 0
M  V30 1670 C 161.435 2.98471 4.89594 0
M  V30 1671 N 160.931 3.72964 5.8384 0
M  V30 1672 N 162.724 2.87775 4.82848 0
M  V30 1673 H 154.875 1.81923 1.09626 0
M  V30 1674 H 157.138 0.777934 0.541777 0
M  V30 1675 H 156.844 2.50689 2.46674 0
M  V30 1676 H 156.718 1.16314 3.58819 0
M  V30 1677 H 159.105 0.43069 2.9194 0
M  V30 1678 H 159.186 1.8071 1.81046 0
M  V30 1679 H 158.83 3.38881 3.78315 0
M  V30 1680 H 158.76 1.98487 4.87761 0
M  V30 1681 H 161.251 1.79006 3.32814 0
M  V30 1682 H 161.564 4.19932 6.4875 0
M  V30 1683 H 159.909 3.77073 5.83816 0
M  V30 1684 H 163.1 2.29116 4.08195 0
M  V30 1685 H 163.273 3.38961 5.52277 0
M  V30 1686 N 156.679 -1.44442 0.630414 0
M  V30 1687 C 157.927 -2.01653 0.134351 0
M  V30 1688 C 158.248 -1.49836 -1.24796 0
M  V30 1689 O 157.518 -0.701684 -1.82902 0
M  V30 1690 H 156.098 -0.74554 0.0466769 0
M  V30 1691 H 158.76 -1.76952 0.816955 0
M  V30 1692 H 157.856 -3.11935 0.101498 0
M  V30 1693 N 158.157 -0.370918 -1.53173 0
M  V30 1694 C 159.404 0.217102 -2.01333 0
M  V30 1695 C 159.732 1.48338 -1.25802 0
M  V30 1696 O 158.987 1.92698 -0.34146 0
M  V30 1697 C 159.286 0.549696 -3.53147 0
M  V30 1698 C 158.952 -0.622872 -4.46577 0
M  V30 1699 C 157.614 -0.944595 -4.71838 0
M  V30 1700 C 159.966 -1.40819 -5.01816 0
M  V30 1701 C 157.294 -2.05351 -5.49589 0
M  V30 1702 C 159.646 -2.50757 -5.80778 0
M  V30 1703 C 158.31 -2.83458 -6.04324 0
M  V30 1704 H 157.58 0.0794431 -0.736729 0
M  V30 1705 H 160.227 -0.504481 -1.84736 0
M  V30 1706 H 158.532 1.35237 -3.6772 0
M  V30 1707 H 160.229 1.017 -3.87889 0
M  V30 1708 H 156.819 -0.36209 -4.27068 0
M  V30 1709 H 161.003 -1.17289 -4.82242 0
M  V30 1710 H 156.259 -2.3108 -5.6605 0
M  V30 1711 H 160.433 -3.12022 -6.22588 0
M  V30 1712 H 158.06 -3.69508 -6.64355 0
M  V30 1713 N 159.635 1.57281 -0.100228 0
M  V30 1714 C 160.863 1.98879 0.570509 0
M  V30 1715 C 161.278 0.979476 1.61405 0
M  V30 1716 O 160.635 -0.0302288 1.82475 0
M  V30 1717 C 160.686 3.4052 1.2136 0
M  V30 1718 O 160.407 4.37588 0.211786 0
M  V30 1719 C 161.908 3.97149 1.96945 0
M  V30 1720 H 159.128 0.653428 0.152555 0
M  V30 1721 H 161.672 2.03697 -0.18103 0
M  V30 1722 H 159.827 3.367 1.91603 0
M  V30 1723 H 160.241 5.20118 0.676607 0
M  V30 1724 H 161.715 4.98393 2.37294 0
M  V30 1725 H 162.192 3.3525 2.83733 0
M  V30 1726 H 162.798 4.04458 1.31506 0
M  V30 1727 N 161.113 -0.173488 1.56642 0
M  V30 1728 C 162.524 -0.736155 1.71574 0
M  V30 1729 C 162.875 -1.82888 0.710389 0
M  V30 1730 O 162 -2.16017 -0.1287 0
M  V30 1731 C 162.595 -1.34211 3.11083 0
M  V30 1732 C 161.154 -1.85162 3.27707 0
M  V30 1733 C 160.301 -0.729765 2.67525 0
M  V30 1734 H 163.252 0.0518786 1.58615 0
M  V30 1735 H 163.273 -2.21178 3.09613 0
M  V30 1736 H 162.785 -0.546579 3.84232 0
M  V30 1737 H 160.886 -2.67366 2.59512 0
M  V30 1738 H 160.999 -1.99855 4.35425 0
M  V30 1739 H 159.363 -1.14965 2.27278 0
M  V30 1740 H 160.146 0.0538806 3.43258 0
M  V30 1741 N 162.591 -1.51276 -0.441967 0
M  V30 1742 C 164.007 -1.39349 -0.778083 0
M  V30 1743 C 164.207 -0.472212 -1.95889 0
M  V30 1744 O 163.263 0.0743551 -2.5239 0
M  V30 1745 C 164.576 -2.81292 -1.0628 0
M  V30 1746 C 166.124 -2.9041 -1.16751 0
M  V30 1747 C 166.599 -4.33251 -1.48519 0
M  V30 1748 N 168.09 -4.36336 -1.55453 0
M  V30 1749 C 168.825 -5.43885 -1.81596 0
M  V30 1750 N 168.321 -6.61601 -2.05562 0
M  V30 1751 N 170.114 -5.3136 -1.8334 0
M  V30 1752 H 162.265 -2.09729 0.335774 0
M  V30 1753 H 164.528 -0.943925 0.0878028 0
M  V30 1754 H 164.234 -3.50678 -0.267905 0
M  V30 1755 H 164.108 -3.20334 -1.99163 0
M  V30 1756 H 166.495 -2.21225 -1.95304 0
M  V30 1757 H 166.576 -2.54871 -0.217801 0
M  V30 1758 H 166.22 -5.02984 -0.704958 0
M  V30 1759 H 166.15 -4.66299 -2.44689 0
M  V30 1760 H 168.641 -3.51466 -1.38853 0
M  V30 1761 H 168.954 -7.39361 -2.24867 0
M  V30 1762 H 167.299 -6.64725 -2.02894 0
M  V30 1763 H 170.49 -4.38382 -1.64132 0
M  V30 1764 H 170.663 -6.15258 -2.03377 0
M  V30 1765 N 164.069 0.697108 -1.41344 0
M  V30 1766 C 165.001 1.8224 -1.39001 0
M  V30 1767 C 166.014 1.60152 -0.292428 0
M  V30 1768 O 167.203 1.69684 -0.554048 0
M  V30 1769 C 164.303 3.18976 -1.14489 0
M  V30 1770 C 163.476 3.68105 -2.36258 0
M  V30 1771 C 162.535 4.83506 -2.07625 0
M  V30 1772 O 161.561 4.95201 -2.8065 0
M  V30 1773 N 162.763 5.70637 -1.06555 0
M  V30 1774 H 165.528 1.84742 -2.35988 0
M  V30 1775 H 163.089 0.87937 -1.35936 0
M  V30 1776 H 165.081 3.93801 -0.932885 0
M  V30 1777 H 163.651 3.11508 -0.261043 0
M  V30 1778 H 162.871 2.84204 -2.7317 0
M  V30 1779 H 164.159 3.97667 -3.17393 0
M  V30 1780 H 163.557 5.63817 -0.461125 0
M  V30 1781 H 162.114 6.45368 -0.913444 0
M  V30 1782 N 165.547 1.27147 0.931209 0
M  V30 1783 C 166.793 1.13446 1.68101 0
M  V30 1784 C 167.126 -0.319628 1.91552 0
M  V30 1785 O 166.401 -1.23407 1.50336 0
M  V30 1786 C 166.684 1.91482 3.0497 0
M  V30 1787 C 166.537 3.44855 2.88782 0
M  V30 1788 C 167.856 1.71651 4.05246 0
M  V30 1789 H 164.975 0.413498 0.610072 0
M  V30 1790 H 167.617 1.56261 1.08086 0
M  V30 1791 H 165.767 1.55095 3.56199 0
M  V30 1792 H 167.439 3.9105 2.44698 0
M  V30 1793 H 165.682 3.71373 2.24198 0
M  V30 1794 H 166.353 3.94694 3.85902 0
M  V30 1795 H 168.829 2.0337 3.63015 0
M  V30 1796 H 167.705 2.28651 4.99009 0
M  V30 1797 H 167.966 0.663555 4.37092 0
M  V30 1798 N 167.025 -1.13721 1.09112 0
M  V30 1799 C 167.935 -2.22638 0.73957 0
M  V30 1800 C 168.951 -1.72091 -0.257068 0
M  V30 1801 O 170.127 -2.01155 -0.0992154 0
M  V30 1802 C 167.192 -3.46322 0.16191 0
M  V30 1803 C 166.253 -4.11775 1.21408 0
M  V30 1804 C 165.486 -5.29555 0.663891 0
M  V30 1805 O 165.709 -5.68077 -0.514274 0
M  V30 1806 O 164.643 -5.84973 1.41738 0
M  V30 1807 H 168.469 -2.55074 1.64836 0
M  V30 1808 H 166.054 -1.21791 0.865289 0
M  V30 1809 H 167.936 -4.21107 -0.157073 0
M  V30 1810 H 166.611 -3.15593 -0.719932 0
M  V30 1811 H 165.518 -3.3883 1.58571 0
M  V30 1812 H 166.851 -4.46627 2.06845 0
M  V30 1813 N 168.503 -0.877838 -1.30888 0
M  V30 1814 C 169.731 -0.507414 -2.00581 0
M  V30 1815 C 170.146 0.902216 -1.65848 0
M  V30 1816 O 169.503 1.59225 -0.891831 0
M  V30 1817 C 169.554 -0.664162 -3.55347 0
M  V30 1818 O 169.275 -2.01829 -3.8884 0
M  V30 1819 C 170.776 -0.295787 -4.42312 0
M  V30 1820 H 167.996 -0.196866 -0.641471 0
M  V30 1821 H 170.54 -1.18117 -1.66939 0
M  V30 1822 H 168.695 -0.0378619 -3.87381 0
M  V30 1823 H 169.109 -2.03174 -4.8355 0
M  V30 1824 H 170.583 -0.456388 -5.5011 0
M  V30 1825 H 171.06 0.765663 -4.32475 0
M  V30 1826 H 171.666 -0.898113 -4.15709 0
M  V30 1827 N 169.982 1.44106 -0.638065 0
M  V30 1828 C 171.228 2.02277 -0.145546 0
M  V30 1829 C 171.561 1.50125 1.23191 0
M  V30 1830 O 170.836 0.688133 1.8192 0
M  V30 1831 C 171.119 3.59829 -0.139791 0
M  V30 1832 C 170.972 4.22247 -1.55008 0
M  V30 1833 C 172.291 4.36873 0.531966 0
M  V30 1834 H 169.41 0.734992 -0.0543632 0
M  V30 1835 H 172.052 1.71592 -0.815863 0
M  V30 1836 H 170.202 3.86102 0.431007 0
M  V30 1837 H 171.874 4.07057 -2.1703 0
M  V30 1838 H 170.117 3.79476 -2.10191 0
M  V30 1839 H 170.788 5.31284 -1.49804 0
M  V30 1840 H 173.264 4.16074 0.0464781 0
M  V30 1841 H 172.14 5.4657 0.505206 0
M  V30 1842 H 172.401 4.11995 1.60352 0
M  V30 1843 N 171.46 0.379036 1.52974 0
M  V30 1844 C 172.37 -0.468639 2.29872 0
M  V30 1845 C 173.386 -1.08067 1.36373 0
M  V30 1846 O 174.562 -1.08871 1.69438 0
M  V30 1847 C 171.627 -1.58594 3.083 0
M  V30 1848 C 170.688 -1.00007 4.17489 0
M  V30 1849 C 169.921 -2.06413 4.92168 0
M  V30 1850 O 170.144 -3.27751 4.66835 0
M  V30 1851 O 169.078 -1.68717 5.7777 0
M  V30 1852 H 172.904 0.157508 3.03291 0
M  V30 1853 H 170.489 0.143035 1.48714 0
M  V30 1854 H 172.371 -2.23525 3.57232 0
M  V30 1855 H 171.046 -2.19724 2.37703 0
M  V30 1856 H 169.953 -0.314299 3.72777 0
M  V30 1857 H 171.286 -0.433135 4.90291 0
M  V30 1858 N 172.938 -1.57226 0.108567 0
M  V30 1859 C 174.349 -1.8195 -0.418464 0
M  V30 1860 C 174.7 -1.02508 -1.67292 0
M  V30 1861 O 173.825 -0.258496 -2.14851 0
M  V30 1862 C 174.42 -3.30028 -0.765979 0
M  V30 1863 C 172.979 -3.55469 -1.23769 0
M  V30 1864 C 172.126 -2.7625 -0.241106 0
M  V30 1865 H 175.077 -1.55149 0.33384 0
M  V30 1866 H 175.098 -3.44086 -1.62434 0
M  V30 1867 H 174.61 -3.87821 0.147219 0
M  V30 1868 H 172.711 -3.03022 -2.16814 0
M  V30 1869 H 172.824 -4.6408 -1.19022 0
M  V30 1870 H 171.188 -2.44133 -0.72602 0
M  V30 1871 H 171.971 -3.36797 0.665007 0
M  V30 1872 N 174.416 0.165178 -1.56732 0
M  V30 1873 C 175.644 0.896218 -1.86482 0
M  V30 1874 C 176.059 1.75555 -0.694675 0
M  V30 1875 O 175.416 1.79379 0.33607 0
M  V30 1876 C 175.467 1.76792 -3.1532 0
M  V30 1877 O 175.188 0.943239 -4.27825 0
M  V30 1878 C 176.689 2.6081 -3.58459 0
M  V30 1879 H 173.909 0.260064 -0.618553 0
M  V30 1880 H 176.453 0.163428 -2.03846 0
M  V30 1881 H 174.608 2.45398 -2.99764 0
M  V30 1882 H 175.022 1.53998 -5.01383 0
M  V30 1883 H 176.496 3.17579 -4.51495 0
M  V30 1884 H 176.973 3.35977 -2.82872 0
M  V30 1885 H 177.579 1.97526 -3.76648 0
M  V30 1886 N 175.894 1.51508 0.433938 0
M  V30 1887 C 177.14 1.64588 1.18484 0
M  V30 1888 C 177.473 0.362666 1.90784 0
M  V30 1889 O 176.748 -0.637892 1.83742 0
M  V30 1890 C 177.031 2.85149 2.19913 0
M  V30 1891 C 176.884 4.23456 1.51674 0
M  V30 1892 C 178.203 3.01227 3.20858 0
M  V30 1893 H 175.322 0.598994 0.429389 0
M  V30 1894 H 177.964 1.84002 0.473647 0
M  V30 1895 H 176.114 2.68729 2.80566 0
M  V30 1896 H 177.786 4.51552 0.943322 0
M  V30 1897 H 176.029 4.25998 0.819035 0
M  V30 1898 H 176.7 5.03812 2.2556 0
M  V30 1899 H 179.176 3.16382 2.70263 0
M  V30 1900 H 178.052 3.87141 3.89118 0
M  V30 1901 H 178.313 2.13447 3.8716 0
M  V30 1902 N 177.372 -0.689602 1.41712 0
M  V30 1903 C 178.788 -1.00093 1.24312 0
M  V30 1904 C 178.988 -2.01036 0.136729 0
M  V30 1905 O 178.044 -2.47562 -0.496918 0
M  V30 1906 C 179.357 -1.51985 2.59463 0
M  V30 1907 C 180.905 -1.63838 2.66695 0
M  V30 1908 C 181.38 -2.1913 4.02177 0
M  V30 1909 N 182.871 -2.26483 4.04054 0
M  V30 1910 C 183.606 -2.70306 5.0569 0
M  V30 1911 N 183.102 -3.13691 6.17713 0
M  V30 1912 N 184.895 -2.69923 4.9305 0
M  V30 1913 H 177.046 -0.0210029 2.1239 0
M  V30 1914 H 179.309 -0.0718733 0.945272 0
M  V30 1915 H 179.015 -0.85269 3.41207 0
M  V30 1916 H 178.889 -2.50103 2.82362 0
M  V30 1917 H 181.276 -2.29664 1.85306 0
M  V30 1918 H 181.357 -0.642492 2.476 0
M  V30 1919 H 181.001 -1.53918 4.84016 0
M  V30 1920 H 180.931 -3.19482 4.18615 0
M  V30 1921 H 183.422 -1.95874 3.23174 0
M  V30 1922 H 183.735 -3.45773 6.9113 0
M  V30 1923 H 182.08 -3.11585 6.21241 0
M  V30 1924 H 185.271 -2.35382 4.04614 0
M  V30 1925 H 185.444 -3.03758 5.72394 0
M  V30 1926 N 178.85 -1.27639 -0.924453 0
M  V30 1927 C 179.797 -1.10644 -2.0255 0
M  V30 1928 C 180.767 -0.00658438 -1.66099 0
M  V30 1929 O 181.952 -0.16952 -1.90045 0
M  V30 1930 C 179.092 -0.76309 -3.36557 0
M  V30 1931 C 178.205 -1.94091 -3.85944 0
M  V30 1932 C 177.34 -1.53914 -5.08413 0
M  V30 1933 C 176.379 -2.68425 -5.50104 0
M  V30 1934 N 175.516 -2.28815 -6.63768 0
M  V30 1935 H 180.356 -2.04858 -2.16419 0
M  V30 1936 H 177.893 -1.01974 -1.06017 0
M  V30 1937 H 179.851 -0.544822 -4.13627 0
M  V30 1938 H 178.481 0.142102 -3.22487 0
M  V30 1939 H 177.533 -2.27162 -3.05125 0
M  V30 1940 H 178.845 -2.7998 -4.12811 0
M  V30 1941 H 177.999 -1.28231 -5.92994 0
M  V30 1942 H 176.738 -0.651391 -4.8333 0
M  V30 1943 H 175.743 -2.94819 -4.64071 0
M  V30 1944 H 176.968 -3.57826 -5.7718 0
M  V30 1945 H 174.914 -1.42495 -6.40337 0
M  V30 1946 H 174.831 -3.08242 -6.90306 0
M  V30 1947 H 176.099 -2.06387 -7.51681 0
M  V30 1948 N 180.328 1.1314 -1.09713 0
M  V30 1949 C 181.575 1.84484 -0.834987 0
M  V30 1950 C 181.903 1.83689 0.639418 0
M  V30 1951 O 181.158 1.2724 1.4869 0
M  V30 1952 C 181.457 3.32167 -1.3191 0
M  V30 1953 C 181.123 3.53139 -2.80363 0
M  V30 1954 C 179.785 3.58571 -3.20905 0
M  V30 1955 C 182.137 3.60866 -3.76065 0
M  V30 1956 C 179.465 3.69267 -4.55916 0
M  V30 1957 C 181.817 3.73089 -5.10869 0
M  V30 1958 C 180.481 3.76775 -5.50996 0
M  V30 1959 H 179.751 0.675073 -0.305544 0
M  V30 1960 H 182.398 1.33554 -1.37243 0
M  V30 1961 H 180.703 3.85469 -0.701517 0
M  V30 1962 H 182.4 3.85821 -1.09284 0
M  V30 1963 H 178.99 3.49569 -2.47991 0
M  V30 1964 H 183.174 3.55946 -3.45855 0
M  V30 1965 H 178.43 3.70388 -4.86438 0
M  V30 1966 H 182.604 3.78011 -5.84877 0
M  V30 1967 H 180.231 3.84815 -6.55608 0
M  V30 1968 N 181.806 0.884767 1.30421 0
M  V30 1969 C 183.052 0.503851 1.96441 0
M  V30 1970 C 183.385 -0.944518 1.69684 0
M  V30 1971 O 182.66 -1.66737 1.00145 0
M  V30 1972 C 182.943 0.779085 3.51571 0
M  V30 1973 C 182.796 2.27807 3.87846 0
M  V30 1974 C 184.115 0.255452 4.39358 0
M  V30 1975 H 181.234 0.184533 0.713524 0
M  V30 1976 H 183.876 1.10872 1.54297 0
M  V30 1977 H 182.026 0.264274 3.876 0
M  V30 1978 H 183.698 2.86127 3.61841 0
M  V30 1979 H 181.941 2.74479 3.35922 0
M  V30 1980 H 182.612 2.42125 4.96064 0
M  V30 1981 H 185.088 0.696079 4.10236 0
M  V30 1982 H 183.964 0.477361 5.4682 0
M  V30 1983 H 184.225 -0.843293 4.33983 0
M  V30 1984 N 183.284 -1.43765 0.645699 0
M  V30 1985 C 184.53 -2.02197 0.156271 0
M  V30 1986 C 184.863 -1.50776 -1.22393 0
M  V30 1987 O 184.138 -0.697771 -1.81553 0
M  V30 1988 C 184.421 -3.59749 0.158872 0
M  V30 1989 C 184.274 -4.21419 1.57245 0
M  V30 1990 C 185.593 -4.37149 -0.50879 0
M  V30 1991 H 182.712 -0.734694 0.0582602 0
M  V30 1992 H 185.354 -1.71157 0.824951 0
M  V30 1993 H 183.504 -3.86325 -0.410525 0
M  V30 1994 H 185.176 -4.059 2.19186 0
M  V30 1995 H 183.419 -3.78356 2.122 0
M  V30 1996 H 184.09 -5.30482 1.52619 0
M  V30 1997 H 186.566 -4.16093 -0.024412 0
M  V30 1998 H 185.442 -5.4683 -0.476213 0
M  V30 1999 H 185.703 -4.12839 -1.58165 0
M  V30 2000 N 184.763 -0.387143 -1.52771 0
M  V30 2001 C 185.673 0.456442 -2.30117 0
M  V30 2002 C 186.689 1.07342 -1.36944 0
M  V30 2003 O 187.865 1.07971 -1.70013 0
M  V30 2004 C 184.93 1.56957 -3.09136 0
M  V30 2005 C 183.991 0.977916 -4.18014 0
M  V30 2006 C 183.224 2.038 -4.93256 0
M  V30 2007 O 183.447 3.25271 -4.68567 0
M  V30 2008 O 182.381 1.6565 -5.78657 0
M  V30 2009 H 186.207 -0.17359 -3.03203 0
M  V30 2010 H 183.792 -0.150919 -1.48636 0
M  V30 2011 H 185.674 2.21628 -3.58412 0
M  V30 2012 H 184.349 2.18461 -2.38865 0
M  V30 2013 H 183.256 0.294525 -3.72939 0
M  V30 2014 H 184.589 0.407128 -4.90513 0
M  V30 2015 N 186.241 1.57166 -0.116904 0
M  V30 2016 C 187.657 1.5779 0.239693 0
M  V30 2017 C 187.857 1.1295 1.66867 0
M  V30 2018 O 186.913 0.81592 2.38954 0
M  V30 2019 C 188.226 3.00699 0.00828202 0
M  V30 2020 C 189.774 3.12912 0.0743438 0
M  V30 2021 C 190.249 4.57817 -0.129348 0
M  V30 2022 N 191.74 4.63139 -0.075247 0
M  V30 2023 C 192.475 5.73023 -0.207788 0
M  V30 2024 N 191.971 6.91665 -0.396382 0
M  V30 2025 N 193.764 5.61906 -0.14751 0
M  V30 2026 H 185.915 1.84615 -1.05029 0
M  V30 2027 H 188.178 0.85311 -0.41341 0
M  V30 2028 H 187.884 3.37784 -0.979531 0
M  V30 2029 H 187.758 3.69848 0.741077 0
M  V30 2030 H 190.145 2.75686 1.05268 0
M  V30 2031 H 190.226 2.4631 -0.690297 0
M  V30 2032 H 189.87 4.95742 -1.10465 0
M  V30 2033 H 189.8 5.22507 0.655253 0
M  V30 2034 H 192.291 3.7784 0.0670898 0
M  V30 2035 H 192.604 7.71255 -0.488437 0
M  V30 2036 H 190.949 6.93654 -0.432329 0
M  V30 2037 H 194.14 4.681 -0.00115036 0
M  V30 2038 H 194.313 6.47501 -0.254247 0
M  V30 2039 N 187.719 -0.156864 1.56817 0
M  V30 2040 C 188.649 -1.19589 2.00551 0
M  V30 2041 C 189.63 -1.4536 0.883426 0
M  V30 2042 O 190.815 -1.56449 1.15054 0
M  V30 2043 C 187.945 -2.53143 2.37773 0
M  V30 2044 C 186.899 -2.41913 3.53075 0
M  V30 2045 C 186.225 -3.80088 3.76081 0
M  V30 2046 C 187.525 -1.91157 4.86062 0
M  V30 2047 H 189.219 -0.832293 2.87599 0
M  V30 2048 H 186.765 -0.398918 1.38364 0
M  V30 2049 H 188.718 -3.26047 2.66967 0
M  V30 2050 H 187.442 -2.91319 1.4765 0
M  V30 2051 H 186.101 -1.71462 3.24031 0
M  V30 2052 H 185.749 -4.15683 2.83225 0
M  V30 2053 H 185.449 -3.73439 4.53671 0
M  V30 2054 H 186.973 -4.54556 4.0769 0
M  V30 2055 H 188.387 -2.53846 5.14038 0
M  V30 2056 H 186.784 -1.95422 5.67389 0
M  V30 2057 H 187.854 -0.866673 4.77092 0
M  V30 2058 N 189.197 -1.51736 -0.425897 0
M  V30 2059 C 190.107 -1.76738 -1.54275 0
M  V30 2060 C 191.123 -0.65211 -1.61318 0
M  V30 2061 O 192.299 -0.935654 -1.78346 0
M  V30 2062 C 189.364 -1.89755 -2.90162 0
M  V30 2063 C 188.425 -3.13633 -2.93143 0
M  V30 2064 C 187.658 -3.2602 -4.22548 0
M  V30 2065 O 187.881 -2.44067 -5.15546 0
M  V30 2066 O 186.815 -4.19071 -4.32046 0
M  V30 2067 H 190.641 -2.71502 -1.36089 0
M  V30 2068 H 188.226 -1.36376 -0.610069 0
M  V30 2069 H 190.108 -2.00236 -3.70788 0
M  V30 2070 H 188.783 -0.981785 -3.08452 0
M  V30 2071 H 187.69 -3.08622 -2.11431 0
M  V30 2072 H 189.023 -4.04936 -2.798 0
M  V30 2073 N 190.675 0.682077 -1.42076 0
M  V30 2074 C 191.622 1.79578 -1.44984 0
M  V30 2075 C 192.592 1.6332 -0.302614 0
M  V30 2076 O 193.777 1.83978 -0.505633 0
M  V30 2077 C 190.917 3.1756 -1.35091 0
M  V30 2078 C 190.03 3.45156 -2.59791 0
M  V30 2079 C 189.165 4.72826 -2.42093 0
M  V30 2080 C 188.204 4.93433 -3.62202 0
M  V30 2081 N 187.341 6.12338 -3.43491 0
M  V30 2082 H 192.181 1.76427 -2.40161 0
M  V30 2083 H 189.718 0.861376 -1.19242 0
M  V30 2084 H 191.676 3.97287 -1.27354 0
M  V30 2085 H 190.306 3.19854 -0.435133 0
M  V30 2086 H 189.358 2.59736 -2.77923 0
M  V30 2087 H 190.67 3.5628 -3.49094 0
M  V30 2088 H 189.824 5.60631 -2.319 0
M  V30 2089 H 188.563 4.63973 -1.50268 0
M  V30 2090 H 187.568 4.04073 -3.72834 0
M  V30 2091 H 188.793 5.04136 -4.54998 0
M  V30 2092 H 186.739 6.04672 -2.54377 0
M  V30 2093 H 186.656 6.2429 -4.26377 0
M  V30 2094 H 187.924 7.02841 -3.37097 0
M  V30 2095 N 192.153 1.28127 0.917671 0
M  V30 2096 C 193.083 1.14248 2.03641 0
M  V30 2097 C 194.064 0.0412748 1.7005 0
M  V30 2098 O 195.249 0.217566 1.92977 0
M  V30 2099 C 192.379 0.799431 3.37974 0
M  V30 2100 C 191.333 1.85497 3.85713 0
M  V30 2101 C 190.659 1.36565 5.16966 0
M  V30 2102 C 191.959 3.26085 4.08002 0
M  V30 2103 H 193.653 2.07835 2.15511 0
M  V30 2104 H 191.199 1.00064 1.03553 0
M  V30 2105 H 193.152 0.689114 4.15727 0
M  V30 2106 H 191.876 -0.172145 3.26146 0
M  V30 2107 H 190.535 1.95437 3.10161 0
M  V30 2108 H 190.183 0.383253 5.01538 0
M  V30 2109 H 189.883 2.07143 5.49878 0
M  V30 2110 H 191.407 1.26848 5.97279 0
M  V30 2111 H 192.821 3.19089 4.76293 0
M  V30 2112 H 191.218 3.94462 4.52238 0
M  V30 2113 H 192.288 3.70394 3.12948 0
M  V30 2114 N 193.631 -1.12557 1.10312 0
M  V30 2115 C 195.047 -1.36036 0.834649 0
M  V30 2116 C 195.247 -1.93946 -0.546539 0
M  V30 2117 O 194.303 -2.16484 -1.29966 0
M  V30 2118 C 195.616 -2.30312 1.9333 0
M  V30 2119 C 197.164 -2.43906 1.9616 0
M  V30 2120 C 197.639 -3.41496 3.05195 0
M  V30 2121 N 199.13 -3.49053 3.04494 0
M  V30 2122 C 199.865 -4.24471 3.85502 0
M  V30 2123 N 199.361 -5.02966 4.76442 0
M  V30 2124 N 201.154 -4.19864 3.73725 0
M  V30 2125 H 193.305 -0.733246 1.99342 0
M  V30 2126 H 195.568 -0.385234 0.866198 0
M  V30 2127 H 195.274 -1.94933 2.92735 0
M  V30 2128 H 195.148 -3.30421 1.81939 0
M  V30 2129 H 197.535 -2.78567 0.973886 0
M  V30 2130 H 197.616 -1.4369 2.11629 0
M  V30 2131 H 197.26 -3.07565 4.04186 0
M  V30 2132 H 197.19 -4.41539 2.86968 0
M  V30 2133 H 199.681 -2.93053 2.38596 0
M  V30 2134 H 199.994 -5.57846 5.34815 0
M  V30 2135 H 198.339 -5.02167 4.80472 0
M  V30 2136 H 201.53 -3.57623 3.02032 0
M  V30 2137 H 201.703 -4.78386 4.37093 0
M  V30 2138 N 195.109 -0.891671 -1.2995 0
M  V30 2139 C 196.072 -0.36828 -2.26222 0
M  V30 2140 C 197.072 0.493014 -1.53056 0
M  V30 2141 O 198.262 0.299213 -1.71611 0
M  V30 2142 C 195.394 0.47442 -3.37583 0
M  V30 2143 H 196.587 -1.21844 -2.74033 0
M  V30 2144 H 194.14 -0.669107 -1.41254 0
M  V30 2145 H 194.875 1.34489 -2.95099 0
M  V30 2146 H 194.66 -0.142615 -3.91841 0
M  V30 2147 H 196.15 0.83218 -4.09224 0
M  V30 2148 N 196.587 1.43421 -0.653314 0
M  V30 2149 C 197.535 2.32546 0.0501531 0
M  V30 2150 C 198.529 1.48617 0.812985 0
M  V30 2151 O 199.735 1.64825 0.723375 0
M  V30 2152 H 196.11 0.751185 0.0350032 0
M  V30 2153 H 198.081 2.89602 -0.719261 0
M  V30 2154 C 196.83 3.32925 1.00279 0
M  V30 2155 H 196.153 3.97532 0.425236 0
M  V30 2156 H 197.593 3.9792 1.46409 0
M  V30 2157 C 196.052 2.63532 2.09886 0
M  V30 2158 O 196.582 2.45092 3.18265 0
M  V30 2159 N 194.788 2.22905 1.86445 0
M  V30 2160 H 194.335 2.38103 0.98309 0
M  V30 2161 H 194.293 1.76805 2.59976 0
M  V30 2162 N 198.065 0.39524 1.52563 0
M  V30 2163 C 199.313 -0.184678 2.01254 0
M  V30 2164 C 199.634 -1.46822 1.28329 0
M  V30 2165 O 198.904 -1.91666 0.405094 0
M  V30 2166 H 197.484 -0.0712355 0.743596 0
M  V30 2167 H 200.146 0.528293 1.87603 0
M  V30 2168 H 199.242 -0.390681 3.09645 0
M  V30 2169 N 199.544 -1.57102 0.125237 0
M  V30 2170 C 200.792 -1.95021 -0.530198 0
M  V30 2171 C 201.113 -1.00982 -1.66816 0
M  V30 2172 O 200.383 -0.0672693 -1.95784 0
M  V30 2173 H 198.963 -0.720046 -0.198853 0
M  V30 2174 H 201.625 -1.93916 0.19564 0
M  V30 2175 H 200.721 -2.98211 -0.920681 0
M  V30 2176 N 201.022 0.148545 -1.56898 0
M  V30 2177 C 202.27 0.859717 -1.82902 0
M  V30 2178 C 202.591 1.81775 -0.70588 0
M  V30 2179 O 201.861 1.93994 0.272586 0
M  V30 2180 H 200.441 0.320469 -0.674766 0
M  V30 2181 H 203.103 0.142918 -1.94375 0
M  V30 2182 H 202.199 1.4229 -2.77777 0
M  V30 2183 N 202.5 1.5196 0.417844 0
M  V30 2184 C 203.777 1.56146 1.17803 0
M  V30 2185 C 204.157 0.337275 2.08388 0
M  V30 2186 O 203.505 -0.676447 2.18258 0
M  V30 2187 C 203.715 2.88566 1.96293 0
M  V30 2188 C 205.063 3.41244 2.52662 0
M  V30 2189 O 206.087 2.90247 2.06483 0
M  V30 2190 O 204.946 4.30273 3.36938 0
M  V30 2191 H 202.04 0.628598 0.537395 0
M  V30 2192 H 204.586 1.64283 0.425331 0
M  V30 2193 H 203.358 3.69116 1.2988 0
M  V30 2194 H 202.981 2.83681 2.78587 0
M  V30 2195 N 203.978 -0.674533 1.42435 0
M  V30 2196 C 205.227 -1.43034 1.42212 0
M  V30 2197 C 205.54 -1.95555 0.0420788 0
M  V30 2198 O 206.746 -2.71374 -0.0827558 0
M  V30 2199 C 205.202 -2.58748 2.50155 0
M  V30 2200 C 204.81 -2.12925 3.94166 0
M  V30 2201 C 206.554 -3.36257 2.59098 0
M  V30 2202 C 204.461 -3.25723 4.93618 0
M  V30 2203 H 203.391 -0.537345 0.528939 0
M  V30 2204 H 206.042 -0.73024 1.68344 0
M  V30 2205 H 204.424 -3.31128 2.17188 0
M  V30 2206 H 205.598 -1.47697 4.36488 0
M  V30 2207 H 203.913 -1.48354 3.89076 0
M  V30 2208 H 206.51 -4.20264 3.30578 0
M  V30 2209 H 206.853 -3.82866 1.63461 0
M  V30 2210 H 207.386 -2.70947 2.9126 0
M  V30 2211 H 204.125 -2.84105 5.90732 0
M  V30 2212 H 203.645 -3.89732 4.55926 0
M  V30 2213 H 205.324 -3.91186 5.15347 0
M  V30 2214 N 205.456 -1.28612 -0.910864 0
M  V30 2215 C 206.702 -1.16106 -1.66274 0
M  V30 2216 C 207.035 0.289113 -1.92036 0
M  V30 2217 O 206.31 1.21 -1.52281 0
M  V30 2218 C 206.593 -1.96309 -3.01885 0
M  V30 2219 C 206.446 -3.49405 -2.8326 0
M  V30 2220 C 207.765 -1.78076 -4.02463 0
M  V30 2221 H 204.884 -0.423152 -0.603417 0
M  V30 2222 H 207.526 -1.57961 -1.05586 0
M  V30 2223 H 205.676 -1.60742 -3.53687 0
M  V30 2224 H 207.348 -3.94894 -2.38446 0
M  V30 2225 H 205.591 -3.74893 -2.18261 0
M  V30 2226 H 206.262 -4.00784 -3.79574 0
M  V30 2227 H 208.738 -2.0912 -3.59733 0
M  V30 2228 H 207.614 -2.36561 -4.95308 0
M  V30 2229 H 207.875 -0.733008 -4.35981 0
M  V30 2230 N 206.934 1.1197 -1.10907 0
M  V30 2231 C 208.162 1.87402 -0.876824 0
M  V30 2232 C 208.577 1.79894 0.573025 0
M  V30 2233 O 207.934 1.17629 1.39534 0
M  V30 2234 C 207.985 3.36428 -1.32282 0
M  V30 2235 O 207.706 3.43765 -2.71582 0
M  V30 2236 C 209.207 4.28783 -1.12518 0
M  V30 2237 H 206.427 0.592793 -0.314384 0
M  V30 2238 H 208.971 1.41649 -1.47499 0
M  V30 2239 H 207.126 3.79706 -0.768229 0
M  V30 2240 H 207.54 4.3652 -2.90776 0
M  V30 2241 H 209.014 5.31613 -1.48633 0
M  V30 2242 H 209.491 4.39153 -0.0642394 0
M  V30 2243 H 210.097 3.91291 -1.66648 0
M  V30 2244 N 208.412 0.89855 1.29475 0
M  V30 2245 C 209.322 0.379974 2.31502 0
M  V30 2246 C 210.338 -0.524695 1.659 0
M  V30 2247 O 211.514 -0.414551 1.97087 0
M  V30 2248 C 208.579 -0.385138 3.44554 0
M  V30 2249 C 207.64 0.550914 4.2575 0
M  V30 2250 C 206.873 -0.177778 5.33404 0
M  V30 2251 O 207.096 -1.40189 5.52904 0
M  V30 2252 O 206.03 0.479106 5.9999 0
M  V30 2253 H 209.856 1.22639 2.77837 0
M  V30 2254 H 207.441 0.662834 1.33891 0
M  V30 2255 H 209.323 -0.817841 4.13388 0
M  V30 2256 H 207.998 -1.20763 3.0033 0
M  V30 2257 H 206.905 1.03271 3.59564 0
M  V30 2258 H 208.238 1.33979 4.73614 0
M  V30 2259 N 209.89 -1.43072 0.660911 0
M  V30 2260 C 210.82 -2.33497 -0.0122829 0
M  V30 2261 C 211.801 -1.49903 -0.803925 0
M  V30 2262 O 212.986 -1.78546 -0.763864 0
M  V30 2263 C 210.116 -3.33363 -0.973994 0
M  V30 2264 C 209.07 -4.27003 -0.291928 0
M  V30 2265 C 208.396 -5.16967 -1.36562 0
M  V30 2266 C 209.696 -5.15816 0.820462 0
M  V30 2267 H 211.39 -2.90038 0.742873 0
M  V30 2268 H 208.936 -1.39461 0.358688 0
M  V30 2269 H 210.889 -3.95524 -1.45392 0
M  V30 2270 H 209.613 -2.75095 -1.7604 0
M  V30 2271 H 208.272 -3.66217 0.167623 0
M  V30 2272 H 207.92 -4.55034 -2.14366 0
M  V30 2273 H 207.62 -5.80441 -0.914454 0
M  V30 2274 H 209.144 -5.82003 -1.84675 0
M  V30 2275 H 210.558 -5.71742 0.422366 0
M  V30 2276 H 208.955 -5.8805 1.19656 0
M  V30 2277 H 210.025 -4.55045 1.67518 0
M  V30 2278 N 211.368 -0.403325 -1.52352 0
M  V30 2279 C 212.615 0.174347 -2.01748 0
M  V30 2280 C 212.943 1.45636 -1.2892 0
M  V30 2281 O 212.198 1.9193 -0.382258 0
M  V30 2282 C 212.497 0.474665 -3.54234 0
M  V30 2283 C 212.163 -0.717458 -4.45155 0
M  V30 2284 C 210.825 -1.04447 -4.69728 0
M  V30 2285 C 213.177 -1.51432 -4.98716 0
M  V30 2286 C 210.505 -2.16963 -5.45109 0
M  V30 2287 C 212.857 -2.6302 -5.75329 0
M  V30 2288 C 211.521 -2.96213 -5.98175 0
M  V30 2289 H 210.791 0.0637981 -0.738248 0
M  V30 2290 H 213.438 -0.543553 -1.83624 0
M  V30 2291 H 211.743 1.27406 -3.70506 0
M  V30 2292 H 213.44 0.934496 -3.89959 0
M  V30 2293 H 210.03 -0.452596 -4.26204 0
M  V30 2294 H 214.214 -1.27491 -4.79645 0
M  V30 2295 H 209.47 -2.43034 -5.61021 0
M  V30 2296 H 213.644 -3.25158 -6.15829 0
M  V30 2297 H 211.271 -3.83516 -6.56368 0
M  V30 2298 N 212.846 1.57033 -0.133567 0
M  V30 2299 C 213.793 2.16074 0.811208 0
M  V30 2300 C 214.763 1.08979 1.2535 0
M  V30 2301 O 215.948 1.36958 1.32843 0
M  V30 2302 C 213.088 2.77595 2.05024 0
M  V30 2303 C 212.201 3.99042 1.65498 0
M  V30 2304 C 211.336 4.48603 2.84479 0
M  V30 2305 C 210.375 5.62547 2.41262 0
M  V30 2306 N 209.512 6.06787 3.53206 0
M  V30 2307 H 214.352 2.96477 0.300906 0
M  V30 2308 H 211.889 1.46462 0.136822 0
M  V30 2309 H 213.847 3.11402 2.77642 0
M  V30 2310 H 212.477 1.99859 2.53488 0
M  V30 2311 H 211.529 3.71302 0.826981 0
M  V30 2312 H 212.841 4.81629 1.29748 0
M  V30 2313 H 211.995 4.84395 3.65303 0
M  V30 2314 H 210.734 3.64995 3.23465 0
M  V30 2315 H 209.739 5.26345 1.58874 0
M  V30 2316 H 210.964 6.47931 2.03377 0
M  V30 2317 H 208.91 5.26117 3.91838 0
M  V30 2318 H 208.827 6.84266 3.21427 0
M  V30 2319 H 210.095 6.4722 4.34427 0
M  V30 2320 N 214.325 -0.140222 1.56975 0
M  V30 2321 C 215.736 -0.699596 1.73097 0
M  V30 2322 C 216.087 -1.8134 0.749022 0
M  V30 2323 O 215.212 -2.16241 -0.0828503 0
M  V30 2324 C 215.807 -1.27582 3.1386 0
M  V30 2325 C 214.366 -1.78169 3.31561 0
M  V30 2326 C 213.513 -0.672855 2.69013 0
M  V30 2327 H 216.464 0.0855115 1.58469 0
M  V30 2328 H 216.485 -2.14561 3.14235 0
M  V30 2329 H 215.997 -0.464955 3.85305 0
M  V30 2330 H 214.098 -2.61801 2.65124 0
M  V30 2331 H 214.211 -1.90574 4.39566 0
M  V30 2332 H 212.575 -1.10118 2.29665 0
M  V30 2333 H 213.358 0.126679 3.43066 0
M  V30 2334 N 215.803 -1.52179 -0.40978 0
M  V30 2335 C 216.733 -1.78435 -1.5061 0
M  V30 2336 C 217.714 -0.635295 -1.57791 0
M  V30 2337 O 218.899 -0.880823 -1.73076 0
M  V30 2338 C 216.029 -1.93444 -2.88439 0
M  V30 2339 C 214.983 -3.09038 -2.96108 0
M  V30 2340 C 214.309 -3.09268 -4.36185 0
M  V30 2341 C 215.609 -4.48508 -2.67652 0
M  V30 2342 H 217.303 -2.70237 -1.28889 0
M  V30 2343 H 214.849 -1.30036 -0.618605 0
M  V30 2344 H 216.802 -2.10394 -3.65119 0
M  V30 2345 H 215.526 -0.983129 -3.11452 0
M  V30 2346 H 214.185 -2.91837 -2.21872 0
M  V30 2347 H 213.833 -2.11861 -4.56206 0
M  V30 2348 H 213.533 -3.86907 -4.42241 0
M  V30 2349 H 215.057 -3.28348 -5.14801 0
M  V30 2350 H 216.471 -4.65918 -3.34056 0
M  V30 2351 H 214.868 -5.28059 -2.85085 0
M  V30 2352 H 215.938 -4.56649 -1.63095 0
M  V30 2353 N 217.281 0.66697 -1.42791 0
M  V30 2354 C 218.692 1.2478 -1.38877 0
M  V30 2355 C 219.043 1.96012 -0.0859426 0
M  V30 2356 O 218.168 2.00463 0.815081 0
M  V30 2357 C 218.763 2.26938 -2.51564 0
M  V30 2358 C 217.322 2.80529 -2.50959 0
M  V30 2359 C 216.469 1.54965 -2.29959 0
M  V30 2360 H 219.42 0.459853 -1.51892 0
M  V30 2361 H 219.441 3.08834 -2.22265 0
M  V30 2362 H 218.953 1.75065 -3.46372 0
M  V30 2363 H 217.054 3.36502 -1.59991 0
M  V30 2364 H 217.167 3.29012 -3.48265 0
M  V30 2365 H 215.531 1.81817 -1.78366 0
M  V30 2366 H 216.314 1.05047 -3.26833 0
M  V30 2367 N 218.759 1.29093 0.90403 0
M  V30 2368 C 219.984 1.19809 1.69294 0
M  V30 2369 C 220.409 -0.238481 1.86582 0
M  V30 2370 O 219.767 -1.1723 1.383 0
M  V30 2371 C 219.815 1.91202 3.05736 0
M  V30 2372 O 218.919 1.22611 3.93752 0
M  V30 2373 H 218.26 0.415385 0.518027 0
M  V30 2374 H 220.79 1.70586 1.12967 0
M  V30 2375 H 220.8 1.99487 3.55906 0
M  V30 2376 H 219.475 2.95692 2.92471 0
M  V30 2377 H 218.052 1.22554 3.52186 0
M  V30 2378 N 220.237 -1.11381 1.11499 0
M  V30 2379 C 221.17 -2.16621 0.71769 0
M  V30 2380 C 222.148 -1.60058 -0.286413 0
M  V30 2381 O 223.332 -1.87613 -0.182689 0
M  V30 2382 C 220.459 -3.38646 0.0607265 0
M  V30 2383 C 219.505 -4.13874 1.03008 0
M  V30 2384 S 220.338 -4.70731 2.55289 0
M  V30 2385 C 221.494 -5.96079 1.90895 0
M  V30 2386 H 221.727 -2.49987 1.60915 0
M  V30 2387 H 219.26 -1.23015 0.933092 0
M  V30 2388 H 221.218 -4.09313 -0.311965 0
M  V30 2389 H 219.879 -3.03537 -0.807702 0
M  V30 2390 H 219.072 -5.01333 0.517853 0
M  V30 2391 H 218.674 -3.4897 1.34522 0
M  V30 2392 H 220.966 -6.65948 1.24577 0
M  V30 2393 H 221.909 -6.51946 2.76354 0
M  V30 2394 H 222.317 -5.47652 1.36885 0
M  V30 2395 N 221.715 -0.905404 -1.28997 0
M  V30 2396 C 222.961 -0.535039 -1.95615 0
M  V30 2397 C 223.294 0.917404 -1.71165 0
M  V30 2398 O 222.569 1.65123 -1.02785 0
M  V30 2399 C 222.852 -0.834918 -3.50287 0
M  V30 2400 C 222.705 -2.33948 -3.84172 0
M  V30 2401 C 224.024 -0.325318 -4.38896 0
M  V30 2402 H 221.143 -0.195861 -0.710498 0
M  V30 2403 H 223.785 -1.13313 -1.52513 0
M  V30 2404 H 221.935 -0.325904 -3.87131 0
M  V30 2405 H 223.607 -2.91847 -3.57243 0
M  V30 2406 H 221.85 -2.79789 -3.31513 0
M  V30 2407 H 222.521 -2.49987 -4.92149 0
M  V30 2408 H 224.997 -0.761256 -4.09077 0
M  V30 2409 H 223.873 -0.564295 -5.45992 0
M  V30 2410 H 224.134 0.774144 -4.35269 0
M  V30 2411 N 223.193 1.4272 -0.668489 0
M  V30 2412 C 224.439 2.01923 -0.188419 0
M  V30 2413 C 224.772 1.52704 1.19979 0
M  V30 2414 O 224.047 0.726566 1.8042 0
M  V30 2415 C 224.33 3.59451 -0.216085 0
M  V30 2416 C 224.183 4.18864 -1.6393 0
M  V30 2417 C 225.502 4.37903 0.439179 0
M  V30 2418 H 222.621 0.733674 -0.0699412 0
M  V30 2419 H 225.263 1.69822 -0.852076 0
M  V30 2420 H 223.413 3.86929 0.349012 0
M  V30 2421 H 225.085 4.02362 -2.25616 0
M  V30 2422 H 223.328 3.74933 -2.18193 0
M  V30 2423 H 223.999 5.27987 -1.61039 0
M  V30 2424 H 226.475 4.16079 -0.0417878 0
M  V30 2425 H 225.351 5.47519 0.389157 0
M  V30 2426 H 225.612 4.15303 1.51577 0
M  V30 2427 N 224.671 0.411399 1.52136 0
M  V30 2428 C 225.634 -0.401089 2.25663 0
M  V30 2429 C 226.634 -0.971732 1.28117 0
M  V30 2430 O 227.824 -0.850254 1.52041 0
M  V30 2431 C 224.956 -1.56483 3.02863 0
M  V30 2432 H 226.149 0.24295 2.98914 0
M  V30 2433 H 223.702 0.163968 1.55438 0
M  V30 2434 H 224.437 -2.24567 2.33967 0
M  V30 2435 H 224.222 -1.16211 3.74483 0
M  V30 2436 H 225.712 -2.13951 3.58629 0
M  V30 2437 N 226.149 -1.5696 0.141893 0
M  V30 2438 C 227.099 -2.13074 -0.811383 0
M  V30 2439 C 228.083 -1.05726 -1.21288 0
M  V30 2440 O 229.275 -1.31914 -1.18015 0
M  V30 2441 C 226.404 -2.75186 -2.0525 0
M  V30 2442 C 225.49 -3.8965 -1.67432 0
M  V30 2443 N 225.881 -4.95733 -1.0041 0
M  V30 2444 C 224.179 -4.00262 -1.96739 0
M  V30 2445 C 224.88 -5.75858 -0.822345 0
M  V30 2446 N 223.856 -5.26452 -1.3546 0
M  V30 2447 H 227.658 -2.92465 -0.290031 0
M  V30 2448 H 225.172 -1.6229 -0.0598218 0
M  V30 2449 H 227.169 -3.13745 -2.74535 0
M  V30 2450 H 225.829 -1.97266 -2.57907 0
M  V30 2451 H 226.84 -5.13607 -0.665441 0
M  V30 2452 H 223.517 -3.33412 -2.51282 0
M  V30 2453 H 224.907 -6.71254 -0.294496 0
M  V30 2454 N 227.627 0.131896 -1.57047 0
M  V30 2455 C 228.857 0.855219 -1.88068 0
M  V30 2456 C 229.265 1.74557 -0.729817 0
M  V30 2457 O 228.608 1.81083 0.308962 0
M  V30 2458 C 228.67 1.75119 -3.13964 0
M  V30 2459 C 228.334 1.03646 -4.45091 0
M  V30 2460 C 229.331 0.383276 -5.18485 0
M  V30 2461 C 227.016 1.02148 -4.91804 0
M  V30 2462 C 229.01 -0.275347 -6.36805 0
M  V30 2463 C 226.697 0.359047 -6.10044 0
M  V30 2464 C 227.695 -0.288222 -6.82392 0
M  V30 2465 O 227.383 -0.94011 -7.98384 0
M  V30 2466 H 227.115 0.251864 -0.627328 0
M  V30 2467 H 229.669 0.124782 -2.05021 0
M  V30 2468 H 227.899 2.52295 -2.9306 0
M  V30 2469 H 229.588 2.3478 -3.31109 0
M  V30 2470 H 230.354 0.386562 -4.83457 0
M  V30 2471 H 226.233 1.5147 -4.35405 0
M  V30 2472 H 229.777 -0.781148 -6.93213 0
M  V30 2473 H 225.674 0.35348 -6.44531 0
M  V30 2474 H 226.442 -0.84329 -8.14144 0
M  V30 2475 N 229.106 1.52395 0.401703 0
M  V30 2476 C 230.036 1.79231 1.49661 0
M  V30 2477 C 231.017 0.643654 1.57452 0
M  V30 2478 O 232.202 0.889989 1.72606 0
M  V30 2479 C 229.332 1.94971 2.87409 0
M  V30 2480 C 228.286 3.10604 2.94465 0
M  V30 2481 C 227.612 3.11577 4.34538 0
M  V30 2482 C 228.912 4.49921 2.6527 0
M  V30 2483 H 230.606 2.70917 1.27454 0
M  V30 2484 H 228.152 1.30362 0.6117 0
M  V30 2485 H 230.105 2.12328 3.63999 0
M  V30 2486 H 228.829 0.999632 3.10926 0
M  V30 2487 H 227.488 2.93009 2.20321 0
M  V30 2488 H 227.136 2.14277 4.55076 0
M  V30 2489 H 226.836 3.89247 4.40183 0
M  V30 2490 H 228.36 3.31073 5.13053 0
M  V30 2491 H 229.774 4.67683 3.31581 0
M  V30 2492 H 228.171 5.29564 2.82281 0
M  V30 2493 H 229.241 4.57507 1.60671 0
M  V30 2494 N 230.584 -0.659388 1.43143 0
M  V30 2495 C 231.832 -1.41654 1.44147 0
M  V30 2496 C 232.153 -1.94893 0.0645739 0
M  V30 2497 O 231.423 -1.74044 -0.899198 0
M  V30 2498 H 230.003 -0.525708 0.530697 0
M  V30 2499 H 232.665 -0.778097 1.78694 0
M  V30 2500 H 231.761 -2.26195 2.1504 0
M  V30 2501 N 232.062 -1.29571 -0.897171 0
M  V30 2502 C 233.308 -1.17863 -1.65034 0
M  V30 2503 C 233.641 0.268729 -1.92332 0
M  V30 2504 O 232.916 1.19378 -1.53555 0
M  V30 2505 C 233.199 -1.995 -2.99786 0
M  V30 2506 C 233.052 -3.5239 -2.79538 0
M  V30 2507 C 234.371 -1.82335 -4.00552 0
M  V30 2508 H 231.49 -0.429528 -0.598895 0
M  V30 2509 H 234.132 -1.59072 -1.03905 0
M  V30 2510 H 232.282 -1.64485 -3.51962 0
M  V30 2511 H 233.954 -3.97401 -2.34244 0
M  V30 2512 H 232.197 -3.77187 -2.14273 0
M  V30 2513 H 232.868 -4.04787 -3.75302 0
M  V30 2514 H 235.344 -2.12924 -3.57495 0
M  V30 2515 H 234.22 -2.41801 -4.92771 0
M  V30 2516 H 234.481 -0.779209 -4.35179 0
M  V30 2517 N 233.54 1.10788 -1.12088 0
M  V30 2518 C 234.951 1.64181 -0.88891 0
M  V30 2519 C 235.302 1.87508 0.577498 0
M  V30 2520 O 234.427 1.61434 1.44112 0
M  V30 2521 C 235.022 2.98257 -1.60712 0
M  V30 2522 C 233.581 3.4853 -1.42139 0
M  V30 2523 C 232.728 2.23208 -1.6454 0
M  V30 2524 H 235.679 0.943368 -1.27618 0
M  V30 2525 H 235.7 3.65552 -1.05604 0
M  V30 2526 H 235.212 2.81246 -2.67436 0
M  V30 2527 H 233.313 3.70692 -0.376552 0
M  V30 2528 H 233.426 4.26882 -2.17505 0
M  V30 2529 H 231.79 2.31169 -1.06925 0
M  V30 2530 H 232.573 2.08733 -2.72554 0
M  V30 2531 N 235.018 0.912232 1.28515 0
M  V30 2532 C 235.928 0.404506 2.31086 0
M  V30 2533 C 236.944 -0.50707 1.66448 0
M  V30 2534 O 238.12 -0.393624 1.97516 0
M  V30 2535 C 235.185 -0.348572 3.44943 0
M  V30 2536 C 234.246 0.59604 4.25142 0
M  V30 2537 C 233.479 -0.121194 5.33562 0
M  V30 2538 O 233.702 -1.34317 5.5436 0
M  V30 2539 O 232.636 0.542716 5.99448 0
M  V30 2540 H 236.462 1.25579 2.76521 0
M  V30 2541 H 234.047 0.676998 1.33181 0
M  V30 2542 H 235.929 -0.77395 4.14232 0
M  V30 2543 H 234.604 -1.17571 3.01594 0
M  V30 2544 H 233.511 1.07079 3.58448 0
M  V30 2545 H 234.844 1.38995 4.72167 0
M  V30 2546 N 236.496 -1.42363 0.676048 0
M  V30 2547 C 237.406 -2.346 -0.00153389 0
M  V30 2548 C 238.422 -1.5516 -0.787485 0
M  V30 2549 O 239.598 -1.87723 -0.729521 0
M  V30 2550 C 236.663 -3.33705 -0.940298 0
M  V30 2551 C 235.724 -4.29042 -0.148739 0
M  V30 2552 C 234.957 -5.23413 -1.04279 0
M  V30 2553 O 235.18 -5.22749 -2.28232 0
M  V30 2554 O 234.114 -5.99795 -0.502925 0
M  V30 2555 H 237.94 -2.94082 0.758268 0
M  V30 2556 H 235.525 -1.42888 0.436289 0
M  V30 2557 H 237.407 -3.94586 -1.47917 0
M  V30 2558 H 236.082 -2.76695 -1.67993 0
M  V30 2559 H 234.989 -3.71571 0.43427 0
M  V30 2560 H 236.322 -4.89097 0.551805 0
M  V30 2561 N 237.974 -0.419461 -1.51915 0
M  V30 2562 C 239.251 0.211999 -1.94448 0
M  V30 2563 C 239.631 1.61703 -1.35703 0
M  V30 2564 O 238.979 2.22102 -0.536931 0
M  V30 2565 C 239.189 0.207872 -3.4838 0
M  V30 2566 C 240.537 0.422192 -4.22496 0
M  V30 2567 O 241.561 0.286778 -3.55044 0
M  V30 2568 O 240.42 0.690009 -5.42126 0
M  V30 2569 H 237.514 0.139586 -0.815135 0
M  V30 2570 H 240.06 -0.476151 -1.62883 0
M  V30 2571 H 238.832 -0.775102 -3.83546 0
M  V30 2572 H 238.455 0.939688 -3.86336 0
M  V30 2573 N 239.452 1.56882 -0.150215 0
M  V30 2574 C 240.698 1.97299 0.494427 0
M  V30 2575 C 241.053 1.0338 1.62266 0
M  V30 2576 O 240.346 0.0694497 1.91474 0
M  V30 2577 C 240.54 3.41801 1.04437 0
M  V30 2578 C 240.369 4.49691 -0.0290451 0
M  V30 2579 C 239.139 5.03095 -0.47156 0
M  V30 2580 C 241.337 5.07693 -0.821703 0
M  V30 2581 N 239.319 5.94593 -1.52749 0
M  V30 2582 C 240.69 5.95431 -1.72805 0
M  V30 2583 C 242.745 4.90256 -0.869134 0
M  V30 2584 C 241.448 6.67599 -2.67777 0
M  V30 2585 C 243.474 5.63127 -1.8067 0
M  V30 2586 C 242.836 6.50576 -2.70057 0
M  V30 2587 H 238.935 0.76755 0.149639 0
M  V30 2588 H 241.519 1.93145 -0.24556 0
M  V30 2589 H 239.69 3.46541 1.75396 0
M  V30 2590 H 241.422 3.69272 1.6559 0
M  V30 2591 H 238.177 4.73543 -0.0732101 0
M  V30 2592 H 238.601 6.45047 -2.05531 0
M  V30 2593 H 243.243 4.22363 -0.192134 0
M  V30 2594 H 240.961 7.34717 -3.36476 0
M  V30 2595 H 244.547 5.51629 -1.84924 0
M  V30 2596 H 243.427 7.05974 -3.41424 0
M  V30 2597 N 240.93 -0.123565 1.57115 0
M  V30 2598 C 242.158 -0.846461 1.88793 0
M  V30 2599 C 242.573 -1.73652 0.740976 0
M  V30 2600 O 241.93 -1.80207 -0.288393 0
M  V30 2601 C 241.981 -1.6837 3.19897 0
M  V30 2602 O 241.702 -0.829477 4.30176 0
M  V30 2603 C 243.203 -2.51214 3.65248 0
M  V30 2604 H 240.423 -0.243573 0.625231 0
M  V30 2605 H 242.967 -0.109324 2.04208 0
M  V30 2606 H 241.122 -2.37364 3.06165 0
M  V30 2607 H 241.536 -1.40651 5.0529 0
M  V30 2608 H 243.01 -3.05497 4.59756 0
M  V30 2609 H 243.487 -3.28359 2.9168 0
M  V30 2610 H 244.093 -1.8747 3.81752 0
M  V30 2611 N 242.408 -1.52605 -0.393616 0
M  V30 2612 C 243.34 -1.73303 -1.49995 0
M  V30 2613 C 244.353 -0.613473 -1.50799 0
M  V30 2614 O 245.542 -0.889049 -1.54784 0
M  V30 2615 C 242.642 -1.77245 -2.88855 0
M  V30 2616 C 241.815 -3.06483 -3.12069 0
M  V30 2617 C 240.874 -3.02033 -4.30886 0
M  V30 2618 O 239.9 -3.75907 -4.27414 0
M  V30 2619 N 241.102 -2.20897 -5.36828 0
M  V30 2620 H 243.867 -2.68756 -1.32629 0
M  V30 2621 H 241.428 -1.51036 -0.583083 0
M  V30 2622 H 243.42 -1.7178 -3.66434 0
M  V30 2623 H 241.99 -0.891993 -2.99603 0
M  V30 2624 H 241.21 -3.25474 -2.22396 0
M  V30 2625 H 242.498 -3.91947 -3.2443 0
M  V30 2626 H 241.896 -1.60336 -5.42502 0
M  V30 2627 H 240.453 -2.21275 -6.13091 0
M  V30 2628 N 243.887 0.651787 -1.4349 0
M  V30 2629 C 245.134 1.41167 -1.45183 0
M  V30 2630 C 245.462 1.94349 -0.0766601 0
M  V30 2631 O 244.717 1.72804 0.918555 0
M  V30 2632 C 245.016 2.60914 -2.44251 0
M  V30 2633 C 244.682 2.26142 -3.9009 0
M  V30 2634 C 243.344 2.16371 -4.2981 0
M  V30 2635 C 245.696 1.98334 -4.81989 0
M  V30 2636 C 243.024 1.7695 -5.5938 0
M  V30 2637 C 245.376 1.6041 -6.11924 0
M  V30 2638 C 244.04 1.49166 -6.5062 0
M  V30 2639 H 243.31 0.516566 -0.531263 0
M  V30 2640 H 245.957 0.741099 -1.76579 0
M  V30 2641 H 244.262 3.3311 -2.06265 0
M  V30 2642 H 245.959 3.19127 -2.42815 0
M  V30 2643 H 242.549 2.34658 -3.58655 0
M  V30 2644 H 246.733 2.04803 -4.52072 0
M  V30 2645 H 241.989 1.66831 -5.88198 0
M  V30 2646 H 246.163 1.37925 -6.82605 0
M  V30 2647 H 243.79 1.1839 -7.50925 0
M  V30 2648 N 245.365 1.30045 0.890287 0
M  V30 2649 C 246.642 1.09227 1.62262 0
M  V30 2650 C 247.022 -0.360305 2.08002 0
M  V30 2651 O 246.37 -1.35084 1.84295 0
M  V30 2652 C 246.58 2.08835 2.79623 0
M  V30 2653 C 247.928 2.40266 3.50082 0
M  V30 2654 O 248.952 2.07104 2.89804 0
M  V30 2655 O 247.811 2.96967 4.58773 0
M  V30 2656 H 244.905 0.419132 0.712922 0
M  V30 2657 H 247.451 1.41451 0.937529 0
M  V30 2658 H 246.223 3.06633 2.43089 0
M  V30 2659 H 245.846 1.77397 3.55832 0
M  V30 2660 N 246.843 -1.10192 1.12674 0
M  V30 2661 C 248.091 -1.81845 0.881861 0
M  V30 2662 C 248.412 -1.85737 -0.593867 0
M  V30 2663 O 247.682 -1.33724 -1.4316 0
M  V30 2664 H 246.262 -0.673432 0.323261 0
M  V30 2665 H 248.924 -1.33316 1.42172 0
M  V30 2666 H 248.02 -2.85288 1.2656 0
M  V30 2667 N 248.321 -0.919034 -1.28029 0
M  V30 2668 C 249.567 -0.565221 -1.95389 0
M  V30 2669 C 249.922 0.882325 -1.70976 0
M  V30 2670 O 249.215 1.61988 -1.02325 0
M  V30 2671 C 249.409 -0.816855 -3.4794 0
M  V30 2672 C 249.238 -2.28731 -3.87185 0
M  V30 2673 C 248.008 -2.93841 -4.11079 0
M  V30 2674 C 250.206 -3.26415 -3.97439 0
M  V30 2675 N 248.188 -4.31129 -4.37037 0
M  V30 2676 C 249.559 -4.48884 -4.27672 0
M  V30 2677 C 251.614 -3.21742 -3.79982 0
M  V30 2678 C 250.317 -5.67268 -4.42266 0
M  V30 2679 C 252.343 -4.39431 -3.95796 0
M  V30 2680 C 251.705 -5.60675 -4.26407 0
M  V30 2681 H 247.804 -0.256797 -0.738633 0
M  V30 2682 H 250.388 -1.18386 -1.54573 0
M  V30 2683 H 248.559 -0.227445 -3.87733 0
M  V30 2684 H 250.291 -0.426542 -4.02446 0
M  V30 2685 H 247.046 -2.44547 -4.05578 0
M  V30 2686 H 247.47 -5.02127 -4.5409 0
M  V30 2687 H 252.112 -2.29079 -3.55363 0
M  V30 2688 H 249.83 -6.60406 -4.65714 0
M  V30 2689 H 253.416 -4.37323 -3.83719 0
M  V30 2690 H 252.296 -6.50223 -4.38383 0
M  V30 2691 N 249.799 1.42003 -0.683588 0
M  V30 2692 C 251.027 2.05746 -0.218182 0
M  V30 2693 C 251.442 1.51396 1.12804 0
M  V30 2694 O 250.799 0.657303 1.70252 0
M  V30 2695 C 250.85 3.61171 -0.154131 0
M  V30 2696 O 250.571 4.13508 -1.44716 0
M  V30 2697 C 252.072 4.42042 0.333713 0
M  V30 2698 H 249.292 0.662888 -0.10402 0
M  V30 2699 H 251.836 1.81987 -0.9328 0
M  V30 2700 H 249.991 3.84012 0.511231 0
M  V30 2701 H 250.405 5.07453 -1.32632 0
M  V30 2702 H 251.879 5.51028 0.327423 0
M  V30 2703 H 252.356 4.17269 1.37053 0
M  V30 2704 H 252.962 4.24239 -0.300222 0
M  V30 2705 N 251.277 0.427512 1.51691 0
M  V30 2706 C 252.209 -0.424521 2.25234 0
M  V30 2707 C 253.222 -0.994671 1.2888 0
M  V30 2708 O 254.411 -0.890483 1.54702 0
M  V30 2709 C 251.511 -1.60479 2.98496 0
M  V30 2710 C 250.684 -1.15527 4.21868 0
M  V30 2711 C 249.743 -2.20454 4.77793 0
M  V30 2712 O 248.769 -1.8029 5.39893 0
M  V30 2713 N 249.971 -3.52831 4.60967 0
M  V30 2714 H 252.736 0.205749 2.98993 0
M  V30 2715 H 250.297 0.255867 1.59865 0
M  V30 2716 H 252.289 -2.30276 3.32799 0
M  V30 2717 H 250.859 -2.14061 2.27809 0
M  V30 2718 H 250.079 -0.284736 3.9317 0
M  V30 2719 H 251.367 -0.832173 5.01949 0
M  V30 2720 H 250.765 -3.88201 4.11481 0
M  V30 2721 H 249.322 -4.18551 4.99658 0
M  V30 2722 N 252.755 -1.56801 0.158532 0
M  V30 2723 C 253.718 -2.16138 -0.762705 0
M  V30 2724 C 254.718 -1.1061 -1.16713 0
M  V30 2725 O 255.908 -1.36191 -1.08617 0
M  V30 2726 C 253.04 -2.73386 -2.03649 0
M  V30 2727 H 254.233 -2.98886 -0.246354 0
M  V30 2728 H 251.786 -1.56035 -0.0909744 0
M  V30 2729 H 252.521 -1.94335 -2.59623 0
M  V30 2730 H 252.306 -3.50601 -1.75559 0
M  V30 2731 H 253.796 -3.19065 -2.6942 0
M  V30 2732 N 254.233 0.115231 -1.57178 0
M  V30 2733 C 255.482 0.820945 -1.84237 0
M  V30 2734 C 255.795 1.80866 -0.744761 0
M  V30 2735 O 257.001 2.56083 -0.901871 0
M  V30 2736 C 255.457 1.51072 -3.26658 0
M  V30 2737 C 255.065 0.563795 -4.44438 0
M  V30 2738 C 256.809 2.20134 -3.62962 0
M  V30 2739 C 254.716 1.25701 -5.77887 0
M  V30 2740 H 253.646 0.310328 -0.687177 0
M  V30 2741 H 256.297 0.0737134 -1.83352 0
M  V30 2742 H 254.679 2.30471 -3.22024 0
M  V30 2743 H 255.853 -0.197247 -4.60378 0
M  V30 2744 H 254.168 -0.0200638 -4.16395 0
M  V30 2745 H 256.765 2.72696 -4.59936 0
M  V30 2746 H 257.108 2.98107 -2.90582 0
M  V30 2747 H 257.641 1.47619 -3.69396 0
M  V30 2748 H 254.38 0.518493 -6.53446 0
M  V30 2749 H 253.9 1.98997 -5.65827 0
M  V30 2750 H 255.579 1.78915 -6.2177 0
M  V30 2751 N 255.711 1.52812 0.385517 0
M  V30 2752 C 256.957 1.68275 1.13188 0
M  V30 2753 C 257.29 0.423179 1.89533 0
M  V30 2754 O 256.565 -0.579113 1.85679 0
M  V30 2755 C 256.848 2.92001 2.1073 0
M  V30 2756 C 256.701 4.28067 1.38125 0
M  V30 2757 C 258.02 3.11283 3.11113 0
M  V30 2758 H 255.139 0.612352 0.410115 0
M  V30 2759 H 257.781 1.85415 0.414869 0
M  V30 2760 H 255.931 2.77519 2.71874 0
M  V30 2761 H 257.603 4.54324 0.799187 0
M  V30 2762 H 255.846 4.28388 0.683092 0
M  V30 2763 H 256.517 5.10733 2.09417 0
M  V30 2764 H 258.993 3.2482 2.6006 0
M  V30 2765 H 257.869 3.99325 3.76605 0
M  V30 2766 H 258.13 2.25656 3.80173 0
M  V30 2767 N 257.189 -0.644168 1.43834 0
M  V30 2768 C 258.152 -1.73857 1.49353 0
M  V30 2769 C 259.152 -1.56315 0.377112 0
M  V30 2770 O 260.342 -1.62048 0.639226 0
M  V30 2771 C 257.474 -3.12819 1.35488 0
M  V30 2772 H 258.667 -1.70342 2.46827 0
M  V30 2773 H 256.22 -0.856652 1.30733 0
M  V30 2774 H 256.955 -3.2194 0.390569 0
M  V30 2775 H 256.74 -3.26958 2.16428 0
M  V30 2776 H 258.23 -3.92606 1.42302 0
M  V30 2777 N 258.668 -1.30515 -0.883378 0
M  V30 2778 C 259.631 -1.1701 -1.97082 0
M  V30 2779 C 260.631 -0.10089 -1.60483 0
M  V30 2780 O 261.821 -0.349127 -1.70666 0
M  V30 2781 C 258.953 -0.793045 -3.31547 0
M  V30 2782 H 260.146 -2.13622 -2.10489 0
M  V30 2783 H 257.699 -1.13935 -1.06998 0
M  V30 2784 H 258.434 0.172499 -3.23841 0
M  V30 2785 H 258.219 -1.56576 -3.5948 0
M  V30 2786 H 259.709 -0.722073 -4.1131 0
M  V30 2787 N 260.146 1.09593 -1.13257 0
M  V30 2788 C 261.094 2.18271 -0.803783 0
M  V30 2789 C 262.088 1.68054 0.213148 0
M  V30 2790 O 263.294 1.79862 0.0704699 0
M  V30 2791 H 259.669 0.711949 -0.242143 0
M  V30 2792 H 261.64 2.43235 -1.72856 0
M  V30 2793 C 260.389 3.46536 -0.28424 0
M  V30 2794 H 259.712 3.85545 -1.05807 0
M  V30 2795 H 261.152 4.23899 -0.0925945 0
M  V30 2796 C 259.611 3.22036 0.989684 0
M  V30 2797 O 260.141 3.44509 2.06584 0
M  V30 2798 N 258.347 2.7565 0.920086 0
M  V30 2799 H 257.894 2.57562 0.0442019 0
M  V30 2800 H 257.852 2.59635 1.77306 0
M  V30 2801 N 261.624 0.925811 1.2754 0
M  V30 2802 C 262.587 0.428129 2.25166 0
M  V30 2803 C 263.587 -0.452261 1.54309 0
M  V30 2804 O 264.777 -0.253608 1.72344 0
M  V30 2805 C 261.909 -0.384749 3.38722 0
M  V30 2806 H 263.102 1.29066 2.70706 0
M  V30 2807 H 260.655 0.706323 1.3943 0
M  V30 2808 H 261.39 -1.26618 2.98561 0
M  V30 2809 H 261.175 0.246454 3.91325 0
M  V30 2810 H 262.665 -0.723389 4.11287 0
M  V30 2811 N 263.102 -1.41638 0.69111 0
M  V30 2812 C 264.348 -2.01598 0.220519 0
M  V30 2813 C 264.681 -1.54594 -1.17535 0
M  V30 2814 O 263.956 -0.755177 -1.79241 0
M  V30 2815 C 264.239 -3.59062 0.273243 0
M  V30 2816 C 264.092 -4.16203 1.70573 0
M  V30 2817 C 265.411 -4.38546 -0.369457 0
M  V30 2818 H 262.53 -0.732468 0.0816045 0
M  V30 2819 H 265.172 -1.68445 0.878986 0
M  V30 2820 H 263.322 -3.87435 -0.287411 0
M  V30 2821 H 264.994 -3.98722 2.31989 0
M  V30 2822 H 263.237 -3.71414 2.2413 0
M  V30 2823 H 263.908 -5.25358 1.69419 0
M  V30 2824 H 266.384 -4.1596 0.107977 0
M  V30 2825 H 265.26 -5.48069 -0.302002 0
M  V30 2826 H 265.521 -4.17662 -1.44951 0
M  V30 2827 N 264.58 -0.43555 -1.51462 0
M  V30 2828 C 265.857 0.191364 -1.94662 0
M  V30 2829 C 266.237 1.60254 -1.37411 0
M  V30 2830 O 265.585 2.2152 -0.560458 0
M  V30 2831 C 265.795 0.17091 -3.48581 0
M  V30 2832 C 267.143 0.377357 -4.2292 0
M  V30 2833 O 268.167 0.249104 -3.55328 0
M  V30 2834 O 267.026 0.63247 -5.42828 0
M  V30 2835 H 264.12 0.130932 -0.816569 0
M  V30 2836 H 266.666 -0.4934 -1.62369 0
M  V30 2837 H 265.438 -0.815738 -3.82703 0
M  V30 2838 H 265.061 0.898659 -3.87311 0
M  V30 2839 N 266.058 1.56714 -0.166846 0
M  V30 2840 C 267.306 1.96358 0.478305 0
M  V30 2841 C 267.627 1.0537 1.6408 0
M  V30 2842 O 266.897 0.119154 1.95537 0
M  V30 2843 H 265.477 0.725065 0.179692 0
M  V30 2844 H 268.139 1.93329 -0.246985 0
M  V30 2845 H 267.235 3.00547 0.841292 0
M  V30 2846 N 267.536 -0.106894 1.57237 0
M  V30 2847 C 268.499 -1.11466 2.0027 0
M  V30 2848 C 269.499 -1.33623 0.894519 0
M  V30 2849 O 270.689 -1.29935 1.16028 0
M  V30 2850 C 267.821 -2.46646 2.35327 0
M  V30 2851 H 269.014 -0.744516 2.90512 0
M  V30 2852 H 266.567 -0.351576 1.52295 0
M  V30 2853 H 267.302 -2.88558 1.48003 0
M  V30 2854 H 267.087 -2.31915 3.16161 0
M  V30 2855 H 268.577 -3.19151 2.69318 0
M  V30 2856 N 269.014 -1.53014 -0.377408 0
M  V30 2857 C 270.242 -1.72515 -1.14219 0
M  V30 2858 C 270.657 -0.448735 -1.8339 0
M  V30 2859 O 270.014 0.577592 -1.73119 0
M  V30 2860 C 270.065 -2.8826 -2.18148 0
M  V30 2861 O 269.786 -4.10962 -1.51795 0
M  V30 2862 C 271.287 -3.19536 -3.07264 0
M  V30 2863 H 268.507 -0.577301 -0.342001 0
M  V30 2864 H 271.051 -1.99712 -0.439935 0
M  V30 2865 H 269.206 -2.63492 -2.83991 0
M  V30 2866 H 269.62 -4.75693 -2.20945 0
M  V30 2867 H 271.094 -4.03959 -3.76193 0
M  V30 2868 H 271.571 -2.34403 -3.71419 0
M  V30 2869 H 272.177 -3.46186 -2.47053 0
M  V30 2870 N 270.492 0.636531 -1.44174 0
M  V30 2871 C 271.72 1.42353 -1.50144 0
M  V30 2872 C 272.135 1.88389 -0.124575 0
M  V30 2873 O 271.492 1.6051 0.868489 0
M  V30 2874 C 271.543 2.64744 -2.46156 0
M  V30 2875 O 271.264 2.20629 -3.7849 0
M  V30 2876 C 272.765 3.57929 -2.61537 0
M  V30 2877 H 269.985 0.436752 -0.5094 0
M  V30 2878 H 272.529 0.778933 -1.89084 0
M  V30 2879 H 270.684 3.25307 -2.10366 0
M  V30 2880 H 271.098 2.99938 -4.30276 0
M  V30 2881 H 272.572 4.40428 -3.32757 0
M  V30 2882 H 273.049 4.06382 -1.66585 0
M  V30 2883 H 273.655 3.03238 -2.98206 0
M  V30 2884 N 271.97 1.30982 0.876444 0
M  V30 2885 C 273.218 1.20058 1.62575 0
M  V30 2886 C 273.539 -0.242947 1.93481 0
M  V30 2887 O 272.809 -1.1619 1.57724 0
M  V30 2888 H 271.389 0.44135 0.602677 0
M  V30 2889 H 274.051 1.64222 1.04962 0
M  V30 2890 H 273.147 1.76762 2.57219 0
M  V30 2891 N 273.449 -1.08991 1.13837 0
M  V30 2892 C 274.412 -2.13925 0.822715 0
M  V30 2893 C 275.412 -1.599 -0.1699 0
M  V30 2894 O 276.602 -1.74104 0.0577251 0
M  V30 2895 C 273.734 -3.40155 0.225318 0
M  V30 2896 H 274.927 -2.43358 1.75262 0
M  V30 2897 H 272.48 -1.24603 0.943594 0
M  V30 2898 H 273.215 -3.16352 -0.713594 0
M  V30 2899 H 273 -3.80661 0.940193 0
M  V30 2900 H 274.49 -4.17594 0.0214784 0
M  V30 2901 N 274.927 -0.932562 -1.27047 0
M  V30 2902 C 275.857 -0.452902 -2.29066 0
M  V30 2903 C 276.838 0.489338 -1.62909 0
M  V30 2904 O 278.023 0.393046 -1.90181 0
M  V30 2905 C 275.153 0.290698 -3.46081 0
M  V30 2906 C 274.107 -0.564168 -4.24265 0
M  V30 2907 C 273.433 0.308886 -5.33807 0
M  V30 2908 C 274.733 -1.83112 -4.89149 0
M  V30 2909 H 276.427 -1.30552 -2.69437 0
M  V30 2910 H 273.973 -0.629201 -1.29526 0
M  V30 2911 H 275.926 0.637233 -4.16554 0
M  V30 2912 H 274.65 1.17738 -3.0464 0
M  V30 2913 H 273.309 -0.893477 -3.55545 0
M  V30 2914 H 272.957 1.19467 -4.88607 0
M  V30 2915 H 272.657 -0.259633 -5.87026 0
M  V30 2916 H 274.181 0.650884 -6.07121 0
M  V30 2917 H 275.595 -1.55236 -5.51883 0
M  V30 2918 H 273.992 -2.34353 -5.52448 0
M  V30 2919 H 275.062 -2.54772 -4.12576 0
M  V30 2920 N 276.405 1.4127 -0.698611 0
M  V30 2921 C 277.682 1.94955 -0.158762 0
M  V30 2922 C 278.062 1.63781 1.33188 0
M  V30 2923 O 277.41 0.946423 2.07979 0
M  V30 2924 C 277.62 3.46044 -0.453309 0
M  V30 2925 C 278.968 4.22872 -0.382707 0
M  V30 2926 O 279.992 3.54076 -0.388396 0
M  V30 2927 O 278.851 5.45407 -0.345463 0
M  V30 2928 H 275.945 0.82683 -0.0167505 0
M  V30 2929 H 278.491 1.50971 -0.77498 0
M  V30 2930 H 277.263 3.62028 -1.48498 0
M  V30 2931 H 276.886 3.97128 0.19373 0
M  V30 2932 N 277.883 0.443576 1.51229 0
M  V30 2933 C 278.846 -0.353132 2.26463 0
M  V30 2934 C 279.846 -0.944338 1.3015 0
M  V30 2935 O 281.036 -0.817813 1.5381 0
M  V30 2936 C 278.168 -1.50023 3.06114 0
M  V30 2937 H 279.361 0.3063 2.98332 0
M  V30 2938 H 276.914 0.196902 1.55055 0
M  V30 2939 H 277.649 -2.19553 2.38677 0
M  V30 2940 H 277.434 -1.08241 3.76864 0
M  V30 2941 H 278.924 -2.06296 3.63087 0
M  V30 2942 N 279.361 -1.56624 0.175154 0
M  V30 2943 C 280.607 -1.9729 -0.469506 0
M  V30 2944 C 280.94 -1.06128 -1.62636 0
M  V30 2945 O 280.215 -0.109183 -1.94193 0
M  V30 2946 C 280.498 -3.47375 -0.948804 0
M  V30 2947 C 280.351 -4.49317 0.208491 0
M  V30 2948 C 281.67 -4.00652 -1.82116 0
M  V30 2949 H 278.789 -0.717317 -0.16919 0
M  V30 2950 H 281.431 -1.88184 0.262062 0
M  V30 2951 H 279.581 -3.55267 -1.57219 0
M  V30 2952 H 281.253 -4.53482 0.845682 0
M  V30 2953 H 279.496 -4.25121 0.863395 0
M  V30 2954 H 280.167 -5.51741 -0.169059 0
M  V30 2955 H 282.643 -3.95416 -1.2956 0
M  V30 2956 H 281.519 -5.06075 -2.12554 0
M  V30 2957 H 281.78 -3.44699 -2.7683 0
M  V30 2958 N 280.839 0.0985539 -1.57292 0
M  V30 2959 C 282.087 0.801092 -1.85545 0
M  V30 2960 C 282.408 1.79438 -0.763353 0
M  V30 2961 O 281.678 1.94763 0.21073 0
M  V30 2962 H 280.258 0.29884 -0.684619 0
M  V30 2963 H 282.92 0.0810064 -1.94732 0
M  V30 2964 H 282.016 1.3338 -2.82163 0
M  V30 2965 N 282.317 1.53212 0.369288 0
M  V30 2966 C 283.542 1.73423 1.1375 0
M  V30 2967 C 283.967 0.460404 1.82378 0
M  V30 2968 O 283.325 -0.585298 1.71592 0
M  V30 2969 C 283.373 2.89769 2.1463 0
M  V30 2970 O 282.477 2.58119 3.21634 0
M  V30 2971 H 281.818 0.576061 0.330227 0
M  V30 2972 H 284.348 2.00083 0.427547 0
M  V30 2973 H 284.358 3.15829 2.58294 0
M  V30 2974 H 283.033 3.8217 1.64071 0
M  V30 2975 H 281.61 2.42864 2.82969 0
M  V30 2976 N 283.795 -0.628877 1.44509 0
M  V30 2977 C 284.728 -1.75367 1.46019 0
M  V30 2978 C 285.706 -1.59444 0.318787 0
M  V30 2979 O 286.89 -1.81297 0.516099 0
M  V30 2980 C 284.017 -3.12965 1.29501 0
M  V30 2981 C 283.063 -3.47532 2.47233 0
M  V30 2982 S 283.896 -3.44758 4.09758 0
M  V30 2983 C 285.052 -4.84973 3.95667 0
M  V30 2984 H 285.285 -1.7382 2.41193 0
M  V30 2985 H 282.818 -0.803686 1.31834 0
M  V30 2986 H 284.776 -3.92367 1.20658 0
M  V30 2987 H 283.437 -3.12049 0.358341 0
M  V30 2988 H 282.63 -4.47664 2.31544 0
M  V30 2989 H 282.232 -2.75598 2.52828 0
M  V30 2990 H 284.524 -5.74255 3.59496 0
M  V30 2991 H 285.467 -5.05716 4.95638 0
M  V30 2992 H 285.875 -4.59653 3.27688 0
M  V30 2993 N 285.273 -1.31445 -0.869486 0
M  V30 2994 C 286.206 -1.13465 -1.97992 0
M  V30 2995 C 287.184 -0.0380291 -1.62556 0
M  V30 2996 O 288.368 -0.194544 -1.87493 0
M  V30 2997 C 285.495 -0.733822 -3.30655 0
M  V30 2998 C 284.541 -1.83356 -3.85075 0
M  V30 2999 S 285.374 -3.43909 -4.10472 0
M  V30 3000 C 286.53 -3.05763 -5.46132 0
M  V30 3001 H 286.763 -2.07471 -2.1294 0
M  V30 3002 H 284.296 -1.15936 -1.01972 0
M  V30 3003 H 286.254 -0.509306 -4.07328 0
M  V30 3004 H 284.915 0.187123 -3.13542 0
M  V30 3005 H 284.108 -1.50574 -4.80982 0
M  V30 3006 H 283.71 -2.01315 -3.15195 0
M  V30 3007 H 286.002 -2.54686 -6.27807 0
M  V30 3008 H 286.945 -4.00635 -5.83864 0
M  V30 3009 H 287.353 -2.43192 -5.09429 0
M  V30 3010 N 286.751 1.08385 -1.14413 0
M  V30 3011 C 287.714 2.13486 -0.834048 0
M  V30 3012 C 288.714 1.59988 0.161418 0
M  V30 3013 O 289.904 1.74071 -0.0669575 0
M  V30 3014 C 287.036 3.4003 -0.243354 0
M  V30 3015 H 288.229 2.42425 -1.7655 0
M  V30 3016 H 285.782 1.24101 -0.950189 0
M  V30 3017 H 286.517 3.16726 0.696807 0
M  V30 3018 H 286.302 3.80157 -0.960367 0
M  V30 3019 H 287.792 4.17577 -0.0436242 0
M  V30 3020 N 288.23 0.939286 1.26551 0
M  V30 3021 C 289.46 0.601663 1.97645 0
M  V30 3022 C 289.868 -0.827206 1.70159 0
M  V30 3023 O 289.211 -1.56291 0.965338 0
M  V30 3024 C 289.273 0.761725 3.51337 0
M  V30 3025 C 288.937 2.16487 4.0247 0
M  V30 3026 C 289.934 3.14016 4.14355 0
M  V30 3027 C 287.619 2.48494 4.36527 0
M  V30 3028 C 289.613 4.41654 4.59587 0
M  V30 3029 C 287.3 3.76364 4.81449 0
M  V30 3030 C 288.298 4.72758 4.92939 0
M  V30 3031 O 287.986 5.98352 5.36871 0
M  V30 3032 H 287.718 0.225758 0.637189 0
M  V30 3033 H 290.272 1.26178 1.62075 0
M  V30 3034 H 288.502 0.0444808 3.86674 0
M  V30 3035 H 290.191 0.427442 4.03643 0
M  V30 3036 H 290.957 2.90613 3.8829 0
M  V30 3037 H 286.836 1.74202 4.26819 0
M  V30 3038 H 290.38 5.16896 4.68471 0
M  V30 3039 H 286.277 3.99582 5.06956 0
M  V30 3040 H 287.045 6.01507 5.55096 0
M  V30 3041 N 289.708 -1.40897 0.706093 0
M  V30 3042 C 290.955 -2.01054 0.241531 0
M  V30 3043 C 291.283 -1.55956 -1.16223 0
M  V30 3044 O 290.538 -0.766336 -1.80072 0
M  V30 3045 C 290.837 -3.5646 0.259099 0
M  V30 3046 C 290.503 -4.21106 1.61184 0
M  V30 3047 C 289.165 -4.38479 1.98216 0
M  V30 3048 C 291.517 -4.57256 2.50132 0
M  V30 3049 C 288.845 -4.89282 3.2376 0
M  V30 3050 C 291.197 -5.09454 3.7502 0
M  V30 3051 C 289.861 -5.25037 4.12181 0
M  V30 3052 H 289.131 -0.73571 0.0883825 0
M  V30 3053 H 291.778 -1.68645 0.907257 0
M  V30 3054 H 290.083 -3.88721 -0.490189 0
M  V30 3055 H 291.78 -4.00826 -0.11804 0
M  V30 3056 H 288.37 -4.07966 1.31384 0
M  V30 3057 H 292.554 -4.43479 2.228 0
M  V30 3058 H 287.81 -4.99531 3.52532 0
M  V30 3059 H 291.984 -5.36404 4.44121 0
M  V30 3060 H 289.611 -5.64164 5.09532 0
M  V30 3061 N 291.186 -0.45159 -1.50991 0
M  V30 3062 C 292.414 0.108334 -2.06616 0
M  V30 3063 C 292.829 1.35224 -1.31757 0
M  V30 3064 O 292.186 1.78475 -0.381174 0
M  V30 3065 C 292.237 0.41619 -3.59096 0
M  V30 3066 O 291.958 -0.778361 -4.3113 0
M  V30 3067 C 293.459 1.02523 -4.31282 0
M  V30 3068 H 290.679 0.00159995 -0.670998 0
M  V30 3069 H 293.223 -0.634771 -1.94399 0
M  V30 3070 H 291.378 1.10921 -3.71181 0
M  V30 3071 H 291.792 -0.511181 -5.22003 0
M  V30 3072 H 293.266 1.19053 -5.39009 0
M  V30 3073 H 293.743 2.01013 -3.905 0
M  V30 3074 H 294.349 0.371173 -4.23677 0
M  V30 3075 N 292.664 1.56529 -0.183458 0
M  V30 3076 C 293.912 1.96855 0.457452 0
M  V30 3077 C 294.233 1.07104 1.62953 0
M  V30 3078 O 293.503 0.139887 1.954 0
M  V30 3079 H 292.083 0.72693 0.171992 0
M  V30 3080 H 294.745 1.93056 -0.267476 0
M  V30 3081 H 293.841 3.01423 0.809368 0
M  V30 3082 N 294.142 -0.090211 1.57342 0
M  V30 3083 C 295.072 -1.10976 2.05443 0
M  V30 3084 C 296.053 -1.41482 0.944284 0
M  V30 3085 O 297.238 -1.51428 1.21586 0
M  V30 3086 C 294.368 -2.42831 2.48295 0
M  V30 3087 C 293.322 -2.26721 3.63018 0
M  V30 3088 C 292.648 -3.63796 3.91863 0
M  V30 3089 C 293.948 -1.7037 4.93732 0
M  V30 3090 H 295.642 -0.709564 2.9087 0
M  V30 3091 H 293.188 -0.339874 1.39932 0
M  V30 3092 H 295.141 -3.14431 2.80555 0
M  V30 3093 H 293.865 -2.84795 1.59873 0
M  V30 3094 H 292.524 -1.57565 3.31012 0
M  V30 3095 H 292.172 -4.03297 3.00601 0
M  V30 3096 H 291.872 -3.53861 4.69101 0
M  V30 3097 H 293.396 -4.36855 4.26603 0
M  V30 3098 H 294.81 -2.31816 5.24342 0
M  V30 3099 H 293.207 -1.71181 5.75167 0
M  V30 3100 H 294.277 -0.663542 4.80339 0
M  V30 3101 N 295.62 -1.53406 -0.361157 0
M  V30 3102 C 296.869 -1.69022 -1.10066 0
M  V30 3103 C 297.182 -0.450838 -1.90333 0
M  V30 3104 O 298.388 -0.487617 -2.67085 0
M  V30 3105 C 296.844 -2.98812 -2.00598 0
M  V30 3106 C 296.452 -4.30027 -1.25621 0
M  V30 3107 C 298.196 -3.23795 -2.74513 0
M  V30 3108 C 296.103 -5.50903 -2.1508 0
M  V30 3109 H 295.033 -0.629776 -0.414606 0
M  V30 3110 H 297.684 -1.79907 -0.361348 0
M  V30 3111 H 296.066 -2.8174 -2.78278 0
M  V30 3112 H 297.24 -4.57745 -0.529739 0
M  V30 3113 H 295.555 -4.11522 -0.635496 0
M  V30 3114 H 298.152 -4.11289 -3.41681 0
M  V30 3115 H 298.495 -2.40045 -3.40123 0
M  V30 3116 H 299.028 -3.41561 -2.03914 0
M  V30 3117 H 295.767 -6.37143 -1.54041 0
M  V30 3118 H 295.287 -5.27459 -2.85565 0
M  V30 3119 H 296.966 -5.85865 -2.74538 0
M  V30 3120 N 297.098 0.621204 -1.44841 0
M  V30 3121 C 298.008 1.7612 -1.5498 0
M  V30 3122 C 299.024 1.68477 -0.434927 0
M  V30 3123 O 300.2 1.89076 -0.693693 0
M  V30 3124 C 297.265 3.1254 -1.50065 0
M  V30 3125 C 296.326 3.31741 -2.72482 0
M  V30 3126 C 295.559 4.61653 -2.67792 0
M  V30 3127 O 295.782 5.431 -1.74352 0
M  V30 3128 O 294.716 4.83271 -3.58794 0
M  V30 3129 H 298.542 1.70518 -2.51311 0
M  V30 3130 H 296.127 0.783643 -1.27198 0
M  V30 3131 H 298.009 3.93844 -1.49882 0
M  V30 3132 H 296.684 3.18663 -0.568806 0
M  V30 3133 H 295.591 2.50077 -2.7823 0
M  V30 3134 H 296.924 3.30486 -3.64746 0
M  V30 3135 N 298.576 1.31904 0.862503 0
M  V30 3136 C 299.992 1.10724 1.14945 0
M  V30 3137 C 300.192 -0.117421 2.01158 0
M  V30 3138 O 299.248 -0.804595 2.39338 0
M  V30 3139 C 300.561 2.38267 1.83437 0
M  V30 3140 C 302.109 2.43949 1.96106 0
M  V30 3141 C 302.584 3.71394 2.68013 0
M  V30 3142 N 304.075 3.72331 2.75543 0
M  V30 3143 C 304.81 4.67641 3.31812 0
M  V30 3144 N 304.306 5.73313 3.88953 0
M  V30 3145 N 306.099 4.5515 3.29841 0
M  V30 3146 H 298.25 2.10436 0.288191 0
M  V30 3147 H 300.513 0.928705 0.190292 0
M  V30 3148 H 300.219 3.27759 1.27542 0
M  V30 3149 H 300.093 2.48633 2.83657 0
M  V30 3150 H 302.48 1.54922 2.51164 0
M  V30 3151 H 302.561 2.37543 0.949059 0
M  V30 3152 H 302.205 4.60791 2.13621 0
M  V30 3153 H 302.135 3.75069 3.69636 0
M  V30 3154 H 304.626 2.95947 2.34997 0
M  V30 3155 H 304.939 6.42107 4.30022 0
M  V30 3156 H 303.284 5.77077 3.87308 0
M  V30 3157 H 306.475 3.71766 2.84443 0
M  V30 3158 H 306.648 5.29604 3.73394 0
M  V30 3159 N 300.054 -1.07777 1.14986 0
M  V30 3160 C 301.47 -1.32373 0.891596 0
M  V30 3161 C 301.67 -1.9609 -0.463788 0
M  V30 3162 O 300.726 -2.21801 -1.20667 0
M  V30 3163 C 302.039 -2.21905 2.02925 0
M  V30 3164 C 303.587 -2.35367 2.06329 0
M  V30 3165 C 304.062 -3.28245 3.19405 0
M  V30 3166 N 305.553 -3.35824 3.19024 0
M  V30 3167 C 306.288 -4.07739 4.03158 0
M  V30 3168 N 305.784 -4.82306 4.97346 0
M  V30 3169 N 307.577 -4.03635 3.91197 0
M  V30 3170 H 299.728 -0.648039 2.02273 0
M  V30 3171 H 301.991 -0.348149 0.881757 0
M  V30 3172 H 301.697 -1.82342 3.0074 0
M  V30 3173 H 301.571 -3.22407 1.95789 0
M  V30 3174 H 303.958 -2.74186 1.09116 0
M  V30 3175 H 304.039 -1.34585 2.17533 0
M  V30 3176 H 303.683 -2.90146 4.16867 0
M  V30 3177 H 303.613 -4.28971 3.05437 0
M  V30 3178 H 306.104 -2.8267 2.50811 0
M  V30 3179 H 306.417 -5.34661 5.57994 0
M  V30 3180 H 304.762 -4.81337 5.01338 0
M  V30 3181 H 307.953 -3.44491 3.16928 0
M  V30 3182 H 308.126 -4.59417 4.5699 0
M  V30 3183 N 301.532 -0.945985 -1.26051 0
M  V30 3184 C 302.948 -0.649045 -1.45807 0
M  V30 3185 C 303.148 0.796158 -1.85104 0
M  V30 3186 O 302.204 1.57233 -1.97571 0
M  V30 3187 C 303.517 -1.61458 -2.53677 0
M  V30 3188 C 305.065 -1.62481 -2.67524 0
M  V30 3189 C 305.54 -2.57776 -3.7857 0
M  V30 3190 N 307.031 -2.5609 -3.85969 0
M  V30 3191 C 307.766 -3.26508 -4.7136 0
M  V30 3192 N 307.262 -4.0637 -5.61102 0
M  V30 3193 N 309.055 -3.15437 -4.65248 0
M  V30 3194 H 301.206 -1.88005 -0.988328 0
M  V30 3195 H 303.469 -0.808198 -0.4955 0
M  V30 3196 H 303.175 -2.64644 -2.31638 0
M  V30 3197 H 303.049 -1.37036 -3.51427 0
M  V30 3198 H 305.436 -0.600167 -2.88933 0
M  V30 3199 H 305.517 -1.90958 -1.70202 0
M  V30 3200 H 305.161 -3.60361 -3.57913 0
M  V30 3201 H 305.091 -2.26587 -4.75359 0
M  V30 3202 H 307.582 -1.98105 -3.21812 0
M  V30 3203 H 307.895 -4.57042 -6.23164 0
M  V30 3204 H 306.24 -4.10469 -5.60839 0
M  V30 3205 H 309.431 -2.52525 -3.94143 0
M  V30 3206 H 309.604 -3.70584 -5.31575 0
M  V30 3207 N 303.011 1.40521 -0.713556 0
M  V30 3208 C 304.239 2.05237 -0.261775 0
M  V30 3209 C 304.654 1.53755 1.09567 0
M  V30 3210 O 304.011 0.693268 1.6882 0
M  V30 3211 C 304.062 3.60763 -0.230706 0
M  V30 3212 O 303.783 4.10345 -1.53455 0
M  V30 3213 C 305.284 4.42651 0.239874 0
M  V30 3214 H 302.504 0.660533 -0.118057 0
M  V30 3215 H 305.048 1.79967 -0.971192 0
M  V30 3216 H 303.203 3.8501 0.429661 0
M  V30 3217 H 303.617 5.04526 -1.43366 0
M  V30 3218 H 305.091 5.51599 0.210468 0
M  V30 3219 H 305.568 4.20082 1.28171 0
M  V30 3220 H 306.174 4.23507 -0.390142 0
M  V30 3221 N 304.489 0.459591 1.5075 0
M  V30 3222 C 305.399 -0.34613 2.32033 0
M  V30 3223 C 306.415 -1.00686 1.41909 0
M  V30 3224 O 307.591 -0.997361 1.7497 0
M  V30 3225 C 304.656 -1.42029 3.16273 0
M  V30 3226 C 303.717 -0.777362 4.22203 0
M  V30 3227 C 302.95 -1.80034 5.02418 0
M  V30 3228 O 303.173 -3.02544 4.83553 0
M  V30 3229 O 302.107 -1.37853 5.85901 0
M  V30 3230 H 305.933 0.318054 3.0203 0
M  V30 3231 H 303.518 0.221663 1.47746 0
M  V30 3232 H 305.4 -2.04275 3.68578 0
M  V30 3233 H 304.075 -2.06815 2.49016 0
M  V30 3234 H 302.982 -0.116256 3.73919 0
M  V30 3235 H 304.315 -0.172634 4.91897 0
M  V30 3236 N 305.967 -1.56429 0.191757 0
M  V30 3237 C 307.378 -1.83912 -0.321428 0
M  V30 3238 C 307.729 -1.11231 -1.61623 0
M  V30 3239 O 306.854 -0.37202 -2.13178 0
M  V30 3240 C 307.449 -3.33624 -0.589961 0
M  V30 3241 C 306.008 -3.6153 -1.04753 0
M  V30 3242 C 305.155 -2.7714 -0.0943327 0
M  V30 3243 H 308.106 -1.53161 0.415612 0
M  V30 3244 H 308.127 -3.52213 -1.43966 0
M  V30 3245 H 307.639 -3.86495 0.352588 0
M  V30 3246 H 305.74 -3.14089 -2.00447 0
M  V30 3247 H 305.853 -4.69737 -0.942549 0
M  V30 3248 H 304.217 -2.47638 -0.595589 0
M  V30 3249 H 305 -3.32799 0.842601 0
M  V30 3250 N 307.445 0.0818655 -1.57387 0
M  V30 3251 C 308.408 1.08265 -2.02018 0
M  V30 3252 C 309.408 1.32183 -0.915664 0
M  V30 3253 O 310.598 1.28073 -1.18081 0
M  V30 3254 C 307.73 2.42871 -2.39221 0
M  V30 3255 H 308.923 0.698204 -2.91659 0
M  V30 3256 H 306.476 0.327303 -1.52835 0
M  V30 3257 H 307.211 2.86167 -1.52575 0
M  V30 3258 H 306.996 2.26855 -3.19811 0
M  V30 3259 H 308.486 3.14826 -2.74362 0
M  V30 3260 N 308.923 1.53595 0.353017 0
M  V30 3261 C 310.2 1.61002 1.11075 0
M  V30 3262 C 310.58 0.425356 2.0677 0
M  V30 3263 O 309.928 -0.583267 2.2093 0
M  V30 3264 C 310.138 2.96631 1.83877 0
M  V30 3265 C 311.486 3.51653 2.37961 0
M  V30 3266 O 312.51 2.98743 1.93987 0
M  V30 3267 O 311.369 4.44177 3.18386 0
M  V30 3268 H 308.463 0.650825 0.510251 0
M  V30 3269 H 311.009 1.6594 0.35527 0
M  V30 3270 H 309.781 3.74293 1.14108 0
M  V30 3271 H 309.404 2.95242 2.66304 0
M  V30 3272 N 310.401 -0.613514 1.45168 0
M  V30 3273 C 311.678 -1.37263 1.39349 0
M  V30 3274 C 312.058 -2.11012 0.0610848 0
M  V30 3275 O 311.406 -2.07502 -0.956825 0
M  V30 3276 C 311.616 -2.3244 2.60332 0
M  V30 3277 C 312.964 -2.9523 3.05163 0
M  V30 3278 O 313.988 -2.42762 2.60663 0
M  V30 3279 O 312.847 -3.90454 3.82372 0
M  V30 3280 H 309.941 -0.615188 0.552696 0
M  V30 3281 H 312.487 -0.637097 1.57287 0
M  V30 3282 H 311.259 -1.77164 3.48896 0
M  V30 3283 H 310.882 -3.13383 2.44698 0
M  V30 3284 N 311.879 -1.3236 -0.855495 0
M  V30 3285 C 312.842 -1.21164 -1.94556 0
M  V30 3286 C 313.842 -0.134908 -1.60233 0
M  V30 3287 O 315.032 -0.385249 -1.69887 0
M  V30 3288 C 312.164 -0.863192 -3.29791 0
M  V30 3289 H 313.357 -2.18038 -2.05911 0
M  V30 3290 H 310.91 -1.16179 -1.04557 0
M  V30 3291 H 311.645 0.103769 -3.24134 0
M  V30 3292 H 311.43 -1.64166 -3.56078 0
M  V30 3293 H 312.92 -0.809156 -4.09686 0
M  V30 3294 N 313.357 1.07166 -1.15556 0
M  V30 3295 C 314.606 1.79181 -0.926132 0
M  V30 3296 C 314.919 1.87768 0.547967 0
M  V30 3297 O 316.125 2.56323 0.895036 0
M  V30 3298 C 314.581 3.22 -1.60761 0
M  V30 3299 C 314.189 3.21607 -3.11886 0
M  V30 3300 C 315.933 3.9861 -1.4598 0
M  V30 3301 C 313.84 4.59092 -3.72812 0
M  V30 3302 H 312.77 0.67154 -0.342856 0
M  V30 3303 H 315.421 1.2027 -1.3859 0
M  V30 3304 H 313.803 3.81115 -1.07553 0
M  V30 3305 H 314.977 2.72127 -3.71865 0
M  V30 3306 H 313.292 2.58495 -3.2645 0
M  V30 3307 H 315.889 5.00225 -1.88888 0
M  V30 3308 H 316.232 4.143 -0.407541 0
M  V30 3309 H 316.765 3.45996 -1.96295 0
M  V30 3310 H 313.504 4.48606 -4.77946 0
M  V30 3311 H 313.024 5.08803 -3.17616 0
M  V30 3312 H 314.703 5.28059 -3.73848 0
M  V30 3313 N 314.835 0.952656 1.25548 0
M  V30 3314 C 316.06 0.623025 1.97821 0
M  V30 3315 C 316.485 -0.7976 1.70352 0
M  V30 3316 O 315.843 -1.53905 0.958283 0
M  V30 3317 C 315.891 0.885532 3.49558 0
M  V30 3318 O 314.995 -0.0366641 4.12384 0
M  V30 3319 H 314.336 0.237082 0.620232 0
M  V30 3320 H 316.866 1.27871 1.59719 0
M  V30 3321 H 316.876 0.811009 3.99858 0
M  V30 3322 H 315.551 1.92094 3.6888 0
M  V30 3323 H 314.128 0.0898954 3.72792 0
M  V30 3324 N 316.313 -1.40141 0.720998 0
M  V30 3325 C 317.263 -2.27949 0.0482544 0
M  V30 3326 C 318.247 -1.43538 -0.727021 0
M  V30 3327 O 319.439 -1.6658 -0.598332 0
M  V30 3328 C 316.568 -3.32126 -0.868729 0
M  V30 3329 C 315.654 -4.24008 -0.0883515 0
M  V30 3330 N 316.045 -4.97154 0.931226 0
M  V30 3331 C 314.343 -4.4485 -0.320105 0
M  V30 3332 C 315.044 -5.64587 1.4006 0
M  V30 3333 N 314.02 -5.38787 0.721752 0
M  V30 3334 H 317.822 -2.81948 0.829609 0
M  V30 3335 H 315.336 -1.52656 0.554067 0
M  V30 3336 H 317.333 -3.93884 -1.36605 0
M  V30 3337 H 315.993 -2.79687 -1.6494 0
M  V30 3338 H 317.004 -5.01 1.31222 0
M  V30 3339 H 313.681 -4.03378 -1.07668 0
M  V30 3340 H 315.071 -6.33175 2.24808 0
M  V30 3341 N 317.792 -0.46758 -1.50504 0
M  V30 3342 C 318.722 0.318381 -2.31319 0
M  V30 3343 C 319.703 0.993564 -1.38066 0
M  V30 3344 O 320.888 0.991411 -1.66987 0
M  V30 3345 C 318.018 1.40275 -3.17711 0
M  V30 3346 C 316.972 0.849373 -4.19487 0
M  V30 3347 C 316.298 2.03177 -4.94594 0
M  V30 3348 C 317.598 -0.136942 -5.2212 0
M  V30 3349 H 319.292 -0.356106 -2.97275 0
M  V30 3350 H 316.838 -0.172703 -1.42961 0
M  V30 3351 H 318.791 1.96004 -3.73042 0
M  V30 3352 H 317.515 2.10596 -2.49634 0
M  V30 3353 H 316.174 0.314076 -3.65252 0
M  V30 3354 H 315.822 2.72187 -4.22993 0
M  V30 3355 H 315.522 1.66774 -5.63436 0
M  V30 3356 H 317.046 2.59403 -5.52759 0
M  V30 3357 H 318.46 0.331056 -5.72343 0
M  V30 3358 H 316.857 -0.41507 -5.98663 0
M  V30 3359 H 317.927 -1.06398 -4.73083 0
M  V30 3360 N 319.27 1.56325 -0.20005 0
M  V30 3361 C 320.516 1.98012 0.438059 0
M  V30 3362 C 320.849 1.08702 1.60927 0
M  V30 3363 O 320.124 0.140064 1.93995 0
M  V30 3364 C 320.407 3.48841 0.893419 0
M  V30 3365 C 320.26 4.48928 -0.279947 0
M  V30 3366 C 321.579 4.03498 1.75719 0
M  V30 3367 H 318.698 0.719918 0.157757 0
M  V30 3368 H 321.34 1.87743 -0.291968 0
M  V30 3369 H 319.49 3.57723 1.51547 0
M  V30 3370 H 321.162 4.52079 -0.91772 0
M  V30 3371 H 319.405 4.23694 -0.930919 0
M  V30 3372 H 320.076 5.5194 0.0812601 0
M  V30 3373 H 322.552 3.97427 1.23253 0
M  V30 3374 H 321.428 5.09393 2.04476 0
M  V30 3375 H 321.689 3.4906 2.71311 0
M  V30 3376 N 320.748 -0.0735177 1.57428 0
M  V30 3377 C 321.711 -1.07192 2.02589 0
M  V30 3378 C 322.711 -1.31695 0.922661 0
M  V30 3379 O 323.901 -1.27445 1.18758 0
M  V30 3380 C 321.033 -2.41599 2.40506 0
M  V30 3381 H 322.226 -0.682727 2.92025 0
M  V30 3382 H 319.779 -0.319193 1.53006 0
M  V30 3383 H 320.514 -2.85354 1.5409 0
M  V30 3384 H 320.299 -2.25156 3.21009 0
M  V30 3385 H 321.789 -3.13367 2.76027 0
M  V30 3386 N 322.226 -1.5378 -0.344866 0
M  V30 3387 C 323.189 -1.80981 -1.40637 0
M  V30 3388 C 324.189 -0.680816 -1.45676 0
M  V30 3389 O 325.379 -0.949095 -1.46075 0
M  V30 3390 C 322.511 -1.95063 -2.79577 0
M  V30 3391 H 323.704 -2.75803 -1.17783 0
M  V30 3392 H 321.257 -1.45173 -0.579181 0
M  V30 3393 H 321.992 -1.02379 -3.07716 0
M  V30 3394 H 321.777 -2.77198 -2.77315 0
M  V30 3395 H 323.267 -2.17629 -3.56409 0
M  V30 3396 N 323.704 0.605807 -1.45491 0
M  V30 3397 C 324.952 1.36207 -1.49305 0
M  V30 3398 C 325.273 1.94519 -0.136863 0
M  V30 3399 O 324.543 1.77261 0.833983 0
M  V30 3400 H 323.123 0.50565 -0.549843 0
M  V30 3401 H 325.785 0.711239 -1.81459 0
M  V30 3402 H 324.881 2.18058 -2.23287 0
M  V30 3403 N 325.182 1.32811 0.848464 0
M  V30 3404 C 326.428 1.23907 1.60546 0
M  V30 3405 C 326.761 -0.197161 1.93197 0
M  V30 3406 O 326.036 -1.13596 1.5788 0
M  V30 3407 C 326.319 2.10489 2.92175 0
M  V30 3408 C 326.172 3.62522 2.66266 0
M  V30 3409 C 327.491 1.97075 3.93509 0
M  V30 3410 H 324.61 0.451459 0.58254 0
M  V30 3411 H 327.252 1.62818 0.979296 0
M  V30 3412 H 325.402 1.77434 3.45614 0
M  V30 3413 H 327.074 4.05821 2.19334 0
M  V30 3414 H 325.317 3.84879 2.00126 0
M  V30 3415 H 325.988 4.18437 3.6002 0
M  V30 3416 H 328.464 2.26045 3.49346 0
M  V30 3417 H 327.34 2.59923 4.83457 0
M  V30 3418 H 327.601 0.940186 4.31987 0
M  V30 3419 N 326.66 -1.06551 1.16123 0
M  V30 3420 C 327.908 -1.78947 0.939267 0
M  V30 3421 C 328.229 -1.87532 -0.534476 0
M  V30 3422 O 327.499 -1.38211 -1.38833 0
M  V30 3423 H 326.079 -0.662807 0.344523 0
M  V30 3424 H 328.741 -1.28725 1.46342 0
M  V30 3425 H 327.837 -2.81117 1.35572 0
M  V30 3426 N 328.138 -0.959301 -1.25041 0
M  V30 3427 C 329.101 -0.487677 -2.23952 0
M  V30 3428 C 330.101 0.41119 -1.55454 0
M  V30 3429 O 331.291 0.207825 -1.72956 0
M  V30 3430 C 328.423 0.294807 -3.39623 0
M  V30 3431 H 329.616 -1.36198 -2.67189 0
M  V30 3432 H 327.169 -0.743042 -1.37508 0
M  V30 3433 H 327.904 1.18658 -3.01813 0
M  V30 3434 H 327.689 -0.35012 -3.90534 0
M  V30 3435 H 329.179 0.614089 -4.1306 0
M  V30 3436 N 329.616 1.39756 -0.72842 0
M  V30 3437 C 330.893 1.94574 -0.200079 0
M  V30 3438 C 331.273 1.66569 1.29684 0
M  V30 3439 O 330.621 0.990326 2.05924 0
M  V30 3440 C 330.831 3.45004 -0.526608 0
M  V30 3441 C 332.179 4.21965 -0.472318 0
M  V30 3442 O 333.203 3.53173 -0.463413 0
M  V30 3443 O 332.062 5.44552 -0.461075 0
M  V30 3444 H 329.156 0.826289 -0.0342851 0
M  V30 3445 H 331.702 1.49293 -0.806829 0
M  V30 3446 H 330.474 3.58796 -1.56144 0
M  V30 3447 H 330.097 3.97449 0.109449 0
M  V30 3448 N 331.094 0.475555 1.50254 0
M  V30 3449 C 332.342 -0.077738 2.0195 0
M  V30 3450 C 332.663 -1.39813 1.35931 0
M  V30 3451 O 331.933 -1.89249 0.506123 0
M  V30 3452 H 330.513 -0.031719 0.746326 0
M  V30 3453 H 333.175 0.626995 1.84539 0
M  V30 3454 H 332.271 -0.225995 3.11281 0
M  V30 3455 N 332.573 -1.56217 0.208337 0
M  V30 3456 C 333.85 -1.89739 -0.475234 0
M  V30 3457 C 334.23 -1.1238 -1.78701 0
M  V30 3458 O 333.578 -0.228979 -2.2735 0
M  V30 3459 C 333.788 -3.42289 -0.681101 0
M  V30 3460 C 335.136 -4.12789 -0.994507 0
M  V30 3461 O 336.16 -3.47814 -0.768357 0
M  V30 3462 O 335.019 -5.27649 -1.42299 0
M  V30 3463 H 332.113 -0.788478 -0.249461 0
M  V30 3464 H 334.659 -1.67855 0.249538 0
M  V30 3465 H 333.431 -3.90534 0.244722 0
M  V30 3466 H 333.054 -3.69909 -1.45785 0
M  V30 3467 N 334.051 0.0651679 -1.57465 0
M  V30 3468 C 335.279 0.775808 -1.91804 0
M  V30 3469 C 335.694 1.70782 -0.804916 0
M  V30 3470 O 335.051 1.81153 0.221311 0
M  V30 3471 C 335.102 1.56381 -3.25925 0
M  V30 3472 O 334.823 0.669248 -4.32958 0
M  V30 3473 C 336.324 2.37485 -3.7432 0
M  V30 3474 H 333.544 0.2202 -0.63384 0
M  V30 3475 H 336.088 0.0334587 -2.04473 0
M  V30 3476 H 334.243 2.25837 -3.14764 0
M  V30 3477 H 334.657 1.21801 -5.10162 0
M  V30 3478 H 336.131 2.88223 -4.70778 0
M  V30 3479 H 336.608 3.17307 -3.03666 0
M  V30 3480 H 337.214 1.73173 -3.88447 0
M  V30 3481 N 335.529 1.53961 0.336706 0
M  V30 3482 C 336.492 1.81724 1.39675 0
M  V30 3483 C 337.492 0.688532 1.45313 0
M  V30 3484 O 338.682 0.956829 1.45569 0
M  V30 3485 C 335.814 1.96543 2.78538 0
M  V30 3486 H 337.007 2.76424 1.16318 0
M  V30 3487 H 334.56 1.45478 0.571474 0
M  V30 3488 H 335.295 1.0401 3.07168 0
M  V30 3489 H 335.08 2.78665 2.75841 0
M  V30 3490 H 336.57 2.19516 3.5525 0
M  V30 3491 N 337.007 -0.598083 1.45811 0
M  V30 3492 C 338.255 -1.35413 1.50026 0
M  V30 3493 C 338.576 -1.94444 0.147177 0
M  V30 3494 O 337.846 -1.77701 -0.824571 0
M  V30 3495 H 336.426 -0.502727 0.552517 0
M  V30 3496 H 339.088 -0.701606 1.81834 0
M  V30 3497 H 338.184 -2.16871 2.2444 0
M  V30 3498 N 338.485 -1.33259 -0.841409 0
M  V30 3499 C 339.713 -1.27605 -1.62864 0
M  V30 3500 C 340.128 0.153507 -1.88175 0
M  V30 3501 O 339.485 1.09485 -1.46011 0
M  V30 3502 C 339.536 -2.04596 -2.98031 0
M  V30 3503 O 339.257 -3.41975 -2.73834 0
M  V30 3504 C 340.758 -2.06122 -3.92465 0
M  V30 3505 H 337.978 -0.439718 -0.506842 0
M  V30 3506 H 340.522 -1.75591 -1.04824 0
M  V30 3507 H 338.677 -1.60299 -3.5268 0
M  V30 3508 H 339.091 -3.81549 -3.59889 0
M  V30 3509 H 340.565 -2.64451 -4.84531 0
M  V30 3510 H 341.042 -1.05083 -4.26444 0
M  V30 3511 H 341.648 -2.50427 -3.43753 0
M  V30 3512 N 339.963 1.05934 -1.16686 0
M  V30 3513 C 340.893 2.1546 -0.899949 0
M  V30 3514 C 341.874 1.69391 0.155154 0
M  V30 3515 O 343.059 1.94199 0.00648693 0
M  V30 3516 C 340.189 3.44939 -0.404241 0
M  V30 3517 C 339.143 4.04536 -1.39767 0
M  V30 3518 C 338.469 5.29268 -0.760216 0
M  V30 3519 C 339.769 4.42893 -2.76845 0
M  V30 3520 H 341.463 2.38046 -1.81588 0
M  V30 3521 H 339.009 1.14404 -0.874514 0
M  V30 3522 H 340.962 4.20901 -0.204971 0
M  V30 3523 H 339.686 3.21983 0.547206 0
M  V30 3524 H 338.345 3.30635 -1.58355 0
M  V30 3525 H 337.993 5.02611 0.197831 0
M  V30 3526 H 337.693 5.70101 -1.42332 0
M  V30 3527 H 339.217 6.07924 -0.57105 0
M  V30 3528 H 340.631 5.09921 -2.62019 0
M  V30 3529 H 339.028 4.94721 -3.39663 0
M  V30 3530 H 340.098 3.53584 -3.31823 0
M  V30 3531 N 341.441 0.965919 1.2453 0
M  V30 3532 C 342.666 0.643971 1.97149 0
M  V30 3533 C 343.091 -0.779487 1.71189 0
M  V30 3534 O 342.449 -1.5288 0.974553 0
M  V30 3535 C 342.497 0.922557 3.48599 0
M  V30 3536 O 341.601 0.00707672 4.12399 0
M  V30 3537 H 340.942 0.243647 0.617683 0
M  V30 3538 H 343.472 1.29558 1.58353 0
M  V30 3539 H 343.482 0.853373 3.98976 0
M  V30 3540 H 342.157 1.95996 3.66822 0
M  V30 3541 H 340.734 0.12943 3.72675 0
M  V30 3542 N 342.919 -1.39368 0.735821 0
M  V30 3543 C 344.168 -1.99733 0.281004 0
M  V30 3544 C 344.481 -1.59055 -1.13846 0
M  V30 3545 O 345.687 -2.12262 -1.69284 0
M  V30 3546 C 344.143 -3.57057 0.451462 0
M  V30 3547 C 343.751 -4.06697 1.87886 0
M  V30 3548 C 345.495 -4.2446 0.0584616 0
M  V30 3549 C 343.402 -5.56598 1.99883 0
M  V30 3550 H 342.332 -0.747163 0.101311 0
M  V30 3551 H 344.983 -1.59357 0.909819 0
M  V30 3552 H 343.365 -3.95234 -0.246263 0
M  V30 3553 H 344.539 -3.79853 2.60861 0
M  V30 3554 H 342.854 -3.5196 2.22515 0
M  V30 3555 H 345.451 -5.34549 0.127099 0
M  V30 3556 H 345.794 -4.04444 -0.986433 0
M  V30 3557 H 346.327 -3.9146 0.707374 0
M  V30 3558 H 343.066 -5.81494 3.02564 0
M  V30 3559 H 342.586 -5.85242 1.31346 0
M  V30 3560 H 344.265 -6.22022 1.78039 0
M  V30 3561 N 344.397 -0.483516 -1.5 0
M  V30 3562 C 345.327 0.293829 -2.31644 0
M  V30 3563 C 346.308 0.978864 -1.39112 0
M  V30 3564 O 347.493 0.973644 -1.68029 0
M  V30 3565 C 344.623 1.36897 -3.19181 0
M  V30 3566 C 343.577 0.804833 -4.20365 0
M  V30 3567 C 342.903 1.9792 -4.96721 0
M  V30 3568 C 344.203 -0.192313 -5.21946 0
M  V30 3569 H 345.897 -0.387616 -2.9688 0
M  V30 3570 H 343.443 -0.187856 -1.42769 0
M  V30 3571 H 345.396 1.92037 -3.751 0
M  V30 3572 H 344.12 2.07936 -2.51853 0
M  V30 3573 H 342.779 0.275319 -3.65565 0
M  V30 3574 H 342.427 2.67686 -4.25856 0
M  V30 3575 H 342.127 1.60789 -5.65173 0
M  V30 3576 H 343.651 2.53526 -5.55479 0
M  V30 3577 H 345.065 0.270333 -5.72662 0
M  V30 3578 H 343.462 -0.478543 -5.98189 0
M  V30 3579 H 344.532 -1.11409 -4.71928 0
M  V30 3580 N 345.875 1.56104 -0.216619 0
M  V30 3581 C 346.838 2.18819 0.681962 0
M  V30 3582 C 347.838 1.14866 1.12528 0
M  V30 3583 O 349.028 1.40128 1.03488 0
M  V30 3584 C 346.16 2.80756 1.93362 0
M  V30 3585 H 347.353 2.99595 0.135254 0
M  V30 3586 H 344.906 1.56265 0.0330003 0
M  V30 3587 H 345.641 2.03837 2.52232 0
M  V30 3588 H 345.426 3.56876 1.62426 0
M  V30 3589 H 346.916 3.28844 2.57393 0
M  V30 3590 N 347.353 -0.0568162 1.57498 0
M  V30 3591 C 348.6 -0.753104 1.87975 0
M  V30 3592 C 348.928 -1.76815 0.81035 0
M  V30 3593 O 348.183 -1.94756 -0.19199 0
M  V30 3594 C 348.482 -1.48359 3.25153 0
M  V30 3595 C 348.148 -0.60713 4.46794 0
M  V30 3596 C 346.81 -0.365642 4.79809 0
M  V30 3597 C 349.162 -0.000305978 5.212 0
M  V30 3598 C 346.49 0.491905 5.84634 0
M  V30 3599 C 348.842 0.844781 6.26934 0
M  V30 3600 C 347.506 1.096 6.58441 0
M  V30 3601 H 346.776 -0.27558 0.687849 0
M  V30 3602 H 349.423 -0.0135173 1.91495 0
M  V30 3603 H 347.728 -2.29577 3.17492 0
M  V30 3604 H 349.425 -2.02739 3.45974 0
M  V30 3605 H 346.015 -0.805487 4.20963 0
M  V30 3606 H 350.199 -0.173961 4.95995 0
M  V30 3607 H 345.455 0.695131 6.07436 0
M  V30 3608 H 349.629 1.32165 6.83744 0
M  V30 3609 H 347.256 1.76224 7.39492 0
M  V30 3610 N 348.832 -1.54138 -0.328536 0
M  V30 3611 C 350.06 -1.76062 -1.08673 0
M  V30 3612 C 350.475 -0.506852 -1.81869 0
M  V30 3613 O 349.832 0.522223 -1.74869 0
M  V30 3614 C 349.883 -2.95054 -2.08866 0
M  V30 3615 O 349.604 -4.15583 -1.38644 0
M  V30 3616 C 351.105 -3.2915 -2.96943 0
M  V30 3617 H 348.325 -0.587889 -0.323461 0
M  V30 3618 H 350.869 -2.0101 -0.376175 0
M  V30 3619 H 349.024 -2.72394 -2.75464 0
M  V30 3620 H 349.438 -4.82481 -2.05699 0
M  V30 3621 H 350.912 -4.15723 -3.63151 0
M  V30 3622 H 351.389 -2.461 -3.63774 0
M  V30 3623 H 351.995 -3.53871 -2.35914 0
M  V30 3624 N 350.31 0.590341 -1.46126 0
M  V30 3625 C 351.557 1.34882 -1.5104 0
M  V30 3626 C 351.885 1.93849 -0.159021 0
M  V30 3627 O 351.14 1.76544 0.844436 0
M  V30 3628 C 351.439 2.5032 -2.55097 0
M  V30 3629 C 351.105 2.09394 -3.99331 0
M  V30 3630 C 349.767 1.97947 -4.38601 0
M  V30 3631 C 352.119 1.77712 -4.89967 0
M  V30 3632 C 349.447 1.53065 -5.66381 0
M  V30 3633 C 351.799 1.34312 -6.18177 0
M  V30 3634 C 350.463 1.21436 -6.56361 0
M  V30 3635 H 349.733 0.493568 -0.552695 0
M  V30 3636 H 352.38 0.665539 -1.79563 0
M  V30 3637 H 350.685 3.24062 -2.20207 0
M  V30 3638 H 352.382 3.08541 -2.56132 0
M  V30 3639 H 348.972 2.19235 -3.68285 0
M  V30 3640 H 353.156 1.85445 -4.60352 0
M  V30 3641 H 348.412 1.41733 -5.94745 0
M  V30 3642 H 352.586 1.08849 -6.87841 0
M  V30 3643 H 350.213 0.864345 -7.5527 0
M  V30 3644 N 351.788 1.33704 0.83433 0
M  V30 3645 C 353.016 1.28467 1.62185 0
M  V30 3646 C 353.431 -0.143526 1.88254 0
M  V30 3647 O 352.788 -1.08709 1.4659 0
M  V30 3648 C 352.839 2.06174 2.96942 0
M  V30 3649 O 352.56 3.43422 2.72016 0
M  V30 3650 C 354.061 2.08201 3.91366 0
M  V30 3651 H 351.281 0.4424 0.504503 0
M  V30 3652 H 353.825 1.76145 1.03891 0
M  V30 3653 H 351.98 1.62167 3.51825 0
M  V30 3654 H 352.394 3.83453 3.57861 0
M  V30 3655 H 353.868 2.67017 4.83121 0
M  V30 3656 H 354.345 1.07343 4.2588 0
M  V30 3657 H 354.951 2.52246 3.42421 0
M  V30 3658 N 353.266 -1.05314 1.17247 0
M  V30 3659 C 354.199 -2.12512 0.831507 0
M  V30 3660 C 355.177 -1.61351 -0.201168 0
M  V30 3661 O 356.361 -1.88317 -0.0829831 0
M  V30 3662 C 353.488 -3.37848 0.24015 0
M  V30 3663 C 352.534 -4.07832 1.24801 0
M  V30 3664 S 353.367 -4.56537 2.79882 0
M  V30 3665 C 354.523 -5.85122 2.22223 0
M  V30 3666 H 354.756 -2.41106 1.7394 0
M  V30 3667 H 352.289 -1.17896 0.996988 0
M  V30 3668 H 354.247 -4.10391 -0.0945588 0
M  V30 3669 H 352.908 -3.07392 -0.645668 0
M  V30 3670 H 352.101 -4.97883 0.78287 0
M  V30 3671 H 351.703 -3.41348 1.52831 0
M  V30 3672 H 353.995 -6.58408 1.59703 0
M  V30 3673 H 354.938 -6.36381 3.10523 0
M  V30 3674 H 355.346 -5.39626 1.65722 0
M  V30 3675 N 354.744 -0.972509 -1.24016 0
M  V30 3676 C 355.99 -0.637978 -1.92504 0
M  V30 3677 C 356.323 0.825383 -1.75787 0
M  V30 3678 O 355.598 1.59442 -1.11393 0
M  V30 3679 C 355.881 -1.01942 -3.45369 0
M  V30 3680 C 355.734 -2.53983 -3.71231 0
M  V30 3681 C 357.053 -0.55751 -4.36555 0
M  V30 3682 H 354.172 -0.233248 -0.699117 0
M  V30 3683 H 356.814 -1.21238 -1.46292 0
M  V30 3684 H 354.964 -0.530656 -3.84859 0
M  V30 3685 H 356.636 -3.10374 -3.41271 0
M  V30 3686 H 354.879 -2.96968 -3.16216 0
M  V30 3687 H 355.55 -2.75723 -4.78206 0
M  V30 3688 H 358.026 -0.977029 -4.04467 0
M  V30 3689 H 356.902 -0.85292 -5.42233 0
M  V30 3690 H 357.163 0.542328 -4.38761 0
M  V30 3691 N 356.222 1.38976 -0.743202 0
M  V30 3692 C 357.45 2.04636 -0.30525 0
M  V30 3693 C 357.865 1.56044 1.06281 0
M  V30 3694 O 357.222 0.728921 1.67311 0
M  V30 3695 C 357.273 3.60193 -0.307177 0
M  V30 3696 O 356.994 4.06998 -1.62124 0
M  V30 3697 C 358.495 4.4306 0.145928 0
M  V30 3698 H 355.715 0.65788 -0.132041 0
M  V30 3699 H 358.259 1.77866 -1.00915 0
M  V30 3700 H 356.414 3.85835 0.347898 0
M  V30 3701 H 356.828 5.01371 -1.54036 0
M  V30 3702 H 358.302 5.51921 0.0934183 0
M  V30 3703 H 358.779 4.22706 1.19231 0
M  V30 3704 H 359.385 4.22584 -0.479886 0
M  V30 3705 N 357.7 0.491464 1.49741 0
M  V30 3706 C 358.948 -0.0563141 2.02022 0
M  V30 3707 C 359.269 -1.38363 1.37407 0
M  V30 3708 O 358.539 -1.88702 0.526166 0
M  V30 3709 H 357.119 -0.0238014 0.746621 0
M  V30 3710 H 359.781 0.646533 1.83864 0
M  V30 3711 H 358.877 -0.192967 3.11503 0
M  V30 3712 N 359.178 -1.55987 0.224894 0
M  V30 3713 C 360.426 -1.97998 -0.405099 0
M  V30 3714 C 360.747 -1.11387 -1.60056 0
M  V30 3715 O 360.017 -0.191645 -1.9496 0
M  V30 3716 H 358.597 -0.731235 -0.152658 0
M  V30 3717 H 361.259 -1.92279 0.318567 0
M  V30 3718 H 360.355 -3.03463 -0.729167 0
M  V30 3719 N 360.656 0.0484629 -1.57525 0
M  V30 3720 C 361.604 1.07359 -2.06341 0
M  V30 3721 C 362.598 1.3865 -0.973269 0
M  V30 3722 O 363.804 1.37783 -1.15827 0
M  V30 3723 H 360.179 0.363662 -0.65822 0
M  V30 3724 H 362.15 0.635916 -2.91545 0
M  V30 3725 C 360.899 2.37198 -2.54229 0
M  V30 3726 H 360.222 2.13977 -3.37719 0
M  V30 3727 H 361.662 3.07319 -2.92115 0
M  V30 3728 C 360.121 3.04805 -1.43511 0
M  V30 3729 O 360.651 3.93848 -0.79034 0
M  V30 3730 N 358.857 2.65811 -1.17444 0
M  V30 3731 H 358.404 1.93488 -1.70059 0
M  V30 3732 H 358.362 3.11366 -0.435737 0
M  V30 3733 N 362.134 1.5431 0.320358 0
M  V30 3734 C 363.411 1.63322 1.07635 0
M  V30 3735 C 363.791 0.46912 2.05821 0
M  V30 3736 O 363.139 -0.536274 2.22118 0
M  V30 3737 C 363.349 3.00465 1.77544 0
M  V30 3738 C 364.697 3.56621 2.30449 0
M  V30 3739 O 365.721 3.02791 1.87606 0
M  V30 3740 O 364.58 4.5083 3.08892 0
M  V30 3741 H 361.674 0.661502 0.496331 0
M  V30 3742 H 364.22 1.66656 0.319992 0
M  V30 3743 H 362.992 3.76629 1.06143 0
M  V30 3744 H 362.615 3.00824 2.59982 0
M  V30 3745 N 363.613 -0.582584 1.46437 0
M  V30 3746 C 364.841 -1.36682 1.55324 0
M  V30 3747 C 365.256 -1.87796 0.194409 0
M  V30 3748 O 364.613 -1.63623 -0.808318 0
M  V30 3749 C 364.664 -2.55426 2.55812 0
M  V30 3750 O 364.385 -2.0643 3.86417 0
M  V30 3751 C 365.886 -3.47976 2.74641 0
M  V30 3752 H 363.106 -0.417545 0.525259 0
M  V30 3753 H 365.65 -0.708219 1.91845 0
M  V30 3754 H 363.805 -3.17275 2.22295 0
M  V30 3755 H 364.219 -2.83762 4.41111 0
M  V30 3756 H 365.693 -4.27775 3.48874 0
M  V30 3757 H 366.17 -3.99919 1.81553 0
M  V30 3758 H 366.776 -2.91962 3.09255 0
M  V30 3759 N 365.091 -1.34144 -0.827227 0
M  V30 3760 C 366.337 -1.26446 -1.58554 0
M  V30 3761 C 366.67 0.1664 -1.93486 0
M  V30 3762 O 365.945 1.1107 -1.59667 0
M  V30 3763 C 366.228 -2.15111 -2.8879 0
M  V30 3764 C 366.081 -3.66712 -2.60465 0
M  V30 3765 C 367.4 -2.03311 -3.90324 0
M  V30 3766 H 364.519 -0.46067 -0.575284 0
M  V30 3767 H 367.161 -1.64356 -0.953269 0
M  V30 3768 H 365.311 -1.8291 -3.42748 0
M  V30 3769 H 366.983 -4.09259 -2.1285 0
M  V30 3770 H 365.226 -3.88014 -1.93978 0
M  V30 3771 H 365.897 -4.24112 -3.53317 0
M  V30 3772 H 368.373 -2.31574 -3.45706 0
M  V30 3773 H 367.249 -2.67582 -4.79261 0
M  V30 3774 H 367.51 -1.00879 -4.30437 0
M  V30 3775 N 366.569 1.04691 -1.17803 0
M  V30 3776 C 367.797 1.81446 -0.99423 0
M  V30 3777 C 368.212 1.83174 0.457459 0
M  V30 3778 O 367.569 1.26265 1.31771 0
M  V30 3779 C 367.62 3.27334 -1.5341 0
M  V30 3780 O 367.341 3.25798 -2.92895 0
M  V30 3781 C 368.842 4.20759 -1.39559 0
M  V30 3782 H 366.062 0.571599 -0.351447 0
M  V30 3783 H 368.606 1.31982 -1.56208 0
M  V30 3784 H 366.761 3.74052 -1.00815 0
M  V30 3785 H 367.175 4.17144 -3.17949 0
M  V30 3786 H 368.649 5.21084 -1.82141 0
M  V30 3787 H 369.126 4.37856 -0.343394 0
M  V30 3788 H 369.732 3.79901 -1.91195 0
M  V30 3789 N 368.047 0.979072 1.23499 0
M  V30 3790 C 369.295 0.645941 1.91499 0
M  V30 3791 C 369.616 -0.822948 1.76784 0
M  V30 3792 O 368.886 -1.58854 1.14639 0
M  V30 3793 H 367.466 0.235919 0.708767 0
M  V30 3794 H 370.128 1.2426 1.50152 0
M  V30 3795 H 369.224 0.896411 2.9895 0
M  V30 3796 N 369.525 -1.3858 0.750561 0
M  V30 3797 C 370.458 -2.28095 0.0693139 0
M  V30 3798 C 371.436 -1.45217 -0.731491 0
M  V30 3799 O 372.62 -1.74587 -0.71076 0
M  V30 3800 C 369.747 -3.26282 -0.90871 0
M  V30 3801 C 368.793 -4.26056 -0.194507 0
M  V30 3802 S 369.626 -5.24026 1.10257 0
M  V30 3803 C 370.782 -6.2577 0.127542 0
M  V30 3804 H 371.015 -2.85526 0.8284 0
M  V30 3805 H 368.548 -1.44536 0.543014 0
M  V30 3806 H 370.506 -3.83367 -1.46766 0
M  V30 3807 H 369.167 -2.6784 -1.64075 0
M  V30 3808 H 368.36 -4.95249 -0.93512 0
M  V30 3809 H 367.962 -3.72852 0.292837 0
M  V30 3810 H 370.254 -6.73796 -0.707516 0
M  V30 3811 H 371.197 -7.03712 0.787044 0
M  V30 3812 H 371.605 -5.63938 -0.251803 0
M  V30 3813 N 371.003 -0.499398 -1.49478 0
M  V30 3814 C 371.933 0.269244 -2.31943 0
M  V30 3815 C 372.914 0.964054 -1.40143 0
M  V30 3816 O 374.099 0.955767 -1.69052 0
M  V30 3817 C 371.229 1.33504 -3.20615 0
M  V30 3818 C 370.183 0.760202 -4.21195 0
M  V30 3819 C 369.509 1.9264 -4.98792 0
M  V30 3820 C 370.809 -0.247661 -5.21712 0
M  V30 3821 H 372.503 -0.419082 -2.96452 0
M  V30 3822 H 370.049 -0.202988 -1.42562 0
M  V30 3823 H 372.002 1.88048 -3.77115 0
M  V30 3824 H 370.726 2.05253 -2.54045 0
M  V30 3825 H 369.385 0.23653 -3.65836 0
M  V30 3826 H 369.033 2.63154 -4.28671 0
M  V30 3827 H 368.733 1.54785 -5.66847 0
M  V30 3828 H 370.257 2.4762 -5.58137 0
M  V30 3829 H 371.671 0.209579 -5.72917 0
M  V30 3830 H 370.068 -0.541962 -5.97648 0
M  V30 3831 H 371.138 -1.16409 -4.7072 0
M  V30 3832 N 372.481 1.55866 -0.233164 0
M  V30 3833 C 373.729 1.9821 0.394593 0
M  V30 3834 C 374.05 1.12234 1.59463 0
M  V30 3835 O 373.32 0.201981 1.94856 0
M  V30 3836 H 371.9 0.732034 0.148778 0
M  V30 3837 H 374.562 1.92107 -0.32876 0
M  V30 3838 H 373.658 3.03845 0.713063 0
M  V30 3839 N 373.959 -0.0401083 1.57549 0
M  V30 3840 C 375.207 -0.731677 1.8839 0
M  V30 3841 C 375.528 -1.76481 0.829425 0
M  V30 3842 O 374.798 -1.95411 -0.1383 0
M  V30 3843 H 373.378 -0.273225 0.695239 0
M  V30 3844 H 376.04 -0.00867725 1.94898 0
M  V30 3845 H 375.136 -1.22816 2.86919 0
M  V30 3846 N 375.437 -1.54477 -0.31217 0
M  V30 3847 C 376.662 -1.77526 -1.07235 0
M  V30 3848 C 377.087 -0.527775 -1.80544 0
M  V30 3849 O 376.445 0.52121 -1.73646 0
M  V30 3850 C 376.493 -2.97535 -2.03728 0
M  V30 3851 O 375.597 -2.69878 -3.11833 0
M  V30 3852 H 374.938 -0.58792 -0.30862 0
M  V30 3853 H 377.468 -2.01532 -0.352993 0
M  V30 3854 H 377.478 -3.25198 -2.46395 0
M  V30 3855 H 376.153 -3.87996 -1.49774 0
M  V30 3856 H 374.73 -2.53199 -2.7376 0
M  V30 3857 N 376.915 0.57481 -1.46744 0
M  V30 3858 C 377.848 1.69827 -1.52427 0
M  V30 3859 C 378.826 1.58151 -0.377744 0
M  V30 3860 O 380.01 1.79257 -0.58303 0
M  V30 3861 C 377.137 3.07943 -1.41027 0
M  V30 3862 C 376.183 3.38116 -2.59961 0
M  V30 3863 S 377.016 3.29313 -4.22272 0
M  V30 3864 C 378.172 4.69953 -4.13394 0
M  V30 3865 H 378.405 1.64748 -2.47478 0
M  V30 3866 H 375.938 0.754203 -1.34726 0
M  V30 3867 H 377.896 3.87619 -1.35137 0
M  V30 3868 H 376.557 3.10504 -0.473909 0
M  V30 3869 H 375.75 4.38762 -2.47999 0
M  V30 3870 H 375.352 2.66024 -2.62882 0
M  V30 3871 H 377.644 5.60517 -3.80562 0
M  V30 3872 H 378.587 4.86972 -5.14066 0
M  V30 3873 H 378.995 4.47174 -3.44522 0
M  V30 3874 N 378.394 1.34581 0.820102 0
M  V30 3875 C 379.805 1.24298 1.39309 0
M  V30 3876 C 380.156 -0.130351 1.95767 0
M  V30 3877 O 379.281 -1.0308 1.90272 0
M  V30 3878 C 379.876 2.25054 2.53251 0
M  V30 3879 C 378.435 2.18552 3.0645 0
M  V30 3880 C 377.582 2.11503 1.79337 0
M  V30 3881 H 380.533 1.45906 0.624262 0
M  V30 3882 H 380.554 1.86917 3.31425 0
M  V30 3883 H 380.066 3.24996 2.1213 0
M  V30 3884 H 378.167 1.21976 3.52069 0
M  V30 3885 H 378.28 3.0993 3.65349 0
M  V30 3886 H 376.644 1.57268 2.00347 0
M  V30 3887 H 377.427 3.13284 1.40386 0
M  V30 3888 N 379.872 -1.04064 1.18357 0
M  V30 3889 C 380.802 -2.14001 0.934113 0
M  V30 3890 C 381.783 -1.69616 -0.128186 0
M  V30 3891 O 382.968 -1.94185 0.0244093 0
M  V30 3892 C 380.098 -3.44253 0.459066 0
M  V30 3893 C 379.052 -4.02261 1.46185 0
M  V30 3894 C 378.378 -5.27992 0.844322 0
M  V30 3895 C 379.678 -4.38432 2.83856 0
M  V30 3896 H 381.372 -2.35127 1.85352 0
M  V30 3897 H 378.918 -1.12998 0.892604 0
M  V30 3898 H 380.871 -4.20522 0.271907 0
M  V30 3899 H 379.595 -3.22813 -0.495912 0
M  V30 3900 H 378.254 -3.28074 1.63595 0
M  V30 3901 H 377.902 -5.02862 -0.117845 0
M  V30 3902 H 377.602 -5.67765 1.51384 0
M  V30 3903 H 379.126 -6.06938 0.667693 0
M  V30 3904 H 380.54 -5.05688 2.70098 0
M  V30 3905 H 378.937 -4.89254 3.47491 0
M  V30 3906 H 380.007 -3.4826 3.37406 0
M  V30 3907 N 381.35 -0.985608 -1.22978 0
M  V30 3908 C 382.28 -0.549649 -2.26939 0
M  V30 3909 C 383.261 0.419803 -1.64838 0
M  V30 3910 O 384.446 0.31203 -1.91677 0
M  V30 3911 C 381.576 0.143652 -3.47003 0
M  V30 3912 C 380.53 -0.743606 -4.21491 0
M  V30 3913 C 379.856 0.0822027 -5.34637 0
M  V30 3914 C 381.156 -2.03694 -4.80943 0
M  V30 3915 H 382.85 -1.41862 -2.63658 0
M  V30 3916 H 380.396 -0.683571 -1.26741 0
M  V30 3917 H 382.349 0.459985 -4.18882 0
M  V30 3918 H 381.073 1.04711 -3.09359 0
M  V30 3919 H 379.732 -1.04347 -3.51436 0
M  V30 3920 H 379.38 0.986359 -4.93234 0
M  V30 3921 H 379.08 -0.508377 -5.85397 0
M  V30 3922 H 380.604 0.392797 -6.09335 0
M  V30 3923 H 382.018 -1.78504 -5.44802 0
M  V30 3924 H 380.415 -2.57573 -5.42011 0
M  V30 3925 H 381.485 -2.72042 -4.01399 0
M  V30 3926 N 382.828 1.3818 -0.7579 0
M  V30 3927 C 383.778 2.27741 -0.108674 0
M  V30 3928 C 384.762 1.45415 0.688709 0
M  V30 3929 O 385.954 1.68108 0.553956 0
M  V30 3930 C 383.083 3.34313 0.780367 0
M  V30 3931 C 382.169 4.24093 -0.0240977 0
M  V30 3932 N 382.56 4.9451 -1.06271 0
M  V30 3933 C 380.858 4.45542 0.202049 0
M  V30 3934 C 381.559 5.60675 -1.54979 0
M  V30 3935 N 380.535 5.36684 -0.864348 0
M  V30 3936 H 384.337 2.79649 -0.904071 0
M  V30 3937 H 381.851 1.51133 -0.594346 0
M  V30 3938 H 383.848 3.97368 1.26114 0
M  V30 3939 H 382.508 2.83962 1.57467 0
M  V30 3940 H 383.519 4.97345 -1.44459 0
M  V30 3941 H 380.196 4.06091 0.96935 0
M  V30 3942 H 381.586 6.26992 -2.41517 0
M  V30 3943 N 384.306 0.507319 1.49211 0
M  V30 3944 C 385.722 0.163682 1.58758 0
M  V30 3945 C 385.922 -1.33208 1.51188 0
M  V30 3946 O 384.978 -2.10855 1.38911 0
M  V30 3947 C 386.291 0.746095 2.91297 0
M  V30 3948 C 387.839 0.712773 3.04776 0
M  V30 3949 C 388.314 1.27336 4.39943 0
M  V30 3950 N 389.805 1.23433 4.46451 0
M  V30 3951 C 390.54 1.63821 5.495 0
M  V30 3952 N 390.036 2.11832 6.5962 0
M  V30 3953 N 391.829 1.55198 5.4025 0
M  V30 3954 H 383.98 1.47972 1.52375 0
M  V30 3955 H 386.243 0.614147 0.722168 0
M  V30 3956 H 385.949 1.79534 3.02424 0
M  V30 3957 H 385.823 0.210137 3.76614 0
M  V30 3958 H 388.21 -0.327656 2.93275 0
M  V30 3959 H 388.291 1.28595 2.21127 0
M  V30 3960 H 387.935 2.3126 4.52196 0
M  V30 3961 H 387.865 0.676066 5.22242 0
M  V30 3962 H 390.356 0.882627 3.67448 0
M  V30 3963 H 390.669 2.40703 7.34358 0
M  V30 3964 H 389.014 2.1581 6.60644 0
M  V30 3965 H 392.205 1.17505 4.53112 0
M  V30 3966 H 392.378 1.86997 6.20432 0
M  V30 3967 N 385.784 -1.5574 0.241426 0
M  V30 3968 C 387.2 -1.59196 -0.113548 0
M  V30 3969 C 387.4 -1.25852 -1.57364 0
M  V30 3970 O 386.456 -1.00322 -2.31715 0
M  V30 3971 C 387.769 -2.99814 0.230695 0
M  V30 3972 C 389.317 -3.12513 0.174547 0
M  V30 3973 C 389.792 -4.55342 0.492744 0
M  V30 3974 N 391.283 -4.61076 0.443043 0
M  V30 3975 C 392.018 -5.6956 0.662484 0
M  V30 3976 N 391.514 -6.86328 0.944761 0
M  V30 3977 N 393.307 -5.58957 0.593564 0
M  V30 3978 H 385.458 -1.75685 1.19368 0
M  V30 3979 H 387.721 -0.81756 0.479896 0
M  V30 3980 H 387.427 -3.28932 1.24485 0
M  V30 3981 H 387.301 -3.74568 -0.444833 0
M  V30 3982 H 389.688 -2.83179 -0.830277 0
M  V30 3983 H 389.769 -2.40045 0.883845 0
M  V30 3984 H 389.413 -4.85396 1.4951 0
M  V30 3985 H 389.343 -5.26062 -0.23797 0
M  V30 3986 H 391.834 -3.77179 0.233374 0
M  V30 3987 H 392.147 -7.64935 1.09977 0
M  V30 3988 H 390.492 -6.88025 0.982175 0
M  V30 3989 H 393.683 -4.66611 0.373123 0
M  V30 3990 H 393.856 -6.43433 0.767981 0
M  V30 3991 N 387.262 0.0317525 -1.57568 0
M  V30 3992 C 388.673 0.578692 -1.77505 0
M  V30 3993 C 389.024 1.75749 -0.872164 0
M  V30 3994 O 388.149 2.16298 -0.0663106 0
M  V30 3995 C 388.744 1.05658 -3.21904 0
M  V30 3996 C 387.303 1.54906 -3.43047 0
M  V30 3997 C 386.45 0.485939 -2.73009 0
M  V30 3998 H 389.401 -0.194475 -1.57504 0
M  V30 3999 H 389.422 1.92404 -3.28269 0
M  V30 4000 H 388.934 0.198422 -3.87592 0
M  V30 4001 H 387.035 2.42915 -2.82529 0
M  V30 4002 H 387.148 1.59841 -4.5165 0
M  V30 4003 H 385.512 0.940354 -2.36705 0
M  V30 4004 H 386.295 -0.362709 -3.41379 0
M  V30 4005 N 388.74 1.54641 0.303973 0
M  V30 4006 C 390.017 1.64455 1.05896 0
M  V30 4007 C 390.397 0.490923 2.05312 0
M  V30 4008 O 389.745 -0.512685 2.22674 0
M  V30 4009 C 389.955 3.02331 1.74347 0
M  V30 4010 C 391.303 3.59045 2.26653 0
M  V30 4011 O 392.327 3.04764 1.84384 0
M  V30 4012 O 391.186 4.54081 3.04093 0
M  V30 4013 H 388.28 0.666729 0.489287 0
M  V30 4014 H 390.826 1.66986 0.302298 0
M  V30 4015 H 389.598 3.77734 1.02142 0
M  V30 4016 H 389.221 3.03565 2.56777 0
M  V30 4017 N 390.218 -0.567019 1.47046 0
M  V30 4018 C 391.15 -1.68985 1.54844 0
M  V30 4019 C 392.163 -1.56869 0.435431 0
M  V30 4020 O 393.352 -1.64006 0.70457 0
M  V30 4021 C 390.452 -3.07373 1.42742 0
M  V30 4022 C 389.625 -3.45339 2.6844 0
M  V30 4023 C 388.684 -4.62849 2.50314 0
M  V30 4024 O 387.71 -4.67922 3.24095 0
M  V30 4025 N 388.912 -5.58726 1.57499 0
M  V30 4026 H 391.677 -1.62745 2.51663 0
M  V30 4027 H 389.238 -0.753411 1.43302 0
M  V30 4028 H 391.23 -3.83803 1.28365 0
M  V30 4029 H 389.8 -3.07893 0.540445 0
M  V30 4030 H 389.02 -2.58455 2.97648 0
M  V30 4031 H 390.308 -3.67476 3.51907 0
M  V30 4032 H 389.706 -5.57376 0.966876 0
M  V30 4033 H 388.263 -6.34523 1.49078 0
M  V30 4034 N 391.696 -1.35014 -0.812953 0
M  V30 4035 C 393.112 -1.14914 -1.10757 0
M  V30 4036 C 393.312 0.0426818 -2.01455 0
M  V30 4037 O 392.368 0.715212 -2.42159 0
M  V30 4038 C 393.681 -2.44911 -1.74468 0
M  V30 4039 C 395.229 -2.5106 -1.86917 0
M  V30 4040 C 395.704 -3.81085 -2.54044 0
M  V30 4041 N 397.195 -3.82301 -2.61535 0
M  V30 4042 C 397.93 -4.79634 -3.14227 0
M  V30 4043 N 397.426 -5.87353 -3.67407 0
M  V30 4044 N 399.219 -4.67078 -3.12721 0
M  V30 4045 H 391.37 -2.1136 -0.20989 0
M  V30 4046 H 393.633 -0.935128 -0.155692 0
M  V30 4047 H 393.339 -3.32267 -1.15289 0
M  V30 4048 H 393.213 -2.58989 -2.74234 0
M  V30 4049 H 395.6 -1.64137 -2.45241 0
M  V30 4050 H 395.681 -2.40901 -0.860242 0
M  V30 4051 H 395.325 -4.68402 -1.96372 0
M  V30 4052 H 395.255 -3.88529 -3.55461 0
M  V30 4053 H 397.746 -3.04465 -2.23851 0
M  V30 4054 H 398.059 -6.57624 -4.05894 0
M  V30 4055 H 396.404 -5.91054 -3.65623 0
M  V30 4056 H 399.595 -3.82067 -2.70449 0
M  V30 4057 H 399.768 -5.43098 -3.53481 0
M  V30 4058 N 393.175 1.03435 -1.18907 0
M  V30 4059 C 394.591 1.28973 -0.940111 0
M  V30 4060 C 394.791 1.97676 0.390691 0
M  V30 4061 O 393.847 2.26127 1.12352 0
M  V30 4062 C 395.16 2.14221 -2.11021 0
M  V30 4063 C 396.708 2.27547 -2.14922 0
M  V30 4064 C 397.183 3.16164 -3.31367 0
M  V30 4065 N 398.674 3.23752 -3.31269 0
M  V30 4066 C 399.409 3.92495 -4.18014 0
M  V30 4067 N 398.905 4.63515 -5.14904 0
M  V30 4068 N 400.698 3.88838 -4.05908 0
M  V30 4069 H 392.849 0.57252 -2.04538 0
M  V30 4070 H 395.112 0.315184 -0.894071 0
M  V30 4071 H 394.818 1.71054 -3.073 0
M  V30 4072 H 394.692 3.14919 -2.0762 0
M  V30 4073 H 397.079 2.69947 -1.19217 0
M  V30 4074 H 397.16 1.26418 -2.22378 0
M  V30 4075 H 396.804 2.74474 -4.27348 0
M  V30 4076 H 396.734 4.17339 -3.21148 0
M  V30 4077 H 399.225 2.73167 -2.61129 0
M  V30 4078 H 399.538 5.13583 -5.77453 0
M  V30 4079 H 397.883 4.62398 -5.18857 0
M  V30 4080 H 401.074 3.32491 -3.29495 0
M  V30 4081 H 401.247 4.4214 -4.73726 0
M  V30 4082 N 394.653 0.992116 1.22453 0
M  V30 4083 C 395.583 0.561677 2.26644 0
M  V30 4084 C 396.564 -0.411055 1.65059 0
M  V30 4085 O 397.749 -0.301861 1.9184 0
M  V30 4086 C 394.879 -0.125247 3.47074 0
M  V30 4087 C 393.833 0.765948 4.21091 0
M  V30 4088 C 393.159 -0.0538484 5.34673 0
M  V30 4089 C 394.459 2.06242 4.79856 0
M  V30 4090 H 396.153 1.43259 2.62902 0
M  V30 4091 H 393.699 0.690283 1.26377 0
M  V30 4092 H 395.652 -0.437764 4.1912 0
M  V30 4093 H 394.376 -1.03069 3.0991 0
M  V30 4094 H 393.035 1.0621 3.50878 0
M  V30 4095 H 392.683 -0.960188 4.9375 0
M  V30 4096 H 392.383 0.539415 5.85119 0
M  V30 4097 H 393.907 -0.360477 6.09535 0
M  V30 4098 H 395.321 1.8139 5.43848 0
M  V30 4099 H 393.718 2.60444 5.40638 0
M  V30 4100 H 394.788 2.74167 3.99951 0
M  V30 4101 N 396.131 -1.37776 0.765217 0
M  V30 4102 C 397.061 -2.32945 0.160953 0
M  V30 4103 C 398.042 -1.55454 -0.690516 0
M  V30 4104 O 399.227 -1.83721 -0.629318 0
M  V30 4105 C 396.357 -3.39669 -0.724031 0
M  V30 4106 C 395.311 -4.27992 0.0256173 0
M  V30 4107 C 394.637 -5.25673 -0.978383 0
M  V30 4108 C 395.937 -5.08309 1.20082 0
M  V30 4109 H 397.631 -2.83728 0.955969 0
M  V30 4110 H 395.177 -1.36416 0.461149 0
M  V30 4111 H 397.13 -4.05219 -1.15652 0
M  V30 4112 H 395.854 -2.87396 -1.5515 0
M  V30 4113 H 394.513 -3.63964 0.438812 0
M  V30 4114 H 394.161 -4.69682 -1.80022 0
M  V30 4115 H 393.861 -5.85625 -0.481378 0
M  V30 4116 H 395.385 -5.94098 -1.40995 0
M  V30 4117 H 396.799 -5.67034 0.845307 0
M  V30 4118 H 395.196 -5.77554 1.62947 0
M  V30 4119 H 396.266 -4.41365 2.00811 0
M  V30 4120 N 397.609 -0.515225 -1.4894 0
M  V30 4121 C 398.539 0.244628 -2.32215 0
M  V30 4122 C 399.52 0.949136 -1.41157 0
M  V30 4123 O 400.705 0.937783 -1.70057 0
M  V30 4124 C 397.835 1.30096 -3.22013 0
M  V30 4125 C 396.789 0.715486 -4.21977 0
M  V30 4126 C 396.115 1.87339 -5.00808 0
M  V30 4127 C 397.415 -0.302982 -5.2142 0
M  V30 4128 H 399.109 -0.450501 -2.95991 0
M  V30 4129 H 396.655 -0.218098 -1.42339 0
M  V30 4130 H 398.608 1.84037 -3.79089 0
M  V30 4131 H 397.332 2.02547 -2.56207 0
M  V30 4132 H 395.991 0.197715 -3.66066 0
M  V30 4133 H 395.639 2.58592 -4.31438 0
M  V30 4134 H 395.339 1.48764 -5.68457 0
M  V30 4135 H 396.863 2.41686 -5.60732 0
M  V30 4136 H 398.277 0.148802 -5.73107 0
M  V30 4137 H 396.674 -0.60532 -5.97039 0
M  V30 4138 H 397.744 -1.21395 -4.69459 0
M  V30 4139 N 399.087 1.5561 -0.249682 0
M  V30 4140 C 400.364 1.90932 0.424761 0
M  V30 4141 C 400.744 1.17078 1.75658 0
M  V30 4142 O 400.092 0.289176 2.26663 0
M  V30 4143 C 400.302 3.43975 0.590109 0
M  V30 4144 C 401.65 4.15281 0.884714 0
M  V30 4145 O 402.674 3.49729 0.67587 0
M  V30 4146 O 401.533 5.31236 1.28259 0
M  V30 4147 H 398.627 0.794815 0.228468 0
M  V30 4148 H 401.173 1.67135 -0.293954 0
M  V30 4149 H 399.945 3.89748 -0.34818 0
M  V30 4150 H 399.568 3.73644 1.35926 0
M  V30 4151 N 400.565 -0.0233959 1.57583 0
M  V30 4152 C 401.842 -0.748794 1.807 0
M  V30 4153 C 402.222 -1.9327 0.849106 0
M  V30 4154 O 401.57 -2.28247 -0.107468 0
M  V30 4155 C 401.78 -1.17651 3.28571 0
M  V30 4156 C 403.128 -1.59008 3.93702 0
M  V30 4157 O 404.152 -1.27094 3.32755 0
M  V30 4158 O 403.011 -2.18264 5.01022 0
M  V30 4159 H 400.105 -0.362578 0.743281 0
M  V30 4160 H 402.651 0.000261958 1.697 0
M  V30 4161 H 401.423 -0.331603 3.89892 0
M  V30 4162 H 401.046 -1.98541 3.44481 0
M  V30 4163 N 402.043 -1.548 -0.295768 0
M  V30 4164 C 403.454 -1.65274 -0.868411 0
M  V30 4165 C 403.805 -0.56481 -1.87894 0
M  V30 4166 O 402.93 0.29767 -2.14343 0
M  V30 4167 C 403.525 -2.99603 -1.58188 0
M  V30 4168 C 402.084 -3.12181 -2.10286 0
M  V30 4169 C 401.231 -2.6098 -0.93727 0
M  V30 4170 H 404.182 -1.58534 -0.0726422 0
M  V30 4171 H 404.203 -2.91319 -2.44772 0
M  V30 4172 H 403.715 -3.78764 -0.846151 0
M  V30 4173 H 401.816 -2.3775 -2.8689 0
M  V30 4174 H 401.929 -4.18415 -2.33379 0
M  V30 4175 H 400.293 -2.17564 -1.32431 0
M  V30 4176 H 401.076 -3.42623 -0.215414 0
M  V30 4177 N 403.521 0.559213 -1.47345 0
M  V30 4178 C 404.431 1.69388 -1.62311 0
M  V30 4179 C 405.447 1.6648 -0.505993 0
M  V30 4180 O 406.623 1.85964 -0.773262 0
M  V30 4181 C 403.688 3.05894 -1.63185 0
M  V30 4182 C 402.749 3.19885 -2.86307 0
M  V30 4183 C 401.982 4.49879 -2.87131 0
M  V30 4184 O 402.205 5.35217 -1.97229 0
M  V30 4185 O 401.139 4.67618 -3.78968 0
M  V30 4186 H 404.965 1.59706 -2.58317 0
M  V30 4187 H 402.55 0.728989 -1.30407 0
M  V30 4188 H 404.432 3.87133 -1.66451 0
M  V30 4189 H 403.107 3.15964 -0.70345 0
M  V30 4190 H 402.014 2.38052 -2.88587 0
M  V30 4191 H 403.347 3.14718 -3.78435 0
M  V30 4192 N 404.999 1.35443 0.805782 0
M  V30 4193 C 406.247 1.28507 1.55982 0
M  V30 4194 C 406.568 -0.140046 1.94496 0
M  V30 4195 O 405.838 -1.07666 1.63661 0
M  V30 4196 H 404.418 0.472676 0.578434 0
M  V30 4197 H 407.08 1.69555 0.961098 0
M  V30 4198 H 406.176 1.90148 2.47488 0
M  V30 4199 N 406.477 -1.02803 1.19454 0
M  V30 4200 C 407.726 -1.7562 0.991996 0
M  V30 4201 C 408.039 -1.89672 -0.477901 0
M  V30 4202 O 409.245 -2.59468 -0.799287 0
M  V30 4203 C 407.701 -3.15812 1.72601 0
M  V30 4204 C 407.309 -3.0981 3.23607 0
M  V30 4205 C 409.053 -3.92918 1.60674 0
M  V30 4206 C 406.96 -4.44939 3.89594 0
M  V30 4207 H 405.89 -0.658352 0.367543 0
M  V30 4208 H 408.541 -1.15044 1.42959 0
M  V30 4209 H 406.923 -3.7686 1.21624 0
M  V30 4210 H 408.097 -2.58138 3.81709 0
M  V30 4211 H 406.412 -2.46201 3.35819 0
M  V30 4212 H 409.009 -4.9287 2.07323 0
M  V30 4213 H 409.352 -4.12502 0.561025 0
M  V30 4214 H 409.885 -3.38472 2.09001 0
M  V30 4215 H 406.624 -4.30559 4.94267 0
M  V30 4216 H 406.144 -4.96664 3.36281 0
M  V30 4217 H 407.823 -5.1382 3.93189 0
M  V30 4218 N 407.956 -0.998596 -1.21925 0
M  V30 4219 C 409.367 -0.711939 -1.72593 0
M  V30 4220 C 409.718 0.770842 -1.80423 0
M  V30 4221 O 408.843 1.60237 -1.4544 0
M  V30 4222 C 409.438 -1.28567 -3.13458 0
M  V30 4223 C 407.997 -1.04828 -3.61508 0
M  V30 4224 C 407.144 -1.4024 -2.39224 0
M  V30 4225 H 410.095 -1.17027 -1.07193 0
M  V30 4226 H 410.116 -0.667098 -3.74607 0
M  V30 4227 H 409.628 -2.36486 -3.07727 0
M  V30 4228 H 407.729 0.0140383 -3.72597 0
M  V30 4229 H 407.842 -1.71566 -4.47328 0
M  V30 4230 H 406.206 -0.821077 -2.41103 0
M  V30 4231 H 406.989 -2.49176 -2.36149 0
M  V30 4232 N 409.434 1.37368 -0.772513 0
M  V30 4233 C 410.711 1.93839 -0.26188 0
M  V30 4234 C 411.091 1.7061 1.24319 0
M  V30 4235 O 410.439 1.05534 2.02669 0
M  V30 4236 C 410.649 3.43154 -0.636102 0
M  V30 4237 C 411.997 4.20249 -0.606324 0
M  V30 4238 O 413.021 3.5152 -0.575538 0
M  V30 4239 O 411.88 5.42809 -0.634086 0
M  V30 4240 H 408.974 0.82478 -0.0605555 0
M  V30 4241 H 411.52 1.4665 -0.853917 0
M  V30 4242 H 410.292 3.53647 -1.6748 0
M  V30 4243 H 409.915 3.97596 -0.0170516 0
M  V30 4244 N 410.912 0.523116 1.48665 0
M  V30 4245 C 411.875 -0.232592 2.28017 0
M  V30 4246 C 412.875 -0.874021 1.34972 0
M  V30 4247 O 414.065 -0.735132 1.57929 0
M  V30 4248 C 411.197 -1.33586 3.13636 0
M  V30 4249 H 412.39 0.464008 2.96289 0
M  V30 4250 H 409.943 0.278816 1.53793 0
M  V30 4251 H 410.678 -2.06593 2.4998 0
M  V30 4252 H 410.463 -0.881125 3.82071 0
M  V30 4253 H 411.953 -1.86759 3.73511 0
M  V30 4254 N 412.39 -1.55475 0.257931 0
M  V30 4255 C 413.636 -1.99502 -0.364266 0
M  V30 4256 C 413.969 -1.146 -1.56782 0
M  V30 4257 O 413.244 -0.211968 -1.93342 0
M  V30 4258 C 413.527 -3.51917 -0.763333 0
M  V30 4259 C 413.38 -4.4758 0.446371 0
M  V30 4260 C 414.699 -4.09742 -1.60623 0
M  V30 4261 H 411.818 -0.725277 -0.130929 0
M  V30 4262 H 414.46 -1.8653 0.361446 0
M  V30 4263 H 412.61 -3.63101 -1.38166 0
M  V30 4264 H 414.282 -4.48362 1.08487 0
M  V30 4265 H 412.525 -4.19947 1.08753 0
M  V30 4266 H 413.196 -5.51862 0.123645 0
M  V30 4267 H 415.672 -4.01727 -1.08418 0
M  V30 4268 H 414.548 -5.16631 -1.85429 0
M  V30 4269 H 414.809 -3.58889 -2.58169 0
M  V30 4270 N 413.868 0.0150385 -1.57593 0
M  V30 4271 C 414.778 1.02791 -2.10882 0
M  V30 4272 C 415.794 1.38702 -1.0506 0
M  V30 4273 O 416.97 1.47739 -1.36877 0
M  V30 4274 C 414.035 2.30568 -2.58919 0
M  V30 4275 C 413.096 2.01108 -3.79281 0
M  V30 4276 C 412.329 3.22794 -4.25018 0
M  V30 4277 O 412.552 4.33959 -3.70183 0
M  V30 4278 O 411.486 3.07672 -5.17322 0
M  V30 4279 H 415.312 0.604973 -2.97613 0
M  V30 4280 H 412.897 0.23292 -1.47573 0
M  V30 4281 H 414.779 3.05662 -2.90084 0
M  V30 4282 H 413.454 2.72129 -1.75293 0
M  V30 4283 H 412.361 1.23537 -3.53114 0
M  V30 4284 H 413.694 1.64394 -4.63935 0
M  V30 4285 N 415.346 1.54954 0.287554 0
M  V30 4286 C 416.256 1.8991 1.37736 0
M  V30 4287 C 417.272 0.794701 1.54792 0
M  V30 4288 O 418.448 1.09243 1.69198 0
M  V30 4289 C 415.513 2.15108 2.71899 0
M  V30 4290 C 414.574 3.38752 2.63715 0
M  V30 4291 C 413.807 3.62739 3.91479 0
M  V30 4292 O 414.03 2.89492 4.91478 0
M  V30 4293 O 412.964 4.56267 3.92561 0
M  V30 4294 H 416.79 2.82652 1.11092 0
M  V30 4295 H 414.375 1.41315 0.484807 0
M  V30 4296 H 416.257 2.32806 3.51254 0
M  V30 4297 H 414.932 1.25551 2.9836 0
M  V30 4298 H 413.839 3.26405 1.82786 0
M  V30 4299 H 415.172 4.28483 2.42205 0
M  V30 4300 N 416.824 -0.551391 1.4764 0
M  V30 4301 C 417.754 -1.66757 1.63445 0
M  V30 4302 C 418.735 -1.63077 0.483742 0
M  V30 4303 O 419.92 -1.80607 0.71377 0
M  V30 4304 C 417.05 -3.05387 1.65396 0
M  V30 4305 C 416.004 -3.23918 2.79752 0
M  V30 4306 C 415.33 -4.63393 2.66779 0
M  V30 4307 C 416.63 -3.08735 4.21284 0
M  V30 4308 H 418.324 -1.53786 2.56886 0
M  V30 4309 H 415.87 -0.738415 1.23626 0
M  V30 4310 H 417.823 -3.83325 1.75043 0
M  V30 4311 H 416.547 -3.19332 0.685195 0
M  V30 4312 H 415.206 -2.48391 2.69625 0
M  V30 4313 H 414.854 -4.74144 1.67918 0
M  V30 4314 H 414.554 -4.7674 3.43501 0
M  V30 4315 H 416.078 -5.43458 2.78364 0
M  V30 4316 H 417.492 -3.76484 4.32357 0
M  V30 4317 H 415.889 -3.33588 4.98838 0
M  V30 4318 H 416.959 -2.0541 4.39243 0
M  V30 4319 N 418.302 -1.35869 -0.798587 0
M  V30 4320 C 419.232 -1.32118 -1.92528 0
M  V30 4321 C 420.213 -0.194209 -1.68988 0
M  V30 4322 O 421.398 -0.390426 -1.90235 0
M  V30 4323 C 418.528 -1.10047 -3.29404 0
M  V30 4324 C 417.482 -2.19471 -3.67446 0
M  V30 4325 C 416.808 -1.82555 -5.02571 0
M  V30 4326 C 418.108 -3.61495 -3.76987 0
M  V30 4327 H 419.802 -2.26394 -1.95924 0
M  V30 4328 H 417.348 -1.08981 -0.94123 0
M  V30 4329 H 419.301 -1.06061 -4.07835 0
M  V30 4330 H 418.025 -0.122195 -3.26371 0
M  V30 4331 H 416.684 -2.22568 -2.91306 0
M  V30 4332 H 416.332 -0.833249 -4.9605 0
M  V30 4333 H 416.032 -2.5581 -5.28995 0
M  V30 4334 H 417.556 -1.80108 -5.83432 0
M  V30 4335 H 418.97 -3.60676 -4.4563 0
M  V30 4336 H 417.367 -4.33577 -4.14887 0
M  V30 4337 H 418.437 -3.97065 -2.78329 0
M  V30 4338 N 419.78 1.02168 -1.19998 0
M  V30 4339 C 421.196 1.27969 -0.953737 0
M  V30 4340 C 421.396 1.98079 0.369703 0
M  V30 4341 O 420.452 2.27306 1.09947 0
M  V30 4342 C 421.765 2.11971 -2.13281 0
M  V30 4343 C 423.313 2.25255 -2.17323 0
M  V30 4344 C 423.788 3.12632 -3.34702 0
M  V30 4345 N 425.279 3.2022 -3.34684 0
M  V30 4346 C 426.014 3.88039 -4.22153 0
M  V30 4347 N 425.51 4.58027 -5.19791 0
M  V30 4348 N 427.303 3.84511 -4.10009 0
M  V30 4349 H 419.454 0.550794 -2.05134 0
M  V30 4350 H 421.717 0.305683 -0.897364 0
M  V30 4351 H 421.423 1.67785 -3.09097 0
M  V30 4352 H 421.297 3.12699 -2.10949 0
M  V30 4353 H 423.684 2.68667 -1.22073 0
M  V30 4354 H 423.765 1.24053 -2.23706 0
M  V30 4355 H 423.409 2.69926 -4.30235 0
M  V30 4356 H 423.339 4.13909 -3.25556 0
M  V30 4357 H 425.83 2.70382 -2.64012 0
M  V30 4358 H 426.143 5.07429 -5.82868 0
M  V30 4359 H 424.488 4.56869 -5.23733 0
M  V30 4360 H 427.679 3.28978 -3.33003 0
M  V30 4361 H 427.852 4.3709 -4.78389 0
M  V30 4362 N 421.258 1.00505 1.21394 0
M  V30 4363 C 422.188 0.585684 2.26035 0
M  V30 4364 C 423.169 -0.393525 1.65485 0
M  V30 4365 O 424.354 -0.281497 1.92149 0
M  V30 4366 C 421.484 -0.0884283 3.47187 0
M  V30 4367 C 420.438 0.810567 4.20254 0
M  V30 4368 C 419.764 0.00286382 5.347 0
M  V30 4369 C 421.064 2.1132 4.77641 0
M  V30 4370 H 422.758 1.46039 2.61368 0
M  V30 4371 H 420.304 0.703648 1.25638 0
M  V30 4372 H 422.257 -0.393286 4.19561 0
M  V30 4373 H 420.981 -0.997766 3.10986 0
M  V30 4374 H 419.64 1.09925 3.49731 0
M  V30 4375 H 419.288 -0.907765 4.94741 0
M  V30 4376 H 418.988 0.601444 5.84514 0
M  V30 4377 H 420.512 -0.295808 6.09883 0
M  V30 4378 H 421.926 1.87148 5.41893 0
M  V30 4379 H 420.323 2.66164 5.37845 0
M  V30 4380 H 421.393 2.78393 3.9702 0
M  V30 4381 N 422.737 -1.36956 0.779787 0
M  V30 4382 C 423.965 -2.03755 0.359398 0
M  V30 4383 C 424.38 -1.58807 -1.02106 0
M  V30 4384 O 423.737 -0.773024 -1.6532 0
M  V30 4385 C 423.788 -3.59251 0.402568 0
M  V30 4386 O 423.509 -4.02557 1.72858 0
M  V30 4387 C 425.01 -4.43291 -0.0284068 0
M  V30 4388 H 422.23 -0.654148 0.149437 0
M  V30 4389 H 424.774 -1.75128 1.05595 0
M  V30 4390 H 422.929 -3.86621 -0.245478 0
M  V30 4391 H 423.343 -4.97111 1.67275 0
M  V30 4392 H 424.817 -5.51975 0.0529466 0
M  V30 4393 H 425.294 -4.25719 -1.07982 0
M  V30 4394 H 425.9 -4.21163 0.591758 0
M  V30 4395 N 424.215 -0.530993 -1.48385 0
M  V30 4396 C 425.44 0.000729535 -2.074 0
M  V30 4397 C 425.865 1.27298 -1.3848 0
M  V30 4398 O 425.223 1.75599 -0.451081 0
M  V30 4399 C 425.271 0.206697 -3.60007 0
M  V30 4400 O 424.375 1.27514 -3.92191 0
M  V30 4401 H 423.716 -0.039583 -0.662819 0
M  V30 4402 H 426.246 -0.739194 -1.9078 0
M  V30 4403 H 426.256 0.42904 -4.05738 0
M  V30 4404 H 424.931 -0.722675 -4.09573 0
M  V30 4405 H 423.508 1.03537 -3.58238 0
M  V30 4406 N 425.693 1.55336 -0.266172 0
M  V30 4407 C 427.104 1.85236 0.233315 0
M  V30 4408 C 427.455 1.18816 1.56132 0
M  V30 4409 O 426.58 0.473307 2.11161 0
M  V30 4410 C 427.175 3.36059 0.430113 0
M  V30 4411 C 425.734 3.66116 0.873842 0
M  V30 4412 C 424.881 2.77274 -0.0380016 0
M  V30 4413 H 427.832 1.51004 -0.488214 0
M  V30 4414 H 427.853 3.58681 1.26998 0
M  V30 4415 H 427.365 3.84373 -0.536588 0
M  V30 4416 H 425.466 3.23295 1.85233 0
M  V30 4417 H 425.579 4.73699 0.717358 0
M  V30 4418 H 423.943 2.50198 0.476759 0
M  V30 4419 H 424.726 3.284 -1.00042 0
M  V30 4420 N 427.171 -0.0066808 1.57599 0
M  V30 4421 C 428.417 -0.693947 1.90558 0
M  V30 4422 C 428.75 -1.73792 0.866594 0
M  V30 4423 O 428.025 -1.94156 -0.115548 0
M  V30 4424 C 428.308 -1.34317 3.34112 0
M  V30 4425 C 428.161 -0.311189 4.48722 0
M  V30 4426 C 429.48 -2.27116 3.7697 0
M  V30 4427 H 426.599 -0.250803 0.693013 0
M  V30 4428 H 429.241 0.043242 1.89951 0
M  V30 4429 H 427.391 -1.9715 3.3476 0
M  V30 4430 H 429.063 0.316944 4.6021 0
M  V30 4431 H 427.306 0.367253 4.32243 0
M  V30 4432 H 427.977 -0.804366 5.46108 0
M  V30 4433 H 430.453 -1.74306 3.77831 0
M  V30 4434 H 429.329 -2.69511 4.78179 0
M  V30 4435 H 429.59 -3.14743 3.10466 0
M  V30 4436 N 428.649 -1.55105 -0.279332 0
M  V30 4437 C 429.581 -1.83952 -1.36727 0
M  V30 4438 C 430.594 -0.723642 -1.45833 0
M  V30 4439 O 431.783 -1.00141 -1.47763 0
M  V30 4440 C 428.883 -1.98183 -2.74912 0
M  V30 4441 C 428.056 -3.28787 -2.88475 0
M  V30 4442 C 427.115 -3.33162 -4.07295 0
M  V30 4443 O 426.141 -4.06576 -3.98353 0
M  V30 4444 N 427.343 -2.60109 -5.18964 0
M  V30 4445 H 430.108 -2.77853 -1.12328 0
M  V30 4446 H 427.669 -1.54945 -0.469442 0
M  V30 4447 H 429.661 -1.98488 -3.52682 0
M  V30 4448 H 428.231 -1.11177 -2.92162 0
M  V30 4449 H 427.451 -3.41075 -1.97641 0
M  V30 4450 H 428.739 -4.14933 -2.94463 0
M  V30 4451 H 428.137 -2.00136 -5.29115 0
M  V30 4452 H 426.694 -2.66143 -5.94988 0
M  V30 4453 N 430.127 0.543554 -1.4793 0
M  V30 4454 C 431.375 1.29752 -1.54948 0
M  V30 4455 C 431.696 1.93764 -0.219242 0
M  V30 4456 O 430.966 1.80639 0.75805 0
M  V30 4457 H 429.546 0.481874 -0.570795 0
M  V30 4458 H 432.208 0.633636 -1.84312 0
M  V30 4459 H 431.304 2.08392 -2.32334 0
M  V30 4460 N 431.605 1.3629 0.791371 0
M  V30 4461 C 432.535 1.33137 1.91825 0
M  V30 4462 C 433.516 0.203168 1.68882 0
M  V30 4463 O 434.701 0.400509 1.90025 0
M  V30 4464 C 431.831 1.11793 3.28816 0
M  V30 4465 C 430.785 2.21417 3.66277 0
M  V30 4466 C 430.111 1.85218 5.01596 0
M  V30 4467 C 431.411 3.63489 3.75064 0
M  V30 4468 H 433.105 2.2743 1.9472 0
M  V30 4469 H 430.651 1.09479 0.935437 0
M  V30 4470 H 432.604 1.08222 4.07266 0
M  V30 4471 H 431.328 0.139501 3.26302 0
M  V30 4472 H 429.987 2.2411 2.90121 0
M  V30 4473 H 429.635 0.859544 4.95602 0
M  V30 4474 H 429.335 2.58611 5.27631 0
M  V30 4475 H 430.859 1.832 5.82469 0
M  V30 4476 H 432.273 3.63034 4.43711 0
M  V30 4477 H 430.67 4.35771 4.12582 0
M  V30 4478 H 431.74 3.98536 2.76219 0
M  V30 4479 N 433.083 -1.0153 1.20538 0
M  V30 4480 C 434.046 -2.0826 0.957098 0
M  V30 4481 C 435.046 -1.60657 -0.0678655 0
M  V30 4482 O 436.236 -1.73385 0.168332 0
M  V30 4483 C 433.368 -3.38033 0.441188 0
M  V30 4484 H 434.561 -2.31719 1.90384 0
M  V30 4485 H 432.114 -1.1835 1.02093 0
M  V30 4486 H 432.849 -3.20249 -0.510961 0
M  V30 4487 H 432.634 -3.73911 1.18038 0
M  V30 4488 H 434.124 -4.16613 0.287009 0
M  V30 4489 N 434.561 -1.01147 -1.20859 0
M  V30 4490 C 435.977 -0.725422 -1.42161 0
M  V30 4491 C 436.177 0.696919 -1.89064 0
M  V30 4492 O 435.233 1.46539 -2.05627 0
M  V30 4493 C 436.546 -1.74678 -2.44761 0
M  V30 4494 C 438.094 -1.76433 -2.58535 0
M  V30 4495 C 438.569 -2.77481 -3.64374 0
M  V30 4496 N 440.06 -2.76189 -3.71852 0
M  V30 4497 C 440.795 -3.51035 -4.53389 0
M  V30 4498 N 440.291 -4.35541 -5.38773 0
M  V30 4499 N 442.084 -3.39655 -4.47873 0
M  V30 4500 H 434.235 -1.92979 -0.887282 0
M  V30 4501 H 436.498 -0.833327 -0.451962 0
M  V30 4502 H 436.204 -2.76551 -2.17285 0
M  V30 4503 H 436.078 -1.55472 -3.43669 0
M  V30 4504 H 438.465 -0.75248 -2.85345 0
M  V30 4505 H 438.546 -1.99712 -1.5984 0
M  V30 4506 H 438.19 -3.78827 -3.38308 0
M  V30 4507 H 438.12 -2.51466 -4.6268 0
M  V30 4508 H 440.611 -2.14885 -3.10858 0
M  V30 4509 H 440.924 -4.89432 -5.98061 0
M  V30 4510 H 439.269 -4.39621 -5.38292 0
M  V30 4511 H 442.46 -2.73063 -3.80203 0
M  V30 4512 H 442.633 -3.9824 -5.11184 0
M  V30 4513 N 436.039 1.36541 -0.78704 0
M  V30 4514 C 437.267 2.03561 -0.370199 0
M  V30 4515 C 437.682 1.59347 1.01263 0
M  V30 4516 O 437.039 0.781781 1.64907 0
M  V30 4517 C 437.09 3.59033 -0.421614 0
M  V30 4518 O 436.811 4.01634 -1.7499 0
M  V30 4519 C 438.312 4.433 0.00489763 0
M  V30 4520 H 435.532 0.653346 -0.152904 0
M  V30 4521 H 438.076 1.74566 -1.06522 0
M  V30 4522 H 436.231 3.86746 0.224971 0
M  V30 4523 H 436.645 4.96217 -1.69909 0
M  V30 4524 H 438.119 5.51939 -0.0822184 0
M  V30 4525 H 438.596 4.26285 1.05723 0
M  V30 4526 H 439.202 4.20843 -0.614085 0
M  V30 4527 N 437.518 0.538854 1.48102 0
M  V30 4528 C 438.746 0.0123136 2.06896 0
M  V30 4529 C 439.161 -1.27312 1.39417 0
M  V30 4530 O 438.518 -1.75949 0.484582 0
M  V30 4531 C 438.569 -0.206118 3.60912 0
M  V30 4532 O 438.29 1.0284 4.25859 0
M  V30 4533 C 439.791 -0.772033 4.36526 0
M  V30 4534 H 437.011 0.0375239 0.66995 0
M  V30 4535 H 439.555 0.747032 1.90367 0
M  V30 4536 H 437.71 -0.89091 3.77017 0
M  V30 4537 H 438.124 0.814654 5.18135 0
M  V30 4538 H 439.598 -0.874251 5.45033 0
M  V30 4539 H 440.075 -1.77904 4.01555 0
M  V30 4540 H 440.681 -0.123526 4.25121 0
M  V30 4541 N 438.996 -1.55193 0.274407 0
M  V30 4542 C 440.224 -2.03987 -0.345943 0
M  V30 4543 C 440.639 -1.15279 -1.4952 0
M  V30 4544 O 439.996 -0.172759 -1.8168 0
M  V30 4545 C 440.047 -3.51898 -0.827631 0
M  V30 4546 O 439.768 -4.37231 0.275855 0
M  V30 4547 C 441.269 -4.16577 -1.51587 0
M  V30 4548 H 438.489 -0.666335 -0.0789892 0
M  V30 4549 H 441.033 -2.00423 0.406294 0
M  V30 4550 H 439.188 -3.55909 -1.52996 0
M  V30 4551 H 439.602 -5.24415 -0.0943638 0
M  V30 4552 H 441.076 -5.21678 -1.80433 0
M  V30 4553 H 441.553 -3.64707 -2.44716 0
M  V30 4554 H 442.159 -4.16568 -0.857409 0
M  V30 4555 N 440.474 -0.00167713 -1.576 0
M  V30 4556 C 441.89 0.354422 -1.55615 0
M  V30 4557 C 442.09 1.74679 -1.00447 0
M  V30 4558 O 441.146 2.4428 -0.639022 0
M  V30 4559 C 442.459 0.22812 -2.99833 0
M  V30 4560 C 444.007 0.302934 -3.11531 0
M  V30 4561 C 444.482 0.205737 -4.57538 0
M  V30 4562 N 445.973 0.263584 -4.62449 0
M  V30 4563 C 446.708 0.211742 -5.73009 0
M  V30 4564 N 446.204 0.110399 -6.92712 0
M  V30 4565 N 447.997 0.263729 -5.61481 0
M  V30 4566 H 440.148 -0.912498 -1.918 0
M  V30 4567 H 442.411 -0.349928 -0.881053 0
M  V30 4568 H 442.117 -0.729934 -3.44042 0
M  V30 4569 H 441.991 1.00951 -3.6344 0
M  V30 4570 H 444.378 1.25143 -2.67251 0
M  V30 4571 H 444.459 -0.508357 -2.50698 0
M  V30 4572 H 444.103 -0.739225 -5.02492 0
M  V30 4573 H 444.033 1.03554 -5.16318 0
M  V30 4574 H 446.524 0.343173 -3.76339 0
M  V30 4575 H 446.837 0.0767828 -7.72762 0
M  V30 4576 H 445.182 0.0760025 -6.94958 0
M  V30 4577 H 448.373 0.34111 -4.66855 0
M  V30 4578 H 448.546 0.219862 -6.47627 0
M  V30 4579 N 441.952 1.55251 0.271103 0
M  V30 4580 C 443.229 1.66664 1.02384 0
M  V30 4581 C 443.609 0.534363 2.04225 0
M  V30 4582 O 442.957 -0.465337 2.23712 0
M  V30 4583 C 443.167 3.05961 1.67895 0
M  V30 4584 C 444.515 3.63772 2.18986 0
M  V30 4585 O 445.539 3.08606 1.77878 0
M  V30 4586 O 444.398 4.60429 2.94393 0
M  V30 4587 H 441.492 0.676957 0.475035 0
M  V30 4588 H 444.038 1.67589 0.26681 0
M  V30 4589 H 442.81 3.79815 0.941071 0
M  V30 4590 H 442.433 3.08943 2.5028 0
M  V30 4591 N 443.43 -0.535701 1.48216 0
M  V30 4592 C 444.676 -1.29375 1.56173 0
M  V30 4593 C 445.009 -1.92804 0.232429 0
M  V30 4594 O 444.284 -1.78992 -0.761048 0
M  V30 4595 C 444.567 -2.38747 2.69577 0
M  V30 4596 C 444.42 -1.80046 4.12193 0
M  V30 4597 C 445.739 -3.40551 2.78771 0
M  V30 4598 H 442.858 -0.469027 0.568491 0
M  V30 4599 H 445.5 -0.597358 1.80365 0
M  V30 4600 H 443.65 -2.98147 2.4908 0
M  V30 4601 H 445.322 -1.24742 4.44114 0
M  V30 4602 H 443.565 -1.10609 4.19462 0
M  V30 4603 H 444.236 -2.59212 4.87353 0
M  V30 4604 H 446.712 -2.91099 2.97322 0
M  V30 4605 H 445.588 -4.1448 3.59857 0
M  V30 4606 H 445.849 -4.00746 1.86696 0
M  V30 4607 N 444.908 -1.36708 -0.784132 0
M  V30 4608 C 446.136 -1.34398 -1.57305 0
M  V30 4609 C 446.551 0.0735577 -1.88657 0
M  V30 4610 O 445.908 1.03193 -1.50524 0
M  V30 4611 C 445.959 -2.17053 -2.89085 0
M  V30 4612 O 445.68 -3.53281 -2.59083 0
M  V30 4613 C 447.181 -2.22583 -3.83369 0
M  V30 4614 H 444.401 -0.460819 -0.487736 0
M  V30 4615 H 446.945 -1.79879 -0.972819 0
M  V30 4616 H 445.1 -1.75113 -3.45564 0
M  V30 4617 H 445.514 -3.9647 -3.43383 0
M  V30 4618 H 446.988 -2.84763 -4.72878 0
M  V30 4619 H 447.465 -1.23075 -4.21603 0
M  V30 4620 H 448.071 -2.64781 -3.32823 0
M  V30 4621 N 446.386 1.0089 -1.21074 0
M  V30 4622 C 447.635 1.74019 -1.01981 0
M  V30 4623 C 447.948 1.90408 0.447665 0
M  V30 4624 O 449.154 2.60707 0.757906 0
M  V30 4625 C 447.61 3.13026 -1.77603 0
M  V30 4626 C 447.218 3.04623 -3.28495 0
M  V30 4627 C 448.962 3.90312 -1.66904 0
M  V30 4628 C 446.869 4.38685 -3.96623 0
M  V30 4629 H 445.799 0.652422 -0.377971 0
M  V30 4630 H 448.45 1.12755 -1.44771 0
M  V30 4631 H 446.832 3.74878 -1.27604 0
M  V30 4632 H 448.006 2.52032 -3.85767 0
M  V30 4633 H 446.321 2.40827 -3.39693 0
M  V30 4634 H 448.918 4.8951 -2.15138 0
M  V30 4635 H 449.261 4.11558 -0.62658 0
M  V30 4636 H 449.794 3.35104 -2.14359 0
M  V30 4637 H 446.533 4.22641 -5.01054 0
M  V30 4638 H 446.053 4.91252 -3.4414 0
M  V30 4639 H 447.732 5.075 -4.01314 0
M  V30 4640 N 447.864 1.01787 1.20321 0
M  V30 4641 C 449.112 0.706538 1.89347 0
M  V30 4642 C 449.433 -0.766289 1.79313 0
M  V30 4643 O 448.703 -1.55126 1.19635 0
M  V30 4644 H 447.283 0.258348 0.700903 0
M  V30 4645 H 449.945 1.28974 1.46122 0
M  V30 4646 H 449.041 0.991066 2.95946 0
M  V30 4647 N 449.342 -1.36122 0.79427 0
M  V30 4648 C 450.619 -1.93398 0.292685 0
M  V30 4649 C 450.999 -1.72567 -1.21589 0
M  V30 4650 O 450.347 -1.08745 -2.00965 0
M  V30 4651 C 450.557 -3.42099 0.690614 0
M  V30 4652 C 451.905 -4.19231 0.673105 0
M  V30 4653 O 452.929 -3.50559 0.631389 0
M  V30 4654 O 451.788 -5.41732 0.720362 0
M  V30 4655 H 448.882 -0.823712 0.0736693 0
M  V30 4656 H 451.428 -1.45273 0.87714 0
M  V30 4657 H 450.2 -3.50938 1.73085 0
M  V30 4658 H 449.823 -3.97519 0.0803036 0
M  V30 4659 N 450.82 -0.546701 -1.47814 0
M  V30 4660 C 452.048 -0.0232857 -2.06887 0
M  V30 4661 C 452.463 1.26571 -1.4009 0
M  V30 4662 O 451.82 1.7569 -0.493906 0
M  V30 4663 C 451.871 0.186975 -3.61016 0
M  V30 4664 O 451.592 -1.05097 -4.25307 0
M  V30 4665 C 453.093 0.748872 -4.36929 0
M  V30 4666 H 450.313 -0.0410763 -0.669742 0
M  V30 4667 H 452.857 -0.757117 -1.89968 0
M  V30 4668 H 451.012 0.870903 -3.77484 0
M  V30 4669 H 451.426 -0.842121 -5.17695 0
M  V30 4670 H 452.9 0.845334 -5.45489 0
M  V30 4671 H 453.377 1.75772 -4.02493 0
M  V30 4672 H 453.983 0.100979 -4.2518 0
M  V30 4673 N 452.299 1.55045 -0.282633 0
M  V30 4674 C 453.527 2.04168 0.33512 0
M  V30 4675 C 453.942 1.16071 1.48906 0
M  V30 4676 O 453.299 0.182391 1.81586 0
M  V30 4677 C 453.35 3.52332 0.808957 0
M  V30 4678 O 453.071 4.37078 -0.299038 0
M  V30 4679 C 454.572 4.17375 1.49375 0
M  V30 4680 H 451.792 0.666744 0.0754543 0
M  V30 4681 H 454.336 2.00205 -0.416918 0
M  V30 4682 H 452.491 3.56715 1.51106 0
M  V30 4683 H 452.905 5.24458 0.0665514 0
M  V30 4684 H 454.379 5.22627 1.77664 0
M  V30 4685 H 454.856 3.65999 2.42778 0
M  V30 4686 H 455.462 4.17016 0.835305 0
M  V30 4687 N 453.777 0.010035 1.57597 0
M  V30 4688 C 455.026 -0.671945 1.90178 0
M  V30 4689 C 455.339 -1.74376 0.886131 0
M  V30 4690 O 456.545 -2.48107 1.10252 0
M  V30 4691 C 455.001 -1.24636 3.3763 0
M  V30 4692 C 454.609 -0.208838 4.47513 0
M  V30 4693 C 456.353 -1.90595 3.79307 0
M  V30 4694 C 454.26 -0.793814 5.86048 0
M  V30 4695 H 453.19 -0.25474 0.709665 0
M  V30 4696 H 455.841 0.0722206 1.83358 0
M  V30 4697 H 454.223 -2.04152 3.3932 0
M  V30 4698 H 455.397 0.562463 4.57354 0
M  V30 4699 H 453.712 0.350889 4.14919 0
M  V30 4700 H 456.309 -2.35284 4.80151 0
M  V30 4701 H 456.652 -2.74074 3.13352 0
M  V30 4702 H 457.185 -1.17798 3.79958 0
M  V30 4703 H 453.924 0.00240855 6.555 0
M  V30 4704 H 453.444 -1.53404 5.79851 0
M  V30 4705 H 455.123 -1.2894 6.34022 0
M  V30 4706 N 455.255 -1.55392 -0.262866 0
M  V30 4707 C 456.666 -1.67079 -0.833158 0
M  V30 4708 C 457.017 -0.604539 -1.86654 0
M  V30 4709 O 456.142 0.252138 -2.14926 0
M  V30 4710 C 456.737 -3.02891 -1.51797 0
M  V30 4711 C 455.296 -3.16571 -2.03617 0
M  V30 4712 C 454.443 -2.62909 -0.881701 0
M  V30 4713 H 457.394 -1.58652 -0.0389986 0
M  V30 4714 H 457.415 -2.96445 -2.38538 0
M  V30 4715 H 456.927 -3.80473 -0.765619 0
M  V30 4716 H 455.028 -2.43782 -2.81782 0
M  V30 4717 H 455.141 -4.23271 -2.24452 0
M  V30 4718 H 453.505 -2.20324 -1.27786 0
M  V30 4719 H 454.288 -3.43003 -0.14269 0
M  V30 4720 N 456.733 0.527833 -1.48498 0
M  V30 4721 C 457.696 1.61439 -1.62696 0
M  V30 4722 C 458.696 1.52824 -0.500136 0
M  V30 4723 O 459.886 1.56456 -0.765976 0
M  V30 4724 C 457.018 3.01063 -1.59918 0
M  V30 4725 H 458.211 1.50189 -2.59583 0
M  V30 4726 H 455.764 0.750055 -1.37127 0
M  V30 4727 H 456.499 3.17818 -0.645163 0
M  V30 4728 H 456.284 3.08725 -2.41726 0
M  V30 4729 H 457.774 3.80057 -1.73051 0
M  V30 4730 N 458.211 1.37122 0.776871 0
M  V30 4731 C 459.459 1.31787 1.53221 0
M  V30 4732 C 459.78 -0.0987589 1.9475 0
M  V30 4733 O 459.05 -1.0417 1.65908 0
M  V30 4734 H 457.63 0.484839 0.568278 0
M  V30 4735 H 460.292 1.71556 0.924917 0
M  V30 4736 H 459.388 1.95355 2.43398 0
M  V30 4737 N 459.689 -1.00246 1.21608 0
M  V30 4738 C 461.105 -1.26435 0.973975 0
M  V30 4739 C 461.305 -1.98642 -0.338143 0
M  V30 4740 O 460.361 -2.29026 -1.06317 0
M  V30 4741 C 461.674 -2.08551 2.16626 0
M  V30 4742 C 463.222 -2.21769 2.20879 0
M  V30 4743 C 463.697 -3.07267 3.39633 0
M  V30 4744 N 465.188 -3.14855 3.39736 0
M  V30 4745 C 465.923 -3.81274 4.28273 0
M  V30 4746 N 465.419 -4.497 5.27012 0
M  V30 4747 N 467.212 -3.7794 4.16074 0
M  V30 4748 H 459.363 -0.518089 2.05984 0
M  V30 4749 H 461.626 -0.291368 0.902113 0
M  V30 4750 H 461.332 -1.62847 3.11727 0
M  V30 4751 H 461.206 -3.09303 2.15897 0
M  V30 4752 H 463.593 -2.66691 1.26332 0
M  V30 4753 H 463.674 -1.20478 2.25652 0
M  V30 4754 H 463.318 -2.63047 4.34475 0
M  V30 4755 H 463.248 -4.08678 3.321 0
M  V30 4756 H 465.739 -2.66147 2.6828 0
M  V30 4757 H 466.052 -4.98092 5.90867 0
M  V30 4758 H 464.397 -4.48479 5.30935 0
M  V30 4759 H 467.588 -3.23638 3.38195 0
M  V30 4760 H 467.761 -4.29424 4.85282 0
M  V30 4761 N 461.167 -1.02423 -1.1978 0
M  V30 4762 C 462.583 -0.740459 -1.41384 0
M  V30 4763 C 462.783 0.676827 -1.89793 0
M  V30 4764 O 461.839 1.4435 -2.0717 0
M  V30 4765 C 463.152 -1.77264 -2.42895 0
M  V30 4766 C 464.7 -1.79165 -2.56649 0
M  V30 4767 C 465.175 -2.8133 -3.6141 0
M  V30 4768 N 466.666 -2.80118 -3.68901 0
M  V30 4769 C 467.401 -3.55824 -4.49641 0
M  V30 4770 N 466.897 -4.41231 -5.34123 0
M  V30 4771 N 468.69 -3.44387 -4.44246 0
M  V30 4772 H 460.841 -1.9391 -0.866764 0
M  V30 4773 H 463.104 -0.838074 -0.443098 0
M  V30 4774 H 462.81 -2.7884 -2.14339 0
M  V30 4775 H 462.684 -1.59108 -3.42001 0
M  V30 4776 H 465.071 -0.782702 -2.84531 0
M  V30 4777 H 465.152 -2.01396 -1.57713 0
M  V30 4778 H 464.796 -3.82394 -3.34271 0
M  V30 4779 H 464.726 -2.56359 -4.59986 0
M  V30 4780 H 467.217 -2.1817 -3.08562 0
M  V30 4781 H 467.53 -4.95747 -5.92836 0
M  V30 4782 H 465.875 -4.45306 -5.33599 0
M  V30 4783 H 469.066 -2.7708 -3.77285 0
M  V30 4784 H 469.239 -4.0364 -5.06931 0
M  V30 4785 N 462.645 1.35699 -0.801477 0
M  V30 4786 C 463.891 1.99208 -0.380022 0
M  V30 4787 C 464.224 1.63445 1.04878 0
M  V30 4788 O 463.499 0.895223 1.72673 0
M  V30 4789 C 463.782 3.55755 -0.557708 0
M  V30 4790 C 463.635 4.01332 -2.03107 0
M  V30 4791 C 464.954 4.40096 0.0197968 0
M  V30 4792 H 462.073 0.723667 -0.139552 0
M  V30 4793 H 464.715 1.60928 -1.01006 0
M  V30 4794 H 462.865 3.88494 -0.0213741 0
M  V30 4795 H 464.537 3.79026 -2.62939 0
M  V30 4796 H 462.78 3.52429 -2.52936 0
M  V30 4797 H 463.451 5.10234 -2.1063 0
M  V30 4798 H 465.927 4.13786 -0.438179 0
M  V30 4799 H 464.803 5.48735 -0.134477 0
M  V30 4800 H 465.064 4.2786 1.11303 0
M  V30 4801 N 464.123 0.554532 1.47522 0
M  V30 4802 C 465.053 -0.182974 2.32782 0
M  V30 4803 C 466.034 -0.911377 1.43624 0
M  V30 4804 O 467.219 -0.892366 1.72483 0
M  V30 4805 C 464.349 -1.21513 3.25349 0
M  V30 4806 C 463.303 -0.603355 4.23726 0
M  V30 4807 C 462.629 -1.73995 5.05598 0
M  V30 4808 C 463.929 0.441121 5.20434 0
M  V30 4809 H 465.623 0.52882 2.94693 0
M  V30 4810 H 463.169 0.255759 1.41711 0
M  V30 4811 H 465.122 -1.73922 3.83835 0
M  V30 4812 H 463.846 -1.95683 2.61487 0
M  V30 4813 H 462.505 -0.10059 3.66462 0
M  V30 4814 H 462.153 -2.47063 4.38143 0
M  V30 4815 H 461.853 -1.3364 5.72201 0
M  V30 4816 H 463.377 -2.26735 5.66942 0
M  V30 4817 H 464.791 0.00319931 5.733 0
M  V30 4818 H 463.188 0.763402 5.95224 0
M  V30 4819 H 464.258 1.33799 4.66075 0
M  V30 4820 N 465.601 -1.54893 0.290851 0
M  V30 4821 C 466.531 -2.26103 -0.583084 0
M  V30 4822 C 467.512 -1.25684 -1.14619 0
M  V30 4823 O 468.697 -1.54436 -1.17741 0
M  V30 4824 C 465.827 -2.99409 -1.75987 0
M  V30 4825 C 464.781 -4.0689 -1.32758 0
M  V30 4826 C 464.107 -4.67856 -2.58872 0
M  V30 4827 C 465.407 -5.20215 -0.46624 0
M  V30 4828 H 467.101 -2.99398 0.0108214 0
M  V30 4829 H 464.647 -1.43998 0.00664468 0
M  V30 4830 H 466.6 -3.47943 -2.37727 0
M  V30 4831 H 465.324 -2.23675 -2.37985 0
M  V30 4832 H 463.983 -3.59191 -0.733299 0
M  V30 4833 H 463.631 -3.88772 -3.19163 0
M  V30 4834 H 463.331 -5.40438 -2.30653 0
M  V30 4835 H 464.855 -5.19147 -3.21433 0
M  V30 4836 H 466.269 -5.64704 -0.989047 0
M  V30 4837 H 464.666 -5.99455 -0.27826 0
M  V30 4838 H 465.736 -4.82198 0.511173 0
M  V30 4839 N 467.08 -0.0183926 -1.57589 0
M  V30 4840 C 468.01 0.965596 -2.12599 0
M  V30 4841 C 468.991 1.34641 -1.0395 0
M  V30 4842 O 470.176 1.42693 -1.31729 0
M  V30 4843 C 467.306 2.25149 -2.64434 0
M  V30 4844 C 466.26 2.01175 -3.77773 0
M  V30 4845 C 465.586 3.35937 -4.15994 0
M  V30 4846 C 466.886 1.35953 -5.04296 0
M  V30 4847 H 468.58 0.507504 -2.95067 0
M  V30 4848 H 466.126 0.242671 -1.41941 0
M  V30 4849 H 468.079 2.94357 -3.01549 0
M  V30 4850 H 466.803 2.73105 -1.79112 0
M  V30 4851 H 465.462 1.34388 -3.4108 0
M  V30 4852 H 465.11 3.81631 -3.27669 0
M  V30 4853 H 464.81 3.20705 -4.92364 0
M  V30 4854 H 466.334 4.0643 -4.55683 0
M  V30 4855 H 467.748 1.95144 -5.39065 0
M  V30 4856 H 466.145 1.31152 -5.85593 0
M  V30 4857 H 467.215 0.331071 -4.83768 0
M  V30 4858 N 468.558 1.5553 0.254621 0
M  V30 4859 C 469.788 1.80784 1.00004 0
M  V30 4860 C 470.196 0.59071 1.79742 0
M  V30 4861 O 469.539 -0.449988 1.78103 0
M  V30 4862 C 469.601 2.99268 1.99196 0
M  V30 4863 C 469.265 4.35595 1.38224 0
M  V30 4864 C 470.262 5.13884 0.788611 0
M  V30 4865 C 467.947 4.82281 1.40393 0
M  V30 4866 C 469.941 6.37004 0.224783 0
M  V30 4867 C 467.628 6.05351 0.836243 0
M  V30 4868 C 468.626 6.82551 0.24769 0
M  V30 4869 O 468.314 8.03297 -0.311249 0
M  V30 4870 H 468.046 0.60565 0.300274 0
M  V30 4871 H 470.6 2.03411 0.285143 0
M  V30 4872 H 468.83 2.72377 2.74496 0
M  V30 4873 H 470.519 3.11682 2.60018 0
M  V30 4874 H 471.285 4.78938 0.764423 0
M  V30 4875 H 467.164 4.22189 1.85142 0
M  V30 4876 H 470.708 6.97203 -0.235235 0
M  V30 4877 H 466.605 6.39776 0.857733 0
M  V30 4878 H 467.373 8.1825 -0.20237 0
M  V30 4879 N 470.036 -0.519951 1.48776 0
M  V30 4880 C 471.284 -1.2727 1.56993 0
M  V30 4881 C 471.605 -1.9339 0.25004 0
M  V30 4882 O 470.875 -1.81822 -0.729216 0
M  V30 4883 H 469.455 -0.472732 0.578389 0
M  V30 4884 H 472.117 -0.604234 1.85297 0
M  V30 4885 H 471.213 -2.04669 2.3562 0
M  V30 4886 N 471.514 -1.37532 -0.769588 0
M  V30 4887 C 472.739 -1.36231 -1.56384 0
M  V30 4888 C 473.164 0.0495849 -1.88035 0
M  V30 4889 O 472.522 1.02723 -1.49391 0
M  V30 4890 C 472.57 -2.20986 -2.84952 0
M  V30 4891 O 471.674 -1.61597 -3.79421 0
M  V30 4892 H 471.015 -0.465387 -0.473615 0
M  V30 4893 H 473.545 -1.81085 -0.952342 0
M  V30 4894 H 473.555 -2.34277 -3.34034 0
M  V30 4895 H 472.23 -3.23612 -2.61243 0
M  V30 4896 H 470.807 -1.57359 -3.38072 0
M  V30 4897 N 472.992 0.995999 -1.22138 0
M  V30 4898 C 473.955 2.06711 -0.990109 0
M  V30 4899 C 474.955 1.60744 0.0422978 0
M  V30 4900 O 476.145 1.73095 -0.195895 0
M  V30 4901 C 473.277 3.37288 -0.49491 0
M  V30 4902 H 474.47 2.28661 -1.94047 0
M  V30 4903 H 472.023 1.16711 -1.03963 0
M  V30 4904 H 472.758 3.21022 0.459948 0
M  V30 4905 H 472.543 3.71986 -1.23971 0
M  V30 4906 H 474.033 4.16103 -0.353253 0
M  V30 4907 N 474.47 1.03057 1.19235 0
M  V30 4908 C 475.418 0.606391 2.24557 0
M  V30 4909 C 476.412 -0.361826 1.65491 0
M  V30 4910 O 477.618 -0.23022 1.78522 0
M  V30 4911 H 473.993 0.177838 0.730669 0
M  V30 4912 H 475.964 1.50529 2.5765 0
M  V30 4913 C 474.713 -0.0252127 3.47691 0
M  V30 4914 H 474.036 0.710838 3.9343 0
M  V30 4915 H 475.476 -0.284931 4.23042 0
M  V30 4916 C 473.935 -1.27229 3.11953 0
M  V30 4917 O 474.465 -2.36416 3.24762 0
M  V30 4918 N 472.671 -1.16169 2.6637 0
M  V30 4919 H 472.218 -0.273189 2.56147 0
M  V30 4920 H 472.176 -1.99703 2.42829 0
M  V30 4921 N 475.948 -1.35272 0.808662 0
M  V30 4922 C 477.364 -1.51806 0.492653 0
M  V30 4923 C 477.564 -1.7574 -0.985778 0
M  V30 4924 O 476.62 -1.80003 -1.77074 0
M  V30 4925 C 477.933 -2.69202 1.33981 0
M  V30 4926 C 479.481 -2.8308 1.33547 0
M  V30 4927 C 479.956 -4.03502 2.16679 0
M  V30 4928 N 481.447 -4.10684 2.14227 0
M  V30 4929 C 482.182 -5.02984 2.75308 0
M  V30 4930 N 481.678 -6.00603 3.45323 0
M  V30 4931 N 483.471 -4.95746 2.64938 0
M  V30 4932 H 475.622 -1.17993 1.76611 0
M  V30 4933 H 477.885 -0.577476 0.751814 0
M  V30 4934 H 477.591 -2.581 2.38909 0
M  V30 4935 H 477.465 -3.63854 0.994491 0
M  V30 4936 H 479.852 -2.93631 0.294036 0
M  V30 4937 H 479.933 -1.89278 1.72068 0
M  V30 4938 H 479.577 -3.93711 3.20864 0
M  V30 4939 H 479.507 -4.96489 1.75517 0
M  V30 4940 H 481.998 -3.40802 1.63285 0
M  V30 4941 H 482.311 -6.67633 3.89212 0
M  V30 4942 H 480.656 -6.0077 3.49428 0
M  V30 4943 H 483.847 -4.18439 2.09825 0
M  V30 4944 H 484.02 -5.67487 3.12829 0
M  V30 4945 N 477.426 -0.562348 -1.47226 0
M  V30 4946 C 478.703 0.0256985 -1.95583 0
M  V30 4947 C 479.083 1.48032 -1.50498 0
M  V30 4948 O 478.431 2.15973 -0.746181 0
M  V30 4949 C 478.641 -0.125129 -3.48776 0
M  V30 4950 C 479.989 0.0175728 -4.24596 0
M  V30 4951 O 481.013 -0.0529341 -3.56161 0
M  V30 4952 O 479.872 0.170145 -5.46235 0
M  V30 4953 H 476.966 0.0612565 -0.824728 0
M  V30 4954 H 479.512 -0.629233 -1.57603 0
M  V30 4955 H 478.284 -1.13715 -3.74412 0
M  V30 4956 H 477.907 0.567178 -3.93534 0
M  V30 4957 N 478.904 1.54736 -0.299062 0
M  V30 4958 C 479.814 2.27127 0.587413 0
M  V30 4959 C 480.83 1.30575 1.15005 0
M  V30 4960 O 482.006 1.63554 1.17525 0
M  V30 4961 C 479.071 2.99645 1.74395 0
M  V30 4962 C 478.132 4.11731 1.21559 0
M  V30 4963 C 477.365 4.80781 2.317 0
M  V30 4964 O 477.588 4.4918 3.51558 0
M  V30 4965 O 476.522 5.68226 1.98501 0
M  V30 4966 H 480.348 3.037 0.000250109 0
M  V30 4967 H 477.933 1.49256 -0.0655919 0
M  V30 4968 H 479.815 3.45138 2.4178 0
M  V30 4969 H 478.49 2.25969 2.31775 0
M  V30 4970 H 477.397 3.70641 0.507514 0
M  V30 4971 H 478.73 4.87379 0.687233 0
M  V30 4972 N 480.382 0.0267497 1.57577 0
M  V30 4973 C 481.798 -0.32962 1.56159 0
M  V30 4974 C 481.998 -1.73059 1.03213 0
M  V30 4975 O 481.054 -2.43233 0.677804 0
M  V30 4976 C 482.367 -0.18039 3.00158 0
M  V30 4977 C 483.915 -0.253334 3.11973 0
M  V30 4978 C 484.39 -0.132921 4.57807 0
M  V30 4979 N 485.881 -0.189979 4.6281 0
M  V30 4980 C 486.616 -0.120554 5.73273 0
M  V30 4981 N 486.112 -0.000180315 6.928 0
M  V30 4982 N 487.905 -0.174369 5.61829 0
M  V30 4983 H 480.056 0.942896 1.90324 0
M  V30 4984 H 482.319 0.3639 0.875375 0
M  V30 4985 H 482.025 0.784576 3.42837 0
M  V30 4986 H 481.899 -0.951565 3.65 0
M  V30 4987 H 484.286 -1.20876 2.69208 0
M  V30 4988 H 484.367 0.548177 2.49857 0
M  V30 4989 H 484.011 0.819073 5.01252 0
M  V30 4990 H 483.941 -0.953264 5.179 0
M  V30 4991 H 486.432 -0.283257 3.76837 0
M  V30 4992 H 486.745 0.0461666 7.72786 0
M  V30 4993 H 485.09 0.034569 6.94991 0
M  V30 4994 H 488.281 -0.266794 4.67339 0
M  V30 4995 H 488.454 -0.116802 6.47895 0
M  V30 4996 N 481.861 -1.55662 -0.24637 0
M  V30 4997 C 482.793 -1.86811 -1.32794 0
M  V30 4998 C 483.806 -0.754413 -1.44265 0
M  V30 4999 O 484.995 -1.03253 -1.45606 0
M  V30 5000 C 482.095 -2.0397 -2.70646 0
M  V30 5001 C 481.268 -3.34832 -2.81436 0
M  V30 5002 C 480.327 -3.41727 -4.00136 0
M  V30 5003 O 479.353 -4.14934 -3.89639 0
M  V30 5004 N 480.555 -2.71058 -5.1333 0
M  V30 5005 H 483.32 -2.80174 -1.06409 0
M  V30 5006 H 480.881 -1.55906 -0.43647 0
M  V30 5007 H 482.873 -2.05924 -3.48393 0
M  V30 5008 H 481.443 -1.1735 -2.89738 0
M  V30 5009 H 480.663 -3.4519 -1.90361 0
M  V30 5010 H 481.951 -4.21085 -2.85595 0
M  V30 5011 H 481.349 -2.11314 -5.2475 0
M  V30 5012 H 479.906 -2.78704 -5.89209 0
M  V30 5013 N 483.339 0.512053 -1.4905 0
M  V30 5014 C 484.569 1.28928 -1.61434 0
M  V30 5015 C 484.977 1.87107 -0.280647 0
M  V30 5016 O 484.32 1.68024 0.742537 0
M  V30 5017 C 484.382 2.466 -2.61588 0
M  V30 5018 C 484.046 2.09375 -4.06216 0
M  V30 5019 C 485.043 1.63994 -4.93358 0
M  V30 5020 C 482.728 2.19348 -4.51876 0
M  V30 5021 C 484.722 1.29076 -6.24194 0
M  V30 5022 C 482.409 1.84041 -5.82728 0
M  V30 5023 C 483.407 1.38978 -6.68711 0
M  V30 5024 O 483.095 1.04144 -7.97126 0
M  V30 5025 H 482.827 0.397668 -0.546659 0
M  V30 5026 H 485.381 0.622507 -1.9574 0
M  V30 5027 H 483.611 3.16318 -2.22441 0
M  V30 5028 H 485.3 3.08642 -2.63619 0
M  V30 5029 H 486.066 1.55744 -4.59313 0
M  V30 5030 H 481.945 2.53376 -3.85125 0
M  V30 5031 H 485.489 0.938303 -6.91261 0
M  V30 5032 H 481.386 1.91938 -6.16304 0
M  V30 5033 H 482.154 1.17387 -8.10039 0
M  V30 5034 N 484.817 1.37938 0.762283 0
M  V30 5035 C 486.065 1.33404 1.51815 0
M  V30 5036 C 486.386 -0.0780975 1.94844 0
M  V30 5037 O 485.656 -1.02405 1.67003 0
M  V30 5038 H 484.236 0.490839 0.563104 0
M  V30 5039 H 486.898 1.72527 0.906669 0
M  V30 5040 H 485.994 1.97926 2.41313 0
M  V30 5041 N 486.295 -0.989507 1.22664 0
M  V30 5042 C 487.706 -1.54406 1.04955 0
M  V30 5043 C 488.057 -1.92366 -0.385951 0
M  V30 5044 O 487.182 -1.75111 -1.27142 0
M  V30 5045 C 487.777 -2.80578 1.89899 0
M  V30 5046 C 486.336 -3.32464 1.76478 0
M  V30 5047 C 485.483 -2.05524 1.86159 0
M  V30 5048 H 488.434 -0.810211 1.3646 0
M  V30 5049 H 488.455 -3.53075 1.4184 0
M  V30 5050 H 487.967 -2.52918 2.94371 0
M  V30 5051 H 486.068 -3.65024 0.747528 0
M  V30 5052 H 486.181 -4.02838 2.59342 0
M  V30 5053 H 484.545 -2.19241 1.29636 0
M  V30 5054 H 485.328 -1.80258 2.92168 0
M  V30 5055 N 487.773 -1.03688 -1.18687 0
M  V30 5056 C 489.05 -0.652397 -1.84399 0
M  V30 5057 C 489.43 0.868386 -1.92412 0
M  V30 5058 O 488.778 1.76832 -1.44716 0
M  V30 5059 C 488.988 -1.3238 -3.22919 0
M  V30 5060 C 490.336 -1.45216 -3.98996 0
M  V30 5061 O 491.36 -1.2816 -3.32345 0
M  V30 5062 O 490.219 -1.72975 -5.18403 0
M  V30 5063 H 487.313 -0.227793 -0.795009 0
M  V30 5064 H 489.859 -1.13553 -1.2611 0
M  V30 5065 H 488.631 -2.36202 -3.11968 0
M  V30 5066 H 488.254 -0.829039 -3.88861 0
M  V30 5067 N 489.251 1.34841 -0.815825 0
M  V30 5068 C 490.214 2.27959 -0.238185 0
M  V30 5069 C 491.214 1.49983 0.579816 0
M  V30 5070 O 492.404 1.69617 0.396953 0
M  V30 5071 C 489.536 3.34314 0.666876 0
M  V30 5072 H 490.729 2.80558 -1.05958 0
M  V30 5073 H 488.282 1.44852 -0.587156 0
M  V30 5074 H 489.017 2.86916 1.5116 0
M  V30 5075 H 488.802 3.92014 0.0819106 0
M  V30 5076 H 490.292 4.0379 1.06506 0
M  V30 5077 N 490.729 0.570148 1.46925 0
M  V30 5078 C 491.692 -0.159933 2.28641 0
M  V30 5079 C 492.692 -0.830638 1.37685 0
M  V30 5080 O 493.882 -0.684516 1.60187 0
M  V30 5081 C 491.014 -1.2354 3.17727 0
M  V30 5082 H 492.207 0.558035 2.94662 0
M  V30 5083 H 489.76 0.327603 1.52828 0
M  V30 5084 H 490.495 -1.98535 2.56426 0
M  V30 5085 H 490.28 -0.759125 3.84681 0
M  V30 5086 H 491.77 -1.74782 3.79264 0
M  V30 5087 N 492.207 -1.54576 0.307264 0
M  V30 5088 C 493.117 -2.27435 -0.57536 0
M  V30 5089 C 494.133 -1.31183 -1.14311 0
M  V30 5090 O 495.309 -1.64175 -1.16656 0
M  V30 5091 C 492.374 -3.00566 -1.72803 0
M  V30 5092 C 491.435 -4.12369 -1.19373 0
M  V30 5093 C 490.668 -4.82003 -2.29147 0
M  V30 5094 O 490.891 -4.51038 -3.49171 0
M  V30 5095 O 489.825 -5.69271 -1.95485 0
M  V30 5096 H 493.651 -3.03696 0.0158558 0
M  V30 5097 H 491.236 -1.49219 0.0735064 0
M  V30 5098 H 493.118 -3.46416 -2.39946 0
M  V30 5099 H 491.793 -2.27195 -2.30574 0
M  V30 5100 H 490.7 -3.70905 -0.487851 0
M  V30 5101 H 492.033 -4.87736 -0.661376 0
M  V30 5102 N 493.685 -0.035106 -1.57561 0
M  V30 5103 C 494.615 0.942993 -2.13612 0
M  V30 5104 C 495.596 1.33531 -1.05373 0
M  V30 5105 O 496.781 1.41287 -1.33235 0
M  V30 5106 C 493.911 2.22332 -2.66807 0
M  V30 5107 C 492.865 1.97156 -3.79886 0
M  V30 5108 C 492.191 3.31506 -4.19533 0
M  V30 5109 C 493.491 1.30596 -5.05709 0
M  V30 5110 H 495.185 0.476179 -2.95589 0
M  V30 5111 H 492.731 0.227602 -1.4219 0
M  V30 5112 H 494.684 2.91142 -3.04654 0
M  V30 5113 H 493.408 2.7119 -1.81999 0
M  V30 5114 H 492.067 1.30763 -3.42486 0
M  V30 5115 H 491.715 3.78134 -3.31698 0
M  V30 5116 H 491.415 3.15465 -4.95738 0
M  V30 5117 H 492.939 4.01574 -4.59968 0
M  V30 5118 H 494.353 1.89416 -5.41105 0
M  V30 5119 H 492.75 1.24934 -5.86951 0
M  V30 5120 H 493.82 0.279742 -4.84092 0
M  V30 5121 N 495.163 1.55791 0.238111 0
M  V30 5122 C 496.44 1.68798 0.98826 0
M  V30 5123 C 496.82 0.577562 2.03045 0
M  V30 5124 O 496.168 -0.41778 2.24648 0
M  V30 5125 C 496.378 3.09454 1.61367 0
M  V30 5126 C 497.726 3.68335 2.11221 0
M  V30 5127 O 498.75 3.1231 1.71292 0
M  V30 5128 O 497.609 4.6657 2.84561 0
M  V30 5129 H 494.703 0.686881 0.460568 0
M  V30 5130 H 497.249 1.68118 0.231202 0
M  V30 5131 H 496.021 3.81726 0.860295 0
M  V30 5132 H 495.644 3.14182 2.4367 0
M  V30 5133 N 496.642 -0.504142 1.49319 0
M  V30 5134 C 497.888 -1.26033 1.58882 0
M  V30 5135 C 498.221 -1.92268 0.273274 0
M  V30 5136 O 497.496 -1.80567 -0.72291 0
M  V30 5137 C 497.779 -2.32976 2.7458 0
M  V30 5138 C 497.632 -1.71263 4.1592 0
M  V30 5139 C 498.951 -3.34561 2.85932 0
M  V30 5140 H 496.07 -0.456863 0.578312 0
M  V30 5141 H 498.712 -0.558965 1.81592 0
M  V30 5142 H 496.862 -2.92796 2.55348 0
M  V30 5143 H 498.534 -1.15294 4.4666 0
M  V30 5144 H 496.777 -1.01686 4.21714 0
M  V30 5145 H 497.448 -2.48816 4.92742 0
M  V30 5146 H 499.924 -2.84727 3.0343 0
M  V30 5147 H 498.8 -4.06754 3.68568 0
M  V30 5148 H 499.061 -3.96695 1.95154 0
M  V30 5149 N 498.12 -1.38341 -0.754957 0
M  V30 5150 C 499.348 -1.37704 -1.54419 0
M  V30 5151 C 499.763 0.0335243 -1.8877 0
M  V30 5152 O 499.12 0.999773 -1.52679 0
M  V30 5153 C 499.171 -2.23136 -2.84416 0
M  V30 5154 O 498.892 -3.58697 -2.51531 0
M  V30 5155 C 500.393 -2.30664 -3.78562 0
M  V30 5156 H 497.613 -0.471061 -0.477852 0
M  V30 5157 H 500.157 -1.81902 -0.934446 0
M  V30 5158 H 498.312 -1.82403 -3.41772 0
M  V30 5159 H 498.726 -4.03665 -3.34896 0
M  V30 5160 H 500.2 -2.9473 -4.66732 0
M  V30 5161 H 500.677 -1.3199 -4.18898 0
M  V30 5162 H 501.283 -2.71781 -3.27131 0
M  V30 5163 N 499.598 0.982988 -1.23187 0
M  V30 5164 C 501.014 1.2487 -0.993967 0
M  V30 5165 C 501.214 1.99155 0.306498 0
M  V30 5166 O 500.27 2.30688 1.0266 0
M  V30 5167 C 501.583 2.05078 -2.19917 0
M  V30 5168 C 503.131 2.18227 -2.2438 0
M  V30 5169 C 503.606 3.01825 -3.44479 0
M  V30 5170 N 505.097 3.09411 -3.44702 0
M  V30 5171 C 505.832 3.74412 -4.34285 0
M  V30 5172 N 505.328 4.41259 -5.341 0
M  V30 5173 N 507.121 3.71273 -4.22035 0
M  V30 5174 H 499.272 0.485253 -2.06783 0
M  V30 5175 H 501.535 0.276979 -0.906635 0
M  V30 5176 H 501.241 1.57867 -3.14279 0
M  V30 5177 H 501.115 3.05829 -2.2079 0
M  V30 5178 H 503.502 2.64648 -1.30559 0
M  V30 5179 H 503.583 1.16873 -2.2754 0
M  V30 5180 H 503.227 2.56102 -4.38605 0
M  V30 5181 H 503.157 4.03342 -3.38559 0
M  V30 5182 H 505.648 2.61845 -2.7248 0
M  V30 5183 H 505.961 4.88629 -5.98717 0
M  V30 5184 H 504.306 4.39975 -5.38002 0
M  V30 5185 H 507.497 3.18217 -3.43301 0
M  V30 5186 H 507.67 4.21649 -4.92053 0
M  V30 5187 N 501.076 1.04316 1.18135 0
M  V30 5188 C 502.316 0.756937 1.89868 0
M  V30 5189 C 502.68 -0.702609 1.78682 0
M  V30 5190 O 503.881 -1.10255 2.45148 0
M  V30 5191 C 502.152 1.21327 3.36176 0
M  V30 5192 S 503.711 1.05307 4.25976 0
M  V30 5193 H 500.529 0.275143 0.655604 0
M  V30 5194 H 503.131 1.33597 1.42731 0
M  V30 5195 H 501.835 2.27086 3.41848 0
M  V30 5196 H 501.366 0.628137 3.88353 0
M  V30 5197 H 503.381 -0.0280093 4.96192 0
M  V30 5198 N 502.554 -1.34406 0.822964 0
M  V30 5199 C 503.965 -1.8069 0.469879 0
M  V30 5200 C 504.316 -1.68223 -1.00972 0
M  V30 5201 O 503.441 -1.22226 -1.78577 0
M  V30 5202 C 504.036 -3.28064 0.846118 0
M  V30 5203 C 502.595 -3.72428 0.545402 0
M  V30 5204 C 501.742 -2.56116 1.06301 0
M  V30 5205 H 504.693 -1.22153 1.01313 0
M  V30 5206 H 504.714 -3.80205 0.149922 0
M  V30 5207 H 504.226 -3.37107 1.92304 0
M  V30 5208 H 502.327 -3.68924 -0.522109 0
M  V30 5209 H 502.44 -4.66548 1.0895 0
M  V30 5210 H 500.804 -2.50048 0.484554 0
M  V30 5211 H 501.587 -2.67928 2.14638 0
M  V30 5212 N 504.032 -0.577932 -1.46621 0
M  V30 5213 C 505.448 -0.239242 -1.57797 0
M  V30 5214 C 505.648 1.25843 -1.57371 0
M  V30 5215 O 504.704 2.03988 -1.48813 0
M  V30 5216 C 506.017 -0.884227 -2.87405 0
M  V30 5217 C 507.565 -0.857373 -3.01028 0
M  V30 5218 C 508.04 -1.48181 -4.33366 0
M  V30 5219 N 509.531 -1.44593 -4.40053 0
M  V30 5220 C 510.266 -1.89852 -5.41058 0
M  V30 5221 N 509.762 -2.43062 -6.48762 0
M  V30 5222 N 511.555 -1.80797 -5.3223 0
M  V30 5223 H 503.706 -1.55073 -1.45142 0
M  V30 5224 H 505.969 -0.647903 -0.692044 0
M  V30 5225 H 505.675 -1.93759 -2.93514 0
M  V30 5226 H 505.549 -0.389585 -3.75183 0
M  V30 5227 H 507.936 0.187357 -2.94505 0
M  V30 5228 H 508.017 -1.38999 -2.14739 0
M  V30 5229 H 507.661 -2.52572 -4.40647 0
M  V30 5230 H 507.591 -0.924464 -5.18422 0
M  V30 5231 H 510.082 -1.05694 -3.62819 0
M  V30 5232 H 510.395 -2.75466 -7.22038 0
M  V30 5233 H 508.74 -2.47085 -6.49595 0
M  V30 5234 H 511.931 -1.38989 -4.46989 0
M  V30 5235 H 512.104 -2.16385 -6.10804 0
M  V30 5236 N 505.51 1.54411 -0.315457 0
M  V30 5237 C 506.458 2.25514 0.569771 0
M  V30 5238 C 507.452 1.2663 1.12522 0
M  V30 5239 O 508.658 1.44434 1.07419 0
M  V30 5240 H 505.033 0.724257 0.202376 0
M  V30 5241 H 507.004 2.98354 -0.0522895 0
M  V30 5242 C 505.753 3.02004 1.72305 0
M  V30 5243 H 505.076 3.77906 1.30488 0
M  V30 5244 H 506.516 3.55014 2.31821 0
M  V30 5245 C 504.975 2.09822 2.63583 0
M  V30 5246 O 505.505 1.67574 3.65078 0
M  V30 5247 N 503.711 1.75478 2.31637 0
M  V30 5248 H 503.258 2.10032 1.49145 0
M  V30 5249 H 503.216 1.14079 2.92973 0
M  V30 5250 N 506.988 0.0434614 1.5754 0
M  V30 5251 C 508.237 -0.631454 1.91561 0
M  V30 5252 C 508.55 -1.72457 0.92292 0
M  V30 5253 O 509.756 -2.45712 1.15489 0
M  V30 5254 C 508.212 -1.17447 3.40197 0
M  V30 5255 C 507.82 -0.113867 4.47855 0
M  V30 5256 C 509.564 -1.82507 3.83264 0
M  V30 5257 C 507.471 -0.669326 5.876 0
M  V30 5258 H 506.401 -0.239629 0.714908 0
M  V30 5259 H 509.052 0.111097 1.83163 0
M  V30 5260 H 507.434 -1.96909 3.43574 0
M  V30 5261 H 508.608 0.659348 4.56058 0
M  V30 5262 H 506.923 0.438821 4.14081 0
M  V30 5263 H 509.52 -2.25047 4.85034 0
M  V30 5264 H 509.863 -2.67365 3.19095 0
M  V30 5265 H 510.396 -1.09712 3.82372 0
M  V30 5266 H 507.135 0.141449 6.55347 0
M  V30 5267 H 506.655 -1.4107 5.82974 0
M  V30 5268 H 508.334 -1.15463 6.36614 0
M  V30 5269 N 508.466 -1.55915 -0.229846 0
M  V30 5270 C 509.396 -1.94754 -1.28815 0
M  V30 5271 C 510.377 -0.814657 -1.49323 0
M  V30 5272 O 511.562 -1.07631 -1.61645 0
M  V30 5273 C 508.692 -2.25705 -2.63959 0
M  V30 5274 C 507.646 -3.41406 -2.5812 0
M  V30 5275 C 506.972 -3.57941 -3.97218 0
M  V30 5276 C 508.272 -4.76616 -2.13623 0
M  V30 5277 H 509.966 -2.83404 -0.965547 0
M  V30 5278 H 507.512 -1.36353 -0.463028 0
M  V30 5279 H 509.465 -2.51467 -3.38146 0
M  V30 5280 H 508.189 -1.339 -2.9789 0
M  V30 5281 H 506.848 -3.1568 -1.86391 0
M  V30 5282 H 506.496 -2.63526 -4.28443 0
M  V30 5283 H 506.196 -4.35757 -3.94195 0
M  V30 5284 H 507.72 -3.86042 -4.73079 0
M  V30 5285 H 509.134 -5.01637 -2.77549 0
M  V30 5286 H 507.531 -5.57655 -2.21677 0
M  V30 5287 H 508.601 -4.7253 -1.08829 0
M  V30 5288 N 509.944 0.496216 -1.49584 0
M  V30 5289 C 511.172 1.27394 -1.63029 0
M  V30 5290 C 511.587 1.86344 -0.303569 0
M  V30 5291 O 510.944 1.68057 0.711547 0
M  V30 5292 C 510.995 2.40077 -2.70269 0
M  V30 5293 O 510.716 1.83549 -3.97796 0
M  V30 5294 C 512.217 3.31372 -2.94462 0
M  V30 5295 H 509.437 0.386211 -0.54871 0
M  V30 5296 H 511.981 0.595163 -1.95648 0
M  V30 5297 H 510.136 3.03775 -2.40415 0
M  V30 5298 H 510.55 2.57561 -4.56905 0
M  V30 5299 H 512.024 4.06707 -3.73221 0
M  V30 5300 H 512.501 3.88654 -2.0456 0
M  V30 5301 H 513.107 2.73435 -3.25751 0
M  V30 5302 N 511.423 1.38739 0.74761 0
M  V30 5303 C 512.67 1.35274 1.50689 0
M  V30 5304 C 512.998 -0.0553359 1.94421 0
M  V30 5305 O 512.253 -1.03365 1.66175 0
M  V30 5306 C 512.552 2.25992 2.7688 0
M  V30 5307 C 512.218 3.73854 2.5208 0
M  V30 5308 C 510.88 4.14145 2.45025 0
M  V30 5309 C 513.232 4.67427 2.30568 0
M  V30 5310 C 510.56 5.4609 2.14483 0
M  V30 5311 C 512.912 5.99635 2.01545 0
M  V30 5312 C 511.576 6.39004 1.92951 0
M  V30 5313 H 510.846 0.495003 0.55141 0
M  V30 5314 H 513.493 1.71145 0.859158 0
M  V30 5315 H 511.798 1.83196 3.46333 0
M  V30 5316 H 513.495 2.20611 3.34861 0
M  V30 5317 H 510.085 3.41913 2.58444 0
M  V30 5318 H 514.269 4.3714 2.34994 0
M  V30 5319 H 509.525 5.75528 2.06342 0
M  V30 5320 H 513.699 6.71678 1.83906 0
M  V30 5321 H 511.326 7.41165 1.6905 0
M  V30 5322 N 512.901 -0.976442 1.23707 0
M  V30 5323 C 514.126 -1.75875 1.09922 0
M  V30 5324 C 514.551 -1.84911 -0.34489 0
M  V30 5325 O 513.909 -1.31363 -1.24954 0
M  V30 5326 C 513.957 -3.16179 1.73388 0
M  V30 5327 O 513.061 -4.00124 0.99871 0
M  V30 5328 H 512.402 -0.540954 0.385052 0
M  V30 5329 H 514.932 -1.22546 1.6384 0
M  V30 5330 H 514.942 -3.66741 1.78788 0
M  V30 5331 H 513.617 -3.08917 2.78466 0
M  V30 5332 H 512.194 -3.58624 1.02193 0
M  V30 5333 N 514.379 -1.04941 -1.1758 0
M  V30 5334 C 515.329 -0.618378 -2.19454 0
M  V30 5335 C 516.313 0.343813 -1.57184 0
M  V30 5336 O 517.505 0.16145 -1.76262 0
M  V30 5337 C 514.634 0.00803847 -3.43299 0
M  V30 5338 C 513.72 -0.977827 -4.12673 0
M  V30 5339 N 514.111 -2.14826 -4.57912 0
M  V30 5340 C 512.409 -0.805748 -4.38661 0
M  V30 5341 C 513.11 -2.77174 -5.11419 0
M  V30 5342 N 512.086 -2.04989 -5.03468 0
M  V30 5343 H 515.888 -1.51018 -2.52132 0
M  V30 5344 H 513.402 -0.919201 -1.33882 0
M  V30 5345 H 515.399 0.334584 -4.15555 0
M  V30 5346 H 514.059 0.895272 -3.12114 0
M  V30 5347 H 515.07 -2.52673 -4.52081 0
M  V30 5348 H 511.747 0.0306506 -4.17489 0
M  V30 5349 H 513.137 -3.76416 -5.56562 0
M  V30 5350 N 515.857 1.33968 -0.830081 0
M  V30 5351 C 517.105 1.97672 -0.420734 0
M  V30 5352 C 517.426 1.66111 1.02138 0
M  V30 5353 O 516.696 0.955503 1.71017 0
M  V30 5354 H 515.276 0.73125 -0.152587 0
M  V30 5355 H 517.938 1.63483 -1.0611 0
M  V30 5356 H 517.034 3.07294 -0.545588 0
M  V30 5357 N 517.335 0.585699 1.46312 0
M  V30 5358 C 518.298 -0.135673 2.28798 0
M  V30 5359 C 519.298 -0.815988 1.38558 0
M  V30 5360 O 520.488 -0.667487 1.60904 0
M  V30 5361 C 517.62 -1.20163 3.1902 0
M  V30 5362 H 518.813 0.589257 2.94054 0
M  V30 5363 H 516.366 0.343794 1.52472 0
M  V30 5364 H 517.101 -1.95804 2.58517 0
M  V30 5365 H 516.886 -0.718282 3.85465 0
M  V30 5366 H 518.376 -1.70749 3.81096 0
M  V30 5367 N 518.813 -1.54241 0.323641 0
M  V30 5368 C 519.763 -2.21071 -0.557833 0
M  V30 5369 C 520.747 -1.19126 -1.08157 0
M  V30 5370 O 521.939 -1.44755 -1.01857 0
M  V30 5371 C 519.068 -2.97208 -1.71821 0
M  V30 5372 C 518.154 -4.06491 -1.20936 0
M  V30 5373 N 518.545 -5.04052 -0.420202 0
M  V30 5374 C 516.843 -4.20443 -1.48808 0
M  V30 5375 C 517.544 -5.81516 -0.146413 0
M  V30 5376 N 516.52 -5.38641 -0.732562 0
M  V30 5377 H 520.322 -2.93853 0.0523921 0
M  V30 5378 H 517.836 -1.61883 0.129502 0
M  V30 5379 H 519.833 -3.4357 -2.36146 0
M  V30 5380 H 518.493 -2.25947 -2.33191 0
M  V30 5381 H 519.504 -5.17862 -0.0630401 0
M  V30 5382 H 516.181 -3.60396 -2.10762 0
M  V30 5383 H 517.571 -6.70119 0.488895 0
M  V30 5384 N 520.291 -0.0518155 -1.57515 0
M  V30 5385 C 521.241 0.932017 -2.0808 0
M  V30 5386 C 522.225 1.27141 -0.986098 0
M  V30 5387 O 523.417 1.25373 -1.24943 0
M  V30 5388 C 520.546 2.20665 -2.62986 0
M  V30 5389 C 519.632 1.89462 -3.79427 0
M  V30 5390 N 520.023 1.28621 -4.89173 0
M  V30 5391 C 518.321 2.19327 -3.88345 0
M  V30 5392 C 519.022 1.15062 -5.70207 0
M  V30 5393 N 517.998 1.65372 -5.17835 0
M  V30 5394 H 521.8 0.456964 -2.90326 0
M  V30 5395 H 519.314 0.152619 -1.61681 0
M  V30 5396 H 521.311 2.92044 -2.97516 0
M  V30 5397 H 519.971 2.68776 -1.8218 0
M  V30 5398 H 520.982 0.958341 -5.08956 0
M  V30 5399 H 517.659 2.69955 -3.18482 0
M  V30 5400 H 519.049 0.678243 -6.68468 0
M  V30 5401 N 521.769 1.56035 0.221574 0
M  V30 5402 C 523.009 1.80822 0.953038 0
M  V30 5403 C 523.373 0.625316 1.81532 0
M  V30 5404 O 524.574 0.752491 2.58052 0
M  V30 5405 C 522.845 3.10503 1.76983 0
M  V30 5406 S 524.404 3.56604 2.55693 0
M  V30 5407 H 521.222 0.634849 0.320137 0
M  V30 5408 H 523.824 1.94274 0.218619 0
M  V30 5409 H 522.528 3.94636 1.12651 0
M  V30 5410 H 522.059 2.99858 2.54655 0
M  V30 5411 H 524.074 3.1994 3.79279 0
M  V30 5412 N 523.247 -0.488276 1.49845 0
M  V30 5413 C 524.177 -1.59675 1.70371 0
M  V30 5414 C 525.158 -1.60878 0.552473 0
M  V30 5415 O 526.343 -1.77417 0.78973 0
M  V30 5416 C 523.473 -2.98098 1.782 0
M  V30 5417 C 522.427 -3.11761 2.93239 0
M  V30 5418 C 521.753 -4.51661 2.86193 0
M  V30 5419 C 523.053 -2.90589 4.33999 0
M  V30 5420 H 524.747 -1.42752 2.63177 0
M  V30 5421 H 522.293 -0.685317 1.26647 0
M  V30 5422 H 524.246 -3.75555 1.91144 0
M  V30 5423 H 522.97 -3.16138 0.820018 0
M  V30 5424 H 521.629 -2.36732 2.79917 0
M  V30 5425 H 521.277 -4.66595 1.87877 0
M  V30 5426 H 520.977 -4.61742 3.63412 0
M  V30 5427 H 522.501 -5.31162 3.01163 0
M  V30 5428 H 523.915 -3.57807 4.47936 0
M  V30 5429 H 522.312 -3.1213 5.12538 0
M  V30 5430 H 523.382 -1.86595 4.4756 0
M  V30 5431 N 524.725 -1.39134 -0.740242 0
M  V30 5432 C 525.973 -1.35803 -1.49673 0
M  V30 5433 C 526.294 0.0470897 -1.94943 0
M  V30 5434 O 525.564 0.997347 -1.68611 0
M  V30 5435 H 524.144 -0.499736 -0.555224 0
M  V30 5436 H 526.806 -1.73947 -0.879107 0
M  V30 5437 H 525.902 -2.0174 -2.38133 0
M  V30 5438 N 526.204 0.969867 -1.24223 0
M  V30 5439 C 527.167 2.04564 -1.03373 0
M  V30 5440 C 528.167 1.60798 0.00819206 0
M  V30 5441 O 529.357 1.72641 -0.232567 0
M  V30 5442 C 526.489 3.36163 -0.566343 0
M  V30 5443 H 527.682 2.24494 -1.98853 0
M  V30 5444 H 525.235 1.1448 -1.06415 0
M  V30 5445 H 525.97 3.21925 0.391751 0
M  V30 5446 H 525.755 3.69273 -1.31834 0
M  V30 5447 H 527.245 4.1526 -0.441435 0
M  V30 5448 N 527.682 1.05563 1.17022 0
M  V30 5449 C 528.645 0.664098 2.19368 0
M  V30 5450 C 529.645 -0.286358 1.5823 0
M  V30 5451 O 530.835 -0.069728 1.7406 0
M  V30 5452 C 527.967 -0.0239932 3.40892 0
M  V30 5453 H 529.16 1.57 2.55521 0
M  V30 5454 H 526.713 0.849964 1.31169 0
M  V30 5455 H 527.448 -0.942988 3.10287 0
M  V30 5456 H 527.233 0.659351 3.86516 0
M  V30 5457 H 528.723 -0.283909 4.16634 0
M  V30 5458 N 529.16 -1.33526 0.837174 0
M  V30 5459 C 530.123 -2.27551 0.274421 0
M  V30 5460 C 531.123 -1.50886 -0.555881 0
M  V30 5461 O 532.313 -1.70227 -0.369918 0
M  V30 5462 C 529.445 -3.35332 -0.613605 0
M  V30 5463 H 530.638 -2.78837 1.10408 0
M  V30 5464 H 528.191 -1.439 0.610126 0
M  V30 5465 H 528.926 -2.89285 -1.46577 0
M  V30 5466 H 528.711 -3.92095 -0.0195341 0
M  V30 5467 H 530.201 -4.05433 -1.00068 0
M  V30 5468 N 530.638 -0.59345 -1.46 0
M  V30 5469 C 531.601 0.123538 -2.28867 0
M  V30 5470 C 532.601 0.808628 -1.38989 0
M  V30 5471 O 533.791 0.658945 -1.61256 0
M  V30 5472 C 530.923 1.1847 -3.19653 0
M  V30 5473 H 532.116 -0.604843 -2.93737 0
M  V30 5474 H 529.669 -0.351875 -1.52288 0
M  V30 5475 H 530.404 1.94431 -2.59552 0
M  V30 5476 H 530.189 0.69783 -3.8584 0
M  V30 5477 H 531.679 1.68726 -3.81997 0
M  V30 5478 N 532.116 1.54067 -0.331816 0
M  V30 5479 C 533.532 1.59587 0.0205388 0
M  V30 5480 C 533.732 1.34813 1.49759 0
M  V30 5481 O 532.788 1.13661 2.25471 0
M  V30 5482 C 534.101 2.97959 -0.405103 0
M  V30 5483 C 535.649 3.10964 -0.356454 0
M  V30 5484 C 536.124 4.51694 -0.757384 0
M  V30 5485 N 537.615 4.57709 -0.71111 0
M  V30 5486 C 538.35 5.64729 -0.993427 0
M  V30 5487 N 537.846 6.79652 -1.3433 0
M  V30 5488 N 539.639 5.54546 -0.918442 0
M  V30 5489 H 531.79 1.68426 -1.29407 0
M  V30 5490 H 534.053 0.78819 -0.526745 0
M  V30 5491 H 533.759 3.21115 -1.43451 0
M  V30 5492 H 533.633 3.76524 0.225692 0
M  V30 5493 H 536.02 2.87538 0.663763 0
M  V30 5494 H 536.101 2.34484 -1.02229 0
M  V30 5495 H 535.745 4.75853 -1.77555 0
M  V30 5496 H 535.675 5.26555 -0.0691444 0
M  V30 5497 H 538.166 3.75176 -0.452883 0
M  V30 5498 H 538.479 7.57221 -1.54388 0
M  V30 5499 H 536.824 6.81128 -1.38164 0
M  V30 5500 H 540.015 4.63641 -0.644536 0
M  V30 5501 H 540.188 6.37861 -1.14181 0
M  V30 5502 N 533.594 0.0601682 1.57485 0
M  V30 5503 C 534.527 -0.94676 2.07634 0
M  V30 5504 C 535.505 -1.29837 0.978826 0
M  V30 5505 O 536.689 -1.40969 1.2514 0
M  V30 5506 C 533.816 -2.25822 2.52433 0
M  V30 5507 C 532.862 -2.05901 3.73507 0
M  V30 5508 S 533.695 -1.32907 5.18745 0
M  V30 5509 C 534.851 -2.65356 5.66866 0
M  V30 5510 H 535.084 -0.520003 2.92717 0
M  V30 5511 H 532.617 -0.152319 1.53647 0
M  V30 5512 H 534.575 -3.01201 2.78905 0
M  V30 5513 H 533.236 -2.65624 1.67639 0
M  V30 5514 H 532.429 -3.02929 4.02803 0
M  V30 5515 H 532.031 -1.38659 3.47347 0
M  V30 5516 H 534.323 -3.61492 5.73001 0
M  V30 5517 H 535.266 -2.40685 6.6594 0
M  V30 5518 H 535.674 -2.72028 4.94632 0
M  V30 5519 N 535.072 -1.5615 -0.213296 0
M  V30 5520 C 536.004 -1.89586 -1.28802 0
M  V30 5521 C 537.017 -0.784844 -1.42633 0
M  V30 5522 O 538.206 -1.06319 -1.43383 0
M  V30 5523 C 535.306 -2.09665 -2.66259 0
M  V30 5524 C 534.479 -3.40726 -2.7427 0
M  V30 5525 C 533.538 -3.50137 -3.92798 0
M  V30 5526 O 532.564 -4.23105 -3.8075 0
M  V30 5527 N 533.766 -2.81886 -5.07465 0
M  V30 5528 H 536.531 -2.82368 -1.00442 0
M  V30 5529 H 534.092 -1.56796 -0.403302 0
M  V30 5530 H 536.084 -2.13268 -3.43946 0
M  V30 5531 H 534.654 -1.23469 -2.87183 0
M  V30 5532 H 533.874 -3.4915 -1.82997 0
M  V30 5533 H 535.162 -4.27048 -2.76599 0
M  V30 5534 H 534.56 -2.22397 -5.2015 0
M  V30 5535 H 533.117 -2.91139 -5.83165 0
M  V30 5536 N 536.55 0.480323 -1.50102 0
M  V30 5537 C 537.79 1.24301 -1.62261 0
M  V30 5538 C 538.154 1.89452 -0.311758 0
M  V30 5539 O 539.355 2.67022 -0.308696 0
M  V30 5540 C 537.626 2.26588 -2.76392 0
M  V30 5541 S 539.185 3.11919 -3.08629 0
M  V30 5542 H 536.003 0.42215 -0.57211 0
M  V30 5543 H 538.605 0.541591 -1.87848 0
M  V30 5544 H 537.309 1.7729 -3.70131 0
M  V30 5545 H 536.84 3.01371 -2.52862 0
M  V30 5546 H 538.855 4.27598 -2.51742 0
M  V30 5547 N 538.028 1.39524 0.732853 0
M  V30 5548 C 539.444 1.21176 1.03868 0
M  V30 5549 C 539.644 0.0748448 2.01361 0
M  V30 5550 O 538.7 -0.57281 2.45917 0
M  V30 5551 C 540.013 2.54667 1.59892 0
M  V30 5552 C 541.561 2.6153 1.71962 0
M  V30 5553 C 542.036 3.95248 2.31394 0
M  V30 5554 N 543.527 3.96899 2.38801 0
M  V30 5555 C 544.262 4.97138 2.85729 0
M  V30 5556 N 543.758 6.07775 3.32537 0
M  V30 5557 N 545.551 4.84516 2.84957 0
M  V30 5558 H 537.702 2.12225 0.086304 0
M  V30 5559 H 539.965 0.942614 0.100907 0
M  V30 5560 H 539.671 3.38423 0.95721 0
M  V30 5561 H 539.545 2.74538 2.58668 0
M  V30 5562 H 541.932 1.78156 2.35254 0
M  V30 5563 H 542.013 2.45507 0.718327 0
M  V30 5564 H 541.657 4.79054 1.68729 0
M  V30 5565 H 541.587 4.08593 3.32204 0
M  V30 5566 H 544.078 3.16998 2.05719 0
M  V30 5567 H 544.391 6.8017 3.66862 0
M  V30 5568 H 542.736 6.11366 3.30541 0
M  V30 5569 H 545.927 3.97185 2.47713 0
M  V30 5570 H 546.1 5.62783 3.21215 0
M  V30 5571 N 539.506 -0.963266 1.24736 0
M  V30 5572 C 540.752 -1.70933 1.09131 0
M  V30 5573 C 541.085 -1.90676 -0.368273 0
M  V30 5574 O 540.36 -1.47147 -1.27193 0
M  V30 5575 C 540.643 -3.09744 1.83658 0
M  V30 5576 C 540.496 -2.97465 3.37394 0
M  V30 5577 C 541.815 -4.09483 1.61282 0
M  V30 5578 H 538.934 -0.620398 0.397838 0
M  V30 5579 H 541.576 -1.12028 1.53459 0
M  V30 5580 H 539.726 -3.60031 1.4598 0
M  V30 5581 H 541.398 -2.54571 3.84696 0
M  V30 5582 H 539.641 -2.33576 3.65547 0
M  V30 5583 H 540.312 -3.95822 3.84745 0
M  V30 5584 H 542.788 -3.68073 1.94066 0
M  V30 5585 H 541.664 -5.04666 2.15878 0
M  V30 5586 H 541.925 -4.38639 0.552102 0
M  V30 5587 N 540.985 -1.06182 -1.16461 0
M  V30 5588 C 541.948 -0.675723 -2.19013 0
M  V30 5589 C 542.948 0.277963 -1.58379 0
M  V30 5590 O 544.138 0.0604962 -1.74095 0
M  V30 5591 C 541.27 0.00591459 -3.40899 0
M  V30 5592 H 542.463 -1.58353 -2.54685 0
M  V30 5593 H 540.016 -0.856908 -1.30716 0
M  V30 5594 H 540.751 0.92652 -3.10783 0
M  V30 5595 H 540.536 -0.67984 -3.86161 0
M  V30 5596 H 542.026 0.26181 -4.16778 0
M  V30 5597 N 542.463 1.3308 -0.844243 0
M  V30 5598 C 543.393 2.3161 -0.296493 0
M  V30 5599 C 544.374 1.59215 0.598707 0
M  V30 5600 O 545.559 1.87077 0.521134 0
M  V30 5601 C 542.689 3.43313 0.524762 0
M  V30 5602 C 541.643 4.27115 -0.275106 0
M  V30 5603 C 540.969 5.30483 0.670236 0
M  V30 5604 C 542.269 5.00443 -1.49514 0
M  V30 5605 H 543.963 2.77672 -1.11976 0
M  V30 5606 H 541.509 1.33496 -0.539899 0
M  V30 5607 H 543.462 4.11273 0.918298 0
M  V30 5608 H 542.186 2.95952 1.3813 0
M  V30 5609 H 540.845 3.60787 -0.650267 0
M  V30 5610 H 540.493 4.79379 1.52332 0
M  V30 5611 H 540.193 5.87435 0.139123 0
M  V30 5612 H 541.717 6.01308 1.06117 0
M  V30 5613 H 543.131 5.61141 -1.17447 0
M  V30 5614 H 541.528 5.67071 -1.96343 0
M  V30 5615 H 542.598 4.28906 -2.26202 0
M  V30 5616 N 543.941 0.601185 1.45683 0
M  V30 5617 C 545.169 0.100054 2.06658 0
M  V30 5618 C 545.584 -1.21285 1.44691 0
M  V30 5619 O 544.941 -1.73735 0.558772 0
M  V30 5620 C 544.992 -0.0528579 3.61461 0
M  V30 5621 O 544.713 1.20809 4.21114 0
M  V30 5622 C 546.214 -0.586193 4.39407 0
M  V30 5623 H 543.434 0.065905 0.667756 0
M  V30 5624 H 545.978 0.827101 1.87028 0
M  V30 5625 H 544.133 -0.730203 3.80456 0
M  V30 5626 H 544.547 1.03368 5.14213 0
M  V30 5627 H 546.021 -0.642297 5.4825 0
M  V30 5628 H 546.498 -1.60713 4.0874 0
M  V30 5629 H 547.104 0.0568935 4.25262 0
M  V30 5630 N 545.419 -1.53889 0.339982 0
M  V30 5631 C 546.329 -2.28604 -0.526988 0
M  V30 5632 C 547.345 -1.33578 -1.11503 0
M  V30 5633 O 548.521 -1.66612 -1.13148 0
M  V30 5634 C 545.586 -3.04164 -1.66389 0
M  V30 5635 C 544.647 -4.14809 -1.10599 0
M  V30 5636 C 543.88 -4.86756 -2.18871 0
M  V30 5637 O 544.103 -4.58343 -3.39526 0
M  V30 5638 O 543.037 -5.73289 -1.83366 0
M  V30 5639 H 546.863 -3.03594 0.0802707 0
M  V30 5640 H 544.448 -1.4903 0.105141 0
M  V30 5641 H 546.33 -3.51427 -2.32544 0
M  V30 5642 H 545.005 -2.32035 -2.25703 0
M  V30 5643 H 543.912 -3.71857 -0.409067 0
M  V30 5644 H 545.245 -4.89029 -0.557771 0
M  V30 5645 N 546.897 -0.0685191 -1.57451 0
M  V30 5646 C 547.827 0.89747 -2.15564 0
M  V30 5647 C 548.808 1.31266 -1.08181 0
M  V30 5648 O 549.993 1.38429 -1.36202 0
M  V30 5649 C 547.123 2.16623 -2.71463 0
M  V30 5650 C 546.077 1.89054 -3.83982 0
M  V30 5651 C 545.403 3.22532 -4.26471 0
M  V30 5652 C 546.703 1.1984 -5.08366 0
M  V30 5653 H 548.397 0.413373 -2.96533 0
M  V30 5654 H 545.943 0.197391 -1.42641 0
M  V30 5655 H 547.896 2.84614 -3.10761 0
M  V30 5656 H 546.62 2.67269 -1.8771 0
M  V30 5657 H 545.279 1.23469 -3.45183 0
M  V30 5658 H 544.927 3.71013 -3.39644 0
M  V30 5659 H 544.627 3.04879 -5.02317 0
M  V30 5660 H 546.151 3.91727 -4.68383 0
M  V30 5661 H 547.565 1.77896 -5.45001 0
M  V30 5662 H 545.962 1.12456 -5.89469 0
M  V30 5663 H 547.032 0.176996 -4.84577 0
M  V30 5664 N 548.375 1.56261 0.205012 0
M  V30 5665 C 549.305 1.96779 1.257 0
M  V30 5666 C 550.286 0.838309 1.48008 0
M  V30 5667 O 551.471 1.10189 1.59913 0
M  V30 5668 C 548.601 2.29876 2.60335 0
M  V30 5669 C 547.555 3.45469 2.52656 0
M  V30 5670 C 546.881 3.64215 3.91473 0
M  V30 5671 C 548.181 4.79954 2.06014 0
M  V30 5672 H 549.875 2.84904 0.920338 0
M  V30 5673 H 547.421 1.37072 0.441277 0
M  V30 5674 H 549.374 2.56814 3.34102 0
M  V30 5675 H 548.098 1.38622 2.95722 0
M  V30 5676 H 546.757 3.18605 1.81345 0
M  V30 5677 H 546.405 2.70309 4.24196 0
M  V30 5678 H 546.105 4.41973 3.87213 0
M  V30 5679 H 547.629 3.93519 4.66878 0
M  V30 5680 H 549.043 5.05989 2.69533 0
M  V30 5681 H 547.44 5.61111 2.12777 0
M  V30 5682 H 548.51 4.74201 1.01297 0
M  V30 5683 N 549.853 -0.472356 1.50355 0
M  V30 5684 C 550.816 -1.5529 1.68576 0
M  V30 5685 C 551.816 -1.50863 0.556511 0
M  V30 5686 O 553.006 -1.53505 0.823516 0
M  V30 5687 C 550.138 -2.94921 1.70981 0
M  V30 5688 H 551.331 -1.40451 2.64978 0
M  V30 5689 H 548.884 -0.698645 1.39816 0
M  V30 5690 H 549.619 -3.15204 0.762675 0
M  V30 5691 H 549.404 -2.99541 2.53017 0
M  V30 5692 H 550.894 -3.73372 1.87037 0
M  V30 5693 N 551.331 -1.39911 -0.725443 0
M  V30 5694 C 552.747 -1.21725 -1.03224 0
M  V30 5695 C 552.947 -0.0855224 -2.01318 0
M  V30 5696 O 552.003 0.55976 -2.46217 0
M  V30 5697 C 553.316 -2.55511 -1.58539 0
M  V30 5698 C 554.864 -2.62439 -1.70572 0
M  V30 5699 C 555.339 -3.9647 -2.29294 0
M  V30 5700 N 556.83 -3.98159 -2.36692 0
M  V30 5701 C 557.565 -4.98647 -2.83088 0
M  V30 5702 N 557.061 -6.0953 -3.2931 0
M  V30 5703 N 558.854 -4.8602 -2.82384 0
M  V30 5704 H 551.005 -2.12267 -0.075048 0
M  V30 5705 H 553.268 -0.943136 -0.0959066 0
M  V30 5706 H 552.974 -3.38926 -0.939249 0
M  V30 5707 H 552.848 -2.75905 -2.57208 0
M  V30 5708 H 555.235 -1.79401 -2.34306 0
M  V30 5709 H 555.316 -2.45885 -0.705297 0
M  V30 5710 H 554.96 -4.79942 -1.66186 0
M  V30 5711 H 554.89 -4.10349 -3.30032 0
M  V30 5712 H 557.381 -3.18085 -2.04035 0
M  V30 5713 H 557.694 -6.82106 -3.6325 0
M  V30 5714 H 556.039 -6.1311 -3.27294 0
M  V30 5715 H 559.23 -3.98493 -2.45603 0
M  V30 5716 H 559.403 -5.64478 -3.18226 0
M  V30 5717 N 552.809 0.956637 -1.25245 0
M  V30 5718 C 554.049 1.71585 -1.11076 0
M  V30 5719 C 554.413 1.88916 0.34277 0
M  V30 5720 O 555.614 2.61875 0.606227 0
M  V30 5721 C 553.885 3.06267 -1.84215 0
M  V30 5722 S 555.444 3.97469 -1.85914 0
M  V30 5723 H 552.262 0.589803 -0.397055 0
M  V30 5724 H 554.864 1.14114 -1.58739 0
M  V30 5725 H 553.568 2.91322 -2.89067 0
M  V30 5726 H 553.099 3.688 -1.36931 0
M  V30 5727 H 555.114 4.87316 -0.93474 0
M  V30 5728 N 554.287 1.06798 1.15896 0
M  V30 5729 C 555.698 0.811355 1.68149 0
M  V30 5730 C 556.049 -0.664339 1.8461 0
M  V30 5731 O 555.174 -1.51485 1.54535 0
M  V30 5732 C 555.769 1.46624 3.05429 0
M  V30 5733 C 554.328 1.25726 3.54781 0
M  V30 5734 C 553.475 1.53949 2.3064 0
M  V30 5735 H 556.426 1.23078 1.00187 0
M  V30 5736 H 556.447 0.88437 3.7008 0
M  V30 5737 H 555.959 2.54025 2.93416 0
M  V30 5738 H 554.06 0.20322 3.72045 0
M  V30 5739 H 554.173 1.97354 4.36564 0
M  V30 5740 H 552.537 0.96025 2.35905 0
M  V30 5741 H 553.32 2.6252 2.2122 0
M  V30 5742 N 555.766 -1.3263 0.851289 0
M  V30 5743 C 557.043 -1.91982 0.374448 0
M  V30 5744 C 557.423 -1.77568 -1.14161 0
M  V30 5745 O 556.771 -1.1717 -1.96172 0
M  V30 5746 C 556.981 -3.38862 0.835088 0
M  V30 5747 C 558.329 -4.15999 0.850309 0
M  V30 5748 O 559.353 -3.47566 0.779505 0
M  V30 5749 O 558.212 -5.38189 0.949481 0
M  V30 5750 H 555.306 -0.819846 0.10854 0
M  V30 5751 H 557.852 -1.41422 0.937966 0
M  V30 5752 H 556.624 -3.43281 1.87814 0
M  V30 5753 H 556.247 -3.96821 0.248833 0
M  V30 5754 N 557.244 -0.608902 -1.45362 0
M  V30 5755 C 558.491 -0.104607 -2.0223 0
M  V30 5756 C 558.819 1.26534 -1.47714 0
M  V30 5757 O 558.074 1.84855 -0.642435 0
M  V30 5758 C 558.373 -0.0167296 -3.57396 0
M  V30 5759 C 558.039 -1.32251 -4.31069 0
M  V30 5760 C 556.701 -1.68019 -4.50914 0
M  V30 5761 C 559.053 -2.18542 -4.73169 0
M  V30 5762 C 556.381 -2.89828 -5.10114 0
M  V30 5763 C 558.733 -3.39602 -5.33717 0
M  V30 5764 C 557.397 -3.7562 -5.51784 0
M  V30 5765 H 556.667 -0.0382785 -0.740011 0
M  V30 5766 H 559.314 -0.790782 -1.7441 0
M  V30 5767 H 557.619 0.752715 -3.84502 0
M  V30 5768 H 559.316 0.389634 -3.99103 0
M  V30 5769 H 555.906 -1.03411 -4.15938 0
M  V30 5770 H 560.09 -1.92208 -4.5757 0
M  V30 5771 H 555.346 -3.17839 -5.22291 0
M  V30 5772 H 559.52 -4.06716 -5.65292 0
M  V30 5773 H 557.147 -4.70093 -5.97425 0
M  V30 5774 N 558.722 1.53707 -0.348139 0
M  V30 5775 C 559.632 2.28881 0.514857 0
M  V30 5776 C 560.648 1.34168 1.10793 0
M  V30 5777 O 561.824 1.6721 1.12262 0
M  V30 5778 C 558.889 3.05042 1.64774 0
M  V30 5779 C 557.95 4.15389 1.08398 0
M  V30 5780 C 557.183 4.87909 2.16287 0
M  V30 5781 O 557.406 4.60137 3.3709 0
M  V30 5782 O 556.34 5.74254 1.80323 0
M  V30 5783 H 560.166 3.03547 -0.0963699 0
M  V30 5784 H 557.751 1.48972 -0.113043 0
M  V30 5785 H 559.633 3.52656 2.30677 0
M  V30 5786 H 558.308 2.33228 2.24469 0
M  V30 5787 H 557.215 3.72068 0.389341 0
M  V30 5788 H 558.548 4.89318 0.531829 0
M  V30 5789 N 560.2 0.0768682 1.57412 0
M  V30 5790 C 561.446 -0.591961 1.93968 0
M  V30 5791 C 561.779 -1.68954 0.9575 0
M  V30 5792 O 561.054 -1.94496 -0.0124675 0
M  V30 5793 C 561.337 -1.16418 3.40762 0
M  V30 5794 C 561.19 -0.0728933 4.49741 0
M  V30 5795 C 562.509 -2.06814 3.88479 0
M  V30 5796 H 559.628 -0.213716 0.705333 0
M  V30 5797 H 562.27 0.14387 1.89455 0
M  V30 5798 H 560.42 -1.79128 3.4474 0
M  V30 5799 H 562.092 0.560446 4.57883 0
M  V30 5800 H 560.335 0.595859 4.29688 0
M  V30 5801 H 561.006 -0.513755 5.49604 0
M  V30 5802 H 563.482 -1.54033 3.8654 0
M  V30 5803 H 562.358 -2.43785 4.91793 0
M  V30 5804 H 562.619 -2.97844 3.26713 0
M  V30 5805 N 561.678 -1.56367 -0.196722 0
M  V30 5806 C 562.641 -1.93561 -1.22746 0
M  V30 5807 C 563.641 -0.816566 -1.38524 0
M  V30 5808 O 564.831 -1.084 -1.36363 0
M  V30 5809 C 561.963 -2.20823 -2.59712 0
M  V30 5810 H 563.156 -2.85774 -0.909586 0
M  V30 5811 H 560.709 -1.50032 -0.438174 0
M  V30 5812 H 561.444 -1.31243 -2.96557 0
M  V30 5813 H 561.229 -3.02368 -2.49632 0
M  V30 5814 H 562.719 -2.50608 -3.34044 0
M  V30 5815 N 563.156 0.464375 -1.50603 0
M  V30 5816 C 564.066 1.58723 -1.72754 0
M  V30 5817 C 565.082 1.62925 -0.610844 0
M  V30 5818 O 566.258 1.8067 -0.889963 0
M  V30 5819 C 563.323 2.94897 -1.82309 0
M  V30 5820 C 562.384 3.0103 -3.06071 0
M  V30 5821 C 561.617 4.30708 -3.1516 0
M  V30 5822 O 561.84 5.2159 -2.30868 0
M  V30 5823 O 560.774 4.42571 -4.0794 0
M  V30 5824 H 564.6 1.42954 -2.67951 0
M  V30 5825 H 562.185 0.644579 -1.3478 0
M  V30 5826 H 564.067 3.75764 -1.90735 0
M  V30 5827 H 562.742 3.10851 -0.902967 0
M  V30 5828 H 561.649 2.19217 -3.03142 0
M  V30 5829 H 562.982 2.90014 -3.97684 0
M  V30 5830 N 564.634 1.40294 0.718013 0
M  V30 5831 C 565.859 1.41941 1.5122 0
M  V30 5832 C 566.284 0.0202371 1.88089 0
M  V30 5833 O 565.642 -0.971078 1.53101 0
M  V30 5834 C 565.69 2.3141 2.76554 0
M  V30 5835 O 564.794 1.75567 3.73162 0
M  V30 5836 H 564.135 0.482644 0.456016 0
M  V30 5837 H 566.665 1.84494 0.884478 0
M  V30 5838 H 566.675 2.46513 3.25108 0
M  V30 5839 H 565.35 3.33085 2.49053 0
M  V30 5840 H 563.927 1.69798 3.31999 0
M  V30 5841 N 566.112 -0.949982 1.2575 0
M  V30 5842 C 567.528 -1.22191 1.02672 0
M  V30 5843 C 567.728 -1.99898 -0.253588 0
M  V30 5844 O 566.784 -2.33329 -0.965076 0
M  V30 5845 C 568.097 -1.99175 2.25277 0
M  V30 5846 C 569.645 -2.12201 2.30087 0
M  V30 5847 C 570.12 -2.92586 3.5236 0
M  V30 5848 N 571.611 -3.00163 3.52784 0
M  V30 5849 C 572.346 -3.62766 4.44059 0
M  V30 5850 N 571.842 -4.26943 5.45611 0
M  V30 5851 N 573.635 -3.59953 4.3173 0
M  V30 5852 H 565.786 -0.430258 2.07996 0
M  V30 5853 H 568.049 -0.252844 0.91366 0
M  V30 5854 H 567.755 -1.49479 3.18354 0
M  V30 5855 H 567.629 -2.99868 2.28821 0
M  V30 5856 H 570.016 -2.61093 1.3753 0
M  V30 5857 H 570.097 -1.10799 2.30559 0
M  V30 5858 H 569.741 -2.44383 4.45241 0
M  V30 5859 H 569.671 -3.94224 3.49134 0
M  V30 5860 H 572.162 -2.54529 2.79327 0
M  V30 5861 H 572.475 -4.72583 6.11461 0
M  V30 5862 H 570.82 -4.25557 5.49478 0
M  V30 5863 H 574.011 -3.09003 3.51617 0
M  V30 5864 H 574.184 -4.08455 5.03059 0
M  V30 5865 N 567.59 -1.07411 -1.15328 0
M  V30 5866 C 568.839 -0.792643 -1.85473 0
M  V30 5867 C 569.152 0.683789 -1.83259 0
M  V30 5868 O 570.358 1.08005 -2.49093 0
M  V30 5869 C 568.814 -1.36787 -3.32892 0
M  V30 5870 C 568.422 -2.87536 -3.43551 0
M  V30 5871 C 570.166 -1.16444 -4.08217 0
M  V30 5872 C 568.073 -3.38247 -4.85122 0
M  V30 5873 H 567.003 -0.292838 -0.694811 0
M  V30 5874 H 569.654 -1.29426 -1.30082 0
M  V30 5875 H 568.036 -0.793993 -3.87958 0
M  V30 5876 H 569.21 -3.50973 -2.98588 0
M  V30 5877 H 567.525 -3.06676 -2.81672 0
M  V30 5878 H 570.122 -1.51808 -5.12697 0
M  V30 5879 H 570.465 -0.10353 -4.16171 0
M  V30 5880 H 570.998 -1.70472 -3.59422 0
M  V30 5881 H 567.737 -4.43866 -4.82351 0
M  V30 5882 H 567.257 -2.79564 -5.30664 0
M  V30 5883 H 568.936 -3.34238 -5.5398 0
M  V30 5884 N 569.068 1.32177 -0.85831 0
M  V30 5885 C 570.314 1.97417 -0.46417 0
M  V30 5886 C 570.647 1.67746 0.978514 0
M  V30 5887 O 569.922 0.967654 1.68721 0
M  V30 5888 C 570.205 3.53069 -0.708094 0
M  V30 5889 C 570.058 3.92357 -2.19946 0
M  V30 5890 C 571.377 4.39783 -0.166881 0
M  V30 5891 H 568.496 0.717097 -0.17012 0
M  V30 5892 H 571.138 1.56499 -1.07741 0
M  V30 5893 H 569.288 3.88054 -0.186128 0
M  V30 5894 H 570.96 3.67533 -2.78779 0
M  V30 5895 H 569.203 3.41384 -2.67656 0
M  V30 5896 H 569.874 5.00841 -2.32082 0
M  V30 5897 H 572.35 4.11556 -0.613285 0
M  V30 5898 H 571.226 5.47671 -0.367093 0
M  V30 5899 H 571.487 4.32196 0.930559 0
M  V30 5900 N 570.547 0.616602 1.45037 0
M  V30 5901 C 571.793 0.123965 2.03022 0
M  V30 5902 C 572.148 -1.23508 1.47525 0
M  V30 5903 O 571.441 -1.80453 0.643981 0
M  V30 5904 C 571.635 0.0356829 3.57382 0
M  V30 5905 C 571.464 1.38462 4.27853 0
M  V30 5906 C 570.234 1.96766 4.65415 0
M  V30 5907 C 572.432 2.31536 4.59234 0
M  V30 5908 N 570.414 3.25046 5.20786 0
M  V30 5909 C 571.785 3.4442 5.15533 0
M  V30 5910 C 573.84 2.30796 4.41178 0
M  V30 5911 C 572.543 4.56742 5.55679 0
M  V30 5912 C 574.569 3.42171 4.82362 0
M  V30 5913 C 573.931 4.53778 5.38762 0
M  V30 5914 H 570.03 0.0889428 0.776925 0
M  V30 5915 H 572.614 0.816925 1.76733 0
M  V30 5916 H 570.785 -0.62652 3.83314 0
M  V30 5917 H 572.517 -0.464443 4.02026 0
M  V30 5918 H 569.272 1.4987 4.49261 0
M  V30 5919 H 569.696 3.90592 5.52962 0
M  V30 5920 H 574.338 1.45765 3.96878 0
M  V30 5921 H 572.056 5.42491 5.9894 0
M  V30 5922 H 575.642 3.42757 4.70116 0
M  V30 5923 H 574.522 5.38536 5.70043 0
M  V30 5924 N 572.025 -1.5352 0.356285 0
M  V30 5925 C 573.25 -2.06007 -0.239961 0
M  V30 5926 C 573.675 -1.22872 -1.42422 0
M  V30 5927 O 573.033 -0.245516 -1.7963 0
M  V30 5928 C 573.081 -3.5522 -0.620587 0
M  V30 5929 O 572.185 -3.74864 -1.71902 0
M  V30 5930 H 571.526 -0.662961 -0.0371377 0
M  V30 5931 H 574.056 -1.98033 0.514194 0
M  V30 5932 H 574.066 -3.98081 -0.894197 0
M  V30 5933 H 572.741 -4.15175 0.245407 0
M  V30 5934 H 571.318 -3.43904 -1.44169 0
M  V30 5935 N 573.503 -0.0852151 -1.57369 0
M  V30 5936 C 574.751 0.579658 -1.93609 0
M  V30 5937 C 575.072 1.69332 -0.967043 0
M  V30 5938 O 574.342 1.95892 -0.0174215 0
M  V30 5939 H 572.922 0.217113 -0.714752 0
M  V30 5940 H 575.584 -0.146226 -1.94351 0
M  V30 5941 H 574.68 0.996276 -2.95771 0
M  V30 5942 N 574.981 1.5647 0.188427 0
M  V30 5943 C 576.229 1.80655 0.905986 0
M  V30 5944 C 576.55 0.659391 1.83513 0
M  V30 5945 O 575.82 -0.321868 1.93238 0
M  V30 5946 H 574.4 0.666391 0.337538 0
M  V30 5947 H 577.062 1.93949 0.192339 0
M  V30 5948 H 576.158 2.74066 1.49313 0
M  V30 5949 N 576.459 -0.456382 1.50847 0
M  V30 5950 C 577.684 -1.2349 1.66628 0
M  V30 5951 C 578.109 -1.84715 0.355254 0
M  V30 5952 O 577.467 -1.67961 -0.682559 0
M  V30 5953 C 577.515 -2.30865 2.77009 0
M  V30 5954 O 576.619 -3.35882 2.39285 0
M  V30 5955 H 575.96 -0.36266 0.556214 0
M  V30 5956 H 578.49 -0.541374 1.97308 0
M  V30 5957 H 578.5 -2.75949 3.00526 0
M  V30 5958 H 577.175 -1.85677 3.72152 0
M  V30 5959 H 575.752 -2.96406 2.26269 0
M  V30 5960 N 577.937 -1.40673 -0.710563 0
M  V30 5961 C 579.167 -1.4234 -1.49742 0
M  V30 5962 C 579.575 -0.022821 -1.89186 0
M  V30 5963 O 578.918 0.964773 -1.56326 0
M  V30 5964 C 578.98 -2.25509 -2.79975 0
M  V30 5965 C 578.644 -3.73862 -2.62824 0
M  V30 5966 C 579.641 -4.66379 -2.29752 0
M  V30 5967 C 577.326 -4.17735 -2.78932 0
M  V30 5968 C 579.32 -6.00756 -2.13006 0
M  V30 5969 C 577.007 -5.5218 -2.61802 0
M  V30 5970 C 578.005 -6.43505 -2.28888 0
M  V30 5971 O 577.693 -7.75472 -2.11894 0
M  V30 5972 H 577.425 -0.487311 -0.468513 0
M  V30 5973 H 579.979 -1.8542 -0.883668 0
M  V30 5974 H 578.209 -1.77218 -3.43701 0
M  V30 5975 H 579.898 -2.19058 -3.41714 0
M  V30 5976 H 580.664 -4.33778 -2.16936 0
M  V30 5977 H 576.543 -3.46967 -3.03537 0
M  V30 5978 H 580.087 -6.72003 -1.87237 0
M  V30 5979 H 575.984 -5.84365 -2.74204 0
M  V30 5980 H 576.752 -7.86458 -2.26775 0
M  V30 5981 N 579.415 0.9433 -1.26252 0
M  V30 5982 C 580.661 1.69175 -1.11837 0
M  V30 5983 C 580.994 1.91238 0.337891 0
M  V30 5984 O 580.269 1.49152 1.24836 0
M  V30 5985 C 580.552 3.06783 -1.88563 0
M  V30 5986 C 580.405 2.9206 -3.42083 0
M  V30 5987 C 581.724 4.06865 -1.67776 0
M  V30 5988 H 578.843 0.61399 -0.407658 0
M  V30 5989 H 581.485 1.09572 -1.55222 0
M  V30 5990 H 579.635 3.57663 -1.51689 0
M  V30 5991 H 581.307 2.48419 -3.88698 0
M  V30 5992 H 579.55 2.27731 -3.69217 0
M  V30 5993 H 580.221 3.89651 -3.90994 0
M  V30 5994 H 582.697 3.64939 -1.99897 0
M  V30 5995 H 581.573 5.01168 -2.23879 0
M  V30 5996 H 581.834 4.37705 -0.621816 0
M  V30 5997 N 580.893 1.08022 1.14757 0
M  V30 5998 C 582.309 0.807072 1.3769 0
M  V30 5999 C 582.509 -0.585504 1.92806 0
M  V30 6000 O 581.565 -1.34301 2.13821 0
M  V30 6001 C 582.878 1.88651 2.34161 0
M  V30 6002 C 584.426 1.91206 2.47809 0
M  V30 6003 C 584.901 2.98253 3.47576 0
M  V30 6004 N 586.392 2.974 3.55117 0
M  V30 6005 C 587.127 3.76872 4.32152 0
M  V30 6006 N 586.623 4.66212 5.12463 0
M  V30 6007 N 588.416 3.6519 4.27309 0
M  V30 6008 H 580.567 1.97824 0.77326 0
M  V30 6009 H 582.83 0.85826 0.402608 0
M  V30 6010 H 582.536 2.88749 2.00791 0
M  V30 6011 H 582.41 1.75244 3.3402 0
M  V30 6012 H 584.797 0.917564 2.80472 0
M  V30 6013 H 584.878 2.08691 1.47925 0
M  V30 6014 H 584.522 3.97907 3.15646 0
M  V30 6015 H 584.452 2.78014 4.47231 0
M  V30 6016 H 586.943 2.32643 2.97801 0
M  V30 6017 H 587.256 5.23468 5.68508 0
M  V30 6018 H 585.601 4.70257 5.11745 0
M  V30 6019 H 588.792 2.94765 3.63636 0
M  V30 6020 H 588.965 4.27366 4.87095 0
M  V30 6021 N 582.371 -1.3172 0.865308 0
M  V30 6022 C 583.787 -1.4958 0.556596 0
M  V30 6023 C 583.987 -1.79763 -0.910353 0
M  V30 6024 O 583.043 -1.87351 -1.6928 0
M  V30 6025 C 584.356 -2.63277 1.45279 0
M  V30 6026 C 585.904 -2.77161 1.45433 0
M  V30 6027 C 586.379 -3.93949 2.33598 0
M  V30 6028 N 587.87 -4.01228 2.31453 0
M  V30 6029 C 588.605 -4.90855 2.96393 0
M  V30 6030 N 588.101 -5.85416 3.70486 0
M  V30 6031 N 589.894 -4.84063 2.85726 0
M  V30 6032 H 582.045 -1.10396 1.81456 0
M  V30 6033 H 584.308 -0.54507 0.775631 0
M  V30 6034 H 584.014 -2.47734 2.49641 0
M  V30 6035 H 583.888 -3.59309 1.14792 0
M  V30 6036 H 586.275 -2.9212 0.41831 0
M  V30 6037 H 586.356 -1.8181 1.79941 0
M  V30 6038 H 586 -3.79748 3.37274 0
M  V30 6039 H 585.93 -4.88598 1.96417 0
M  V30 6040 H 588.421 -3.3357 1.77593 0
M  V30 6041 H 588.734 -6.50525 4.17178 0
M  V30 6042 H 587.079 -5.85409 3.74594 0
M  V30 6043 H 590.27 -4.09163 2.27384 0
M  V30 6044 H 590.443 -5.53708 3.36617 0
M  V30 6045 N 583.85 -0.624285 -1.44708 0
M  V30 6046 C 585.26 -0.2092 -1.85524 0
M  V30 6047 C 585.611 1.23783 -1.52225 0
M  V30 6048 O 584.736 1.94089 -0.956986 0
M  V30 6049 C 585.332 -0.372897 -3.36742 0
M  V30 6050 C 583.891 -0.012374 -3.76398 0
M  V30 6051 C 583.038 -0.68951 -2.68591 0
M  V30 6052 H 585.989 -0.829894 -1.35272 0
M  V30 6053 H 586.01 0.390134 -3.78495 0
M  V30 6054 H 585.522 -1.42615 -3.60947 0
M  V30 6055 H 583.623 1.03941 -3.57809 0
M  V30 6056 H 583.736 -0.417663 -4.77276 0
M  V30 6057 H 582.1 -0.125484 -2.54391 0
M  V30 6058 H 582.883 -1.74522 -2.9563 0
M  V30 6059 N 585.328 1.53329 -0.364422 0
M  V30 6060 C 586.258 2.28627 0.474543 0
M  V30 6061 C 587.239 1.31009 1.08492 0
M  V30 6062 O 588.424 1.59878 1.10239 0
M  V30 6063 C 585.554 3.07465 1.61501 0
M  V30 6064 C 584.508 4.1276 1.13194 0
M  V30 6065 C 583.834 4.79674 2.36255 0
M  V30 6066 C 585.134 5.21847 0.217507 0
M  V30 6067 H 586.828 2.99005 -0.153656 0
M  V30 6068 H 584.374 1.43803 -0.0753406 0
M  V30 6069 H 586.327 3.58889 2.20855 0
M  V30 6070 H 585.051 2.34775 2.27042 0
M  V30 6071 H 583.71 3.62281 0.56109 0
M  V30 6072 H 583.358 4.03557 3.00251 0
M  V30 6073 H 583.058 5.50827 2.04606 0
M  V30 6074 H 584.582 5.33892 2.96297 0
M  V30 6075 H 585.996 5.6878 0.718493 0
M  V30 6076 H 584.393 6.00099 -0.00806408 0
M  V30 6077 H 585.463 4.7921 -0.740653 0
M  V30 6078 N 586.806 0.0935595 1.57322 0
M  V30 6079 C 588.031 -0.582324 1.99057 0
M  V30 6080 C 588.456 -1.61025 0.972242 0
M  V30 6081 O 587.814 -1.81202 -0.0594622 0
M  V30 6082 C 587.862 -1.20799 3.39765 0
M  V30 6083 O 586.966 -2.32382 3.40694 0
M  V30 6084 H 586.307 -0.147884 0.647323 0
M  V30 6085 H 588.837 0.174516 2.03854 0
M  V30 6086 H 588.847 -1.54966 3.77425 0
M  V30 6087 H 587.522 -0.454914 4.13405 0
M  V30 6088 H 586.099 -1.99845 3.14827 0
M  V30 6089 N 588.284 -1.56567 -0.180126 0
M  V30 6090 C 589.53 -1.81761 -0.899497 0
M  V30 6091 C 589.863 -0.670015 -1.82276 0
M  V30 6092 O 589.138 0.328575 -1.91705 0
M  V30 6093 C 589.421 -3.17296 -1.7028 0
M  V30 6094 C 589.274 -4.4257 -0.803255 0
M  V30 6095 C 590.593 -3.49678 -2.67233 0
M  V30 6096 H 587.712 -0.661192 -0.325567 0
M  V30 6097 H 590.354 -1.89272 -0.16612 0
M  V30 6098 H 588.504 -3.11023 -2.32802 0
M  V30 6099 H 590.176 -4.60902 -0.191585 0
M  V30 6100 H 588.419 -4.33658 -0.110796 0
M  V30 6101 H 589.09 -5.33935 -1.40064 0
M  V30 6102 H 591.566 -3.56347 -2.14839 0
M  V30 6103 H 590.442 -4.45605 -3.20511 0
M  V30 6104 H 590.703 -2.73932 -3.47007 0
M  V30 6105 N 589.762 0.448376 -1.51087 0
M  V30 6106 C 591.173 1.0286 -1.5581 0
M  V30 6107 C 591.524 1.92583 -0.374989 0
M  V30 6108 O 590.649 2.10316 0.509533 0
M  V30 6109 C 591.244 1.87223 -2.8237 0
M  V30 6110 C 589.803 2.40314 -2.897 0
M  V30 6111 C 588.95 1.19238 -2.50355 0
M  V30 6112 H 591.901 0.230075 -1.57023 0
M  V30 6113 H 591.922 2.72553 -2.6551 0
M  V30 6114 H 591.434 1.21894 -3.68461 0
M  V30 6115 H 589.535 3.09129 -2.08014 0
M  V30 6116 H 589.648 2.73866 -3.93108 0
M  V30 6117 H 588.012 1.53428 -2.03303 0
M  V30 6118 H 588.795 0.555367 -3.38778 0
M  V30 6119 N 591.24 1.41047 0.703093 0
M  V30 6120 C 592.487 1.4 1.46309 0
M  V30 6121 C 592.815 0.00654574 1.94499 0
M  V30 6122 O 592.07 -0.980255 1.6938 0
M  V30 6123 C 592.369 2.34686 2.6955 0
M  V30 6124 C 592.035 3.81684 2.40058 0
M  V30 6125 C 590.697 4.21731 2.31725 0
M  V30 6126 C 593.049 4.74525 2.15581 0
M  V30 6127 C 590.377 5.52637 1.97001 0
M  V30 6128 C 592.729 6.05744 1.82366 0
M  V30 6129 C 591.393 6.44819 1.72524 0
M  V30 6130 H 590.663 0.512295 0.535382 0
M  V30 6131 H 593.31 1.73792 0.804275 0
M  V30 6132 H 591.615 1.94122 3.40329 0
M  V30 6133 H 593.312 2.31152 3.27673 0
M  V30 6134 H 589.902 3.49963 2.47435 0
M  V30 6135 H 594.086 4.44395 2.20968 0
M  V30 6136 H 589.342 5.81802 1.87928 0
M  V30 6137 H 593.516 6.77189 1.62444 0
M  V30 6138 H 591.143 7.46168 1.45385 0
M  V30 6139 N 592.718 -0.936591 1.26751 0
M  V30 6140 C 594.134 -1.21095 1.03963 0
M  V30 6141 C 594.334 -2.00156 -0.232372 0
M  V30 6142 O 593.39 -2.3434 -0.940274 0
M  V30 6143 C 594.703 -1.96775 2.27377 0
M  V30 6144 C 596.251 -2.09749 2.32324 0
M  V30 6145 C 596.726 -2.88832 3.55443 0
M  V30 6146 N 598.217 -2.96404 3.55948 0
M  V30 6147 C 598.952 -3.58036 4.47881 0
M  V30 6148 N 598.448 -4.21132 5.50109 0
M  V30 6149 N 600.241 -3.55353 4.35523 0
M  V30 6150 H 592.392 -0.408173 2.08441 0
M  V30 6151 H 594.655 -0.243139 0.91629 0
M  V30 6152 H 594.361 -1.46094 3.19921 0
M  V30 6153 H 594.235 -2.97424 2.31989 0
M  V30 6154 H 596.622 -2.5962 1.40291 0
M  V30 6155 H 596.703 -1.08347 2.31721 0
M  V30 6156 H 596.347 -2.39647 4.47808 0
M  V30 6157 H 596.277 -3.90499 3.53296 0
M  V30 6158 H 598.768 -2.51552 2.82011 0
M  V30 6159 H 599.081 -4.66071 6.16439 0
M  V30 6160 H 597.426 -4.19705 5.53961 0
M  V30 6161 H 600.617 -3.05256 3.54875 0
M  V30 6162 H 600.79 -4.03097 5.07363 0
M  V30 6163 N 594.196 -1.08629 -1.14182 0
M  V30 6164 C 595.442 -0.818556 -1.85546 0
M  V30 6165 C 595.775 0.654076 -1.82854 0
M  V30 6166 O 595.05 1.48099 -1.26083 0
M  V30 6167 C 595.333 -1.34397 -3.3408 0
M  V30 6168 C 595.186 -2.8821 -3.45333 0
M  V30 6169 C 596.505 -0.971069 -4.29253 0
M  V30 6170 H 593.624 -0.298821 -0.673702 0
M  V30 6171 H 596.266 -1.34629 -1.34071 0
M  V30 6172 H 594.416 -0.895064 -3.78049 0
M  V30 6173 H 596.088 -3.41488 -3.10134 0
M  V30 6174 H 594.331 -3.25756 -2.86471 0
M  V30 6175 H 595.002 -3.20047 -4.49749 0
M  V30 6176 H 597.478 -1.35809 -3.93313 0
M  V30 6177 H 596.354 -1.36586 -5.31635 0
M  V30 6178 H 596.615 0.121659 -4.41933 0
M  V30 6179 N 595.674 1.31259 -0.872281 0
M  V30 6180 C 596.902 2.00795 -0.498907 0
M  V30 6181 C 597.317 1.65464 0.909238 0
M  V30 6182 O 596.674 0.885073 1.59602 0
M  V30 6183 C 596.725 3.55625 -0.649092 0
M  V30 6184 O 596.446 3.89692 -2.00179 0
M  V30 6185 C 597.947 4.42434 -0.277034 0
M  V30 6186 H 595.167 0.642299 -0.194145 0
M  V30 6187 H 597.711 1.67438 -1.17408 0
M  V30 6188 H 595.866 3.87394 -0.0214402 0
M  V30 6189 H 596.28 4.84407 -2.01122 0
M  V30 6190 H 597.754 5.50299 -0.433064 0
M  V30 6191 H 598.231 4.32146 0.783989 0
M  V30 6192 H 598.837 4.16086 -0.880483 0
M  V30 6193 N 597.152 0.631951 1.44375 0
M  V30 6194 C 598.377 0.142146 2.06912 0
M  V30 6195 C 598.802 -1.17456 1.4692 0
M  V30 6196 O 598.16 -1.72074 0.570975 0
M  V30 6197 C 598.208 0.0417952 3.60576 0
M  V30 6198 O 597.312 -1.00194 4.00044 0
M  V30 6199 H 596.653 0.0851491 0.658518 0
M  V30 6200 H 599.183 0.868863 1.85235 0
M  V30 6201 H 599.193 -0.148517 4.0773 0
M  V30 6202 H 597.868 1.0031 4.03622 0
M  V30 6203 H 596.445 -0.786131 3.64519 0
M  V30 6204 O 598.669 -1.53077 0.514746 0
M  V30 6205 H 599.36 -1.937 0.000749731 0
M  V30 END ATOM
M  V30 BEGIN BOND
M  V30 END BOND
M  V30 END CTAB
M  END
$$$$
