drugbank_target|Q8IAW0 Importin subunit alpha (DB11638)
 OpenBabel12092121203D

  0  0  0     0  0            999 V3000
M  V30 BEGIN CTAB
M  V30 COUNTS 8607 8667 0 0 0
M  V30 BEGIN ATOM
M  V30 1 H -0.908 1.98254 -0.117106 0
M  V30 2 N 0 1.576 0 0
M  V30 3 C 0.933 2.03868 1.02534 0
M  V30 4 C 1.911 0.928543 1.3348 0
M  V30 5 O 3.095 1.19667 1.45644 0
M  V30 6 C 0.222 2.43627 2.35294 0
M  V30 7 C -0.732 3.65373 2.2001 0
M  V30 8 S 0.101 5.13292 1.52614 0
M  V30 9 C 1.257 5.56322 2.86805 0
M  V30 10 H 1.49 2.90518 0.631377 0
M  V30 11 H -0.977 1.52953 0.210867 0
M  V30 12 H 0.981 2.67203 3.11629 0
M  V30 13 H -0.358 1.57376 2.7183 0
M  V30 14 H -1.165 3.90944 3.18086 0
M  V30 15 H -1.563 3.418 1.51819 0
M  V30 16 H 0.729 5.58782 3.83104 0
M  V30 17 H 1.672 6.56266 2.65933 0
M  V30 18 H 2.08 4.83886 2.90714 0
M  V30 19 N 1.4781 -0.272755 1.55222 0
M  V30 20 C 2.7551 -1.02562 1.66555 0
M  V30 21 C 3.1351 -2.04282 0.532189 0
M  V30 22 O 2.4831 -2.23662 -0.467717 0
M  V30 23 C 2.6931 -1.6822 3.05782 0
M  V30 24 C 4.0411 -2.19373 3.63539 0
M  V30 25 O 5.0651 -1.78206 3.08417 0
M  V30 26 O 3.9241 -2.94883 4.60115 0
M  V30 27 H 1.0181 -0.475755 0.676451 0
M  V30 28 H 3.5641 -0.268593 1.67561 0
M  V30 29 H 2.3361 -0.945112 3.79715 0
M  V30 30 H 1.9591 -2.50609 3.08676 0
M  V30 31 N 2.9562 -1.48159 -0.537278 0
M  V30 32 C 4.3722 -1.34118 -0.865129 0
M  V30 33 C 4.5722 -0.346678 -1.98495 0
M  V30 34 O 3.6282 0.234715 -2.51407 0
M  V30 35 C 4.9412 -2.73963 -1.23954 0
M  V30 36 C 6.4892 -2.82397 -1.34984 0
M  V30 37 C 6.9642 -4.22928 -1.75772 0
M  V30 38 N 8.4552 -4.25566 -1.82887 0
M  V30 39 C 9.1902 -5.31235 -2.15817 0
M  V30 40 N 8.6862 -6.47189 -2.47222 0
M  V30 41 N 10.4792 -5.18624 -2.16761 0
M  V30 42 H 2.6302 -2.1144 0.201715 0
M  V30 43 H 4.8932 -0.947598 0.0275949 0
M  V30 44 H 4.5992 -3.48264 -0.490381 0
M  V30 45 H 4.4732 -3.0702 -2.19132 0
M  V30 46 H 6.8602 -2.08356 -2.08978 0
M  V30 47 H 6.9412 -2.5297 -0.379448 0
M  V30 48 H 6.5852 -4.97482 -1.02341 0
M  V30 49 H 6.5152 -4.49794 -2.73848 0
M  V30 50 H 9.0062 -3.41924 -1.60924 0
M  V30 51 H 9.3192 -7.23564 -2.71433 0
M  V30 52 H 7.6642 -6.50476 -2.44757 0
M  V30 53 H 10.8552 -4.27056 -1.91679 0
M  V30 54 H 11.0282 -6.01078 -2.42093 0
M  V30 55 N 4.4343 0.785586 -1.36625 0
M  V30 56 C 5.8503 1.08419 -1.17122 0
M  V30 57 C 6.0503 2.015 0.00208491 0
M  V30 58 O 5.1063 2.43551 0.666278 0
M  V30 59 C 6.4193 1.69498 -2.48377 0
M  V30 60 C 7.9673 1.81821 -2.54775 0
M  V30 61 C 8.4423 2.46315 -3.86126 0
M  V30 62 N 9.9333 2.53779 -3.87492 0
M  V30 63 C 10.6683 3.045 -4.85868 0
M  V30 64 N 10.1643 3.55499 -5.94637 0
M  V30 65 N 11.9573 3.03247 -4.73284 0
M  V30 66 H 4.1083 0.167264 -2.1174 0
M  V30 67 H 6.3713 0.13682 -0.938075 0
M  V30 68 H 6.0773 1.08571 -3.34522 0
M  V30 69 H 5.9513 2.6896 -2.64462 0
M  V30 70 H 8.3383 2.41884 -1.69045 0
M  V30 71 H 8.4193 0.811532 -2.42586 0
M  V30 72 H 8.0633 1.86895 -4.72263 0
M  V30 73 H 7.9933 3.47561 -3.95612 0
M  V30 74 H 10.4843 2.17672 -3.08913 0
M  V30 75 H 10.7973 3.92562 -6.65669 0
M  V30 76 H 9.1423 3.5364 -5.98301 0
M  V30 77 H 12.3333 2.62696 -3.87438 0
M  V30 78 H 12.5063 3.42467 -5.50109 0
M  V30 79 N 5.9124 1.20967 1.01018 0
M  V30 80 C 7.1614 1.01796 1.74128 0
M  V30 81 C 7.4744 -0.449691 1.90361 0
M  V30 82 O 8.6804 -0.76068 2.60626 0
M  V30 83 C 7.1364 1.7727 3.13215 0
M  V30 84 C 6.7444 3.28171 3.04972 0
M  V30 85 C 8.4884 1.66489 3.90489 0
M  V30 86 C 6.3954 3.96156 4.39107 0
M  V30 87 H 5.3254 0.377276 0.652824 0
M  V30 88 H 7.9764 1.44651 1.12909 0
M  V30 89 H 6.3584 1.27205 3.75013 0
M  V30 90 H 7.5324 3.85499 2.52443 0
M  V30 91 H 5.8474 3.39437 2.41188 0
M  V30 92 H 8.4444 2.14617 4.89738 0
M  V30 93 H 8.7874 0.6222 4.11624 0
M  V30 94 H 9.3204 2.14003 3.35332 0
M  V30 95 H 6.0594 5.00604 4.23174 0
M  V30 96 H 5.5794 3.43617 4.91617 0
M  V30 97 H 7.2584 4.00774 5.07926 0
M  V30 98 N 7.3905 -1.2043 1.01659 0
M  V30 99 C 8.3005 -2.2689 0.596484 0
M  V30 100 C 9.3165 -1.70107 -0.36599 0
M  V30 101 O 10.4925 -2.00117 -0.226942 0
M  V30 102 C 7.5575 -3.4665 -0.0586659 0
M  V30 103 C 6.6185 -4.18662 0.949751 0
M  V30 104 C 5.8515 -5.32705 0.32577 0
M  V30 105 O 6.0745 -5.63656 -0.874509 0
M  V30 106 O 5.0085 -5.92803 1.04249 0
M  V30 107 H 8.8345 -2.65041 1.4828 0
M  V30 108 H 6.4195 -1.27048 0.786082 0
M  V30 109 H 8.3015 -4.19256 -0.424564 0
M  V30 110 H 6.9765 -3.10375 -0.91918 0
M  V30 111 H 5.8835 -3.48229 1.36702 0
M  V30 112 H 7.2165 -4.58878 1.78023 0
M  V30 113 N 8.8686 -0.792821 -1.36206 0
M  V30 114 C 9.8316 -0.199459 -2.2833 0
M  V30 115 C 10.8316 0.605189 -1.48977 0
M  V30 116 O 12.0216 0.425685 -1.68919 0
M  V30 117 C 9.1536 0.723523 -3.33134 0
M  V30 118 H 10.3466 -1.01181 -2.82316 0
M  V30 119 H 7.8996 -0.562485 -1.45828 0
M  V30 120 H 8.6346 1.56008 -2.84309 0
M  V30 121 H 8.4196 0.148436 -3.91819 0
M  V30 122 H 9.9096 1.13344 -4.01924 0
M  V30 123 N 10.3467 1.47872 -0.545128 0
M  V30 124 C 11.7627 1.5829 -0.204032 0
M  V30 125 C 11.9627 1.54529 1.29317 0
M  V30 126 O 11.0187 1.44232 2.07252 0
M  V30 127 C 12.3317 2.89304 -0.819987 0
M  V30 128 C 13.8797 3.02864 -0.790105 0
M  V30 129 C 14.3547 4.3656 -1.38491 0
M  V30 130 N 15.8457 4.43165 -1.34755 0
M  V30 131 C 16.5807 5.45153 -1.77753 0
M  V30 132 N 16.0767 6.54016 -2.2855 0
M  V30 133 N 17.8697 5.36125 -1.68897 0
M  V30 134 H 10.0207 1.4856 -1.51802 0
M  V30 135 H 12.2837 0.706305 -0.632327 0
M  V30 136 H 11.9897 2.97757 -1.87173 0
M  V30 137 H 11.8637 3.75957 -0.305915 0
M  V30 138 H 14.2507 2.94014 0.252913 0
M  V30 139 H 14.3317 2.17782 -1.34181 0
M  V30 140 H 13.9757 4.46164 -2.42693 0
M  V30 141 H 13.9057 5.20353 -0.808754 0
M  V30 142 H 16.3967 3.65083 -0.975855 0
M  V30 143 H 16.7097 7.27994 -2.59314 0
M  V30 144 H 15.0547 6.54938 -2.32553 0
M  V30 145 H 18.2457 4.49975 -1.28998 0
M  V30 146 H 18.4187 6.15472 -2.02726 0
M  V30 147 N 11.8248 0.280983 1.55075 0
M  V30 148 C 13.2408 -0.0729964 1.59433 0
M  V30 149 C 13.4408 -1.5411 1.29817 0
M  V30 150 O 12.4968 -2.29086 1.06187 0
M  V30 151 C 13.8098 0.306921 2.9913 0
M  V30 152 C 15.3578 0.254023 3.11968 0
M  V30 153 C 15.8328 0.608467 4.5394 0
M  V30 154 N 17.3238 0.560241 4.59799 0
M  V30 155 C 18.0588 0.80722 5.6769 0
M  V30 156 N 17.5548 1.11912 6.83701 0
M  V30 157 N 19.3478 0.735623 5.57266 0
M  V30 158 H 11.4988 1.238 1.7259 0
M  V30 159 H 13.7618 0.500547 0.805082 0
M  V30 160 H 13.4678 1.32816 3.25657 0
M  V30 161 H 13.3418 -0.349363 3.75579 0
M  V30 162 H 15.7288 -0.75794 2.852 0
M  V30 163 H 15.8098 0.944649 2.37718 0
M  V30 164 H 15.4538 1.61814 4.81434 0
M  V30 165 H 15.3838 -0.104013 5.26497 0
M  V30 166 H 17.8748 0.329288 3.76463 0
M  V30 167 H 18.1878 1.29409 7.61888 0
M  V30 168 H 16.5328 1.15695 6.85303 0
M  V30 169 H 19.7238 0.491752 4.6551 0
M  V30 170 H 19.8968 0.931482 6.4127 0
M  V30 171 N 13.3029 -1.57598 0.00835791 0
M  V30 172 C 14.2499 -2.08945 -0.980346 0
M  V30 173 C 15.2199 -0.986738 -1.33614 0
M  V30 174 O 16.4049 -1.25968 -1.43306 0
M  V30 175 C 13.5449 -2.60425 -2.26435 0
M  V30 176 C 12.6579 -3.84628 -1.96685 0
M  V30 177 C 11.7929 -4.24579 -3.19228 0
M  V30 178 C 10.8319 -5.41596 -2.85202 0
M  V30 179 N 9.9689 -5.768 -4.00307 0
M  V30 180 H 14.8089 -2.93148 -0.535551 0
M  V30 181 H 12.3459 -1.44912 -0.252776 0
M  V30 182 H 14.3039 -2.88354 -3.01509 0
M  V30 183 H 12.9339 -1.79083 -2.68568 0
M  V30 184 H 11.9859 -3.63556 -1.11942 0
M  V30 185 H 13.2979 -4.69796 -1.67611 0
M  V30 186 H 12.4519 -4.53834 -4.02641 0
M  V30 187 H 11.1909 -3.38137 -3.51447 0
M  V30 188 H 10.1959 -5.12056 -2.00198 0
M  V30 189 H 11.4209 -6.29721 -2.54222 0
M  V30 190 H 9.3669 -4.93316 -4.32407 0
M  V30 191 H 9.2839 -6.5656 -3.74786 0
M  V30 192 H 10.5519 -6.10652 -4.84484 0
M  V30 193 N 14.781 0.264519 -1.55364 0
M  V30 194 C 15.691 1.34902 -1.91934 0
M  V30 195 C 16.707 1.53595 -0.817593 0
M  V30 196 O 17.883 1.67558 -1.11742 0
M  V30 197 C 14.948 2.68676 -2.19121 0
M  V30 198 C 14.009 2.58657 -3.4263 0
M  V30 199 C 13.242 3.86051 -3.68511 0
M  V30 200 O 13.465 4.87126 -2.96757 0
M  V30 201 O 12.399 3.85744 -4.62045 0
M  V30 202 H 16.225 1.06883 -2.8427 0
M  V30 203 H 13.81 0.463775 -1.42019 0
M  V30 204 H 15.692 3.47759 -2.37995 0
M  V30 205 H 14.367 2.96463 -1.29966 0
M  V30 206 H 13.274 1.7792 -3.29082 0
M  V30 207 H 14.607 2.35818 -4.32031 0
M  V30 208 N 16.2591 1.48442 0.529413 0
M  V30 209 C 17.5061 1.56488 1.28521 0
M  V30 210 C 17.8341 0.239042 1.93025 0
M  V30 211 O 17.0891 -0.770713 1.79885 0
M  V30 212 C 17.3881 2.6523 2.39558 0
M  V30 213 C 17.0541 4.07648 1.92702 0
M  V30 214 C 15.7161 4.46411 1.79641 0
M  V30 215 C 18.0681 4.96896 1.573 0
M  V30 216 C 15.3961 5.72226 1.29514 0
M  V30 217 C 17.7481 6.23202 1.08636 0
M  V30 218 C 16.4121 6.60821 0.941919 0
M  V30 219 H 15.6821 0.572631 0.470292 0
M  V30 220 H 18.3291 1.82161 0.59072 0
M  V30 221 H 16.6341 2.33419 3.14679 0
M  V30 222 H 18.3311 2.68671 2.97686 0
M  V30 223 H 14.9211 3.77036 2.03819 0
M  V30 224 H 19.1051 4.67626 1.66251 0
M  V30 225 H 14.3611 6.00097 1.17019 0
M  V30 226 H 18.5351 6.91753 0.803136 0
M  V30 227 H 16.1621 7.58198 0.5513 0
M  V30 228 N 17.7372 -0.778329 1.37039 0
M  V30 229 C 18.6842 -1.89139 1.32269 0
M  V30 230 C 19.6542 -1.65017 0.189387 0
M  V30 231 O 20.8392 -1.87024 0.377693 0
M  V30 232 C 17.9792 -3.26112 1.12894 0
M  V30 233 C 17.0922 -3.62233 2.35396 0
M  V30 234 C 16.2272 -4.8838 2.08946 0
M  V30 235 C 15.2662 -5.17212 3.2735 0
M  V30 236 N 14.4032 -6.34546 3.00492 0
M  V30 237 H 19.2432 -1.92552 2.27437 0
M  V30 238 H 16.7802 -0.941473 1.13025 0
M  V30 239 H 18.7382 -4.05116 0.996835 0
M  V30 240 H 17.3682 -3.22091 0.213758 0
M  V30 241 H 16.4202 -2.78265 2.5937 0
M  V30 242 H 17.7322 -3.79481 3.23721 0
M  V30 243 H 16.8862 -5.75274 1.92729 0
M  V30 244 H 15.6252 -4.73222 1.17949 0
M  V30 245 H 14.6302 -4.28796 3.44113 0
M  V30 246 H 15.8552 -5.34283 4.19188 0
M  V30 247 H 13.8012 -6.20759 2.12118 0
M  V30 248 H 13.7182 -6.52179 3.82358 0
M  V30 249 H 14.9862 -7.24394 2.87879 0
M  V30 250 N 19.2153 -1.21501 -1.00376 0
M  V30 251 C 20.1623 -0.975387 -2.09177 0
M  V30 252 C 21.1323 0.0990615 -1.65804 0
M  V30 253 O 22.3173 -0.0483147 -1.90739 0
M  V30 254 C 19.4573 -0.547507 -3.40729 0
M  V30 255 C 18.5703 -1.69153 -3.97506 0
M  V30 256 C 17.7053 -1.2127 -5.17172 0
M  V30 257 C 16.7443 -2.32897 -5.66061 0
M  V30 258 N 15.8813 -1.86138 -6.76976 0
M  V30 259 H 20.7213 -1.9068 -2.29009 0
M  V30 260 H 18.2583 -0.950257 -1.12288 0
M  V30 261 H 20.2163 -0.280667 -4.16255 0
M  V30 262 H 18.8463 0.346904 -3.20931 0
M  V30 263 H 17.8983 -2.07298 -3.18954 0
M  V30 264 H 19.2103 -2.5316 -4.29781 0
M  V30 265 H 18.3643 -0.902591 -5.99948 0
M  V30 266 H 17.1033 -0.342692 -4.86495 0
M  V30 267 H 16.1083 -2.64709 -4.81881 0
M  V30 268 H 17.3333 -3.20396 -5.98768 0
M  V30 269 H 15.2793 -1.01484 -6.48103 0
M  V30 270 H 15.1963 -2.63717 -7.08512 0
M  V30 271 H 16.4643 -1.58165 -7.63285 0
M  V30 272 N 20.6934 1.19889 -1.02296 0
M  V30 273 C 21.6414 2.24938 -0.592081 0
M  V30 274 C 22.6354 1.65257 0.372357 0
M  V30 275 O 23.8414 1.78371 0.241583 0
M  V30 276 H 20.2164 0.731787 -0.173182 0
M  V30 277 H 22.1874 2.58603 -1.48885 0
M  V30 278 C 20.9364 3.47668 0.047351 0
M  V30 279 H 20.2594 3.93875 -0.685772 0
M  V30 280 H 21.6994 4.22852 0.311862 0
M  V30 281 C 20.1584 3.11136 1.29212 0
M  V30 282 O 20.6884 3.2325 2.38479 0
M  V30 283 N 18.8944 2.65625 1.17863 0
M  V30 284 H 18.4414 2.55968 0.289493 0
M  V30 285 H 18.3994 2.41553 2.01245 0
M  V30 286 N 22.1715 0.800033 1.35784 0
M  V30 287 C 23.4115 0.382891 2.00782 0
M  V30 288 C 23.7755 -1.02891 1.62103 0
M  V30 289 O 24.9765 -1.54771 2.19771 0
M  V30 290 C 23.2475 0.553299 3.53091 0
M  V30 291 S 24.8065 0.225608 4.3822 0
M  V30 292 H 21.6245 0.145737 0.695904 0
M  V30 293 H 24.2265 1.04085 1.65489 0
M  V30 294 H 22.9305 1.58091 3.78729 0
M  V30 295 H 22.4615 -0.120214 3.93216 0
M  V30 296 H 24.4765 -0.969074 4.86645 0
M  V30 297 N 23.6496 -1.47581 0.552962 0
M  V30 298 C 24.9266 -1.95563 -0.0381515 0
M  V30 299 C 25.3066 -1.49552 -1.48988 0
M  V30 300 O 24.6546 -0.732414 -2.16444 0
M  V30 301 C 24.8646 -3.48848 0.102919 0
M  V30 302 C 26.2126 -4.24577 -0.0446082 0
M  V30 303 O 27.2366 -3.56187 0.0302548 0
M  V30 304 O 26.0956 -5.46116 -0.204923 0
M  V30 305 H 23.1896 -0.824321 -0.0665067 0
M  V30 306 H 25.7356 -1.58001 0.619186 0
M  V30 307 H 24.5076 -3.75129 1.11328 0
M  V30 308 H 24.1306 -3.93165 -0.592224 0
M  V30 309 N 25.1277 -0.289203 -1.54924 0
M  V30 310 C 26.4047 0.376032 -1.91951 0
M  V30 311 C 26.7847 1.72622 -1.21511 0
M  V30 312 O 26.1327 2.25853 -0.346767 0
M  V30 313 C 26.3427 0.502378 -3.45365 0
M  V30 314 C 27.6907 0.778741 -4.17398 0
M  V30 315 O 28.7147 0.586647 -3.51336 0
M  V30 316 O 27.5737 1.14698 -5.34328 0
M  V30 317 H 24.6677 0.208167 -0.800372 0
M  V30 318 H 27.2137 -0.336394 -1.66332 0
M  V30 319 H 25.9857 -0.447255 -3.88736 0
M  V30 320 H 25.6087 1.26373 -3.76982 0
M  V30 321 N 26.6058 1.57591 -0.0167156 0
M  V30 322 C 27.8338 1.95575 0.675128 0
M  V30 323 C 28.2488 0.892542 1.6637 0
M  V30 324 O 27.6058 -0.126912 1.82058 0
M  V30 325 C 27.6568 3.33608 1.39239 0
M  V30 326 O 27.3778 4.3585 0.443444 0
M  V30 327 C 28.8788 3.86151 2.17721 0
M  V30 328 H 26.0988 0.644423 0.186978 0
M  V30 329 H 28.6428 2.0437 -0.0728 0
M  V30 330 H 26.7978 3.2607 2.09182 0
M  V30 331 H 27.2118 5.158 0.951358 0
M  V30 332 H 28.6858 4.85114 2.63379 0
M  V30 333 H 29.1628 3.19738 3.01105 0
M  V30 334 H 29.7688 3.96918 1.52761 0
M  V30 335 N 28.0839 -0.256276 1.55502 0
M  V30 336 C 29.4999 -0.604325 1.47716 0
M  V30 337 C 29.6999 -1.88763 0.705039 0
M  V30 338 O 28.7559 -2.51445 0.230613 0
M  V30 339 C 30.0689 -0.715756 2.92057 0
M  V30 340 C 31.6169 -0.808706 3.02372 0
M  V30 341 C 32.0919 -0.951777 4.48001 0
M  V30 342 N 33.5829 -1.01688 4.519 0
M  V30 343 C 34.3179 -1.14668 5.61817 0
M  V30 344 N 33.8139 -1.24261 6.81565 0
M  V30 345 N 35.6069 -1.1791 5.49594 0
M  V30 346 H 27.7579 0.586291 2.04148 0
M  V30 347 H 30.0209 0.201015 0.926443 0
M  V30 348 H 29.7269 0.157027 3.51349 0
M  V30 349 H 29.6009 -1.59071 3.42018 0
M  V30 350 H 31.9879 -1.67195 2.43166 0
M  V30 351 H 32.0689 0.0912063 2.55637 0
M  V30 352 H 31.7129 -0.0931291 5.07815 0
M  V30 353 H 31.6429 -1.86659 4.92408 0
M  V30 354 H 34.1339 -0.954468 3.65648 0
M  V30 355 H 34.4469 -1.34046 7.61086 0
M  V30 356 H 32.7919 -1.21236 6.84344 0
M  V30 357 H 35.9829 -1.10057 4.54978 0
M  V30 358 H 36.1559 -1.27681 6.35296 0
M  V30 359 N 29.562 -1.4872 -0.521534 0
M  V30 360 C 30.978 -1.35028 -0.850855 0
M  V30 361 C 31.178 -0.367712 -1.98116 0
M  V30 362 O 30.234 0.208037 -2.51642 0
M  V30 363 C 31.547 -2.75263 -1.21041 0
M  V30 364 C 33.095 -2.83813 -1.31981 0
M  V30 365 C 33.57 -4.24769 -1.71276 0
M  V30 366 N 35.061 -4.27482 -1.78363 0
M  V30 367 C 35.796 -5.33494 -2.1017 0
M  V30 368 N 35.292 -6.49775 -2.40343 0
M  V30 369 N 37.085 -5.20894 -2.11248 0
M  V30 370 H 29.236 -2.11214 0.22413 0
M  V30 371 H 31.499 -0.947252 0.0376439 0
M  V30 372 H 31.205 -3.48765 -0.453415 0
M  V30 373 H 31.079 -3.09327 -2.15863 0
M  V30 374 H 33.466 -2.10561 -2.06756 0
M  V30 375 H 33.547 -2.53358 -0.352596 0
M  V30 376 H 33.191 -4.9854 -0.970588 0
M  V30 377 H 33.121 -4.52673 -2.69062 0
M  V30 378 H 35.612 -3.43611 -1.57288 0
M  V30 379 H 35.925 -7.26402 -2.63743 0
M  V30 380 H 34.27 -6.53035 -2.37844 0
M  V30 381 H 37.461 -4.29065 -1.87139 0
M  V30 382 H 37.634 -6.03612 -2.35704 0
M  V30 383 N 31.0401 0.771051 -1.3745 0
M  V30 384 C 31.9871 1.88435 -1.3327 0
M  V30 385 C 32.9571 1.64914 -0.198136 0
M  V30 386 O 34.1421 1.86821 -0.387606 0
M  V30 387 C 31.2821 3.25509 -1.14622 0
M  V30 388 C 30.3951 3.60979 -2.37314 0
M  V30 389 C 29.5301 4.87265 -2.11533 0
M  V30 390 C 28.5691 5.15469 -3.30088 0
M  V30 391 N 27.7061 6.32944 -3.03853 0
M  V30 392 H 32.5461 1.91344 -2.28455 0
M  V30 393 H 30.0831 0.935466 -1.13523 0
M  V30 394 H 32.0411 4.04582 -1.01831 0
M  V30 395 H 30.6711 3.21974 -0.230837 0
M  V30 396 H 29.7231 2.76885 -2.60842 0
M  V30 397 H 31.0351 3.77759 -3.25729 0
M  V30 398 H 30.1891 5.74244 -1.95777 0
M  V30 399 H 28.9281 4.7259 -1.20457 0
M  V30 400 H 27.9331 4.26966 -3.46382 0
M  V30 401 H 29.1581 5.32052 -4.22016 0
M  V30 402 H 27.1041 6.19625 -2.15407 0
M  V30 403 H 27.0211 6.50143 -3.85812 0
M  V30 404 H 28.2891 7.22857 -2.91716 0
M  V30 405 N 32.5182 1.22032 0.997298 0
M  V30 406 C 33.9342 0.979326 1.26021 0
M  V30 407 C 34.1342 -0.32972 1.98784 0
M  V30 408 O 33.1902 -1.05345 2.29475 0
M  V30 409 C 34.5032 2.17509 2.07631 0
M  V30 410 C 36.0512 2.21817 2.2083 0
M  V30 411 C 36.5262 3.40933 3.05825 0
M  V30 412 N 38.0172 3.41067 3.13412 0
M  V30 413 C 38.7522 4.29885 3.79455 0
M  V30 414 N 38.2482 5.28914 4.47462 0
M  V30 415 N 40.0412 4.17673 3.76173 0
M  V30 416 H 32.1922 2.06202 0.509352 0
M  V30 417 H 34.4552 0.90334 0.287541 0
M  V30 418 H 34.1612 3.12415 1.61524 0
M  V30 419 H 34.0352 2.17206 3.08385 0
M  V30 420 H 36.4222 1.27462 2.66153 0
M  V30 421 H 36.5032 2.2616 1.1952 0
M  V30 422 H 36.1472 4.35586 2.61203 0
M  V30 423 H 36.0772 3.33829 4.07266 0
M  V30 424 H 38.5682 2.69406 2.65007 0
M  V30 425 H 38.8812 5.92973 4.95583 0
M  V30 426 H 37.2262 5.32831 4.46224 0
M  V30 427 H 40.4172 3.39564 3.22202 0
M  V30 428 H 40.5902 4.87098 4.27363 0
M  V30 429 N 33.9963 -1.19345 1.0293 0
M  V30 430 C 34.9063 -2.26245 0.620515 0
M  V30 431 C 35.9223 -1.70486 -0.347928 0
M  V30 432 O 37.0983 -2.00347 -0.205704 0
M  V30 433 C 34.1633 -3.46693 -0.0218957 0
M  V30 434 C 33.2243 -4.17632 0.994102 0
M  V30 435 C 32.4573 -5.32329 0.382253 0
M  V30 436 O 32.6803 -5.64552 -0.814676 0
M  V30 437 O 31.6143 -5.91664 1.10531 0
M  V30 438 H 35.4403 -2.63453 1.51083 0
M  V30 439 H 33.0253 -1.26207 0.799513 0
M  V30 440 H 34.9073 -4.19683 -0.380072 0
M  V30 441 H 33.5823 -3.11333 -0.886209 0
M  V30 442 H 32.4893 -3.4676 1.40387 0
M  V30 443 H 33.8223 -4.56964 1.8288 0
M  V30 444 N 35.4744 -0.807222 -1.35358 0
M  V30 445 C 36.7514 -0.311126 -1.9311 0
M  V30 446 C 37.1314 1.19937 -1.73719 0
M  V30 447 O 36.4794 1.99918 -1.10657 0
M  V30 448 C 36.6894 -0.723226 -3.41424 0
M  V30 449 C 38.0374 -0.713078 -4.18569 0
M  V30 450 O 39.0614 -0.664811 -3.49941 0
M  V30 451 O 37.9204 -0.772022 -5.41019 0
M  V30 452 H 35.0144 -0.081526 -0.822972 0
M  V30 453 H 37.5604 -0.890962 -1.4443 0
M  V30 454 H 36.3324 -1.76426 -3.4927 0
M  V30 455 H 35.9554 -0.118232 -3.97424 0
M  V30 456 N 36.9525 1.47285 -0.560781 0
M  V30 457 C 37.8825 2.32857 0.173105 0
M  V30 458 C 38.8635 1.44009 0.905281 0
M  V30 459 O 40.0485 1.7286 0.885046 0
M  V30 460 C 37.1785 3.25861 1.20133 0
M  V30 461 C 36.1325 4.23978 0.585388 0
M  V30 462 C 35.4585 5.06332 1.7185 0
M  V30 463 C 36.7585 5.20242 -0.463178 0
M  V30 464 H 38.4525 2.94466 -0.541307 0
M  V30 465 H 35.9985 1.41601 -0.261764 0
M  V30 466 H 37.9515 3.84569 1.72293 0
M  V30 467 H 36.6755 2.62315 1.94573 0
M  V30 468 H 35.3345 3.66501 0.085054 0
M  V30 469 H 34.9825 4.39186 2.45203 0
M  V30 470 H 34.6825 5.72762 1.31213 0
M  V30 471 H 36.2065 5.67899 2.24329 0
M  V30 472 H 37.6205 5.73293 -0.027502 0
M  V30 473 H 36.0175 5.94896 -0.788627 0
M  V30 474 H 37.0875 4.65504 -1.35773 0
M  V30 475 N 38.4306 0.297415 1.54768 0
M  V30 476 C 39.6766 -0.313376 2.00364 0
M  V30 477 C 40.0096 -1.53815 1.18553 0
M  V30 478 O 39.2846 -1.92739 0.261103 0
M  V30 479 C 39.5676 -0.673525 3.53745 0
M  V30 480 C 39.4206 0.560133 4.46299 0
M  V30 481 C 40.7396 -1.50143 4.13697 0
M  V30 482 H 37.8586 -0.112428 0.728374 0
M  V30 483 H 40.5006 0.4088 1.8555 0
M  V30 484 H 38.6506 -1.28881 3.665 0
M  V30 485 H 40.3226 1.19863 4.45455 0
M  V30 486 H 38.5656 1.19405 4.17043 0
M  V30 487 H 39.2366 0.26405 5.51368 0
M  V30 488 H 41.7126 -0.981588 4.04356 0
M  V30 489 H 40.5886 -1.72221 5.21182 0
M  V30 490 H 40.8496 -2.48952 3.65343 0
M  V30 491 N 39.9087 -1.5758 0.0250728 0
M  V30 492 C 41.1547 -1.91917 -0.655413 0
M  V30 493 C 41.4877 -0.901433 -1.72011 0
M  V30 494 O 40.7627 0.0764069 -1.9435 0
M  V30 495 C 41.0457 -3.36751 -1.27558 0
M  V30 496 C 40.8987 -4.49258 -0.220719 0
M  V30 497 C 42.2177 -3.81469 -2.19475 0
M  V30 498 H 39.3367 -0.697925 -0.23679 0
M  V30 499 H 41.9787 -1.89825 0.0815036 0
M  V30 500 H 40.1287 -3.38664 -1.90365 0
M  V30 501 H 41.8007 -4.59478 0.409601 0
M  V30 502 H 40.0437 -4.31415 0.454264 0
M  V30 503 H 40.7147 -5.47618 -0.694175 0
M  V30 504 H 43.1907 -3.81266 -1.66659 0
M  V30 505 H 42.0667 -4.83512 -2.59822 0
M  V30 506 H 42.3277 -3.16744 -3.08424 0
M  V30 507 N 41.3868 0.248026 -1.55636 0
M  V30 508 C 42.3188 1.32993 -1.8667 0
M  V30 509 C 43.3318 1.44345 -0.752877 0
M  V30 510 O 44.5208 1.45715 -1.03098 0
M  V30 511 C 41.6208 2.70863 -2.03682 0
M  V30 512 C 40.7938 2.81792 -3.34532 0
M  V30 513 C 39.8528 4.005 -3.41301 0
M  V30 514 O 38.8788 3.9008 -4.14519 0
M  V30 515 N 40.0808 5.13618 -2.70512 0
M  V30 516 H 42.8458 1.06707 -2.8006 0
M  V30 517 H 40.4068 0.438129 -1.55859 0
M  V30 518 H 42.3988 3.48612 -2.05553 0
M  V30 519 H 40.9688 2.89862 -1.17041 0
M  V30 520 H 40.1888 1.90729 -3.44987 0
M  V30 521 H 41.4768 2.86043 -4.20781 0
M  V30 522 H 40.8748 5.24975 -2.10755 0
M  V30 523 H 39.4318 5.89505 -2.78077 0
M  V30 524 N 42.8649 1.48995 0.513639 0
M  V30 525 C 44.1139 1.57093 1.2651 0
M  V30 526 C 44.4269 0.257091 1.93903 0
M  V30 527 O 45.6329 0.216478 2.70636 0
M  V30 528 C 44.0889 2.77118 2.29638 0
M  V30 529 C 43.6969 4.15209 1.68241 0
M  V30 530 C 45.4409 2.94538 3.05692 0
M  V30 531 C 43.3479 5.26474 2.69406 0
M  V30 532 H 42.2779 0.584876 0.475854 0
M  V30 533 H 44.9289 1.7536 0.540487 0
M  V30 534 H 43.3109 2.52319 3.05207 0
M  V30 535 H 44.4849 4.50094 0.987505 0
M  V30 536 H 42.7999 4.03042 1.04623 0
M  V30 537 H 45.3969 3.74832 3.8132 0
M  V30 538 H 45.7399 2.04614 3.62545 0
M  V30 539 H 46.2729 3.19316 2.37238 0
M  V30 540 H 43.0119 6.18417 2.17351 0
M  V30 541 H 42.5319 4.96058 3.37175 0
M  V30 542 H 44.2109 5.55277 3.32078 0
M  V30 543 N 44.343 -0.763751 1.37857 0
M  V30 544 C 45.759 -1.06542 1.18832 0
M  V30 545 C 45.959 -2.01478 0.0299722 0
M  V30 546 O 45.015 -2.4458 -0.627447 0
M  V30 547 C 46.328 -1.65525 2.51042 0
M  V30 548 C 47.876 -1.77745 2.57635 0
M  V30 549 C 48.351 -2.4014 3.89996 0
M  V30 550 N 49.842 -2.47582 3.91481 0
M  V30 551 C 50.577 -2.96732 4.9065 0
M  V30 552 N 50.073 -3.45993 6.00217 0
M  V30 553 N 51.866 -2.95679 4.78048 0
M  V30 554 H 44.017 -0.133556 2.1198 0
M  V30 555 H 46.28 -0.121879 0.940133 0
M  V30 556 H 45.986 -1.03236 3.36207 0
M  V30 557 H 45.86 -2.64719 2.68707 0
M  V30 558 H 48.247 -2.39164 1.72872 0
M  V30 559 H 48.328 -0.772836 2.43846 0
M  V30 560 H 47.972 -1.79358 4.75177 0
M  V30 561 H 47.902 -3.41223 4.01092 0
M  V30 562 H 50.393 -2.1273 3.12337 0
M  V30 563 H 50.706 -3.81922 6.7183 0
M  V30 564 H 49.051 -3.44077 6.03851 0
M  V30 565 H 52.242 -2.56499 3.91568 0
M  V30 566 H 52.415 -3.33672 5.55488 0
M  V30 567 N 45.8211 -1.22559 -0.990812 0
M  V30 568 C 46.7681 -0.997519 -2.0813 0
M  V30 569 C 47.7381 0.0814702 -1.659 0
M  V30 570 O 48.9231 -0.0685424 -1.90677 0
M  V30 571 C 46.0631 -0.583615 -3.40129 0
M  V30 572 C 45.1761 -1.7336 -3.9569 0
M  V30 573 C 44.3111 -1.26748 -5.15857 0
M  V30 574 C 43.3501 -2.38888 -5.63559 0
M  V30 575 N 42.4871 -1.93308 -6.74964 0
M  V30 576 H 47.3271 -1.93099 -2.26973 0
M  V30 577 H 44.8641 -0.962114 -1.11273 0
M  V30 578 H 46.8221 -0.324801 -4.15934 0
M  V30 579 H 45.4521 0.312845 -3.2128 0
M  V30 580 H 44.5041 -2.10669 -3.16738 0
M  V30 581 H 45.8161 -2.57704 -4.27071 0
M  V30 582 H 44.9701 -0.966173 -5.98957 0
M  V30 583 H 43.7091 -0.394272 -4.86104 0
M  V30 584 H 42.7141 -2.69805 -4.79046 0
M  V30 585 H 43.9391 -3.26728 -5.95336 0
M  V30 586 H 41.8851 -1.08352 -6.4699 0
M  V30 587 H 41.8021 -2.71217 -7.05675 0
M  V30 588 H 43.0701 -1.66252 -7.61564 0
M  V30 589 N 47.2992 1.18797 -1.03562 0
M  V30 590 C 48.2312 2.21731 -0.580337 0
M  V30 591 C 49.2442 1.59051 0.347349 0
M  V30 592 O 50.4332 1.77929 0.142669 0
M  V30 593 C 47.5332 3.38459 0.172805 0
M  V30 594 C 46.7062 4.3072 -0.761496 0
M  V30 595 C 45.7652 5.26174 -0.0525547 0
M  V30 596 O 44.7912 5.65108 -0.681333 0
M  V30 597 N 45.9932 5.67624 1.21586 0
M  V30 598 H 48.7582 2.61417 -1.46565 0
M  V30 599 H 46.3192 1.33531 -0.915476 0
M  V30 600 H 48.3112 3.99335 0.656793 0
M  V30 601 H 46.8812 2.97507 0.959602 0
M  V30 602 H 46.1012 3.67525 -1.42544 0
M  V30 603 H 47.3892 4.89267 -1.39626 0
M  V30 604 H 46.7872 5.38038 1.74732 0
M  V30 605 H 45.3442 6.30721 1.64421 0
M  V30 606 N 48.7773 0.814389 1.34928 0
M  V30 607 C 49.7093 0.187834 2.28429 0
M  V30 608 C 50.7223 -0.617374 1.5064 0
M  V30 609 O 51.9113 -0.448454 1.72775 0
M  V30 610 C 49.0113 -0.755962 3.30361 0
M  V30 611 C 48.1843 0.00456686 4.374 0
M  V30 612 C 47.2433 -0.858876 5.19143 0
M  V30 613 O 46.2693 -0.306968 5.68372 0
M  V30 614 N 47.4713 -2.17988 5.38016 0
M  V30 615 H 50.2363 0.991105 2.82838 0
M  V30 616 H 47.7973 0.670561 1.4736 0
M  V30 617 H 49.7893 -1.338 3.81942 0
M  V30 618 H 48.3593 -1.46001 2.7641 0
M  V30 619 H 47.5793 0.767865 3.86649 0
M  V30 620 H 48.8673 0.528422 5.06049 0
M  V30 621 H 48.2653 -2.65212 4.99679 0
M  V30 622 H 46.8223 -2.71098 5.92747 0
M  V30 623 N 50.2554 -1.46986 0.568584 0
M  V30 624 C 51.6714 -1.57946 0.229189 0
M  V30 625 C 51.8714 -1.56567 -1.26843 0
M  V30 626 O 50.9274 -1.47511 -2.04931 0
M  V30 627 C 52.2404 -2.87963 0.865909 0
M  V30 628 C 53.7884 -3.01568 0.838188 0
M  V30 629 C 54.2634 -4.34301 1.45419 0
M  V30 630 N 55.7544 -4.40965 1.41788 0
M  V30 631 C 56.4894 -5.42256 1.86403 0
M  V30 632 N 55.9854 -6.50297 2.38926 0
M  V30 633 N 57.7784 -5.3337 1.77405 0
M  V30 634 H 49.9294 -1.46126 1.54146 0
M  V30 635 H 52.1924 -0.696156 0.643484 0
M  V30 636 H 51.8984 -2.94742 1.91886 0
M  V30 637 H 51.7724 -3.75423 0.365687 0
M  V30 638 H 54.1594 -2.94379 -0.206106 0
M  V30 639 H 54.2404 -2.1562 1.37629 0
M  V30 640 H 53.8844 -4.42247 2.49761 0
M  V30 641 H 53.8144 -5.19 0.891435 0
M  V30 642 H 56.3054 -3.63484 1.03381 0
M  V30 643 H 56.6184 -7.23777 2.70863 0
M  V30 644 H 54.9634 -6.51155 2.42944 0
M  V30 645 H 58.1544 -4.47865 1.3614 0
M  V30 646 H 58.3274 -6.12169 2.12492 0
M  V30 647 N 51.7335 -0.305618 -1.54608 0
M  V30 648 C 52.6435 0.57778 -2.27374 0
M  V30 649 C 53.6595 1.14451 -1.31061 0
M  V30 650 O 54.8355 1.16831 -1.6405 0
M  V30 651 C 51.9005 1.73123 -3.00382 0
M  V30 652 C 50.9615 1.19812 -4.12242 0
M  V30 653 C 50.1945 2.2966 -4.81759 0
M  V30 654 O 50.4175 3.49651 -4.50666 0
M  V30 655 O 49.3515 1.96091 -5.69062 0
M  V30 656 H 53.1775 -0.012624 -3.03697 0
M  V30 657 H 50.7625 -0.0719184 -1.49227 0
M  V30 658 H 52.6445 2.40315 -3.4616 0
M  V30 659 H 51.3195 2.30815 -2.26949 0
M  V30 660 H 50.2265 0.491798 -3.70853 0
M  V30 661 H 51.5595 0.666566 -4.87666 0
M  V30 662 N 53.2116 1.57565 -0.0334293 0
M  V30 663 C 54.4516 1.93844 0.648379 0
M  V30 664 C 54.8156 0.910387 1.69044 0
M  V30 665 O 56.0166 1.15952 2.42505 0
M  V30 666 C 54.2876 3.35017 1.24492 0
M  V30 667 S 55.8466 3.93229 1.94721 0
M  V30 668 H 52.6646 0.678231 0.213364 0
M  V30 669 H 55.2666 1.95254 -0.0981253 0
M  V30 670 H 53.9706 4.07652 0.474128 0
M  V30 671 H 53.5016 3.37061 2.02864 0
M  V30 672 H 55.5166 3.77014 3.22606 0
M  V30 673 N 54.6897 -0.239769 1.55765 0
M  V30 674 C 55.6217 -1.32001 1.87372 0
M  V30 675 C 56.6347 -1.43944 0.760522 0
M  V30 676 O 57.8237 -1.45167 1.0387 0
M  V30 677 C 54.9237 -2.69779 2.05115 0
M  V30 678 C 54.0967 -2.80014 3.36022 0
M  V30 679 C 53.1557 -3.98684 3.4342 0
M  V30 680 O 52.1817 -3.87877 4.16582 0
M  V30 681 N 53.3837 -5.12176 2.73232 0
M  V30 682 H 56.1487 -1.0522 2.80622 0
M  V30 683 H 53.7097 -0.429857 1.56089 0
M  V30 684 H 55.7017 -3.47517 2.07399 0
M  V30 685 H 54.2717 -2.89237 1.18577 0
M  V30 686 H 53.4917 -1.88896 3.45994 0
M  V30 687 H 54.7797 -2.83808 4.22292 0
M  V30 688 H 54.1777 -5.2385 2.13536 0
M  V30 689 H 52.7347 -5.88022 2.81199 0
M  V30 690 N 56.1678 -1.49265 -0.50573 0
M  V30 691 C 57.0978 -1.68495 -1.61653 0
M  V30 692 C 58.0788 -0.53366 -1.61512 0
M  V30 693 O 59.2638 -0.76897 -1.78327 0
M  V30 694 C 56.3938 -1.74709 -3.00157 0
M  V30 695 C 55.3478 -2.89581 -3.15162 0
M  V30 696 C 54.6738 -2.80903 -4.5497 0
M  V30 697 C 55.9738 -4.30578 -2.95634 0
M  V30 698 H 57.6678 -2.61493 -1.45814 0
M  V30 699 H 55.2138 -1.25838 -0.70005 0
M  V30 700 H 57.1668 -1.86748 -3.77761 0
M  V30 701 H 55.8908 -0.783067 -3.17074 0
M  V30 702 H 54.5498 -2.77136 -2.39982 0
M  V30 703 H 54.1978 -1.82419 -4.68756 0
M  V30 704 H 53.8978 -3.57999 -4.65951 0
M  V30 705 H 55.4218 -2.94944 -5.34641 0
M  V30 706 H 56.8358 -4.4373 -3.63011 0
M  V30 707 H 55.2328 -5.0886 -3.18091 0
M  V30 708 H 56.3028 -4.45352 -1.91806 0
M  V30 709 N 57.6459 0.756429 -1.3826 0
M  V30 710 C 58.5559 1.9009 -1.37488 0
M  V30 711 C 59.5719 1.71855 -0.272366 0
M  V30 712 O 60.7479 1.94827 -0.510318 0
M  V30 713 C 57.8129 3.25421 -1.19592 0
M  V30 714 C 56.8739 3.56202 -2.39622 0
M  V30 715 C 56.1069 4.85075 -2.2257 0
M  V30 716 O 56.3299 5.57246 -1.21793 0
M  V30 717 O 55.2639 5.15269 -3.11098 0
M  V30 718 H 59.0899 1.93695 -2.33914 0
M  V30 719 H 56.6749 0.901313 -1.1915 0
M  V30 720 H 58.5569 4.06337 -1.11661 0
M  V30 721 H 57.2319 3.22634 -0.262486 0
M  V30 722 H 56.1389 2.75458 -2.53128 0
M  V30 723 H 57.4719 3.63747 -3.31586 0
M  V30 724 N 59.124 1.23083 0.984299 0
M  V30 725 C 60.349 1.088 1.76571 0
M  V30 726 C 60.774 -0.356657 1.84688 0
M  V30 727 O 60.132 -1.25788 1.30565 0
M  V30 728 C 60.18 1.71371 3.17277 0
M  V30 729 O 59.284 0.973213 4.00752 0
M  V30 730 H 58.625 0.381599 0.543395 0
M  V30 731 H 61.155 1.63057 1.23587 0
M  V30 732 H 61.165 1.76449 3.67872 0
M  V30 733 H 59.84 2.76493 3.10684 0
M  V30 734 H 58.417 0.999078 3.59267 0
M  V30 735 N 60.6021 -1.18246 1.0419 0
M  V30 736 C 61.5491 -2.2192 0.634037 0
M  V30 737 C 62.5191 -1.62179 -0.358765 0
M  V30 738 O 63.7041 -1.89122 -0.252466 0
M  V30 739 C 60.8441 -3.451 0.00445535 0
M  V30 740 C 59.9571 -4.19174 1.04487 0
M  V30 741 C 59.0921 -5.29813 0.383676 0
M  V30 742 C 58.1311 -5.9566 1.4091 0
M  V30 743 N 57.2681 -6.97834 0.772784 0
M  V30 744 H 62.1081 -2.56164 1.52263 0
M  V30 745 H 59.6451 -1.25843 0.761701 0
M  V30 746 H 61.6031 -4.15485 -0.377919 0
M  V30 747 H 60.2331 -3.11472 -0.847652 0
M  V30 748 H 59.2851 -3.47604 1.54518 0
M  V30 749 H 60.5971 -4.64267 1.82368 0
M  V30 750 H 59.7511 -6.06677 -0.0528366 0
M  V30 751 H 58.4901 -4.85825 -0.427208 0
M  V30 752 H 57.4951 -5.17535 1.85574 0
M  V30 753 H 58.7201 -6.4173 2.22171 0
M  V30 754 H 56.6661 -6.55998 -0.0177708 0
M  V30 755 H 56.5831 -7.41186 1.48928 0
M  V30 756 H 57.8511 -7.78665 0.36071 0
M  V30 757 N 62.0802 -0.821533 -1.34494 0
M  V30 758 C 63.4962 -0.507117 -1.51329 0
M  V30 759 C 63.6962 0.968964 -1.76673 0
M  V30 760 O 62.7522 1.75348 -1.81685 0
M  V30 761 C 64.0652 -1.36544 -2.67911 0
M  V30 762 C 65.6132 -1.36242 -2.81793 0
M  V30 763 C 66.0882 -2.2052 -4.01416 0
M  V30 764 N 67.5792 -2.18136 -4.08621 0
M  V30 765 C 68.3142 -2.80095 -5.00334 0
M  V30 766 N 67.8102 -3.51039 -5.9728 0
M  V30 767 N 69.6032 -2.69656 -4.93196 0
M  V30 768 H 61.7542 -1.77729 -1.16302 0
M  V30 769 H 64.0172 -0.757291 -0.570276 0
M  V30 770 H 63.7232 -2.41361 -2.55808 0
M  V30 771 H 63.5972 -1.02917 -3.62888 0
M  V30 772 H 65.9842 -0.322041 -2.93338 0
M  V30 773 H 66.0652 -1.73866 -1.87628 0
M  V30 774 H 65.7092 -3.24607 -3.90631 0
M  V30 775 H 65.6392 -1.80247 -4.94791 0
M  V30 776 H 68.1302 -1.6653 -3.39229 0
M  V30 777 H 68.4432 -3.95565 -6.63889 0
M  V30 778 H 66.7882 -3.55145 -5.97409 0
M  V30 779 H 69.9792 -2.13808 -4.16418 0
M  V30 780 H 70.1522 -3.1823 -5.64476 0
M  V30 781 N 63.5583 1.46682 -0.576371 0
M  V30 782 C 64.5213 2.28707 0.150239 0
M  V30 783 C 65.5213 1.38035 0.824794 0
M  V30 784 O 66.7113 1.60476 0.677719 0
M  V30 785 C 63.8433 3.18248 1.22192 0
M  V30 786 H 65.0363 2.94423 -0.570521 0
M  V30 787 H 62.5893 1.52688 -0.334078 0
M  V30 788 H 63.3243 2.57265 1.97447 0
M  V30 789 H 63.1093 3.85 0.742812 0
M  V30 790 H 64.5993 3.80001 1.73172 0
M  V30 791 N 65.0364 0.313813 1.54444 0
M  V30 792 C 65.9694 -0.598866 2.20202 0
M  V30 793 C 66.9474 -1.12318 1.17573 0
M  V30 794 O 68.1314 -1.18899 1.46271 0
M  V30 795 C 65.2584 -1.82071 2.85601 0
M  V30 796 C 64.3044 -1.42851 4.01865 0
M  V30 797 S 65.1374 -0.473512 5.33402 0
M  V30 798 C 66.2934 -1.70286 6.0229 0
M  V30 799 H 66.5264 -0.0402532 2.97273 0
M  V30 800 H 64.0594 0.0979165 1.54089 0
M  V30 801 H 66.0174 -2.52184 3.23904 0
M  V30 802 H 64.6784 -2.3505 2.08351 0
M  V30 803 H 63.8714 -2.33871 4.46453 0
M  V30 804 H 63.4734 -0.807198 3.65185 0
M  V30 805 H 65.7654 -2.64168 6.23876 0
M  V30 806 H 66.7084 -1.29932 6.96077 0
M  V30 807 H 67.1164 -1.88541 5.32083 0
M  V30 808 N 66.5145 -1.57545 0.0417849 0
M  V30 809 C 67.7605 -1.92601 -0.635021 0
M  V30 810 C 68.0935 -0.919627 -1.71045 0
M  V30 811 O 67.3685 0.0557892 -1.9442 0
M  V30 812 C 67.6515 -3.38085 -1.23979 0
M  V30 813 C 67.5045 -4.49467 -0.173057 0
M  V30 814 C 68.8235 -3.83776 -2.15416 0
M  V30 815 H 65.9425 -0.700397 -0.229374 0
M  V30 816 H 68.5845 -1.89728 0.101633 0
M  V30 817 H 66.7345 -3.40664 -1.86762 0
M  V30 818 H 68.4065 -4.59018 0.458312 0
M  V30 819 H 66.6495 -4.30909 0.499996 0
M  V30 820 H 67.3205 -5.48323 -0.636054 0
M  V30 821 H 69.7965 -3.83013 -1.62605 0
M  V30 822 H 68.6725 -4.8624 -2.54679 0
M  V30 823 H 68.9335 -3.19998 -3.05047 0
M  V30 824 N 67.9926 0.231505 -1.5589 0
M  V30 825 C 68.9256 1.31369 -1.86595 0
M  V30 826 C 69.9036 1.45671 -0.722397 0
M  V30 827 O 71.0876 1.61642 -0.969743 0
M  V30 828 C 68.2146 2.68529 -2.06421 0
M  V30 829 C 67.2606 2.71295 -3.29092 0
M  V30 830 S 68.0936 2.26358 -4.85306 0
M  V30 831 C 69.2496 3.65414 -5.08157 0
M  V30 832 H 69.4826 1.05128 -2.78092 0
M  V30 833 H 67.0156 0.433259 -1.48197 0
M  V30 834 H 68.9736 3.47499 -2.18528 0
M  V30 835 H 67.6346 2.91999 -1.15738 0
M  V30 836 H 66.8276 3.72063 -3.39978 0
M  V30 837 H 66.4296 2.0038 -3.15791 0
M  V30 838 H 68.7216 4.6103 -4.96445 0
M  V30 839 H 69.6646 3.5945 -6.10083 0
M  V30 840 H 70.0726 3.5864 -4.35933 0
M  V30 841 N 69.4707 1.49531 0.497807 0
M  V30 842 C 70.4337 1.65916 1.58128 0
M  V30 843 C 71.4337 0.530825 1.51786 0
M  V30 844 O 72.6237 0.797342 1.54881 0
M  V30 845 C 69.7557 1.65951 2.9778 0
M  V30 846 H 70.9487 2.62556 1.44929 0
M  V30 847 H 68.5017 1.38611 0.722275 0
M  V30 848 H 69.2367 0.709065 3.16453 0
M  V30 849 H 69.0217 2.47897 3.03792 0
M  V30 850 H 70.5117 1.80673 3.76493 0
M  V30 851 N 70.9488 -0.749086 1.3866 0
M  V30 852 C 71.8968 -1.88428 1.36373 0
M  V30 853 C 72.8908 -1.67561 0.248929 0
M  V30 854 O 74.0968 -1.75074 0.41821 0
M  V30 855 H 70.4718 -0.620023 0.42553 0
M  V30 856 H 72.4428 -1.87473 2.32156 0
M  V30 857 C 71.1918 -3.25961 1.21014 0
M  V30 858 H 70.5148 -3.42607 2.06059 0
M  V30 859 H 71.9548 -4.05625 1.23469 0
M  V30 860 C 70.4138 -3.36799 -0.0825941 0
M  V30 861 O 70.9438 -3.87517 -1.05797 0
M  V30 862 N 69.1498 -2.90258 -0.140939 0
M  V30 863 H 68.6968 -2.49174 0.653477 0
M  V30 864 H 68.6548 -2.97889 -1.00545 0
M  V30 865 N 72.4269 -1.23603 -0.977757 0
M  V30 866 C 73.6759 -1.06377 -1.71368 0
M  V30 867 C 73.9889 0.399062 -1.91486 0
M  V30 868 O 75.1949 0.691312 -2.62551 0
M  V30 869 C 73.6509 -1.85512 -3.08404 0
M  V30 870 C 73.2589 -3.36141 -2.96164 0
M  V30 871 C 75.0029 -1.76783 -3.85938 0
M  V30 872 C 72.9099 -4.07659 -4.28449 0
M  V30 873 H 71.8399 -0.394452 -0.642591 0
M  V30 874 H 74.4909 -1.47594 -1.09034 0
M  V30 875 H 72.8729 -1.37103 -3.71509 0
M  V30 876 H 74.0469 -3.92056 -2.42133 0
M  V30 877 H 72.3619 -3.45712 -2.32104 0
M  V30 878 H 74.9589 -2.27526 -4.83876 0
M  V30 879 H 75.3019 -0.731116 -4.0983 0
M  V30 880 H 75.8349 -2.22818 -3.2954 0
M  V30 881 H 72.5739 -5.11648 -4.09752 0
M  V30 882 H 72.0939 -3.5653 -4.82334 0
M  V30 883 H 73.7729 -4.141 -4.97122 0
M  V30 884 N 73.905 1.17692 -1.04816 0
M  V30 885 C 75.153 1.87488 -0.754497 0
M  V30 886 C 75.474 1.81205 0.720407 0
M  V30 887 O 74.744 1.23544 1.52032 0
M  V30 888 H 73.324 0.694101 -0.276102 0
M  V30 889 H 75.986 1.42793 -1.32651 0
M  V30 890 H 75.082 2.93328 -1.06606 0
M  V30 891 N 75.3831 0.828654 1.34056 0
M  V30 892 C 76.6301 0.419458 1.98108 0
M  V30 893 C 76.9581 -1.01886 1.65679 0
M  V30 894 O 76.2131 -1.72539 0.923512 0
M  V30 895 C 76.5121 0.575226 3.52741 0
M  V30 896 C 76.1781 1.98012 4.05095 0
M  V30 897 C 74.8401 2.36442 4.19104 0
M  V30 898 C 77.1921 2.89824 4.33188 0
M  V30 899 C 74.5201 3.66009 4.58535 0
M  V30 900 C 76.8721 4.1886 4.74066 0
M  V30 901 C 75.5361 4.5726 4.86281 0
M  V30 902 H 74.8061 0.153491 0.724929 0
M  V30 903 H 77.4531 1.05371 1.59904 0
M  V30 904 H 75.7581 -0.142385 3.91541 0
M  V30 905 H 77.4551 0.239057 4.00287 0
M  V30 906 H 74.0451 1.67162 3.94658 0
M  V30 907 H 78.2291 2.61375 4.21897 0
M  V30 908 H 73.4851 3.95579 4.66184 0
M  V30 909 H 77.6591 4.90086 4.94761 0
M  V30 910 H 75.2861 5.57707 5.16592 0
M  V30 911 N 76.8612 -1.46375 0.584142 0
M  V30 912 C 77.7712 -2.34115 -0.150728 0
M  V30 913 C 78.7872 -1.49838 -0.884567 0
M  V30 914 O 79.9632 -1.82704 -0.847429 0
M  V30 915 C 77.0282 -3.2705 -1.15062 0
M  V30 916 C 76.0892 -4.27228 -0.421293 0
M  V30 917 C 75.3222 -5.15722 -1.37355 0
M  V30 918 O 75.5452 -5.07176 -2.61014 0
M  V30 919 O 74.4792 -5.95383 -0.883355 0
M  V30 920 H 78.3052 -2.98309 0.569708 0
M  V30 921 H 75.8902 -1.45373 0.344535 0
M  V30 922 H 77.7722 -3.84381 -1.72712 0
M  V30 923 H 76.4472 -2.65451 -1.8525 0
M  V30 924 H 75.3542 -3.7358 0.197085 0
M  V30 925 H 76.6872 -4.91616 0.239641 0
M  V30 926 N 78.3393 -0.321999 -1.54275 0
M  V30 927 C 79.2493 0.553631 -2.27974 0
M  V30 928 C 80.2653 1.13054 -1.32268 0
M  V30 929 O 81.4413 1.15084 -1.6528 0
M  V30 930 C 78.5063 1.69927 -3.02201 0
M  V30 931 C 77.5673 1.15433 -4.1349 0
M  V30 932 C 76.8003 2.24537 -4.84168 0
M  V30 933 O 77.0233 3.44852 -4.5435 0
M  V30 934 O 75.9573 1.90044 -5.7111 0
M  V30 935 H 79.7833 -0.0448345 -3.03667 0
M  V30 936 H 77.3683 -0.0877418 -1.49142 0
M  V30 937 H 79.2503 2.3663 -3.48689 0
M  V30 938 H 77.9253 2.28395 -2.29385 0
M  V30 939 H 76.8323 0.452436 -3.71354 0
M  V30 940 H 78.1653 0.614805 -4.88345 0
M  V30 941 N 79.8174 1.5752 -0.0501392 0
M  V30 942 C 80.7654 2.12651 0.942459 0
M  V30 943 C 81.7594 1.05807 1.32292 0
M  V30 944 O 82.9654 1.24217 1.3027 0
M  V30 945 H 79.3404 0.679673 0.321789 0
M  V30 946 H 81.3114 2.94951 0.452356 0
M  V30 947 C 80.0604 2.68565 2.20836 0
M  V30 948 H 79.3834 3.50439 1.92439 0
M  V30 949 H 80.8234 3.10761 2.8845 0
M  V30 950 C 79.2824 1.62291 2.95234 0
M  V30 951 O 79.8124 1.03508 3.88135 0
M  V30 952 N 78.0184 1.33836 2.57946 0
M  V30 953 H 77.5654 1.81826 1.82475 0
M  V30 954 H 77.5234 0.629595 3.08032 0
M  V30 955 N 81.2955 -0.223234 1.56011 0
M  V30 956 C 82.2435 -1.29627 1.93131 0
M  V30 957 C 83.2375 -1.48608 0.813146 0
M  V30 958 O 84.4435 -1.49802 0.997966 0
M  V30 959 H 80.8185 -0.434563 0.613726 0
M  V30 960 H 82.7895 -0.955995 2.82672 0
M  V30 961 C 81.5385 -2.63983 2.26292 0
M  V30 962 H 80.8615 -2.50185 3.11846 0
M  V30 963 H 82.3015 -3.3788 2.56151 0
M  V30 964 C 80.7605 -3.18866 1.08747 0
M  V30 965 O 81.2905 -4.00192 0.347727 0
M  V30 966 N 79.4965 -2.77217 0.871743 0
M  V30 967 H 79.0435 -2.1119 1.47501 0
M  V30 968 H 79.0015 -3.1428 0.0869905 0
M  V30 969 N 82.7736 -1.49793 -0.48987 0
M  V30 970 C 84.0016 -1.63568 -1.26701 0
M  V30 971 C 84.4166 -0.311465 -1.86213 0
M  V30 972 O 83.7736 0.704416 -1.68357 0
M  V30 973 C 83.8246 -2.71284 -2.38929 0
M  V30 974 O 83.5456 -3.9857 -1.81861 0
M  V30 975 C 85.0466 -2.95864 -3.3012 0
M  V30 976 H 82.2666 -0.550342 -0.383881 0
M  V30 977 H 84.8106 -1.95898 -0.586864 0
M  V30 978 H 82.9656 -2.417 -3.02753 0
M  V30 979 H 83.3796 -4.57993 -2.55622 0
M  V30 980 H 84.8536 -3.74941 -4.05121 0
M  V30 981 H 85.3306 -2.06206 -3.87783 0
M  V30 982 H 85.9366 -3.26907 -2.72051 0
M  V30 983 N 84.2517 0.741722 -1.39055 0
M  V30 984 C 85.4817 1.52876 -1.3897 0
M  V30 985 C 85.8897 1.8919 0.0193266 0
M  V30 986 O 85.2327 1.54138 0.999356 0
M  V30 987 C 85.2947 2.84929 -2.19216 0
M  V30 988 C 84.9587 2.71086 -3.67915 0
M  V30 989 C 85.9557 2.40084 -4.61146 0
M  V30 990 C 83.6407 2.88168 -4.11418 0
M  V30 991 C 85.6347 2.26335 -5.95862 0
M  V30 992 C 83.3217 2.74037 -5.46211 0
M  V30 993 C 84.3197 2.43166 -6.38247 0
M  V30 994 O 84.0077 2.29115 -7.70559 0
M  V30 995 H 83.7397 0.479252 -0.476753 0
M  V30 996 H 86.2937 0.924751 -1.83405 0
M  V30 997 H 84.5237 3.47564 -1.69518 0
M  V30 998 H 86.2127 3.46509 -2.11392 0
M  V30 999 H 86.9787 2.26545 -4.28838 0
M  V30 1000 H 82.8577 3.11191 -3.40119 0
M  V30 1001 H 86.4017 2.0216 -6.67665 0
M  V30 1002 H 82.2987 2.87153 -5.78112 0
M  V30 1003 H 83.0667 2.44237 -7.81211 0
M  V30 1004 N 85.7298 1.2412 0.971189 0
M  V30 1005 C 86.6778 1.02812 2.08644 0
M  V30 1006 C 87.6718 -0.0358403 1.69362 0
M  V30 1007 O 88.8778 0.118429 1.7961 0
M  V30 1008 H 85.2528 0.315428 0.682649 0
M  V30 1009 H 87.2238 1.97397 2.23779 0
M  V30 1010 C 85.9728 0.645874 3.41649 0
M  V30 1011 H 85.2958 1.45632 3.72332 0
M  V30 1012 H 86.7358 0.536366 4.20594 0
M  V30 1013 C 85.1948 -0.646713 3.30635 0
M  V30 1014 O 85.7248 -1.69338 3.64263 0
M  V30 1015 N 83.9308 -0.626115 2.83775 0
M  V30 1016 H 83.4778 0.225988 2.56607 0
M  V30 1017 H 83.4358 -1.49117 2.76788 0
M  V30 1018 N 87.2079 -1.17134 1.05439 0
M  V30 1019 C 88.1379 -2.2342 0.678649 0
M  V30 1020 C 89.1189 -1.66971 -0.32476 0
M  V30 1021 O 90.3039 -1.93149 -0.201802 0
M  V30 1022 C 87.4339 -3.47256 0.0552099 0
M  V30 1023 C 86.3879 -4.16543 0.98365 0
M  V30 1024 C 85.7139 -5.34231 0.223961 0
M  V30 1025 C 87.0139 -4.68495 2.3089 0
M  V30 1026 H 88.7079 -2.55105 1.56722 0
M  V30 1027 H 86.2539 -1.2262 0.754998 0
M  V30 1028 H 88.2069 -4.20828 -0.21946 0
M  V30 1029 H 86.9309 -3.14846 -0.868319 0
M  V30 1030 H 85.5899 -3.44887 1.24293 0
M  V30 1031 H 85.2379 -4.98071 -0.702412 0
M  V30 1032 H 84.9379 -5.81527 0.842627 0
M  V30 1033 H 86.4619 -6.10585 -0.0433671 0
M  V30 1034 H 87.8759 -5.33691 2.09396 0
M  V30 1035 H 86.2729 -5.26379 2.88176 0
M  V30 1036 H 87.3429 -3.85169 2.94572 0
M  V30 1037 N 88.686 -0.835752 -1.33615 0
M  V30 1038 C 89.634 -0.255238 -2.31195 0
M  V30 1039 C 90.628 0.61107 -1.57995 0
M  V30 1040 O 91.834 0.500979 -1.72888 0
M  V30 1041 H 88.209 -0.0638085 -0.749288 0
M  V30 1042 H 90.18 -1.09283 -2.77669 0
M  V30 1043 C 88.929 0.55754 -3.43201 0
M  V30 1044 H 88.252 -0.0997553 -3.99676 0
M  V30 1045 H 89.692 0.929622 -4.13683 0
M  V30 1046 C 88.151 1.73515 -2.88781 0
M  V30 1047 O 88.681 2.83376 -2.84712 0
M  V30 1048 N 86.887 1.55603 -2.4543 0
M  V30 1049 H 86.434 0.662354 -2.48939 0
M  V30 1050 H 86.392 2.34545 -2.09371 0
M  V30 1051 N 90.1641 1.46063 -0.591896 0
M  V30 1052 C 91.3941 2.06418 -0.0867676 0
M  V30 1053 C 91.8021 1.43975 1.22751 0
M  V30 1054 O 91.1451 0.542531 1.75506 0
M  V30 1055 C 91.2071 3.59213 0.143725 0
M  V30 1056 C 90.8711 4.439 -1.08635 0
M  V30 1057 C 91.8681 4.79864 -2.00067 0
M  V30 1058 C 89.5531 4.84896 -1.31077 0
M  V30 1059 C 91.5471 5.55661 -3.12282 0
M  V30 1060 C 89.2341 5.6045 -2.43596 0
M  V30 1061 C 90.2321 5.95747 -3.34027 0
M  V30 1062 O 89.9201 6.69772 -4.4459 0
M  V30 1063 H 89.6521 0.673443 -0.0587447 0
M  V30 1064 H 92.2061 1.88539 -0.814994 0
M  V30 1065 H 90.4361 3.75433 0.926668 0
M  V30 1066 H 92.1251 4.01463 0.5985 0
M  V30 1067 H 92.8911 4.48763 -1.83947 0
M  V30 1068 H 88.7701 4.56867 -0.61594 0
M  V30 1069 H 92.3141 5.8313 -3.82891 0
M  V30 1070 H 88.2111 5.90965 -2.59674 0
M  V30 1071 H 88.9791 6.88207 -4.43073 0
M  V30 1072 N 91.6422 0.330177 1.54103 0
M  V30 1073 C 92.6052 -0.520144 2.2322 0
M  V30 1074 C 93.6052 -1.03828 1.22786 0
M  V30 1075 O 94.7952 -0.929652 1.4732 0
M  V30 1076 C 91.9272 -1.72317 2.94142 0
M  V30 1077 H 93.1202 0.0841605 2.99782 0
M  V30 1078 H 90.6732 0.0813433 1.56088 0
M  V30 1079 H 91.4082 -2.36653 2.21734 0
M  V30 1080 H 91.1932 -1.35898 3.67796 0
M  V30 1081 H 92.6832 -2.3266 3.46784 0
M  V30 1082 N 93.1203 -1.57491 0.0584922 0
M  V30 1083 C 94.0673 -2.11958 -0.913376 0
M  V30 1084 C 95.0373 -1.02875 -1.30407 0
M  V30 1085 O 96.2223 -1.30464 -1.39226 0
M  V30 1086 C 93.3623 -2.67497 -2.18035 0
M  V30 1087 C 92.4753 -3.90691 -1.84349 0
M  V30 1088 C 91.6103 -4.3452 -3.05559 0
M  V30 1089 C 90.6493 -5.50395 -2.67827 0
M  V30 1090 N 89.7863 -5.89244 -3.81754 0
M  V30 1091 H 94.6263 -2.94704 -0.442017 0
M  V30 1092 H 92.1633 -1.45643 -0.206545 0
M  V30 1093 H 94.1213 -2.978 -2.92183 0
M  V30 1094 H 92.7513 -1.87537 -2.62735 0
M  V30 1095 H 91.8033 -3.66934 -1.00319 0
M  V30 1096 H 93.1153 -4.7489 -1.5258 0
M  V30 1097 H 92.2693 -4.66414 -3.87998 0
M  V30 1098 H 91.0083 -3.49147 -3.40511 0
M  V30 1099 H 90.0133 -5.18165 -1.83806 0
M  V30 1100 H 91.2383 -6.3749 -2.34059 0
M  V30 1101 H 89.1843 -5.06823 -4.16493 0
M  V30 1102 H 89.1013 -6.68151 -3.53708 0
M  V30 1103 H 90.3693 -6.25756 -4.64811 0
M  V30 1104 N 94.5984 0.214957 -1.56127 0
M  V30 1105 C 95.8464 0.936518 -1.79091 0
M  V30 1106 C 96.1674 1.84606 -0.628148 0
M  V30 1107 O 95.4374 1.92664 0.35462 0
M  V30 1108 H 94.0174 0.3488 -0.660566 0
M  V30 1109 H 96.6794 0.22523 -1.93594 0
M  V30 1110 H 95.7754 1.53943 -2.71492 0
M  V30 1111 N 96.0765 1.50051 0.48192 0
M  V30 1112 C 97.0245 1.68635 1.60203 0
M  V30 1113 C 98.0185 0.552184 1.60148 0
M  V30 1114 O 99.2245 0.732377 1.64427 0
M  V30 1115 H 95.5995 0.532081 0.531407 0
M  V30 1116 H 97.5705 2.62616 1.41688 0
M  V30 1117 C 96.3195 1.78775 2.9822 0
M  V30 1118 H 95.6425 2.6543 2.98976 0
M  V30 1119 H 97.0825 1.95806 3.7608 0
M  V30 1120 C 95.5415 0.536849 3.32595 0
M  V30 1121 O 96.0715 -0.328897 4.00351 0
M  V30 1122 N 94.2775 0.394091 2.87915 0
M  V30 1123 H 93.8245 1.09962 2.32951 0
M  V30 1124 H 93.7825 -0.441737 3.11281 0
M  V30 1125 N 97.5546 -0.734337 1.39446 0
M  V30 1126 C 98.4866 -1.85861 1.34121 0
M  V30 1127 C 99.4996 -1.60871 0.249864 0
M  V30 1128 O 100.689 -1.71093 0.508865 0
M  V30 1129 C 97.7886 -3.21899 1.05991 0
M  V30 1130 C 96.9616 -3.74239 2.26415 0
M  V30 1131 C 96.0206 -4.88841 1.94733 0
M  V30 1132 O 95.0466 -5.02468 2.67422 0
M  V30 1133 N 96.2486 -5.73261 0.913884 0
M  V30 1134 H 99.0136 -1.90934 2.31007 0
M  V30 1135 H 96.5746 -0.915102 1.33557 0
M  V30 1136 H 98.5666 -3.96136 0.828147 0
M  V30 1137 H 97.1366 -3.12091 0.178361 0
M  V30 1138 H 96.3566 -2.91347 2.65539 0
M  V30 1139 H 97.6446 -4.05942 3.06738 0
M  V30 1140 H 97.0426 -5.64842 0.311476 0
M  V30 1141 H 95.5996 -6.47563 0.742015 0
M  V30 1142 N 99.0327 -1.24633 -0.964593 0
M  V30 1143 C 99.9807 -1.03917 -2.08096 0
M  V30 1144 C 100.975 0.0268581 -1.69379 0
M  V30 1145 O 102.181 -0.127952 -1.79545 0
M  V30 1146 H 98.5557 -0.319044 -0.680966 0
M  V30 1147 H 100.527 -1.98581 -2.22729 0
M  V30 1148 C 99.2757 -0.663983 -3.41301 0
M  V30 1149 H 98.5987 -1.47605 -3.71555 0
M  V30 1150 H 100.039 -0.558663 -4.20303 0
M  V30 1151 C 98.4977 0.629169 -3.30973 0
M  V30 1152 O 99.0277 1.67404 -3.65156 0
M  V30 1153 N 97.2337 0.611057 -2.84103 0
M  V30 1154 H 96.7807 -0.239593 -2.56483 0
M  V30 1155 H 96.7387 1.47647 -2.77575 0
M  V30 1156 N 100.511 1.16574 -1.06058 0
M  V30 1157 C 101.788 1.83048 -0.689416 0
M  V30 1158 C 102.168 1.94122 0.829443 0
M  V30 1159 O 101.516 1.48249 1.7388 0
M  V30 1160 C 101.726 3.20186 -1.38859 0
M  V30 1161 C 103.074 3.95989 -1.53226 0
M  V30 1162 O 104.098 3.29696 -1.3483 0
M  V30 1163 O 102.957 5.14813 -1.83384 0
M  V30 1164 H 100.051 0.790258 -0.243764 0
M  V30 1165 H 102.597 1.23797 -1.16071 0
M  V30 1166 H 101.369 3.07146 -2.4244 0
M  V30 1167 H 100.992 3.87112 -0.907216 0
M  V30 1168 N 101.989 0.842826 1.3317 0
M  V30 1169 C 103.214 0.453129 2.02389 0
M  V30 1170 C 103.639 -0.939105 1.6298 0
M  V30 1171 O 102.997 -1.61472 0.8244 0
M  V30 1172 C 103.045 0.586094 3.55805 0
M  V30 1173 O 102.149 -0.386029 4.10589 0
M  V30 1174 H 101.49 0.183664 0.638094 0
M  V30 1175 H 104.02 1.13875 1.69981 0
M  V30 1176 H 104.03 0.469209 4.05293 0
M  V30 1177 H 102.705 1.6014 3.83833 0
M  V30 1178 H 101.282 -0.226371 3.72212 0
M  V30 1179 N 103.467 -1.45747 0.599634 0
M  V30 1180 C 104.695 -2.06668 0.0978551 0
M  V30 1181 C 105.11 -1.44562 -1.21439 0
M  V30 1182 O 104.467 -0.556923 -1.73795 0
M  V30 1183 C 104.518 -3.61456 -0.0567044 0
M  V30 1184 O 104.239 -4.21242 1.20361 0
M  V30 1185 C 105.74 -4.39345 -0.590869 0
M  V30 1186 H 102.96 -0.667825 0.0651943 0
M  V30 1187 H 105.504 -1.87115 0.82511 0
M  V30 1188 H 103.659 -3.80378 -0.734251 0
M  V30 1189 H 104.073 -5.14323 1.02821 0
M  V30 1190 H 105.547 -5.48182 -0.648131 0
M  V30 1191 H 106.024 -4.08568 -1.61147 0
M  V30 1192 H 106.63 -4.25268 0.0523679 0
M  V30 1193 N 104.945 -0.338344 -1.53925 0
M  V30 1194 C 105.893 0.536231 -2.26335 0
M  V30 1195 C 106.887 1.1063 -1.28286 0
M  V30 1196 O 108.093 1.05264 -1.46012 0
M  V30 1197 H 104.468 0.191602 -0.727181 0
M  V30 1198 H 106.439 -0.0965747 -2.98244 0
M  V30 1199 C 105.188 1.67803 -3.04528 0
M  V30 1200 H 104.511 1.24864 -3.79801 0
M  V30 1201 H 105.951 2.26526 -3.58416 0
M  V30 1202 C 104.41 2.60439 -2.13712 0
M  V30 1203 O 104.94 3.6255 -1.72975 0
M  V30 1204 N 103.146 2.29006 -1.78898 0
M  V30 1205 H 102.693 1.46011 -2.12223 0
M  V30 1206 H 102.651 2.91248 -1.18416 0
M  V30 1207 N 106.423 1.57458 -0.0668435 0
M  V30 1208 C 107.7 1.8469 0.644132 0
M  V30 1209 C 108.08 0.958343 1.88093 0
M  V30 1210 O 107.428 0.0233579 2.28488 0
M  V30 1211 C 107.638 3.34767 0.986509 0
M  V30 1212 C 108.986 4.02159 1.36212 0
M  V30 1213 O 110.01 3.39484 1.07839 0
M  V30 1214 O 108.869 5.12694 1.89227 0
M  V30 1215 H 105.963 0.762816 0.319437 0
M  V30 1216 H 108.509 1.6942 -0.0973986 0
M  V30 1217 H 107.281 3.91151 0.107883 0
M  V30 1218 H 106.904 3.55281 1.78497 0
M  V30 1219 N 107.901 -0.206675 1.56239 0
M  V30 1220 C 109.126 -0.949474 1.8439 0
M  V30 1221 C 109.551 -1.76549 0.649016 0
M  V30 1222 O 108.909 -1.76782 -0.402231 0
M  V30 1223 C 108.957 -1.83078 3.10668 0
M  V30 1224 O 108.061 -2.9281 2.90407 0
M  V30 1225 H 107.402 -0.268033 0.607499 0
M  V30 1226 H 109.932 -0.215488 2.03462 0
M  V30 1227 H 109.942 -2.2377 3.41161 0
M  V30 1228 H 108.617 -1.23112 3.97261 0
M  V30 1229 H 107.194 -2.55956 2.71184 0
M  V30 1230 N 109.379 -1.50304 -0.473955 0
M  V30 1231 C 110.628 -1.60392 -1.22301 0
M  V30 1232 C 110.941 -0.308411 -1.93153 0
M  V30 1233 O 112.147 -0.288156 -2.69966 0
M  V30 1234 C 110.603 -2.83109 -2.2221 0
M  V30 1235 C 110.211 -4.19524 -1.57173 0
M  V30 1236 C 111.955 -3.0254 -2.97775 0
M  V30 1237 C 109.862 -5.33431 -2.55353 0
M  V30 1238 H 108.792 -0.597286 -0.460179 0
M  V30 1239 H 111.443 -1.76731 -0.493803 0
M  V30 1240 H 109.825 -2.60322 -2.9841 0
M  V30 1241 H 110.999 -4.52554 -0.867824 0
M  V30 1242 H 109.314 -4.05674 -0.939002 0
M  V30 1243 H 111.911 -3.84811 -3.71248 0
M  V30 1244 H 112.254 -2.14154 -3.56992 0
M  V30 1245 H 112.787 -3.25494 -2.28688 0
M  V30 1246 H 109.526 -6.23962 -2.00878 0
M  V30 1247 H 109.046 -5.04823 -3.23904 0
M  V30 1248 H 110.725 -5.63887 -3.17239 0
M  V30 1249 N 110.857 0.726932 -1.39834 0
M  V30 1250 C 112.087 1.51393 -1.40583 0
M  V30 1251 C 112.495 1.892 -0.000740625 0
M  V30 1252 O 111.838 1.55189 0.982951 0
M  V30 1253 C 111.9 2.82588 -2.22226 0
M  V30 1254 C 111.564 2.67169 -3.70769 0
M  V30 1255 C 112.561 2.3518 -4.63666 0
M  V30 1256 C 110.246 2.83788 -4.14451 0
M  V30 1257 C 112.24 2.20002 -5.98229 0
M  V30 1258 C 109.927 2.68229 -5.49087 0
M  V30 1259 C 110.925 2.36382 -6.4079 0
M  V30 1260 O 110.613 2.2093 -7.72946 0
M  V30 1261 H 110.345 0.474168 -0.48181 0
M  V30 1262 H 112.899 0.905247 -1.84376 0
M  V30 1263 H 111.129 3.45746 -1.73195 0
M  V30 1264 H 112.818 3.44247 -2.15055 0
M  V30 1265 H 113.584 2.21984 -4.31217 0
M  V30 1266 H 109.463 3.07566 -3.43401 0
M  V30 1267 H 113.007 1.95067 -6.69772 0
M  V30 1268 H 108.904 2.81006 -5.81125 0
M  V30 1269 H 109.672 2.35937 -7.83757 0
M  V30 1270 N 112.336 1.25143 0.95797 0
M  V30 1271 C 113.284 1.05019 2.07542 0
M  V30 1272 C 114.278 -0.0178751 1.69391 0
M  V30 1273 O 115.484 0.137472 1.79474 0
M  V30 1274 H 111.859 0.32265 0.679265 0
M  V30 1275 H 113.83 1.99759 2.21673 0
M  V30 1276 C 112.579 0.682074 3.40944 0
M  V30 1277 H 111.902 1.49573 3.70767 0
M  V30 1278 H 113.342 0.580945 4.20001 0
M  V30 1279 C 111.801 -0.611608 3.31302 0
M  V30 1280 O 112.331 -1.65465 3.66038 0
M  V30 1281 N 110.537 -0.595982 2.84423 0
M  V30 1282 H 110.084 0.253192 2.56353 0
M  V30 1283 H 110.042 -1.46173 2.78354 0
M  V30 1284 N 113.814 -1.1601 1.06675 0
M  V30 1285 C 115.042 -1.90527 0.806667 0
M  V30 1286 C 115.457 -1.77643 -0.639396 0
M  V30 1287 O 114.814 -1.12369 -1.43803 0
M  V30 1288 C 114.865 -3.41106 1.19705 0
M  V30 1289 O 114.586 -3.53608 2.58636 0
M  V30 1290 C 116.087 -4.32663 0.965266 0
M  V30 1291 H 113.307 -0.604053 0.292166 0
M  V30 1292 H 115.851 -1.47026 1.4214 0
M  V30 1293 H 114.006 -3.82296 0.626774 0
M  V30 1294 H 114.42 -4.47011 2.74375 0
M  V30 1295 H 115.894 -5.36763 1.288 0
M  V30 1296 H 116.371 -4.39089 -0.0987936 0
M  V30 1297 H 116.977 -3.97206 1.52011 0
M  V30 1298 N 115.292 -0.849877 -1.32721 0
M  V30 1299 C 116.517 -0.463856 -2.02146 0
M  V30 1300 C 116.942 0.930449 -1.63476 0
M  V30 1301 O 116.3 1.61033 -0.832952 0
M  V30 1302 C 116.348 -0.604955 -3.55489 0
M  V30 1303 O 115.452 0.36425 -4.10788 0
M  V30 1304 H 114.793 -0.187046 -0.637111 0
M  V30 1305 H 117.323 -1.14775 -1.69375 0
M  V30 1306 H 117.333 -0.490696 -4.05038 0
M  V30 1307 H 116.008 -1.62174 -3.82978 0
M  V30 1308 H 114.585 0.206628 -3.72327 0
M  V30 1309 N 116.77 1.45427 -0.607355 0
M  V30 1310 C 117.995 2.07124 -0.107006 0
M  V30 1311 C 118.42 1.44906 1.19933 0
M  V30 1312 O 117.778 0.541687 1.73019 0
M  V30 1313 C 117.826 3.60595 0.0194119 0
M  V30 1314 O 116.93 3.98285 1.0697 0
M  V30 1315 H 116.271 0.659868 -0.0739597 0
M  V30 1316 H 118.801 1.86683 -0.837297 0
M  V30 1317 H 118.811 4.07419 0.2177 0
M  V30 1318 H 117.486 4.05266 -0.934453 0
M  V30 1319 H 116.063 3.63133 0.847889 0
M  V30 1320 N 118.248 0.346503 1.53744 0
M  V30 1321 C 119.196 -0.52422 2.26616 0
M  V30 1322 C 120.19 -1.09948 1.28871 0
M  V30 1323 O 121.396 -1.04488 1.46568 0
M  V30 1324 H 117.771 -0.187743 0.728187 0
M  V30 1325 H 119.742 0.11239 2.98188 0
M  V30 1326 C 118.491 -1.66186 3.05414 0
M  V30 1327 H 117.814 -1.22848 3.80458 0
M  V30 1328 H 119.254 -2.24622 3.59612 0
M  V30 1329 C 117.713 -2.59302 2.1509 0
M  V30 1330 O 118.243 -3.61628 1.74895 0
M  V30 1331 N 116.449 -2.28055 1.8011 0
M  V30 1332 H 115.996 -1.44883 2.12994 0
M  V30 1333 H 115.954 -2.90615 1.19958 0
M  V30 1334 N 119.726 -1.57421 0.075193 0
M  V30 1335 C 120.674 -2.14124 -0.908508 0
M  V30 1336 C 121.668 -1.07898 -1.30592 0
M  V30 1337 O 122.874 -1.26273 -1.28277 0
M  V30 1338 H 119.249 -0.684707 -0.310935 0
M  V30 1339 H 121.22 -2.95634 -0.405374 0
M  V30 1340 C 119.969 -2.72044 -2.16535 0
M  V30 1341 H 119.292 -3.53456 -1.86839 0
M  V30 1342 H 120.732 -3.15311 -2.83469 0
M  V30 1343 C 119.191 -1.66968 -2.92615 0
M  V30 1344 O 119.721 -1.0967 -3.86439 0
M  V30 1345 N 117.927 -1.37923 -2.55784 0
M  V30 1346 H 117.474 -1.84706 -1.79559 0
M  V30 1347 H 117.432 -0.67852 -3.06991 0
M  V30 1348 N 121.204 0.198386 -1.56346 0
M  V30 1349 C 122.429 0.939682 -1.84891 0
M  V30 1350 C 122.854 1.76202 -0.658369 0
M  V30 1351 O 122.212 1.76993 0.392851 0
M  V30 1352 C 122.26 1.81428 -3.11635 0
M  V30 1353 O 121.364 2.91265 -2.91956 0
M  V30 1354 H 120.705 0.264807 -0.608912 0
M  V30 1355 H 123.235 0.204695 -2.03573 0
M  V30 1356 H 123.245 2.21958 -3.42343 0
M  V30 1357 H 121.92 1.21004 -3.97908 0
M  V30 1358 H 120.497 2.54514 -2.72538 0
M  V30 1359 N 122.682 1.50554 0.465978 0
M  V30 1360 C 123.907 1.65838 1.24549 0
M  V30 1361 C 124.332 0.343486 1.84937 0
M  V30 1362 O 123.69 -0.69324 1.67523 0
M  V30 1363 C 123.738 2.75533 2.32624 0
M  V30 1364 O 122.842 2.37142 3.37398 0
M  V30 1365 H 122.183 0.553893 0.366194 0
M  V30 1366 H 124.713 1.96959 0.553927 0
M  V30 1367 H 124.723 2.98763 2.77857 0
M  V30 1368 H 123.398 3.70962 1.88043 0
M  V30 1369 H 121.975 2.24377 2.97841 0
M  V30 1370 N 124.16 -0.719506 1.40217 0
M  V30 1371 C 125.108 -1.85493 1.40339 0
M  V30 1372 C 126.102 -1.66995 0.284415 0
M  V30 1373 O 127.308 -1.74148 0.455252 0
M  V30 1374 H 123.683 -0.610857 0.438586 0
M  V30 1375 H 125.654 -1.82506 2.36081 0
M  V30 1376 C 124.403 -3.23321 1.27901 0
M  V30 1377 H 123.726 -3.38159 2.1328 0
M  V30 1378 H 125.166 -4.02914 1.32045 0
M  V30 1379 C 123.625 -3.36898 -0.0111355 0
M  V30 1380 O 124.155 -3.89674 -0.975538 0
M  V30 1381 N 122.361 -2.90492 -0.0793393 0
M  V30 1382 H 121.908 -2.47731 0.706183 0
M  V30 1383 H 121.866 -2.99955 -0.942038 0
M  V30 1384 N 125.638 -1.25649 -0.95132 0
M  V30 1385 C 126.866 -1.13343 -1.73092 0
M  V30 1386 C 127.281 0.312434 -1.86197 0
M  V30 1387 O 126.638 1.21465 -1.36207 0
M  V30 1388 C 126.689 -1.78602 -3.14299 0
M  V30 1389 O 126.41 -3.17537 -3.01831 0
M  V30 1390 C 127.911 -1.72119 -4.08522 0
M  V30 1391 H 125.131 -0.395181 -0.542285 0
M  V30 1392 H 127.675 -1.66076 -1.19328 0
M  V30 1393 H 125.83 -1.29832 -3.64996 0
M  V30 1394 H 126.244 -3.49676 -3.90931 0
M  V30 1395 H 127.718 -2.22435 -5.052 0
M  V30 1396 H 128.195 -0.685635 -4.33815 0
M  V30 1397 H 128.801 -2.20393 -3.63741 0
M  V30 1398 N 127.117 1.15442 -1.07289 0
M  V30 1399 C 128.047 2.22312 -0.714107 0
M  V30 1400 C 129.028 1.67467 0.298155 0
M  V30 1401 O 130.213 1.93445 0.171048 0
M  V30 1402 C 127.343 3.47124 -0.110448 0
M  V30 1403 C 126.297 4.14926 -1.04979 0
M  V30 1404 C 125.623 5.33807 -0.308924 0
M  V30 1405 C 126.923 4.64762 -2.38314 0
M  V30 1406 H 128.617 2.5258 -1.6076 0
M  V30 1407 H 126.163 1.21404 -0.77441 0
M  V30 1408 H 128.116 4.21124 0.152482 0
M  V30 1409 H 126.84 3.16187 0.81812 0
M  V30 1410 H 125.499 3.42866 -1.29764 0
M  V30 1411 H 125.147 4.99126 0.623084 0
M  V30 1412 H 124.847 5.80113 -0.935036 0
M  V30 1413 H 126.371 6.10576 -0.0537771 0
M  V30 1414 H 127.785 5.30292 -2.1786 0
M  V30 1415 H 126.182 5.21728 -2.96514 0
M  V30 1416 H 127.252 3.80434 -3.00663 0
M  V30 1417 N 128.595 0.856903 1.32268 0
M  V30 1418 C 129.505 0.306131 2.32594 0
M  V30 1419 C 130.521 -0.577209 1.64147 0
M  V30 1420 O 131.697 -0.477043 1.95669 0
M  V30 1421 C 128.762 -0.494561 3.43154 0
M  V30 1422 C 127.823 0.415186 4.27288 0
M  V30 1423 C 127.056 -0.347387 5.32568 0
M  V30 1424 O 127.279 -1.57708 5.48165 0
M  V30 1425 O 126.213 0.287982 6.01211 0
M  V30 1426 H 130.039 1.13737 2.81598 0
M  V30 1427 H 127.624 0.619902 1.35932 0
M  V30 1428 H 129.506 -0.948944 4.10576 0
M  V30 1429 H 128.181 -1.30257 2.96336 0
M  V30 1430 H 127.088 0.917793 3.62667 0
M  V30 1431 H 128.421 1.18844 4.77637 0
M  V30 1432 N 130.073 -1.45103 0.615059 0
M  V30 1433 C 131.006 -2.27717 -0.148408 0
M  V30 1434 C 131.984 -1.37584 -0.866572 0
M  V30 1435 O 133.168 -1.67017 -0.87393 0
M  V30 1436 C 130.295 -3.16136 -1.21557 0
M  V30 1437 C 129.341 -4.22263 -0.599712 0
M  V30 1438 S 130.174 -5.3215 0.598081 0
M  V30 1439 C 131.33 -6.24137 -0.469484 0
M  V30 1440 H 131.563 -2.92121 0.552483 0
M  V30 1441 H 129.096 -1.49054 0.402778 0
M  V30 1442 H 131.054 -3.67633 -1.82638 0
M  V30 1443 H 129.715 -2.50982 -1.88857 0
M  V30 1444 H 128.908 -4.84081 -1.4029 0
M  V30 1445 H 128.51 -3.73945 -0.063876 0
M  V30 1446 H 130.802 -6.63984 -1.34652 0
M  V30 1447 H 131.745 -7.0801 0.112725 0
M  V30 1448 H 132.153 -5.58971 -0.788168 0
M  V30 1449 N 131.551 -0.354651 -1.53558 0
M  V30 1450 C 132.481 0.489091 -2.2832 0
M  V30 1451 C 133.462 1.09324 -1.30316 0
M  V30 1452 O 134.647 1.11255 -1.59173 0
M  V30 1453 C 131.777 1.63456 -3.0643 0
M  V30 1454 C 130.731 1.1582 -4.12031 0
M  V30 1455 C 130.057 2.39305 -4.7816 0
M  V30 1456 C 131.357 0.250731 -5.21698 0
M  V30 1457 H 133.051 -0.134614 -2.99097 0
M  V30 1458 H 130.597 -0.0661826 -1.43848 0
M  V30 1459 H 132.55 2.23136 -3.57475 0
M  V30 1460 H 131.274 2.28533 -2.33325 0
M  V30 1461 H 129.933 0.584146 -3.61916 0
M  V30 1462 H 129.581 3.02814 -4.01637 0
M  V30 1463 H 129.281 2.08109 -5.49513 0
M  V30 1464 H 130.805 2.99691 -5.31994 0
M  V30 1465 H 132.219 0.754695 -5.68311 0
M  V30 1466 H 130.616 0.0301468 -6.00092 0
M  V30 1467 H 131.686 -0.710125 -4.79672 0
M  V30 1468 N 133.029 1.57378 -0.0835403 0
M  V30 1469 C 133.976 2.13384 0.879539 0
M  V30 1470 C 134.946 1.04936 1.28754 0
M  V30 1471 O 136.131 1.32662 1.37133 0
M  V30 1472 C 133.271 2.70932 2.13752 0
M  V30 1473 C 132.384 3.93575 1.7811 0
M  V30 1474 C 131.519 4.39326 2.98607 0
M  V30 1475 C 130.558 5.54587 2.59037 0
M  V30 1476 N 129.695 5.95243 3.72331 0
M  V30 1477 H 134.535 2.9537 0.395076 0
M  V30 1478 H 132.072 1.45953 0.183349 0
M  V30 1479 H 134.03 3.02411 2.87408 0
M  V30 1480 H 132.66 1.91693 2.59718 0
M  V30 1481 H 131.712 3.68483 0.94469 0
M  V30 1482 H 133.024 4.77258 1.45005 0
M  V30 1483 H 132.178 4.72528 3.80529 0
M  V30 1484 H 130.917 3.5452 3.34913 0
M  V30 1485 H 129.922 5.21024 1.75539 0
M  V30 1486 H 131.147 6.41133 2.23887 0
M  V30 1487 H 129.093 5.13385 4.08378 0
M  V30 1488 H 129.01 6.73694 3.43034 0
M  V30 1489 H 130.278 6.33072 4.54797 0
M  V30 1490 N 134.507 -0.190092 1.56449 0
M  V30 1491 C 135.454 -1.23557 1.94942 0
M  V30 1492 C 136.424 -1.44972 0.810696 0
M  V30 1493 O 137.609 -1.58023 1.06927 0
M  V30 1494 C 134.749 -2.57416 2.2985 0
M  V30 1495 C 133.862 -2.43537 3.5681 0
M  V30 1496 C 132.997 -3.70134 3.81017 0
M  V30 1497 C 132.036 -3.51109 5.01387 0
M  V30 1498 N 131.173 -4.6973 5.21822 0
M  V30 1499 H 136.013 -0.900304 2.84075 0
M  V30 1500 H 133.55 -0.43318 1.40577 0
M  V30 1501 H 135.508 -3.35409 2.48106 0
M  V30 1502 H 134.138 -2.88975 1.43852 0
M  V30 1503 H 133.19 -1.56816 3.46573 0
M  V30 1504 H 134.502 -2.25415 4.4496 0
M  V30 1505 H 133.656 -4.56566 3.9954 0
M  V30 1506 H 132.395 -3.91215 2.91207 0
M  V30 1507 H 131.4 -2.63063 4.82782 0
M  V30 1508 H 132.625 -3.31468 5.9271 0
M  V30 1509 H 130.571 -4.91065 4.34961 0
M  V30 1510 H 130.488 -4.54452 6.0416 0
M  V30 1511 H 131.756 -5.57499 5.44808 0
M  V30 1512 N 135.985 -1.50799 -0.457987 0
M  V30 1513 C 137.234 -1.6168 -1.20593 0
M  V30 1514 C 137.547 -0.32888 -1.92815 0
M  V30 1515 O 138.753 -0.316773 -2.69646 0
M  V30 1516 C 137.209 -2.8545 -2.19195 0
M  V30 1517 C 136.817 -4.21168 -1.52715 0
M  V30 1518 C 138.561 -3.05681 -2.94549 0
M  V30 1519 C 136.468 -5.3611 -2.4968 0
M  V30 1520 H 135.398 -0.602134 -0.453818 0
M  V30 1521 H 138.049 -1.77245 -0.475031 0
M  V30 1522 H 136.431 -2.63472 -2.95632 0
M  V30 1523 H 137.605 -4.53449 -0.819775 0
M  V30 1524 H 135.92 -4.06648 -0.895922 0
M  V30 1525 H 138.517 -3.88727 -3.67145 0
M  V30 1526 H 138.86 -2.17929 -3.54701 0
M  V30 1527 H 139.393 -3.27901 -2.25223 0
M  V30 1528 H 136.132 -6.26057 -1.94249 0
M  V30 1529 H 135.652 -5.0823 -3.18532 0
M  V30 1530 H 137.331 -5.6722 -3.11241 0
M  V30 1531 N 137.463 0.71206 -1.40597 0
M  V30 1532 C 138.874 1.29135 -1.34837 0
M  V30 1533 C 139.225 1.96186 -0.0235395 0
M  V30 1534 O 138.35 1.97768 0.878444 0
M  V30 1535 C 138.945 2.34827 -2.44217 0
M  V30 1536 C 137.504 2.88371 -2.41907 0
M  V30 1537 C 136.651 1.62202 -2.24913 0
M  V30 1538 H 139.602 0.507944 -1.50352 0
M  V30 1539 H 139.623 3.15749 -2.12327 0
M  V30 1540 H 139.135 1.85996 -3.40627 0
M  V30 1541 H 137.236 3.41422 -1.49204 0
M  V30 1542 H 137.349 3.39925 -3.37621 0
M  V30 1543 H 135.713 1.874 -1.72492 0
M  V30 1544 H 136.496 1.15391 -3.23326 0
M  V30 1545 N 138.941 1.26152 0.944643 0
M  V30 1546 C 140.169 1.14259 1.72489 0
M  V30 1547 C 140.584 -0.302555 1.8636 0
M  V30 1548 O 139.941 -1.20741 1.36849 0
M  V30 1549 C 139.992 1.80266 3.13347 0
M  V30 1550 O 139.713 3.19133 3.00143 0
M  V30 1551 C 141.214 1.74283 4.07603 0
M  V30 1552 H 138.434 0.398051 0.540181 0
M  V30 1553 H 140.978 1.66706 1.18446 0
M  V30 1554 H 139.133 1.31766 3.64303 0
M  V30 1555 H 139.547 3.51744 3.89071 0
M  V30 1556 H 141.021 2.25111 5.04013 0
M  V30 1557 H 141.498 0.708631 4.33446 0
M  V30 1558 H 142.104 2.22319 3.62567 0
M  V30 1559 N 140.419 -1.14872 1.07899 0
M  V30 1560 C 141.349 -2.2193 0.725887 0
M  V30 1561 C 142.33 -1.67622 -0.28927 0
M  V30 1562 O 143.515 -1.93533 -0.160787 0
M  V30 1563 C 140.645 -3.47061 0.128856 0
M  V30 1564 C 139.599 -4.14363 1.07178 0
M  V30 1565 C 138.925 -5.33636 0.337229 0
M  V30 1566 C 140.225 -4.63492 2.40775 0
M  V30 1567 H 141.919 -2.51724 1.62097 0
M  V30 1568 H 139.465 -1.20991 0.780838 0
M  V30 1569 H 141.418 -4.21199 -0.130147 0
M  V30 1570 H 140.142 -3.16617 -0.80134 0
M  V30 1571 H 138.801 -3.42173 1.3158 0
M  V30 1572 H 138.449 -4.99449 -0.596606 0
M  V30 1573 H 138.149 -5.79609 0.965788 0
M  V30 1574 H 139.673 -6.10539 0.0861567 0
M  V30 1575 H 141.087 -5.2913 2.20669 0
M  V30 1576 H 139.484 -5.20148 2.99276 0
M  V30 1577 H 140.554 -3.78834 3.02676 0
M  V30 1578 N 141.898 -0.863906 -1.31812 0
M  V30 1579 C 142.861 -0.320212 -2.26952 0
M  V30 1580 C 143.861 0.525369 -1.51975 0
M  V30 1581 O 145.051 0.335547 -1.70938 0
M  V30 1582 C 142.183 0.545919 -3.365 0
M  V30 1583 H 143.376 -1.16004 -2.76556 0
M  V30 1584 H 140.929 -0.638995 -1.42641 0
M  V30 1585 H 141.664 1.40718 -2.92179 0
M  V30 1586 H 141.449 -0.0594674 -3.92055 0
M  V30 1587 H 142.939 0.918796 -4.07367 0
M  V30 1588 N 143.376 1.44774 -0.622745 0
M  V30 1589 C 144.625 2.01334 -0.121397 0
M  V30 1590 C 144.938 1.49505 1.26125 0
M  V30 1591 O 146.144 1.98139 1.85616 0
M  V30 1592 C 144.6 3.59516 -0.166298 0
M  V30 1593 C 144.208 4.20342 -1.54974 0
M  V30 1594 C 145.952 4.23582 0.279021 0
M  V30 1595 C 143.859 5.70721 -1.55021 0
M  V30 1596 H 142.789 0.752851 -0.0416172 0
M  V30 1597 H 145.44 1.66083 -0.780309 0
M  V30 1598 H 143.822 3.92027 0.559557 0
M  V30 1599 H 144.996 3.99381 -2.29851 0
M  V30 1600 H 143.311 3.68529 -1.93843 0
M  V30 1601 H 145.908 5.33868 0.298083 0
M  V30 1602 H 146.251 3.95327 1.30471 0
M  V30 1603 H 146.784 3.95843 -0.394063 0
M  V30 1604 H 143.523 6.03698 -2.55399 0
M  V30 1605 H 143.043 5.93829 -0.844245 0
M  V30 1606 H 144.722 6.34203 -1.28047 0
M  V30 1607 N 144.854 0.36279 1.53368 0
M  V30 1608 C 146.102 -0.227326 2.00817 0
M  V30 1609 C 146.423 -1.49511 1.25186 0
M  V30 1610 O 145.693 -1.92482 0.364348 0
M  V30 1611 H 144.273 -0.0869923 0.741917 0
M  V30 1612 H 146.935 0.488381 1.88682 0
M  V30 1613 H 146.031 -0.456273 3.08747 0
M  V30 1614 N 146.332 -1.57332 0.0918853 0
M  V30 1615 C 147.578 -1.94524 -0.573425 0
M  V30 1616 C 147.911 -0.973578 -1.68033 0
M  V30 1617 O 147.186 -0.00609226 -1.94499 0
M  V30 1618 C 147.469 -3.41858 -1.13161 0
M  V30 1619 C 147.322 -4.4979 -0.0299747 0
M  V30 1620 C 148.641 -3.90435 -2.03098 0
M  V30 1621 H 145.76 -0.70734 -0.206975 0
M  V30 1622 H 148.402 -1.89309 0.161942 0
M  V30 1623 H 146.552 -3.46433 -1.7583 0
M  V30 1624 H 148.224 -4.57327 0.604112 0
M  V30 1625 H 146.467 -4.291 0.636833 0
M  V30 1626 H 147.138 -5.50069 -0.461287 0
M  V30 1627 H 149.614 -3.87992 -1.50338 0
M  V30 1628 H 148.49 -4.94097 -2.39081 0
M  V30 1629 H 148.751 -3.29541 -2.94712 0
M  V30 1630 N 147.81 0.181792 -1.56548 0
M  V30 1631 C 149.226 0.53316 -1.50431 0
M  V30 1632 C 149.426 1.85184 -0.794297 0
M  V30 1633 O 148.482 2.50058 -0.350318 0
M  V30 1634 C 149.795 0.575597 -2.9514 0
M  V30 1635 C 151.343 0.663519 -3.05886 0
M  V30 1636 C 151.818 0.736946 -4.52032 0
M  V30 1637 N 153.309 0.800118 -4.56237 0
M  V30 1638 C 154.044 0.877327 -5.66649 0
M  V30 1639 N 153.54 0.916016 -6.86718 0
M  V30 1640 N 155.333 0.915542 -5.54594 0
M  V30 1641 H 147.484 -0.683025 -2.01118 0
M  V30 1642 H 149.747 -0.244988 -0.915797 0
M  V30 1643 H 149.453 -0.324482 -3.502 0
M  V30 1644 H 149.327 1.42572 -3.49218 0
M  V30 1645 H 151.714 1.55403 -2.50867 0
M  V30 1646 H 151.795 -0.21307 -2.54911 0
M  V30 1647 H 151.439 -0.149262 -5.07681 0
M  V30 1648 H 151.369 1.62953 -5.00753 0
M  V30 1649 H 153.86 0.778926 -3.69785 0
M  V30 1650 H 154.173 0.975813 -7.66614 0
M  V30 1651 H 152.518 0.884469 -6.89349 0
M  V30 1652 H 155.709 0.882245 -4.59711 0
M  V30 1653 H 155.882 0.972253 -6.40665 0
M  V30 1654 N 149.288 1.51039 0.449983 0
M  V30 1655 C 150.513 1.6715 1.22783 0
M  V30 1656 C 150.938 0.363081 1.84563 0
M  V30 1657 O 150.296 -0.675433 1.68249 0
M  V30 1658 C 150.344 2.77985 2.29689 0
M  V30 1659 O 149.448 2.40707 3.34864 0
M  V30 1660 H 148.789 0.557746 0.360299 0
M  V30 1661 H 151.319 1.97535 0.533005 0
M  V30 1662 H 151.329 3.01693 2.74673 0
M  V30 1663 H 150.004 3.72935 1.84098 0
M  V30 1664 H 148.581 2.27523 2.95445 0
M  V30 1665 N 150.766 -0.704594 1.40972 0
M  V30 1666 C 151.714 -1.83994 1.42299 0
M  V30 1667 C 152.708 -1.66684 0.302111 0
M  V30 1668 O 153.914 -1.73655 0.473697 0
M  V30 1669 H 150.289 -0.606171 0.44504 0
M  V30 1670 H 152.26 -1.79992 2.38003 0
M  V30 1671 C 151.009 -3.21946 1.31323 0
M  V30 1672 H 150.332 -3.35878 2.16855 0
M  V30 1673 H 151.772 -4.01491 1.36311 0
M  V30 1674 C 150.231 -3.36891 0.0245977 0
M  V30 1675 O 150.761 -3.90687 -0.934153 0
M  V30 1676 N 148.967 -2.90559 -0.0485243 0
M  V30 1677 H 148.514 -2.46968 0.732419 0
M  V30 1678 H 148.472 -3.00937 -0.910171 0
M  V30 1679 N 152.244 -1.26651 -0.937939 0
M  V30 1680 C 153.154 -1.10276 -2.07066 0
M  V30 1681 C 154.17 -0.0354197 -1.73964 0
M  V30 1682 O 155.346 -0.239816 -1.99967 0
M  V30 1683 C 152.411 -0.740887 -3.38691 0
M  V30 1684 C 151.472 -1.88799 -3.85556 0
M  V30 1685 C 150.705 -1.54329 -5.10899 0
M  V30 1686 O 150.928 -0.446494 -5.6865 0
M  V30 1687 O 149.862 -2.37911 -5.52885 0
M  V30 1688 H 153.688 -2.05309 -2.23789 0
M  V30 1689 H 151.273 -1.05743 -1.0554 0
M  V30 1690 H 153.155 -0.55195 -4.1777 0
M  V30 1691 H 151.83 0.180022 -3.23199 0
M  V30 1692 H 150.737 -2.13191 -3.07409 0
M  V30 1693 H 152.07 -2.78874 -4.05574 0
M  V30 1694 N 153.722 1.14298 -1.08507 0
M  V30 1695 C 154.952 1.88945 -0.835663 0
M  V30 1696 C 155.36 1.78894 0.615928 0
M  V30 1697 O 154.703 1.1468 1.43506 0
M  V30 1698 C 154.765 3.39585 -1.17994 0
M  V30 1699 C 154.429 3.7342 -2.63451 0
M  V30 1700 C 155.426 3.73454 -3.61702 0
M  V30 1701 C 153.111 4.03368 -2.99332 0
M  V30 1702 C 155.105 4.02961 -4.93864 0
M  V30 1703 C 152.792 4.32538 -4.31687 0
M  V30 1704 C 153.79 4.32318 -5.28763 0
M  V30 1705 O 153.478 4.6078 -6.58739 0
M  V30 1706 H 153.21 0.605307 -0.300965 0
M  V30 1707 H 155.764 1.45673 -1.44806 0
M  V30 1708 H 153.994 3.83315 -0.51055 0
M  V30 1709 H 155.683 3.9554 -0.911182 0
M  V30 1710 H 156.449 3.50403 -3.35325 0
M  V30 1711 H 152.328 4.02692 -2.24411 0
M  V30 1712 H 155.872 4.02704 -5.69627 0
M  V30 1713 H 151.769 4.55059 -4.57812 0
M  V30 1714 H 152.537 4.78492 -6.64069 0
M  V30 1715 N 155.201 0.870884 1.31352 0
M  V30 1716 C 156.447 0.482987 1.96965 0
M  V30 1717 C 156.78 -0.962462 1.68672 0
M  V30 1718 O 156.055 -1.6779 0.98371 0
M  V30 1719 C 156.338 0.741752 3.52378 0
M  V30 1720 C 156.191 2.2368 3.9024 0
M  V30 1721 C 157.51 0.208838 4.39604 0
M  V30 1722 H 154.629 0.176955 0.715441 0
M  V30 1723 H 157.271 1.09229 1.55464 0
M  V30 1724 H 155.421 0.223149 3.87859 0
M  V30 1725 H 157.093 2.82273 3.64856 0
M  V30 1726 H 155.336 2.70901 3.38814 0
M  V30 1727 H 156.007 2.3685 4.98604 0
M  V30 1728 H 158.483 0.652529 4.10952 0
M  V30 1729 H 157.359 0.419336 5.47296 0
M  V30 1730 H 157.62 -0.889275 4.33064 0
M  V30 1731 N 156.679 -1.44442 0.630414 0
M  V30 1732 C 157.907 -2.06414 0.141671 0
M  V30 1733 C 158.322 -1.47105 -1.18345 0
M  V30 1734 O 157.679 -0.593662 -1.72574 0
M  V30 1735 C 157.73 -3.61494 0.0199784 0
M  V30 1736 O 157.451 -4.18594 1.29269 0
M  V30 1737 C 158.952 -4.40499 -0.497544 0
M  V30 1738 H 156.172 -0.666292 0.0793452 0
M  V30 1739 H 158.716 -1.85323 0.864614 0
M  V30 1740 H 156.871 -3.8185 -0.653402 0
M  V30 1741 H 157.285 -5.12026 1.13707 0
M  V30 1742 H 158.759 -5.49433 -0.531708 0
M  V30 1743 H 159.236 -4.11895 -1.52445 0
M  V30 1744 H 159.842 -4.25061 0.142562 0
M  V30 1745 N 158.157 -0.370918 -1.53173 0
M  V30 1746 C 159.089 0.507823 -2.23503 0
M  V30 1747 C 160.102 1.04182 -1.251 0
M  V30 1748 O 161.291 0.947286 -1.5129 0
M  V30 1749 C 158.391 1.71447 -2.92334 0
M  V30 1750 C 157.564 1.31105 -4.17289 0
M  V30 1751 C 156.623 2.38035 -4.69282 0
M  V30 1752 O 155.649 2.00204 -5.32829 0
M  V30 1753 N 156.851 3.69697 -4.47554 0
M  V30 1754 H 159.616 -0.0946382 -2.99551 0
M  V30 1755 H 157.177 -0.196358 -1.60705 0
M  V30 1756 H 159.169 2.42469 -3.24023 0
M  V30 1757 H 157.739 2.22368 -2.19707 0
M  V30 1758 H 156.959 0.430462 -3.91843 0
M  V30 1759 H 158.247 1.0179 -4.98514 0
M  V30 1760 H 157.645 4.03205 -3.9679 0
M  V30 1761 H 156.202 4.36807 -4.8378 0
M  V30 1762 N 159.635 1.57281 -0.100228 0
M  V30 1763 C 160.565 2.17328 0.853857 0
M  V30 1764 C 161.546 1.10804 1.2906 0
M  V30 1765 O 162.731 1.38963 1.35657 0
M  V30 1766 C 159.861 2.75772 2.11109 0
M  V30 1767 C 158.815 3.87713 1.81279 0
M  V30 1768 C 158.141 4.32882 3.13874 0
M  V30 1769 C 159.441 5.10677 1.09574 0
M  V30 1770 H 161.135 2.97305 0.353545 0
M  V30 1771 H 158.681 1.43009 0.168612 0
M  V30 1772 H 160.634 3.16433 2.78296 0
M  V30 1773 H 159.358 1.93057 2.63432 0
M  V30 1774 H 158.017 3.476 1.16489 0
M  V30 1775 H 157.665 3.47051 3.64095 0
M  V30 1776 H 157.365 5.08358 2.94696 0
M  V30 1777 H 158.889 4.7618 3.82211 0
M  V30 1778 H 160.303 5.48474 1.66879 0
M  V30 1779 H 158.7 5.91615 1.00557 0
M  V30 1780 H 159.77 4.84835 0.0793299 0
M  V30 1781 N 161.113 -0.173488 1.56642 0
M  V30 1782 C 162.061 -1.23417 1.97157 0
M  V30 1783 C 163.055 -1.45946 0.860013 0
M  V30 1784 O 164.261 -1.46551 1.04512 0
M  V30 1785 H 160.636 -0.414818 0.62724 0
M  V30 1786 H 162.607 -0.865582 2.8557 0
M  V30 1787 C 161.356 -2.5665 2.34576 0
M  V30 1788 H 160.679 -2.40137 3.19647 0
M  V30 1789 H 162.119 -3.2956 2.6677 0
M  V30 1790 C 160.578 -3.15245 1.18836 0
M  V30 1791 O 161.108 -3.98883 0.474869 0
M  V30 1792 N 159.314 -2.74303 0.959497 0
M  V30 1793 H 158.861 -2.0639 1.54146 0
M  V30 1794 H 158.819 -3.13844 0.186932 0
M  V30 1795 N 162.591 -1.51276 -0.441967 0
M  V30 1796 C 163.816 -1.67799 -1.21895 0
M  V30 1797 C 164.241 -0.372864 -1.84367 0
M  V30 1798 O 163.599 0.666501 -1.68604 0
M  V30 1799 C 163.647 -2.79199 -2.28211 0
M  V30 1800 O 162.751 -2.42479 -3.33583 0
M  V30 1801 H 162.092 -0.559649 -0.357336 0
M  V30 1802 H 164.622 -1.97815 -0.522522 0
M  V30 1803 H 164.632 -3.03146 -2.73069 0
M  V30 1804 H 163.307 -3.73906 -1.82118 0
M  V30 1805 H 161.884 -2.29087 -2.94234 0
M  V30 1806 N 164.069 0.697108 -1.41344 0
M  V30 1807 C 165.297 1.48593 -1.43972 0
M  V30 1808 C 165.712 1.88747 -0.0445612 0
M  V30 1809 O 165.069 1.56682 0.935785 0
M  V30 1810 C 165.12 2.74946 -2.34706 0
M  V30 1811 O 164.841 2.36484 -3.68791 0
M  V30 1812 C 166.342 3.687 -2.46121 0
M  V30 1813 H 163.562 0.457964 -0.490418 0
M  V30 1814 H 166.106 0.858429 -1.8561 0
M  V30 1815 H 164.261 3.33937 -1.9638 0
M  V30 1816 H 164.675 3.17918 -4.17167 0
M  V30 1817 H 166.149 4.54145 -3.13777 0
M  V30 1818 H 166.626 4.13081 -1.49199 0
M  V30 1819 H 167.232 3.15613 -2.85076 0
M  V30 1820 N 165.547 1.27147 0.931209 0
M  V30 1821 C 166.963 1.04475 1.20653 0
M  V30 1822 C 167.163 -0.223885 2.00252 0
M  V30 1823 O 166.219 -0.930332 2.34736 0
M  V30 1824 C 167.532 2.28209 1.95809 0
M  V30 1825 C 169.08 2.33211 2.08762 0
M  V30 1826 C 169.555 3.56665 2.87323 0
M  V30 1827 N 171.046 3.57201 2.94892 0
M  V30 1828 C 171.781 4.49395 3.56134 0
M  V30 1829 N 171.277 5.51889 4.18796 0
M  V30 1830 N 173.07 4.37026 3.53504 0
M  V30 1831 H 165.221 2.08612 0.399333 0
M  V30 1832 H 167.484 0.917312 0.239253 0
M  V30 1833 H 167.19 3.20538 1.44736 0
M  V30 1834 H 167.064 2.33247 2.96438 0
M  V30 1835 H 169.451 1.41391 2.59023 0
M  V30 1836 H 169.532 2.32178 1.07364 0
M  V30 1837 H 169.176 4.4882 2.37746 0
M  V30 1838 H 169.106 3.54948 3.88998 0
M  V30 1839 H 171.597 2.83074 2.50354 0
M  V30 1840 H 171.91 6.18409 4.63454 0
M  V30 1841 H 170.255 5.55735 4.17353 0
M  V30 1842 H 173.446 3.56166 3.03749 0
M  V30 1843 H 173.619 5.09067 4.00942 0
M  V30 1844 N 167.025 -1.13721 1.09112 0
M  V30 1845 C 167.935 -2.22638 0.73957 0
M  V30 1846 C 168.951 -1.72091 -0.257068 0
M  V30 1847 O 170.127 -2.01155 -0.0992154 0
M  V30 1848 C 167.192 -3.46322 0.16191 0
M  V30 1849 C 166.253 -4.11775 1.21408 0
M  V30 1850 C 165.486 -5.29555 0.663891 0
M  V30 1851 O 165.709 -5.68077 -0.514274 0
M  V30 1852 O 164.643 -5.84973 1.41738 0
M  V30 1853 H 168.469 -2.55074 1.64836 0
M  V30 1854 H 166.054 -1.21791 0.865289 0
M  V30 1855 H 167.936 -4.21107 -0.157073 0
M  V30 1856 H 166.611 -3.15593 -0.719932 0
M  V30 1857 H 165.518 -3.3883 1.58571 0
M  V30 1858 H 166.851 -4.46627 2.06845 0
M  V30 1859 N 168.503 -0.877838 -1.30888 0
M  V30 1860 C 169.433 -0.35534 -2.3078 0
M  V30 1861 C 170.414 0.557994 -1.60687 0
M  V30 1862 O 171.599 0.473355 -1.88343 0
M  V30 1863 C 168.729 0.437221 -3.44537 0
M  V30 1864 C 167.683 -0.383715 -4.26276 0
M  V30 1865 C 167.009 0.535014 -5.32017 0
M  V30 1866 C 168.309 -1.62201 -4.96476 0
M  V30 1867 H 170.003 -1.19007 -2.74732 0
M  V30 1868 H 167.549 -0.573698 -1.32078 0
M  V30 1869 H 169.502 0.813334 -4.13477 0
M  V30 1870 H 168.226 1.30553 -2.99372 0
M  V30 1871 H 166.885 -0.741874 -3.59015 0
M  V30 1872 H 166.533 1.40083 -4.831 0
M  V30 1873 H 166.233 -0.0104211 -5.87599 0
M  V30 1874 H 167.757 0.907799 -6.03814 0
M  V30 1875 H 169.171 -1.31689 -5.5797 0
M  V30 1876 H 167.568 -2.10711 -5.61891 0
M  V30 1877 H 168.638 -2.37044 -4.23011 0
M  V30 1878 N 169.982 1.44106 -0.638065 0
M  V30 1879 C 171.398 1.56672 -0.304286 0
M  V30 1880 C 171.598 1.6244 1.19228 0
M  V30 1881 O 170.654 1.57121 1.9766 0
M  V30 1882 C 171.967 2.83503 -1.00231 0
M  V30 1883 C 173.515 2.97226 -0.981116 0
M  V30 1884 C 173.99 4.26868 -1.65974 0
M  V30 1885 N 175.481 4.33698 -1.62666 0
M  V30 1886 C 176.216 5.32745 -2.12063 0
M  V30 1887 N 175.712 6.38157 -2.6968 0
M  V30 1888 N 177.505 5.24299 -2.02651 0
M  V30 1889 H 169.656 1.38605 -1.60942 0
M  V30 1890 H 171.919 0.664661 -0.675965 0
M  V30 1891 H 171.625 2.85251 -2.0573 0
M  V30 1892 H 171.499 3.73251 -0.54439 0
M  V30 1893 H 173.886 2.95027 0.0654188 0
M  V30 1894 H 173.967 2.08808 -1.47759 0
M  V30 1895 H 173.611 4.29826 -2.70576 0
M  V30 1896 H 173.541 5.14156 -1.13804 0
M  V30 1897 H 176.032 3.58138 -1.20606 0
M  V30 1898 H 176.345 7.10029 -3.05087 0
M  V30 1899 H 174.69 6.38823 -2.73734 0
M  V30 1900 H 177.881 4.4086 -1.57353 0
M  V30 1901 H 178.054 6.01334 -2.41457 0
M  V30 1902 N 171.46 0.379036 1.52974 0
M  V30 1903 C 172.407 -0.461048 2.26148 0
M  V30 1904 C 173.377 -1.06637 1.27349 0
M  V30 1905 O 174.562 -1.09633 1.56157 0
M  V30 1906 C 171.702 -1.58782 3.06402 0
M  V30 1907 C 170.815 -1.00636 4.20115 0
M  V30 1908 C 169.95 -2.10334 4.87784 0
M  V30 1909 C 168.989 -1.49724 5.93506 0
M  V30 1910 N 168.126 -2.5331 6.54812 0
M  V30 1911 H 172.966 0.169429 2.97518 0
M  V30 1912 H 170.503 0.0953806 1.4679 0
M  V30 1913 H 172.461 -2.25174 3.51215 0
M  V30 1914 H 171.091 -2.18876 2.37261 0
M  V30 1915 H 170.143 -0.232332 3.7969 0
M  V30 1916 H 171.455 -0.523343 4.96047 0
M  V30 1917 H 170.609 -2.84519 5.35849 0
M  V30 1918 H 169.348 -2.61992 4.11353 0
M  V30 1919 H 168.353 -0.740598 5.44789 0
M  V30 1920 H 169.578 -0.988732 6.71864 0
M  V30 1921 H 167.524 -3.04156 5.81227 0
M  V30 1922 H 167.441 -2.09734 7.26325 0
M  V30 1923 H 168.709 -3.27155 7.07524 0
M  V30 1924 N 172.938 -1.57226 0.108567 0
M  V30 1925 C 173.868 -2.17778 -0.84232 0
M  V30 1926 C 174.849 -1.11487 -1.2847 0
M  V30 1927 O 176.034 -1.39681 -1.34918 0
M  V30 1928 C 173.164 -2.76888 -2.09644 0
M  V30 1929 C 172.118 -3.88669 -1.79221 0
M  V30 1930 C 171.444 -4.34541 -3.11574 0
M  V30 1931 C 172.744 -5.11251 -1.06864 0
M  V30 1932 H 174.438 -2.97489 -0.337774 0
M  V30 1933 H 171.984 -1.43097 -0.161025 0
M  V30 1934 H 173.937 -3.17904 -2.76614 0
M  V30 1935 H 172.661 -1.94451 -2.62405 0
M  V30 1936 H 171.32 -3.48213 -1.14644 0
M  V30 1937 H 170.968 -3.48977 -3.62249 0
M  V30 1938 H 170.668 -5.09914 -2.91996 0
M  V30 1939 H 172.192 -4.782 -3.7968 0
M  V30 1940 H 173.606 -5.49352 -1.63968 0
M  V30 1941 H 172.003 -5.9214 -0.974178 0
M  V30 1942 H 173.073 -4.8487 -0.0536168 0
M  V30 1943 N 174.416 0.165178 -1.56732 0
M  V30 1944 C 175.346 1.20651 -1.99914 0
M  V30 1945 C 176.327 1.45827 -0.875705 0
M  V30 1946 O 177.512 1.57057 -1.14223 0
M  V30 1947 C 174.642 2.54401 -2.36427 0
M  V30 1948 C 173.596 2.43782 -3.51787 0
M  V30 1949 C 172.922 3.82078 -3.7406 0
M  V30 1950 C 174.222 1.93732 -4.85041 0
M  V30 1951 H 175.916 0.847534 -2.87154 0
M  V30 1952 H 173.462 0.40625 -1.38151 0
M  V30 1953 H 175.415 3.27458 -2.65234 0
M  V30 1954 H 174.139 2.92098 -1.46103 0
M  V30 1955 H 172.798 1.73178 -3.23117 0
M  V30 1956 H 172.446 4.17179 -2.81017 0
M  V30 1957 H 172.146 3.7584 -4.51684 0
M  V30 1958 H 173.67 4.56712 -4.05274 0
M  V30 1959 H 175.084 2.56569 -5.12684 0
M  V30 1960 H 173.481 1.98428 -5.66345 0
M  V30 1961 H 174.551 0.891962 -4.76626 0
M  V30 1962 N 175.894 1.51508 0.433938 0
M  V30 1963 C 177.119 1.68443 1.21003 0
M  V30 1964 C 177.544 0.382636 1.84167 0
M  V30 1965 O 176.902 -0.65755 1.68956 0
M  V30 1966 C 176.95 2.80405 2.26727 0
M  V30 1967 O 176.054 2.44245 3.32292 0
M  V30 1968 H 175.395 0.561536 0.354363 0
M  V30 1969 H 177.925 1.9809 0.512024 0
M  V30 1970 H 177.935 3.0459 2.71457 0
M  V30 1971 H 176.61 3.74867 1.80132 0
M  V30 1972 H 175.187 2.30644 2.93015 0
M  V30 1973 N 177.372 -0.689602 1.41712 0
M  V30 1974 C 178.621 -1.44534 1.40686 0
M  V30 1975 C 178.934 -1.95588 0.0213352 0
M  V30 1976 O 180.14 -2.71271 -0.111534 0
M  V30 1977 C 178.596 -2.61387 2.47396 0
M  V30 1978 C 178.204 -2.17094 3.91885 0
M  V30 1979 C 179.948 -3.38986 2.55517 0
M  V30 1980 C 177.855 -3.3094 4.90135 0
M  V30 1981 H 176.785 -0.542925 0.52321 0
M  V30 1982 H 179.436 -0.748054 1.6756 0
M  V30 1983 H 177.818 -3.33412 2.13664 0
M  V30 1984 H 178.992 -1.52318 4.34897 0
M  V30 1985 H 177.307 -1.52473 3.8748 0
M  V30 1986 H 179.904 -4.23747 3.26102 0
M  V30 1987 H 180.247 -3.84578 1.59391 0
M  V30 1988 H 180.78 -2.74021 2.8837 0
M  V30 1989 H 177.519 -2.90355 5.87685 0
M  V30 1990 H 177.039 -3.94546 4.51767 0
M  V30 1991 H 178.718 -3.9663 5.11169 0
M  V30 1992 N 178.85 -1.27639 -0.924453 0
M  V30 1993 C 179.76 -1.12466 -2.05885 0
M  V30 1994 C 180.776 -0.053869 -1.73917 0
M  V30 1995 O 181.952 -0.261012 -1.99702 0
M  V30 1996 C 179.017 -0.776768 -3.37886 0
M  V30 1997 C 178.078 -1.92878 -3.83532 0
M  V30 1998 C 177.311 -1.59739 -5.09234 0
M  V30 1999 O 177.534 -0.506782 -5.68144 0
M  V30 2000 O 176.468 -2.43761 -5.50331 0
M  V30 2001 H 180.294 -2.07671 -2.21599 0
M  V30 2002 H 177.879 -1.06857 -1.04413 0
M  V30 2003 H 179.761 -0.596229 -4.17161 0
M  V30 2004 H 178.436 0.145732 -3.23372 0
M  V30 2005 H 177.343 -2.1644 -3.0513 0
M  V30 2006 H 178.676 -2.8316 -4.02593 0
M  V30 2007 N 180.328 1.1314 -1.09713 0
M  V30 2008 C 181.275 2.18642 -0.739196 0
M  V30 2009 C 182.245 1.63706 0.280978 0
M  V30 2010 O 183.43 1.90111 0.161946 0
M  V30 2011 C 180.57 3.44685 -0.169102 0
M  V30 2012 C 179.683 4.13711 -1.24367 0
M  V30 2013 C 178.818 5.27379 -0.636019 0
M  V30 2014 C 177.857 5.88259 -1.69169 0
M  V30 2015 N 176.994 6.93352 -1.10485 0
M  V30 2016 H 181.834 2.48607 -1.64312 0
M  V30 2017 H 179.371 1.22066 -0.820875 0
M  V30 2018 H 181.329 4.16815 0.179256 0
M  V30 2019 H 179.959 3.15161 0.698079 0
M  V30 2020 H 179.011 3.39835 -1.70927 0
M  V30 2021 H 180.323 4.55037 -2.04311 0
M  V30 2022 H 179.477 6.06238 -0.236677 0
M  V30 2023 H 178.216 4.8731 0.194928 0
M  V30 2024 H 177.221 5.08092 -2.10055 0
M  V30 2025 H 178.446 6.30399 -2.52536 0
M  V30 2026 H 176.392 6.55335 -0.295234 0
M  V30 2027 H 176.309 7.33236 -1.84121 0
M  V30 2028 H 177.577 7.76057 -0.73181 0
M  V30 2029 N 181.806 0.884767 1.30421 0
M  V30 2030 C 183.054 0.502112 1.95763 0
M  V30 2031 C 183.375 -0.951815 1.70192 0
M  V30 2032 O 182.645 -1.6692 1.0254 0
M  V30 2033 H 181.225 0.182694 0.724315 0
M  V30 2034 H 183.887 1.1278 1.58955 0
M  V30 2035 H 182.983 0.672188 3.04775 0
M  V30 2036 N 183.284 -1.43765 0.645699 0
M  V30 2037 C 184.695 -1.85193 0.236719 0
M  V30 2038 C 185.046 -1.54045 -1.21509 0
M  V30 2039 O 184.171 -0.985694 -1.92647 0
M  V30 2040 C 184.766 -3.36151 0.422845 0
M  V30 2041 C 183.325 -3.76338 0.0682492 0
M  V30 2042 C 182.472 -2.67538 0.729306 0
M  V30 2043 H 185.423 -1.34025 0.849883 0
M  V30 2044 H 185.444 -3.79032 -0.333904 0
M  V30 2045 H 184.956 -3.5879 1.47958 0
M  V30 2046 H 183.057 -3.59312 -0.986179 0
M  V30 2047 H 183.17 -4.76603 0.488469 0
M  V30 2048 H 181.534 -2.54176 0.163235 0
M  V30 2049 H 182.317 -2.93006 1.78892 0
M  V30 2050 N 184.763 -0.387143 -1.52771 0
M  V30 2051 C 186.174 0.0873634 -1.86495 0
M  V30 2052 C 186.525 1.46336 -1.30691 0
M  V30 2053 O 185.65 2.068 -0.637409 0
M  V30 2054 C 186.245 0.165305 -3.38396 0
M  V30 2055 C 184.804 0.584101 -3.7184 0
M  V30 2056 C 183.951 -0.255279 -2.76122 0
M  V30 2057 H 186.902 -0.605104 -1.46711 0
M  V30 2058 H 186.923 0.984848 -3.67534 0
M  V30 2059 H 186.435 -0.836301 -3.78982 0
M  V30 2060 H 184.536 1.59315 -3.36823 0
M  V30 2061 H 184.649 0.343749 -4.77865 0
M  V30 2062 H 183.013 0.279126 -2.53166 0
M  V30 2063 H 183.796 -1.25482 -3.19545 0
M  V30 2064 N 186.241 1.57166 -0.116904 0
M  V30 2065 C 187.49 1.94298 0.541407 0
M  V30 2066 C 187.803 1.00236 1.67964 0
M  V30 2067 O 189.009 1.26826 2.40057 0
M  V30 2068 C 187.465 3.45306 1.01449 0
M  V30 2069 C 187.073 4.47899 -0.0951738 0
M  V30 2070 C 188.817 3.91361 1.6443 0
M  V30 2071 C 186.724 5.90083 0.394491 0
M  V30 2072 H 185.654 0.725308 0.206019 0
M  V30 2073 H 188.305 1.82446 -0.196419 0
M  V30 2074 H 186.687 3.52385 1.80667 0
M  V30 2075 H 187.861 4.52486 -0.871374 0
M  V30 2076 H 186.176 4.11583 -0.631505 0
M  V30 2077 H 188.773 4.95004 2.02176 0
M  V30 2078 H 189.116 3.3122 2.52189 0
M  V30 2079 H 189.649 3.87073 0.917559 0
M  V30 2080 H 186.388 6.53974 -0.447004 0
M  V30 2081 H 185.908 5.88921 1.13722 0
M  V30 2082 H 187.587 6.41307 0.856399 0
M  V30 2083 N 187.719 -0.156864 1.56817 0
M  V30 2084 C 188.651 -1.21883 1.94106 0
M  V30 2085 C 189.664 -1.3971 0.835754 0
M  V30 2086 O 190.853 -1.39457 1.11418 0
M  V30 2087 C 187.953 -2.58527 2.19127 0
M  V30 2088 C 187.126 -2.61809 3.50393 0
M  V30 2089 C 186.185 -3.7992 3.64071 0
M  V30 2090 O 185.211 -3.65249 4.36557 0
M  V30 2091 N 186.413 -4.96973 2.99997 0
M  V30 2092 H 189.178 -0.901974 2.85805 0
M  V30 2093 H 186.739 -0.346513 1.58148 0
M  V30 2094 H 188.731 -3.36034 2.25529 0
M  V30 2095 H 187.301 -2.82545 1.33742 0
M  V30 2096 H 186.521 -1.7029 3.5552 0
M  V30 2097 H 187.809 -2.61024 4.36742 0
M  V30 2098 H 187.207 -5.11794 2.41004 0
M  V30 2099 H 185.764 -5.7229 3.11974 0
M  V30 2100 N 189.197 -1.51736 -0.425897 0
M  V30 2101 C 190.107 -1.76738 -1.54275 0
M  V30 2102 C 191.123 -0.65211 -1.61318 0
M  V30 2103 O 192.299 -0.935654 -1.78346 0
M  V30 2104 C 189.364 -1.89755 -2.90162 0
M  V30 2105 C 188.425 -3.13633 -2.93143 0
M  V30 2106 C 187.658 -3.2602 -4.22548 0
M  V30 2107 O 187.881 -2.44067 -5.15546 0
M  V30 2108 O 186.815 -4.19071 -4.32046 0
M  V30 2109 H 190.641 -2.71502 -1.36089 0
M  V30 2110 H 188.226 -1.36376 -0.610069 0
M  V30 2111 H 190.108 -2.00236 -3.70788 0
M  V30 2112 H 188.783 -0.981785 -3.08452 0
M  V30 2113 H 187.69 -3.08622 -2.11431 0
M  V30 2114 H 189.023 -4.04936 -2.798 0
M  V30 2115 N 190.675 0.682077 -1.42076 0
M  V30 2116 C 191.921 1.44428 -1.42367 0
M  V30 2117 C 192.254 1.94164 -0.0373056 0
M  V30 2118 O 191.529 1.70429 0.937239 0
M  V30 2119 C 191.812 2.64654 -2.44194 0
M  V30 2120 C 191.665 2.20596 -3.91991 0
M  V30 2121 C 192.984 3.66865 -2.431 0
M  V30 2122 H 190.103 0.523834 -0.518428 0
M  V30 2123 H 192.745 0.77576 -1.73442 0
M  V30 2124 H 190.895 3.2169 -2.17826 0
M  V30 2125 H 192.567 1.68783 -4.29313 0
M  V30 2126 H 190.81 1.52242 -4.06208 0
M  V30 2127 H 191.481 3.06921 -4.58807 0
M  V30 2128 H 193.957 3.19531 -2.66532 0
M  V30 2129 H 192.833 4.48577 -3.16339 0
M  V30 2130 H 193.094 4.17493 -1.45437 0
M  V30 2131 N 192.153 1.28127 0.917671 0
M  V30 2132 C 193.402 1.14432 1.66097 0
M  V30 2133 C 193.715 -0.307247 1.93172 0
M  V30 2134 O 194.921 -0.565259 2.65551 0
M  V30 2135 C 193.377 2.00015 2.99202 0
M  V30 2136 C 192.985 3.49889 2.79789 0
M  V30 2137 C 194.729 1.94996 3.77064 0
M  V30 2138 C 192.636 4.27636 4.08511 0
M  V30 2139 H 191.566 0.424662 0.62304 0
M  V30 2140 H 194.217 1.52628 1.01868 0
M  V30 2141 H 192.599 1.54672 3.64544 0
M  V30 2142 H 193.773 4.03162 2.23152 0
M  V30 2143 H 192.088 3.56392 2.15345 0
M  V30 2144 H 194.685 2.50354 4.72469 0
M  V30 2145 H 195.028 0.925819 4.05875 0
M  V30 2146 H 195.561 2.38287 3.18534 0
M  V30 2147 H 192.3 5.30615 3.84874 0
M  V30 2148 H 191.82 3.79137 4.64774 0
M  V30 2149 H 193.499 4.37346 4.76799 0
M  V30 2150 N 193.631 -1.12557 1.10312 0
M  V30 2151 C 194.579 -2.20325 0.745629 0
M  V30 2152 C 195.573 -1.67429 -0.25763 0
M  V30 2153 O 196.779 -1.79612 -0.118132 0
M  V30 2154 H 193.154 -0.718118 0.223182 0
M  V30 2155 H 195.125 -2.47733 1.66346 0
M  V30 2156 C 193.874 -3.47168 0.192262 0
M  V30 2157 H 193.197 -3.88215 0.955475 0
M  V30 2158 H 194.637 -4.23995 -0.0198274 0
M  V30 2159 C 193.096 -3.19298 -1.07472 0
M  V30 2160 O 193.626 -3.3891 -2.15645 0
M  V30 2161 N 191.832 -2.73113 -0.992847 0
M  V30 2162 H 191.379 -2.57354 -0.112474 0
M  V30 2163 H 191.337 -2.54842 -1.84127 0
M  V30 2164 N 195.109 -0.891671 -1.2995 0
M  V30 2165 C 196.334 -0.527932 -2.00568 0
M  V30 2166 C 196.759 0.877969 -1.66353 0
M  V30 2167 O 196.117 1.58301 -0.883762 0
M  V30 2168 C 196.165 -0.717745 -3.53385 0
M  V30 2169 O 195.269 0.233376 -4.11739 0
M  V30 2170 H 194.61 -0.20722 -0.630837 0
M  V30 2171 H 197.14 -1.20105 -1.65638 0
M  V30 2172 H 197.15 -0.619307 -4.03272 0
M  V30 2173 H 195.825 -1.74276 -3.77625 0
M  V30 2174 H 194.402 0.0880706 -3.72796 0
M  V30 2175 N 196.587 1.43421 -0.653314 0
M  V30 2176 C 197.835 2.01414 -0.166415 0
M  V30 2177 C 198.156 1.51803 1.22397 0
M  V30 2178 O 197.426 0.730693 1.81763 0
M  V30 2179 H 196.006 0.744703 -0.0585319 0
M  V30 2180 H 198.668 1.75629 -0.845003 0
M  V30 2181 H 197.764 3.11734 -0.151111 0
M  V30 2182 N 198.065 0.39524 1.52563 0
M  V30 2183 C 199.311 -0.185318 2.01952 0
M  V30 2184 C 199.644 -1.45964 1.28095 0
M  V30 2185 O 198.919 -1.90689 0.38315 0
M  V30 2186 C 199.202 -0.447193 3.57312 0
M  V30 2187 C 199.055 0.842828 4.41833 0
M  V30 2188 C 200.374 -1.23529 4.22408 0
M  V30 2189 H 197.493 -0.0658788 0.73405 0
M  V30 2190 H 200.135 0.525975 1.82575 0
M  V30 2191 H 198.285 -1.05312 3.73954 0
M  V30 2192 H 199.957 1.4795 4.36931 0
M  V30 2193 H 198.2 1.45686 4.08605 0
M  V30 2194 H 198.871 0.614165 5.48573 0
M  V30 2195 H 201.347 -0.722445 4.0978 0
M  V30 2196 H 200.223 -1.38727 5.3108 0
M  V30 2197 H 200.484 -2.25213 3.80436 0
M  V30 2198 N 199.544 -1.57102 0.125237 0
M  V30 2199 C 200.79 -1.95697 -0.532035 0
M  V30 2200 C 201.123 -1.009 -1.6593 0
M  V30 2201 O 200.398 -0.047347 -1.94442 0
M  V30 2202 C 200.681 -3.44181 -1.05884 0
M  V30 2203 C 200.534 -4.49752 0.0654392 0
M  V30 2204 C 201.853 -3.94655 -1.9477 0
M  V30 2205 H 198.972 -0.711571 -0.191925 0
M  V30 2206 H 201.614 -1.88923 0.20206 0
M  V30 2207 H 199.764 -3.50085 -1.68442 0
M  V30 2208 H 201.436 -4.55943 0.700982 0
M  V30 2209 H 199.679 -4.27653 0.727709 0
M  V30 2210 H 200.35 -5.50924 -0.344505 0
M  V30 2211 H 202.826 -3.91094 -1.42074 0
M  V30 2212 H 201.702 -4.99057 -2.28546 0
M  V30 2213 H 201.963 -3.35718 -2.87656 0
M  V30 2214 N 201.022 0.148545 -1.56898 0
M  V30 2215 C 202.433 0.708766 -1.72723 0
M  V30 2216 C 202.784 1.81734 -0.739395 0
M  V30 2217 O 201.909 2.16194 0.0943169 0
M  V30 2218 C 202.504 1.29245 -3.13179 0
M  V30 2219 C 201.063 1.79925 -3.30611 0
M  V30 2220 C 200.21 0.687111 -2.68652 0
M  V30 2221 H 203.161 -0.0771063 -1.58513 0
M  V30 2222 H 203.182 2.16224 -3.13093 0
M  V30 2223 H 202.694 0.485382 -3.85053 0
M  V30 2224 H 200.795 2.63203 -2.63732 0
M  V30 2225 H 200.908 1.92903 -4.38549 0
M  V30 2226 H 199.272 1.11335 -2.29078 0
M  V30 2227 H 200.055 -0.108483 -3.43129 0
M  V30 2228 N 202.5 1.5196 0.417844 0
M  V30 2229 C 203.73 1.69181 1.18581 0
M  V30 2230 C 204.138 0.397104 1.84986 0
M  V30 2231 O 203.481 -0.636011 1.72339 0
M  V30 2232 C 203.543 2.76497 2.29759 0
M  V30 2233 C 203.207 4.18514 1.83563 0
M  V30 2234 C 204.204 5.02648 1.32821 0
M  V30 2235 C 201.889 4.64708 1.90661 0
M  V30 2236 C 203.883 6.31044 0.897894 0
M  V30 2237 C 201.57 5.93096 1.47241 0
M  V30 2238 C 202.568 6.76093 0.968891 0
M  V30 2239 O 202.256 8.02078 0.540924 0
M  V30 2240 H 201.988 0.570457 0.362705 0
M  V30 2241 H 204.542 1.99249 0.498885 0
M  V30 2242 H 202.772 2.41786 3.01789 0
M  V30 2243 H 204.461 2.82403 2.91553 0
M  V30 2244 H 205.227 4.68154 1.26716 0
M  V30 2245 H 201.106 4.00216 2.28797 0
M  V30 2246 H 204.65 6.95776 0.504192 0
M  V30 2247 H 200.547 6.271 1.53022 0
M  V30 2248 H 201.315 8.15794 0.66502 0
M  V30 2249 N 203.978 -0.674533 1.42435 0
M  V30 2250 C 205.227 -1.43034 1.42212 0
M  V30 2251 C 205.54 -1.95555 0.0420788 0
M  V30 2252 O 206.746 -2.71374 -0.0827558 0
M  V30 2253 C 205.202 -2.58748 2.50155 0
M  V30 2254 C 204.81 -2.12925 3.94166 0
M  V30 2255 C 206.554 -3.36257 2.59098 0
M  V30 2256 C 204.461 -3.25723 4.93618 0
M  V30 2257 H 203.391 -0.537345 0.528939 0
M  V30 2258 H 206.042 -0.73024 1.68344 0
M  V30 2259 H 204.424 -3.31128 2.17188 0
M  V30 2260 H 205.598 -1.47697 4.36488 0
M  V30 2261 H 203.913 -1.48354 3.89076 0
M  V30 2262 H 206.51 -4.20264 3.30578 0
M  V30 2263 H 206.853 -3.82866 1.63461 0
M  V30 2264 H 207.386 -2.70947 2.9126 0
M  V30 2265 H 204.125 -2.84105 5.90732 0
M  V30 2266 H 203.645 -3.89732 4.55926 0
M  V30 2267 H 205.324 -3.91186 5.15347 0
M  V30 2268 N 205.456 -1.28612 -0.910864 0
M  V30 2269 C 206.702 -1.16106 -1.66274 0
M  V30 2270 C 207.035 0.289113 -1.92036 0
M  V30 2271 O 206.31 1.21 -1.52281 0
M  V30 2272 C 206.593 -1.96309 -3.01885 0
M  V30 2273 C 206.446 -3.49405 -2.8326 0
M  V30 2274 C 207.765 -1.78076 -4.02463 0
M  V30 2275 H 204.884 -0.423152 -0.603417 0
M  V30 2276 H 207.526 -1.57961 -1.05586 0
M  V30 2277 H 205.676 -1.60742 -3.53687 0
M  V30 2278 H 207.348 -3.94894 -2.38446 0
M  V30 2279 H 205.591 -3.74893 -2.18261 0
M  V30 2280 H 206.262 -4.00784 -3.79574 0
M  V30 2281 H 208.738 -2.0912 -3.59733 0
M  V30 2282 H 207.614 -2.36561 -4.95308 0
M  V30 2283 H 207.875 -0.733008 -4.35981 0
M  V30 2284 N 206.934 1.1197 -1.10907 0
M  V30 2285 C 207.844 2.21433 -0.774896 0
M  V30 2286 C 208.86 1.72478 0.229657 0
M  V30 2287 O 210.036 2.01288 0.0672008 0
M  V30 2288 C 207.101 3.4602 -0.216986 0
M  V30 2289 C 206.162 4.09791 -1.27944 0
M  V30 2290 C 205.395 5.28431 -0.748055 0
M  V30 2291 O 205.618 5.68823 0.423833 0
M  V30 2292 O 204.552 5.82644 -1.51027 0
M  V30 2293 H 208.378 2.5242 -1.68873 0
M  V30 2294 H 205.963 1.20399 -0.884555 0
M  V30 2295 H 207.845 4.21304 0.090059 0
M  V30 2296 H 206.52 3.16698 0.669633 0
M  V30 2297 H 205.427 3.36265 -1.63941 0
M  V30 2298 H 206.76 4.4328 -2.13925 0
M  V30 2299 N 208.412 0.89855 1.29475 0
M  V30 2300 C 209.659 0.523882 1.95606 0
M  V30 2301 C 209.987 -0.929608 1.70847 0
M  V30 2302 O 209.242 -1.67401 1.01367 0
M  V30 2303 C 209.541 0.761398 3.49195 0
M  V30 2304 C 209.207 2.19207 3.94029 0
M  V30 2305 C 207.869 2.58326 4.05982 0
M  V30 2306 C 210.221 3.12379 4.17216 0
M  V30 2307 C 207.549 3.898 4.38489 0
M  V30 2308 C 209.901 4.43401 4.51197 0
M  V30 2309 C 208.565 4.82394 4.61359 0
M  V30 2310 H 207.835 0.191702 0.715773 0
M  V30 2311 H 210.482 1.13699 1.54094 0
M  V30 2312 H 208.787 0.0653622 3.91745 0
M  V30 2313 H 210.484 0.450904 3.98457 0
M  V30 2314 H 207.074 1.87846 3.85242 0
M  V30 2315 H 211.258 2.83371 4.07449 0
M  V30 2316 H 206.514 4.19734 4.44559 0
M  V30 2317 H 210.688 5.15623 4.68087 0
M  V30 2318 H 208.315 5.84306 4.86303 0
M  V30 2319 N 209.89 -1.43072 0.660911 0
M  V30 2320 C 210.82 -2.33497 -0.0122829 0
M  V30 2321 C 211.801 -1.49903 -0.803925 0
M  V30 2322 O 212.986 -1.78546 -0.763864 0
M  V30 2323 C 210.116 -3.33363 -0.973994 0
M  V30 2324 C 209.07 -4.27003 -0.291928 0
M  V30 2325 C 208.396 -5.16967 -1.36562 0
M  V30 2326 C 209.696 -5.15816 0.820462 0
M  V30 2327 H 211.39 -2.90038 0.742873 0
M  V30 2328 H 208.936 -1.39461 0.358688 0
M  V30 2329 H 210.889 -3.95524 -1.45392 0
M  V30 2330 H 209.613 -2.75095 -1.7604 0
M  V30 2331 H 208.272 -3.66217 0.167623 0
M  V30 2332 H 207.92 -4.55034 -2.14366 0
M  V30 2333 H 207.62 -5.80441 -0.914454 0
M  V30 2334 H 209.144 -5.82003 -1.84675 0
M  V30 2335 H 210.558 -5.71742 0.422366 0
M  V30 2336 H 208.955 -5.8805 1.19656 0
M  V30 2337 H 210.025 -4.55045 1.67518 0
M  V30 2338 N 211.368 -0.403325 -1.52352 0
M  V30 2339 C 212.315 0.425011 -2.26853 0
M  V30 2340 C 213.285 1.04598 -1.29029 0
M  V30 2341 O 214.47 1.07135 -1.57882 0
M  V30 2342 C 211.61 1.53888 -3.08889 0
M  V30 2343 C 210.723 0.939396 -4.21663 0
M  V30 2344 C 209.858 2.02547 -4.91068 0
M  V30 2345 C 208.897 1.40263 -5.95813 0
M  V30 2346 N 208.034 2.4286 -6.58759 0
M  V30 2347 H 212.874 -0.21674 -2.97211 0
M  V30 2348 H 210.411 -0.118722 -1.4662 0
M  V30 2349 H 212.369 2.19558 -3.54753 0
M  V30 2350 H 210.999 2.15074 -2.40714 0
M  V30 2351 H 210.051 0.171898 -3.80011 0
M  V30 2352 H 211.363 0.44436 -4.96817 0
M  V30 2353 H 210.517 2.75958 -5.40308 0
M  V30 2354 H 209.256 2.55415 -4.15469 0
M  V30 2355 H 208.261 0.653833 -5.45898 0
M  V30 2356 H 209.486 0.881719 -6.73352 0
M  V30 2357 H 207.432 2.94871 -5.85992 0
M  V30 2358 H 207.349 1.98152 -7.2957 0
M  V30 2359 H 208.617 3.15858 -7.12639 0
M  V30 2360 N 212.846 1.57033 -0.133567 0
M  V30 2361 C 214.076 1.99754 0.527429 0
M  V30 2362 C 214.484 1.01245 1.59832 0
M  V30 2363 O 213.827 -0.000645496 1.837 0
M  V30 2364 C 213.889 3.38903 1.19939 0
M  V30 2365 C 213.553 4.56174 0.274709 0
M  V30 2366 C 214.55 5.17563 -0.492398 0
M  V30 2367 C 212.235 5.01972 0.18153 0
M  V30 2368 C 214.229 6.2315 -1.34027 0
M  V30 2369 C 211.916 6.07416 -0.669958 0
M  V30 2370 C 212.914 6.67874 -1.42947 0
M  V30 2371 O 212.602 7.71279 -2.2668 0
M  V30 2372 H 212.334 0.660702 0.142999 0
M  V30 2373 H 214.888 2.04207 -0.221099 0
M  V30 2374 H 213.118 3.31248 1.99528 0
M  V30 2375 H 214.807 3.65818 1.75875 0
M  V30 2376 H 215.573 4.83087 -0.430367 0
M  V30 2377 H 211.452 4.54652 0.762422 0
M  V30 2378 H 214.996 6.70268 -1.93357 0
M  V30 2379 H 210.893 6.41321 -0.73333 0
M  V30 2380 H 211.661 7.88441 -2.1978 0
M  V30 2381 N 214.325 -0.140222 1.56975 0
M  V30 2382 C 215.602 -0.880769 1.74648 0
M  V30 2383 C 215.982 -1.99036 0.703404 0
M  V30 2384 O 215.33 -2.26821 -0.27648 0
M  V30 2385 C 215.54 -1.417 3.18939 0
M  V30 2386 C 216.888 -1.87774 3.80823 0
M  V30 2387 O 217.912 -1.51427 3.2241 0
M  V30 2388 O 216.771 -2.54827 4.83452 0
M  V30 2389 H 213.865 -0.416713 0.714338 0
M  V30 2390 H 216.411 -0.125618 1.69234 0
M  V30 2391 H 215.183 -0.619902 3.86359 0
M  V30 2392 H 214.806 -2.23546 3.28805 0
M  V30 2393 N 215.803 -1.52179 -0.40978 0
M  V30 2394 C 217.08 -1.56769 -1.16974 0
M  V30 2395 C 217.46 -0.348322 -2.08206 0
M  V30 2396 O 216.808 0.664862 -2.18613 0
M  V30 2397 C 217.018 -2.89603 -1.9476 0
M  V30 2398 C 218.366 -3.42579 -2.50849 0
M  V30 2399 O 219.39 -2.91338 -2.04941 0
M  V30 2400 O 218.249 -4.32054 -3.34652 0
M  V30 2401 H 215.343 -0.631439 -0.534054 0
M  V30 2402 H 217.889 -1.64507 -0.416613 0
M  V30 2403 H 216.661 -3.698 -1.27921 0
M  V30 2404 H 216.284 -2.85155 -2.77079 0
M  V30 2405 N 217.281 0.66697 -1.42791 0
M  V30 2406 C 218.228 1.7803 -1.4688 0
M  V30 2407 C 219.198 1.6299 -0.319919 0
M  V30 2408 O 220.383 1.83432 -0.525118 0
M  V30 2409 C 217.523 3.1611 -1.38451 0
M  V30 2410 C 216.636 3.42381 -2.63437 0
M  V30 2411 C 215.771 4.70232 -2.47094 0
M  V30 2412 C 214.81 4.89564 -3.67415 0
M  V30 2413 N 213.947 6.08661 -3.49966 0
M  V30 2414 H 218.787 1.7387 -2.42019 0
M  V30 2415 H 216.324 0.84868 -1.20149 0
M  V30 2416 H 218.282 3.95914 -1.31561 0
M  V30 2417 H 216.912 3.19374 -0.469033 0
M  V30 2418 H 215.964 2.56774 -2.80662 0
M  V30 2419 H 217.276 3.52557 -3.52853 0
M  V30 2420 H 216.43 5.5814 -2.37834 0
M  V30 2421 H 215.169 4.62353 -1.5518 0
M  V30 2422 H 214.174 4.00096 -3.77099 0
M  V30 2423 H 215.399 4.99282 -4.6032 0
M  V30 2424 H 213.345 6.0194 -2.60776 0
M  V30 2425 H 213.262 6.19733 -4.32975 0
M  V30 2426 H 214.53 6.99226 -3.44532 0
M  V30 2427 N 218.759 1.29093 0.90403 0
M  V30 2428 C 219.987 1.19689 1.68766 0
M  V30 2429 C 220.402 -0.243113 1.87228 0
M  V30 2430 O 219.759 -1.16326 1.40621 0
M  V30 2431 C 219.81 1.90144 3.07453 0
M  V30 2432 O 219.531 3.2852 2.89838 0
M  V30 2433 C 221.032 1.87162 4.01852 0
M  V30 2434 H 218.252 0.415035 0.527244 0
M  V30 2435 H 220.796 1.7039 1.13082 0
M  V30 2436 H 218.951 1.43289 3.59926 0
M  V30 2437 H 219.365 3.63944 3.77684 0
M  V30 2438 H 220.839 2.41032 4.96596 0
M  V30 2439 H 221.316 0.84617 4.30972 0
M  V30 2440 H 221.922 2.33741 3.5531 0
M  V30 2441 N 220.237 -1.11381 1.11499 0
M  V30 2442 C 221.514 -1.7955 0.775965 0
M  V30 2443 C 221.894 -1.97859 -0.73588 0
M  V30 2444 O 221.242 -1.56376 -1.66609 0
M  V30 2445 C 221.452 -3.13196 1.53977 0
M  V30 2446 C 222.8 -3.88227 1.71944 0
M  V30 2447 O 223.824 -3.22887 1.50407 0
M  V30 2448 O 222.683 -5.05477 2.07738 0
M  V30 2449 H 219.777 -0.777728 0.28119 0
M  V30 2450 H 222.323 -1.18118 1.21845 0
M  V30 2451 H 221.095 -2.95229 2.56818 0
M  V30 2452 H 220.718 -3.82342 1.09088 0
M  V30 2453 N 221.715 -0.905404 -1.28997 0
M  V30 2454 C 222.645 -0.404212 -2.29975 0
M  V30 2455 C 223.626 0.523784 -1.61835 0
M  V30 2456 O 224.811 0.433298 -1.89304 0
M  V30 2457 C 221.941 0.364042 -3.45387 0
M  V30 2458 C 220.895 -0.474048 -4.25367 0
M  V30 2459 C 220.221 0.422045 -5.33032 0
M  V30 2460 C 221.521 -1.72696 -4.92923 0
M  V30 2461 H 223.215 -1.24807 -2.72146 0
M  V30 2462 H 220.761 -0.601585 -1.30832 0
M  V30 2463 H 222.714 0.725447 -4.15109 0
M  V30 2464 H 221.438 1.24174 -3.02074 0
M  V30 2465 H 220.097 -0.81786 -3.57361 0
M  V30 2466 H 219.745 1.29804 -4.85963 0
M  V30 2467 H 219.445 -0.135057 -5.87445 0
M  V30 2468 H 220.969 0.779517 -6.05604 0
M  V30 2469 H 222.383 -1.43495 -5.55051 0
M  V30 2470 H 220.78 -2.22582 -5.57295 0
M  V30 2471 H 221.85 -2.45964 -4.17887 0
M  V30 2472 N 223.193 1.4272 -0.668489 0
M  V30 2473 C 224.125 2.2914 0.052613 0
M  V30 2474 C 225.138 1.43339 0.771857 0
M  V30 2475 O 226.327 1.67123 0.627067 0
M  V30 2476 C 223.427 3.20618 1.09804 0
M  V30 2477 C 222.6 4.35039 0.45389 0
M  V30 2478 C 221.659 5.07282 1.39825 0
M  V30 2479 O 220.685 5.62024 0.900978 0
M  V30 2480 N 221.887 5.12206 2.73176 0
M  V30 2481 H 224.652 2.91668 -0.689209 0
M  V30 2482 H 222.213 1.53577 -0.512422 0
M  V30 2483 H 224.205 3.65815 1.73094 0
M  V30 2484 H 222.775 2.59585 1.74167 0
M  V30 2485 H 221.995 3.92567 -0.358396 0
M  V30 2486 H 223.283 5.088 0.00486972 0
M  V30 2487 H 222.681 4.6913 3.16122 0
M  V30 2488 H 221.238 5.61069 3.31729 0
M  V30 2489 N 224.671 0.411399 1.52136 0
M  V30 2490 C 225.918 -0.163645 2.01838 0
M  V30 2491 C 226.246 -1.4495 1.29691 0
M  V30 2492 O 225.501 -1.91725 0.392431 0
M  V30 2493 C 225.8 -0.455872 3.54481 0
M  V30 2494 C 225.466 0.741055 4.44769 0
M  V30 2495 C 224.128 1.06936 4.69167 0
M  V30 2496 C 226.48 1.54075 4.97906 0
M  V30 2497 C 223.808 2.19851 5.43951 0
M  V30 2498 C 226.16 2.66067 5.73926 0
M  V30 2499 C 224.824 2.99381 5.96596 0
M  V30 2500 H 224.094 -0.0598821 0.738576 0
M  V30 2501 H 226.741 0.553283 1.83333 0
M  V30 2502 H 225.046 -1.2544 3.71177 0
M  V30 2503 H 226.743 -0.913802 3.90449 0
M  V30 2504 H 223.333 0.475192 4.25958 0
M  V30 2505 H 227.517 1.30033 4.78963 0
M  V30 2506 H 222.773 2.46006 5.59724 0
M  V30 2507 H 226.947 3.28419 6.14096 0
M  V30 2508 H 224.574 3.86992 6.54325 0
M  V30 2509 N 226.149 -1.5696 0.141893 0
M  V30 2510 C 227.059 -2.20066 -0.812905 0
M  V30 2511 C 228.075 -1.18344 -1.27557 0
M  V30 2512 O 229.251 -1.50902 -1.33381 0
M  V30 2513 C 226.316 -2.80583 -2.03652 0
M  V30 2514 C 225.377 -3.97414 -1.62359 0
M  V30 2515 C 224.61 -4.55036 -2.78887 0
M  V30 2516 O 224.833 -4.11538 -3.94959 0
M  V30 2517 O 223.767 -5.45376 -2.54653 0
M  V30 2518 H 227.593 -3.02157 -0.305746 0
M  V30 2519 H 225.178 -1.49159 -0.0848799 0
M  V30 2520 H 227.06 -3.19067 -2.75272 0
M  V30 2521 H 225.735 -2.01508 -2.5333 0
M  V30 2522 H 224.642 -3.63656 -0.877775 0
M  V30 2523 H 225.975 -4.77994 -1.17401 0
M  V30 2524 N 227.627 0.131896 -1.57047 0
M  V30 2525 C 228.59 1.14638 -1.98471 0
M  V30 2526 C 229.59 1.35029 -0.873148 0
M  V30 2527 O 230.78 1.31764 -1.13946 0
M  V30 2528 C 227.912 2.50358 -2.31373 0
M  V30 2529 H 229.105 0.79064 -2.8929 0
M  V30 2530 H 226.658 0.375761 -1.51716 0
M  V30 2531 H 227.393 2.90876 -1.43393 0
M  V30 2532 H 227.178 2.36915 -3.12432 0
M  V30 2533 H 228.668 3.23395 -2.64207 0
M  V30 2534 N 229.106 1.52395 0.401703 0
M  V30 2535 C 230.069 1.75636 1.47257 0
M  V30 2536 C 231.069 0.62628 1.48103 0
M  V30 2537 O 232.259 0.894227 1.49497 0
M  V30 2538 C 229.391 1.84553 2.86624 0
M  V30 2539 H 230.584 2.71241 1.27938 0
M  V30 2540 H 228.137 1.42923 0.632662 0
M  V30 2541 H 228.872 0.908882 3.11303 0
M  V30 2542 H 228.657 2.66715 2.87412 0
M  V30 2543 H 230.147 2.04251 3.64241 0
M  V30 2544 N 230.584 -0.659388 1.43143 0
M  V30 2545 C 231.83 -1.41984 1.45644 0
M  V30 2546 C 232.185 -1.92245 0.0771718 0
M  V30 2547 O 231.478 -1.68976 -0.903205 0
M  V30 2548 C 231.672 -2.62206 2.42864 0
M  V30 2549 C 231.501 -2.23711 3.90107 0
M  V30 2550 C 230.271 -2.12332 4.58523 0
M  V30 2551 C 232.469 -1.84384 4.80112 0
M  V30 2552 N 230.451 -1.67102 5.9072 0
M  V30 2553 C 231.822 -1.5019 6.01534 0
M  V30 2554 C 233.877 -1.71512 4.67427 0
M  V30 2555 C 232.58 -1.04414 7.11681 0
M  V30 2556 C 234.606 -1.27142 5.77572 0
M  V30 2557 C 233.968 -0.938808 6.98116 0
M  V30 2558 H 230.067 -0.515448 0.588079 0
M  V30 2559 H 232.651 -0.759409 1.79279 0
M  V30 2560 H 230.822 -3.25917 2.11265 0
M  V30 2561 H 232.554 -3.28877 2.35843 0
M  V30 2562 H 229.309 -2.31893 4.12944 0
M  V30 2563 H 229.733 -1.46866 6.60878 0
M  V30 2564 H 234.375 -1.95868 3.74694 0
M  V30 2565 H 232.093 -0.788061 8.04248 0
M  V30 2566 H 235.679 -1.17681 5.69774 0
M  V30 2567 H 234.559 -0.6007 7.81896 0
M  V30 2568 N 232.062 -1.29571 -0.897171 0
M  V30 2569 C 233.308 -1.17863 -1.65034 0
M  V30 2570 C 233.641 0.268729 -1.92332 0
M  V30 2571 O 232.916 1.19378 -1.53555 0
M  V30 2572 C 233.199 -1.995 -2.99786 0
M  V30 2573 C 233.052 -3.5239 -2.79538 0
M  V30 2574 C 234.371 -1.82335 -4.00552 0
M  V30 2575 H 231.49 -0.429528 -0.598895 0
M  V30 2576 H 234.132 -1.59072 -1.03905 0
M  V30 2577 H 232.282 -1.64485 -3.51962 0
M  V30 2578 H 233.954 -3.97401 -2.34244 0
M  V30 2579 H 232.197 -3.77187 -2.14273 0
M  V30 2580 H 232.868 -4.04787 -3.75302 0
M  V30 2581 H 235.344 -2.12924 -3.57495 0
M  V30 2582 H 234.22 -2.41801 -4.92771 0
M  V30 2583 H 234.481 -0.779209 -4.35179 0
M  V30 2584 N 233.54 1.10788 -1.12088 0
M  V30 2585 C 234.789 1.82036 -0.868659 0
M  V30 2586 C 235.102 1.85929 0.607426 0
M  V30 2587 O 236.308 2.53346 0.97613 0
M  V30 2588 C 234.764 3.26951 -1.50435 0
M  V30 2589 C 234.372 3.31367 -3.01496 0
M  V30 2590 C 236.116 4.03053 -1.33225 0
M  V30 2591 C 234.023 4.7072 -3.58017 0
M  V30 2592 H 232.953 0.682108 -0.321318 0
M  V30 2593 H 235.604 1.24618 -1.34694 0
M  V30 2594 H 233.986 3.84343 -0.953735 0
M  V30 2595 H 235.16 2.83819 -3.6302 0
M  V30 2596 H 233.475 2.6875 -3.18061 0
M  V30 2597 H 236.072 5.05981 -1.72878 0
M  V30 2598 H 236.415 4.15387 -0.275529 0
M  V30 2599 H 236.948 3.52066 -1.85188 0
M  V30 2600 H 233.687 4.63585 -4.63432 0
M  V30 2601 H 233.207 5.1865 -3.01268 0
M  V30 2602 H 234.886 5.39685 -3.56859 0
M  V30 2603 N 235.018 0.912232 1.28515 0
M  V30 2604 C 236.246 0.560416 1.99166 0
M  V30 2605 C 236.661 -0.857927 1.68182 0
M  V30 2606 O 236.018 -1.56805 0.933733 0
M  V30 2607 C 236.069 0.758142 3.53461 0
M  V30 2608 O 235.79 2.12067 3.83352 0
M  V30 2609 C 237.291 0.412954 4.41372 0
M  V30 2610 H 234.511 0.213805 0.636026 0
M  V30 2611 H 237.055 1.22502 1.63749 0
M  V30 2612 H 235.21 0.140556 3.87145 0
M  V30 2613 H 235.624 2.15923 4.77993 0
M  V30 2614 H 237.098 0.60208 5.48707 0
M  V30 2615 H 237.575 -0.65073 4.34353 0
M  V30 2616 H 238.181 1.00802 4.13182 0
M  V30 2617 N 236.496 -1.42363 0.676048 0
M  V30 2618 C 237.444 -2.32596 -0.0131507 0
M  V30 2619 C 238.438 -1.49891 -0.789238 0
M  V30 2620 O 239.644 -1.65955 -0.697061 0
M  V30 2621 H 236.019 -0.751647 -0.0230481 0
M  V30 2622 H 237.99 -2.88421 0.765243 0
M  V30 2623 C 236.739 -3.34479 -0.949702 0
M  V30 2624 H 236.062 -3.98158 -0.361938 0
M  V30 2625 H 237.502 -4.00199 -1.4006 0
M  V30 2626 C 235.961 -2.66838 -2.05667 0
M  V30 2627 O 236.491 -2.50124 -3.14326 0
M  V30 2628 N 234.697 -2.25843 -1.82875 0
M  V30 2629 H 234.244 -2.39637 -0.945085 0
M  V30 2630 H 234.202 -1.80918 -2.5713 0
M  V30 2631 N 237.974 -0.419461 -1.51915 0
M  V30 2632 C 239.223 0.154346 -2.01109 0
M  V30 2633 C 239.536 1.45338 -1.30905 0
M  V30 2634 O 240.742 2.10906 -1.7097 0
M  V30 2635 C 239.198 0.325615 -3.58424 0
M  V30 2636 C 238.806 -0.961934 -4.37551 0
M  V30 2637 C 240.55 0.854155 -4.15818 0
M  V30 2638 C 238.457 -0.757287 -5.86531 0
M  V30 2639 H 237.387 0.0614563 -0.751491 0
M  V30 2640 H 240.038 -0.54649 -1.75173 0
M  V30 2641 H 238.42 1.08903 -3.80731 0
M  V30 2642 H 239.594 -1.7323 -4.26999 0
M  V30 2643 H 237.909 -1.41766 -3.91524 0
M  V30 2644 H 240.506 1.02346 -5.24814 0
M  V30 2645 H 240.849 1.83172 -3.73837 0
M  V30 2646 H 241.382 0.149528 -3.97519 0
M  V30 2647 H 238.121 -1.70671 -6.32892 0
M  V30 2648 H 237.641 -0.0264061 -5.99794 0
M  V30 2649 H 239.32 -0.403482 -6.45741 0
M  V30 2650 N 239.452 1.56882 -0.150215 0
M  V30 2651 C 240.415 2.1573 0.774157 0
M  V30 2652 C 241.415 1.0999 1.17298 0
M  V30 2653 O 242.605 1.35613 1.09338 0
M  V30 2654 C 239.737 2.72302 2.05096 0
M  V30 2655 H 240.93 2.98752 0.262201 0
M  V30 2656 H 238.483 1.55985 0.099248 0
M  V30 2657 H 239.218 1.92956 2.6065 0
M  V30 2658 H 239.003 3.49665 1.77416 0
M  V30 2659 H 240.493 3.17632 2.71109 0
M  V30 2660 N 240.93 -0.123565 1.57115 0
M  V30 2661 C 242.155 -0.850398 1.89164 0
M  V30 2662 C 242.58 -1.7286 0.741688 0
M  V30 2663 O 241.938 -1.78665 -0.307958 0
M  V30 2664 C 241.986 -1.66353 3.19936 0
M  V30 2665 O 241.09 -2.77004 3.0552 0
M  V30 2666 H 240.431 -0.235454 0.620852 0
M  V30 2667 H 242.961 -0.107335 2.04318 0
M  V30 2668 H 242.971 -2.05372 3.52543 0
M  V30 2669 H 241.646 -1.01881 4.03228 0
M  V30 2670 H 240.223 -2.41221 2.84371 0
M  V30 2671 N 242.408 -1.52605 -0.393616 0
M  V30 2672 C 243.656 -1.67093 -1.13685 0
M  V30 2673 C 243.977 -0.411011 -1.90619 0
M  V30 2674 O 243.247 0.574491 -1.87287 0
M  V30 2675 H 241.827 -0.615923 -0.422668 0
M  V30 2676 H 244.489 -1.89704 -0.447039 0
M  V30 2677 H 243.585 -2.51922 -1.84232 0
M  V30 2678 N 243.887 0.651787 -1.4349 0
M  V30 2679 C 245.112 1.44434 -1.48841 0
M  V30 2680 C 245.537 1.8779 -0.107955 0
M  V30 2681 O 244.895 1.57464 0.898602 0
M  V30 2682 C 244.943 2.65458 -2.44059 0
M  V30 2683 O 244.047 3.64566 -1.92784 0
M  V30 2684 H 243.388 0.433005 -0.503391 0
M  V30 2685 H 245.918 0.797451 -1.88419 0
M  V30 2686 H 245.928 3.13255 -2.6141 0
M  V30 2687 H 244.603 2.33244 -3.4434 0
M  V30 2688 H 243.18 3.23716 -1.851 0
M  V30 2689 N 245.365 1.30045 0.890287 0
M  V30 2690 C 246.297 1.11786 2.00091 0
M  V30 2691 C 247.31 0.0626307 1.62679 0
M  V30 2692 O 248.499 0.308112 1.75821 0
M  V30 2693 C 245.599 0.681527 3.31977 0
M  V30 2694 C 244.772 1.81735 3.97858 0
M  V30 2695 C 243.831 1.37045 5.08041 0
M  V30 2696 O 242.857 2.07677 5.29961 0
M  V30 2697 N 244.059 0.246525 5.79976 0
M  V30 2698 H 246.824 2.07441 2.16306 0
M  V30 2699 H 244.385 1.2211 1.06305 0
M  V30 2700 H 246.377 0.365675 4.03045 0
M  V30 2701 H 244.947 -0.182828 3.12065 0
M  V30 2702 H 244.167 2.30159 3.20032 0
M  V30 2703 H 245.455 2.57865 4.38615 0
M  V30 2704 H 244.853 -0.34215 5.64664 0
M  V30 2705 H 243.41 -0.00990438 6.51799 0
M  V30 2706 N 246.843 -1.10192 1.12674 0
M  V30 2707 C 247.753 -2.20172 0.810026 0
M  V30 2708 C 248.769 -1.72821 -0.202188 0
M  V30 2709 O 249.945 -2.01369 -0.0351691 0
M  V30 2710 C 247.01 -3.45631 0.272007 0
M  V30 2711 C 246.071 -4.07704 1.34447 0
M  V30 2712 C 245.304 -5.27175 0.832029 0
M  V30 2713 O 245.527 -5.69425 -0.333284 0
M  V30 2714 O 244.461 -5.80168 1.60277 0
M  V30 2715 H 248.287 -2.49701 1.72867 0
M  V30 2716 H 245.872 -1.18977 0.903597 0
M  V30 2717 H 247.754 -4.21394 -0.0230219 0
M  V30 2718 H 246.429 -3.17723 -0.619164 0
M  V30 2719 H 245.336 -3.33614 1.6927 0
M  V30 2720 H 246.669 -4.3982 2.2095 0
M  V30 2721 N 248.321 -0.919034 -1.28029 0
M  V30 2722 C 249.253 -0.368762 -2.26214 0
M  V30 2723 C 250.266 0.495716 -1.55069 0
M  V30 2724 O 251.455 0.30974 -1.75792 0
M  V30 2725 C 248.555 0.491049 -3.35324 0
M  V30 2726 C 247.728 -0.352133 -4.3598 0
M  V30 2727 C 246.787 0.443622 -5.24327 0
M  V30 2728 O 245.813 -0.14566 -5.69014 0
M  V30 2729 N 247.015 1.74545 -5.53637 0
M  V30 2730 H 249.78 -1.21273 -2.74068 0
M  V30 2731 H 247.341 -0.785541 -1.41566 0
M  V30 2732 H 249.333 1.03026 -3.91366 0
M  V30 2733 H 247.903 1.23574 -2.87138 0
M  V30 2734 H 247.123 -1.07269 -3.79324 0
M  V30 2735 H 248.411 -0.928883 -5.00249 0
M  V30 2736 H 247.809 2.24666 -5.19174 0
M  V30 2737 H 246.366 2.23138 -6.12416 0
M  V30 2738 N 249.799 1.42003 -0.683588 0
M  V30 2739 C 251.027 2.05746 -0.218182 0
M  V30 2740 C 251.442 1.51396 1.12804 0
M  V30 2741 O 250.799 0.657303 1.70252 0
M  V30 2742 C 250.85 3.61171 -0.154131 0
M  V30 2743 O 250.571 4.13508 -1.44716 0
M  V30 2744 C 252.072 4.42042 0.333713 0
M  V30 2745 H 249.292 0.662888 -0.10402 0
M  V30 2746 H 251.836 1.81987 -0.9328 0
M  V30 2747 H 249.991 3.84012 0.511231 0
M  V30 2748 H 250.405 5.07453 -1.32632 0
M  V30 2749 H 251.879 5.51028 0.327423 0
M  V30 2750 H 252.356 4.17269 1.37053 0
M  V30 2751 H 252.962 4.24239 -0.300222 0
M  V30 2752 N 251.277 0.427512 1.51691 0
M  V30 2753 C 252.224 -0.388867 2.275 0
M  V30 2754 C 253.194 -1.02532 1.30677 0
M  V30 2755 O 254.379 -1.0461 1.59566 0
M  V30 2756 C 251.519 -1.48954 3.11298 0
M  V30 2757 C 250.632 -0.872194 4.23104 0
M  V30 2758 C 249.767 -1.94709 4.94228 0
M  V30 2759 C 248.806 -1.30766 5.97969 0
M  V30 2760 N 247.943 -2.32349 6.62539 0
M  V30 2761 H 252.783 0.263997 2.96828 0
M  V30 2762 H 250.32 0.142033 1.46413 0
M  V30 2763 H 252.278 -2.13887 3.58201 0
M  V30 2764 H 250.908 -2.11217 2.44105 0
M  V30 2765 H 249.96 -0.111419 3.80237 0
M  V30 2766 H 251.272 -0.365264 4.97461 0
M  V30 2767 H 250.426 -2.67327 5.44629 0
M  V30 2768 H 249.165 -2.48773 4.1948 0
M  V30 2769 H 248.17 -0.566902 5.4687 0
M  V30 2770 H 249.395 -0.774483 6.74669 0
M  V30 2771 H 247.341 -2.85511 5.90609 0
M  V30 2772 H 247.258 -1.8652 7.3263 0
M  V30 2773 H 248.526 -3.04481 7.17574 0
M  V30 2774 N 252.755 -1.56801 0.158532 0
M  V30 2775 C 254.001 -1.96781 -0.490405 0
M  V30 2776 C 254.334 -1.04397 -1.63753 0
M  V30 2777 O 253.609 -0.0885805 -1.94298 0
M  V30 2778 C 253.892 -3.4635 -0.985594 0
M  V30 2779 C 253.745 -4.49512 0.160824 0
M  V30 2780 C 255.064 -3.98697 -1.86355 0
M  V30 2781 H 252.183 -0.715482 -0.176788 0
M  V30 2782 H 254.825 -1.88451 0.242088 0
M  V30 2783 H 252.975 -3.53579 -1.60978 0
M  V30 2784 H 254.647 -4.54353 0.797537 0
M  V30 2785 H 252.89 -4.26013 0.818256 0
M  V30 2786 H 253.561 -5.51531 -0.227569 0
M  V30 2787 H 256.037 -3.94019 -1.33746 0
M  V30 2788 H 254.913 -5.03792 -2.17909 0
M  V30 2789 H 255.174 -3.41744 -2.8047 0
M  V30 2790 N 254.233 0.115231 -1.57178 0
M  V30 2791 C 255.479 0.82357 -1.85325 0
M  V30 2792 C 255.812 1.79349 -0.744814 0
M  V30 2793 O 255.087 1.92899 0.249024 0
M  V30 2794 C 255.37 1.57014 -3.24066 0
M  V30 2795 C 255.223 0.619565 -4.45513 0
M  V30 2796 C 256.542 2.52545 -3.60429 0
M  V30 2797 H 253.661 0.297948 -0.674089 0
M  V30 2798 H 256.303 0.0877138 -1.89797 0
M  V30 2799 H 254.453 2.19742 -3.20383 0
M  V30 2800 H 256.125 0.000837639 -4.613 0
M  V30 2801 H 254.368 -0.0686174 -4.33746 0
M  V30 2802 H 255.039 1.17866 -5.3927 0
M  V30 2803 H 257.515 1.9992 -3.64926 0
M  V30 2804 H 256.391 3.01811 -4.58477 0
M  V30 2805 H 256.652 3.35383 -2.88047 0
M  V30 2806 N 255.711 1.52812 0.385517 0
M  V30 2807 C 256.96 1.67249 1.12741 0
M  V30 2808 C 257.273 0.4205 1.91027 0
M  V30 2809 O 258.479 0.445064 2.67827 0
M  V30 2810 C 256.935 2.95583 2.05326 0
M  V30 2811 C 256.543 4.27974 1.32447 0
M  V30 2812 C 258.287 3.19386 2.7963 0
M  V30 2813 C 256.194 5.47412 2.23818 0
M  V30 2814 H 255.124 0.6231 0.424573 0
M  V30 2815 H 257.775 1.79309 0.389924 0
M  V30 2816 H 256.157 2.77277 2.82725 0
M  V30 2817 H 257.331 4.56844 0.602495 0
M  V30 2818 H 255.646 4.10459 0.700885 0
M  V30 2819 H 258.243 4.05801 3.48181 0
M  V30 2820 H 258.586 2.34604 3.43899 0
M  V30 2821 H 259.119 3.38274 2.09322 0
M  V30 2822 H 255.858 6.34612 1.64157 0
M  V30 2823 H 255.378 5.22849 2.93921 0
M  V30 2824 H 257.057 5.81423 2.83824 0
M  V30 2825 N 257.189 -0.644168 1.43834 0
M  V30 2826 C 258.466 -1.40188 1.36406 0
M  V30 2827 C 258.846 -2.11094 0.0163124 0
M  V30 2828 O 258.194 -2.05426 -1.00062 0
M  V30 2829 C 258.404 -2.3791 2.55343 0
M  V30 2830 C 259.752 -3.01637 2.98832 0
M  V30 2831 O 260.776 -2.48237 2.55455 0
M  V30 2832 O 259.635 -3.98477 3.74003 0
M  V30 2833 H 256.729 -0.626773 0.539523 0
M  V30 2834 H 259.275 -0.670317 1.559 0
M  V30 2835 H 258.047 -1.84525 3.4506 0
M  V30 2836 H 257.67 -3.18503 2.37995 0
M  V30 2837 N 258.668 -1.30515 -0.883378 0
M  V30 2838 C 259.616 -1.16941 -2.01066 0
M  V30 2839 C 260.61 -0.0809148 -1.69207 0
M  V30 2840 O 261.816 -0.241877 -1.78367 0
M  V30 2841 H 258.191 -0.361705 -0.659298 0
M  V30 2842 H 260.162 -2.12344 -2.09649 0
M  V30 2843 C 258.911 -0.879694 -3.36388 0
M  V30 2844 H 258.234 -1.70936 -3.61415 0
M  V30 2845 H 259.674 -0.82483 -4.159 0
M  V30 2846 C 258.133 0.417409 -3.34304 0
M  V30 2847 O 258.663 1.43843 -3.75063 0
M  V30 2848 N 256.869 0.429141 -2.87414 0
M  V30 2849 H 256.416 -0.402222 -2.5444 0
M  V30 2850 H 256.374 1.29696 -2.86403 0
M  V30 2851 N 260.146 1.09593 -1.13257 0
M  V30 2852 C 261.094 2.18271 -0.803783 0
M  V30 2853 C 262.088 1.68054 0.213148 0
M  V30 2854 O 263.294 1.79862 0.0704699 0
M  V30 2855 H 259.669 0.711949 -0.242143 0
M  V30 2856 H 261.64 2.43235 -1.72856 0
M  V30 2857 C 260.389 3.46536 -0.28424 0
M  V30 2858 H 259.712 3.85545 -1.05807 0
M  V30 2859 H 261.152 4.23899 -0.0925945 0
M  V30 2860 C 259.611 3.22036 0.989684 0
M  V30 2861 O 260.141 3.44509 2.06584 0
M  V30 2862 N 258.347 2.7565 0.920086 0
M  V30 2863 H 257.894 2.57562 0.0442019 0
M  V30 2864 H 257.852 2.59635 1.77306 0
M  V30 2865 N 261.624 0.925811 1.2754 0
M  V30 2866 C 262.587 0.428129 2.25166 0
M  V30 2867 C 263.587 -0.452261 1.54309 0
M  V30 2868 O 264.777 -0.253608 1.72344 0
M  V30 2869 C 261.909 -0.384749 3.38722 0
M  V30 2870 H 263.102 1.29066 2.70706 0
M  V30 2871 H 260.655 0.706323 1.3943 0
M  V30 2872 H 261.39 -1.26618 2.98561 0
M  V30 2873 H 261.175 0.246454 3.91325 0
M  V30 2874 H 262.665 -0.723389 4.11287 0
M  V30 2875 N 263.102 -1.41638 0.69111 0
M  V30 2876 C 264.348 -2.01598 0.220519 0
M  V30 2877 C 264.681 -1.54594 -1.17535 0
M  V30 2878 O 263.956 -0.755177 -1.79241 0
M  V30 2879 C 264.239 -3.59062 0.273243 0
M  V30 2880 C 264.092 -4.16203 1.70573 0
M  V30 2881 C 265.411 -4.38546 -0.369457 0
M  V30 2882 H 262.53 -0.732468 0.0816045 0
M  V30 2883 H 265.172 -1.68445 0.878986 0
M  V30 2884 H 263.322 -3.87435 -0.287411 0
M  V30 2885 H 264.994 -3.98722 2.31989 0
M  V30 2886 H 263.237 -3.71414 2.2413 0
M  V30 2887 H 263.908 -5.25358 1.69419 0
M  V30 2888 H 266.384 -4.1596 0.107977 0
M  V30 2889 H 265.26 -5.48069 -0.302002 0
M  V30 2890 H 265.521 -4.17662 -1.44951 0
M  V30 2891 N 264.58 -0.43555 -1.51462 0
M  V30 2892 C 265.991 0.0279871 -1.86679 0
M  V30 2893 C 266.342 1.42104 -1.35281 0
M  V30 2894 O 265.467 2.04667 -0.702878 0
M  V30 2895 C 266.062 0.0575626 -3.38751 0
M  V30 2896 C 264.621 0.465507 -3.7351 0
M  V30 2897 C 263.768 -0.342996 -2.75171 0
M  V30 2898 H 266.719 -0.651473 -1.44712 0
M  V30 2899 H 266.74 0.867421 -3.70481 0
M  V30 2900 H 266.252 -0.956448 -3.7613 0
M  V30 2901 H 264.353 1.48519 -3.41721 0
M  V30 2902 H 264.466 0.191546 -4.78717 0
M  V30 2903 H 262.83 0.198442 -2.53926 0
M  V30 2904 H 263.613 -1.35585 -3.15391 0
M  V30 2905 N 266.058 1.56714 -0.166846 0
M  V30 2906 C 267.008 2.14338 0.777382 0
M  V30 2907 C 267.992 1.07642 1.19591 0
M  V30 2908 O 269.184 1.33775 1.15902 0
M  V30 2909 C 266.313 2.78417 2.00846 0
M  V30 2910 C 265.399 3.92264 1.61212 0
M  V30 2911 N 265.79 4.97268 0.925104 0
M  V30 2912 C 264.088 4.03342 1.90346 0
M  V30 2913 C 264.789 5.77093 0.730627 0
M  V30 2914 N 263.765 5.2854 1.27067 0
M  V30 2915 H 267.567 2.9289 0.243466 0
M  V30 2916 H 265.081 1.62364 0.0339954 0
M  V30 2917 H 267.078 3.18073 2.69509 0
M  V30 2918 H 265.738 2.01344 2.54736 0
M  V30 2919 H 266.749 5.14601 0.583646 0
M  V30 2920 H 263.426 3.37368 2.45946 0
M  V30 2921 H 264.816 6.71638 0.187668 0
M  V30 2922 N 267.536 -0.106894 1.57237 0
M  V30 2923 C 268.466 -1.13148 2.04254 0
M  V30 2924 C 269.447 -1.42476 0.929224 0
M  V30 2925 O 270.632 -1.52709 1.19973 0
M  V30 2926 C 267.762 -2.4545 2.45706 0
M  V30 2927 C 266.716 -2.30558 3.60592 0
M  V30 2928 C 266.042 -3.67931 3.87983 0
M  V30 2929 C 267.342 -1.75597 4.91897 0
M  V30 2930 H 269.036 -0.740374 2.90101 0
M  V30 2931 H 266.582 -0.354696 1.39563 0
M  V30 2932 H 268.535 -3.17389 2.77205 0
M  V30 2933 H 267.259 -2.86475 1.56843 0
M  V30 2934 H 265.918 -1.61067 3.29322 0
M  V30 2935 H 265.566 -4.06462 2.96306 0
M  V30 2936 H 265.266 -3.58817 4.65322 0
M  V30 2937 H 266.79 -4.41356 4.21945 0
M  V30 2938 H 268.204 -2.37364 5.21854 0
M  V30 2939 H 266.601 -1.77272 5.73319 0
M  V30 2940 H 267.671 -0.714451 4.79608 0
M  V30 2941 N 269.014 -1.53014 -0.377408 0
M  V30 2942 C 270.26 -1.68872 -1.12294 0
M  V30 2943 C 270.593 -0.433224 -1.89306 0
M  V30 2944 O 269.868 0.569258 -1.85983 0
M  V30 2945 C 270.151 -2.93115 -2.09179 0
M  V30 2946 C 270.004 -4.28794 -1.35853 0
M  V30 2947 C 271.323 -3.12928 -3.09458 0
M  V30 2948 H 268.442 -0.614518 -0.406862 0
M  V30 2949 H 271.084 -1.85633 -0.40503 0
M  V30 2950 H 269.234 -2.78956 -2.70399 0
M  V30 2951 H 270.906 -4.54742 -0.775082 0
M  V30 2952 H 269.149 -4.28744 -0.660364 0
M  V30 2953 H 269.82 -5.11837 -2.06706 0
M  V30 2954 H 272.296 -3.26194 -2.58334 0
M  V30 2955 H 271.172 -4.01316 -3.74482 0
M  V30 2956 H 271.433 -2.27669 -3.78971 0
M  V30 2957 N 270.492 0.636531 -1.44174 0
M  V30 2958 C 271.908 0.954104 -1.27941 0
M  V30 2959 C 272.108 2.0039 -0.211248 0
M  V30 2960 O 271.164 2.49236 0.404695 0
M  V30 2961 C 272.477 1.4225 -2.64925 0
M  V30 2962 C 274.025 1.53827 -2.72592 0
M  V30 2963 C 274.5 2.04053 -4.10032 0
M  V30 2964 N 275.991 2.11331 -4.12182 0
M  V30 2965 C 276.726 2.51352 -5.15374 0
M  V30 2966 N 276.222 2.90549 -6.2893 0
M  V30 2967 N 278.015 2.51438 -5.02728 0
M  V30 2968 H 270.166 -0.0578386 -2.12321 0
M  V30 2969 H 272.429 0.0367406 -0.947288 0
M  V30 2970 H 272.135 0.725466 -3.44136 0
M  V30 2971 H 272.009 2.39451 -2.9145 0
M  V30 2972 H 274.396 2.22628 -1.93702 0
M  V30 2973 H 274.477 0.550154 -2.49814 0
M  V30 2974 H 274.121 1.35848 -4.89395 0
M  V30 2975 H 274.051 3.03726 -4.30184 0
M  V30 2976 H 276.542 1.83745 -3.30222 0
M  V30 2977 H 276.855 3.19884 -7.03487 0
M  V30 2978 H 275.2 2.88313 -6.32377 0
M  V30 2979 H 278.391 2.20203 -4.13072 0
M  V30 2980 H 278.564 2.82304 -5.83274 0
M  V30 2981 N 271.97 1.30982 0.876444 0
M  V30 2982 C 272.9 1.20668 1.99903 0
M  V30 2983 C 273.881 0.095354 1.69833 0
M  V30 2984 O 275.066 0.27885 1.92188 0
M  V30 2985 C 272.196 0.90655 3.3526 0
M  V30 2986 C 271.15 1.97675 3.79617 0
M  V30 2987 C 270.476 1.52943 5.1236 0
M  V30 2988 C 271.776 3.389 3.97422 0
M  V30 2989 H 273.47 2.14586 2.0879 0
M  V30 2990 H 271.016 1.03308 1.00317 0
M  V30 2991 H 272.969 0.821025 4.13324 0
M  V30 2992 H 271.693 -0.0682969 3.26529 0
M  V30 2993 H 270.352 2.05205 3.03787 0
M  V30 2994 H 270 0.54262 5.00065 0
M  V30 2995 H 269.7 2.24532 5.43009 0
M  V30 2996 H 271.224 1.45786 5.92941 0
M  V30 2997 H 272.638 3.34081 4.659 0
M  V30 2998 H 271.035 4.0865 4.3946 0
M  V30 2999 H 272.105 3.80163 3.01006 0
M  V30 3000 N 273.449 -1.08991 1.13837 0
M  V30 3001 C 274.379 -2.17771 0.842507 0
M  V30 3002 C 275.36 -1.6892 -0.20001 0
M  V30 3003 O 276.545 -1.94113 -0.0579731 0
M  V30 3004 C 273.675 -3.4589 0.312644 0
M  V30 3005 C 272.629 -4.08099 1.28992 0
M  V30 3006 C 271.955 -5.31098 0.619623 0
M  V30 3007 C 273.255 -4.50077 2.65005 0
M  V30 3008 H 274.949 -2.42777 1.75213 0
M  V30 3009 H 272.495 -1.16682 0.843875 0
M  V30 3010 H 274.448 -4.21297 0.0933043 0
M  V30 3011 H 273.172 -3.20419 -0.632382 0
M  V30 3012 H 271.831 -3.34717 1.49533 0
M  V30 3013 H 271.479 -5.0191 -0.33102 0
M  V30 3014 H 271.179 -5.73674 1.27167 0
M  V30 3015 H 272.703 -6.09224 0.409669 0
M  V30 3016 H 274.117 -5.16688 2.48407 0
M  V30 3017 H 272.514 -5.03553 3.26427 0
M  V30 3018 H 273.584 -3.62257 3.22332 0
M  V30 3019 N 274.927 -0.932562 -1.27047 0
M  V30 3020 C 276.152 -0.591474 -1.98787 0
M  V30 3021 C 276.577 0.824601 -1.69062 0
M  V30 3022 O 275.935 1.5541 -0.933677 0
M  V30 3023 C 275.983 -0.829808 -3.50922 0
M  V30 3024 O 275.087 0.102266 -4.12273 0
M  V30 3025 H 274.428 -0.227185 -0.623926 0
M  V30 3026 H 276.958 -1.25314 -1.61733 0
M  V30 3027 H 276.968 -0.747292 -4.01098 0
M  V30 3028 H 275.643 -1.86201 -3.7189 0
M  V30 3029 H 274.22 -0.0305761 -3.72887 0
M  V30 3030 N 276.405 1.4127 -0.698611 0
M  V30 3031 C 277.63 2.06024 -0.238512 0
M  V30 3032 C 278.055 1.5224 1.10475 0
M  V30 3033 O 277.413 0.650623 1.69223 0
M  V30 3034 C 277.461 3.59988 -0.209952 0
M  V30 3035 O 276.565 4.04282 0.814235 0
M  V30 3036 H 275.906 0.653829 -0.115775 0
M  V30 3037 H 278.436 1.8098 -0.954326 0
M  V30 3038 H 278.446 4.07979 -0.0418436 0
M  V30 3039 H 277.121 3.98503 -1.1903 0
M  V30 3040 H 275.698 3.6779 0.615234 0
M  V30 3041 N 277.883 0.443576 1.51229 0
M  V30 3042 C 278.793 -0.370721 2.31652 0
M  V30 3043 C 279.809 -1.02186 1.40833 0
M  V30 3044 O 280.985 -1.01586 1.73903 0
M  V30 3045 C 278.05 -1.45376 3.14749 0
M  V30 3046 C 277.111 -0.822099 4.21355 0
M  V30 3047 C 276.344 -1.85353 5.0048 0
M  V30 3048 O 276.567 -3.07656 4.80316 0
M  V30 3049 O 275.501 -1.4406 5.84406 0
M  V30 3050 H 279.327 0.286002 3.0235 0
M  V30 3051 H 276.912 0.20598 1.47973 0
M  V30 3052 H 278.794 -2.08173 3.66391 0
M  V30 3053 H 277.469 -2.09445 2.46809 0
M  V30 3054 H 276.376 -0.155909 3.73775 0
M  V30 3055 H 277.709 -0.224797 4.91686 0
M  V30 3056 N 279.361 -1.56624 0.175154 0
M  V30 3057 C 280.308 -2.18149 -0.753634 0
M  V30 3058 C 281.278 -1.12265 -1.22417 0
M  V30 3059 O 282.463 -1.40432 -1.29165 0
M  V30 3060 C 279.603 -2.82933 -1.97592 0
M  V30 3061 C 278.716 -4.03289 -1.5486 0
M  V30 3062 C 277.851 -4.55988 -2.72485 0
M  V30 3063 C 276.89 -5.68746 -2.26262 0
M  V30 3064 N 276.027 -6.15938 -3.36994 0
M  V30 3065 H 280.867 -2.9717 -0.222195 0
M  V30 3066 H 278.404 -1.46774 -0.0979422 0
M  V30 3067 H 280.362 -3.18653 -2.69288 0
M  V30 3068 H 278.992 -2.06509 -2.481 0
M  V30 3069 H 278.044 -3.73364 -0.728246 0
M  V30 3070 H 279.356 -4.849 -1.16933 0
M  V30 3071 H 278.51 -4.9391 -3.52332 0
M  V30 3072 H 277.249 -3.73443 -3.13674 0
M  V30 3073 H 276.254 -5.30372 -1.44863 0
M  V30 3074 H 277.479 -6.53095 -1.86127 0
M  V30 3075 H 275.425 -5.36321 -3.77751 0
M  V30 3076 H 275.342 -6.92548 -3.03172 0
M  V30 3077 H 276.61 -6.58511 -4.17114 0
M  V30 3078 N 280.839 0.0985539 -1.57292 0
M  V30 3079 C 281.749 1.13824 -2.05137 0
M  V30 3080 C 282.765 1.44076 -0.975604 0
M  V30 3081 O 283.941 1.54786 -1.28853 0
M  V30 3082 C 281.006 2.43969 -2.46333 0
M  V30 3083 C 280.067 2.2093 -3.68087 0
M  V30 3084 C 279.3 3.44869 -4.0731 0
M  V30 3085 O 279.523 4.52972 -3.46659 0
M  V30 3086 O 278.457 3.34661 -5.00285 0
M  V30 3087 H 282.283 0.761881 -2.93988 0
M  V30 3088 H 279.868 0.310818 -1.46131 0
M  V30 3089 H 281.75 3.20609 -2.73473 0
M  V30 3090 H 280.425 2.81038 -1.60621 0
M  V30 3091 H 279.332 1.42081 -3.46069 0
M  V30 3092 H 280.665 1.88755 -4.54568 0
M  V30 3093 N 282.317 1.53212 0.369288 0
M  V30 3094 C 283.594 1.59815 1.12776 0
M  V30 3095 C 283.974 0.403402 2.0721 0
M  V30 3096 O 283.322 -0.606667 2.20299 0
M  V30 3097 C 283.532 2.94664 1.87013 0
M  V30 3098 C 284.88 3.49109 2.41677 0
M  V30 3099 O 285.904 2.96669 1.97144 0
M  V30 3100 O 284.763 4.40775 3.23079 0
M  V30 3101 H 281.857 0.645376 0.517125 0
M  V30 3102 H 284.403 1.65553 0.37285 0
M  V30 3103 H 283.175 3.73061 1.18071 0
M  V30 3104 H 282.798 2.92401 2.69421 0
M  V30 3105 N 283.795 -0.628877 1.44509 0
M  V30 3106 C 285.041 -1.39045 1.47629 0
M  V30 3107 C 285.374 -1.93892 0.109343 0
M  V30 3108 O 284.649 -1.7379 -0.87334 0
M  V30 3109 C 284.932 -2.55408 2.53848 0
M  V30 3110 C 284.785 -2.05896 3.99909 0
M  V30 3111 C 286.104 -3.5759 2.56549 0
M  V30 3112 H 283.223 -0.504232 0.537512 0
M  V30 3113 H 285.865 -0.710854 1.76201 0
M  V30 3114 H 284.015 -3.13384 2.29615 0
M  V30 3115 H 285.687 -1.52734 4.35282 0
M  V30 3116 H 283.93 -1.37061 4.11578 0
M  V30 3117 H 284.601 -2.89681 4.69882 0
M  V30 3118 H 287.077 -3.09419 2.78207 0
M  V30 3119 H 285.953 -4.36527 3.32769 0
M  V30 3120 H 286.214 -4.11808 1.60832 0
M  V30 3121 N 285.273 -1.31445 -0.869486 0
M  V30 3122 C 286.513 -1.22458 -1.63656 0
M  V30 3123 C 286.877 0.213846 -1.90805 0
M  V30 3124 O 288.078 0.427212 -2.65383 0
M  V30 3125 C 286.349 -2.04564 -2.93067 0
M  V30 3126 S 287.908 -2.12445 -3.83944 0
M  V30 3127 H 284.726 -0.436145 -0.561514 0
M  V30 3128 H 287.328 -1.66114 -1.03085 0
M  V30 3129 H 286.032 -3.0816 -2.71045 0
M  V30 3130 H 285.563 -1.6163 -3.58663 0
M  V30 3131 H 287.578 -1.26312 -4.79854 0
M  V30 3132 N 286.751 1.08385 -1.14413 0
M  V30 3133 C 287.661 2.18856 -0.844951 0
M  V30 3134 C 288.677 1.73121 0.174668 0
M  V30 3135 O 289.853 2.014 0.00312857 0
M  V30 3136 C 286.918 3.45155 -0.32696 0
M  V30 3137 C 285.979 4.05513 -1.40916 0
M  V30 3138 C 285.212 5.25784 -0.915793 0
M  V30 3139 O 285.435 5.69884 0.242651 0
M  V30 3140 O 284.369 5.77545 -1.69487 0
M  V30 3141 H 288.195 2.46919 -1.76818 0
M  V30 3142 H 285.78 1.17524 -0.922411 0
M  V30 3143 H 287.662 4.21377 -0.0440211 0
M  V30 3144 H 286.337 3.18668 0.568539 0
M  V30 3145 H 285.244 3.30879 -1.74556 0
M  V30 3146 H 286.577 4.3625 -2.27919 0
M  V30 3147 N 288.23 0.939286 1.26551 0
M  V30 3148 C 289.162 0.404704 2.25599 0
M  V30 3149 C 290.175 -0.470983 1.55838 0
M  V30 3150 O 291.364 -0.281734 1.76263 0
M  V30 3151 C 288.464 -0.43764 3.36062 0
M  V30 3152 C 287.637 0.421449 4.35365 0
M  V30 3153 C 286.696 -0.36015 5.24966 0
M  V30 3154 O 285.722 0.236167 5.6871 0
M  V30 3155 N 286.924 -1.65715 5.56344 0
M  V30 3156 H 289.689 1.25618 2.72103 0
M  V30 3157 H 287.25 0.807963 1.40298 0
M  V30 3158 H 289.242 -0.967866 3.92956 0
M  V30 3159 H 287.812 -1.18991 2.89067 0
M  V30 3160 H 287.032 1.1329 3.7757 0
M  V30 3161 H 288.32 1.00835 4.98708 0
M  V30 3162 H 287.718 -2.16378 5.22682 0
M  V30 3163 H 286.275 -2.13366 6.15888 0
M  V30 3164 N 289.708 -1.40897 0.706093 0
M  V30 3165 C 290.671 -2.29131 0.0562841 0
M  V30 3166 C 291.671 -1.44901 -0.697166 0
M  V30 3167 O 292.861 -1.65926 -0.530484 0
M  V30 3168 C 289.993 -3.27957 -0.93043 0
M  V30 3169 H 291.186 -2.88091 0.833284 0
M  V30 3170 H 288.739 -1.4906 0.470192 0
M  V30 3171 H 289.474 -2.73997 -1.73482 0
M  V30 3172 H 289.259 -3.90124 -0.393166 0
M  V30 3173 H 290.749 -3.94049 -1.38256 0
M  V30 3174 N 291.186 -0.45159 -1.50991 0
M  V30 3175 C 292.432 0.110237 -2.025 0
M  V30 3176 C 292.765 1.41109 -1.33424 0
M  V30 3177 O 292.04 1.89135 -0.453659 0
M  V30 3178 C 292.323 0.314271 -3.58726 0
M  V30 3179 C 292.176 -1.00623 -4.38401 0
M  V30 3180 C 293.495 1.07767 -4.26702 0
M  V30 3181 H 290.614 0.0385897 -0.735989 0
M  V30 3182 H 293.256 -0.593374 -1.80497 0
M  V30 3183 H 291.406 0.913601 -3.77605 0
M  V30 3184 H 293.078 -1.64064 -4.31139 0
M  V30 3185 H 291.321 -1.6075 -4.02917 0
M  V30 3186 H 291.992 -0.817341 -5.45915 0
M  V30 3187 H 294.468 0.56986 -4.12179 0
M  V30 3188 H 293.344 1.18921 -5.35863 0
M  V30 3189 H 293.605 2.10939 -3.88532 0
M  V30 3190 N 292.664 1.56529 -0.183458 0
M  V30 3191 C 293.91 1.98304 0.452466 0
M  V30 3192 C 294.265 1.06799 1.60037 0
M  V30 3193 O 293.558 0.110049 1.91284 0
M  V30 3194 C 293.752 3.43939 0.971637 0
M  V30 3195 C 293.581 4.49528 -0.124425 0
M  V30 3196 C 292.351 5.01981 -0.578168 0
M  V30 3197 C 294.549 5.05836 -0.929207 0
M  V30 3198 N 292.531 5.91219 -1.65327 0
M  V30 3199 C 293.902 5.91632 -1.85396 0
M  V30 3200 C 295.957 4.88302 -0.972929 0
M  V30 3201 C 294.66 6.61768 -2.81878 0
M  V30 3202 C 296.686 5.59168 -1.92574 0
M  V30 3203 C 296.048 6.44701 -2.83795 0
M  V30 3204 H 292.147 0.770551 0.133324 0
M  V30 3205 H 294.731 1.92581 -0.286473 0
M  V30 3206 H 292.902 3.50184 1.68006 0
M  V30 3207 H 294.634 3.72702 1.5772 0
M  V30 3208 H 291.389 4.73282 -0.173639 0
M  V30 3209 H 291.813 6.40543 -2.19167 0
M  V30 3210 H 296.455 4.21861 -0.28168 0
M  V30 3211 H 294.173 7.27415 -3.51984 0
M  V30 3212 H 297.759 5.47582 -1.96583 0
M  V30 3213 H 296.639 6.98573 -3.56322 0
M  V30 3214 N 294.142 -0.090211 1.57342 0
M  V30 3215 C 295.105 -1.09335 2.01441 0
M  V30 3216 C 296.105 -1.32666 0.908641 0
M  V30 3217 O 297.295 -1.28697 1.174 0
M  V30 3218 C 294.427 -2.44136 2.3793 0
M  V30 3219 H 295.62 -0.713662 2.91285 0
M  V30 3220 H 293.173 -0.335404 1.52659 0
M  V30 3221 H 293.908 -2.86972 1.51055 0
M  V30 3222 H 293.693 -2.28548 3.18603 0
M  V30 3223 H 295.183 -3.16277 2.72688 0
M  V30 3224 N 295.62 -1.53406 -0.361157 0
M  V30 3225 C 296.55 -1.83136 -1.44857 0
M  V30 3226 C 297.531 -0.685174 -1.5569 0
M  V30 3227 O 298.716 -0.93544 -1.70186 0
M  V30 3228 C 295.846 -2.02522 -2.82138 0
M  V30 3229 C 294.8 -3.18302 -2.86126 0
M  V30 3230 C 294.126 -3.22989 -4.26125 0
M  V30 3231 C 295.426 -4.56796 -2.53248 0
M  V30 3232 H 297.12 -2.74201 -1.20226 0
M  V30 3233 H 294.666 -1.31938 -0.576922 0
M  V30 3234 H 296.619 -2.21904 -3.58241 0
M  V30 3235 H 295.343 -1.08172 -3.08166 0
M  V30 3236 H 294.002 -2.98747 -2.12475 0
M  V30 3237 H 293.65 -2.26267 -4.49235 0
M  V30 3238 H 293.35 -4.00781 -4.29708 0
M  V30 3239 H 294.874 -3.44559 -5.04094 0
M  V30 3240 H 296.288 -4.7631 -3.19064 0
M  V30 3241 H 294.685 -5.36862 -2.68141 0
M  V30 3242 H 295.755 -4.61606 -1.48484 0
M  V30 3243 N 297.098 0.621204 -1.44841 0
M  V30 3244 C 298.346 1.37783 -1.47852 0
M  V30 3245 C 298.667 1.94653 -0.116224 0
M  V30 3246 O 297.937 1.76367 0.852737 0
M  V30 3247 H 296.517 0.511453 -0.544449 0
M  V30 3248 H 299.179 0.730446 -1.80694 0
M  V30 3249 H 298.275 2.20414 -2.20961 0
M  V30 3250 N 298.576 1.31904 0.862503 0
M  V30 3251 C 299.524 1.20125 1.9918 0
M  V30 3252 C 300.518 0.107824 1.69056 0
M  V30 3253 O 301.724 0.270223 1.7796 0
M  V30 3254 H 298.099 0.372148 0.65346 0
M  V30 3255 H 300.07 2.15652 2.06244 0
M  V30 3256 C 298.819 0.933099 3.34946 0
M  V30 3257 H 298.142 1.76664 3.5865 0
M  V30 3258 H 299.582 0.890892 4.14535 0
M  V30 3259 C 298.041 -0.364172 3.34926 0
M  V30 3260 O 298.571 -1.37858 3.77304 0
M  V30 3261 N 296.777 -0.383362 2.8806 0
M  V30 3262 H 296.324 0.442651 2.53768 0
M  V30 3263 H 296.282 -1.25123 2.8843 0
M  V30 3264 N 300.054 -1.07777 1.14986 0
M  V30 3265 C 301.303 -1.79669 0.916617 0
M  V30 3266 C 301.616 -1.87474 -0.557917 0
M  V30 3267 O 302.822 -2.55845 -0.908617 0
M  V30 3268 C 301.278 -3.22848 1.59051 0
M  V30 3269 C 300.886 -3.23257 3.10176 0
M  V30 3270 C 302.63 -3.99379 1.43864 0
M  V30 3271 C 300.537 -4.61063 3.70372 0
M  V30 3272 H 299.467 -0.673349 0.33929 0
M  V30 3273 H 302.118 -1.21003 1.37951 0
M  V30 3274 H 300.5 -3.8168 1.0553 0
M  V30 3275 H 301.674 -2.74095 3.70417 0
M  V30 3276 H 299.989 -2.60222 3.25074 0
M  V30 3277 H 302.586 -5.0122 1.86232 0
M  V30 3278 H 302.929 -4.14511 0.385564 0
M  V30 3279 H 303.462 -3.47032 1.94457 0
M  V30 3280 H 300.201 -4.51135 4.7556 0
M  V30 3281 H 299.721 -5.1048 3.14913 0
M  V30 3282 H 301.4 -5.30034 3.71043 0
M  V30 3283 N 301.532 -0.945985 -1.26051 0
M  V30 3284 C 302.495 -0.463897 -2.24456 0
M  V30 3285 C 303.495 0.427655 -1.55009 0
M  V30 3286 O 304.685 0.226157 -1.72726 0
M  V30 3287 C 301.817 0.330812 -3.39291 0
M  V30 3288 H 303.01 -1.33357 -2.68619 0
M  V30 3289 H 300.563 -0.728416 -1.38289 0
M  V30 3290 H 301.298 1.21852 -3.00537 0
M  V30 3291 H 301.083 -0.308679 -3.90883 0
M  V30 3292 H 302.573 0.657865 -4.12386 0
M  V30 3293 N 303.011 1.40521 -0.713556 0
M  V30 3294 C 304.259 2.00527 -0.251692 0
M  V30 3295 C 304.58 1.56857 1.15848 0
M  V30 3296 O 303.85 0.807127 1.785 0
M  V30 3297 H 302.43 0.741551 -0.0900646 0
M  V30 3298 H 305.092 1.71887 -0.918733 0
M  V30 3299 H 304.188 3.10813 -0.283192 0
M  V30 3300 N 304.489 0.459591 1.5075 0
M  V30 3301 C 305.766 -0.160371 1.94941 0
M  V30 3302 C 306.146 -1.58048 1.39943 0
M  V30 3303 O 305.494 -2.206 0.595629 0
M  V30 3304 C 305.704 -0.115432 3.48809 0
M  V30 3305 C 307.052 -0.310026 4.23467 0
M  V30 3306 O 308.076 -0.192543 3.55679 0
M  V30 3307 O 306.935 -0.546031 5.43765 0
M  V30 3308 H 304.029 -0.117925 0.818549 0
M  V30 3309 H 306.575 0.519169 1.61563 0
M  V30 3310 H 305.347 0.87652 3.81357 0
M  V30 3311 H 304.97 -0.836928 3.88692 0
M  V30 3312 N 305.967 -1.56429 0.191757 0
M  V30 3313 C 307.192 -2.02309 -0.456706 0
M  V30 3314 C 307.617 -1.07103 -1.5463 0
M  V30 3315 O 306.975 -0.0539677 -1.8122 0
M  V30 3316 C 307.023 -3.46654 -0.993159 0
M  V30 3317 O 306.127 -3.54559 -2.10622 0
M  V30 3318 H 305.468 -0.655303 -0.107114 0
M  V30 3319 H 307.998 -2.02364 0.301653 0
M  V30 3320 H 308.008 -3.86377 -1.31061 0
M  V30 3321 H 306.683 -4.1544 -0.195504 0
M  V30 3322 H 305.26 -3.26708 -1.79767 0
M  V30 3323 N 307.445 0.0818655 -1.57387 0
M  V30 3324 C 308.408 1.08265 -2.02018 0
M  V30 3325 C 309.408 1.32183 -0.915664 0
M  V30 3326 O 310.598 1.28073 -1.18081 0
M  V30 3327 C 307.73 2.42871 -2.39221 0
M  V30 3328 H 308.923 0.698204 -2.91659 0
M  V30 3329 H 306.476 0.327303 -1.52835 0
M  V30 3330 H 307.211 2.86167 -1.52575 0
M  V30 3331 H 306.996 2.26855 -3.19811 0
M  V30 3332 H 308.486 3.14826 -2.74362 0
M  V30 3333 N 308.923 1.53595 0.353017 0
M  V30 3334 C 309.833 1.83897 1.45667 0
M  V30 3335 C 310.849 0.728334 1.58023 0
M  V30 3336 O 312.025 1.01968 1.73679 0
M  V30 3337 C 309.09 2.03383 2.80778 0
M  V30 3338 C 308.151 3.27262 2.77845 0
M  V30 3339 C 307.384 3.45809 4.06512 0
M  V30 3340 O 307.607 2.68387 5.03314 0
M  V30 3341 O 306.541 4.39207 4.11559 0
M  V30 3342 H 310.367 2.77686 1.2298 0
M  V30 3343 H 307.952 1.39132 0.544308 0
M  V30 3344 H 309.834 2.17698 3.60812 0
M  V30 3345 H 308.509 1.12783 3.03417 0
M  V30 3346 H 307.416 3.18359 1.96465 0
M  V30 3347 H 308.749 4.17824 2.60161 0
M  V30 3348 N 310.401 -0.613514 1.45168 0
M  V30 3349 C 311.641 -1.38405 1.5041 0
M  V30 3350 C 312.005 -1.91489 0.139922 0
M  V30 3351 O 313.206 -2.68716 0.067033 0
M  V30 3352 C 311.477 -2.50552 2.5487 0
M  V30 3353 S 313.036 -3.38439 2.79292 0
M  V30 3354 H 309.854 -0.471945 0.531779 0
M  V30 3355 H 312.456 -0.708518 1.82209 0
M  V30 3356 H 311.16 -2.09894 3.52665 0
M  V30 3357 H 310.691 -3.22913 2.24701 0
M  V30 3358 H 312.706 -4.48527 2.12222 0
M  V30 3359 N 311.879 -1.3236 -0.855495 0
M  V30 3360 C 313.295 -1.11332 -1.14356 0
M  V30 3361 C 313.495 0.106751 -2.01217 0
M  V30 3362 O 312.551 0.791891 -2.39761 0
M  V30 3363 C 313.864 -2.39237 -1.82171 0
M  V30 3364 C 315.412 -2.44986 -1.9481 0
M  V30 3365 C 315.887 -3.7281 -2.66039 0
M  V30 3366 N 317.378 -3.73787 -2.73565 0
M  V30 3367 C 318.113 -4.69394 -3.29327 0
M  V30 3368 N 317.609 -5.75367 -3.85907 0
M  V30 3369 N 319.402 -4.56893 -3.27423 0
M  V30 3370 H 311.553 -2.10586 -0.277027 0
M  V30 3371 H 313.816 -0.929701 -0.185364 0
M  V30 3372 H 313.522 -3.28431 -1.25802 0
M  V30 3373 H 313.396 -2.50134 -2.82335 0
M  V30 3374 H 315.783 -1.56252 -2.50338 0
M  V30 3375 H 315.864 -2.38043 -0.936448 0
M  V30 3376 H 315.508 -4.61918 -2.11174 0
M  V30 3377 H 315.438 -3.77024 -3.67642 0
M  V30 3378 H 317.929 -2.97189 -2.33424 0
M  V30 3379 H 318.242 -6.44378 -4.26611 0
M  V30 3380 H 316.587 -5.79123 -3.84242 0
M  V30 3381 H 319.778 -3.73269 -2.82467 0
M  V30 3382 H 319.951 -5.31577 -3.7058 0
M  V30 3383 N 313.357 1.07166 -1.15556 0
M  V30 3384 C 314.267 2.17947 -0.868116 0
M  V30 3385 C 315.283 1.73297 0.156297 0
M  V30 3386 O 316.459 2.01392 -0.0182327 0
M  V30 3387 C 313.524 3.44789 -0.36355 0
M  V30 3388 C 312.585 4.03996 -1.45209 0
M  V30 3389 C 311.818 5.24783 -0.971508 0
M  V30 3390 O 312.041 5.70109 0.182194 0
M  V30 3391 O 310.975 5.75715 -1.75603 0
M  V30 3392 H 314.801 2.4503 -1.79427 0
M  V30 3393 H 312.386 1.16539 -0.934824 0
M  V30 3394 H 314.268 4.21307 -0.0887113 0
M  V30 3395 H 312.943 3.19253 0.534708 0
M  V30 3396 H 311.85 3.29009 -1.78056 0
M  V30 3397 H 313.183 4.33808 -2.32533 0
M  V30 3398 N 314.835 0.952656 1.25548 0
M  V30 3399 C 316.065 0.622592 1.96996 0
M  V30 3400 C 316.473 -0.809112 1.71026 0
M  V30 3401 O 315.816 -1.55258 0.981861 0
M  V30 3402 C 315.878 0.798946 3.5051 0
M  V30 3403 C 315.542 2.20744 4.00151 0
M  V30 3404 C 316.539 3.18394 4.11001 0
M  V30 3405 C 314.224 2.5311 4.33867 0
M  V30 3406 C 316.218 4.46504 4.54877 0
M  V30 3407 C 313.905 3.8145 4.7743 0
M  V30 3408 C 314.903 4.77959 4.87897 0
M  V30 3409 O 314.591 6.04012 5.30494 0
M  V30 3410 H 314.323 0.232503 0.634758 0
M  V30 3411 H 316.877 1.2789 1.60728 0
M  V30 3412 H 315.107 0.0854903 3.86605 0
M  V30 3413 H 316.796 0.47023 4.03167 0
M  V30 3414 H 317.562 2.94715 3.85186 0
M  V30 3415 H 313.441 1.78719 4.24948 0
M  V30 3416 H 316.985 5.21835 4.62962 0
M  V30 3417 H 312.882 4.04936 5.0269 0
M  V30 3418 H 313.65 6.0736 5.48685 0
M  V30 3419 N 316.313 -1.40141 0.720998 0
M  V30 3420 C 317.559 -2.01084 0.263231 0
M  V30 3421 C 317.892 -1.57052 -1.14229 0
M  V30 3422 O 317.167 -0.793027 -1.77599 0
M  V30 3423 C 317.45 -3.58401 0.349344 0
M  V30 3424 C 317.303 -4.12491 1.79363 0
M  V30 3425 C 318.622 -4.39231 -0.276351 0
M  V30 3426 H 315.741 -0.730572 0.0971228 0
M  V30 3427 H 318.383 -1.66543 0.914518 0
M  V30 3428 H 316.533 -3.87958 -0.205165 0
M  V30 3429 H 318.205 -3.93711 2.40394 0
M  V30 3430 H 316.448 -3.66576 2.31958 0
M  V30 3431 H 317.119 -5.21646 1.80524 0
M  V30 3432 H 319.595 -4.15637 0.196184 0
M  V30 3433 H 318.471 -5.48586 -0.185681 0
M  V30 3434 H 318.732 -4.20643 -1.36059 0
M  V30 3435 N 317.792 -0.46758 -1.50504 0
M  V30 3436 C 318.722 0.318381 -2.31319 0
M  V30 3437 C 319.703 0.993564 -1.38066 0
M  V30 3438 O 320.888 0.991411 -1.66987 0
M  V30 3439 C 318.018 1.40275 -3.17711 0
M  V30 3440 C 316.972 0.849373 -4.19487 0
M  V30 3441 C 316.298 2.03177 -4.94594 0
M  V30 3442 C 317.598 -0.136942 -5.2212 0
M  V30 3443 H 319.292 -0.356106 -2.97275 0
M  V30 3444 H 316.838 -0.172703 -1.42961 0
M  V30 3445 H 318.791 1.96004 -3.73042 0
M  V30 3446 H 317.515 2.10596 -2.49634 0
M  V30 3447 H 316.174 0.314076 -3.65252 0
M  V30 3448 H 315.822 2.72187 -4.22993 0
M  V30 3449 H 315.522 1.66774 -5.63436 0
M  V30 3450 H 317.046 2.59403 -5.52759 0
M  V30 3451 H 318.46 0.331056 -5.72343 0
M  V30 3452 H 316.857 -0.41507 -5.98663 0
M  V30 3453 H 317.927 -1.06398 -4.73083 0
M  V30 3454 N 319.27 1.56325 -0.20005 0
M  V30 3455 C 320.218 2.20666 0.735482 0
M  V30 3456 C 321.212 1.17934 1.21605 0
M  V30 3457 O 322.418 1.36068 1.17837 0
M  V30 3458 H 318.793 0.70725 0.255542 0
M  V30 3459 H 320.764 2.9792 0.169166 0
M  V30 3460 C 319.513 2.88391 1.94232 0
M  V30 3461 H 318.836 3.67185 1.58161 0
M  V30 3462 H 320.276 3.3684 2.57517 0
M  V30 3463 C 318.735 1.89692 2.78421 0
M  V30 3464 O 319.265 1.40032 3.76502 0
M  V30 3465 N 317.471 1.57813 2.44015 0
M  V30 3466 H 317.018 1.9839 1.64314 0
M  V30 3467 H 316.976 0.920325 3.00628 0
M  V30 3468 N 320.748 -0.0735177 1.57428 0
M  V30 3469 C 321.68 -1.11423 2.00294 0
M  V30 3470 C 322.693 -1.35084 0.908637 0
M  V30 3471 O 323.882 -1.33355 1.18654 0
M  V30 3472 C 320.982 -2.46548 2.32523 0
M  V30 3473 C 320.155 -2.42867 3.63778 0
M  V30 3474 C 319.214 -3.60087 3.83697 0
M  V30 3475 O 318.24 -3.41595 4.55304 0
M  V30 3476 N 319.442 -4.80372 3.25919 0
M  V30 3477 H 322.207 -0.749206 2.90184 0
M  V30 3478 H 319.768 -0.262195 1.59763 0
M  V30 3479 H 321.76 -3.23607 2.43024 0
M  V30 3480 H 320.33 -2.75059 1.48531 0
M  V30 3481 H 319.55 -1.51206 3.64047 0
M  V30 3482 H 320.838 -2.37506 4.49965 0
M  V30 3483 H 320.236 -4.983 2.67795 0
M  V30 3484 H 318.793 -5.54948 3.41871 0
M  V30 3485 N 322.226 -1.5378 -0.344866 0
M  V30 3486 C 323.174 -1.82373 -1.4437 0
M  V30 3487 C 324.168 -0.694128 -1.54526 0
M  V30 3488 O 325.374 -0.877442 -1.57165 0
M  V30 3489 H 321.749 -0.577765 -0.481344 0
M  V30 3490 H 323.72 -2.74306 -1.17468 0
M  V30 3491 C 322.469 -2.04898 -2.80913 0
M  V30 3492 H 321.792 -2.9127 -2.73865 0
M  V30 3493 H 323.232 -2.28871 -3.56923 0
M  V30 3494 C 321.691 -0.834116 -3.26411 0
M  V30 3495 O 322.221 -0.0328885 -4.01687 0
M  V30 3496 N 320.427 -0.65171 -2.83198 0
M  V30 3497 H 319.974 -1.30489 -2.22104 0
M  V30 3498 H 319.932 0.159686 -3.13994 0
M  V30 3499 N 323.704 0.605807 -1.45491 0
M  V30 3500 C 324.929 1.39625 -1.53361 0
M  V30 3501 C 325.354 1.87351 -0.167645 0
M  V30 3502 O 324.712 1.60243 0.848051 0
M  V30 3503 C 324.76 2.57559 -2.5238 0
M  V30 3504 O 323.864 3.58248 -2.04285 0
M  V30 3505 H 323.205 0.416771 -0.516912 0
M  V30 3506 H 325.735 0.737103 -1.90861 0
M  V30 3507 H 325.745 3.0478 -2.71244 0
M  V30 3508 H 324.42 2.22171 -3.51586 0
M  V30 3509 H 322.997 3.17664 -1.95305 0
M  V30 3510 N 325.182 1.32811 0.848464 0
M  V30 3511 C 326.112 1.24882 1.97299 0
M  V30 3512 C 327.093 0.131357 1.69592 0
M  V30 3513 O 328.278 0.319553 1.91553 0
M  V30 3514 C 325.408 0.97746 3.33261 0
M  V30 3515 C 324.362 2.05682 3.75338 0
M  V30 3516 C 323.688 1.63777 5.09 0
M  V30 3517 C 324.988 3.47254 3.90144 0
M  V30 3518 H 326.682 2.18966 2.04191 0
M  V30 3519 H 324.228 1.05413 0.981029 0
M  V30 3520 H 326.181 0.908513 4.1149 0
M  V30 3521 H 324.905 0.000980011 3.266 0
M  V30 3522 H 323.564 2.11603 2.99366 0
M  V30 3523 H 323.212 0.648569 4.98801 0
M  V30 3524 H 322.912 2.36 5.38124 0
M  V30 3525 H 324.436 1.5833 5.89715 0
M  V30 3526 H 325.85 3.43888 4.58709 0
M  V30 3527 H 324.247 4.1788 4.30693 0
M  V30 3528 H 325.317 3.86462 2.92874 0
M  V30 3529 N 326.66 -1.06551 1.16123 0
M  V30 3530 C 328.071 -1.60768 0.949232 0
M  V30 3531 C 328.422 -1.89523 -0.507508 0
M  V30 3532 O 327.547 -1.66671 -1.38021 0
M  V30 3533 C 328.142 -2.92086 1.71671 0
M  V30 3534 C 326.701 -3.43015 1.54977 0
M  V30 3535 C 325.848 -2.16947 1.72711 0
M  V30 3536 H 328.799 -0.895354 1.31031 0
M  V30 3537 H 328.82 -3.6138 1.19099 0
M  V30 3538 H 328.332 -2.71127 2.7769 0
M  V30 3539 H 326.433 -3.69039 0.513873 0
M  V30 3540 H 326.546 -4.18516 2.33198 0
M  V30 3541 H 324.91 -2.27041 1.15431 0
M  V30 3542 H 325.693 -1.98473 2.80113 0
M  V30 3543 N 328.138 -0.959301 -1.25041 0
M  V30 3544 C 329.068 -0.501388 -2.28053 0
M  V30 3545 C 330.049 0.454673 -1.63911 0
M  V30 3546 O 331.234 0.352618 -1.90972 0
M  V30 3547 C 328.364 0.217224 -3.4662 0
M  V30 3548 C 327.318 -0.654034 -4.22973 0
M  V30 3549 C 326.644 0.195589 -5.34342 0
M  V30 3550 C 327.944 -1.93447 -4.85155 0
M  V30 3551 H 329.638 -1.36238 -2.66608 0
M  V30 3552 H 327.184 -0.656534 -1.28163 0
M  V30 3553 H 329.137 0.548732 -4.17812 0
M  V30 3554 H 327.861 1.1125 -3.07068 0
M  V30 3555 H 326.52 -0.968693 -3.5357 0
M  V30 3556 H 326.168 1.09076 -4.91031 0
M  V30 3557 H 325.868 -0.384091 -5.86343 0
M  V30 3558 H 327.392 0.521958 -6.08365 0
M  V30 3559 H 328.806 -1.66908 -5.48466 0
M  V30 3560 H 327.203 -2.46018 -5.47353 0
M  V30 3561 H 328.273 -2.63466 -4.07079 0
M  V30 3562 N 329.616 1.39756 -0.72842 0
M  V30 3563 C 330.546 2.33289 -0.0991354 0
M  V30 3564 C 331.527 1.53568 0.731489 0
M  V30 3565 O 332.712 1.81987 0.677807 0
M  V30 3566 C 329.842 3.3763 0.813834 0
M  V30 3567 C 328.796 4.2791 0.0878663 0
M  V30 3568 C 328.122 5.22894 1.11741 0
M  V30 3569 C 329.422 5.11314 -1.06563 0
M  V30 3570 H 331.116 2.86163 -0.880408 0
M  V30 3571 H 328.662 1.37591 -0.424819 0
M  V30 3572 H 330.615 4.0201 1.26355 0
M  V30 3573 H 329.339 2.83181 1.62715 0
M  V30 3574 H 327.998 3.65 -0.342159 0
M  V30 3575 H 327.646 4.64744 1.92412 0
M  V30 3576 H 327.346 5.84143 0.636477 0
M  V30 3577 H 328.87 5.90151 1.56697 0
M  V30 3578 H 330.284 5.69076 -0.694671 0
M  V30 3579 H 328.681 5.81671 -1.47577 0
M  V30 3580 H 329.751 4.46534 -1.89038 0
M  V30 3581 N 331.094 0.475555 1.50254 0
M  V30 3582 C 332.024 -0.30611 2.31485 0
M  V30 3583 C 333.005 -0.986228 1.38591 0
M  V30 3584 O 334.19 -0.982541 1.67511 0
M  V30 3585 C 331.32 -1.38588 3.1845 0
M  V30 3586 C 330.274 -0.827115 4.19932 0
M  V30 3587 C 329.6 -2.00551 4.95665 0
M  V30 3588 C 330.9 0.16463 5.2204 0
M  V30 3589 H 332.594 0.371866 2.97082 0
M  V30 3590 H 330.14 0.180282 1.42867 0
M  V30 3591 H 332.093 -1.94023 3.74076 0
M  V30 3592 H 330.817 -2.09269 2.50747 0
M  V30 3593 H 329.476 -0.294702 3.65414 0
M  V30 3594 H 329.124 -2.6994 4.2443 0
M  V30 3595 H 328.824 -1.63784 5.64313 0
M  V30 3596 H 330.348 -2.56468 5.54127 0
M  V30 3597 H 331.762 -0.300699 5.72511 0
M  V30 3598 H 330.159 0.446813 5.98434 0
M  V30 3599 H 331.229 1.08905 4.72512 0
M  V30 3600 N 332.573 -1.56217 0.208337 0
M  V30 3601 C 333.52 -2.19699 -0.707192 0
M  V30 3602 C 334.49 -1.14836 -1.20008 0
M  V30 3603 O 335.675 -1.4314 -1.26157 0
M  V30 3604 C 332.815 -2.87061 -1.91546 0
M  V30 3605 C 331.928 -4.06483 -1.46271 0
M  V30 3606 C 331.063 -4.61665 -2.62752 0
M  V30 3607 C 330.102 -5.73417 -2.14147 0
M  V30 3608 N 329.239 -6.22948 -3.23853 0
M  V30 3609 H 334.079 -2.97575 -0.159111 0
M  V30 3610 H 331.616 -1.46948 -0.0667874 0
M  V30 3611 H 333.574 -3.24294 -2.62468 0
M  V30 3612 H 332.204 -2.11725 -2.43664 0
M  V30 3613 H 331.256 -3.74825 -0.648886 0
M  V30 3614 H 332.568 -4.87271 -1.06622 0
M  V30 3615 H 331.722 -5.01272 -3.41776 0
M  V30 3616 H 330.461 -3.80013 -3.05682 0
M  V30 3617 H 329.466 -5.33326 -1.33581 0
M  V30 3618 H 330.691 -6.56897 -1.72232 0
M  V30 3619 H 328.637 -5.44213 -3.6629 0
M  V30 3620 H 328.554 -6.98823 -2.88414 0
M  V30 3621 H 329.822 -6.6721 -4.03052 0
M  V30 3622 N 334.051 0.0651679 -1.57465 0
M  V30 3623 C 335.3 0.761916 -1.86756 0
M  V30 3624 C 335.613 1.78406 -0.801925 0
M  V30 3625 O 336.819 2.53084 -0.982885 0
M  V30 3626 C 335.275 1.40603 -3.31299 0
M  V30 3627 C 334.883 0.422115 -4.46007 0
M  V30 3628 C 336.627 2.08476 -3.69781 0
M  V30 3629 C 334.534 1.07252 -5.81593 0
M  V30 3630 H 333.464 0.288308 -0.696702 0
M  V30 3631 H 336.115 0.015344 -1.83494 0
M  V30 3632 H 334.497 2.20109 -3.29193 0
M  V30 3633 H 335.671 -0.343613 -4.59517 0
M  V30 3634 H 333.986 -0.152527 -4.16121 0
M  V30 3635 H 336.583 2.57925 -4.68379 0
M  V30 3636 H 336.926 2.88712 -2.99919 0
M  V30 3637 H 337.459 1.35792 -3.73905 0
M  V30 3638 H 334.198 0.310342 -6.54765 0
M  V30 3639 H 333.718 1.80895 -5.71872 0
M  V30 3640 H 335.397 1.59043 -6.27148 0
M  V30 3641 N 335.529 1.53961 0.336706 0
M  V30 3642 C 336.459 1.85417 1.41925 0
M  V30 3643 C 337.44 0.709856 1.5458 0
M  V30 3644 O 338.625 0.962396 1.68676 0
M  V30 3645 C 335.755 2.06985 2.78881 0
M  V30 3646 C 334.709 3.22813 2.81026 0
M  V30 3647 C 334.035 3.29727 4.20932 0
M  V30 3648 C 335.335 4.60767 2.45949 0
M  V30 3649 H 337.029 2.76079 1.15848 0
M  V30 3650 H 334.575 1.32839 0.555859 0
M  V30 3651 H 336.528 2.27575 3.54665 0
M  V30 3652 H 335.252 1.13061 3.06406 0
M  V30 3653 H 333.911 3.0209 2.07695 0
M  V30 3654 H 333.559 2.33385 4.45579 0
M  V30 3655 H 333.259 4.07566 4.23277 0
M  V30 3656 H 334.783 3.52536 4.98549 0
M  V30 3657 H 336.197 4.81325 3.11446 0
M  V30 3658 H 334.594 5.4106 2.59566 0
M  V30 3659 H 335.664 4.6391 1.41122 0
M  V30 3660 N 337.007 -0.598083 1.45811 0
M  V30 3661 C 338.423 -0.919847 1.30426 0
M  V30 3662 C 338.623 -1.99759 0.264303 0
M  V30 3663 O 337.679 -2.50221 -0.338472 0
M  V30 3664 C 338.992 -1.35176 2.68603 0
M  V30 3665 C 340.54 -1.46546 2.76574 0
M  V30 3666 C 341.015 -1.9311 4.15298 0
M  V30 3667 N 342.506 -2.00328 4.1764 0
M  V30 3668 C 343.241 -2.37599 5.21856 0
M  V30 3669 N 342.737 -2.73771 6.36413 0
M  V30 3670 N 344.53 -2.38021 5.09218 0
M  V30 3671 H 336.681 0.114111 2.12093 0
M  V30 3672 H 338.944 -0.0116121 0.947929 0
M  V30 3673 H 338.65 -0.633969 3.45939 0
M  V30 3674 H 338.524 -2.3164 2.97696 0
M  V30 3675 H 340.911 -2.17415 1.99537 0
M  V30 3676 H 340.992 -0.483727 2.51185 0
M  V30 3677 H 340.636 -1.22824 4.92825 0
M  V30 3678 H 340.566 -2.92213 4.38086 0
M  V30 3679 H 343.057 -1.74925 3.34977 0
M  V30 3680 H 343.37 -3.0112 7.11721 0
M  V30 3681 H 341.715 -2.71445 6.39799 0
M  V30 3682 H 344.906 -2.09174 4.18765 0
M  V30 3683 H 345.079 -2.66741 5.90554 0
M  V30 3684 N 338.485 -1.33259 -0.841409 0
M  V30 3685 C 339.713 -1.27605 -1.62864 0
M  V30 3686 C 340.128 0.153507 -1.88175 0
M  V30 3687 O 339.485 1.09485 -1.46011 0
M  V30 3688 C 339.536 -2.04596 -2.98031 0
M  V30 3689 O 339.257 -3.41975 -2.73834 0
M  V30 3690 C 340.758 -2.06122 -3.92465 0
M  V30 3691 H 337.978 -0.439718 -0.506842 0
M  V30 3692 H 340.522 -1.75591 -1.04824 0
M  V30 3693 H 338.677 -1.60299 -3.5268 0
M  V30 3694 H 339.091 -3.81549 -3.59889 0
M  V30 3695 H 340.565 -2.64451 -4.84531 0
M  V30 3696 H 341.042 -1.05083 -4.26444 0
M  V30 3697 H 341.648 -2.50427 -3.43753 0
M  V30 3698 N 339.963 1.05934 -1.16686 0
M  V30 3699 C 341.188 1.83029 -0.975455 0
M  V30 3700 C 341.613 1.82096 0.471452 0
M  V30 3701 O 340.971 1.22443 1.33706 0
M  V30 3702 C 341.019 3.27372 -1.51195 0
M  V30 3703 O 340.123 4.06054 -0.720701 0
M  V30 3704 H 339.464 0.566194 -0.346872 0
M  V30 3705 H 341.994 1.33541 -1.55009 0
M  V30 3706 H 342.004 3.78186 -1.53099 0
M  V30 3707 H 340.679 3.27366 -2.56523 0
M  V30 3708 H 339.256 3.64812 -0.772458 0
M  V30 3709 N 341.441 0.965919 1.2453 0
M  V30 3710 C 342.391 0.465731 2.23193 0
M  V30 3711 C 343.375 -0.451277 1.54442 0
M  V30 3712 O 344.567 -0.282489 1.74731 0
M  V30 3713 C 341.696 -0.244511 3.42428 0
M  V30 3714 C 340.782 0.691222 4.18429 0
M  V30 3715 N 341.173 1.82771 4.71623 0
M  V30 3716 C 339.471 0.501649 4.4317 0
M  V30 3717 C 340.172 2.41285 5.29298 0
M  V30 3718 N 339.148 1.69819 5.16394 0
M  V30 3719 H 342.95 1.33291 2.61937 0
M  V30 3720 H 340.464 0.824789 1.39896 0
M  V30 3721 H 342.461 -0.620056 4.12263 0
M  V30 3722 H 341.121 -1.10815 3.05205 0
M  V30 3723 H 342.132 2.20929 4.68413 0
M  V30 3724 H 338.809 -0.318177 4.16286 0
M  V30 3725 H 340.199 3.37181 5.8117 0
M  V30 3726 N 342.919 -1.39368 0.735821 0
M  V30 3727 C 343.866 -2.30599 0.0963825 0
M  V30 3728 C 344.836 -1.49257 -0.728794 0
M  V30 3729 O 346.021 -1.77941 -0.688588 0
M  V30 3730 C 343.161 -3.35596 -0.804305 0
M  V30 3731 C 342.274 -4.31987 0.0335761 0
M  V30 3732 C 341.409 -5.24053 -0.868461 0
M  V30 3733 C 340.448 -6.12095 -0.0258776 0
M  V30 3734 N 339.585 -6.96514 -0.883893 0
M  V30 3735 H 344.425 -2.8471 0.880002 0
M  V30 3736 H 341.962 -1.40188 0.445619 0
M  V30 3737 H 343.92 -3.95062 -1.34096 0
M  V30 3738 H 342.55 -2.82938 -1.55389 0
M  V30 3739 H 341.602 -3.74133 0.68766 0
M  V30 3740 H 342.914 -4.94074 0.685036 0
M  V30 3741 H 342.068 -5.88549 -1.47293 0
M  V30 3742 H 340.807 -4.62289 -1.5537 0
M  V30 3743 H 339.812 -5.4661 0.591386 0
M  V30 3744 H 341.037 -6.75923 0.656156 0
M  V30 3745 H 338.983 -6.37318 -1.55441 0
M  V30 3746 H 338.9 -7.55448 -0.288931 0
M  V30 3747 H 340.168 -7.65439 -1.4739 0
M  V30 3748 N 344.397 -0.483516 -1.5 0
M  V30 3749 C 345.813 -0.138404 -1.58999 0
M  V30 3750 C 346.013 1.35597 -1.4905 0
M  V30 3751 O 345.069 2.13039 -1.35539 0
M  V30 3752 C 346.382 -0.699658 -2.92447 0
M  V30 3753 C 347.93 -0.664195 -3.05872 0
M  V30 3754 C 348.405 -1.20321 -4.41913 0
M  V30 3755 N 349.896 -1.16315 -4.48358 0
M  V30 3756 C 350.631 -1.55058 -5.52037 0
M  V30 3757 N 350.127 -2.01311 -6.62907 0
M  V30 3758 N 351.92 -1.46584 -5.42651 0
M  V30 3759 H 344.071 -1.45529 -1.5471 0
M  V30 3760 H 346.334 -0.60258 -0.731848 0
M  V30 3761 H 346.04 -1.747 -3.05242 0
M  V30 3762 H 345.914 -0.150194 -3.76901 0
M  V30 3763 H 348.301 0.374272 -2.92717 0
M  V30 3764 H 348.382 -1.25061 -2.23144 0
M  V30 3765 H 348.026 -2.24037 -4.55818 0
M  V30 3766 H 347.956 -0.592896 -5.23252 0
M  V30 3767 H 350.447 -0.824058 -3.68806 0
M  V30 3768 H 350.76 -2.2899 -7.38095 0
M  V30 3769 H 349.105 -2.05273 -6.63994 0
M  V30 3770 H 352.296 -1.10281 -4.54924 0
M  V30 3771 H 352.469 -1.77103 -6.23329 0
M  V30 3772 N 345.875 1.56104 -0.216619 0
M  V30 3773 C 347.103 2.02563 0.421413 0
M  V30 3774 C 347.518 1.0965 1.53695 0
M  V30 3775 O 346.875 0.10521 1.82196 0
M  V30 3776 C 346.926 3.48584 0.957665 0
M  V30 3777 O 346.647 4.37953 -0.113389 0
M  V30 3778 C 348.148 4.10664 1.66943 0
M  V30 3779 H 345.368 0.662944 0.103665 0
M  V30 3780 H 347.912 2.01793 -0.331629 0
M  V30 3781 H 346.067 3.49985 1.661 0
M  V30 3782 H 346.481 5.23704 0.288932 0
M  V30 3783 H 347.955 5.14622 1.99671 0
M  V30 3784 H 348.432 3.55373 2.58083 0
M  V30 3785 H 349.038 4.13098 1.01142 0
M  V30 3786 N 347.353 -0.0568162 1.57498 0
M  V30 3787 C 348.283 -1.06593 2.0775 0
M  V30 3788 C 349.264 -1.39448 0.974082 0
M  V30 3789 O 350.449 -1.48815 1.24771 0
M  V30 3790 C 347.579 -2.37509 2.5339 0
M  V30 3791 C 346.533 -2.1897 3.67745 0
M  V30 3792 C 345.859 -3.55402 3.99492 0
M  V30 3793 C 347.159 -1.59859 4.97235 0
M  V30 3794 H 348.853 -0.647706 2.9231 0
M  V30 3795 H 346.399 -0.310116 1.40621 0
M  V30 3796 H 348.352 -3.08409 2.87162 0
M  V30 3797 H 347.076 -2.8134 1.65878 0
M  V30 3798 H 345.735 -1.50508 3.3428 0
M  V30 3799 H 345.383 -3.9683 3.09088 0
M  V30 3800 H 345.083 -3.43831 4.76502 0
M  V30 3801 H 346.607 -4.27708 4.35773 0
M  V30 3802 H 348.021 -2.20642 5.29141 0
M  V30 3803 H 346.418 -1.58942 5.78669 0
M  V30 3804 H 347.488 -0.561506 4.81638 0
M  V30 3805 N 348.832 -1.54138 -0.328536 0
M  V30 3806 C 350.081 -1.71318 -1.06456 0
M  V30 3807 C 350.394 -0.491109 -1.89334 0
M  V30 3808 O 351.6 -0.54416 -2.65991 0
M  V30 3809 C 350.056 -3.03 -1.94214 0
M  V30 3810 C 349.664 -4.32595 -1.16471 0
M  V30 3811 C 351.408 -3.29544 -2.67583 0
M  V30 3812 C 349.315 -5.55341 -2.03347 0
M  V30 3813 H 348.245 -0.638429 -0.401155 0
M  V30 3814 H 350.896 -1.80633 -0.323106 0
M  V30 3815 H 349.278 -2.87579 -2.72239 0
M  V30 3816 H 350.452 -4.58766 -0.432525 0
M  V30 3817 H 348.767 -4.12777 -0.548063 0
M  V30 3818 H 351.364 -4.18444 -3.3288 0
M  V30 3819 H 351.707 -2.47206 -3.34955 0
M  V30 3820 H 352.24 -3.45809 -1.96623 0
M  V30 3821 H 348.979 -6.40268 -1.40491 0
M  V30 3822 H 348.499 -5.33397 -2.74313 0
M  V30 3823 H 350.178 -5.91557 -2.62049 0
M  V30 3824 N 350.31 0.590341 -1.46126 0
M  V30 3825 C 351.726 0.912917 -1.30912 0
M  V30 3826 C 351.926 1.99616 -0.274893 0
M  V30 3827 O 350.982 2.50397 0.325197 0
M  V30 3828 C 352.295 1.3375 -2.69317 0
M  V30 3829 C 353.843 1.45077 -2.77348 0
M  V30 3830 C 354.318 1.90904 -4.16317 0
M  V30 3831 N 355.809 1.9811 -4.18696 0
M  V30 3832 C 356.544 2.34828 -5.23109 0
M  V30 3833 N 356.04 2.70393 -6.37856 0
M  V30 3834 N 357.833 2.35317 -5.10473 0
M  V30 3835 H 349.984 -0.125358 -2.1203 0
M  V30 3836 H 352.247 0.00658481 -0.947977 0
M  V30 3837 H 351.953 0.615614 -3.4627 0
M  V30 3838 H 351.827 2.30058 -2.9892 0
M  V30 3839 H 354.214 2.16353 -2.00687 0
M  V30 3840 H 354.295 0.4704 -2.51438 0
M  V30 3841 H 353.939 1.20209 -4.9347 0
M  V30 3842 H 353.869 2.89886 -4.39629 0
M  V30 3843 H 356.36 1.73146 -3.359 0
M  V30 3844 H 356.673 2.97341 -7.13308 0
M  V30 3845 H 355.018 2.68048 -6.41229 0
M  V30 3846 H 358.209 2.0695 -4.19868 0
M  V30 3847 H 358.382 2.63605 -5.9196 0
M  V30 3848 N 351.788 1.33704 0.83433 0
M  V30 3849 C 352.736 1.24323 1.96587 0
M  V30 3850 C 353.73 0.143659 1.6879 0
M  V30 3851 O 354.936 0.30791 1.77347 0
M  V30 3852 H 351.311 0.385925 0.645419 0
M  V30 3853 H 353.282 2.19978 2.01624 0
M  V30 3854 C 352.031 1.00394 3.32891 0
M  V30 3855 H 351.354 1.84231 3.54822 0
M  V30 3856 H 352.794 0.97862 4.12552 0
M  V30 3857 C 351.253 -0.293047 3.35623 0
M  V30 3858 O 351.783 -1.29823 3.80143 0
M  V30 3859 N 349.989 -0.322174 2.88809 0
M  V30 3860 H 349.536 0.496379 2.52772 0
M  V30 3861 H 349.494 -1.18977 2.91019 0
M  V30 3862 N 353.266 -1.05314 1.17247 0
M  V30 3863 C 354.229 -2.112 0.890357 0
M  V30 3864 C 355.229 -1.60359 -0.118943 0
M  V30 3865 O 356.419 -1.73833 0.113086 0
M  V30 3866 C 353.551 -3.39266 0.333422 0
M  V30 3867 H 354.744 -2.37659 1.82916 0
M  V30 3868 H 352.297 -1.21538 0.982758 0
M  V30 3869 H 353.032 -3.18462 -0.612587 0
M  V30 3870 H 352.817 -3.77477 1.06082 0
M  V30 3871 H 354.307 -4.17315 0.154322 0
M  V30 3872 N 354.744 -0.972509 -1.24016 0
M  V30 3873 C 355.707 -0.511403 -2.23422 0
M  V30 3874 C 356.707 0.394679 -1.55881 0
M  V30 3875 O 357.897 0.189469 -1.73167 0
M  V30 3876 C 355.029 0.258769 -3.39916 0
M  V30 3877 H 356.222 -1.39024 -2.6573 0
M  V30 3878 H 353.775 -0.757585 -1.36713 0
M  V30 3879 H 354.51 1.1545 -3.03054 0
M  V30 3880 H 354.295 -0.391522 -3.9014 0
M  V30 3881 H 355.785 0.570244 -4.13688 0
M  V30 3882 N 356.222 1.38976 -0.743202 0
M  V30 3883 C 357.468 2.01114 -0.304109 0
M  V30 3884 C 357.823 1.57929 1.09892 0
M  V30 3885 O 357.116 0.801983 1.74008 0
M  V30 3886 C 357.31 3.55647 -0.353517 0
M  V30 3887 C 357.139 4.13837 -1.75981 0
M  V30 3888 C 355.909 4.46062 -2.37395 0
M  V30 3889 C 358.107 4.36812 -2.71477 0
M  V30 3890 N 356.089 4.898 -3.70093 0
M  V30 3891 C 357.46 4.82844 -3.88923 0
M  V30 3892 C 359.515 4.18893 -2.69134 0
M  V30 3893 C 358.218 5.12837 -5.04371 0
M  V30 3894 C 360.244 4.50005 -3.83731 0
M  V30 3895 C 359.606 4.96251 -4.99914 0
M  V30 3896 H 355.705 0.765931 -0.157716 0
M  V30 3897 H 358.289 1.68763 -0.970931 0
M  V30 3898 H 356.46 3.87368 0.282987 0
M  V30 3899 H 358.192 4.04564 0.104904 0
M  V30 3900 H 354.947 4.34145 -1.89248 0
M  V30 3901 H 355.371 5.16016 -4.38242 0
M  V30 3902 H 360.013 3.82335 -1.80499 0
M  V30 3903 H 357.731 5.48297 -5.9363 0
M  V30 3904 H 361.317 4.37755 -3.83225 0
M  V30 3905 H 360.197 5.19867 -5.87118 0
M  V30 3906 N 357.7 0.491464 1.49741 0
M  V30 3907 C 358.928 -0.0535151 2.06831 0
M  V30 3908 C 359.343 -1.31683 1.35296 0
M  V30 3909 O 358.7 -1.77402 0.42836 0
M  V30 3910 C 358.751 -0.320835 3.60073 0
M  V30 3911 O 358.472 0.892394 4.28915 0
M  V30 3912 C 359.973 -0.910519 4.33848 0
M  V30 3913 H 357.193 0.0161909 0.670805 0
M  V30 3914 H 359.737 0.68609 1.92647 0
M  V30 3915 H 357.892 -1.0104 3.73991 0
M  V30 3916 H 358.306 0.649401 5.20464 0
M  V30 3917 H 359.78 -1.04721 5.41976 0
M  V30 3918 H 360.257 -1.90589 3.95692 0
M  V30 3919 H 360.863 -0.258712 4.24512 0
M  V30 3920 N 359.178 -1.55987 0.224894 0
M  V30 3921 C 360.108 -2.23426 -0.678457 0
M  V30 3922 C 361.089 -1.20709 -1.19847 0
M  V30 3923 O 362.274 -1.49304 -1.24186 0
M  V30 3924 C 359.404 -2.91676 -1.88527 0
M  V30 3925 C 358.358 -4.00893 -1.49896 0
M  V30 3926 C 357.684 -4.56455 -2.78483 0
M  V30 3927 C 358.984 -5.17769 -0.686461 0
M  V30 3928 H 360.678 -2.99175 -0.116173 0
M  V30 3929 H 358.224 -1.43897 -0.054436 0
M  V30 3930 H 360.177 -3.37547 -2.5227 0
M  V30 3931 H 358.901 -2.1338 -2.47258 0
M  V30 3932 H 357.56 -3.55758 -0.884985 0
M  V30 3933 H 357.208 -3.74886 -3.35365 0
M  V30 3934 H 356.908 -5.30169 -2.53368 0
M  V30 3935 H 358.432 -5.05047 -3.43162 0
M  V30 3936 H 359.846 -5.60001 -1.22767 0
M  V30 3937 H 358.243 -5.97735 -0.532259 0
M  V30 3938 H 359.313 -4.83932 0.306196 0
M  V30 3939 N 360.656 0.0484629 -1.57525 0
M  V30 3940 C 361.881 0.759177 -1.93006 0
M  V30 3941 C 362.306 1.69125 -0.823317 0
M  V30 3942 O 361.664 1.79931 0.222364 0
M  V30 3943 C 361.712 1.50899 -3.27509 0
M  V30 3944 O 360.816 2.62112 -3.18388 0
M  V30 3945 H 360.157 0.205564 -0.631379 0
M  V30 3946 H 362.687 0.00972959 -2.04598 0
M  V30 3947 H 362.697 1.88317 -3.6194 0
M  V30 3948 H 361.372 0.825269 -4.0763 0
M  V30 3949 H 359.949 2.27379 -2.95556 0
M  V30 3950 N 362.134 1.5431 0.320358 0
M  V30 3951 C 363.082 1.84647 1.4145 0
M  V30 3952 C 364.076 0.718624 1.53402 0
M  V30 3953 O 365.282 0.902335 1.5575 0
M  V30 3954 H 361.657 0.585349 0.472091 0
M  V30 3955 H 363.628 2.7614 1.13089 0
M  V30 3956 C 362.377 2.09341 2.77617 0
M  V30 3957 H 361.7 2.9559 2.69196 0
M  V30 3958 H 363.14 2.3452 3.53237 0
M  V30 3959 C 361.599 0.885939 3.25043 0
M  V30 3960 O 362.129 0.0967891 4.01583 0
M  V30 3961 N 360.335 0.696682 2.82125 0
M  V30 3962 H 359.882 1.34006 2.2 0
M  V30 3963 H 359.84 -0.109712 3.14209 0
M  V30 3964 N 363.613 -0.582584 1.46437 0
M  V30 3965 C 364.543 -1.70187 1.59871 0
M  V30 3966 C 365.524 -1.64066 0.449042 0
M  V30 3967 O 366.709 -1.82081 0.6753 0
M  V30 3968 C 363.839 -3.08827 1.58881 0
M  V30 3969 C 362.793 -3.29779 2.72819 0
M  V30 3970 C 362.119 -4.68947 2.5689 0
M  V30 3971 C 363.419 -3.17601 4.1464 0
M  V30 3972 H 365.113 -1.592 2.53566 0
M  V30 3973 H 362.659 -0.764472 1.22032 0
M  V30 3974 H 364.612 -3.86951 1.66873 0
M  V30 3975 H 363.336 -3.20713 0.617306 0
M  V30 3976 H 361.995 -2.54054 2.64296 0
M  V30 3977 H 361.643 -4.77599 1.57823 0
M  V30 3978 H 361.343 -4.83919 3.33312 0
M  V30 3979 H 362.867 -5.4924 2.66773 0
M  V30 3980 H 364.281 -3.8557 4.24274 0
M  V30 3981 H 362.678 -3.44094 4.9165 0
M  V30 3982 H 363.748 -2.14681 4.34788 0
M  V30 3983 N 365.091 -1.34144 -0.827227 0
M  V30 3984 C 366.331 -1.27603 -1.59677 0
M  V30 3985 C 366.695 0.153035 -1.91389 0
M  V30 3986 O 367.896 0.342566 -2.66608 0
M  V30 3987 C 366.167 -2.13784 -2.86411 0
M  V30 3988 S 367.726 -2.24552 -3.76991 0
M  V30 3989 H 364.544 -0.453789 -0.547354 0
M  V30 3990 H 367.146 -1.69309 -0.977479 0
M  V30 3991 H 365.85 -3.16627 -2.61104 0
M  V30 3992 H 365.381 -1.72959 -3.5334 0
M  V30 3993 H 367.396 -1.41514 -4.75593 0
M  V30 3994 N 366.569 1.04691 -1.17803 0
M  V30 3995 C 367.985 1.29963 -0.926379 0
M  V30 3996 C 368.185 1.97251 0.411635 0
M  V30 3997 O 367.241 2.24922 1.14744 0
M  V30 3998 C 368.554 2.16447 -2.08737 0
M  V30 3999 C 370.102 2.29814 -2.12496 0
M  V30 4000 C 370.577 3.19661 -3.27995 0
M  V30 4001 N 372.068 3.27247 -3.27816 0
M  V30 4002 C 372.803 3.96906 -4.13827 0
M  V30 4003 N 372.299 4.6895 -5.09959 0
M  V30 4004 N 374.092 3.93122 -4.01761 0
M  V30 4005 H 366.243 0.594182 -2.0392 0
M  V30 4006 H 368.506 0.324649 -0.890678 0
M  V30 4007 H 368.212 1.74304 -3.05469 0
M  V30 4008 H 368.086 3.17103 -2.04268 0
M  V30 4009 H 370.473 2.71196 -1.16347 0
M  V30 4010 H 370.554 1.2877 -2.21025 0
M  V30 4011 H 370.198 2.78991 -4.24413 0
M  V30 4012 H 370.128 4.20722 -3.16703 0
M  V30 4013 H 372.619 2.75921 -2.58217 0
M  V30 4014 H 372.932 5.19679 -5.71974 0
M  V30 4015 H 371.277 4.67875 -5.13924 0
M  V30 4016 H 374.468 3.35967 -3.2595 0
M  V30 4017 H 374.641 4.47139 -4.6901 0
M  V30 4018 N 368.047 0.979072 1.23499 0
M  V30 4019 C 369.295 0.645941 1.91499 0
M  V30 4020 C 369.616 -0.822948 1.76784 0
M  V30 4021 O 368.886 -1.58854 1.14639 0
M  V30 4022 H 367.466 0.235919 0.708767 0
M  V30 4023 H 370.128 1.2426 1.50152 0
M  V30 4024 H 369.224 0.896411 2.9895 0
M  V30 4025 N 369.525 -1.3858 0.750561 0
M  V30 4026 C 370.472 -2.30483 0.120835 0
M  V30 4027 C 371.442 -1.50022 -0.712923 0
M  V30 4028 O 372.627 -1.78662 -0.669676 0
M  V30 4029 C 369.767 -3.36431 -0.768666 0
M  V30 4030 C 368.88 -4.31927 0.0793922 0
M  V30 4031 C 368.015 -5.24944 -0.81283 0
M  V30 4032 C 367.054 -6.12088 0.0390447 0
M  V30 4033 N 366.191 -6.97412 -0.809969 0
M  V30 4034 H 371.031 -2.83761 0.91015 0
M  V30 4035 H 368.568 -1.39707 0.460463 0
M  V30 4036 H 370.526 -3.96462 -1.29898 0
M  V30 4037 H 369.156 -2.8457 -1.5238 0
M  V30 4038 H 368.208 -3.73382 0.727303 0
M  V30 4039 H 369.52 -4.93319 0.737401 0
M  V30 4040 H 368.674 -5.90078 -1.41042 0
M  V30 4041 H 367.413 -4.63911 -1.50458 0
M  V30 4042 H 366.418 -5.45952 0.649328 0
M  V30 4043 H 367.643 -6.75189 0.727809 0
M  V30 4044 H 365.589 -6.38931 -1.48672 0
M  V30 4045 H 365.506 -7.55712 -0.208789 0
M  V30 4046 H 366.774 -7.66959 -1.39263 0
M  V30 4047 N 371.003 -0.499398 -1.49478 0
M  V30 4048 C 372.414 -0.051215 -1.8663 0
M  V30 4049 C 372.765 1.36238 -1.41186 0
M  V30 4050 O 371.89 2.01502 -0.789051 0
M  V30 4051 C 372.485 -0.0861651 -3.3869 0
M  V30 4052 C 371.044 0.30667 -3.75149 0
M  V30 4053 C 370.191 -0.459397 -2.73468 0
M  V30 4054 H 373.142 -0.712264 -1.41818 0
M  V30 4055 H 373.163 0.709507 -3.73826 0
M  V30 4056 H 372.675 -1.11512 -3.71735 0
M  V30 4057 H 370.776 1.33892 -3.47712 0
M  V30 4058 H 370.889 -0.0116669 -4.79099 0
M  V30 4059 H 369.253 0.0905645 -2.54539 0
M  V30 4060 H 370.036 -1.4884 -3.09357 0
M  V30 4061 N 372.481 1.55866 -0.233164 0
M  V30 4062 C 373.444 2.1953 0.658715 0
M  V30 4063 C 374.444 1.16053 1.11303 0
M  V30 4064 O 375.634 1.41218 1.01996 0
M  V30 4065 C 372.766 2.82791 1.90373 0
M  V30 4066 H 373.959 2.99721 0.10347 0
M  V30 4067 H 371.512 1.56291 0.0164245 0
M  V30 4068 H 372.247 2.06501 2.50056 0
M  V30 4069 H 372.032 3.58578 1.58632 0
M  V30 4070 H 373.522 3.31556 2.53891 0
M  V30 4071 N 373.959 -0.0401083 1.57549 0
M  V30 4072 C 375.37 -0.588097 1.77196 0
M  V30 4073 C 375.721 -1.76209 0.862832 0
M  V30 4074 O 374.846 -2.16331 0.0548389 0
M  V30 4075 C 375.441 -1.07363 3.21339 0
M  V30 4076 C 374 -1.56723 3.42221 0
M  V30 4077 C 373.147 -0.50041 2.72747 0
M  V30 4078 H 376.098 0.186119 1.57605 0
M  V30 4079 H 376.119 -1.94143 3.27244 0
M  V30 4080 H 375.631 -0.218975 3.87482 0
M  V30 4081 H 373.732 -2.4441 2.81237 0
M  V30 4082 H 373.845 -1.62234 4.50796 0
M  V30 4083 H 372.209 -0.952894 2.36203 0
M  V30 4084 H 372.992 0.344599 3.41566 0
M  V30 4085 N 375.437 -1.54477 -0.31217 0
M  V30 4086 C 376.384 -1.84655 -1.38461 0
M  V30 4087 C 377.354 -0.694536 -1.50882 0
M  V30 4088 O 378.539 -0.942081 -1.6592 0
M  V30 4089 C 375.679 -2.0896 -2.74645 0
M  V30 4090 C 374.792 -3.36618 -2.70763 0
M  V30 4091 C 373.927 -3.50824 -3.98868 0
M  V30 4092 C 372.966 -4.72315 -3.89339 0
M  V30 4093 N 372.103 -4.83387 -5.09197 0
M  V30 4094 H 376.943 -2.76142 -1.12026 0
M  V30 4095 H 374.48 -1.36748 -0.542065 0
M  V30 4096 H 376.438 -2.21045 -3.53829 0
M  V30 4097 H 375.068 -1.20752 -2.99364 0
M  V30 4098 H 374.12 -3.33211 -1.83506 0
M  V30 4099 H 375.432 -4.25917 -2.59608 0
M  V30 4100 H 374.586 -3.62513 -4.86486 0
M  V30 4101 H 373.325 -2.59638 -4.12843 0
M  V30 4102 H 372.33 -4.6067 -3.00105 0
M  V30 4103 H 373.555 -5.64897 -3.76919 0
M  V30 4104 H 371.501 -3.9512 -5.23657 0
M  V30 4105 H 371.418 -5.66669 -5.00422 0
M  V30 4106 H 372.686 -4.9942 -5.98498 0
M  V30 4107 N 376.915 0.57481 -1.46744 0
M  V30 4108 C 378.162 1.33272 -1.52462 0
M  V30 4109 C 378.49 1.93669 -0.179572 0
M  V30 4110 O 377.745 1.7743 0.825664 0
M  V30 4111 C 378.044 2.476 -2.57738 0
M  V30 4112 C 377.71 2.05146 -4.01529 0
M  V30 4113 C 376.372 1.93284 -4.40676 0
M  V30 4114 C 378.724 1.72506 -4.91824 0
M  V30 4115 C 376.052 1.47049 -5.67973 0
M  V30 4116 C 378.404 1.27748 -6.19567 0
M  V30 4117 C 377.068 1.14468 -6.57612 0
M  V30 4118 H 376.338 0.487678 -0.557899 0
M  V30 4119 H 378.985 0.646456 -1.80259 0
M  V30 4120 H 377.29 3.21708 -2.23632 0
M  V30 4121 H 378.987 3.05807 -2.5939 0
M  V30 4122 H 375.577 2.15316 -3.7059 0
M  V30 4123 H 379.761 1.80552 -4.62293 0
M  V30 4124 H 375.017 1.35417 -5.96215 0
M  V30 4125 H 379.191 1.01547 -6.88957 0
M  V30 4126 H 376.818 0.78419 -7.56145 0
M  V30 4127 N 378.394 1.34581 0.820102 0
M  V30 4128 C 379.304 1.28471 1.96297 0
M  V30 4129 C 380.32 0.191902 1.72939 0
M  V30 4130 O 381.496 0.418879 1.96996 0
M  V30 4131 C 378.561 1.04281 3.30645 0
M  V30 4132 C 377.622 2.22745 3.66992 0
M  V30 4133 C 376.855 1.997 4.9493 0
M  V30 4134 O 377.078 0.956656 5.6232 0
M  V30 4135 O 376.012 2.86723 5.2922 0
M  V30 4136 H 379.838 2.24624 2.04396 0
M  V30 4137 H 377.423 1.14816 0.955913 0
M  V30 4138 H 379.305 0.925841 4.11104 0
M  V30 4139 H 377.98 0.111697 3.23507 0
M  V30 4140 H 376.887 2.40003 2.86966 0
M  V30 4141 H 378.22 3.14257 3.78819 0
M  V30 4142 N 379.872 -1.04064 1.18357 0
M  V30 4143 C 381.121 -1.76662 0.973313 0
M  V30 4144 C 381.434 -1.89154 -0.497991 0
M  V30 4145 O 382.64 -2.58606 -0.826762 0
M  V30 4146 C 381.096 -3.17624 1.69242 0
M  V30 4147 C 380.704 -3.13225 3.20303 0
M  V30 4148 C 382.448 -3.946 1.56497 0
M  V30 4149 C 380.355 -4.49046 3.84853 0
M  V30 4150 H 379.285 -0.662214 0.36054 0
M  V30 4151 H 381.936 -1.16553 1.41731 0
M  V30 4152 H 380.318 -3.78129 1.1762 0
M  V30 4153 H 381.492 -2.62172 3.78949 0
M  V30 4154 H 379.807 -2.49749 3.33189 0
M  V30 4155 H 382.404 -4.95042 2.02084 0
M  V30 4156 H 382.747 -4.13074 0.517243 0
M  V30 4157 H 383.28 -3.4067 2.05399 0
M  V30 4158 H 380.019 -4.35777 4.89672 0
M  V30 4159 H 379.539 -5.00203 3.30994 0
M  V30 4160 H 381.218 -5.17961 3.87718 0
M  V30 4161 N 381.35 -0.985608 -1.22978 0
M  V30 4162 C 382.596 -0.65836 -1.91816 0
M  V30 4163 C 382.929 0.806692 -1.76653 0
M  V30 4164 O 382.204 1.58252 -1.13078 0
M  V30 4165 C 382.487 -1.056 -3.44268 0
M  V30 4166 C 382.34 -2.57906 -3.68516 0
M  V30 4167 C 383.659 -0.603781 -4.35939 0
M  V30 4168 H 380.778 -0.24065 -0.696604 0
M  V30 4169 H 383.42 -1.22783 -1.44998 0
M  V30 4170 H 381.57 -0.571445 -3.84274 0
M  V30 4171 H 383.242 -3.13976 -3.3796 0
M  V30 4172 H 381.485 -3.00305 -3.13048 0
M  V30 4173 H 382.156 -2.80779 -4.75255 0
M  V30 4174 H 384.632 -1.01987 -4.03408 0
M  V30 4175 H 383.508 -0.910383 -5.41298 0
M  V30 4176 H 383.769 0.495761 -4.39312 0
M  V30 4177 N 382.828 1.3818 -0.7579 0
M  V30 4178 C 384.053 2.04827 -0.325679 0
M  V30 4179 C 384.478 1.56788 1.03919 0
M  V30 4180 O 383.836 0.721811 1.66312 0
M  V30 4181 C 383.884 3.58774 -0.362447 0
M  V30 4182 O 382.988 4.07372 0.642033 0
M  V30 4183 H 382.329 0.64833 -0.143402 0
M  V30 4184 H 384.859 1.7677 -1.03023 0
M  V30 4185 H 384.869 4.07434 -0.214844 0
M  V30 4186 H 383.544 3.93096 -1.35824 0
M  V30 4187 H 382.121 3.70068 0.458688 0
M  V30 4188 N 384.306 0.507319 1.49211 0
M  V30 4189 C 385.253 -0.267728 2.29242 0
M  V30 4190 C 386.223 -0.954609 1.35928 0
M  V30 4191 O 387.408 -0.960046 1.64887 0
M  V30 4192 C 384.548 -1.32243 3.18756 0
M  V30 4193 C 383.661 -0.64669 4.27132 0
M  V30 4194 C 382.796 -1.68238 5.03855 0
M  V30 4195 C 381.835 -0.98885 6.0406 0
M  V30 4196 N 380.972 -1.96903 6.73924 0
M  V30 4197 H 385.812 0.420968 2.95012 0
M  V30 4198 H 383.349 0.219443 1.45454 0
M  V30 4199 H 385.307 -1.94599 3.69036 0
M  V30 4200 H 383.937 -1.97981 2.54958 0
M  V30 4201 H 382.989 0.0902926 3.80293 0
M  V30 4202 H 384.301 -0.101058 4.98698 0
M  V30 4203 H 383.455 -2.38081 5.58034 0
M  V30 4204 H 382.194 -2.26187 4.32077 0
M  V30 4205 H 381.199 -0.276222 5.49106 0
M  V30 4206 H 382.424 -0.415767 6.77826 0
M  V30 4207 H 380.37 -2.53803 6.04913 0
M  V30 4208 H 380.287 -1.47423 7.41487 0
M  V30 4209 H 381.555 -2.66015 7.32705 0
M  V30 4210 N 385.784 -1.5574 0.241426 0
M  V30 4211 C 386.747 -2.19877 -0.647063 0
M  V30 4212 C 387.747 -1.16642 -1.10686 0
M  V30 4213 O 388.937 -1.41757 -1.01245 0
M  V30 4214 C 386.069 -2.83797 -1.88871 0
M  V30 4215 H 387.262 -2.99772 -0.087574 0
M  V30 4216 H 384.815 -1.56298 -0.00813574 0
M  V30 4217 H 385.55 -2.07824 -2.48957 0
M  V30 4218 H 385.335 -3.59414 -1.56728 0
M  V30 4219 H 386.825 -3.32898 -2.52129 0
M  V30 4220 N 387.262 0.0317525 -1.57568 0
M  V30 4221 C 388.192 1.03274 -2.0942 0
M  V30 4222 C 389.173 1.3788 -0.996143 0
M  V30 4223 O 390.358 1.46811 -1.27122 0
M  V30 4224 C 387.488 2.33448 -2.57137 0
M  V30 4225 C 386.442 2.13091 -3.71182 0
M  V30 4226 C 385.768 3.49001 -4.05095 0
M  V30 4227 C 387.068 1.51928 -4.99715 0
M  V30 4228 H 388.762 0.60112 -2.93303 0
M  V30 4229 H 386.308 0.287705 -1.41097 0
M  V30 4230 H 388.261 3.03802 -2.92032 0
M  V30 4231 H 386.985 2.78665 -1.70333 0
M  V30 4232 H 385.644 1.45171 -3.36632 0
M  V30 4233 H 385.292 3.91862 -3.15362 0
M  V30 4234 H 384.992 3.36207 -4.81911 0
M  V30 4235 H 386.516 4.20721 -4.42522 0
M  V30 4236 H 387.93 2.12196 -5.32584 0
M  V30 4237 H 386.327 1.49716 -5.81124 0
M  V30 4238 H 387.397 0.484811 -4.8247 0
M  V30 4239 N 388.74 1.54641 0.303973 0
M  V30 4240 C 390.151 1.64811 0.877163 0
M  V30 4241 C 390.502 0.554838 1.88191 0
M  V30 4242 O 389.627 -0.309033 2.14182 0
M  V30 4243 C 390.222 2.9876 1.59775 0
M  V30 4244 C 388.781 3.11061 2.11938 0
M  V30 4245 C 387.928 2.60479 0.951097 0
M  V30 4246 H 390.879 1.58493 0.0810486 0
M  V30 4247 H 390.9 2.90017 2.46314 0
M  V30 4248 H 390.412 3.7831 0.866226 0
M  V30 4249 H 388.513 2.36225 2.88146 0
M  V30 4250 H 388.626 4.17171 2.35595 0
M  V30 4251 H 386.99 2.16859 1.33583 0
M  V30 4252 H 387.773 3.42504 0.233581 0
M  V30 4253 N 390.218 -0.567019 1.47046 0
M  V30 4254 C 391.446 -1.35027 1.56765 0
M  V30 4255 C 391.861 -1.8758 0.214316 0
M  V30 4256 O 391.218 -1.64471 -0.790919 0
M  V30 4257 C 391.269 -2.52698 2.58507 0
M  V30 4258 O 390.99 -2.0232 3.88585 0
M  V30 4259 C 392.491 -3.45043 2.78316 0
M  V30 4260 H 389.711 -0.41195 0.529658 0
M  V30 4261 H 392.255 -0.687832 1.92585 0
M  V30 4262 H 390.41 -3.149 2.25648 0
M  V30 4263 H 390.824 -2.79068 4.44096 0
M  V30 4264 H 392.298 -4.2405 3.53391 0
M  V30 4265 H 392.775 -3.97971 1.85784 0
M  V30 4266 H 393.381 -2.88665 3.12334 0
M  V30 4267 N 391.696 -1.35014 -0.812953 0
M  V30 4268 C 392.626 -1.30069 -1.93919 0
M  V30 4269 C 393.607 -0.176275 -1.69184 0
M  V30 4270 O 394.792 -0.370227 -1.90638 0
M  V30 4271 C 391.922 -1.06547 -3.30552 0
M  V30 4272 C 390.876 -2.15561 -3.69753 0
M  V30 4273 C 390.202 -1.77214 -5.04479 0
M  V30 4274 C 391.502 -3.57476 -3.808 0
M  V30 4275 H 393.196 -2.24303 -1.98314 0
M  V30 4276 H 390.742 -1.07977 -0.952736 0
M  V30 4277 H 392.695 -1.01729 -4.08937 0
M  V30 4278 H 391.419 -0.0875719 -3.26483 0
M  V30 4279 H 390.078 -2.19466 -2.9365 0
M  V30 4280 H 389.726 -0.780589 -4.96906 0
M  V30 4281 H 389.426 -2.50184 -5.31678 0
M  V30 4282 H 390.95 -1.7391 -5.8531 0
M  V30 4283 H 392.364 -3.55929 -4.4943 0
M  V30 4284 H 390.761 -4.29152 -4.19462 0
M  V30 4285 H 391.831 -3.94091 -2.82525 0
M  V30 4286 N 393.175 1.03435 -1.18907 0
M  V30 4287 C 394.138 2.09756 -0.923844 0
M  V30 4288 C 395.138 1.60528 0.093416 0
M  V30 4289 O 396.328 1.73631 -0.140727 0
M  V30 4290 C 393.46 3.38692 -0.387354 0
M  V30 4291 H 394.653 2.34719 -1.86674 0
M  V30 4292 H 392.206 1.19959 -1.00197 0
M  V30 4293 H 392.941 3.19396 0.561845 0
M  V30 4294 H 392.726 3.75742 -1.12074 0
M  V30 4295 H 394.216 4.17016 -0.220694 0
M  V30 4296 N 394.653 0.992116 1.22453 0
M  V30 4297 C 395.616 0.546883 2.2258 0
M  V30 4298 C 396.616 -0.369829 1.56489 0
M  V30 4299 O 397.806 -0.161896 1.73446 0
M  V30 4300 C 394.938 -0.204659 3.40285 0
M  V30 4301 H 396.131 1.43234 2.63484 0
M  V30 4302 H 393.684 0.779239 1.3549 0
M  V30 4303 H 394.419 -1.10614 3.04853 0
M  V30 4304 H 394.204 0.45354 3.89468 0
M  V30 4305 H 395.694 -0.504358 4.14543 0
M  V30 4306 N 396.131 -1.37776 0.765217 0
M  V30 4307 C 397.061 -2.32945 0.160953 0
M  V30 4308 C 398.042 -1.55454 -0.690516 0
M  V30 4309 O 399.227 -1.83721 -0.629318 0
M  V30 4310 C 396.357 -3.39669 -0.724031 0
M  V30 4311 C 395.311 -4.27992 0.0256173 0
M  V30 4312 C 394.637 -5.25673 -0.978383 0
M  V30 4313 C 395.937 -5.08309 1.20082 0
M  V30 4314 H 397.631 -2.83728 0.955969 0
M  V30 4315 H 395.177 -1.36416 0.461149 0
M  V30 4316 H 397.13 -4.05219 -1.15652 0
M  V30 4317 H 395.854 -2.87396 -1.5515 0
M  V30 4318 H 394.513 -3.63964 0.438812 0
M  V30 4319 H 394.161 -4.69682 -1.80022 0
M  V30 4320 H 393.861 -5.85625 -0.481378 0
M  V30 4321 H 395.385 -5.94098 -1.40995 0
M  V30 4322 H 396.799 -5.67034 0.845307 0
M  V30 4323 H 395.196 -5.77554 1.62947 0
M  V30 4324 H 396.266 -4.41365 2.00811 0
M  V30 4325 N 397.609 -0.515225 -1.4894 0
M  V30 4326 C 398.858 0.0261361 -2.01683 0
M  V30 4327 C 399.171 1.36719 -1.39883 0
M  V30 4328 O 400.377 1.99606 -1.84037 0
M  V30 4329 C 398.833 0.0970111 -3.59769 0
M  V30 4330 C 398.441 -1.23825 -4.30548 0
M  V30 4331 C 400.185 0.587981 -4.20408 0
M  V30 4332 C 398.092 -1.12877 -5.80528 0
M  V30 4333 H 397.022 0.0135398 -0.753878 0
M  V30 4334 H 399.673 -0.656787 -1.71343 0
M  V30 4335 H 398.055 0.844694 -3.86886 0
M  V30 4336 H 399.229 -2.00034 -4.15118 0
M  V30 4337 H 397.544 -1.66379 -3.81716 0
M  V30 4338 H 400.141 0.68763 -5.3026 0
M  V30 4339 H 400.484 1.59026 -3.84729 0
M  V30 4340 H 401.017 -0.103582 -3.97665 0
M  V30 4341 H 397.756 -2.10575 -6.20756 0
M  V30 4342 H 397.276 -0.407799 -5.98412 0
M  V30 4343 H 398.955 -0.813332 -6.41868 0
M  V30 4344 N 399.087 1.5561 -0.249682 0
M  V30 4345 C 400.317 2.03116 0.377803 0
M  V30 4346 C 400.725 1.12822 1.51881 0
M  V30 4347 O 400.068 0.13562 1.83199 0
M  V30 4348 C 400.13 3.46866 0.944693 0
M  V30 4349 C 399.794 4.56955 -0.0644259 0
M  V30 4350 C 400.791 5.12485 -0.874957 0
M  V30 4351 C 398.476 5.01936 -0.19132 0
M  V30 4352 C 400.47 6.11491 -1.79881 0
M  V30 4353 C 398.157 6.00773 -1.11868 0
M  V30 4354 C 399.155 6.5543 -1.92095 0
M  V30 4355 O 398.843 7.5234 -2.83267 0
M  V30 4356 H 398.575 0.669489 0.0935961 0
M  V30 4357 H 401.129 2.02004 -0.371966 0
M  V30 4358 H 399.359 3.45136 1.74407 0
M  V30 4359 H 401.048 3.77856 1.48255 0
M  V30 4360 H 401.814 4.78564 -0.787523 0
M  V30 4361 H 397.693 4.59055 0.423072 0
M  V30 4362 H 401.237 6.54078 -2.42543 0
M  V30 4363 H 397.134 6.34114 -1.20703 0
M  V30 4364 H 397.902 7.69966 -2.7766 0
M  V30 4365 N 400.565 -0.0233959 1.57583 0
M  V30 4366 C 401.513 -1.04063 2.08023 0
M  V30 4367 C 402.507 -1.37084 0.995204 0
M  V30 4368 O 403.713 -1.35923 1.18004 0
M  V30 4369 H 400.088 -0.353144 0.663922 0
M  V30 4370 H 402.059 -0.589453 2.9252 0
M  V30 4371 C 400.808 -2.33123 2.57971 0
M  V30 4372 H 400.131 -2.08577 3.4108 0
M  V30 4373 H 401.571 -3.02632 2.96967 0
M  V30 4374 C 400.03 -3.02483 1.48342 0
M  V30 4375 O 400.56 -3.92541 0.852898 0
M  V30 4376 N 398.766 -2.63909 1.21658 0
M  V30 4377 H 398.313 -1.90758 1.73116 0
M  V30 4378 H 398.271 -3.10633 0.485218 0
M  V30 4379 N 402.043 -1.548 -0.295768 0
M  V30 4380 C 403.32 -1.65014 -1.05023 0
M  V30 4381 C 403.7 -0.501805 -2.05049 0
M  V30 4382 O 403.048 0.500869 -2.22943 0
M  V30 4383 C 403.258 -3.03252 -1.72741 0
M  V30 4384 C 404.606 -3.60242 -2.24746 0
M  V30 4385 O 405.63 -3.05737 -1.82765 0
M  V30 4386 O 404.489 -4.55687 -3.01681 0
M  V30 4387 H 401.583 -0.669314 -0.485744 0
M  V30 4388 H 404.129 -1.67144 -0.293438 0
M  V30 4389 H 402.901 -3.7827 -1.00138 0
M  V30 4390 H 402.524 -3.04922 -2.55163 0
M  V30 4391 N 403.521 0.559213 -1.47345 0
M  V30 4392 C 404.798 1.31997 -1.44348 0
M  V30 4393 C 405.178 2.1064 -0.139358 0
M  V30 4394 O 404.526 2.1091 0.879153 0
M  V30 4395 C 404.736 2.22618 -2.68779 0
M  V30 4396 C 406.084 2.83701 -3.1591 0
M  V30 4397 O 407.108 2.32921 -2.69493 0
M  V30 4398 O 405.967 3.75993 -3.966 0
M  V30 4399 H 403.061 0.594251 -0.575147 0
M  V30 4400 H 405.607 0.578282 -1.59543 0
M  V30 4401 H 404.379 1.64093 -3.55231 0
M  V30 4402 H 404.002 3.04085 -2.5616 0
M  V30 4403 N 404.999 1.35443 0.805782 0
M  V30 4404 C 405.909 1.30546 1.94923 0
M  V30 4405 C 406.925 0.210233 1.72725 0
M  V30 4406 O 408.101 0.43975 1.9654 0
M  V30 4407 C 405.166 1.07782 3.29521 0
M  V30 4408 C 404.227 2.26625 3.64609 0
M  V30 4409 C 403.46 2.04938 4.92784 0
M  V30 4410 O 403.683 1.01624 5.61274 0
M  V30 4411 O 402.617 2.9232 5.26149 0
M  V30 4412 H 406.443 2.26779 2.02002 0
M  V30 4413 H 404.028 1.15823 0.943682 0
M  V30 4414 H 405.91 0.969392 4.10098 0
M  V30 4415 H 404.585 0.146003 3.23371 0
M  V30 4416 H 403.492 2.43033 2.84404 0
M  V30 4417 H 404.825 3.18257 3.75464 0
M  V30 4418 N 406.477 -1.02803 1.19454 0
M  V30 4419 C 407.387 -2.14575 0.948408 0
M  V30 4420 C 408.403 -1.73757 -0.091871 0
M  V30 4421 O 409.579 -2.01185 0.0929654 0
M  V30 4422 C 406.644 -3.43202 0.491265 0
M  V30 4423 C 405.705 -3.98328 1.60103 0
M  V30 4424 C 404.938 -5.20816 1.16561 0
M  V30 4425 O 405.161 -5.70392 0.0295238 0
M  V30 4426 O 404.095 -5.68801 1.96849 0
M  V30 4427 H 407.921 -2.38202 1.88397 0
M  V30 4428 H 405.506 -1.12989 0.977433 0
M  V30 4429 H 407.388 -4.20687 0.245015 0
M  V30 4430 H 406.063 -3.21018 -0.415851 0
M  V30 4431 H 404.97 -3.22174 1.90144 0
M  V30 4432 H 406.303 -4.24879 2.48473 0
M  V30 4433 N 407.956 -0.998596 -1.21925 0
M  V30 4434 C 409.205 -0.673085 -1.90138 0
M  V30 4435 C 409.518 0.79895 -1.78539 0
M  V30 4436 O 410.724 1.23628 -2.4172 0
M  V30 4437 C 409.18 -1.15339 -3.40918 0
M  V30 4438 C 408.788 -2.65106 -3.61141 0
M  V30 4439 C 410.532 -0.902476 -4.14796 0
M  V30 4440 C 408.439 -3.0671 -5.05651 0
M  V30 4441 H 407.369 -0.248057 -0.712028 0
M  V30 4442 H 410.02 -1.20891 -1.38049 0
M  V30 4443 H 408.402 -0.545658 -3.92223 0
M  V30 4444 H 409.576 -3.31274 -3.20304 0
M  V30 4445 H 407.891 -2.88142 -3.00605 0
M  V30 4446 H 410.488 -1.18895 -5.21314 0
M  V30 4447 H 410.831 0.161349 -4.15987 0
M  V30 4448 H 411.364 -1.47269 -3.69536 0
M  V30 4449 H 408.103 -4.12292 -5.09603 0
M  V30 4450 H 407.623 -2.45249 -5.47369 0
M  V30 4451 H 409.302 -2.9833 -5.74115 0
M  V30 4452 N 409.434 1.37368 -0.772513 0
M  V30 4453 C 410.364 2.32856 -0.173304 0
M  V30 4454 C 411.345 1.55818 0.682262 0
M  V30 4455 O 412.53 1.84052 0.619566 0
M  V30 4456 C 409.66 3.40048 0.706007 0
M  V30 4457 C 408.614 4.27973 -0.0483144 0
M  V30 4458 C 407.94 5.26184 0.950491 0
M  V30 4459 C 409.24 5.07665 -1.22776 0
M  V30 4460 H 410.934 2.83217 -0.971002 0
M  V30 4461 H 408.48 1.3617 -0.468377 0
M  V30 4462 H 410.433 4.05827 1.13501 0
M  V30 4463 H 409.157 2.88214 1.53623 0
M  V30 4464 H 407.816 3.63726 -0.458107 0
M  V30 4465 H 407.464 4.7063 1.77529 0
M  V30 4466 H 407.164 5.85872 0.450314 0
M  V30 4467 H 408.688 5.94838 1.37842 0
M  V30 4468 H 410.102 5.66578 -0.875366 0
M  V30 4469 H 408.499 5.76681 -1.66007 0
M  V30 4470 H 409.569 4.40294 -2.03149 0
M  V30 4471 N 410.912 0.523116 1.48665 0
M  V30 4472 C 412.14 -0.0096312 2.06898 0
M  V30 4473 C 412.555 -1.28784 1.38059 0
M  V30 4474 O 411.912 -1.76453 0.465893 0
M  V30 4475 C 411.963 -0.244386 3.60673 0
M  V30 4476 O 411.684 0.983172 4.26925 0
M  V30 4477 C 413.185 -0.818289 4.35682 0
M  V30 4478 H 410.405 0.0304161 0.67031 0
M  V30 4479 H 412.949 0.726799 1.91149 0
M  V30 4480 H 411.104 -0.930847 3.76051 0
M  V30 4481 H 411.518 0.759653 5.1897 0
M  V30 4482 H 412.992 -0.93201 5.44075 0
M  V30 4483 H 413.469 -1.82153 3.99646 0
M  V30 4484 H 414.075 -0.168609 4.24966 0
M  V30 4485 N 412.39 -1.55475 0.257931 0
M  V30 4486 C 413.667 -1.91155 -0.414629 0
M  V30 4487 C 414.047 -1.18008 -1.75035 0
M  V30 4488 O 413.395 -0.301193 -2.26506 0
M  V30 4489 C 413.605 -3.44283 -0.571859 0
M  V30 4490 C 414.953 -4.15744 -0.862678 0
M  V30 4491 O 415.977 -3.50083 -0.657314 0
M  V30 4492 O 414.836 -5.31909 -1.2544 0
M  V30 4493 H 411.93 -0.796016 -0.22425 0
M  V30 4494 H 414.476 -1.66976 0.302814 0
M  V30 4495 H 413.248 -3.89558 0.368844 0
M  V30 4496 H 412.871 -3.7436 -1.33943 0
M  V30 4497 N 413.868 0.0150385 -1.57593 0
M  V30 4498 C 414.831 0.995996 -2.06428 0
M  V30 4499 C 415.831 1.2818 -0.970903 0
M  V30 4500 O 417.021 1.22949 -1.23406 0
M  V30 4501 C 414.153 2.32506 -2.49307 0
M  V30 4502 H 415.346 0.573873 -2.94358 0
M  V30 4503 H 412.899 0.262186 -1.54085 0
M  V30 4504 H 413.634 2.79438 -1.64575 0
M  V30 4505 H 413.419 2.13087 -3.29145 0
M  V30 4506 H 414.909 3.02906 -2.87468 0
M  V30 4507 N 415.346 1.54954 0.287554 0
M  V30 4508 C 416.586 1.76617 1.02887 0
M  V30 4509 C 416.95 0.547759 1.84021 0
M  V30 4510 O 418.151 0.642365 2.61012 0
M  V30 4511 C 416.422 3.02717 1.89993 0
M  V30 4512 S 417.981 3.45438 2.70588 0
M  V30 4513 H 414.799 0.6207 0.346775 0
M  V30 4514 H 417.401 1.93172 0.30082 0
M  V30 4515 H 416.105 3.89503 1.29287 0
M  V30 4516 H 415.636 2.88787 2.67144 0
M  V30 4517 H 417.651 3.03566 3.92508 0
M  V30 4518 N 416.824 -0.551391 1.4764 0
M  V30 4519 C 418.07 -1.30789 1.55774 0
M  V30 4520 C 418.425 -1.91143 0.219562 0
M  V30 4521 O 417.718 -1.7521 -0.775375 0
M  V30 4522 C 417.912 -2.43469 2.61644 0
M  V30 4523 C 417.741 -1.94157 4.05627 0
M  V30 4524 C 416.511 -1.77734 4.7301 0
M  V30 4525 C 418.709 -1.48262 4.92466 0
M  V30 4526 N 416.691 -1.22823 6.01488 0
M  V30 4527 C 418.062 -1.05156 6.11017 0
M  V30 4528 C 420.117 -1.36367 4.78862 0
M  V30 4529 C 418.82 -0.513357 7.17466 0
M  V30 4530 C 420.846 -0.839484 5.85411 0
M  V30 4531 C 420.208 -0.418377 7.03156 0
M  V30 4532 H 416.307 -0.470406 0.624694 0
M  V30 4533 H 418.891 -0.624331 1.84419 0
M  V30 4534 H 417.062 -3.09348 2.34859 0
M  V30 4535 H 418.794 -3.10477 2.59589 0
M  V30 4536 H 415.549 -2.00623 4.29007 0
M  V30 4537 H 415.973 -0.974393 6.69951 0
M  V30 4538 H 420.615 -1.67535 3.88191 0
M  V30 4539 H 418.333 -0.189318 8.07878 0
M  V30 4540 H 421.919 -0.750921 5.76934 0
M  V30 4541 H 420.799 -0.0190538 7.84198 0
M  V30 4542 N 418.302 -1.35869 -0.798587 0
M  V30 4543 C 419.53 -1.32722 -1.58722 0
M  V30 4544 C 419.945 0.0935631 -1.88568 0
M  V30 4545 O 419.302 1.04784 -1.49421 0
M  V30 4546 C 419.353 -2.13974 -2.91371 0
M  V30 4547 O 419.074 -3.50514 -2.62815 0
M  V30 4548 C 420.575 -2.18504 -3.85708 0
M  V30 4549 H 417.795 -0.45562 -0.492596 0
M  V30 4550 H 420.339 -1.78837 -0.991843 0
M  V30 4551 H 418.494 -1.71438 -3.47402 0
M  V30 4552 H 418.908 -3.92806 -3.47568 0
M  V30 4553 H 420.382 -2.79732 -4.75872 0
M  V30 4554 H 420.859 -1.18597 -4.22885 0
M  V30 4555 H 421.465 -2.61236 -3.35612 0
M  V30 4556 N 419.78 1.02168 -1.19998 0
M  V30 4557 C 420.71 2.12488 -0.96804 0
M  V30 4558 C 421.691 1.69799 0.101185 0
M  V30 4559 O 422.876 1.94121 -0.0552993 0
M  V30 4560 C 420.006 3.43479 -0.513776 0
M  V30 4561 C 418.96 3.99884 -1.52566 0
M  V30 4562 C 418.286 5.26582 -0.928214 0
M  V30 4563 C 419.586 4.33861 -2.90795 0
M  V30 4564 H 421.28 2.32149 -1.89069 0
M  V30 4565 H 418.826 1.11564 -0.910468 0
M  V30 4566 H 420.779 4.20036 -0.338774 0
M  V30 4567 H 419.503 3.23561 0.444493 0
M  V30 4568 H 418.162 3.25429 -1.68794 0
M  V30 4569 H 417.81 5.02986 0.0378289 0
M  V30 4570 H 417.51 5.65284 -1.60397 0
M  V30 4571 H 419.034 6.05799 -0.764167 0
M  V30 4572 H 420.448 5.01327 -2.78109 0
M  V30 4573 H 418.845 4.83664 -3.55231 0
M  V30 4574 H 419.915 3.42848 -3.42904 0
M  V30 4575 N 421.258 1.00505 1.21394 0
M  V30 4576 C 422.483 0.706367 1.95001 0
M  V30 4577 C 422.908 -0.72463 1.73582 0
M  V30 4578 O 422.266 -1.49702 1.0227 0
M  V30 4579 C 422.314 1.03299 3.45487 0
M  V30 4580 O 421.418 0.138275 4.12168 0
M  V30 4581 H 420.759 0.263175 0.609619 0
M  V30 4582 H 423.289 1.34531 1.54151 0
M  V30 4583 H 423.299 0.979872 3.96059 0
M  V30 4584 H 421.974 2.07567 3.60401 0
M  V30 4585 H 420.551 0.247928 3.72075 0
M  V30 4586 N 422.737 -1.36956 0.779787 0
M  V30 4587 C 423.967 -2.03459 0.358877 0
M  V30 4588 C 424.375 -1.58939 -1.02641 0
M  V30 4589 O 423.718 -0.769777 -1.66794 0
M  V30 4590 C 423.78 -3.5796 0.332393 0
M  V30 4591 C 423.444 -4.25644 1.66362 0
M  V30 4592 C 424.441 -4.49205 2.61746 0
M  V30 4593 C 422.126 -4.63313 1.94027 0
M  V30 4594 C 424.12 -5.09503 3.82996 0
M  V30 4595 C 421.807 -5.2333 3.15546 0
M  V30 4596 C 422.805 -5.46363 4.0985 0
M  V30 4597 O 422.493 -6.05122 5.29228 0
M  V30 4598 H 422.225 -0.659767 0.147254 0
M  V30 4599 H 424.779 -1.76111 1.05708 0
M  V30 4600 H 423.009 -3.84388 -0.422237 0
M  V30 4601 H 424.698 -4.05852 -0.0625389 0
M  V30 4602 H 425.464 -4.20508 2.41657 0
M  V30 4603 H 421.343 -4.44715 1.21448 0
M  V30 4604 H 424.887 -5.27397 4.56617 0
M  V30 4605 H 420.784 -5.51451 3.35517 0
M  V30 4606 H 421.552 -6.23595 5.30161 0
M  V30 4607 N 424.215 -0.530993 -1.48385 0
M  V30 4608 C 425.145 0.219985 -2.32461 0
M  V30 4609 C 426.126 0.934111 -1.42156 0
M  V30 4610 O 427.311 0.919694 -1.71042 0
M  V30 4611 C 424.441 1.26674 -3.23375 0
M  V30 4612 C 423.395 0.67069 -4.22712 0
M  V30 4613 C 422.721 1.82017 -5.02766 0
M  V30 4614 C 424.021 -0.358268 -5.2107 0
M  V30 4615 H 425.715 -0.48187 -2.95497 0
M  V30 4616 H 423.261 -0.233182 -1.42099 0
M  V30 4617 H 425.214 1.80006 -3.81019 0
M  V30 4618 H 423.938 1.99818 -2.58341 0
M  V30 4619 H 422.597 0.158878 -3.66256 0
M  V30 4620 H 422.245 2.54002 -4.34157 0
M  V30 4621 H 421.945 1.42727 -5.70003 0
M  V30 4622 H 423.469 2.35725 -5.63264 0
M  V30 4623 H 424.883 0.0880081 -5.73232 0
M  V30 4624 H 423.28 -0.66861 -5.96364 0
M  V30 4625 H 424.35 -1.26367 -4.68145 0
M  V30 4626 N 425.693 1.55336 -0.266172 0
M  V30 4627 C 426.918 2.04258 0.359661 0
M  V30 4628 C 427.343 1.14359 1.49344 0
M  V30 4629 O 426.701 0.140369 1.80756 0
M  V30 4630 C 426.749 3.50997 0.826635 0
M  V30 4631 O 425.853 3.64204 1.93466 0
M  V30 4632 H 425.194 0.659668 0.075727 0
M  V30 4633 H 427.724 2.00694 -0.39786 0
M  V30 4634 H 427.734 3.9219 1.12477 0
M  V30 4635 H 426.409 4.159 -0.00293032 0
M  V30 4636 H 424.986 3.34913 1.63974 0
M  V30 4637 N 427.171 -0.0066808 1.57599 0
M  V30 4638 C 428.448 -0.729586 1.81484 0
M  V30 4639 C 428.828 -1.92359 0.869558 0
M  V30 4640 O 428.176 -2.28348 -0.0832533 0
M  V30 4641 C 428.386 -1.1416 3.29801 0
M  V30 4642 C 429.734 -1.54823 3.95367 0
M  V30 4643 O 430.758 -1.23558 3.34084 0
M  V30 4644 O 429.617 -2.12937 5.03309 0
M  V30 4645 H 426.711 -0.354674 0.747085 0
M  V30 4646 H 429.257 0.0182609 1.6969 0
M  V30 4647 H 428.029 -0.290231 3.90222 0
M  V30 4648 H 427.652 -1.94876 3.46568 0
M  V30 4649 N 428.649 -1.55105 -0.279332 0
M  V30 4650 C 429.897 -1.75066 -1.00977 0
M  V30 4651 C 430.218 -0.551276 -1.87045 0
M  V30 4652 O 429.488 0.433984 -1.91032 0
M  V30 4653 H 428.068 -0.645578 -0.375816 0
M  V30 4654 H 430.73 -1.92497 -0.305089 0
M  V30 4655 H 429.826 -2.64894 -1.65038 0
M  V30 4656 N 430.127 0.543554 -1.4793 0
M  V30 4657 C 431.352 1.32995 -1.59145 0
M  V30 4658 C 431.777 1.86472 -0.246956 0
M  V30 4659 O 431.135 1.63696 0.779324 0
M  V30 4660 C 431.183 2.46623 -2.63077 0
M  V30 4661 O 430.287 3.49261 -2.19295 0
M  V30 4662 H 429.628 0.394472 -0.534124 0
M  V30 4663 H 432.158 0.655489 -1.93816 0
M  V30 4664 H 432.168 2.93001 -2.83926 0
M  V30 4665 H 430.843 2.07059 -3.60693 0
M  V30 4666 H 429.42 3.09094 -2.08603 0
M  V30 4667 N 431.605 1.3629 0.791371 0
M  V30 4668 C 432.553 1.30514 1.92533 0
M  V30 4669 C 433.547 0.197285 1.68247 0
M  V30 4670 O 434.753 0.364176 1.76278 0
M  V30 4671 H 431.128 0.406263 0.632815 0
M  V30 4672 H 433.099 2.26282 1.94523 0
M  V30 4673 C 431.848 1.10933 3.29529 0
M  V30 4674 H 431.171 1.95427 3.48781 0
M  V30 4675 H 432.611 1.10937 4.0923 0
M  V30 4676 C 431.07 -0.186123 3.36385 0
M  V30 4677 O 431.6 -1.17664 3.84081 0
M  V30 4678 N 429.806 -0.230128 2.89687 0
M  V30 4679 H 429.353 0.576545 2.51065 0
M  V30 4680 H 429.311 -1.09658 2.94657 0
M  V30 4681 N 433.083 -1.0153 1.20538 0
M  V30 4682 C 433.993 -2.13557 0.971113 0
M  V30 4683 C 435.009 -1.73845 -0.0734366 0
M  V30 4684 O 436.185 -2.01075 0.114299 0
M  V30 4685 C 433.25 -3.42661 0.527639 0
M  V30 4686 C 432.311 -3.96608 1.64319 0
M  V30 4687 C 431.544 -5.1955 1.22078 0
M  V30 4688 O 431.767 -5.70329 0.0900198 0
M  V30 4689 O 430.701 -5.66681 2.02871 0
M  V30 4690 H 434.527 -2.3619 1.90913 0
M  V30 4691 H 432.112 -1.11946 0.989362 0
M  V30 4692 H 433.994 -4.20404 0.289621 0
M  V30 4693 H 432.669 -3.21441 -0.381779 0
M  V30 4694 H 431.576 -3.20139 1.93551 0
M  V30 4695 H 432.909 -4.22219 2.52966 0
M  V30 4696 N 434.561 -1.01147 -1.20859 0
M  V30 4697 C 435.509 -0.57059 -2.25493 0
M  V30 4698 C 436.503 0.388109 -1.64894 0
M  V30 4699 O 437.709 0.258592 -1.78133 0
M  V30 4700 H 434.084 -0.166191 -0.733406 0
M  V30 4701 H 436.055 -1.46411 -2.60012 0
M  V30 4702 C 434.804 0.0805241 -3.47607 0
M  V30 4703 H 434.127 -0.648156 -3.94511 0
M  V30 4704 H 435.567 0.352197 -4.22535 0
M  V30 4705 C 434.026 1.32175 -3.09889 0
M  V30 4706 O 434.556 2.41553 -3.20959 0
M  V30 4707 N 432.762 1.20392 -2.64488 0
M  V30 4708 H 432.309 0.313905 -2.5568 0
M  V30 4709 H 432.267 2.03541 -2.39621 0
M  V30 4710 N 436.039 1.36541 -0.78704 0
M  V30 4711 C 437.288 1.98552 -0.35494 0
M  V30 4712 C 437.601 1.63171 1.07864 0
M  V30 4713 O 438.807 2.18399 1.61289 0
M  V30 4714 C 437.263 3.55136 -0.583671 0
M  V30 4715 C 436.871 3.99444 -2.02851 0
M  V30 4716 C 438.615 4.2395 -0.215957 0
M  V30 4717 C 436.522 5.48796 -2.20403 0
M  V30 4718 H 435.452 0.742888 -0.128972 0
M  V30 4719 H 438.103 1.5587 -0.968337 0
M  V30 4720 H 436.485 3.95875 0.0994046 0
M  V30 4721 H 437.659 3.6991 -2.74779 0
M  V30 4722 H 435.974 3.43459 -2.35425 0
M  V30 4723 H 438.571 5.33709 -0.325405 0
M  V30 4724 H 438.914 4.07827 0.835646 0
M  V30 4725 H 439.447 3.88565 -0.852175 0
M  V30 4726 H 436.186 5.69864 -3.23937 0
M  V30 4727 H 435.706 5.79964 -1.52977 0
M  V30 4728 H 437.385 6.14986 -2.01002 0
M  V30 4729 N 437.518 0.538854 1.48102 0
M  V30 4730 C 438.466 -0.232325 2.31437 0
M  V30 4731 C 439.46 -0.927004 1.41785 0
M  V30 4732 O 440.666 -0.850378 1.58646 0
M  V30 4733 H 437.041 -0.0937916 0.746128 0
M  V30 4734 H 439.012 0.489986 2.9435 0
M  V30 4735 C 437.761 -1.26074 3.24038 0
M  V30 4736 H 437.084 -0.735609 3.92974 0
M  V30 4737 H 438.524 -1.77157 3.85216 0
M  V30 4738 C 436.983 -2.29902 2.46265 0
M  V30 4739 O 437.513 -3.36502 2.19384 0
M  V30 4740 N 435.719 -2.03348 2.07601 0
M  V30 4741 H 435.266 -1.16675 2.29662 0
M  V30 4742 H 435.224 -2.73038 1.55877 0
M  V30 4743 N 438.996 -1.55193 0.274407 0
M  V30 4744 C 440.221 -2.04446 -0.348824 0
M  V30 4745 C 440.646 -1.15149 -1.48735 0
M  V30 4746 O 440.004 -0.149952 -1.80679 0
M  V30 4747 C 440.052 -3.51431 -0.808009 0
M  V30 4748 O 439.156 -3.65225 -1.91531 0
M  V30 4749 H 438.497 -0.66006 -0.0722276 0
M  V30 4750 H 441.027 -2.00481 0.408498 0
M  V30 4751 H 441.037 -3.92781 -1.10395 0
M  V30 4752 H 439.712 -4.15892 0.0249865 0
M  V30 4753 H 438.289 -3.35778 -1.62196 0
M  V30 4754 N 440.474 -0.00167713 -1.576 0
M  V30 4755 C 441.72 0.683832 -1.90923 0
M  V30 4756 C 442.053 1.7333 -0.875799 0
M  V30 4757 O 441.328 1.94215 0.10525 0
M  V30 4758 C 441.611 1.32543 -3.3482 0
M  V30 4759 C 441.464 0.287387 -4.48881 0
M  V30 4760 C 442.783 2.25114 -3.78169 0
M  V30 4761 H 439.902 0.247125 -0.694333 0
M  V30 4762 H 442.544 -0.0533149 -1.89925 0
M  V30 4763 H 440.694 1.95372 -3.35801 0
M  V30 4764 H 442.366 -0.341346 -4.60035 0
M  V30 4765 H 440.609 -0.39017 -4.32042 0
M  V30 4766 H 441.28 0.775393 -5.46527 0
M  V30 4767 H 443.756 1.723 -3.7875 0
M  V30 4768 H 442.632 2.66971 -4.79602 0
M  V30 4769 H 442.893 3.13092 -3.12131 0
M  V30 4770 N 441.952 1.55251 0.271103 0
M  V30 4771 C 442.882 1.9127 1.33933 0
M  V30 4772 C 443.863 0.77478 1.5143 0
M  V30 4773 O 445.048 1.03307 1.64442 0
M  V30 4774 C 442.178 2.18627 2.69851 0
M  V30 4775 C 441.132 3.34442 2.67081 0
M  V30 4776 C 440.458 3.47284 4.06569 0
M  V30 4777 C 441.758 4.70784 2.26185 0
M  V30 4778 H 443.452 2.80744 1.04035 0
M  V30 4779 H 440.998 1.35077 0.499017 0
M  V30 4780 H 442.951 2.42413 3.44694 0
M  V30 4781 H 441.675 1.25955 3.01335 0
M  V30 4782 H 440.334 3.10627 1.94695 0
M  V30 4783 H 439.982 2.52074 4.35279 0
M  V30 4784 H 439.682 4.25152 4.0561 0
M  V30 4785 H 441.206 3.73363 4.83148 0
M  V30 4786 H 442.62 4.94102 2.90751 0
M  V30 4787 H 441.017 5.51582 2.36384 0
M  V30 4788 H 442.087 4.69478 1.21319 0
M  V30 4789 N 443.43 -0.535701 1.48216 0
M  V30 4790 C 444.707 -1.29683 1.46429 0
M  V30 4791 C 445.087 -2.10391 0.172852 0
M  V30 4792 O 444.435 -2.12282 -0.845488 0
M  V30 4793 C 444.645 -2.18313 2.72287 0
M  V30 4794 C 445.993 -2.78639 3.20383 0
M  V30 4795 O 447.017 -2.28604 2.73164 0
M  V30 4796 O 445.876 -3.69636 4.02531 0
M  V30 4797 H 442.97 -0.585026 0.584529 0
M  V30 4798 H 445.516 -0.552827 1.60443 0
M  V30 4799 H 444.288 -1.58421 3.57797 0
M  V30 4800 H 443.911 -2.99971 2.60966 0
M  V30 4801 N 444.908 -1.36708 -0.784132 0
M  V30 4802 C 445.871 -1.31307 -1.87859 0
M  V30 4803 C 446.871 -0.219654 -1.59293 0
M  V30 4804 O 448.061 -0.47476 -1.67606 0
M  V30 4805 C 445.193 -1.03679 -3.24751 0
M  V30 4806 H 446.386 -2.28647 -1.94064 0
M  V30 4807 H 443.939 -1.21558 -0.98252 0
M  V30 4808 H 444.674 -0.0681936 -3.24228 0
M  V30 4809 H 444.459 -1.82811 -3.46876 0
M  V30 4810 H 445.949 -1.02518 -4.04821 0
M  V30 4811 N 446.386 1.0089 -1.21074 0
M  V30 4812 C 447.634 1.74262 -1.02358 0
M  V30 4813 C 447.955 1.89869 0.444393 0
M  V30 4814 O 447.225 1.44677 1.32081 0
M  V30 4815 H 445.805 0.645615 -0.375754 0
M  V30 4816 H 448.467 1.21596 -1.52317 0
M  V30 4817 H 447.563 2.74328 -1.4883 0
M  V30 4818 N 447.864 1.01787 1.20321 0
M  V30 4819 C 449.11 0.708985 1.90003 0
M  V30 4820 C 449.443 -0.759572 1.78729 0
M  V30 4821 O 448.718 -1.55198 1.17234 0
M  V30 4822 C 449.001 1.1469 3.41348 0
M  V30 4823 C 448.854 2.67586 3.61549 0
M  V30 4824 C 450.173 0.71915 4.34185 0
M  V30 4825 H 447.292 0.259034 0.689978 0
M  V30 4826 H 449.934 1.26584 1.41692 0
M  V30 4827 H 448.084 0.673128 3.82624 0
M  V30 4828 H 449.756 3.22826 3.29517 0
M  V30 4829 H 447.999 3.085 3.04976 0
M  V30 4830 H 448.67 2.93281 4.67643 0
M  V30 4831 H 451.146 1.12647 4.00562 0
M  V30 4832 H 450.022 1.05358 5.38694 0
M  V30 4833 H 450.283 -0.379111 4.40472 0
M  V30 4834 N 449.342 -1.36122 0.79427 0
M  V30 4835 C 450.305 -2.28309 0.201889 0
M  V30 4836 C 451.305 -1.49041 -0.603603 0
M  V30 4837 O 452.495 -1.68964 -0.423888 0
M  V30 4838 C 449.627 -3.3321 -0.719978 0
M  V30 4839 H 450.82 -2.82208 1.01481 0
M  V30 4840 H 448.373 -1.45768 0.564037 0
M  V30 4841 H 449.108 -2.84475 -1.55706 0
M  V30 4842 H 448.893 -3.91835 -0.144266 0
M  V30 4843 H 450.383 -4.02044 -1.12916 0
M  V30 4844 N 450.82 -0.546701 -1.47814 0
M  V30 4845 C 451.73 0.21026 -2.33656 0
M  V30 4846 C 452.746 0.922413 -1.47538 0
M  V30 4847 O 453.922 0.893652 -1.80488 0
M  V30 4848 C 450.987 1.23348 -3.24016 0
M  V30 4849 C 450.048 0.529883 -4.26017 0
M  V30 4850 C 449.281 1.50435 -5.12059 0
M  V30 4851 O 449.504 2.73837 -5.00369 0
M  V30 4852 O 448.438 1.03459 -5.92942 0
M  V30 4853 H 452.264 -0.493605 -2.99662 0
M  V30 4854 H 449.849 -0.307427 -1.46203 0
M  V30 4855 H 451.731 1.82438 -3.79861 0
M  V30 4856 H 450.406 1.91945 -2.60651 0
M  V30 4857 H 449.313 -0.101948 -3.73961 0
M  V30 4858 H 450.646 -0.11445 -4.92067 0
M  V30 4859 N 452.299 1.55045 -0.282633 0
M  V30 4860 C 453.715 1.59441 0.0712997 0
M  V30 4861 C 453.915 1.2998 1.53972 0
M  V30 4862 O 452.971 1.06431 2.28973 0
M  V30 4863 C 454.284 2.99097 -0.310104 0
M  V30 4864 C 455.832 3.1194 -0.257343 0
M  V30 4865 C 456.307 4.53875 -0.613297 0
M  V30 4866 N 457.798 4.5974 -0.565134 0
M  V30 4867 C 458.533 5.67603 -0.81326 0
M  V30 4868 N 458.029 6.83582 -1.1264 0
M  V30 4869 N 459.822 5.57187 -0.741553 0
M  V30 4870 H 451.973 1.72458 -1.23984 0
M  V30 4871 H 454.236 0.804549 -0.501403 0
M  V30 4872 H 453.942 3.25516 -1.33163 0
M  V30 4873 H 453.816 3.75616 0.345366 0
M  V30 4874 H 456.203 2.85281 0.754905 0
M  V30 4875 H 456.284 2.37618 -0.947178 0
M  V30 4876 H 455.928 4.81261 -1.62327 0
M  V30 4877 H 455.858 5.26508 0.09841 0
M  V30 4878 H 458.349 3.76427 -0.333294 0
M  V30 4879 H 458.662 7.6175 -1.30219 0
M  V30 4880 H 457.007 6.85179 -1.16425 0
M  V30 4881 H 460.198 4.65457 -0.496705 0
M  V30 4882 H 460.371 6.41171 -0.938306 0
M  V30 4883 N 453.777 0.010035 1.57597 0
M  V30 4884 C 455.023 -0.673697 1.91283 0
M  V30 4885 C 455.356 -1.72863 0.884979 0
M  V30 4886 O 454.631 -1.94268 -0.0949487 0
M  V30 4887 C 454.914 -1.30766 3.35518 0
M  V30 4888 C 454.767 -0.263578 4.49027 0
M  V30 4889 C 456.086 -2.23105 3.79358 0
M  V30 4890 H 453.205 -0.243439 0.695634 0
M  V30 4891 H 455.847 0.0633864 1.89894 0
M  V30 4892 H 453.997 -1.93588 3.36832 0
M  V30 4893 H 455.669 0.365738 4.59848 0
M  V30 4894 H 453.912 0.413077 4.31829 0
M  V30 4895 H 454.583 -0.746398 5.4693 0
M  V30 4896 H 457.059 -1.70289 3.79659 0
M  V30 4897 H 455.935 -2.64424 4.81011 0
M  V30 4898 H 456.196 -3.11433 3.13787 0
M  V30 4899 N 455.255 -1.55392 -0.262866 0
M  V30 4900 C 456.501 -1.76737 -0.99458 0
M  V30 4901 C 456.834 -0.572453 -1.85571 0
M  V30 4902 O 456.109 0.429732 -1.89693 0
M  V30 4903 C 456.392 -3.07824 -1.8686 0
M  V30 4904 C 456.245 -4.3769 -1.03672 0
M  V30 4905 C 457.564 -3.35021 -2.85393 0
M  V30 4906 H 454.683 -0.643005 -0.360157 0
M  V30 4907 H 457.325 -1.88126 -0.266216 0
M  V30 4908 H 455.475 -2.98245 -2.48962 0
M  V30 4909 H 457.147 -4.59238 -0.43563 0
M  V30 4910 H 455.39 -4.32461 -0.340513 0
M  V30 4911 H 456.061 -5.25759 -1.6817 0
M  V30 4912 H 458.537 -3.44458 -2.33426 0
M  V30 4913 H 457.413 -4.27989 -3.43681 0
M  V30 4914 H 457.674 -2.55153 -3.61039 0
M  V30 4915 N 456.733 0.527833 -1.48498 0
M  V30 4916 C 457.643 1.65907 -1.65867 0
M  V30 4917 C 458.659 1.6537 -0.541192 0
M  V30 4918 O 459.835 1.84282 -0.812534 0
M  V30 4919 C 456.9 3.02364 -1.69637 0
M  V30 4920 C 455.961 3.1374 -2.93028 0
M  V30 4921 C 455.194 4.43688 -2.96609 0
M  V30 4922 O 455.417 5.30913 -2.08538 0
M  V30 4923 O 454.351 4.59475 -3.88802 0
M  V30 4924 H 458.177 1.5419 -2.61647 0
M  V30 4925 H 455.762 0.701163 -1.31924 0
M  V30 4926 H 457.644 3.83515 -1.74625 0
M  V30 4927 H 456.319 3.14401 -0.770312 0
M  V30 4928 H 455.226 2.31877 -2.93571 0
M  V30 4929 H 456.559 3.06621 -3.85026 0
M  V30 4930 N 458.211 1.37122 0.776871 0
M  V30 4931 C 459.141 1.35164 1.90402 0
M  V30 4932 C 460.122 0.221069 1.68657 0
M  V30 4933 O 461.307 0.420642 1.8959 0
M  V30 4934 C 458.437 1.15274 3.27611 0
M  V30 4935 C 457.391 2.25289 3.63908 0
M  V30 4936 C 456.717 1.90527 4.99603 0
M  V30 4937 C 458.017 3.67446 3.71188 0
M  V30 4938 H 459.711 2.29482 1.92297 0
M  V30 4939 H 457.257 1.10465 0.923773 0
M  V30 4940 H 459.21 1.12536 4.06096 0
M  V30 4941 H 457.934 0.174102 3.26136 0
M  V30 4942 H 456.593 2.27174 2.87728 0
M  V30 4943 H 456.241 0.91206 4.94662 0
M  V30 4944 H 455.941 2.64193 5.24858 0
M  V30 4945 H 457.465 1.89367 5.80493 0
M  V30 4946 H 458.879 3.67719 4.39836 0
M  V30 4947 H 457.276 4.40123 4.07936 0
M  V30 4948 H 458.346 4.01443 2.71977 0
M  V30 4949 N 459.689 -1.00246 1.21608 0
M  V30 4950 C 460.619 -2.10921 1.00172 0
M  V30 4951 C 461.6 -1.69938 -0.0741587 0
M  V30 4952 O 462.785 -1.94009 0.0861753 0
M  V30 4953 C 459.915 -3.42618 0.568355 0
M  V30 4954 C 458.869 -3.97407 1.58909 0
M  V30 4955 C 458.195 -5.25038 1.01187 0
M  V30 4956 C 459.495 -4.2918 2.97661 0
M  V30 4957 H 461.189 -2.29112 1.92739 0
M  V30 4958 H 458.735 -1.10101 0.928102 0
M  V30 4959 H 460.688 -4.19444 0.405555 0
M  V30 4960 H 459.412 -3.24227 -0.392961 0
M  V30 4961 H 458.071 -3.22703 1.73949 0
M  V30 4962 H 457.719 -5.02982 0.0421965 0
M  V30 4963 H 457.419 -5.62661 1.6937 0
M  V30 4964 H 458.943 -6.04507 0.860448 0
M  V30 4965 H 460.357 -4.96839 2.86049 0
M  V30 4966 H 458.754 -4.77952 3.6288 0
M  V30 4967 H 459.824 -3.3735 3.48315 0
M  V30 4968 N 461.167 -1.02423 -1.1978 0
M  V30 4969 C 462.392 -0.7373 -1.93852 0
M  V30 4970 C 462.817 0.696923 -1.74713 0
M  V30 4971 O 462.175 1.48056 -1.04638 0
M  V30 4972 C 462.223 -1.08783 -3.438 0
M  V30 4973 O 461.327 -0.20383 -4.11896 0
M  V30 4974 H 460.668 -0.27284 -0.605355 0
M  V30 4975 H 463.198 -1.36966 -1.51992 0
M  V30 4976 H 463.208 -1.04276 -3.9445 0
M  V30 4977 H 461.883 -2.13274 -3.57053 0
M  V30 4978 H 460.46 -0.307091 -3.71633 0
M  V30 4979 N 462.645 1.35699 -0.801477 0
M  V30 4980 C 463.595 2.2728 -0.181073 0
M  V30 4981 C 464.579 1.47533 0.642098 0
M  V30 4982 O 465.771 1.69785 0.500193 0
M  V30 4983 C 462.9 3.36626 0.673612 0
M  V30 4984 C 461.986 4.23802 -0.159008 0
M  V30 4985 N 462.377 4.90879 -1.2195 0
M  V30 4986 C 460.675 4.45959 0.0602005 0
M  V30 4987 C 461.376 5.5546 -1.72738 0
M  V30 4988 N 460.352 5.33663 -1.03465 0
M  V30 4989 H 464.154 2.76632 -0.992582 0
M  V30 4990 H 461.668 1.49166 -0.642127 0
M  V30 4991 H 463.665 4.01179 1.13408 0
M  V30 4992 H 462.325 2.88828 1.48353 0
M  V30 4993 H 463.336 4.92497 -1.60209 0
M  V30 4994 H 460.013 4.08969 0.839664 0
M  V30 4995 H 461.403 6.18991 -2.61342 0
M  V30 4996 N 464.123 0.554532 1.47522 0
M  V30 4997 C 465.363 0.0317994 2.04375 0
M  V30 4998 C 465.727 -1.29242 1.41988 0
M  V30 4999 O 466.928 -1.90269 1.89872 0
M  V30 5000 C 465.199 -0.0623344 3.57346 0
M  V30 5001 S 466.758 -0.531578 4.35568 0
M  V30 5002 H 463.576 0.0238553 0.7106 0
M  V30 5003 H 466.178 0.74066 1.80927 0
M  V30 5004 H 464.882 0.905857 4.00278 0
M  V30 5005 H 464.413 -0.794831 3.85287 0
M  V30 5006 H 466.428 -1.79175 4.62721 0
M  V30 5007 N 465.601 -1.54893 0.290851 0
M  V30 5008 C 466.826 -2.04804 -0.32712 0
M  V30 5009 C 467.251 -1.16721 -1.47506 0
M  V30 5010 O 466.609 -0.169107 -1.8051 0
M  V30 5011 C 466.657 -3.52268 -0.770689 0
M  V30 5012 O 465.761 -3.67236 -1.87647 0
M  V30 5013 H 465.102 -0.660789 -0.0652227 0
M  V30 5014 H 467.632 -2.00036 0.429739 0
M  V30 5015 H 467.642 -3.9393 -1.06223 0
M  V30 5016 H 466.317 -4.15843 0.069096 0
M  V30 5017 H 464.894 -3.37479 -1.58626 0
M  V30 5018 N 467.08 -0.0183926 -1.57589 0
M  V30 5019 C 468.327 0.662562 -1.91354 0
M  V30 5020 C 468.655 1.72747 -0.893788 0
M  V30 5021 O 467.91 1.9545 0.0988509 0
M  V30 5022 C 468.209 1.32676 -3.31861 0
M  V30 5023 C 467.875 0.393267 -4.49182 0
M  V30 5024 C 466.537 0.136302 -4.81007 0
M  V30 5025 C 468.889 -0.248366 -5.20608 0
M  V30 5026 C 466.217 -0.770282 -5.81621 0
M  V30 5027 C 468.569 -1.14294 -6.22189 0
M  V30 5028 C 467.233 -1.4089 -6.52462 0
M  V30 5029 H 466.503 0.242448 -0.700214 0
M  V30 5030 H 469.15 -0.0778629 -1.91342 0
M  V30 5031 H 467.455 2.14168 -3.28084 0
M  V30 5032 H 469.152 1.86001 -3.55253 0
M  V30 5033 H 465.742 0.603723 -4.24327 0
M  V30 5034 H 469.926 -0.062883 -4.9626 0
M  V30 5035 H 465.182 -0.984154 -6.03427 0
M  V30 5036 H 469.356 -1.64637 -6.76659 0
M  V30 5037 H 466.983 -2.11306 -7.30242 0
M  V30 5038 N 468.558 1.5553 0.254621 0
M  V30 5039 C 469.488 1.9268 1.31897 0
M  V30 5040 C 470.469 0.790797 1.506 0
M  V30 5041 O 471.654 1.05045 1.63337 0
M  V30 5042 C 468.784 2.21477 2.67517 0
M  V30 5043 C 467.738 3.37256 2.63519 0
M  V30 5044 C 467.064 3.51576 4.02862 0
M  V30 5045 C 468.364 4.73157 2.21179 0
M  V30 5046 H 470.058 2.81832 1.01051 0
M  V30 5047 H 467.604 1.35599 0.484662 0
M  V30 5048 H 469.557 2.46055 3.42104 0
M  V30 5049 H 468.281 1.29144 2.99982 0
M  V30 5050 H 466.94 3.12675 1.9139 0
M  V30 5051 H 466.588 2.56676 4.32581 0
M  V30 5052 H 466.288 4.2943 4.01078 0
M  V30 5053 H 467.812 3.78467 4.79161 0
M  V30 5054 H 469.226 4.97158 2.85494 0
M  V30 5055 H 467.623 5.54058 2.30521 0
M  V30 5056 H 468.693 4.70739 1.16332 0
M  V30 5057 N 470.036 -0.519951 1.48776 0
M  V30 5058 C 471.282 -1.27711 1.57536 0
M  V30 5059 C 471.615 -1.92547 0.252866 0
M  V30 5060 O 470.89 -1.7979 -0.742021 0
M  V30 5061 C 471.173 -2.35875 2.72094 0
M  V30 5062 C 471.026 -1.75664 4.1408 0
M  V30 5063 C 472.345 -3.37575 2.82367 0
M  V30 5064 H 469.464 -0.462971 0.573434 0
M  V30 5065 H 472.106 -0.578194 1.80989 0
M  V30 5066 H 470.256 -2.95488 2.52228 0
M  V30 5067 H 471.928 -1.20025 4.45412 0
M  V30 5068 H 470.171 -1.06154 4.20611 0
M  V30 5069 H 470.842 -2.54029 4.90075 0
M  V30 5070 H 473.318 -2.87929 3.00393 0
M  V30 5071 H 472.194 -4.1064 3.64233 0
M  V30 5072 H 472.455 -3.98743 1.90936 0
M  V30 5073 N 471.514 -1.37532 -0.769588 0
M  V30 5074 C 472.446 -1.29347 -1.89214 0
M  V30 5075 C 473.459 -0.208842 -1.61455 0
M  V30 5076 O 474.648 -0.465158 -1.72333 0
M  V30 5077 C 471.748 -0.977649 -3.24492 0
M  V30 5078 C 470.921 -2.16817 -3.7988 0
M  V30 5079 C 469.98 -1.82229 -4.93639 0
M  V30 5080 O 469.006 -2.54548 -5.09111 0
M  V30 5081 N 470.208 -0.767696 -5.75401 0
M  V30 5082 H 472.973 -2.26073 -1.96751 0
M  V30 5083 H 470.534 -1.31185 -0.948795 0
M  V30 5084 H 472.526 -0.727065 -3.98115 0
M  V30 5085 H 471.096 -0.0988777 -3.12444 0
M  V30 5086 H 470.316 -2.58038 -2.9801 0
M  V30 5087 H 471.604 -2.96308 -4.13617 0
M  V30 5088 H 471.002 -0.167626 -5.65452 0
M  V30 5089 H 469.559 -0.576973 -6.49241 0
M  V30 5090 N 472.992 0.995999 -1.22138 0
M  V30 5091 C 474.22 1.77066 -1.07029 0
M  V30 5092 C 474.635 1.8495 0.379357 0
M  V30 5093 O 473.992 1.3174 1.26297 0
M  V30 5094 C 474.043 3.20533 -1.67155 0
M  V30 5095 O 473.764 3.13082 -3.06449 0
M  V30 5096 C 475.265 4.14461 -1.5728 0
M  V30 5097 H 472.485 0.556179 -0.375374 0
M  V30 5098 H 475.029 1.25238 -1.61666 0
M  V30 5099 H 473.184 3.6944 -1.16589 0
M  V30 5100 H 473.598 4.03283 -3.35355 0
M  V30 5101 H 475.072 5.1289 -2.04078 0
M  V30 5102 H 475.549 4.36005 -0.528795 0
M  V30 5103 H 476.155 3.71449 -2.07136 0
M  V30 5104 N 474.47 1.03057 1.19235 0
M  V30 5105 C 475.881 0.757449 1.70645 0
M  V30 5106 C 476.232 -0.722735 1.82403 0
M  V30 5107 O 475.357 -1.56325 1.49638 0
M  V30 5108 C 475.952 1.36833 3.09939 0
M  V30 5109 C 474.511 1.14375 3.58602 0
M  V30 5110 C 473.658 1.46533 2.35422 0
M  V30 5111 H 476.609 1.19828 1.04052 0
M  V30 5112 H 476.63 0.766184 3.72706 0
M  V30 5113 H 476.142 2.44562 3.01349 0
M  V30 5114 H 474.243 0.0847542 3.72504 0
M  V30 5115 H 474.356 1.83366 4.42622 0
M  V30 5116 H 472.72 0.884712 2.38841 0
M  V30 5117 H 473.503 2.55349 2.2946 0
M  V30 5118 N 475.948 -1.35272 0.808662 0
M  V30 5119 C 476.911 -2.28082 0.226093 0
M  V30 5120 C 477.911 -1.49673 -0.587762 0
M  V30 5121 O 479.101 -1.69404 -0.405943 0
M  V30 5122 C 476.233 -3.33955 -0.684596 0
M  V30 5123 H 477.426 -2.81116 1.04469 0
M  V30 5124 H 474.979 -1.45162 0.579466 0
M  V30 5125 H 475.714 -2.86111 -1.5268 0
M  V30 5126 H 475.499 -3.91965 -0.102699 0
M  V30 5127 H 476.989 -4.03219 -1.08646 0
M  V30 5128 N 477.426 -0.562348 -1.47226 0
M  V30 5129 C 478.356 0.170627 -2.32876 0
M  V30 5130 C 479.337 0.903748 -1.44106 0
M  V30 5131 O 480.522 0.883206 -1.72954 0
M  V30 5132 C 477.652 1.19786 -3.25989 0
M  V30 5133 C 476.606 0.580875 -4.2404 0
M  V30 5134 C 475.932 1.71311 -5.06514 0
M  V30 5135 C 477.232 -0.468714 -5.20193 0
M  V30 5136 H 478.926 -0.544441 -2.94408 0
M  V30 5137 H 476.472 -0.263271 -1.41573 0
M  V30 5138 H 478.425 1.71884 -3.84752 0
M  V30 5139 H 477.149 1.94294 -2.62521 0
M  V30 5140 H 475.808 0.0811538 -3.6651 0
M  V30 5141 H 475.456 2.44736 -4.39447 0
M  V30 5142 H 475.156 1.30604 -5.72902 0
M  V30 5143 H 476.68 2.23725 -5.68137 0
M  V30 5144 H 478.094 -0.0336028 -5.7329 0
M  V30 5145 H 476.491 -0.794957 -5.94811 0
M  V30 5146 H 477.561 -1.36269 -4.65359 0
M  V30 5147 N 478.904 1.54736 -0.299062 0
M  V30 5148 C 480.32 1.59507 0.0543849 0
M  V30 5149 C 480.52 1.31606 1.52585 0
M  V30 5150 O 479.576 1.08853 2.27832 0
M  V30 5151 C 480.889 2.98751 -0.34181 0
M  V30 5152 C 482.437 3.1165 -0.290414 0
M  V30 5153 C 482.912 4.53199 -0.661402 0
M  V30 5154 N 484.403 4.59114 -0.613863 0
M  V30 5155 C 485.138 5.66709 -0.873417 0
M  V30 5156 N 484.634 6.82349 -1.19884 0
M  V30 5157 N 486.427 5.56369 -0.800608 0
M  V30 5158 H 478.578 1.71133 -1.25806 0
M  V30 5159 H 480.841 0.799186 -0.509908 0
M  V30 5160 H 480.547 3.24085 -1.36608 0
M  V30 5161 H 480.421 3.75961 0.305508 0
M  V30 5162 H 482.808 2.86066 0.724605 0
M  V30 5163 H 482.889 2.366 -0.972327 0
M  V30 5164 H 482.533 4.79513 -1.67422 0
M  V30 5165 H 482.463 5.26583 0.0425612 0
M  V30 5166 H 484.954 3.76053 -0.3732 0
M  V30 5167 H 485.267 7.60326 -1.38291 0
M  V30 5168 H 483.612 6.83906 -1.23685 0
M  V30 5169 H 486.803 4.64904 -0.546045 0
M  V30 5170 H 486.976 6.40139 -1.00626 0
M  V30 5171 N 480.382 0.0267497 1.57577 0
M  V30 5172 C 481.61 -0.662661 1.96001 0
M  V30 5173 C 482.025 -1.65799 0.903117 0
M  V30 5174 O 481.382 -1.82135 -0.115317 0
M  V30 5175 C 481.433 -1.37112 3.34488 0
M  V30 5176 O 481.154 -0.415683 4.36123 0
M  V30 5177 C 482.655 -2.15257 3.8753 0
M  V30 5178 H 479.875 -0.18287 0.6456 0
M  V30 5179 H 482.419 0.0858116 2.0432 0
M  V30 5180 H 480.574 -2.07101 3.27395 0
M  V30 5181 H 480.988 -0.918496 5.16395 0
M  V30 5182 H 482.462 -2.60285 4.86781 0
M  V30 5183 H 482.939 -2.99063 3.21649 0
M  V30 5184 H 483.545 -1.50231 3.97883 0
M  V30 5185 N 481.861 -1.55662 -0.24637 0
M  V30 5186 C 483.107 -1.77782 -0.975779 0
M  V30 5187 C 483.44 -0.592103 -1.84953 0
M  V30 5188 O 482.715 0.409588 -1.90138 0
M  V30 5189 C 482.998 -3.09788 -1.83584 0
M  V30 5190 C 482.851 -4.38764 -0.990241 0
M  V30 5191 C 484.17 -3.38029 -2.81823 0
M  V30 5192 H 481.289 -0.646789 -0.353317 0
M  V30 5193 H 483.931 -1.88398 -0.246248 0
M  V30 5194 H 482.081 -3.00869 -2.45784 0
M  V30 5195 H 483.753 -4.59675 -0.386897 0
M  V30 5196 H 481.996 -4.32798 -0.294626 0
M  V30 5197 H 482.667 -5.27514 -1.62584 0
M  V30 5198 H 485.143 -3.46915 -2.2976 0
M  V30 5199 H 484.019 -4.3161 -3.39122 0
M  V30 5200 H 484.28 -2.58968 -3.58313 0
M  V30 5201 N 483.339 0.512053 -1.4905 0
M  V30 5202 C 484.587 1.26436 -1.57665 0
M  V30 5203 C 484.908 1.93255 -0.260293 0
M  V30 5204 O 484.178 1.82206 0.719564 0
M  V30 5205 H 482.758 0.469658 -0.580888 0
M  V30 5206 H 485.42 0.594398 -1.85615 0
M  V30 5207 H 484.516 2.03417 -2.36702 0
M  V30 5208 N 484.817 1.37938 0.762283 0
M  V30 5209 C 485.765 1.34569 1.89721 0
M  V30 5210 C 486.759 0.232929 1.67791 0
M  V30 5211 O 487.965 0.401485 1.75465 0
M  V30 5212 H 484.34 0.419594 0.624055 0
M  V30 5213 H 486.311 2.30357 1.8968 0
M  V30 5214 C 485.06 1.17898 3.27101 0
M  V30 5215 H 484.383 2.02781 3.44558 0
M  V30 5216 H 485.823 1.19593 4.06784 0
M  V30 5217 C 484.282 -0.114728 3.36705 0
M  V30 5218 O 484.812 -1.0949 3.8649 0
M  V30 5219 N 483.018 -0.16863 2.9011 0
M  V30 5220 H 482.565 0.62967 2.49786 0
M  V30 5221 H 482.523 -1.03383 2.96916 0
M  V30 5222 N 486.295 -0.989507 1.22664 0
M  V30 5223 C 487.544 -1.72375 1.04737 0
M  V30 5224 C 487.857 -1.91096 -0.417316 0
M  V30 5225 O 489.063 -2.6188 -0.716334 0
M  V30 5226 C 487.519 -3.10161 1.82561 0
M  V30 5227 C 487.127 -2.99358 3.333 0
M  V30 5228 C 488.871 -3.87607 1.73093 0
M  V30 5229 C 486.778 -4.32319 4.03552 0
M  V30 5230 H 485.708 -0.646326 0.388302 0
M  V30 5231 H 488.359 -1.10437 1.46546 0
M  V30 5232 H 486.741 -3.728 1.33552 0
M  V30 5233 H 487.915 -2.45863 3.89728 0
M  V30 5234 H 486.23 -2.35392 3.43481 0
M  V30 5235 H 488.827 -4.86025 2.22899 0
M  V30 5236 H 489.17 -4.10509 0.691976 0
M  V30 5237 H 489.703 -3.31652 2.19663 0
M  V30 5238 H 486.442 -4.14616 5.07714 0
M  V30 5239 H 485.962 -4.85714 3.51911 0
M  V30 5240 H 487.641 -5.01051 4.09337 0
M  V30 5241 N 487.773 -1.03688 -1.18687 0
M  V30 5242 C 489.019 -0.739123 -1.88851 0
M  V30 5243 C 489.352 0.731042 -1.79915 0
M  V30 5244 O 488.627 1.53313 -1.19688 0
M  V30 5245 C 488.91 -1.20106 -3.3948 0
M  V30 5246 C 488.763 -2.73304 -3.57246 0
M  V30 5247 C 490.082 -0.788134 -4.32986 0
M  V30 5248 H 487.201 -0.269978 -0.68577 0
M  V30 5249 H 489.843 -1.28822 -1.3966 0
M  V30 5250 H 487.993 -0.733915 -3.81505 0
M  V30 5251 H 489.665 -3.28027 -3.24339 0
M  V30 5252 H 487.908 -3.13313 -3.00029 0
M  V30 5253 H 488.579 -3.00684 -4.62918 0
M  V30 5254 H 491.055 -1.19005 -3.98719 0
M  V30 5255 H 489.931 -1.13915 -5.36949 0
M  V30 5256 H 490.192 0.308988 -4.41019 0
M  V30 5257 N 489.251 1.34841 -0.815825 0
M  V30 5258 C 490.479 2.0273 -0.413294 0
M  V30 5259 C 490.894 1.61459 0.978599 0
M  V30 5260 O 490.251 0.816584 1.63212 0
M  V30 5261 C 490.302 3.58058 -0.497676 0
M  V30 5262 O 490.023 3.97832 -1.8347 0
M  V30 5263 C 491.524 4.4321 -0.0891339 0
M  V30 5264 H 488.744 0.649956 -0.166728 0
M  V30 5265 H 491.288 1.72267 -1.10201 0
M  V30 5266 H 489.443 3.87136 0.142886 0
M  V30 5267 H 489.857 4.92501 -1.80396 0
M  V30 5268 H 491.331 5.5164 -0.199274 0
M  V30 5269 H 491.808 4.28432 0.966571 0
M  V30 5270 H 492.414 4.19446 -0.703214 0
M  V30 5271 N 490.729 0.570148 1.46925 0
M  V30 5272 C 491.977 0.0508523 2.02036 0
M  V30 5273 C 492.298 -1.30885 1.44548 0
M  V30 5274 O 491.568 -1.85647 0.625453 0
M  V30 5275 H 490.148 0.0158088 0.746833 0
M  V30 5276 H 492.81 0.743086 1.80178 0
M  V30 5277 H 491.906 -0.027575 3.12088 0
M  V30 5278 N 492.207 -1.54576 0.307264 0
M  V30 5279 C 493.484 -1.92377 -0.353605 0
M  V30 5280 C 493.864 -1.23517 -1.71192 0
M  V30 5281 O 493.212 -0.373101 -2.25433 0
M  V30 5282 C 493.422 -3.45928 -0.462039 0
M  V30 5283 C 494.77 -4.18278 -0.729975 0
M  V30 5284 O 495.794 -3.51997 -0.545605 0
M  V30 5285 O 494.653 -5.3563 -1.08454 0
M  V30 5286 H 491.747 -0.802747 -0.198812 0
M  V30 5287 H 494.293 -1.65929 0.355783 0
M  V30 5288 H 493.065 -3.88187 0.492592 0
M  V30 5289 H 492.688 -3.78431 -1.21965 0
M  V30 5290 N 493.685 -0.035106 -1.57561 0
M  V30 5291 C 494.962 0.681212 -1.83354 0
M  V30 5292 C 495.342 1.89986 -0.920252 0
M  V30 5293 O 494.69 2.28489 0.0226815 0
M  V30 5294 C 494.9 1.05376 -3.32712 0
M  V30 5295 C 496.248 1.44286 -3.99333 0
M  V30 5296 O 497.272 1.14656 -3.37242 0
M  V30 5297 O 496.131 1.99518 -5.08778 0
M  V30 5298 H 493.225 0.334741 -0.756226 0
M  V30 5299 H 495.771 -0.0632448 -1.69582 0
M  V30 5300 H 494.543 0.186668 -3.90854 0
M  V30 5301 H 494.166 1.85619 -3.51613 0
M  V30 5302 N 495.163 1.55791 0.238111 0
M  V30 5303 C 496.093 1.94068 1.29846 0
M  V30 5304 C 497.074 0.806726 1.49753 0
M  V30 5305 O 498.259 1.06772 1.62214 0
M  V30 5306 C 495.389 2.24302 2.65153 0
M  V30 5307 C 494.343 3.40032 2.59927 0
M  V30 5308 C 493.669 3.55829 3.99111 0
M  V30 5309 C 494.969 4.75476 2.16148 0
M  V30 5310 H 496.663 2.82887 0.980563 0
M  V30 5311 H 494.209 1.36105 0.470253 0
M  V30 5312 H 496.162 2.4967 3.39475 0
M  V30 5313 H 494.886 1.32318 2.98596 0
M  V30 5314 H 493.545 3.14687 1.88063 0
M  V30 5315 H 493.193 2.6125 4.29834 0
M  V30 5316 H 492.893 4.3366 3.96501 0
M  V30 5317 H 494.417 3.83528 4.7512 0
M  V30 5318 H 495.831 5.00158 2.80205 0
M  V30 5319 H 494.228 5.56472 2.24631 0
M  V30 5320 H 495.298 4.71946 1.11333 0
M  V30 5321 N 496.642 -0.504142 1.49319 0
M  V30 5322 C 497.574 -1.62265 1.61872 0
M  V30 5323 C 498.587 -1.54881 0.501573 0
M  V30 5324 O 499.776 -1.6087 0.773497 0
M  V30 5325 C 496.876 -3.01042 1.55651 0
M  V30 5326 C 496.049 -3.33642 2.82845 0
M  V30 5327 C 495.108 -4.51816 2.69719 0
M  V30 5328 O 494.134 -4.53755 3.4365 0
M  V30 5329 N 495.336 -5.51543 1.81055 0
M  V30 5330 H 498.101 -1.51924 2.58339 0
M  V30 5331 H 495.662 -0.691954 1.46368 0
M  V30 5332 H 497.654 -3.78013 1.44528 0
M  V30 5333 H 496.224 -3.05323 0.670546 0
M  V30 5334 H 495.444 -2.45598 3.08343 0
M  V30 5335 H 496.732 -3.5222 3.67177 0
M  V30 5336 H 496.13 -5.52774 1.20241 0
M  V30 5337 H 494.687 -6.27629 1.75856 0
M  V30 5338 N 498.12 -1.38341 -0.754957 0
M  V30 5339 C 499.348 -1.37704 -1.54419 0
M  V30 5340 C 499.763 0.0335243 -1.8877 0
M  V30 5341 O 499.12 0.999773 -1.52679 0
M  V30 5342 C 499.171 -2.23136 -2.84416 0
M  V30 5343 O 498.892 -3.58697 -2.51531 0
M  V30 5344 C 500.393 -2.30664 -3.78562 0
M  V30 5345 H 497.613 -0.471061 -0.477852 0
M  V30 5346 H 500.157 -1.81902 -0.934446 0
M  V30 5347 H 498.312 -1.82403 -3.41772 0
M  V30 5348 H 498.726 -4.03665 -3.34896 0
M  V30 5349 H 500.2 -2.9473 -4.66732 0
M  V30 5350 H 500.677 -1.3199 -4.18898 0
M  V30 5351 H 501.283 -2.71781 -3.27131 0
M  V30 5352 N 499.598 0.982988 -1.23187 0
M  V30 5353 C 500.875 1.69814 -0.970707 0
M  V30 5354 C 501.255 2.04811 0.511424 0
M  V30 5355 O 500.603 1.73924 1.48198 0
M  V30 5356 C 500.813 2.94143 -1.87831 0
M  V30 5357 C 502.161 3.66712 -2.14026 0
M  V30 5358 O 503.185 3.04171 -1.8536 0
M  V30 5359 O 502.044 4.79258 -2.62629 0
M  V30 5360 H 499.138 0.741659 -0.365884 0
M  V30 5361 H 501.684 1.03844 -1.34218 0
M  V30 5362 H 500.456 2.64858 -2.88038 0
M  V30 5363 H 500.079 3.6785 -1.50905 0
M  V30 5364 N 501.076 1.04316 1.18135 0
M  V30 5365 C 502.322 0.749128 1.88457 0
M  V30 5366 C 502.655 -0.72149 1.803 0
M  V30 5367 O 501.93 -1.52676 1.205 0
M  V30 5368 C 502.213 1.21905 3.38838 0
M  V30 5369 C 502.066 2.75195 3.55792 0
M  V30 5370 C 503.385 0.811085 4.32561 0
M  V30 5371 H 500.504 0.273611 0.684329 0
M  V30 5372 H 503.146 1.29561 1.38975 0
M  V30 5373 H 501.296 0.754137 3.8111 0
M  V30 5374 H 502.968 3.29743 3.22595 0
M  V30 5375 H 501.211 3.14899 2.98364 0
M  V30 5376 H 501.882 3.03135 4.61317 0
M  V30 5377 H 504.358 1.21118 3.98082 0
M  V30 5378 H 503.234 1.16761 5.36338 0
M  V30 5379 H 503.495 -0.285596 4.41177 0
M  V30 5380 N 502.554 -1.34406 0.822964 0
M  V30 5381 C 503.8 -1.98578 0.411666 0
M  V30 5382 C 504.133 -1.65093 -1.02264 0
M  V30 5383 O 503.408 -0.92258 -1.71227 0
M  V30 5384 C 503.691 -3.54823 0.614235 0
M  V30 5385 C 503.544 -3.9805 2.09466 0
M  V30 5386 C 504.863 -4.40071 0.050221 0
M  V30 5387 H 501.982 -0.721355 0.151047 0
M  V30 5388 H 504.624 -1.59301 1.03554 0
M  V30 5389 H 502.774 -3.88411 0.0831774 0
M  V30 5390 H 504.446 -3.74795 2.68936 0
M  V30 5391 H 502.689 -3.4836 2.5851 0
M  V30 5392 H 503.36 -5.06819 2.18721 0
M  V30 5393 H 505.836 -4.13037 0.503953 0
M  V30 5394 H 504.712 -5.48452 0.221759 0
M  V30 5395 H 504.973 -4.29576 -1.04482 0
M  V30 5396 N 504.032 -0.577932 -1.46621 0
M  V30 5397 C 505.278 -0.0617793 -2.02706 0
M  V30 5398 C 505.611 1.29294 -1.44903 0
M  V30 5399 O 504.886 1.8461 -0.61232 0
M  V30 5400 C 505.169 0.00911824 -3.60099 0
M  V30 5401 C 505.022 -1.37416 -4.28295 0
M  V30 5402 C 506.341 0.712159 -4.343 0
M  V30 5403 H 503.46 -0.0239246 -0.736612 0
M  V30 5404 H 506.102 -0.744211 -1.74818 0
M  V30 5405 H 504.252 0.590292 -3.83989 0
M  V30 5406 H 505.924 -2.00013 -4.15683 0
M  V30 5407 H 504.167 -1.94319 -3.87843 0
M  V30 5408 H 504.838 -1.27707 -5.37024 0
M  V30 5409 H 507.314 0.218486 -4.15526 0
M  V30 5410 H 506.19 0.730782 -5.44014 0
M  V30 5411 H 506.451 1.77251 -4.05012 0
M  V30 5412 N 505.51 1.54411 -0.315457 0
M  V30 5413 C 506.457 2.24048 0.554166 0
M  V30 5414 C 507.427 1.2283 1.11812 0
M  V30 5415 O 508.612 1.51491 1.15997 0
M  V30 5416 C 505.752 2.99574 1.71316 0
M  V30 5417 C 504.865 4.15594 1.17922 0
M  V30 5418 C 504 4.78669 2.30324 0
M  V30 5419 C 503.039 5.86807 1.74137 0
M  V30 5420 N 502.176 6.43777 2.8017 0
M  V30 5421 H 507.016 2.97964 -0.0462602 0
M  V30 5422 H 504.553 1.47059 -0.0346009 0
M  V30 5423 H 506.511 3.41604 2.39505 0
M  V30 5424 H 505.141 2.28008 2.285 0
M  V30 5425 H 504.193 3.78404 0.389136 0
M  V30 5426 H 505.505 4.93459 0.728012 0
M  V30 5427 H 504.659 5.23626 3.06433 0
M  V30 5428 H 503.398 4.00168 2.78778 0
M  V30 5429 H 502.403 5.41261 0.965236 0
M  V30 5430 H 503.628 6.67201 1.2657 0
M  V30 5431 H 501.574 5.68153 3.2793 0
M  V30 5432 H 501.491 7.17031 2.39588 0
M  V30 5433 H 502.759 6.9339 3.56132 0
M  V30 5434 N 506.988 0.0434614 1.5754 0
M  V30 5435 C 507.918 -0.931651 2.14109 0
M  V30 5436 C 508.899 -1.32971 1.06079 0
M  V30 5437 O 510.084 -1.40579 1.33982 0
M  V30 5438 C 507.214 -2.20914 2.67982 0
M  V30 5439 C 506.168 -1.95139 3.80926 0
M  V30 5440 C 505.494 -3.29276 4.21285 0
M  V30 5441 C 506.794 -1.27913 5.06395 0
M  V30 5442 H 508.488 -0.460497 2.95837 0
M  V30 5443 H 506.034 -0.220058 1.42309 0
M  V30 5444 H 507.987 -2.89522 3.06194 0
M  V30 5445 H 506.711 -2.70221 1.83434 0
M  V30 5446 H 505.37 -1.28945 3.43175 0
M  V30 5447 H 505.018 -3.76369 3.33699 0
M  V30 5448 H 504.718 -3.12831 4.97404 0
M  V30 5449 H 506.242 -3.99129 4.62091 0
M  V30 5450 H 507.656 -1.86544 5.42102 0
M  V30 5451 H 506.053 -1.2182 5.87605 0
M  V30 5452 H 507.123 -0.254066 4.84234 0
M  V30 5453 N 508.466 -1.55915 -0.229846 0
M  V30 5454 C 509.714 -1.7819 -0.953565 0
M  V30 5455 C 510.035 -0.610504 -1.85197 0
M  V30 5456 O 509.305 0.372988 -1.92316 0
M  V30 5457 H 507.885 -0.657208 -0.355087 0
M  V30 5458 H 510.547 -1.9337 -0.243693 0
M  V30 5459 H 509.643 -2.70011 -1.56527 0
M  V30 5460 N 509.944 0.496216 -1.49584 0
M  V30 5461 C 510.907 1.57952 -1.66084 0
M  V30 5462 C 511.907 1.51729 -0.53244 0
M  V30 5463 O 513.097 1.54796 -0.79899 0
M  V30 5464 C 510.229 2.97604 -1.66268 0
M  V30 5465 H 511.422 1.44649 -2.6271 0
M  V30 5466 H 508.975 0.7208 -1.38687 0
M  V30 5467 H 509.71 3.16378 -0.712432 0
M  V30 5468 H 509.495 3.03528 -2.4822 0
M  V30 5469 H 510.985 3.76301 -1.81073 0
M  V30 5470 N 511.423 1.38739 0.74761 0
M  V30 5471 C 512.669 1.35475 1.50912 0
M  V30 5472 C 513.002 -0.0533093 1.94127 0
M  V30 5473 O 512.277 -1.01572 1.65871 0
M  V30 5474 C 512.56 2.31582 2.75757 0
M  V30 5475 C 512.413 3.81274 2.38642 0
M  V30 5476 C 513.732 2.25722 3.77806 0
M  V30 5477 H 510.851 0.493427 0.547447 0
M  V30 5478 H 513.493 1.69634 0.855823 0
M  V30 5479 H 511.643 2.02582 3.31501 0
M  V30 5480 H 513.315 4.20972 1.88626 0
M  V30 5481 H 511.558 3.98664 1.71025 0
M  V30 5482 H 512.229 4.4399 3.27989 0
M  V30 5483 H 514.705 2.51336 3.31616 0
M  V30 5484 H 513.581 2.95069 4.62845 0
M  V30 5485 H 513.842 1.25803 4.23823 0
M  V30 5486 N 512.901 -0.976442 1.23707 0
M  V30 5487 C 513.833 -2.07212 0.979574 0
M  V30 5488 C 514.846 -1.6273 -0.0478528 0
M  V30 5489 O 516.035 -1.77506 0.18815 0
M  V30 5490 C 513.135 -3.35835 0.45479 0
M  V30 5491 C 512.308 -4.09268 1.54331 0
M  V30 5492 C 511.367 -5.16166 1.02271 0
M  V30 5493 O 510.393 -5.42827 1.71254 0
M  V30 5494 N 511.595 -5.80313 -0.147419 0
M  V30 5495 H 514.36 -2.29878 1.92292 0
M  V30 5496 H 511.921 -1.14343 1.14618 0
M  V30 5497 H 513.913 -4.04597 0.0914631 0
M  V30 5498 H 512.483 -3.10106 -0.394068 0
M  V30 5499 H 511.703 -3.34906 2.07923 0
M  V30 5500 H 512.991 -4.55095 2.27522 0
M  V30 5501 H 512.389 -5.61043 -0.724353 0
M  V30 5502 H 510.946 -6.50231 -0.451972 0
M  V30 5503 N 514.379 -1.04941 -1.1758 0
M  V30 5504 C 515.326 -0.648155 -2.21512 0
M  V30 5505 C 516.296 0.348431 -1.62404 0
M  V30 5506 O 517.481 0.240419 -1.89279 0
M  V30 5507 C 514.621 -0.0264291 -3.4509 0
M  V30 5508 C 513.734 -1.07154 -4.185 0
M  V30 5509 C 512.869 -0.417403 -5.29558 0
M  V30 5510 C 511.908 -1.447 -5.94751 0
M  V30 5511 N 511.045 -0.817203 -6.97328 0
M  V30 5512 H 515.885 -1.53891 -2.55189 0
M  V30 5513 H 513.422 -0.769699 -1.25356 0
M  V30 5514 H 515.38 0.351456 -4.15717 0
M  V30 5515 H 514.01 0.827802 -3.12005 0
M  V30 5516 H 513.062 -1.56728 -3.46613 0
M  V30 5517 H 514.374 -1.8532 -4.63096 0
M  V30 5518 H 513.528 0.0142061 -6.06698 0
M  V30 5519 H 512.267 0.396265 -4.86087 0
M  V30 5520 H 511.272 -1.88865 -5.16343 0
M  V30 5521 H 512.497 -2.26252 -6.40302 0
M  V30 5522 H 510.443 -0.0239995 -6.55996 0
M  V30 5523 H 510.36 -1.53644 -7.40223 0
M  V30 5524 H 511.628 -0.410283 -7.7842 0
M  V30 5525 N 515.857 1.33968 -0.830081 0
M  V30 5526 C 516.787 2.31911 -0.271911 0
M  V30 5527 C 517.768 1.58571 0.61556 0
M  V30 5528 O 518.953 1.86514 0.540946 0
M  V30 5529 C 516.083 3.42737 0.561146 0
M  V30 5530 C 515.037 4.27383 -0.229789 0
M  V30 5531 C 514.363 5.29742 0.726463 0
M  V30 5532 C 515.663 5.02 -1.44197 0
M  V30 5533 H 517.357 2.78844 -1.09025 0
M  V30 5534 H 514.903 1.34061 -0.52571 0
M  V30 5535 H 516.856 4.10276 0.961867 0
M  V30 5536 H 515.58 2.94471 1.41261 0
M  V30 5537 H 514.239 3.61456 -0.611964 0
M  V30 5538 H 513.887 4.77736 1.57408 0
M  V30 5539 H 513.587 5.87255 0.20142 0
M  V30 5540 H 515.111 6.00149 1.12489 0
M  V30 5541 H 516.525 5.62355 -1.11488 0
M  V30 5542 H 514.922 5.69122 -1.90317 0
M  V30 5543 H 515.992 4.31281 -2.2164 0
M  V30 5544 N 517.335 0.585699 1.46312 0
M  V30 5545 C 518.56 0.0762461 2.0726 0
M  V30 5546 C 518.985 -1.22071 1.43109 0
M  V30 5547 O 518.343 -1.73804 0.515942 0
M  V30 5548 C 518.391 -0.0729404 3.60526 0
M  V30 5549 O 517.495 -1.1287 3.96654 0
M  V30 5550 H 516.836 0.0641558 0.660893 0
M  V30 5551 H 519.366 0.809492 1.87905 0
M  V30 5552 H 519.376 -0.278158 4.07051 0
M  V30 5553 H 518.051 0.874188 4.06609 0
M  V30 5554 H 516.628 -0.901703 3.61834 0
M  V30 5555 N 518.813 -1.54241 0.323641 0
M  V30 5556 C 520.053 -2.0248 -0.279502 0
M  V30 5557 C 520.417 -1.20672 -1.49339 0
M  V30 5558 O 521.618 -1.58715 -2.1694 0
M  V30 5559 C 519.889 -3.52238 -0.605266 0
M  V30 5560 S 521.448 -4.22411 -1.18805 0
M  V30 5561 H 518.266 -0.705957 -0.0845313 0
M  V30 5562 H 520.868 -1.90089 0.456781 0
M  V30 5563 H 519.572 -4.094 0.286339 0
M  V30 5564 H 519.103 -3.6871 -1.37174 0
M  V30 5565 H 521.118 -4.30075 -2.47487 0
M  V30 5566 N 520.291 -0.0518155 -1.57515 0
M  V30 5567 C 521.221 0.920283 -2.146 0
M  V30 5568 C 522.202 1.32406 -1.06783 0
M  V30 5569 O 523.387 1.39866 -1.34726 0
M  V30 5570 C 520.517 2.1949 -2.6915 0
M  V30 5571 C 519.471 1.93116 -3.81956 0
M  V30 5572 C 518.797 3.27037 -4.23026 0
M  V30 5573 C 520.097 1.25225 -5.07066 0
M  V30 5574 H 521.791 0.444801 -2.96077 0
M  V30 5575 H 519.337 0.212508 -1.42423 0
M  V30 5576 H 521.29 2.87894 -3.07725 0
M  V30 5577 H 520.014 2.69244 -1.84865 0
M  V30 5578 H 518.673 1.27123 -3.43854 0
M  V30 5579 H 518.321 3.74595 -3.3569 0
M  V30 5580 H 518.021 3.10189 -4.99056 0
M  V30 5581 H 519.545 3.96673 -4.64202 0
M  V30 5582 H 520.959 1.83666 -5.43083 0
M  V30 5583 H 519.356 1.18702 -5.88243 0
M  V30 5584 H 520.426 0.228382 -4.84362 0
M  V30 5585 N 521.769 1.56035 0.221574 0
M  V30 5586 C 522.699 1.95434 1.2778 0
M  V30 5587 C 523.68 0.822564 1.48889 0
M  V30 5588 O 524.865 1.08486 1.61072 0
M  V30 5589 C 521.995 2.27102 2.62759 0
M  V30 5590 C 520.949 3.4277 2.56306 0
M  V30 5591 C 520.275 3.60043 3.95314 0
M  V30 5592 C 521.575 4.77742 2.11093 0
M  V30 5593 H 523.269 2.83912 0.950504 0
M  V30 5594 H 520.815 1.36596 0.455791 0
M  V30 5595 H 522.768 2.53256 3.36807 0
M  V30 5596 H 521.492 1.35478 2.97176 0
M  V30 5597 H 520.151 3.16664 1.84715 0
M  V30 5598 H 519.799 2.65794 4.27039 0
M  V30 5599 H 519.499 4.37841 3.91879 0
M  V30 5600 H 521.023 3.88545 4.71025 0
M  V30 5601 H 522.437 5.03102 2.74885 0
M  V30 5602 H 520.834 5.58823 2.18716 0
M  V30 5603 H 521.904 4.731 1.06321 0
M  V30 5604 N 523.247 -0.488276 1.49845 0
M  V30 5605 C 524.195 -1.60917 1.67954 0
M  V30 5606 C 525.189 -1.6038 0.54539 0
M  V30 5607 O 526.395 -1.64736 0.7254 0
M  V30 5608 H 522.77 -0.533658 0.529824 0
M  V30 5609 H 524.741 -1.428 2.62013 0
M  V30 5610 C 523.49 -2.98975 1.77509 0
M  V30 5611 H 522.813 -3.00099 2.6416 0
M  V30 5612 H 524.253 -3.76906 1.9421 0
M  V30 5613 C 522.712 -3.3282 0.522745 0
M  V30 5614 O 523.242 -4.00208 -0.345866 0
M  V30 5615 N 521.448 -2.8808 0.381882 0
M  V30 5616 H 520.995 -2.33415 1.08974 0
M  V30 5617 H 520.953 -3.11091 -0.454929 0
M  V30 5618 N 524.725 -1.39134 -0.740242 0
M  V30 5619 C 525.95 -1.39518 -1.53459 0
M  V30 5620 C 526.375 0.00968883 -1.88098 0
M  V30 5621 O 525.733 0.995312 -1.51536 0
M  V30 5622 C 525.781 -2.26981 -2.802 0
M  V30 5623 O 524.885 -1.69609 -3.75908 0
M  V30 5624 H 524.226 -0.475328 -0.463637 0
M  V30 5625 H 526.756 -1.83064 -0.913717 0
M  V30 5626 H 526.766 -2.41309 -3.28989 0
M  V30 5627 H 525.441 -3.29081 -2.5432 0
M  V30 5628 H 524.018 -1.64495 -3.34658 0
M  V30 5629 N 526.204 0.969867 -1.24223 0
M  V30 5630 C 527.429 1.75289 -1.10853 0
M  V30 5631 C 527.854 1.85091 0.335079 0
M  V30 5632 O 527.212 1.32024 1.24255 0
M  V30 5633 C 527.26 3.15255 -1.75062 0
M  V30 5634 O 526.364 3.99589 -1.01992 0
M  V30 5635 H 525.705 0.538904 -0.387915 0
M  V30 5636 H 528.235 1.21675 -1.64488 0
M  V30 5637 H 528.245 3.65787 -1.80731 0
M  V30 5638 H 526.92 3.07436 -2.801 0
M  V30 5639 H 525.497 3.58077 -1.04094 0
M  V30 5640 N 527.682 1.05563 1.17022 0
M  V30 5641 C 528.629 0.659893 2.21165 0
M  V30 5642 C 529.599 -0.339813 1.62587 0
M  V30 5643 O 530.784 -0.230378 1.89404 0
M  V30 5644 C 527.924 0.0447297 3.45071 0
M  V30 5645 C 527.037 1.09372 4.17926 0
M  V30 5646 C 526.172 0.445481 5.29329 0
M  V30 5647 C 525.211 1.47852 5.93975 0
M  V30 5648 N 524.348 0.854172 6.96885 0
M  V30 5649 H 529.188 1.55243 2.54369 0
M  V30 5650 H 526.725 0.776336 1.24946 0
M  V30 5651 H 528.683 -0.329404 4.15898 0
M  V30 5652 H 527.313 -0.811244 3.1244 0
M  V30 5653 H 526.365 1.58564 3.45777 0
M  V30 5654 H 527.677 1.87773 4.62107 0
M  V30 5655 H 526.831 0.0179688 6.06697 0
M  V30 5656 H 525.57 -0.370481 4.86291 0
M  V30 5657 H 524.575 1.91601 5.15334 0
M  V30 5658 H 525.8 2.29645 6.39093 0
M  V30 5659 H 523.746 0.0587882 6.55974 0
M  V30 5660 H 523.663 1.57567 7.39397 0
M  V30 5661 H 524.931 0.451559 7.78191 0
M  V30 5662 N 529.16 -1.33526 0.837174 0
M  V30 5663 C 530.107 -2.29248 0.267169 0
M  V30 5664 C 531.077 -1.54252 -0.616071 0
M  V30 5665 O 532.262 -1.82559 -0.554699 0
M  V30 5666 C 529.402 -3.40638 -0.553152 0
M  V30 5667 C 528.515 -4.30548 0.353921 0
M  V30 5668 C 527.65 -5.29051 -0.477339 0
M  V30 5669 C 526.689 -6.106 0.42823 0
M  V30 5670 N 525.826 -7.01152 -0.364801 0
M  V30 5671 H 530.666 -2.77398 1.08877 0
M  V30 5672 H 528.203 -1.36496 0.54838 0
M  V30 5673 H 530.161 -4.03921 -1.04422 0
M  V30 5674 H 528.791 -2.93685 -1.33973 0
M  V30 5675 H 527.843 -3.68001 0.963289 0
M  V30 5676 H 529.155 -4.87631 1.04964 0
M  V30 5677 H 528.309 -5.97853 -1.0323 0
M  V30 5678 H 527.048 -4.72541 -1.2065 0
M  V30 5679 H 526.053 -5.40718 0.995219 0
M  V30 5680 H 527.278 -6.69193 1.15573 0
M  V30 5681 H 525.224 -6.47092 -1.07738 0
M  V30 5682 H 525.141 -7.5551 0.272238 0
M  V30 5683 H 526.409 -7.74263 -0.902054 0
M  V30 5684 N 530.638 -0.59345 -1.46 0
M  V30 5685 C 531.863 -0.0872365 -2.07216 0
M  V30 5686 C 532.288 1.2131 -1.43755 0
M  V30 5687 O 531.646 1.73528 -0.525152 0
M  V30 5688 C 531.694 0.0538197 -3.6056 0
M  V30 5689 O 530.798 1.10765 -3.97247 0
M  V30 5690 H 530.139 -0.0676598 -0.660544 0
M  V30 5691 H 532.669 -0.819445 -1.87473 0
M  V30 5692 H 532.679 0.256567 -4.07193 0
M  V30 5693 H 531.354 -0.895739 -4.0614 0
M  V30 5694 H 529.931 0.882501 -3.62307 0
M  V30 5695 N 532.116 1.54067 -0.331816 0
M  V30 5696 C 533.365 1.99895 0.269209 0
M  V30 5697 C 533.678 1.22371 1.52593 0
M  V30 5698 O 534.884 1.58618 2.20347 0
M  V30 5699 C 533.34 3.55972 0.530244 0
M  V30 5700 C 532.948 4.4234 -0.709901 0
M  V30 5701 C 534.692 4.10247 1.09077 0
M  V30 5702 C 532.599 5.89905 -0.420312 0
M  V30 5703 H 531.529 0.746741 0.104371 0
M  V30 5704 H 534.18 1.78014 -0.445324 0
M  V30 5705 H 532.562 3.73873 1.30518 0
M  V30 5706 H 533.736 4.36215 -1.48504 0
M  V30 5707 H 532.051 3.98997 -1.19123 0
M  V30 5708 H 534.648 5.18095 1.32219 0
M  V30 5709 H 534.991 3.62739 2.0427 0
M  V30 5710 H 535.524 3.96011 0.376824 0
M  V30 5711 H 532.263 6.41623 -1.34164 0
M  V30 5712 H 531.783 5.98962 0.316962 0
M  V30 5713 H 533.462 6.46991 -0.0331956 0
M  V30 5714 N 533.594 0.0601682 1.57485 0
M  V30 5715 C 534.541 -0.91112 2.12055 0
M  V30 5716 C 535.511 -1.30298 1.03013 0
M  V30 5717 O 536.696 -1.39087 1.30612 0
M  V30 5718 C 533.836 -2.1775 2.67729 0
M  V30 5719 C 532.949 -1.83933 3.90887 0
M  V30 5720 C 532.084 -3.05096 4.34845 0
M  V30 5721 C 531.123 -2.67241 5.5068 0
M  V30 5722 N 530.26 -3.81127 5.8965 0
M  V30 5723 H 535.1 -0.43888 2.9475 0
M  V30 5724 H 532.637 -0.204995 1.45665 0
M  V30 5725 H 534.595 -2.91866 2.98111 0
M  V30 5726 H 533.225 -2.62535 1.87816 0
M  V30 5727 H 532.277 -0.999287 3.6704 0
M  V30 5728 H 533.589 -1.52074 4.75052 0
M  V30 5729 H 532.743 -3.87502 4.66827 0
M  V30 5730 H 531.482 -3.40139 3.49509 0
M  V30 5731 H 530.487 -1.83254 5.18361 0
M  V30 5732 H 531.712 -2.3338 6.37738 0
M  V30 5733 H 529.658 -4.15954 5.07266 0
M  V30 5734 H 529.575 -3.52997 6.68528 0
M  V30 5735 H 530.843 -4.64145 6.2625 0
M  V30 5736 N 535.072 -1.5615 -0.213296 0
M  V30 5737 C 536.019 -1.93086 -1.26437 0
M  V30 5738 C 536.989 -0.789086 -1.4616 0
M  V30 5739 O 538.174 -1.04569 -1.59593 0
M  V30 5740 C 535.314 -2.26003 -2.608 0
M  V30 5741 C 534.427 -3.53156 -2.48807 0
M  V30 5742 C 533.562 -3.7548 -3.7575 0
M  V30 5743 C 532.601 -4.96119 -3.58514 0
M  V30 5744 N 531.738 -5.14791 -4.77425 0
M  V30 5745 H 536.578 -2.82707 -0.942376 0
M  V30 5746 H 534.115 -1.39919 -0.454001 0
M  V30 5747 H 536.073 -2.431 -3.39055 0
M  V30 5748 H 534.703 -1.39546 -2.91079 0
M  V30 5749 H 533.755 -3.44207 -1.61944 0
M  V30 5750 H 535.067 -4.41565 -2.31996 0
M  V30 5751 H 534.221 -3.92718 -4.62447 0
M  V30 5752 H 532.96 -2.85368 -3.95495 0
M  V30 5753 H 531.965 -4.78823 -2.70201 0
M  V30 5754 H 533.19 -5.87724 -3.40231 0
M  V30 5755 H 531.136 -4.27623 -4.97468 0
M  V30 5756 H 531.053 -5.97347 -4.63371 0
M  V30 5757 H 532.321 -5.36471 -5.65525 0
M  V30 5758 N 536.55 0.480323 -1.50102 0
M  V30 5759 C 537.46 1.60547 -1.71061 0
M  V30 5760 C 538.476 1.63564 -0.593529 0
M  V30 5761 O 539.652 1.81604 -0.870751 0
M  V30 5762 C 536.717 2.96814 -1.79171 0
M  V30 5763 C 535.778 3.04259 -3.02861 0
M  V30 5764 C 535.011 4.34027 -3.10574 0
M  V30 5765 O 535.234 5.24009 -2.25323 0
M  V30 5766 O 534.168 4.46873 -4.03223 0
M  V30 5767 H 537.994 1.45788 -2.6642 0
M  V30 5768 H 535.579 0.658838 -1.34088 0
M  V30 5769 H 537.461 3.77765 -1.86738 0
M  V30 5770 H 536.136 3.11791 -0.869947 0
M  V30 5771 H 535.043 2.22419 -3.008 0
M  V30 5772 H 536.376 2.94216 -3.94586 0
M  V30 5773 N 538.028 1.39524 0.732853 0
M  V30 5774 C 538.991 1.38189 1.82857 0
M  V30 5775 C 539.991 0.278624 1.58368 0
M  V30 5776 O 541.181 0.536639 1.65728 0
M  V30 5777 C 538.313 1.15661 3.2068 0
M  V30 5778 H 539.506 2.35692 1.85444 0
M  V30 5779 H 537.059 1.2512 0.936728 0
M  V30 5780 H 537.794 0.188482 3.23752 0
M  V30 5781 H 537.579 1.95559 3.39852 0
M  V30 5782 H 539.069 1.17472 4.00737 0
M  V30 5783 N 539.506 -0.963266 1.24736 0
M  V30 5784 C 540.746 -1.72172 1.10165 0
M  V30 5785 C 541.11 -1.88731 -0.352784 0
M  V30 5786 O 542.311 -2.61549 -0.620107 0
M  V30 5787 C 540.582 -3.0724 1.82589 0
M  V30 5788 S 542.141 -3.98449 1.83803 0
M  V30 5789 H 538.959 -0.591901 0.393922 0
M  V30 5790 H 541.561 -1.14955 1.58132 0
M  V30 5791 H 540.265 -2.92851 2.87518 0
M  V30 5792 H 539.796 -3.69521 1.34973 0
M  V30 5793 H 541.811 -4.87805 0.908883 0
M  V30 5794 N 540.985 -1.06182 -1.16461 0
M  V30 5795 C 542.231 -0.788825 -1.87481 0
M  V30 5796 C 542.586 0.677298 -1.80085 0
M  V30 5797 O 541.879 1.48976 -1.20486 0
M  V30 5798 C 542.073 -1.21633 -3.36066 0
M  V30 5799 C 541.902 -2.72247 -3.57927 0
M  V30 5800 C 540.672 -3.39696 -3.74079 0
M  V30 5801 C 542.87 -3.70461 -3.56739 0
M  V30 5802 N 540.852 -4.79072 -3.83879 0
M  V30 5803 C 542.223 -4.95616 -3.72511 0
M  V30 5804 C 544.278 -3.63788 -3.39945 0
M  V30 5805 C 542.981 -6.14895 -3.73225 0
M  V30 5806 C 545.007 -4.82517 -3.41953 0
M  V30 5807 C 544.369 -6.065 -3.58242 0
M  V30 5808 H 540.468 -0.341034 -0.703719 0
M  V30 5809 H 543.052 -1.35575 -1.39741 0
M  V30 5810 H 541.223 -0.67725 -3.8245 0
M  V30 5811 H 542.955 -0.892119 -3.94745 0
M  V30 5812 H 539.71 -2.90097 -3.74354 0
M  V30 5813 H 540.134 -5.51573 -3.92551 0
M  V30 5814 H 544.776 -2.68888 -3.26281 0
M  V30 5815 H 542.494 -7.10129 -3.85672 0
M  V30 5816 H 546.08 -4.79017 -3.30203 0
M  V30 5817 H 544.96 -6.96833 -3.59712 0
M  V30 5818 N 542.463 1.3308 -0.844243 0
M  V30 5819 C 543.426 2.27403 -0.286485 0
M  V30 5820 C 544.426 1.51179 0.547872 0
M  V30 5821 O 545.616 1.70421 0.360886 0
M  V30 5822 C 542.748 3.35653 0.595813 0
M  V30 5823 H 543.941 2.78248 -1.11885 0
M  V30 5824 H 541.494 1.43574 -0.617749 0
M  V30 5825 H 542.229 2.90058 1.4504 0
M  V30 5826 H 542.014 3.921 -0.00125994 0
M  V30 5827 H 543.504 4.05958 0.979168 0
M  V30 5828 N 543.941 0.601185 1.45683 0
M  V30 5829 C 544.871 -0.108824 2.33246 0
M  V30 5830 C 545.852 -0.865223 1.46451 0
M  V30 5831 O 547.037 -0.83704 1.75235 0
M  V30 5832 C 544.167 -1.11101 3.2905 0
M  V30 5833 C 543.121 -0.468244 4.25431 0
M  V30 5834 C 542.447 -1.57822 5.10878 0
M  V30 5835 C 543.747 0.606469 5.18767 0
M  V30 5836 H 545.441 0.622306 2.92861 0
M  V30 5837 H 542.987 0.300714 1.40825 0
M  V30 5838 H 544.94 -1.61622 3.89174 0
M  V30 5839 H 543.664 -1.87265 2.67581 0
M  V30 5840 H 542.323 0.0160484 3.66596 0
M  V30 5841 H 541.971 -2.32998 4.45781 0
M  V30 5842 H 541.671 -1.15369 5.76163 0
M  V30 5843 H 543.195 -2.08583 5.73869 0
M  V30 5844 H 544.609 0.185589 5.73 0
M  V30 5845 H 543.006 0.952381 5.92494 0
M  V30 5846 H 544.076 1.48559 4.61582 0
M  V30 5847 N 545.419 -1.53889 0.339982 0
M  V30 5848 C 546.644 -2.05741 -0.261798 0
M  V30 5849 C 547.069 -1.21354 -1.43718 0
M  V30 5850 O 546.427 -0.22645 -1.7988 0
M  V30 5851 C 546.475 -3.54542 -0.658228 0
M  V30 5852 O 545.579 -3.7302 -1.75869 0
M  V30 5853 H 544.92 -0.662529 -0.0441672 0
M  V30 5854 H 547.45 -1.98568 0.493161 0
M  V30 5855 H 547.46 -3.9711 -0.936368 0
M  V30 5856 H 546.135 -4.15412 0.201358 0
M  V30 5857 H 544.712 -3.42355 -1.47809 0
M  V30 5858 N 546.897 -0.0685191 -1.57451 0
M  V30 5859 C 547.845 0.917577 -2.13736 0
M  V30 5860 C 548.839 1.31049 -1.07344 0
M  V30 5861 O 550.045 1.28811 -1.25728 0
M  V30 5862 H 546.42 0.313835 -0.683382 0
M  V30 5863 H 548.391 0.417903 -2.95459 0
M  V30 5864 C 547.14 2.17686 -2.71123 0
M  V30 5865 H 546.463 1.88336 -3.52661 0
M  V30 5866 H 547.903 2.84803 -3.14107 0
M  V30 5867 C 546.362 2.9332 -1.65726 0
M  V30 5868 O 546.892 3.86901 -1.08031 0
M  V30 5869 N 545.098 2.56367 -1.36837 0
M  V30 5870 H 544.645 1.80341 -1.83943 0
M  V30 5871 H 544.603 3.07276 -0.665501 0
M  V30 5872 N 548.375 1.56261 0.205012 0
M  V30 5873 C 549.624 1.79236 0.925058 0
M  V30 5874 C 549.937 0.640011 1.84833 0
M  V30 5875 O 551.143 0.753809 2.60826 0
M  V30 5876 C 549.599 3.17475 1.69522 0
M  V30 5877 C 549.207 4.40482 0.817269 0
M  V30 5878 C 550.951 3.49766 2.4055 0
M  V30 5879 C 548.858 5.69744 1.58573 0
M  V30 5880 H 547.788 0.668287 0.349153 0
M  V30 5881 H 550.439 1.82629 0.178544 0
M  V30 5882 H 548.821 3.08304 2.48526 0
M  V30 5883 H 549.995 4.60752 0.0665988 0
M  V30 5884 H 548.31 4.15827 0.218316 0
M  V30 5885 H 550.907 4.43573 2.98575 0
M  V30 5886 H 551.25 2.73041 3.14252 0
M  V30 5887 H 551.783 3.60341 1.68522 0
M  V30 5888 H 548.522 6.49407 0.891679 0
M  V30 5889 H 548.042 5.53509 2.31059 0
M  V30 5890 H 549.721 6.1051 2.14212 0
M  V30 5891 N 549.853 -0.472356 1.50355 0
M  V30 5892 C 551.081 -1.24784 1.65035 0
M  V30 5893 C 551.496 -1.85837 0.333176 0
M  V30 5894 O 550.853 -1.69168 -0.68472 0
M  V30 5895 C 550.904 -2.35747 2.74054 0
M  V30 5896 O 550.625 -1.77197 4.00665 0
M  V30 5897 C 552.126 -3.26645 2.99696 0
M  V30 5898 H 549.346 -0.377432 0.554785 0
M  V30 5899 H 551.89 -0.563962 1.9657 0
M  V30 5900 H 550.045 -2.99912 2.45217 0
M  V30 5901 H 550.459 -2.5026 4.60945 0
M  V30 5902 H 551.933 -4.00718 3.79644 0
M  V30 5903 H 552.41 -3.8535 2.10718 0
M  V30 5904 H 553.016 -2.68218 3.3006 0
M  V30 5905 N 551.331 -1.39911 -0.725443 0
M  V30 5906 C 552.294 -1.39156 -1.82121 0
M  V30 5907 C 553.294 -0.287018 -1.58218 0
M  V30 5908 O 554.484 -0.545421 -1.65441 0
M  V30 5909 C 551.616 -1.1736 -3.20062 0
M  V30 5910 H 552.809 -2.36672 -1.84191 0
M  V30 5911 H 550.362 -1.25615 -0.930079 0
M  V30 5912 H 551.097 -0.205648 -3.23647 0
M  V30 5913 H 550.882 -1.97358 -3.3881 0
M  V30 5914 H 552.372 -1.19596 -4.00108 0
M  V30 5915 N 552.809 0.956637 -1.25245 0
M  V30 5916 C 554.057 1.69764 -1.09657 0
M  V30 5917 C 554.378 1.91583 0.363464 0
M  V30 5918 O 553.648 1.50149 1.25825 0
M  V30 5919 H 552.228 0.629097 -0.402798 0
M  V30 5920 H 554.89 1.15026 -1.57337 0
M  V30 5921 H 553.986 2.67769 -1.60331 0
M  V30 5922 N 554.287 1.06798 1.15896 0
M  V30 5923 C 555.235 0.677525 2.22514 0
M  V30 5924 C 556.229 -0.308994 1.66558 0
M  V30 5925 O 557.435 -0.173308 1.79164 0
M  V30 5926 H 553.81 0.200994 0.724642 0
M  V30 5927 H 555.781 1.5865 2.52731 0
M  V30 5928 C 554.53 0.0854153 3.47595 0
M  V30 5929 H 553.853 0.835645 3.90969 0
M  V30 5930 H 555.293 -0.150199 4.23734 0
M  V30 5931 C 553.752 -1.1724 3.15843 0
M  V30 5932 O 554.282 -2.25965 3.32119 0
M  V30 5933 N 552.488 -1.07636 2.69931 0
M  V30 5934 H 552.035 -0.191559 2.56887 0
M  V30 5935 H 551.993 -1.91876 2.4906 0
M  V30 5936 N 555.766 -1.3263 0.851289 0
M  V30 5937 C 557.015 -1.96633 0.449267 0
M  V30 5938 C 557.328 -1.68131 -0.999562 0
M  V30 5939 O 558.534 -2.25845 -1.50685 0
M  V30 5940 C 556.99 -3.51946 0.752446 0
M  V30 5941 C 556.598 -3.89311 2.21678 0
M  V30 5942 C 558.342 -4.22437 0.417983 0
M  V30 5943 C 556.249 -5.37655 2.46336 0
M  V30 5944 H 555.179 -0.735888 0.164269 0
M  V30 5945 H 557.83 -1.51073 1.0416 0
M  V30 5946 H 556.212 -3.95899 0.0895858 0
M  V30 5947 H 557.386 -3.56378 2.92115 0
M  V30 5948 H 555.701 -3.31836 2.51543 0
M  V30 5949 H 558.298 -5.31549 0.579674 0
M  V30 5950 H 558.641 -4.11349 -0.640115 0
M  V30 5951 H 559.174 -3.84057 1.03659 0
M  V30 5952 H 555.913 -5.5376 3.50757 0
M  V30 5953 H 555.433 -5.72005 1.80473 0
M  V30 5954 H 557.112 -6.04695 2.30115 0
M  V30 5955 N 557.244 -0.608902 -1.45362 0
M  V30 5956 C 558.469 -0.10921 -2.07112 0
M  V30 5957 C 558.894 1.19779 -1.45033 0
M  V30 5958 O 558.252 1.72961 -0.543527 0
M  V30 5959 C 558.3 0.0155745 -3.60597 0
M  V30 5960 O 557.404 1.06546 -3.98399 0
M  V30 5961 H 556.745 -0.0746619 -0.659789 0
M  V30 5962 H 559.275 -0.839283 -1.86594 0
M  V30 5963 H 559.285 0.213364 -4.07442 0
M  V30 5964 H 557.96 -0.938765 -4.05167 0
M  V30 5965 H 556.537 0.844024 -3.63223 0
M  V30 5966 N 558.722 1.53707 -0.348139 0
M  V30 5967 C 559.654 2.22725 0.540946 0
M  V30 5968 C 560.667 1.2354 1.06027 0
M  V30 5969 O 561.856 1.49867 0.96964 0
M  V30 5970 C 558.956 2.89756 1.75768 0
M  V30 5971 C 558.129 4.15297 1.37285 0
M  V30 5972 C 557.188 4.65697 2.44976 0
M  V30 5973 O 556.214 5.29798 2.08092 0
M  V30 5974 N 557.416 4.42017 3.763 0
M  V30 5975 H 560.181 2.99658 -0.0501592 0
M  V30 5976 H 557.742 1.60979 -0.17248 0
M  V30 5977 H 559.734 3.20388 2.47252 0
M  V30 5978 H 558.304 2.16382 2.25605 0
M  V30 5979 H 557.524 3.9116 0.488584 0
M  V30 5980 H 558.812 4.96948 1.09179 0
M  V30 5981 H 558.21 3.9076 4.09051 0
M  V30 5982 H 556.767 4.77242 4.4394 0
M  V30 5983 N 560.2 0.0768682 1.57412 0
M  V30 5984 C 561.449 -0.590679 1.92857 0
M  V30 5985 C 561.762 -1.70461 0.959293 0
M  V30 5986 O 562.968 -2.43207 1.20675 0
M  V30 5987 C 561.424 -1.10204 3.42612 0
M  V30 5988 C 561.032 -0.0188447 4.47996 0
M  V30 5989 C 562.776 -1.74336 3.87049 0
M  V30 5990 C 560.683 -0.544536 5.88888 0
M  V30 5991 H 559.613 -0.224411 0.71983 0
M  V30 5992 H 562.264 0.149924 1.82887 0
M  V30 5993 H 560.646 -1.89577 3.47673 0
M  V30 5994 H 561.82 0.755936 4.54557 0
M  V30 5995 H 560.135 0.526555 4.13057 0
M  V30 5996 H 562.732 -2.14708 4.89699 0
M  V30 5997 H 563.075 -2.60537 3.24694 0
M  V30 5998 H 563.608 -1.01577 3.84613 0
M  V30 5999 H 560.347 0.280426 6.549 0
M  V30 6000 H 559.867 -1.28673 5.85836 0
M  V30 6001 H 561.546 -1.01933 6.3892 0
M  V30 6002 N 561.678 -1.56367 -0.196722 0
M  V30 6003 C 562.61 -1.90941 -1.26784 0
M  V30 6004 C 563.623 -0.799928 -1.41792 0
M  V30 6005 O 564.812 -1.07833 -1.42247 0
M  V30 6006 C 561.912 -2.12477 -2.6402 0
M  V30 6007 C 561.085 -3.43616 -2.70641 0
M  V30 6008 C 560.144 -3.54284 -3.89062 0
M  V30 6009 O 559.17 -4.2712 -3.76241 0
M  V30 6010 N 560.372 -2.87252 -5.04447 0
M  V30 6011 H 563.137 -2.83417 -0.974417 0
M  V30 6012 H 560.698 -1.57215 -0.386649 0
M  V30 6013 H 562.69 -2.16904 -3.41665 0
M  V30 6014 H 561.26 -1.26508 -2.85857 0
M  V30 6015 H 560.48 -3.51072 -1.79283 0
M  V30 6016 H 561.768 -4.29958 -2.72054 0
M  V30 6017 H 561.166 -2.27901 -5.17762 0
M  V30 6018 H 559.723 -2.97308 -5.80044 0
M  V30 6019 N 563.156 0.464375 -1.50603 0
M  V30 6020 C 564.119 1.54393 -1.69397 0
M  V30 6021 C 565.119 1.50566 -0.564504 0
M  V30 6022 O 566.309 1.53066 -0.831645 0
M  V30 6023 C 563.441 2.9401 -1.72543 0
M  V30 6024 H 564.634 1.39044 -2.65719 0
M  V30 6025 H 562.187 0.69122 -1.40185 0
M  V30 6026 H 562.922 3.14795 -0.77938 0
M  V30 6027 H 562.707 2.98195 -2.54602 0
M  V30 6028 H 564.197 3.72375 -1.89015 0
M  V30 6029 N 564.634 1.40294 0.718013 0
M  V30 6030 C 565.88 1.38645 1.48005 0
M  V30 6031 C 566.213 -0.0121202 1.94196 0
M  V30 6032 O 565.488 -0.980309 1.67989 0
M  V30 6033 C 565.771 2.37379 2.70782 0
M  V30 6034 C 565.624 3.8625 2.30501 0
M  V30 6035 C 566.943 2.33685 3.72933 0
M  V30 6036 H 564.062 0.504928 0.536858 0
M  V30 6037 H 566.704 1.71411 0.819649 0
M  V30 6038 H 564.854 2.09568 3.27129 0
M  V30 6039 H 566.526 4.24879 1.79655 0
M  V30 6040 H 564.769 4.02202 1.6253 0
M  V30 6041 H 565.44 4.50847 3.18498 0
M  V30 6042 H 567.916 2.58314 3.2621 0
M  V30 6043 H 566.792 3.0482 4.56482 0
M  V30 6044 H 567.053 1.34765 4.21059 0
M  V30 6045 N 566.112 -0.949982 1.2575 0
M  V30 6046 C 567.361 -1.68956 1.10168 0
M  V30 6047 C 567.674 -1.92327 -0.356309 0
M  V30 6048 O 568.88 -2.64026 -0.632657 0
M  V30 6049 C 567.336 -3.04196 1.92336 0
M  V30 6050 C 566.944 -2.88603 3.42655 0
M  V30 6051 C 568.688 -3.81904 1.85336 0
M  V30 6052 C 566.595 -4.19262 4.17101 0
M  V30 6053 H 565.525 -0.633645 0.408668 0
M  V30 6054 H 568.176 -1.05719 1.49986 0
M  V30 6055 H 566.558 -3.68363 1.45344 0
M  V30 6056 H 567.732 -2.3334 3.97353 0
M  V30 6057 H 566.047 -2.24345 3.50796 0
M  V30 6058 H 568.644 -4.78688 2.38248 0
M  V30 6059 H 568.987 -4.08099 0.822226 0
M  V30 6060 H 569.52 -3.24495 2.30104 0
M  V30 6061 H 566.259 -3.98254 5.20648 0
M  V30 6062 H 565.779 -4.74273 3.67186 0
M  V30 6063 H 567.458 -4.87775 4.25071 0
M  V30 6064 N 567.59 -1.07411 -1.15328 0
M  V30 6065 C 568.867 -0.710732 -1.82231 0
M  V30 6066 C 569.247 0.806732 -1.95077 0
M  V30 6067 O 568.595 1.72139 -1.50268 0
M  V30 6068 C 568.805 -1.42586 -3.18544 0
M  V30 6069 C 570.153 -1.57836 -3.94174 0
M  V30 6070 O 571.177 -1.38669 -3.281 0
M  V30 6071 O 570.036 -1.8938 -5.12638 0
M  V30 6072 H 567.13 -0.25297 -0.78736 0
M  V30 6073 H 569.676 -1.17508 -1.22434 0
M  V30 6074 H 568.448 -2.46008 -3.04296 0
M  V30 6075 H 568.071 -0.952332 -3.86026 0
M  V30 6076 N 569.068 1.32177 -0.85831 0
M  V30 6077 C 570.016 2.30729 -0.294442 0
M  V30 6078 C 571.01 1.59009 0.584165 0
M  V30 6079 O 572.216 1.73713 0.471562 0
M  V30 6080 H 568.591 0.748097 -0.0765171 0
M  V30 6081 H 570.562 2.75774 -1.1398 0
M  V30 6082 C 569.311 3.44098 0.499208 0
M  V30 6083 H 568.634 3.99449 -0.167579 0
M  V30 6084 H 570.074 4.15202 0.859273 0
M  V30 6085 C 568.533 2.91684 1.68588 0
M  V30 6086 O 569.063 2.89481 2.78503 0
M  V30 6087 N 567.269 2.48036 1.51415 0
M  V30 6088 H 566.816 2.50027 0.620006 0
M  V30 6089 H 566.774 2.13322 2.30957 0
M  V30 6090 N 570.547 0.616602 1.45037 0
M  V30 6091 C 571.495 -0.109318 2.32343 0
M  V30 6092 C 572.489 -0.850543 1.465 0
M  V30 6093 O 573.695 -0.765088 1.62931 0
M  V30 6094 H 570.07 -0.0541091 0.750051 0
M  V30 6095 H 572.041 0.645326 2.91338 0
M  V30 6096 C 570.79 -1.0872 3.30266 0
M  V30 6097 H 570.113 -0.526267 3.96321 0
M  V30 6098 H 571.553 -1.56489 3.94065 0
M  V30 6099 C 570.012 -2.16525 2.58105 0
M  V30 6100 O 570.542 -3.244 2.36913 0
M  V30 6101 N 568.748 -1.92057 2.18088 0
M  V30 6102 H 568.295 -1.04337 2.35524 0
M  V30 6103 H 568.253 -2.64391 1.70131 0
M  V30 6104 N 572.025 -1.5352 0.356285 0
M  V30 6105 C 573.271 -2.01414 -0.236653 0
M  V30 6106 C 573.604 -1.24339 -1.49176 0
M  V30 6107 O 572.879 -0.334496 -1.91602 0
M  V30 6108 C 573.162 -3.56059 -0.537982 0
M  V30 6109 C 573.015 -4.43835 0.730112 0
M  V30 6110 C 574.334 -4.19127 -1.34239 0
M  V30 6111 H 571.453 -0.732135 -0.0845386 0
M  V30 6112 H 574.095 -1.83854 0.479341 0
M  V30 6113 H 572.245 -3.71153 -1.14795 0
M  V30 6114 H 573.917 -4.40555 1.36782 0
M  V30 6115 H 572.16 -4.1218 1.3524 0
M  V30 6116 H 572.831 -5.49958 0.474358 0
M  V30 6117 H 575.307 -4.07809 -0.826498 0
M  V30 6118 H 574.183 -5.27378 -1.52198 0
M  V30 6119 H 574.444 -3.74581 -2.34822 0
M  V30 6120 N 573.503 -0.0852151 -1.57369 0
M  V30 6121 C 574.752 0.580443 -1.93168 0
M  V30 6122 C 575.065 1.6995 -0.968319 0
M  V30 6123 O 576.271 2.42564 -1.21963 0
M  V30 6124 C 574.727 1.08386 -3.43192 0
M  V30 6125 C 574.335 -0.00491388 -4.48 0
M  V30 6126 C 576.079 1.72281 -3.87968 0
M  V30 6127 C 573.986 0.513299 -5.89168 0
M  V30 6128 H 572.916 0.22059 -0.72101 0
M  V30 6129 H 575.567 -0.159621 -1.82804 0
M  V30 6130 H 573.949 1.8773 -3.48674 0
M  V30 6131 H 575.123 -0.780032 -4.5415 0
M  V30 6132 H 573.438 -0.548453 -4.12772 0
M  V30 6133 H 576.035 2.12108 -4.9083 0
M  V30 6134 H 576.378 2.58811 -3.26071 0
M  V30 6135 H 576.911 0.995359 -3.85146 0
M  V30 6136 H 573.65 -0.315153 -6.54742 0
M  V30 6137 H 573.17 1.25564 -5.8651 0
M  V30 6138 H 574.849 0.985433 -6.39451 0
M  V30 6139 N 574.981 1.5647 0.188427 0
M  V30 6140 C 576.392 1.70864 0.752494 0
M  V30 6141 C 576.743 0.692905 1.83557 0
M  V30 6142 O 575.868 -0.149307 2.15884 0
M  V30 6143 C 576.463 3.09789 1.37173 0
M  V30 6144 C 575.022 3.25925 1.88281 0
M  V30 6145 C 574.169 2.66817 0.755259 0
M  V30 6146 H 577.12 1.58657 -0.0367408 0
M  V30 6147 H 577.141 3.07489 2.24122 0
M  V30 6148 H 576.653 3.83693 0.583219 0
M  V30 6149 H 574.754 2.56948 2.6983 0
M  V30 6150 H 574.867 4.33498 2.04001 0
M  V30 6151 H 573.231 2.2617 1.17128 0
M  V30 6152 H 574.014 3.43294 -0.0211237 0
M  V30 6153 N 576.459 -0.456382 1.50847 0
M  V30 6154 C 577.391 -1.57033 1.66953 0
M  V30 6155 C 578.404 -1.53207 0.550593 0
M  V30 6156 O 579.593 -1.58328 0.824285 0
M  V30 6157 C 576.693 -2.95937 1.65149 0
M  V30 6158 C 575.866 -3.24475 2.93317 0
M  V30 6159 C 574.925 -4.43007 2.83957 0
M  V30 6160 O 573.951 -4.42592 3.57912 0
M  V30 6161 N 575.153 -5.45503 1.9851 0
M  V30 6162 H 577.918 -1.43629 2.63042 0
M  V30 6163 H 575.479 -0.645037 1.48495 0
M  V30 6164 H 577.471 -3.73224 1.56481 0
M  V30 6165 H 576.041 -3.03036 0.767343 0
M  V30 6166 H 575.261 -2.35664 3.16 0
M  V30 6167 H 576.549 -3.4036 3.78196 0
M  V30 6168 H 575.947 -5.48668 1.37766 0
M  V30 6169 H 574.504 -6.21716 1.95735 0
M  V30 6170 N 577.937 -1.40673 -0.710563 0
M  V30 6171 C 578.867 -1.44095 -1.83736 0
M  V30 6172 C 579.848 -0.301286 -1.67411 0
M  V30 6173 O 581.033 -0.510618 -1.87367 0
M  V30 6174 C 578.163 -1.30773 -3.21738 0
M  V30 6175 C 577.117 -2.42395 -3.52745 0
M  V30 6176 C 576.443 -2.14147 -4.89944 0
M  V30 6177 C 577.743 -3.84738 -3.53234 0
M  V30 6178 H 579.437 -2.38396 -1.81129 0
M  V30 6179 H 576.983 -1.14746 -0.870017 0
M  V30 6180 H 578.936 -1.31783 -4.00264 0
M  V30 6181 H 577.66 -0.329507 -3.24934 0
M  V30 6182 H 576.319 -2.40643 -2.76562 0
M  V30 6183 H 575.967 -1.14703 -4.89747 0
M  V30 6184 H 575.667 -2.88934 -5.11655 0
M  V30 6185 H 577.191 -2.16848 -5.70797 0
M  V30 6186 H 578.605 -3.88286 -4.2179 0
M  V30 6187 H 577.002 -4.59085 -3.86473 0
M  V30 6188 H 578.072 -4.13962 -2.52514 0
M  V30 6189 N 579.415 0.9433 -1.26252 0
M  V30 6190 C 580.664 1.68369 -1.11062 0
M  V30 6191 C 580.977 1.92514 0.346104 0
M  V30 6192 O 582.183 2.64358 0.618646 0
M  V30 6193 C 580.639 3.03171 -1.93946 0
M  V30 6194 C 580.247 2.86782 -3.4418 0
M  V30 6195 C 581.991 3.80916 -1.87359 0
M  V30 6196 C 579.898 4.17044 -4.19319 0
M  V30 6197 H 578.828 0.631469 -0.412023 0
M  V30 6198 H 581.479 1.04922 -1.50544 0
M  V30 6199 H 579.861 3.67587 -1.47296 0
M  V30 6200 H 581.035 2.31229 -3.98585 0
M  V30 6201 H 579.35 2.22482 -3.51981 0
M  V30 6202 H 581.947 4.77417 -2.40784 0
M  V30 6203 H 582.29 4.07658 -0.843857 0
M  V30 6204 H 582.823 3.2327 -2.31821 0
M  V30 6205 H 579.562 3.95487 -5.22753 0
M  V30 6206 H 579.082 4.72319 -3.69696 0
M  V30 6207 H 580.761 4.85513 -4.27651 0
M  V30 6208 N 580.893 1.08022 1.14757 0
M  V30 6209 C 581.841 0.701088 2.21783 0
M  V30 6210 C 582.835 -0.291311 1.66876 0
M  V30 6211 O 584.041 -0.154296 1.79337 0
M  V30 6212 H 580.416 0.208668 0.722469 0
M  V30 6213 H 582.387 1.61321 2.51034 0
M  V30 6214 C 581.136 0.122278 3.47485 0
M  V30 6215 H 580.459 0.877065 3.90061 0
M  V30 6216 H 581.899 -0.105248 4.23869 0
M  V30 6217 C 580.358 -1.13883 3.17068 0
M  V30 6218 O 580.888 -2.22429 3.34497 0
M  V30 6219 N 579.094 -1.04767 2.71058 0
M  V30 6220 H 578.641 -0.164302 2.57075 0
M  V30 6221 H 578.599 -1.89224 2.51081 0
M  V30 6222 N 582.371 -1.3172 0.865308 0
M  V30 6223 C 583.62 -1.96145 0.470098 0
M  V30 6224 C 583.933 -1.69182 -0.981674 0
M  V30 6225 O 585.139 -2.27431 -1.48281 0
M  V30 6226 C 583.595 -3.51129 0.789732 0
M  V30 6227 C 583.203 -3.86938 2.25795 0
M  V30 6228 C 584.947 -4.2197 0.462765 0
M  V30 6229 C 582.854 -5.35012 2.52024 0
M  V30 6230 H 581.784 -0.734105 0.172065 0
M  V30 6231 H 584.435 -1.49959 1.05757 0
M  V30 6232 H 582.817 -3.95781 0.131571 0
M  V30 6233 H 583.991 -3.5326 2.95879 0
M  V30 6234 H 582.306 -3.29149 2.55049 0
M  V30 6235 H 584.903 -5.30904 0.636019 0
M  V30 6236 H 585.246 -4.12005 -0.59645 0
M  V30 6237 H 585.779 -3.82936 1.07727 0
M  V30 6238 H 582.518 -5.50008 3.56611 0
M  V30 6239 H 582.038 -5.70058 1.8653 0
M  V30 6240 H 583.717 -6.0222 2.36515 0
M  V30 6241 N 583.85 -0.624285 -1.44708 0
M  V30 6242 C 584.779 0.0717025 -2.3339 0
M  V30 6243 C 585.76 0.841814 -1.47809 0
M  V30 6244 O 586.946 0.809056 -1.76544 0
M  V30 6245 C 584.076 1.05852 -3.30776 0
M  V30 6246 C 583.029 0.400503 -4.26122 0
M  V30 6247 C 582.356 1.49674 -5.13324 0
M  V30 6248 C 583.656 -0.688924 -5.17737 0
M  V30 6249 H 585.35 -0.668819 -2.91834 0
M  V30 6250 H 582.896 -0.32308 -1.40329 0
M  V30 6251 H 584.849 1.5541 -3.91696 0
M  V30 6252 H 583.572 1.82984 -2.70526 0
M  V30 6253 H 582.231 -0.0743687 -3.66525 0
M  V30 6254 H 581.88 2.25877 -4.49431 0
M  V30 6255 H 581.58 1.06188 -5.77926 0
M  V30 6256 H 583.104 1.99427 -5.77115 0
M  V30 6257 H 584.518 -0.276724 -5.72632 0
M  V30 6258 H 582.915 -1.04652 -5.90904 0
M  V30 6259 H 583.985 -1.55884 -4.5916 0
M  V30 6260 N 585.328 1.53329 -0.364422 0
M  V30 6261 C 586.261 2.22052 0.526145 0
M  V30 6262 C 587.239 1.21203 1.08391 0
M  V30 6263 O 588.423 1.50101 1.14026 0
M  V30 6264 C 585.55 2.91432 1.72583 0
M  V30 6265 C 584.596 4.06345 1.29562 0
M  V30 6266 S 585.429 5.34671 0.297885 0
M  V30 6267 C 586.585 6.07563 1.50392 0
M  V30 6268 H 586.818 2.97244 -0.0575055 0
M  V30 6269 H 584.351 1.53684 -0.148525 0
M  V30 6270 H 586.309 3.3202 2.41398 0
M  V30 6271 H 584.97 2.15966 2.28073 0
M  V30 6272 H 584.163 4.53901 2.19067 0
M  V30 6273 H 583.765 3.67642 0.686696 0
M  V30 6274 H 586.057 6.32224 2.43513 0
M  V30 6275 H 587 6.99973 1.06977 0
M  V30 6276 H 587.408 5.37994 1.70945 0
M  V30 6277 N 586.806 0.0935595 1.57322 0
M  V30 6278 C 587.753 -0.865935 2.1394 0
M  V30 6279 C 588.723 -1.28083 1.05754 0
M  V30 6280 O 589.908 -1.36285 1.33533 0
M  V30 6281 C 587.048 -2.12023 2.72287 0
M  V30 6282 C 586.161 -1.756 3.94701 0
M  V30 6283 C 585.296 -2.95804 4.41218 0
M  V30 6284 C 584.335 -2.555 5.56225 0
M  V30 6285 N 583.472 -3.68534 5.97601 0
M  V30 6286 H 588.312 -0.376261 2.95615 0
M  V30 6287 H 585.849 -0.174052 1.46067 0
M  V30 6288 H 587.807 -2.85477 3.04235 0
M  V30 6289 H 586.437 -2.58492 1.93343 0
M  V30 6290 H 585.489 -0.921208 3.69077 0
M  V30 6291 H 586.801 -1.41964 4.78171 0
M  V30 6292 H 585.955 -3.77513 4.74941 0
M  V30 6293 H 584.694 -3.32649 3.56645 0
M  V30 6294 H 583.699 -1.72218 5.22131 0
M  V30 6295 H 584.924 -2.19801 6.42545 0
M  V30 6296 H 582.87 -4.051 5.15974 0
M  V30 6297 H 582.787 -3.38737 6.75865 0
M  V30 6298 H 584.055 -4.50757 6.35955 0
M  V30 6299 N 588.284 -1.56567 -0.180126 0
M  V30 6300 C 589.194 -1.98947 -1.24327 0
M  V30 6301 C 590.21 -0.899446 -1.4895 0
M  V30 6302 O 591.386 -1.20639 -1.61271 0
M  V30 6303 C 588.451 -2.33328 -2.56435 0
M  V30 6304 C 587.512 -3.56114 -2.39752 0
M  V30 6305 C 586.745 -3.88845 -3.65561 0
M  V30 6306 O 586.968 -3.22662 -4.70368 0
M  V30 6307 O 585.902 -4.82226 -3.60197 0
M  V30 6308 H 589.728 -2.89634 -0.913565 0
M  V30 6309 H 587.313 -1.44319 -0.386306 0
M  V30 6310 H 589.195 -2.5645 -3.34382 0
M  V30 6311 H 587.87 -1.45806 -2.89002 0
M  V30 6312 H 586.777 -3.38221 -1.59866 0
M  V30 6313 H 588.11 -4.4415 -2.12113 0
M  V30 6314 N 589.762 0.448376 -1.51087 0
M  V30 6315 C 591.039 1.20926 -1.53741 0
M  V30 6316 C 591.419 2.09025 -0.295222 0
M  V30 6317 O 590.767 2.16851 0.720283 0
M  V30 6318 C 590.977 2.02067 -2.84552 0
M  V30 6319 C 592.325 2.59486 -3.36084 0
M  V30 6320 O 593.349 2.12289 -2.86028 0
M  V30 6321 O 592.208 3.45539 -4.23397 0
M  V30 6322 H 589.302 0.549951 -0.617643 0
M  V30 6323 H 591.848 0.458344 -1.63393 0
M  V30 6324 H 590.62 1.37291 -3.66425 0
M  V30 6325 H 590.243 2.84246 -2.78011 0
M  V30 6326 N 591.24 1.41047 0.703093 0
M  V30 6327 C 592.487 1.4 1.46309 0
M  V30 6328 C 592.815 0.00654574 1.94499 0
M  V30 6329 O 592.07 -0.980255 1.6938 0
M  V30 6330 C 592.369 2.34686 2.6955 0
M  V30 6331 C 592.035 3.81684 2.40058 0
M  V30 6332 C 590.697 4.21731 2.31725 0
M  V30 6333 C 593.049 4.74525 2.15581 0
M  V30 6334 C 590.377 5.52637 1.97001 0
M  V30 6335 C 592.729 6.05744 1.82366 0
M  V30 6336 C 591.393 6.44819 1.72524 0
M  V30 6337 H 590.663 0.512295 0.535382 0
M  V30 6338 H 593.31 1.73792 0.804275 0
M  V30 6339 H 591.615 1.94122 3.40329 0
M  V30 6340 H 593.312 2.31152 3.27673 0
M  V30 6341 H 589.902 3.49963 2.47435 0
M  V30 6342 H 594.086 4.44395 2.20968 0
M  V30 6343 H 589.342 5.81802 1.87928 0
M  V30 6344 H 593.516 6.77189 1.62444 0
M  V30 6345 H 591.143 7.46168 1.45385 0
M  V30 6346 N 592.718 -0.936591 1.26751 0
M  V30 6347 C 593.628 -2.06949 1.10496 0
M  V30 6348 C 594.644 -1.7396 0.037271 0
M  V30 6349 O 595.82 -1.99941 0.241944 0
M  V30 6350 C 592.885 -3.38612 0.744491 0
M  V30 6351 C 591.946 -3.85355 1.89209 0
M  V30 6352 C 591.179 -5.10735 1.54873 0
M  V30 6353 O 591.402 -5.68602 0.452546 0
M  V30 6354 O 590.336 -5.52632 2.38499 0
M  V30 6355 H 594.162 -2.23571 2.05547 0
M  V30 6356 H 591.747 -1.05428 1.05855 0
M  V30 6357 H 593.629 -4.17711 0.556396 0
M  V30 6358 H 592.304 -3.23218 -0.176582 0
M  V30 6359 H 591.211 -3.07182 2.13518 0
M  V30 6360 H 592.544 -4.05277 2.79305 0
M  V30 6361 N 594.196 -1.08629 -1.14182 0
M  V30 6362 C 595.442 -0.818556 -1.85546 0
M  V30 6363 C 595.775 0.654076 -1.82854 0
M  V30 6364 O 595.05 1.48099 -1.26083 0
M  V30 6365 C 595.333 -1.34397 -3.3408 0
M  V30 6366 C 595.186 -2.8821 -3.45333 0
M  V30 6367 C 596.505 -0.971069 -4.29253 0
M  V30 6368 H 593.624 -0.298821 -0.673702 0
M  V30 6369 H 596.266 -1.34629 -1.34071 0
M  V30 6370 H 594.416 -0.895064 -3.78049 0
M  V30 6371 H 596.088 -3.41488 -3.10134 0
M  V30 6372 H 594.331 -3.25756 -2.86471 0
M  V30 6373 H 595.002 -3.20047 -4.49749 0
M  V30 6374 H 597.478 -1.35809 -3.93313 0
M  V30 6375 H 596.354 -1.36586 -5.31635 0
M  V30 6376 H 596.615 0.121659 -4.41933 0
M  V30 6377 N 595.674 1.31259 -0.872281 0
M  V30 6378 C 597.09 1.49283 -0.564521 0
M  V30 6379 C 597.29 1.80243 0.900807 0
M  V30 6380 O 596.346 1.88246 1.68284 0
M  V30 6381 C 597.659 2.62503 -1.46673 0
M  V30 6382 C 599.207 2.76386 -1.46901 0
M  V30 6383 C 599.682 3.92705 -2.35684 0
M  V30 6384 N 601.173 3.99995 -2.33577 0
M  V30 6385 C 601.908 4.89276 -2.98992 0
M  V30 6386 N 601.404 5.83443 -3.73585 0
M  V30 6387 N 603.197 4.82541 -2.88289 0
M  V30 6388 H 595.348 1.09432 -1.82039 0
M  V30 6389 H 597.611 0.540949 -0.77851 0
M  V30 6390 H 597.317 2.46407 -2.50951 0
M  V30 6391 H 597.191 3.58695 -1.16696 0
M  V30 6392 H 599.578 2.91894 -0.433796 0
M  V30 6393 H 599.659 1.80853 -1.80903 0
M  V30 6394 H 599.303 3.77954 -3.39283 0
M  V30 6395 H 599.233 4.87549 -1.99006 0
M  V30 6396 H 601.724 3.32624 -1.7936 0
M  V30 6397 H 602.037 6.48303 -4.20622 0
M  V30 6398 H 600.382 5.83415 -3.77694 0
M  V30 6399 H 603.573 4.07951 -2.2955 0
M  V30 6400 H 603.746 5.51916 -3.39549 0
M  V30 6401 N 597.152 0.631951 1.44375 0
M  V30 6402 C 598.099 -0.0724807 2.30686 0
M  V30 6403 C 599.069 -0.835975 1.43529 0
M  V30 6404 O 600.254 -0.816849 1.7243 0
M  V30 6405 C 597.394 -1.04753 3.28817 0
M  V30 6406 C 596.507 -0.282367 4.31076 0
M  V30 6407 C 595.642 -1.2493 5.163 0
M  V30 6408 C 594.681 -0.473349 6.10267 0
M  V30 6409 N 593.818 -1.39079 6.88187 0
M  V30 6410 H 598.658 0.669477 2.90383 0
M  V30 6411 H 596.195 0.341927 1.43071 0
M  V30 6412 H 598.153 -1.62623 3.842 0
M  V30 6413 H 596.783 -1.75661 2.70819 0
M  V30 6414 H 595.835 0.412268 3.78159 0
M  V30 6415 H 597.147 0.321955 4.9776 0
M  V30 6416 H 596.301 -1.89931 5.76204 0
M  V30 6417 H 595.04 -1.88755 4.49692 0
M  V30 6418 H 594.045 0.190142 5.49471 0
M  V30 6419 H 595.27 0.16019 6.78911 0
M  V30 6420 H 593.216 -2.01623 6.24247 0
M  V30 6421 H 593.133 -0.840513 7.51313 0
M  V30 6422 H 594.401 -2.02961 7.52613 0
M  V30 6423 N 598.631 -1.53133 0.372548 0
M  V30 6424 C 599.541 -2.29671 -0.478379 0
M  V30 6425 C 600.557 -1.35913 -1.08644 0
M  V30 6426 O 601.733 -1.68975 -1.09588 0
M  V30 6427 C 598.798 -3.07625 -1.599 0
M  V30 6428 C 597.859 -4.17061 -1.01776 0
M  V30 6429 C 597.092 -4.91289 -2.08497 0
M  V30 6430 O 597.315 -4.65442 -3.29727 0
M  V30 6431 O 596.249 -5.7705 -1.71164 0
M  V30 6432 H 600.075 -3.03355 0.144649 0
M  V30 6433 H 597.66 -1.48773 0.136729 0
M  V30 6434 H 599.542 -3.56281 -2.25038 0
M  V30 6435 H 598.217 -2.3677 -2.2073 0
M  V30 6436 H 597.124 -3.72641 -0.330098 0
M  V30 6437 H 598.457 -4.90102 -0.453915 0
M  V30 6438 N 600.109 -0.101901 -1.5727 0
M  V30 6439 C 601.072 0.840129 -2.13247 0
M  V30 6440 C 602.072 1.20625 -1.06331 0
M  V30 6441 O 603.262 1.13456 -1.32186 0
M  V30 6442 C 600.394 2.13372 -2.65867 0
M  V30 6443 H 601.587 0.353945 -2.97804 0
M  V30 6444 H 599.14 0.147167 -1.55606 0
M  V30 6445 H 599.875 2.66461 -1.84849 0
M  V30 6446 H 599.66 1.88085 -3.44044 0
M  V30 6447 H 601.15 2.80748 -3.09145 0
M  V30 6448 N 601.587 1.56661 0.17182 0
M  V30 6449 C 602.55 1.9549 1.19651 0
M  V30 6450 C 603.55 0.838501 1.37207 0
M  V30 6451 O 604.74 1.10556 1.34622 0
M  V30 6452 C 601.872 2.24927 2.56166 0
M  V30 6453 H 603.065 2.87184 0.864007 0
M  V30 6454 H 600.618 1.50711 0.41425 0
M  V30 6455 H 601.353 1.35944 2.94431 0
M  V30 6456 H 601.138 3.06301 2.4479 0
M  V30 6457 H 602.628 2.55891 3.30014 0
M  V30 6458 N 603.065 -0.440357 1.51323 0
M  V30 6459 C 604.311 -1.18874 1.65047 0
M  V30 6460 C 604.666 -1.88988 0.360742 0
M  V30 6461 O 603.959 -1.80479 -0.643272 0
M  V30 6462 C 604.153 -2.2339 2.78984 0
M  V30 6463 C 603.982 -1.63534 4.18911 0
M  V30 6464 C 602.752 -1.42158 4.84891 0
M  V30 6465 C 604.95 -1.11324 5.02107 0
M  V30 6466 N 602.932 -0.778679 6.08942 0
M  V30 6467 C 604.303 -0.595421 6.17134 0
M  V30 6468 C 606.358 -1.00471 4.87658 0
M  V30 6469 C 605.061 0.0202557 7.19297 0
M  V30 6470 C 607.087 -0.402928 5.90026 0
M  V30 6471 C 606.449 0.10436 7.04323 0
M  V30 6472 H 602.548 -0.422771 0.657866 0
M  V30 6473 H 605.132 -0.485814 1.88542 0
M  V30 6474 H 603.303 -2.91074 2.57158 0
M  V30 6475 H 605.035 -2.90366 2.81904 0
M  V30 6476 H 601.79 -1.68247 4.42707 0
M  V30 6477 H 602.214 -0.474755 6.75333 0
M  V30 6478 H 606.856 -1.38278 3.99548 0
M  V30 6479 H 604.574 0.410468 8.07057 0
M  V30 6480 H 608.16 -0.320897 5.80914 0
M  V30 6481 H 607.04 0.562697 7.82179 0
M  V30 6482 N 604.543 -1.41418 -0.695603 0
M  V30 6483 C 605.506 -1.42988 -1.79129 0
M  V30 6484 C 606.506 -0.320514 -1.57573 0
M  V30 6485 O 607.696 -0.58039 -1.64247 0
M  V30 6486 C 604.828 -1.24122 -3.175 0
M  V30 6487 H 606.021 -2.40526 -1.7913 0
M  V30 6488 H 603.574 -1.2756 -0.903225 0
M  V30 6489 H 604.309 -0.274253 -3.23138 0
M  V30 6490 H 604.094 -2.045 -3.34547 0
M  V30 6491 H 605.584 -1.28056 -3.97481 0
M  V30 6492 N 606.021 0.929856 -1.27246 0
M  V30 6493 C 607.27 1.67182 -1.12842 0
M  V30 6494 C 607.583 1.9287 0.325666 0
M  V30 6495 O 608.789 2.64999 0.590572 0
M  V30 6496 C 607.245 3.01097 -1.97151 0
M  V30 6497 C 606.853 2.83115 -3.47203 0
M  V30 6498 C 608.597 3.78907 -1.91389 0
M  V30 6499 C 606.504 4.12573 -4.23719 0
M  V30 6500 H 605.434 0.627064 -0.418697 0
M  V30 6501 H 608.085 1.0332 -1.51649 0
M  V30 6502 H 606.467 3.66004 -1.51186 0
M  V30 6503 H 607.641 2.26989 -4.01015 0
M  V30 6504 H 605.956 2.18736 -3.54321 0
M  V30 6505 H 608.553 4.74837 -2.45834 0
M  V30 6506 H 608.896 4.0674 -0.887047 0
M  V30 6507 H 609.429 3.20794 -2.35237 0
M  V30 6508 H 606.168 3.8992 -5.26918 0
M  V30 6509 H 605.688 4.68371 -3.74685 0
M  V30 6510 H 607.367 4.8095 -4.32777 0
M  V30 6511 N 607.499 1.09233 1.13605 0
M  V30 6512 C 608.724 0.849067 1.89224 0
M  V30 6513 C 609.149 -0.593875 1.78479 0
M  V30 6514 O 608.507 -1.41703 1.13092 0
M  V30 6515 C 608.555 1.28642 3.36873 0
M  V30 6516 O 607.659 0.44363 4.10007 0
M  V30 6517 H 607 0.30767 0.588417 0
M  V30 6518 H 609.53 1.45595 1.43748 0
M  V30 6519 H 609.54 1.27096 3.87699 0
M  V30 6520 H 608.215 2.33729 3.44011 0
M  V30 6521 H 606.792 0.523241 3.69211 0
M  V30 6522 N 608.977 -1.30795 0.87923 0
M  V30 6523 C 609.925 -2.30231 0.331112 0
M  V30 6524 C 610.919 -1.59918 -0.558794 0
M  V30 6525 O 612.125 -1.74441 -0.443866 0
M  V30 6526 H 608.5 -0.746785 0.088409 0
M  V30 6527 H 610.471 -2.73925 1.18353 0
M  V30 6528 C 609.22 -3.44848 -0.444401 0
M  V30 6529 H 608.543 -3.99131 0.231106 0
M  V30 6530 H 609.983 -4.16516 -0.793109 0
M  V30 6531 C 608.442 -2.94329 -1.63926 0
M  V30 6532 O 608.972 -2.93875 -2.73862 0
M  V30 6533 N 607.178 -2.50413 -1.4745 0
M  V30 6534 H 606.725 -2.50982 -0.58015 0
M  V30 6535 H 606.683 -2.16969 -2.27534 0
M  V30 6536 N 610.455 -0.639598 -1.44038 0
M  V30 6537 C 611.418 0.0506628 -2.29144 0
M  V30 6538 C 612.418 0.764001 -1.41491 0
M  V30 6539 O 613.608 0.607309 -1.63271 0
M  V30 6540 C 610.74 1.0824 -3.2326 0
M  V30 6541 H 611.933 -0.697987 -2.91664 0
M  V30 6542 H 609.486 -0.400146 -1.51091 0
M  V30 6543 H 610.221 1.86075 -2.65606 0
M  V30 6544 H 610.006 0.574725 -3.87865 0
M  V30 6545 H 611.496 1.56487 -3.87171 0
M  V30 6546 N 611.933 1.52934 -0.380664 0
M  V30 6547 C 613.158 2.06363 0.207157 0
M  V30 6548 C 613.583 1.25122 1.4045 0
M  V30 6549 O 612.941 0.274062 1.79217 0
M  V30 6550 C 612.989 3.56162 0.563996 0
M  V30 6551 O 612.093 3.77552 1.65917 0
M  V30 6552 H 611.434 0.663468 0.0265859 0
M  V30 6553 H 613.964 1.9719 -0.545635 0
M  V30 6554 H 613.974 3.99453 0.830752 0
M  V30 6555 H 612.649 4.14732 -0.311427 0
M  V30 6556 H 611.226 3.46154 1.3868 0
M  V30 6557 N 613.412 0.11024 1.57214 0
M  V30 6558 C 614.637 -0.561179 1.99664 0
M  V30 6559 C 615.062 -1.59985 0.989266 0
M  V30 6560 O 614.42 -1.81255 -0.0402399 0
M  V30 6561 C 614.468 -1.17189 3.41027 0
M  V30 6562 O 613.572 -2.28755 3.4314 0
M  V30 6563 H 612.913 -0.14101 0.648855 0
M  V30 6564 H 615.443 0.196128 2.03658 0
M  V30 6565 H 615.453 -1.50954 3.79047 0
M  V30 6566 H 614.128 -0.411041 4.13864 0
M  V30 6567 H 612.705 -1.96495 3.16929 0
M  V30 6568 N 614.89 -1.56749 -0.16351 0
M  V30 6569 C 616.138 -1.82074 -0.87713 0
M  V30 6570 C 616.459 -0.688503 -1.82441 0
M  V30 6571 O 615.729 0.291085 -1.93725 0
M  V30 6572 H 614.309 -0.671677 -0.326893 0
M  V30 6573 H 616.971 -1.9423 -0.161459 0
M  V30 6574 H 616.067 -2.76407 -1.44934 0
M  V30 6575 N 616.368 0.432326 -1.51554 0
M  V30 6576 C 617.616 1.17901 -1.64146 0
M  V30 6577 C 617.937 1.91604 -0.362367 0
M  V30 6578 O 617.207 1.85764 0.621968 0
M  V30 6579 H 615.787 0.438206 -0.604966 0
M  V30 6580 H 618.449 0.495172 -1.88505 0
M  V30 6581 H 617.545 1.90584 -2.47152 0
M  V30 6582 N 617.846 1.41785 0.688094 0
M  V30 6583 C 619.071 1.45117 1.48175 0
M  V30 6584 C 619.496 0.060129 1.88004 0
M  V30 6585 O 618.854 -0.938385 1.55126 0
M  V30 6586 C 618.902 2.37224 2.71583 0
M  V30 6587 O 618.006 1.83443 3.69354 0
M  V30 6588 H 617.347 0.492208 0.445676 0
M  V30 6589 H 619.877 1.86329 0.845145 0
M  V30 6590 H 619.887 2.53353 3.19806 0
M  V30 6591 H 618.562 3.38293 2.41931 0
M  V30 6592 H 617.139 1.76802 3.28322 0
M  V30 6593 N 619.324 -0.923095 1.27737 0
M  V30 6594 C 620.234 -2.05765 1.12685 0
M  V30 6595 C 621.25 -1.73911 0.0557197 0
M  V30 6596 O 622.426 -1.99674 0.263137 0
M  V30 6597 C 619.491 -3.37804 0.780363 0
M  V30 6598 C 618.552 -3.83326 1.93286 0
M  V30 6599 C 617.785 -5.09064 1.60281 0
M  V30 6600 O 618.008 -5.6809 0.512828 0
M  V30 6601 O 616.942 -5.50071 2.44347 0
M  V30 6602 H 620.768 -2.21378 2.07907 0
M  V30 6603 H 618.353 -1.04299 1.06968 0
M  V30 6604 H 620.235 -4.17097 0.600668 0
M  V30 6605 H 618.91 -3.23387 -0.142291 0
M  V30 6606 H 617.817 -3.049 2.16764 0
M  V30 6607 H 619.15 -4.02292 2.83588 0
M  V30 6608 N 620.802 -1.09834 -1.13024 0
M  V30 6609 C 621.732 -0.763451 -2.20666 0
M  V30 6610 C 622.713 0.260778 -1.68089 0
M  V30 6611 O 623.898 0.127915 -1.93778 0
M  V30 6612 C 621.028 -0.187744 -3.46792 0
M  V30 6613 C 619.982 -1.14196 -4.12484 0
M  V30 6614 C 619.308 -0.427755 -5.32986 0
M  V30 6615 C 620.608 -2.48607 -4.59338 0
M  V30 6616 H 622.302 -1.66347 -2.48936 0
M  V30 6617 H 619.848 -0.801261 -1.19649 0
M  V30 6618 H 621.801 0.0586375 -4.21359 0
M  V30 6619 H 620.525 0.747485 -3.17931 0
M  V30 6620 H 619.184 -1.37369 -3.3989 0
M  V30 6621 H 618.832 0.511747 -5.0039 0
M  V30 6622 H 618.532 -1.06403 -5.77886 0
M  V30 6623 H 620.056 -0.189772 -6.10305 0
M  V30 6624 H 621.47 -2.29618 -5.25308 0
M  V30 6625 H 619.867 -3.08062 -5.14993 0
M  V30 6626 H 620.937 -3.09062 -3.73642 0
M  V30 6627 N 622.28 1.30327 -0.886154 0
M  V30 6628 C 623.212 2.27079 -0.311072 0
M  V30 6629 C 624.225 1.53758 0.53502 0
M  V30 6630 O 625.414 1.74947 0.354378 0
M  V30 6631 C 622.514 3.33965 0.576228 0
M  V30 6632 C 621.687 4.36735 -0.241064 0
M  V30 6633 C 620.746 5.23028 0.576916 0
M  V30 6634 O 619.772 5.692 -0.000802231 0
M  V30 6635 N 620.974 5.49016 1.88579 0
M  V30 6636 H 623.739 2.77065 -1.14259 0
M  V30 6637 H 621.3 1.43519 -0.749258 0
M  V30 6638 H 623.292 3.88618 1.12953 0
M  V30 6639 H 621.862 2.839 1.30842 0
M  V30 6640 H 621.082 3.81932 -0.975805 0
M  V30 6641 H 622.37 5.02451 -0.801272 0
M  V30 6642 H 621.768 5.13288 2.37806 0
M  V30 6643 H 620.325 6.06539 2.38651 0
M  V30 6644 N 623.758 0.647228 1.43697 0
M  V30 6645 C 625.007 0.155552 2.01099 0
M  V30 6646 C 625.32 -1.23569 1.51624 0
M  V30 6647 O 626.526 -1.82226 2.01261 0
M  V30 6648 C 624.982 0.227296 3.59182 0
M  V30 6649 C 624.59 1.62086 4.17651 0
M  V30 6650 C 626.334 -0.207085 4.23995 0
M  V30 6651 C 624.241 1.64685 5.68008 0
M  V30 6652 H 623.171 0.0543895 0.752036 0
M  V30 6653 H 625.822 0.808386 1.64734 0
M  V30 6654 H 624.204 -0.492937 3.9292 0
M  V30 6655 H 625.378 2.36597 3.95422 0
M  V30 6656 H 623.693 2.0007 3.65186 0
M  V30 6657 H 626.29 -0.207426 5.34298 0
M  V30 6658 H 626.633 -1.23742 3.97484 0
M  V30 6659 H 627.166 0.461193 3.95118 0
M  V30 6660 H 623.905 2.65608 5.99277 0
M  V30 6661 H 623.425 0.944914 5.9231 0
M  V30 6662 H 625.104 1.38792 6.31938 0
M  V30 6663 N 625.236 -1.5273 0.388769 0
M  V30 6664 C 626.146 -2.30165 -0.453993 0
M  V30 6665 C 627.162 -1.37058 -1.07197 0
M  V30 6666 O 628.338 -1.70127 -1.0779 0
M  V30 6667 C 625.403 -3.09303 -1.56628 0
M  V30 6668 C 624.464 -4.18117 -0.973467 0
M  V30 6669 C 623.697 -4.93472 -2.03275 0
M  V30 6670 O 623.92 -4.68913 -3.24772 0
M  V30 6671 O 622.854 -5.78833 -1.65034 0
M  V30 6672 H 626.68 -3.03185 0.176816 0
M  V30 6673 H 624.265 -1.4862 0.152501 0
M  V30 6674 H 626.147 -3.58648 -2.21246 0
M  V30 6675 H 624.822 -2.39098 -2.18206 0
M  V30 6676 H 623.729 -3.7297 -0.290556 0
M  V30 6677 H 625.062 -4.90556 -0.401908 0
M  V30 6678 N 626.714 -0.118576 -1.57153 0
M  V30 6679 C 627.944 0.546466 -1.99242 0
M  V30 6680 C 628.352 1.60791 -0.997148 0
M  V30 6681 O 627.695 1.83691 0.0181745 0
M  V30 6682 C 627.757 1.23167 -3.37743 0
M  V30 6683 C 627.421 0.318226 -4.55891 0
M  V30 6684 C 628.418 -0.442988 -5.18009 0
M  V30 6685 C 626.103 0.229421 -5.01776 0
M  V30 6686 C 628.097 -1.28074 -6.244 0
M  V30 6687 C 625.784 -0.611966 -6.08028 0
M  V30 6688 C 626.782 -1.36568 -6.69207 0
M  V30 6689 O 626.47 -2.1931 -7.73407 0
M  V30 6690 H 626.202 0.149297 -0.659307 0
M  V30 6691 H 628.756 -0.201603 -2.04408 0
M  V30 6692 H 626.986 2.0268 -3.29329 0
M  V30 6693 H 628.675 1.79358 -3.64123 0
M  V30 6694 H 629.441 -0.38425 -4.83475 0
M  V30 6695 H 625.32 0.805771 -4.53903 0
M  V30 6696 H 628.864 -1.86952 -6.72082 0
M  V30 6697 H 624.761 -0.6721 -6.41991 0
M  V30 6698 H 625.529 -2.12247 -7.90502 0
M  V30 6699 N 628.193 1.56834 0.155195 0
M  V30 6700 C 629.123 2.00678 1.19376 0
M  V30 6701 C 630.104 0.884973 1.45266 0
M  V30 6702 O 631.289 1.1522 1.56326 0
M  V30 6703 C 628.419 2.38042 2.5289 0
M  V30 6704 C 627.373 3.53332 2.41538 0
M  V30 6705 C 626.699 3.76485 3.79688 0
M  V30 6706 C 627.999 4.86265 1.9064 0
M  V30 6707 H 629.693 2.87688 0.829232 0
M  V30 6708 H 627.239 1.38407 0.397445 0
M  V30 6709 H 629.192 2.67314 3.25763 0
M  V30 6710 H 627.916 1.4796 2.91162 0
M  V30 6711 H 626.575 3.24213 1.71117 0
M  V30 6712 H 626.223 2.83667 4.15382 0
M  V30 6713 H 625.923 4.54068 3.72956 0
M  V30 6714 H 627.447 4.08174 4.54122 0
M  V30 6715 H 628.861 5.14308 2.53299 0
M  V30 6716 H 627.258 5.67597 1.94818 0
M  V30 6717 H 628.328 4.77184 0.861596 0
M  V30 6718 N 629.671 -0.424282 1.51781 0
M  V30 6719 C 630.917 -1.17434 1.6534 0
M  V30 6720 C 631.25 -1.90549 0.374806 0
M  V30 6721 O 630.525 -1.84145 -0.626179 0
M  V30 6722 C 630.808 -2.18093 2.86544 0
M  V30 6723 C 630.661 -1.48975 4.24413 0
M  V30 6724 C 631.98 -3.18934 3.03264 0
M  V30 6725 H 629.099 -0.425566 0.601716 0
M  V30 6726 H 631.741 -0.461921 1.84299 0
M  V30 6727 H 629.891 -2.78849 2.7051 0
M  V30 6728 H 631.563 -0.914551 4.52143 0
M  V30 6729 H 629.806 -0.791893 4.26511 0
M  V30 6730 H 630.477 -2.22347 5.05238 0
M  V30 6731 H 632.953 -2.68243 3.18096 0
M  V30 6732 H 631.829 -3.86645 3.89611 0
M  V30 6733 H 632.09 -3.85793 2.15908 0
M  V30 6734 N 631.149 -1.42148 -0.680565 0
M  V30 6735 C 632.059 -1.47565 -1.82378 0
M  V30 6736 C 633.075 -0.36489 -1.70131 0
M  V30 6737 O 634.251 -0.614916 -1.91783 0
M  V30 6738 C 631.316 -1.37013 -3.18478 0
M  V30 6739 C 630.377 -2.58532 -3.42724 0
M  V30 6740 C 629.61 -2.48473 -4.72331 0
M  V30 6741 O 629.833 -1.51745 -5.49845 0
M  V30 6742 O 628.767 -3.38503 -4.97694 0
M  V30 6743 H 632.593 -2.44045 -1.80764 0
M  V30 6744 H 630.178 -1.23849 -0.835569 0
M  V30 6745 H 632.06 -1.33468 -3.99705 0
M  V30 6746 H 630.735 -0.436552 -3.20743 0
M  V30 6747 H 629.642 -2.67652 -2.61368 0
M  V30 6748 H 630.975 -3.50769 -3.45286 0
M  V30 6749 N 632.627 0.916307 -1.28225 0
M  V30 6750 C 633.867 1.67964 -1.16479 0
M  V30 6751 C 634.231 1.8991 0.282494 0
M  V30 6752 O 635.432 2.63671 0.522607 0
M  V30 6753 C 633.703 3.00251 -1.93866 0
M  V30 6754 S 635.262 3.91353 -1.98465 0
M  V30 6755 H 632.08 0.576873 -0.415619 0
M  V30 6756 H 634.682 1.09006 -1.62289 0
M  V30 6757 H 633.386 2.81978 -2.98189 0
M  V30 6758 H 632.917 3.64257 -1.48595 0
M  V30 6759 H 634.932 4.84096 -1.0893 0
M  V30 6760 N 634.105 1.10431 1.1244 0
M  V30 6761 C 635.353 0.845045 1.83585 0
M  V30 6762 C 635.674 -0.631168 1.84503 0
M  V30 6763 O 634.944 -1.45825 1.30813 0
M  V30 6764 H 633.524 0.309628 0.679809 0
M  V30 6765 H 636.186 1.39458 1.36153 0
M  V30 6766 H 635.282 1.20786 2.8778 0
M  V30 6767 N 635.583 -1.29855 0.893053 0
M  V30 6768 C 636.546 -2.26183 0.370687 0
M  V30 6769 C 637.546 -1.53108 -0.491385 0
M  V30 6770 O 638.736 -1.71643 -0.297386 0
M  V30 6771 C 635.868 -3.37633 -0.470827 0
M  V30 6772 H 637.061 -2.73903 1.22135 0
M  V30 6773 H 634.614 -1.41183 0.67061 0
M  V30 6774 H 635.349 -2.95241 -1.34175 0
M  V30 6775 H 635.134 -3.91825 0.146784 0
M  V30 6776 H 636.624 -4.09313 -0.827825 0
M  V30 6777 N 637.061 -0.65484 -1.43351 0
M  V30 6778 C 638.31 -0.166215 -2.01014 0
M  V30 6779 C 638.623 1.22764 -1.52278 0
M  V30 6780 O 639.829 1.81156 -2.02224 0
M  V30 6781 C 638.285 -0.246341 -3.59056 0
M  V30 6782 C 637.893 -1.64299 -4.16785 0
M  V30 6783 C 639.637 0.184597 -4.24098 0
M  V30 6784 C 637.544 -1.67695 -5.67126 0
M  V30 6785 H 636.474 -0.0583769 -0.751737 0
M  V30 6786 H 639.125 -0.817111 -1.64303 0
M  V30 6787 H 637.507 0.472092 -3.93176 0
M  V30 6788 H 638.681 -2.3869 -3.94162 0
M  V30 6789 H 636.996 -2.02004 -3.6412 0
M  V30 6790 H 639.593 0.179088 -5.344 0
M  V30 6791 H 639.936 1.21632 -3.98135 0
M  V30 6792 H 640.469 -0.482141 -3.94867 0
M  V30 6793 H 637.208 -2.68783 -5.9786 0
M  V30 6794 H 636.728 -0.976313 -5.91801 0
M  V30 6795 H 638.407 -1.42142 -6.31193 0
M  V30 6796 N 638.539 1.52521 -0.396863 0
M  V30 6797 C 639.489 2.2348 0.451722 0
M  V30 6798 C 640.473 1.2415 1.0235 0
M  V30 6799 O 641.665 1.4945 0.948348 0
M  V30 6800 C 638.794 3.05067 1.57445 0
M  V30 6801 C 637.88 4.11799 1.01404 0
M  V30 6802 N 638.271 5.05482 0.179234 0
M  V30 6803 C 636.569 4.27064 1.28578 0
M  V30 6804 C 637.27 5.81552 -0.131202 0
M  V30 6805 N 636.246 5.41523 0.474735 0
M  V30 6806 H 640.048 2.93269 -0.192534 0
M  V30 6807 H 637.562 1.61081 -0.206591 0
M  V30 6808 H 639.559 3.54446 2.19485 0
M  V30 6809 H 638.219 2.36816 2.22145 0
M  V30 6810 H 639.23 5.17573 -0.18411 0
M  V30 6811 H 635.907 3.70042 1.93327 0
M  V30 6812 H 637.297 6.67023 -0.808061 0
M  V30 6813 N 640.017 0.126909 1.57088 0
M  V30 6814 C 641.242 -0.53997 2.00248 0
M  V30 6815 C 641.667 -1.58927 1.00618 0
M  V30 6816 O 641.025 -1.81288 -0.0210131 0
M  V30 6817 C 641.073 -1.13565 3.4225 0
M  V30 6818 O 640.177 -2.25103 3.45547 0
M  V30 6819 H 639.518 -0.13412 0.650314 0
M  V30 6820 H 642.048 0.217718 2.03438 0
M  V30 6821 H 642.058 -1.46925 3.80627 0
M  V30 6822 H 640.733 -0.367122 4.14277 0
M  V30 6823 H 639.31 -1.93123 3.18995 0
M  V30 6824 N 641.495 -1.56914 -0.146875 0
M  V30 6825 C 642.425 -2.01308 -1.1831 0
M  V30 6826 C 643.406 -0.892664 -1.44795 0
M  V30 6827 O 644.591 -1.16048 -1.55713 0
M  V30 6828 C 641.721 -2.3938 -2.51624 0
M  V30 6829 C 640.675 -3.54608 -2.3966 0
M  V30 6830 C 640.001 -3.78493 -3.77686 0
M  V30 6831 C 641.301 -4.87269 -1.88058 0
M  V30 6832 H 642.995 -2.88123 -0.813964 0
M  V30 6833 H 640.541 -1.38615 -0.3901 0
M  V30 6834 H 642.494 -2.69037 -3.24341 0
M  V30 6835 H 641.218 -1.49502 -2.90373 0
M  V30 6836 H 639.877 -3.25116 -1.69396 0
M  V30 6837 H 639.525 -2.85866 -4.13871 0
M  V30 6838 H 639.225 -4.56039 -3.70543 0
M  V30 6839 H 640.749 -4.10576 -4.51951 0
M  V30 6840 H 642.163 -5.15644 -2.50568 0
M  V30 6841 H 640.56 -5.68622 -1.91805 0
M  V30 6842 H 641.63 -4.77634 -0.836277 0
M  V30 6843 N 642.974 0.416227 -1.52004 0
M  V30 6844 C 644.199 1.19029 -1.69843 0
M  V30 6845 C 644.624 1.83708 -0.404103 0
M  V30 6846 O 643.982 1.69711 0.637787 0
M  V30 6847 C 644.03 2.23439 -2.83032 0
M  V30 6848 O 643.134 3.29419 -2.48106 0
M  V30 6849 H 642.475 0.347785 -0.565634 0
M  V30 6850 H 645.005 0.488871 -1.98674 0
M  V30 6851 H 645.015 2.67884 -3.07737 0
M  V30 6852 H 643.69 1.75745 -3.76944 0
M  V30 6853 H 642.267 2.90303 -2.34048 0
M  V30 6854 N 644.452 1.42507 0.673017 0
M  V30 6855 C 645.4 1.46362 1.80779 0
M  V30 6856 C 646.394 0.339166 1.6597 0
M  V30 6857 O 647.6 0.512262 1.72557 0
M  V30 6858 H 643.975 0.458433 0.596107 0
M  V30 6859 H 645.946 2.41953 1.74646 0
M  V30 6860 C 644.695 1.38462 3.18941 0
M  V30 6861 H 644.018 2.24283 3.30964 0
M  V30 6862 H 645.458 1.45221 3.98355 0
M  V30 6863 C 643.917 0.0996354 3.36753 0
M  V30 6864 O 644.447 -0.846894 3.92671 0
M  V30 6865 N 642.653 0.016211 2.90595 0
M  V30 6866 H 642.2 0.78725 2.45276 0
M  V30 6867 H 642.158 -0.84291 3.0289 0
M  V30 6868 N 645.93 -0.909495 1.28709 0
M  V30 6869 C 646.86 -2.0291 1.15542 0
M  V30 6870 C 647.841 -1.7002 0.0521017 0
M  V30 6871 O 649.026 -1.92835 0.229849 0
M  V30 6872 C 646.156 -3.37458 0.820935 0
M  V30 6873 C 645.11 -3.84524 1.87949 0
M  V30 6874 C 644.436 -5.16086 1.39854 0
M  V30 6875 C 645.736 -4.05918 3.28676 0
M  V30 6876 H 647.43 -2.14183 2.09203 0
M  V30 6877 H 644.976 -1.02913 1.00722 0
M  V30 6878 H 646.929 -4.1528 0.715571 0
M  V30 6879 H 645.653 -3.26249 -0.151374 0
M  V30 6880 H 644.312 -3.08911 1.97408 0
M  V30 6881 H 643.96 -5.01284 0.41518 0
M  V30 6882 H 643.66 -5.48547 2.1064 0
M  V30 6883 H 645.184 -5.96459 1.30649 0
M  V30 6884 H 646.598 -4.74252 3.22115 0
M  V30 6885 H 644.995 -4.49717 3.97334 0
M  V30 6886 H 646.065 -3.10583 3.72379 0
M  V30 6887 N 647.408 -1.11026 -1.11852 0
M  V30 6888 C 648.338 -0.786812 -2.19844 0
M  V30 6889 C 649.319 0.242935 -1.68356 0
M  V30 6890 O 650.504 0.107355 -1.93903 0
M  V30 6891 C 647.634 -0.224516 -3.46574 0
M  V30 6892 C 646.588 -1.18564 -4.1125 0
M  V30 6893 C 645.914 -0.484261 -5.32503 0
M  V30 6894 C 647.214 -2.53465 -4.56676 0
M  V30 6895 H 648.908 -1.68978 -2.47158 0
M  V30 6896 H 646.454 -0.813906 -1.18792 0
M  V30 6897 H 648.407 0.0139435 -4.21398 0
M  V30 6898 H 647.131 0.713722 -3.18706 0
M  V30 6899 H 645.79 -1.40966 -3.38414 0
M  V30 6900 H 645.438 0.458646 -5.00905 0
M  V30 6901 H 645.138 -1.12526 -5.76725 0
M  V30 6902 H 646.662 -0.254492 -6.10069 0
M  V30 6903 H 648.076 -2.35177 -5.22843 0
M  V30 6904 H 646.473 -3.13507 -5.11697 0
M  V30 6905 H 647.543 -3.13008 -3.70343 0
M  V30 6906 N 648.886 1.2938 -0.899927 0
M  V30 6907 C 650.163 1.9046 -0.445443 0
M  V30 6908 C 650.543 1.81683 1.07492 0
M  V30 6909 O 649.891 1.24371 1.91688 0
M  V30 6910 C 650.101 3.35529 -0.960279 0
M  V30 6911 C 651.449 4.12556 -1.00412 0
M  V30 6912 O 652.473 3.44434 -0.907965 0
M  V30 6913 O 651.332 5.34294 -1.14857 0
M  V30 6914 H 648.426 0.815253 -0.138893 0
M  V30 6915 H 650.972 1.37844 -0.989808 0
M  V30 6916 H 649.744 3.36074 -2.00425 0
M  V30 6917 H 649.367 3.95624 -0.395939 0
M  V30 6918 N 650.364 0.662433 1.43002 0
M  V30 6919 C 651.61 0.179857 2.02001 0
M  V30 6920 C 651.943 -1.20625 1.52195 0
M  V30 6921 O 651.218 -1.80726 0.718911 0
M  V30 6922 C 651.501 0.200845 3.59539 0
M  V30 6923 C 651.354 1.62153 4.19555 0
M  V30 6924 C 652.673 -0.457738 4.37713 0
M  V30 6925 H 649.792 0.0668305 0.733964 0
M  V30 6926 H 652.434 0.84487 1.70182 0
M  V30 6927 H 650.584 -0.365411 3.86778 0
M  V30 6928 H 652.256 2.23908 4.03315 0
M  V30 6929 H 650.499 2.16601 3.75854 0
M  V30 6930 H 651.17 1.58799 5.28665 0
M  V30 6931 H 653.646 0.0241495 4.16093 0
M  V30 6932 H 652.522 -0.412363 5.47349 0
M  V30 6933 H 652.783 -1.53336 4.14657 0
M  V30 6934 N 651.842 -1.52309 0.404946 0
M  V30 6935 C 652.752 -2.30634 -0.429555 0
M  V30 6936 C 653.768 -1.38187 -1.05737 0
M  V30 6937 O 654.944 -1.71261 -1.05979 0
M  V30 6938 C 652.009 -3.10947 -1.53339 0
M  V30 6939 C 651.07 -4.19126 -0.929065 0
M  V30 6940 C 650.303 -4.95601 -1.9803 0
M  V30 6941 O 650.526 -4.72331 -3.1978 0
M  V30 6942 O 649.46 -5.80551 -1.58886 0
M  V30 6943 H 653.286 -3.0298 0.208963 0
M  V30 6944 H 650.871 -1.4845 0.168255 0
M  V30 6945 H 652.753 -3.60974 -2.1743 0
M  V30 6946 H 651.428 -2.41399 -2.15658 0
M  V30 6947 H 650.335 -3.73257 -0.250982 0
M  V30 6948 H 651.668 -4.90955 -0.349855 0
M  V30 6949 N 653.32 -0.135238 -1.57019 0
M  V30 6950 C 654.597 0.563227 -1.87316 0
M  V30 6951 C 654.977 1.83749 -1.03921 0
M  V30 6952 O 654.325 2.2817 -0.122675 0
M  V30 6953 C 654.535 0.840031 -3.3874 0
M  V30 6954 C 655.883 1.18598 -4.077 0
M  V30 6955 O 656.907 0.92977 -3.43851 0
M  V30 6956 O 655.766 1.66758 -5.20436 0
M  V30 6957 H 652.86 0.285971 -0.775983 0
M  V30 6958 H 655.406 -0.170965 -1.68837 0
M  V30 6959 H 654.178 -0.0622785 -3.9125 0
M  V30 6960 H 653.801 1.62882 -3.62706 0
M  V30 6961 N 654.798 1.5699 0.138552 0
M  V30 6962 C 655.761 1.97984 1.15478 0
M  V30 6963 C 656.761 0.867416 1.35398 0
M  V30 6964 O 657.951 1.13387 1.32246 0
M  V30 6965 C 655.083 2.3031 2.51337 0
M  V30 6966 H 656.276 2.88953 0.802896 0
M  V30 6967 H 653.829 1.51555 0.382189 0
M  V30 6968 H 654.564 1.42159 2.91481 0
M  V30 6969 H 654.349 3.11425 2.38237 0
M  V30 6970 H 655.839 2.62834 3.24512 0
M  V30 6971 N 656.276 -0.40816 1.52223 0
M  V30 6972 C 657.224 -1.51788 1.76248 0
M  V30 6973 C 658.218 -1.57264 0.629638 0
M  V30 6974 O 659.424 -1.60659 0.811704 0
M  V30 6975 H 655.799 -0.504823 0.557367 0
M  V30 6976 H 657.77 -1.2871 2.69214 0
M  V30 6977 C 656.519 -2.89145 1.93107 0
M  V30 6978 H 655.842 -2.85674 2.79697 0
M  V30 6979 H 657.282 -3.66082 2.13916 0
M  V30 6980 C 655.741 -3.29581 0.698431 0
M  V30 6981 O 656.271 -4.01479 -0.133238 0
M  V30 6982 N 654.477 -2.85651 0.53405 0
M  V30 6983 H 654.024 -2.2731 1.21194 0
M  V30 6984 H 653.982 -3.13065 -0.289387 0
M  V30 6985 N 657.755 -1.42862 -0.66545 0
M  V30 6986 C 659.004 -1.43119 -1.42126 0
M  V30 6987 C 659.317 -0.0545297 -1.95524 0
M  V30 6988 O 660.523 0.0654747 -2.71421 0
M  V30 6989 C 658.979 -2.51797 -2.5715 0
M  V30 6990 C 658.587 -3.95514 -2.10411 0
M  V30 6991 C 660.331 -2.61233 -3.346 0
M  V30 6992 C 658.238 -4.95682 -3.22573 0
M  V30 6993 H 657.168 -0.532349 -0.533966 0
M  V30 6994 H 659.819 -1.68806 -0.719506 0
M  V30 6995 H 658.201 -2.19292 -3.29738 0
M  V30 6996 H 659.375 -4.3742 -1.44915 0
M  V30 6997 H 657.69 -3.90012 -1.45874 0
M  V30 6998 H 660.287 -3.33248 -4.18151 0
M  V30 6999 H 660.63 -1.65896 -3.81817 0
M  V30 7000 H 661.163 -2.9298 -2.69087 0
M  V30 7001 H 657.902 -5.92529 -2.80338 0
M  V30 7002 H 657.422 -4.58399 -3.86821 0
M  V30 7003 H 659.101 -5.17828 -3.87896 0
M  V30 7004 N 659.233 0.902656 -1.29189 0
M  V30 7005 C 660.482 1.6475 -1.16362 0
M  V30 7006 C 660.795 1.93517 0.284682 0
M  V30 7007 O 662.001 2.66192 0.534229 0
M  V30 7008 C 660.457 2.96848 -2.03493 0
M  V30 7009 C 660.065 2.75687 -3.5313 0
M  V30 7010 C 661.809 3.74762 -1.99383 0
M  V30 7011 C 659.716 4.03492 -4.32375 0
M  V30 7012 H 658.646 0.618041 -0.431904 0
M  V30 7013 H 661.297 1.0008 -1.53806 0
M  V30 7014 H 659.679 3.62715 -1.58916 0
M  V30 7015 H 660.853 2.18431 -4.05739 0
M  V30 7016 H 659.168 2.11171 -3.58881 0
M  V30 7017 H 661.765 4.69515 -2.5585 0
M  V30 7018 H 662.108 4.04767 -0.973123 0
M  V30 7019 H 662.641 3.15732 -2.41988 0
M  V30 7020 H 659.38 3.78656 -5.3507 0
M  V30 7021 H 658.9 4.60318 -3.84535 0
M  V30 7022 H 660.579 4.71662 -4.42881 0
M  V30 7023 N 660.711 1.11618 1.11262 0
M  V30 7024 C 661.936 0.889013 1.8738 0
M  V30 7025 C 662.361 -0.555884 1.79698 0
M  V30 7026 O 661.719 -1.39272 1.16073 0
M  V30 7027 C 661.767 1.35759 3.34069 0
M  V30 7028 O 660.871 0.530499 4.08974 0
M  V30 7029 H 660.212 0.320082 0.581759 0
M  V30 7030 H 662.742 1.48611 1.40627 0
M  V30 7031 H 662.752 1.35291 3.84916 0
M  V30 7032 H 661.427 2.40973 3.38976 0
M  V30 7033 H 660.004 0.601439 3.68018 0
M  V30 7034 N 662.189 -1.289 0.906776 0
M  V30 7035 C 663.435 -1.95558 0.53712 0
M  V30 7036 C 663.768 -1.71262 -0.915582 0
M  V30 7037 O 663.043 -1.02961 -1.65013 0
M  V30 7038 C 663.326 -3.50198 0.838645 0
M  V30 7039 C 663.179 -3.83923 2.34357 0
M  V30 7040 C 664.498 -4.38861 0.329988 0
M  V30 7041 H 661.617 -0.710289 0.196617 0
M  V30 7042 H 664.259 -1.52392 1.13475 0
M  V30 7043 H 662.409 -3.87096 0.330024 0
M  V30 7044 H 664.081 -3.56933 2.92227 0
M  V30 7045 H 662.324 -3.31215 2.80141 0
M  V30 7046 H 662.995 -4.91883 2.5051 0
M  V30 7047 H 665.471 -4.08996 0.765609 0
M  V30 7048 H 664.347 -5.45931 0.570105 0
M  V30 7049 H 664.608 -4.35352 -0.769511 0
M  V30 7050 N 663.667 -0.670007 -1.42649 0
M  V30 7051 C 664.895 -0.19854 -2.05945 0
M  V30 7052 C 665.31 1.14243 -1.50313 0
M  V30 7053 O 664.667 1.70872 -0.641027 0
M  V30 7054 C 664.718 -0.11966 -3.61302 0
M  V30 7055 O 664.439 -1.40764 -4.1487 0
M  V30 7056 C 665.94 0.375878 -4.41704 0
M  V30 7057 H 663.16 -0.0976894 -0.663851 0
M  V30 7058 H 665.704 -0.915392 -1.82868 0
M  V30 7059 H 663.859 0.547851 -3.83507 0
M  V30 7060 H 664.273 -1.27784 -5.08696 0
M  V30 7061 H 665.747 0.379988 -5.50691 0
M  V30 7062 H 666.224 1.41028 -4.15942 0
M  V30 7063 H 666.83 -0.259727 -4.24506 0
M  V30 7064 N 665.145 1.52092 -0.413018 0
M  V30 7065 C 666.075 2.30021 0.401567 0
M  V30 7066 C 667.056 1.34395 1.04269 0
M  V30 7067 O 668.241 1.63304 1.05097 0
M  V30 7068 C 665.371 3.12447 1.51638 0
M  V30 7069 C 664.325 4.16153 1.00005 0
M  V30 7070 C 663.651 4.86948 2.20875 0
M  V30 7071 C 664.951 5.22275 0.0513757 0
M  V30 7072 H 666.645 2.98365 -0.248704 0
M  V30 7073 H 664.191 1.4349 -0.121052 0
M  V30 7074 H 666.144 3.65733 2.09326 0
M  V30 7075 H 664.868 2.41879 2.19458 0
M  V30 7076 H 663.527 3.63882 0.445549 0
M  V30 7077 H 663.175 4.12905 2.8726 0
M  V30 7078 H 662.875 5.57057 1.86978 0
M  V30 7079 H 664.399 5.43048 2.79162 0
M  V30 7080 H 665.813 5.70778 0.537176 0
M  V30 7081 H 664.21 5.9977 -0.198977 0
M  V30 7082 H 665.28 4.76611 -0.892736 0
M  V30 7083 N 666.623 0.143563 1.56945 0
M  V30 7084 C 667.533 -0.810562 2.20152 0
M  V30 7085 C 668.549 -1.27431 1.1848 0
M  V30 7086 O 669.725 -1.33221 1.51044 0
M  V30 7087 C 666.79 -2.03353 2.80799 0
M  V30 7088 C 665.851 -1.61936 3.97587 0
M  V30 7089 C 665.084 -2.78403 4.55332 0
M  V30 7090 O 665.307 -3.94521 4.11958 0
M  V30 7091 O 664.241 -2.54073 5.45647 0
M  V30 7092 H 668.067 -0.30253 3.02189 0
M  V30 7093 H 665.652 -0.0832925 1.49168 0
M  V30 7094 H 667.534 -2.74932 3.19359 0
M  V30 7095 H 666.209 -2.53116 2.01777 0
M  V30 7096 H 665.116 -0.873904 3.6375 0
M  V30 7097 H 666.449 -1.16892 4.78118 0
M  V30 7098 N 668.101 -1.57061 -0.130224 0
M  V30 7099 C 669.349 -1.83893 -0.838313 0
M  V30 7100 C 669.67 -0.727046 -1.80939 0
M  V30 7101 O 668.94 0.249927 -1.94299 0
M  V30 7102 H 667.52 -0.67846 -0.312573 0
M  V30 7103 H 670.182 -1.94529 -0.120224 0
M  V30 7104 H 669.278 -2.79419 -1.39038 0
M  V30 7105 N 669.579 0.400081 -1.52437 0
M  V30 7106 C 670.509 1.4947 -1.7939 0
M  V30 7107 C 671.49 1.57383 -0.645329 0
M  V30 7108 O 672.675 1.72511 -0.891826 0
M  V30 7109 C 669.805 2.87201 -1.95276 0
M  V30 7110 C 668.759 2.94134 -3.10917 0
M  V30 7111 C 668.085 4.34207 -3.1204 0
M  V30 7112 C 669.385 2.64791 -4.50203 0
M  V30 7113 H 671.079 1.27165 -2.71052 0
M  V30 7114 H 668.625 0.610312 -1.30427 0
M  V30 7115 H 670.578 3.63772 -2.12715 0
M  V30 7116 H 669.302 3.10819 -1.00294 0
M  V30 7117 H 667.961 2.20009 -2.93243 0
M  V30 7118 H 667.609 4.54848 -2.14761 0
M  V30 7119 H 667.309 4.39768 -3.89715 0
M  V30 7120 H 668.833 5.127 -3.31619 0
M  V30 7121 H 670.247 3.31083 -4.68035 0
M  V30 7122 H 668.644 2.81717 -5.29864 0
M  V30 7123 H 669.714 1.60184 -4.57678 0
M  V30 7124 N 671.057 1.43213 0.657864 0
M  V30 7125 C 671.967 1.50448 1.80007 0
M  V30 7126 C 672.983 0.39191 1.69529 0
M  V30 7127 O 674.159 0.645349 1.90781 0
M  V30 7128 C 671.224 1.42062 3.16258 0
M  V30 7129 C 670.285 2.63951 3.38568 0
M  V30 7130 C 669.518 2.55956 4.68318 0
M  V30 7131 O 669.741 1.60473 5.47361 0
M  V30 7132 O 668.675 3.46378 4.92245 0
M  V30 7133 H 672.501 2.4689 1.76858 0
M  V30 7134 H 670.086 1.25163 0.81576 0
M  V30 7135 H 671.968 1.3981 3.97531 0
M  V30 7136 H 670.643 0.487524 3.20008 0
M  V30 7137 H 669.55 2.71776 2.57077 0
M  V30 7138 H 670.883 3.56217 3.39662 0
M  V30 7139 N 672.536 -0.895792 1.29666 0
M  V30 7140 C 673.484 -2.02173 1.15017 0
M  V30 7141 C 674.478 -1.69276 0.0647651 0
M  V30 7142 O 675.684 -1.7859 0.224846 0
M  V30 7143 H 672.059 -0.662719 0.355397 0
M  V30 7144 H 674.03 -2.11666 2.10334 0
M  V30 7145 C 672.779 -3.37212 0.847555 0
M  V30 7146 H 672.102 -3.6303 1.67479 0
M  V30 7147 H 673.542 -4.16668 0.785106 0
M  V30 7148 C 672.001 -3.33891 -0.44929 0
M  V30 7149 O 672.531 -3.73673 -1.47415 0
M  V30 7150 N 670.737 -2.86991 -0.456547 0
M  V30 7151 H 670.284 -2.54813 0.377925 0
M  V30 7152 H 670.242 -2.85152 -1.32423 0
M  V30 7153 N 674.014 -1.12206 -1.10668 0
M  V30 7154 C 675.263 -0.870595 -1.81944 0
M  V30 7155 C 675.576 0.605447 -1.85994 0
M  V30 7156 O 676.782 0.973433 -2.53449 0
M  V30 7157 C 675.238 -1.50783 -3.26791 0
M  V30 7158 C 674.846 -3.01849 -3.31046 0
M  V30 7159 C 676.59 -1.33653 -4.02911 0
M  V30 7160 C 674.497 -3.58518 -4.70339 0
M  V30 7161 H 673.427 -0.322043 -0.681765 0
M  V30 7162 H 676.078 -1.34827 -1.24475 0
M  V30 7163 H 674.46 -0.957825 -3.84242 0
M  V30 7164 H 675.634 -3.63321 -2.83433 0
M  V30 7165 H 673.949 -3.18346 -2.68411 0
M  V30 7166 H 676.546 -1.73416 -5.05797 0
M  V30 7167 H 676.889 -0.279949 -4.15358 0
M  V30 7168 H 677.422 -1.85562 -3.51868 0
M  V30 7169 H 674.161 -4.63925 -4.63091 0
M  V30 7170 H 673.681 -3.01819 -5.18329 0
M  V30 7171 H 675.36 -3.57434 -5.39305 0
M  V30 7172 N 675.492 1.28418 -0.913599 0
M  V30 7173 C 676.422 2.29713 -0.418847 0
M  V30 7174 C 677.403 1.62165 0.513469 0
M  V30 7175 O 678.588 1.89576 0.421235 0
M  V30 7176 C 675.718 3.45612 0.342042 0
M  V30 7177 C 674.672 4.25056 -0.501123 0
M  V30 7178 C 673.998 5.3329 0.388097 0
M  V30 7179 C 675.298 4.91814 -1.75831 0
M  V30 7180 H 676.992 2.71346 -1.26538 0
M  V30 7181 H 674.538 1.30446 -0.609903 0
M  V30 7182 H 676.491 4.15562 0.699 0
M  V30 7183 H 675.215 3.02858 1.22248 0
M  V30 7184 H 673.874 3.56833 -0.840598 0
M  V30 7185 H 673.522 4.8678 1.26707 0
M  V30 7186 H 673.222 5.87347 -0.172459 0
M  V30 7187 H 674.746 6.06088 0.74094 0
M  V30 7188 H 676.16 5.54126 -1.47026 0
M  V30 7189 H 674.557 5.55866 -2.26126 0
M  V30 7190 H 675.627 4.16313 -2.4862 0
M  V30 7191 N 676.97 0.677563 1.42291 0
M  V30 7192 C 677.88 0.000962654 2.346 0
M  V30 7193 C 678.896 -0.785833 1.55244 0
M  V30 7194 O 680.072 -0.727523 1.87801 0
M  V30 7195 C 677.137 -0.936746 3.33805 0
M  V30 7196 C 676.198 -0.144173 4.29058 0
M  V30 7197 C 675.431 -1.03722 5.23524 0
M  V30 7198 O 675.654 -2.27675 5.22992 0
M  V30 7199 O 674.588 -0.496542 5.99848 0
M  V30 7200 H 678.414 0.761397 2.94001 0
M  V30 7201 H 675.999 0.43781 1.42841 0
M  V30 7202 H 677.881 -1.47497 3.94744 0
M  V30 7203 H 676.556 -1.67698 2.76874 0
M  V30 7204 H 675.463 0.438224 3.71524 0
M  V30 7205 H 676.796 0.55701 4.89038 0
M  V30 7206 N 678.448 -1.51871 0.421078 0
M  V30 7207 C 679.381 -2.23851 -0.443369 0
M  V30 7208 C 680.359 -1.25142 -1.03818 0
M  V30 7209 O 681.543 -1.5423 -1.08377 0
M  V30 7210 C 678.67 -2.97637 -1.61648 0
M  V30 7211 C 677.716 -4.10873 -1.14391 0
M  V30 7212 S 678.549 -5.35408 -0.0992403 0
M  V30 7213 C 679.705 -6.12726 -1.27739 0
M  V30 7214 H 679.938 -2.96826 0.167786 0
M  V30 7215 H 677.471 -1.53027 0.205461 0
M  V30 7216 H 679.429 -3.40751 -2.28909 0
M  V30 7217 H 678.09 -2.24282 -2.199 0
M  V30 7218 H 677.283 -4.61718 -2.02069 0
M  V30 7219 H 676.885 -3.69937 -0.549775 0
M  V30 7220 H 679.177 -6.40827 -2.19881 0
M  V30 7221 H 680.12 -7.03461 -0.809239 0
M  V30 7222 H 680.528 -5.43968 -1.5086 0
M  V30 7223 N 679.926 -0.151884 -1.56866 0
M  V30 7224 C 681.174 0.497021 -1.95893 0
M  V30 7225 C 681.495 1.65078 -1.03799 0
M  V30 7226 O 680.765 1.95642 -0.10049 0
M  V30 7227 H 679.345 0.186603 -0.723318 0
M  V30 7228 H 682.007 -0.228525 -1.93556 0
M  V30 7229 H 681.103 0.869933 -2.99731 0
M  V30 7230 N 681.404 1.57128 0.121893 0
M  V30 7231 C 682.314 2.03425 1.16857 0
M  V30 7232 C 683.33 0.954108 1.45509 0
M  V30 7233 O 684.506 1.26541 1.56682 0
M  V30 7234 C 681.571 2.42685 2.47599 0
M  V30 7235 C 680.632 3.64767 2.2637 0
M  V30 7236 C 679.865 4.02145 3.50878 0
M  V30 7237 O 680.088 3.39897 4.58068 0
M  V30 7238 O 679.022 4.95262 3.42051 0
M  V30 7239 H 682.848 2.92825 0.80544 0
M  V30 7240 H 680.433 1.45654 0.332477 0
M  V30 7241 H 682.315 2.68684 3.24634 0
M  V30 7242 H 680.99 1.56432 2.83392 0
M  V30 7243 H 679.897 3.43922 1.47203 0
M  V30 7244 H 681.23 4.51716 1.95482 0
M  V30 7245 N 682.882 -0.391992 1.52647 0
M  V30 7246 C 683.83 -1.4991 1.77848 0
M  V30 7247 C 684.824 -1.56587 0.646282 0
M  V30 7248 O 686.03 -1.59789 0.828698 0
M  V30 7249 H 682.405 -0.498883 0.56269 0
M  V30 7250 H 684.376 -1.25847 2.70564 0
M  V30 7251 C 683.125 -2.87081 1.96163 0
M  V30 7252 H 682.448 -2.82692 2.82711 0
M  V30 7253 H 683.888 -3.63792 2.17787 0
M  V30 7254 C 682.347 -3.28822 0.733348 0
M  V30 7255 O 682.877 -4.01598 -0.0906481 0
M  V30 7256 N 681.083 -2.85068 0.564317 0
M  V30 7257 H 680.63 -2.26012 1.23598 0
M  V30 7258 H 680.588 -3.13355 -0.256166 0
M  V30 7259 N 684.36 -1.4356 -0.65026 0
M  V30 7260 C 685.307 -1.48948 -1.76304 0
M  V30 7261 C 686.277 -0.338919 -1.62605 0
M  V30 7262 O 687.462 -0.54649 -1.82806 0
M  V30 7263 C 684.602 -1.42131 -3.14472 0
M  V30 7264 C 683.715 -2.67415 -3.39284 0
M  V30 7265 C 682.85 -2.52565 -4.67316 0
M  V30 7266 C 681.889 -3.73103 -4.85243 0
M  V30 7267 N 681.026 -3.57046 -6.04535 0
M  V30 7268 H 685.866 -2.44032 -1.71034 0
M  V30 7269 H 683.403 -1.21131 -0.834601 0
M  V30 7270 H 685.361 -1.36172 -3.94351 0
M  V30 7271 H 683.991 -0.506273 -3.18805 0
M  V30 7272 H 683.043 -2.8364 -2.53481 0
M  V30 7273 H 684.355 -3.56943 -3.48415 0
M  V30 7274 H 683.509 -2.44331 -5.55326 0
M  V30 7275 H 682.248 -1.60566 -4.60511 0
M  V30 7276 H 681.253 -3.81743 -3.95667 0
M  V30 7277 H 682.478 -4.66115 -4.93876 0
M  V30 7278 H 680.424 -2.67783 -5.98856 0
M  V30 7279 H 680.341 -4.40178 -6.14638 0
M  V30 7280 H 681.609 -3.52669 -6.95158 0
M  V30 7281 N 685.838 0.888903 -1.30139 0
M  V30 7282 C 686.785 1.99422 -1.16188 0
M  V30 7283 C 687.755 1.66017 -0.0523869 0
M  V30 7284 O 688.94 1.89506 -0.221864 0
M  V30 7285 C 686.08 3.34325 -0.855612 0
M  V30 7286 C 685.193 3.80445 -2.0466 0
M  V30 7287 C 684.328 5.03975 -1.67876 0
M  V30 7288 C 683.367 5.42492 -2.83493 0
M  V30 7289 N 682.504 6.57206 -2.47032 0
M  V30 7290 H 687.344 2.10687 -2.10749 0
M  V30 7291 H 684.881 1.03165 -1.04859 0
M  V30 7292 H 686.839 4.11968 -0.658681 0
M  V30 7293 H 685.469 3.22756 0.0531155 0
M  V30 7294 H 684.521 2.98745 -2.3549 0
M  V30 7295 H 685.833 4.04933 -2.91257 0
M  V30 7296 H 684.987 5.89232 -1.44535 0
M  V30 7297 H 683.726 4.8135 -0.784431 0
M  V30 7298 H 682.731 4.55764 -3.07505 0
M  V30 7299 H 683.956 5.67093 -3.73607 0
M  V30 7300 H 681.902 6.36164 -1.601 0
M  V30 7301 H 681.819 6.81543 -3.27161 0
M  V30 7302 H 683.087 7.45704 -2.27038 0
M  V30 7303 N 687.317 1.12792 1.10072 0
M  V30 7304 C 688.247 0.821688 2.18565 0
M  V30 7305 C 689.228 -0.21612 1.68721 0
M  V30 7306 O 690.413 -0.0764932 1.94049 0
M  V30 7307 C 687.543 0.279624 3.46172 0
M  V30 7308 C 686.497 1.25092 4.09312 0
M  V30 7309 C 685.823 0.568916 5.31665 0
M  V30 7310 C 687.123 2.60699 4.52585 0
M  V30 7311 H 688.817 1.72888 2.44438 0
M  V30 7312 H 686.363 0.832702 1.17482 0
M  V30 7313 H 688.316 0.053099 4.21367 0
M  V30 7314 H 687.04 -0.662929 3.19801 0
M  V30 7315 H 685.699 1.46332 3.36129 0
M  V30 7316 H 685.347 -0.378898 5.01571 0
M  V30 7317 H 685.047 1.21687 5.74862 0
M  V30 7318 H 686.571 0.351517 6.09587 0
M  V30 7319 H 687.985 2.43465 5.19035 0
M  V30 7320 H 686.382 3.21608 5.06644 0
M  V30 7321 H 687.452 3.1886 3.65317 0
M  V30 7322 N 688.795 -1.27931 0.920396 0
M  V30 7323 C 690.211 -1.47085 0.619537 0
M  V30 7324 C 690.411 -1.83463 -0.833291 0
M  V30 7325 O 689.467 -1.94363 -1.61181 0
M  V30 7326 C 690.78 -2.56878 1.56314 0
M  V30 7327 C 692.328 -2.70743 1.57058 0
M  V30 7328 C 692.803 -3.83687 2.50097 0
M  V30 7329 N 694.294 -3.9105 2.48262 0
M  V30 7330 C 695.029 -4.77842 3.16945 0
M  V30 7331 N 694.525 -5.69176 3.94982 0
M  V30 7332 N 696.318 -4.71509 3.06 0
M  V30 7333 H 688.469 -1.02601 1.85975 0
M  V30 7334 H 690.732 -0.511682 0.798051 0
M  V30 7335 H 690.438 -2.36923 2.59923 0
M  V30 7336 H 690.312 -3.54117 1.29928 0
M  V30 7337 H 692.699 -2.90083 0.541832 0
M  V30 7338 H 692.78 -1.74015 1.8749 0
M  V30 7339 H 692.424 -3.65101 3.53077 0
M  V30 7340 H 692.354 -4.79827 2.16964 0
M  V30 7341 H 694.845 -3.25738 1.91581 0
M  V30 7342 H 695.158 -6.32245 4.44394 0
M  V30 7343 H 693.503 -5.68995 3.99086 0
M  V30 7344 H 696.694 -3.99151 2.44533 0
M  V30 7345 H 696.867 -5.38933 3.59799 0
M  V30 7346 N 690.273 -0.685099 -1.4193 0
M  V30 7347 C 691.55 -0.140152 -1.95097 0
M  V30 7348 C 691.93 1.34745 -1.62502 0
M  V30 7349 O 691.278 2.08872 -0.926534 0
M  V30 7350 C 691.488 -0.420268 -3.4646 0
M  V30 7351 C 692.836 -0.342338 -4.23218 0
M  V30 7352 O 693.86 -0.354592 -3.54431 0
M  V30 7353 O 692.719 -0.293404 -5.45712 0
M  V30 7354 H 689.813 -0.00885998 -0.826953 0
M  V30 7355 H 692.359 -0.760539 -1.51703 0
M  V30 7356 H 691.131 -1.45037 -3.63428 0
M  V30 7357 H 690.754 0.231616 -3.96925 0
M  V30 7358 N 691.751 1.51645 -0.429126 0
M  V30 7359 C 692.699 2.29119 0.400921 0
M  V30 7360 C 693.693 1.34628 1.02819 0
M  V30 7361 O 694.899 1.52004 0.964098 0
M  V30 7362 H 691.274 0.737273 0.148095 0
M  V30 7363 H 693.245 2.97144 -0.273457 0
M  V30 7364 C 691.994 3.13953 1.49429 0
M  V30 7365 H 691.317 3.86544 1.02097 0
M  V30 7366 H 692.757 3.71232 2.04849 0
M  V30 7367 C 691.216 2.28796 2.47293 0
M  V30 7368 O 691.746 1.94193 3.51642 0
M  V30 7369 N 689.952 1.92177 2.17982 0
M  V30 7370 H 689.499 2.20517 1.33154 0
M  V30 7371 H 689.457 1.35497 2.83704 0
M  V30 7372 N 693.229 0.160201 1.56784 0
M  V30 7373 C 694.159 -0.770264 2.2043 0
M  V30 7374 C 695.14 -1.24736 1.15651 0
M  V30 7375 O 696.325 -1.30253 1.44041 0
M  V30 7376 C 693.455 -2.00427 2.83631 0
M  V30 7377 C 692.409 -1.66345 3.94352 0
M  V30 7378 C 691.735 -2.97119 4.4455 0
M  V30 7379 C 693.035 -0.899972 5.14488 0
M  V30 7380 H 694.729 -0.239783 2.98438 0
M  V30 7381 H 692.275 -0.113891 1.43549 0
M  V30 7382 H 694.228 -2.66012 3.26827 0
M  V30 7383 H 692.952 -2.5587 2.02973 0
M  V30 7384 H 691.611 -1.03133 3.51794 0
M  V30 7385 H 691.259 -3.5058 3.60698 0
M  V30 7386 H 690.959 -2.75073 5.19238 0
M  V30 7387 H 692.483 -3.63753 4.90425 0
M  V30 7388 H 693.897 -1.45818 5.54446 0
M  V30 7389 H 692.294 -0.778968 5.95023 0
M  V30 7390 H 693.364 0.105827 4.84785 0
M  V30 7391 N 694.707 -1.5719 -0.113559 0
M  V30 7392 C 696.118 -1.74259 -0.670116 0
M  V30 7393 C 696.469 -0.779694 -1.80042 0
M  V30 7394 O 695.594 0.0461353 -2.16351 0
M  V30 7395 C 696.189 -3.15981 -1.22236 0
M  V30 7396 C 694.748 -3.34537 -1.72516 0
M  V30 7397 C 693.895 -2.70116 -0.627098 0
M  V30 7398 H 696.846 -1.58301 0.112396 0
M  V30 7399 H 696.867 -3.17832 -2.09197 0
M  V30 7400 H 696.379 -3.86038 -0.39949 0
M  V30 7401 H 694.48 -2.6953 -2.57263 0
M  V30 7402 H 694.593 -4.42737 -1.83086 0
M  V30 7403 H 692.957 -2.31501 -1.06204 0
M  V30 7404 H 693.74 -3.42802 0.184889 0
M  V30 7405 N 696.185 0.383891 -1.52853 0
M  V30 7406 C 697.413 1.1495 -1.7203 0
M  V30 7407 C 697.828 1.83578 -0.440957 0
M  V30 7408 O 697.185 1.72872 0.584925 0
M  V30 7409 C 697.236 2.19368 -2.87333 0
M  V30 7410 O 696.957 1.53536 -4.10315 0
M  V30 7411 C 698.458 3.08616 -3.18231 0
M  V30 7412 H 695.678 0.344445 -0.575846 0
M  V30 7413 H 698.222 0.448397 -1.99524 0
M  V30 7414 H 696.377 2.85105 -2.62286 0
M  V30 7415 H 696.791 2.2296 -4.74752 0
M  V30 7416 H 698.265 3.77902 -4.02361 0
M  V30 7417 H 698.742 3.72409 -2.32826 0
M  V30 7418 H 699.348 2.48518 -3.45136 0
M  V30 7419 N 697.663 1.43903 0.642637 0
M  V30 7420 C 698.611 1.50164 1.77634 0
M  V30 7421 C 699.605 0.374294 1.65213 0
M  V30 7422 O 700.811 0.548748 1.71431 0
M  V30 7423 H 697.186 0.470974 0.586249 0
M  V30 7424 H 699.157 2.45603 1.69474 0
M  V30 7425 C 697.906 1.45196 3.15933 0
M  V30 7426 H 697.229 2.31253 3.26132 0
M  V30 7427 H 698.669 1.53638 3.95185 0
M  V30 7428 C 697.128 0.171043 3.36466 0
M  V30 7429 O 697.658 -0.763413 3.94379 0
M  V30 7430 N 695.864 0.077847 2.90496 0
M  V30 7431 H 695.411 0.8391 2.43551 0
M  V30 7432 H 695.369 -0.778473 3.0461 0
M  V30 7433 N 699.141 -0.881989 1.30609 0
M  V30 7434 C 700.552 -1.44956 1.17664 0
M  V30 7435 C 700.903 -1.94945 -0.221531 0
M  V30 7436 O 700.028 -1.85257 -1.11844 0
M  V30 7437 C 700.623 -2.63474 2.12995 0
M  V30 7438 C 699.182 -3.16312 2.04019 0
M  V30 7439 C 698.329 -1.89008 2.02907 0
M  V30 7440 H 701.28 -0.691645 1.42835 0
M  V30 7441 H 701.301 -3.39783 1.71253 0
M  V30 7442 H 700.813 -2.2706 3.14746 0
M  V30 7443 H 698.914 -3.57376 1.0542 0
M  V30 7444 H 699.027 -3.79409 2.9255 0
M  V30 7445 H 697.391 -2.07465 1.47751 0
M  V30 7446 H 698.174 -1.54848 3.06394 0
M  V30 7447 N 700.619 -1.13374 -1.09472 0
M  V30 7448 C 701.849 -0.917019 -1.85133 0
M  V30 7449 C 702.257 0.537568 -1.81402 0
M  V30 7450 O 701.6 1.38385 -1.20811 0
M  V30 7451 C 701.662 -1.32646 -3.34134 0
M  V30 7452 C 701.326 -2.79437 -3.61613 0
M  V30 7453 C 702.323 -3.77596 -3.57375 0
M  V30 7454 C 700.008 -3.16586 -3.89973 0
M  V30 7455 C 702.002 -5.10916 -3.81108 0
M  V30 7456 C 699.689 -4.50085 -4.13361 0
M  V30 7457 C 700.687 -5.47059 -4.0892 0
M  V30 7458 O 700.375 -6.78149 -4.31705 0
M  V30 7459 H 700.107 -0.326997 -0.591649 0
M  V30 7460 H 702.661 -1.51002 -1.39239 0
M  V30 7461 H 700.891 -0.676719 -3.80733 0
M  V30 7462 H 702.58 -1.08229 -3.91205 0
M  V30 7463 H 703.346 -3.50242 -3.35493 0
M  V30 7464 H 699.225 -2.41707 -3.92554 0
M  V30 7465 H 702.769 -5.86597 -3.77558 0
M  V30 7466 H 698.666 -4.77163 -4.34724 0
M  V30 7467 H 699.434 -6.84244 -4.49168 0
M  V30 7468 N 702.098 1.27442 -0.927168 0
M  V30 7469 C 703.344 1.94679 -0.568164 0
M  V30 7470 C 703.677 1.72697 0.888219 0
M  V30 7471 O 702.952 1.05573 1.63354 0
M  V30 7472 C 703.235 3.4882 -0.894253 0
M  V30 7473 C 703.088 3.80146 -2.40435 0
M  V30 7474 C 704.407 4.38281 -0.399766 0
M  V30 7475 H 701.526 0.707071 -0.207892 0
M  V30 7476 H 704.168 1.50568 -1.15885 0
M  V30 7477 H 702.318 3.86522 -0.391566 0
M  V30 7478 H 703.99 3.52238 -2.97869 0
M  V30 7479 H 702.233 3.26716 -2.85375 0
M  V30 7480 H 702.904 4.87835 -2.58304 0
M  V30 7481 H 705.38 4.07726 -0.83058 0
M  V30 7482 H 704.256 5.44955 -0.656885 0
M  V30 7483 H 704.517 4.36521 0.700153 0
M  V30 7484 N 703.576 0.692616 1.41565 0
M  V30 7485 C 704.526 0.00231847 2.28 0
M  V30 7486 C 705.51 -0.755793 1.42044 0
M  V30 7487 O 706.702 -0.631772 1.65341 0
M  V30 7488 C 703.831 -0.935468 3.30309 0
M  V30 7489 C 702.917 -0.173761 4.23744 0
M  V30 7490 N 703.308 0.830872 4.98929 0
M  V30 7491 C 701.606 -0.409666 4.44115 0
M  V30 7492 C 702.307 1.28656 5.67294 0
M  V30 7493 N 701.283 0.613053 5.40132 0
M  V30 7494 H 705.085 0.772635 2.83562 0
M  V30 7495 H 702.599 0.523198 1.53741 0
M  V30 7496 H 704.596 -1.44513 3.91052 0
M  V30 7497 H 703.256 -1.70542 2.76307 0
M  V30 7498 H 704.267 1.21101 5.03542 0
M  V30 7499 H 700.944 -1.15773 4.01127 0
M  V30 7500 H 702.334 2.12006 6.37576 0
M  V30 7501 N 705.054 -1.51416 0.437162 0
M  V30 7502 C 705.984 -2.30631 -0.364922 0
M  V30 7503 C 706.965 -1.36037 -1.02118 0
M  V30 7504 O 708.15 -1.64956 -1.02485 0
M  V30 7505 C 705.28 -3.1482 -1.46648 0
M  V30 7506 C 704.234 -4.17691 -0.933717 0
M  V30 7507 C 703.56 -4.904 -2.13101 0
M  V30 7508 C 704.86 -5.2229 0.0317201 0
M  V30 7509 H 706.554 -2.97932 0.29614 0
M  V30 7510 H 704.1 -1.4328 0.143865 0
M  V30 7511 H 706.053 -3.69017 -2.03481 0
M  V30 7512 H 704.777 -2.4534 -2.15583 0
M  V30 7513 H 703.436 -3.64545 -0.387602 0
M  V30 7514 H 703.084 -4.17423 -2.80654 0
M  V30 7515 H 702.784 -5.59962 -1.78092 0
M  V30 7516 H 704.308 -5.4742 -2.70487 0
M  V30 7517 H 705.722 -5.7156 -0.446302 0
M  V30 7518 H 704.119 -5.99378 0.29437 0
M  V30 7519 H 705.189 -4.75131 0.968447 0
M  V30 7520 N 706.532 -0.168513 -1.56696 0
M  V30 7521 C 707.779 0.477158 -1.96798 0
M  V30 7522 C 708.107 1.63442 -1.05437 0
M  V30 7523 O 707.362 1.95503 -0.0878903 0
M  V30 7524 C 707.661 1.00441 -3.42996 0
M  V30 7525 C 707.327 -0.0366556 -4.50885 0
M  V30 7526 C 705.989 -0.322785 -4.80116 0
M  V30 7527 C 708.341 -0.743447 -5.1587 0
M  V30 7528 C 705.669 -1.32114 -5.71632 0
M  V30 7529 C 708.021 -1.73077 -6.08463 0
M  V30 7530 C 706.685 -2.02437 -6.36062 0
M  V30 7531 H 705.955 0.174604 -0.720135 0
M  V30 7532 H 708.602 -0.259884 -1.89728 0
M  V30 7533 H 706.907 1.81922 -3.47004 0
M  V30 7534 H 708.604 1.51294 -3.71364 0
M  V30 7535 H 705.194 0.196532 -4.28149 0
M  V30 7536 H 709.378 -0.535602 -4.93401 0
M  V30 7537 H 704.634 -1.55482 -5.913 0
M  V30 7538 H 708.808 -2.28382 -6.57886 0
M  V30 7539 H 706.435 -2.79946 -7.06777 0
M  V30 7540 N 708.01 1.57248 0.105221 0
M  V30 7541 C 708.92 2.04653 1.14693 0
M  V30 7542 C 709.936 0.969488 1.44489 0
M  V30 7543 O 711.112 1.28196 1.55331 0
M  V30 7544 C 708.177 2.45297 2.45011 0
M  V30 7545 C 707.238 3.67148 2.22489 0
M  V30 7546 C 706.471 4.05844 3.46592 0
M  V30 7547 O 706.694 3.44736 4.54437 0
M  V30 7548 O 705.628 4.98862 3.36779 0
M  V30 7549 H 709.454 2.93663 0.774336 0
M  V30 7550 H 707.039 1.45998 0.31701 0
M  V30 7551 H 708.921 2.72112 3.21766 0
M  V30 7552 H 707.596 1.59429 2.81717 0
M  V30 7553 H 706.503 3.45463 1.43547 0
M  V30 7554 H 707.836 4.53764 1.9068 0
M  V30 7555 N 709.488 -0.375779 1.53054 0
M  V30 7556 C 710.398 -1.48381 1.81715 0
M  V30 7557 C 711.414 -1.59087 0.704795 0
M  V30 7558 O 712.59 -1.75174 0.993785 0
M  V30 7559 C 709.655 -2.83767 1.99192 0
M  V30 7560 C 708.716 -2.82673 3.23102 0
M  V30 7561 C 707.949 -4.11601 3.39736 0
M  V30 7562 O 708.172 -5.07243 2.60885 0
M  V30 7563 O 707.106 -4.18034 4.33049 0
M  V30 7564 H 710.932 -1.27089 2.7583 0
M  V30 7565 H 708.517 -0.564902 1.38308 0
M  V30 7566 H 710.399 -3.64004 2.12318 0
M  V30 7567 H 709.074 -3.05057 1.08267 0
M  V30 7568 H 707.981 -2.0117 3.15407 0
M  V30 7569 H 709.314 -2.66335 4.13916 0
M  V30 7570 N 710.966 -1.44241 -0.634997 0
M  V30 7571 C 712.206 -1.48339 -1.40623 0
M  V30 7572 C 712.57 -0.111479 -1.91676 0
M  V30 7573 O 713.771 -0.0271345 -2.68786 0
M  V30 7574 C 712.042 -2.51122 -2.54308 0
M  V30 7575 S 713.601 -2.74237 -3.42548 0
M  V30 7576 H 710.419 -0.524715 -0.479787 0
M  V30 7577 H 713.021 -1.81138 -0.735489 0
M  V30 7578 H 711.725 -3.49511 -2.15106 0
M  V30 7579 H 711.256 -2.19883 -3.26213 0
M  V30 7580 H 713.271 -2.0554 -4.51628 0
M  V30 7581 N 712.444 0.87505 -1.31075 0
M  V30 7582 C 713.721 1.60976 -1.11113 0
M  V30 7583 C 714.101 2.08409 0.336006 0
M  V30 7584 O 713.449 1.85858 1.32924 0
M  V30 7585 C 713.659 2.77166 -2.12085 0
M  V30 7586 C 715.007 3.47254 -2.44335 0
M  V30 7587 O 716.031 2.87367 -2.10472 0
M  V30 7588 O 714.89 4.55276 -3.02301 0
M  V30 7589 H 711.984 0.707982 -0.427424 0
M  V30 7590 H 714.53 0.920957 -1.42536 0
M  V30 7591 H 713.302 2.39494 -3.09449 0
M  V30 7592 H 712.925 3.53737 -1.81538 0
M  V30 7593 N 713.922 1.13953 1.08869 0
M  V30 7594 C 715.147 0.928559 1.85452 0
M  V30 7595 C 715.572 -0.517642 1.80837 0
M  V30 7596 O 714.93 -1.36779 1.19001 0
M  V30 7597 C 714.978 1.42814 3.31114 0
M  V30 7598 O 714.082 0.617129 4.07756 0
M  V30 7599 H 713.423 0.33235 0.574839 0
M  V30 7600 H 715.953 1.5156 1.37443 0
M  V30 7601 H 715.963 1.43425 3.8196 0
M  V30 7602 H 714.638 2.48109 3.33788 0
M  V30 7603 H 713.215 0.679365 3.66659 0
M  V30 7604 N 715.4 -1.26948 0.933913 0
M  V30 7605 C 716.646 -1.94374 0.57848 0
M  V30 7606 C 716.979 -1.73166 -0.879048 0
M  V30 7607 O 716.254 -1.06438 -1.62792 0
M  V30 7608 C 716.537 -3.4834 0.912739 0
M  V30 7609 C 716.39 -3.78866 2.42448 0
M  V30 7610 C 717.709 -4.38062 0.423003 0
M  V30 7611 H 714.828 -0.705959 0.211639 0
M  V30 7612 H 717.47 -1.49951 1.16682 0
M  V30 7613 H 715.62 -3.86309 0.412058 0
M  V30 7614 H 717.292 -3.50654 2.99733 0
M  V30 7615 H 715.535 -3.25198 2.87104 0
M  V30 7616 H 716.206 -4.86458 2.60887 0
M  V30 7617 H 718.682 -4.0728 0.852191 0
M  V30 7618 H 717.558 -5.44599 0.685776 0
M  V30 7619 H 717.819 -4.36886 -0.676994 0
M  V30 7620 N 716.879 -0.700114 -1.41195 0
M  V30 7621 C 717.829 -0.0144098 -2.27995 0
M  V30 7622 C 718.813 0.748249 -1.42443 0
M  V30 7623 O 720.005 0.622995 -1.65674 0
M  V30 7624 C 717.134 0.917938 -3.308 0
M  V30 7625 C 716.22 0.151286 -4.2383 0
M  V30 7626 N 716.611 -0.85732 -4.98481 0
M  V30 7627 C 714.909 0.386108 -4.44326 0
M  V30 7628 C 715.61 -1.31663 -5.66604 0
M  V30 7629 N 714.586 -0.641689 -5.39799 0
M  V30 7630 H 718.388 -0.787662 -2.83149 0
M  V30 7631 H 715.902 -0.531344 -1.53462 0
M  V30 7632 H 717.899 1.42437 -3.91813 0
M  V30 7633 H 716.559 1.69074 -2.77208 0
M  V30 7634 H 717.57 -1.2377 -5.02893 0
M  V30 7635 H 714.247 1.13644 -4.01735 0
M  V30 7636 H 715.637 -2.15384 -6.36443 0
M  V30 7637 N 718.357 1.51182 -0.445186 0
M  V30 7638 C 719.304 2.27939 0.362291 0
M  V30 7639 C 720.274 1.31864 1.01 0
M  V30 7640 O 721.459 1.60776 1.02741 0
M  V30 7641 C 718.599 3.13016 1.45311 0
M  V30 7642 C 717.712 4.24093 0.822757 0
M  V30 7643 C 716.847 4.96467 1.88928 0
M  V30 7644 C 715.886 5.99454 1.23778 0
M  V30 7645 N 715.023 6.65206 2.24602 0
M  V30 7646 H 719.863 2.965 -0.29862 0
M  V30 7647 H 717.4 1.46237 -0.15911 0
M  V30 7648 H 719.358 3.60673 2.09692 0
M  V30 7649 H 717.988 2.46553 2.08354 0
M  V30 7650 H 717.04 3.80341 0.0670364 0
M  V30 7651 H 718.352 4.97853 0.307184 0
M  V30 7652 H 717.506 5.47712 2.60953 0
M  V30 7653 H 716.245 4.22355 2.4386 0
M  V30 7654 H 715.25 5.47494 0.503042 0
M  V30 7655 H 716.475 6.75527 0.695694 0
M  V30 7656 H 714.421 5.93901 2.78599 0
M  V30 7657 H 714.338 7.34756 1.77958 0
M  V30 7658 H 715.606 7.21078 2.96085 0
M  V30 7659 N 719.835 0.176821 1.56605 0
M  V30 7660 C 721.084 -0.466833 1.96223 0
M  V30 7661 C 721.397 -1.64015 1.06576 0
M  V30 7662 O 722.603 -2.3504 1.35898 0
M  V30 7663 C 721.059 -0.881921 3.48927 0
M  V30 7664 C 720.667 0.266102 4.47209 0
M  V30 7665 C 722.411 -1.49368 3.97353 0
M  V30 7666 C 720.318 -0.168923 5.91159 0
M  V30 7667 H 719.248 -0.178178 0.732645 0
M  V30 7668 H 721.899 0.265929 1.81563 0
M  V30 7669 H 720.281 -1.67082 3.59026 0
M  V30 7670 H 721.455 1.04349 4.4883 0
M  V30 7671 H 719.77 0.788178 4.08872 0
M  V30 7672 H 722.367 -1.8313 5.02362 0
M  V30 7673 H 722.71 -2.3936 3.40606 0
M  V30 7674 H 723.243 -0.769114 3.90294 0
M  V30 7675 H 719.982 0.696351 6.51791 0
M  V30 7676 H 719.502 -0.911552 5.92833 0
M  V30 7677 H 721.181 -0.610938 6.44109 0
M  V30 7678 N 721.313 -1.57302 -0.09688 0
M  V30 7679 C 722.59 -1.7701 -0.832272 0
M  V30 7680 C 722.97 -0.758025 -1.97021 0
M  V30 7681 O 722.318 0.213824 -2.27497 0
M  V30 7682 C 722.528 -3.22725 -1.32851 0
M  V30 7683 C 723.876 -3.85856 -1.772 0
M  V30 7684 O 724.9 -3.26464 -1.42478 0
M  V30 7685 O 723.759 -4.90295 -2.41398 0
M  V30 7686 H 720.853 -0.725558 -0.396856 0
M  V30 7687 H 723.399 -1.69516 -0.0789005 0
M  V30 7688 H 722.171 -3.87921 -0.51312 0
M  V30 7689 H 721.794 -3.34845 -2.14394 0
M  V30 7690 N 722.791 0.367657 -1.53252 0
M  V30 7691 C 723.754 1.43308 -1.78873 0
M  V30 7692 C 724.754 1.46671 -0.659115 0
M  V30 7693 O 725.944 1.47468 -0.927306 0
M  V30 7694 C 723.076 2.82442 -1.90892 0
M  V30 7695 H 724.269 1.21864 -2.74024 0
M  V30 7696 H 721.822 0.600668 -1.44297 0
M  V30 7697 H 722.557 3.09202 -0.978 0
M  V30 7698 H 722.342 2.81399 -2.73051 0
M  V30 7699 H 723.832 3.59601 -2.12314 0
M  V30 7700 N 724.269 1.44576 0.627338 0
M  V30 7701 C 725.199 1.54562 1.75022 0
M  V30 7702 C 726.18 0.398378 1.65369 0
M  V30 7703 O 727.365 0.61899 1.84071 0
M  V30 7704 C 724.495 1.49309 3.13567 0
M  V30 7705 C 723.449 2.62549 3.38012 0
M  V30 7706 C 722.775 2.42348 4.76625 0
M  V30 7707 C 724.075 4.04678 3.30202 0
M  V30 7708 H 725.769 2.4855 1.66922 0
M  V30 7709 H 723.315 1.19624 0.801636 0
M  V30 7710 H 725.268 1.54895 3.919 0
M  V30 7711 H 723.992 0.518392 3.2246 0
M  V30 7712 H 722.651 2.56358 2.62061 0
M  V30 7713 H 722.299 1.43062 4.82226 0
M  V30 7714 H 721.999 3.18273 4.93939 0
M  V30 7715 H 723.523 2.49758 5.57183 0
M  V30 7716 H 724.937 4.12217 3.98435 0
M  V30 7717 H 723.334 4.80836 3.5905 0
M  V30 7718 H 724.404 4.2798 2.27949 0
M  V30 7719 N 725.747 -0.868086 1.31537 0
M  V30 7720 C 726.679 -1.98165 1.15166 0
M  V30 7721 C 727.692 -1.6255 0.0902335 0
M  V30 7722 O 728.881 -1.75272 0.33791 0
M  V30 7723 C 725.981 -3.30772 0.737776 0
M  V30 7724 C 725.154 -3.94716 1.88462 0
M  V30 7725 C 724.213 -5.05641 1.45648 0
M  V30 7726 O 723.239 -5.2636 2.16642 0
M  V30 7727 N 724.441 -5.79474 0.34493 0
M  V30 7728 H 727.206 -2.12754 2.11083 0
M  V30 7729 H 724.767 -1.04217 1.23897 0
M  V30 7730 H 726.759 -4.02366 0.434032 0
M  V30 7731 H 725.329 -3.1233 -0.129834 0
M  V30 7732 H 724.549 -3.16079 2.35558 0
M  V30 7733 H 725.837 -4.34175 2.65273 0
M  V30 7734 H 725.235 -5.65164 -0.246259 0
M  V30 7735 H 723.792 -6.51722 0.100728 0
M  V30 7736 N 727.225 -1.14528 -1.08264 0
M  V30 7737 C 728.502 -0.825185 -1.77342 0
M  V30 7738 C 728.882 0.681037 -1.99813 0
M  V30 7739 O 728.23 1.62234 -1.60912 0
M  V30 7740 C 728.44 -1.62556 -3.08831 0
M  V30 7741 C 729.788 -1.82585 -3.83338 0
M  V30 7742 O 730.812 -1.59254 -3.18617 0
M  V30 7743 O 729.671 -2.21598 -4.99556 0
M  V30 7744 H 726.765 -0.302531 -0.769678 0
M  V30 7745 H 729.311 -1.25056 -1.14713 0
M  V30 7746 H 728.083 -2.64862 -2.88035 0
M  V30 7747 H 727.706 -1.1959 -3.79189 0
M  V30 7748 N 728.703 1.26451 -0.940633 0
M  V30 7749 C 730.119 1.4608 -0.642859 0
M  V30 7750 C 730.319 1.84765 0.803998 0
M  V30 7751 O 729.375 1.96902 1.58069 0
M  V30 7752 C 730.688 2.54359 -1.60381 0
M  V30 7753 C 732.236 2.6821 -1.61345 0
M  V30 7754 C 732.711 3.79659 -2.56169 0
M  V30 7755 N 734.202 3.87051 -2.54452 0
M  V30 7756 C 734.937 4.72739 -3.24507 0
M  V30 7757 N 734.433 5.6282 -4.03987 0
M  V30 7758 N 736.226 4.66581 -3.13462 0
M  V30 7759 H 728.377 0.996289 -1.87584 0
M  V30 7760 H 730.64 0.498921 -0.80609 0
M  V30 7761 H 730.346 2.32758 -2.6366 0
M  V30 7762 H 730.22 3.52005 -1.35545 0
M  V30 7763 H 732.607 2.89184 -0.587913 0
M  V30 7764 H 732.688 1.7101 -1.90235 0
M  V30 7765 H 732.332 3.59438 -3.58841 0
M  V30 7766 H 732.262 4.76315 -2.2457 0
M  V30 7767 H 734.753 3.22649 -1.96739 0
M  V30 7768 H 735.066 6.25095 -4.54396 0
M  V30 7769 H 733.411 5.62574 -4.08088 0
M  V30 7770 H 736.602 3.9521 -2.50852 0
M  V30 7771 H 736.775 5.33141 -3.68327 0
M  V30 7772 N 730.181 0.707592 1.40822 0
M  V30 7773 C 731.128 0.0499029 2.30746 0
M  V30 7774 C 732.098 -0.758718 1.47759 0
M  V30 7775 O 733.283 -0.724299 1.76518 0
M  V30 7776 C 730.423 -0.871756 3.33908 0
M  V30 7777 C 729.536 -0.0534655 4.31967 0
M  V30 7778 C 728.671 -0.973869 5.22197 0
M  V30 7779 C 727.71 -0.149194 6.11918 0
M  V30 7780 N 726.847 -1.02404 6.94592 0
M  V30 7781 H 731.687 0.822461 2.86426 0
M  V30 7782 H 729.224 0.417285 1.41057 0
M  V30 7783 H 731.182 -1.42028 3.9228 0
M  V30 7784 H 729.812 -1.61058 2.7975 0
M  V30 7785 H 728.864 0.612142 3.75442 0
M  V30 7786 H 730.176 0.585354 4.95353 0
M  V30 7787 H 729.33 -1.59121 5.85462 0
M  V30 7788 H 728.069 -1.64652 4.59065 0
M  V30 7789 H 727.074 0.481137 5.47691 0
M  V30 7790 H 728.299 0.519841 6.77107 0
M  V30 7791 H 726.245 -1.6825 6.34057 0
M  V30 7792 H 726.162 -0.441076 7.54712 0
M  V30 7793 H 727.43 -1.62782 7.62314 0
M  V30 7794 N 731.66 -1.50943 0.453197 0
M  V30 7795 C 732.906 -2.02512 -0.108082 0
M  V30 7796 C 733.239 -1.33574 -1.40967 0
M  V30 7797 O 732.514 -0.455671 -1.89087 0
M  V30 7798 C 732.797 -3.58759 -0.310453 0
M  V30 7799 C 732.65 -4.38293 1.0109 0
M  V30 7800 C 733.969 -4.26816 -1.07313 0
M  V30 7801 H 731.088 -0.73603 -0.0378064 0
M  V30 7802 H 733.73 -1.80433 0.595295 0
M  V30 7803 H 731.88 -3.77702 -0.909582 0
M  V30 7804 H 733.552 -4.30964 1.64523 0
M  V30 7805 H 731.795 -4.02745 1.61179 0
M  V30 7806 H 732.466 -5.45828 0.82315 0
M  V30 7807 H 734.942 -4.1224 -0.565473 0
M  V30 7808 H 733.818 -5.35989 -1.1835 0
M  V30 7809 H 734.079 -3.88757 -2.10525 0
M  V30 7810 N 733.138 -0.185124 -1.56509 0
M  V30 7811 C 734.415 0.503348 -1.89013 0
M  V30 7812 C 734.795 1.80349 -1.09715 0
M  V30 7813 O 734.143 2.27665 -0.195203 0
M  V30 7814 C 734.353 0.731839 -3.41241 0
M  V30 7815 C 735.701 1.05568 -4.11267 0
M  V30 7816 O 736.725 0.819906 -3.46635 0
M  V30 7817 O 735.584 1.50116 -5.25478 0
M  V30 7818 H 732.678 0.261139 -0.784688 0
M  V30 7819 H 735.224 -0.224592 -1.68207 0
M  V30 7820 H 733.996 -0.18672 -3.90854 0
M  V30 7821 H 733.619 1.5126 -3.67704 0
M  V30 7822 N 734.616 1.57351 0.0885366 0
M  V30 7823 C 735.564 2.03542 1.12576 0
M  V30 7824 C 736.558 0.937668 1.41082 0
M  V30 7825 O 737.764 1.12283 1.40686 0
M  V30 7826 H 734.139 0.648752 0.380296 0
M  V30 7827 H 736.11 2.89833 0.709906 0
M  V30 7828 C 734.859 2.4811 2.43591 0
M  V30 7829 H 734.182 3.32164 2.22502 0
M  V30 7830 H 735.622 2.842 3.14653 0
M  V30 7831 C 734.081 1.35708 3.08359 0
M  V30 7832 O 734.611 0.689852 3.95732 0
M  V30 7833 N 732.817 1.10641 2.68713 0
M  V30 7834 H 732.364 1.6508 1.97753 0
M  V30 7835 H 732.322 0.356355 3.12374 0
M  V30 7836 N 736.094 -0.359525 1.53444 0
M  V30 7837 C 737.343 -1.09886 1.69139 0
M  V30 7838 C 737.656 -1.90285 0.452863 0
M  V30 7839 O 738.862 -2.67033 0.490459 0
M  V30 7840 C 737.318 -2.0028 2.99025 0
M  V30 7841 C 736.926 -1.25164 4.30161 0
M  V30 7842 C 738.67 -2.74168 3.24086 0
M  V30 7843 C 736.577 -2.14494 5.51132 0
M  V30 7844 H 735.507 -0.413936 0.630217 0
M  V30 7845 H 738.158 -0.359434 1.79945 0
M  V30 7846 H 736.54 -2.77978 2.82036 0
M  V30 7847 H 737.714 -0.524867 4.57801 0
M  V30 7848 H 736.029 -0.631116 4.11589 0
M  V30 7849 H 738.626 -3.41243 4.11652 0
M  V30 7850 H 738.969 -3.39868 2.40407 0
M  V30 7851 H 739.502 -2.0355 3.41778 0
M  V30 7852 H 736.241 -1.53362 6.37307 0
M  V30 7853 H 735.761 -2.85004 5.27762 0
M  V30 7854 H 737.44 -2.73914 5.86157 0
M  V30 7855 N 737.572 -1.44907 -0.619662 0
M  V30 7856 C 738.812 -1.49822 -1.39042 0
M  V30 7857 C 739.176 -0.131803 -1.91547 0
M  V30 7858 O 740.377 -0.0556413 -2.68742 0
M  V30 7859 C 738.648 -2.53805 -2.5163 0
M  V30 7860 S 740.207 -2.77855 -3.3962 0
M  V30 7861 H 737.025 -0.529774 -0.474195 0
M  V30 7862 H 739.627 -1.81907 -0.716236 0
M  V30 7863 H 738.331 -3.51772 -2.11387 0
M  V30 7864 H 737.862 -2.23331 -3.23863 0
M  V30 7865 H 739.877 -2.10319 -4.49422 0
M  V30 7866 N 739.05 0.861098 -1.31996 0
M  V30 7867 C 739.998 1.99052 -1.20337 0
M  V30 7868 C 740.992 1.69045 -0.109623 0
M  V30 7869 O 742.198 1.77931 -0.272117 0
M  V30 7870 H 738.573 0.653064 -0.372843 0
M  V30 7871 H 740.544 2.06015 -2.15872 0
M  V30 7872 C 739.293 3.34846 -0.936663 0
M  V30 7873 H 738.616 3.58462 -1.77045 0
M  V30 7874 H 740.056 4.1444 -0.895302 0
M  V30 7875 C 738.515 3.34965 0.360607 0
M  V30 7876 O 739.045 3.7745 1.37456 0
M  V30 7877 N 737.251 2.88101 0.380296 0
M  V30 7878 H 736.798 2.53721 -0.445351 0
M  V30 7879 H 736.756 2.88563 1.24816 0
M  V30 7880 N 740.528 1.15101 1.07655 0
M  V30 7881 C 741.475 0.844958 2.14777 0
M  V30 7882 C 742.445 -0.200798 1.64882 0
M  V30 7883 O 743.63 -0.0690278 1.90675 0
M  V30 7884 C 740.77 0.337018 3.4345 0
M  V30 7885 C 739.883 1.44398 4.07153 0
M  V30 7886 C 739.018 0.892487 5.23649 0
M  V30 7887 C 738.057 1.9766 5.79307 0
M  V30 7888 N 737.194 1.44171 6.87138 0
M  V30 7889 H 742.034 1.76242 2.40297 0
M  V30 7890 H 739.571 0.879435 1.17917 0
M  V30 7891 H 741.529 0.024256 4.17193 0
M  V30 7892 H 740.159 -0.543531 3.18191 0
M  V30 7893 H 739.211 1.87299 3.31094 0
M  V30 7894 H 740.523 2.26262 4.4453 0
M  V30 7895 H 739.677 0.532083 6.04362 0
M  V30 7896 H 738.416 0.0429854 4.87681 0
M  V30 7897 H 737.421 2.34586 4.97242 0
M  V30 7898 H 738.646 2.82982 6.17331 0
M  V30 7899 H 736.592 0.614518 6.53115 0
M  V30 7900 H 736.509 2.19665 7.23383 0
M  V30 7901 H 737.777 1.10945 7.71564 0
M  V30 7902 N 742.006 -1.2595 0.947325 0
M  V30 7903 C 742.969 -2.24407 0.466285 0
M  V30 7904 C 743.969 -1.55054 -0.426005 0
M  V30 7905 O 745.159 -1.7275 -0.224319 0
M  V30 7906 C 742.291 -3.39326 -0.327201 0
M  V30 7907 H 743.484 -2.68477 1.33642 0
M  V30 7908 H 741.037 -1.38211 0.729887 0
M  V30 7909 H 741.772 -3.00667 -1.21532 0
M  V30 7910 H 741.557 -3.9085 0.312839 0
M  V30 7911 H 743.047 -4.12455 -0.653477 0
M  V30 7912 N 743.484 -0.715051 -1.40445 0
M  V30 7913 C 744.73 -0.263528 -2.01686 0
M  V30 7914 C 745.085 1.13052 -1.55683 0
M  V30 7915 O 744.378 1.75588 -0.766762 0
M  V30 7916 C 744.572 -0.281791 -3.56287 0
M  V30 7917 C 744.401 -1.67607 -4.17298 0
M  V30 7918 C 743.171 -2.2836 -4.50755 0
M  V30 7919 C 745.369 -2.62621 -4.42193 0
M  V30 7920 N 743.351 -3.6015 -4.97157 0
M  V30 7921 C 744.722 -3.79116 -4.90582 0
M  V30 7922 C 746.777 -2.60639 -4.24231 0
M  V30 7923 C 745.48 -4.93937 -5.22895 0
M  V30 7924 C 747.506 -3.74587 -4.57644 0
M  V30 7925 C 746.868 -4.89815 -5.06222 0
M  V30 7926 H 742.967 -0.142252 -0.768953 0
M  V30 7927 H 745.551 -0.936732 -1.70685 0
M  V30 7928 H 743.722 0.360975 -3.86719 0
M  V30 7929 H 745.454 0.186393 -4.04271 0
M  V30 7930 H 742.209 -1.80463 -4.3787 0
M  V30 7931 H 742.633 -4.27757 -5.24741 0
M  V30 7932 H 747.275 -1.72759 -3.85894 0
M  V30 7933 H 744.993 -5.82462 -5.60146 0
M  V30 7934 H 748.579 -3.74328 -4.45387 0
M  V30 7935 H 747.459 -5.76525 -5.3159 0
M  V30 7936 N 744.962 1.50701 -0.461195 0
M  V30 7937 C 745.909 2.2831 0.338094 0
M  V30 7938 C 746.879 1.32928 0.995957 0
M  V30 7939 O 748.064 1.61857 1.0103 0
M  V30 7940 C 745.204 3.14539 1.41983 0
M  V30 7941 C 744.317 4.24942 0.77773 0
M  V30 7942 C 743.452 4.98443 1.83652 0
M  V30 7943 C 742.491 6.00733 1.17413 0
M  V30 7944 N 741.628 6.6755 2.17533 0
M  V30 7945 H 746.468 2.96167 -0.330051 0
M  V30 7946 H 744.005 1.4606 -0.174611 0
M  V30 7947 H 745.963 3.62877 2.05855 0
M  V30 7948 H 744.593 2.48749 2.05727 0
M  V30 7949 H 743.645 3.80391 0.0266924 0
M  V30 7950 H 744.957 4.98151 0.254362 0
M  V30 7951 H 744.111 5.50449 2.55129 0
M  V30 7952 H 742.85 4.24917 2.39367 0
M  V30 7953 H 741.855 5.47997 0.444944 0
M  V30 7954 H 743.08 6.76227 0.624006 0
M  V30 7955 H 741.026 5.96823 2.72284 0
M  V30 7956 H 740.943 7.36603 1.70154 0
M  V30 7957 H 742.211 7.24178 2.88421 0
M  V30 7958 N 746.441 0.193421 1.56409 0
M  V30 7959 C 747.69 -0.445995 1.96707 0
M  V30 7960 C 748.003 -1.62876 1.08309 0
M  V30 7961 O 749.209 -2.33586 1.38383 0
M  V30 7962 C 747.665 -0.844863 3.49843 0
M  V30 7963 C 747.273 0.31352 4.46902 0
M  V30 7964 C 749.017 -1.45146 3.98915 0
M  V30 7965 C 746.924 -0.106214 5.91305 0
M  V30 7966 H 745.854 -0.170398 0.734493 0
M  V30 7967 H 748.505 0.285172 1.81271 0
M  V30 7968 H 746.887 -1.63265 3.60778 0
M  V30 7969 H 748.061 1.09103 4.47698 0
M  V30 7970 H 746.376 0.8315 4.08014 0
M  V30 7971 H 748.973 -1.77792 5.04276 0
M  V30 7972 H 749.316 -2.35734 3.43126 0
M  V30 7973 H 749.849 -0.727675 3.91088 0
M  V30 7974 H 746.588 0.765442 6.51016 0
M  V30 7975 H 746.108 -0.848623 5.93766 0
M  V30 7976 H 747.787 -0.542588 6.44721 0
M  V30 7977 N 747.919 -1.57396 -0.0801906 0
M  V30 7978 C 748.849 -2.06145 -1.09665 0
M  V30 7979 C 749.83 -0.953273 -1.40878 0
M  V30 7980 O 751.015 -1.22548 -1.50651 0
M  V30 7981 C 748.145 -2.49836 -2.41245 0
M  V30 7982 C 747.099 -3.64454 -2.24405 0
M  V30 7983 C 746.425 -3.94172 -3.61293 0
M  V30 7984 C 747.725 -4.94807 -1.67223 0
M  V30 7985 H 749.419 -2.91316 -0.691028 0
M  V30 7986 H 746.965 -1.40145 -0.330957 0
M  V30 7987 H 748.918 -2.82552 -3.12638 0
M  V30 7988 H 747.642 -1.61683 -2.83771 0
M  V30 7989 H 746.301 -3.32008 -1.55454 0
M  V30 7990 H 745.949 -3.03163 -4.01374 0
M  V30 7991 H 745.649 -4.71345 -3.50867 0
M  V30 7992 H 747.173 -4.29376 -4.3413 0
M  V30 7993 H 748.587 -5.25807 -2.28472 0
M  V30 7994 H 746.984 -5.76245 -1.67515 0
M  V30 7995 H 748.054 -4.80751 -0.632944 0
M  V30 7996 N 749.397 0.351382 -1.53633 0
M  V30 7997 C 750.627 1.11113 -1.74176 0
M  V30 7998 C 751.035 1.83084 -0.477154 0
M  V30 7999 O 750.378 1.74941 0.560483 0
M  V30 8000 C 750.44 2.17521 -2.86225 0
M  V30 8001 C 750.104 1.65193 -4.26099 0
M  V30 8002 C 751.101 1.10842 -5.07947 0
M  V30 8003 C 748.786 1.70277 -4.72558 0
M  V30 8004 C 750.78 0.622689 -6.34351 0
M  V30 8005 C 748.467 1.21316 -5.98937 0
M  V30 8006 C 749.465 0.674033 -6.79666 0
M  V30 8007 O 749.153 0.191696 -8.03671 0
M  V30 8008 H 748.885 0.33756 -0.585687 0
M  V30 8009 H 751.439 0.411786 -2.0123 0
M  V30 8010 H 749.669 2.90991 -2.54678 0
M  V30 8011 H 751.358 2.78999 -2.94812 0
M  V30 8012 H 752.124 1.06243 -4.7322 0
M  V30 8013 H 748.003 2.11181 -4.09785 0
M  V30 8014 H 751.547 0.201216 -6.9731 0
M  V30 8015 H 747.444 1.25613 -6.3316 0
M  V30 8016 H 748.212 0.309712 -8.17914 0
M  V30 8017 N 750.875 1.45233 0.611969 0
M  V30 8018 C 751.822 1.5357 1.72293 0
M  V30 8019 C 752.792 0.381912 1.6165 0
M  V30 8020 O 753.977 0.594765 1.81293 0
M  V30 8021 C 751.117 1.50419 3.10593 0
M  V30 8022 C 750.23 2.76316 3.32074 0
M  V30 8023 C 749.365 2.64866 4.60456 0
M  V30 8024 C 748.404 3.85838 4.7518 0
M  V30 8025 N 747.541 3.72949 5.94856 0
M  V30 8026 H 752.381 2.4848 1.64504 0
M  V30 8027 H 749.918 1.23302 0.802191 0
M  V30 8028 H 751.876 1.4658 3.90602 0
M  V30 8029 H 750.506 0.590621 3.17351 0
M  V30 8030 H 749.558 2.90261 2.45872 0
M  V30 8031 H 750.87 3.66055 3.38829 0
M  V30 8032 H 750.024 2.58969 5.48653 0
M  V30 8033 H 748.763 1.72719 4.56092 0
M  V30 8034 H 747.768 3.92099 3.85407 0
M  V30 8035 H 748.993 4.79045 4.81344 0
M  V30 8036 H 746.939 2.83567 5.91545 0
M  V30 8037 H 746.856 4.56319 6.02751 0
M  V30 8038 H 748.124 3.70976 6.85563 0
M  V30 8039 N 752.353 -0.854086 1.3245 0
M  V30 8040 C 753.583 -1.63836 1.25862 0
M  V30 8041 C 753.991 -1.88383 -0.175588 0
M  V30 8042 O 753.334 -1.45353 -1.1233 0
M  V30 8043 C 753.396 -3.02068 1.94923 0
M  V30 8044 C 753.06 -3.0056 3.44257 0
M  V30 8045 C 754.057 -2.77368 4.39731 0
M  V30 8046 C 751.742 -3.21177 3.862 0
M  V30 8047 C 753.736 -2.74797 5.75122 0
M  V30 8048 C 751.423 -3.18234 5.217 0
M  V30 8049 C 752.421 -2.95072 6.15972 0
M  V30 8050 O 752.109 -2.92003 7.48992 0
M  V30 8051 H 751.841 -0.517007 0.435523 0
M  V30 8052 H 754.395 -1.07314 1.75137 0
M  V30 8053 H 752.625 -3.60382 1.40219 0
M  V30 8054 H 754.314 -3.62791 1.82037 0
M  V30 8055 H 755.08 -2.61205 4.08653 0
M  V30 8056 H 750.959 -3.38231 3.13243 0
M  V30 8057 H 754.503 -2.56638 6.48678 0
M  V30 8058 H 750.4 -3.33941 5.52407 0
M  V30 8059 H 751.168 -3.07953 7.58358 0
M  V30 8060 N 753.831 -1.1567 -1.07043 0
M  V30 8061 C 755.078 -0.933517 -1.79699 0
M  V30 8062 C 755.406 0.539162 -1.86878 0
M  V30 8063 O 754.661 1.41592 -1.35093 0
M  V30 8064 C 754.96 -1.49677 -3.24548 0
M  V30 8065 C 754.626 -2.99047 -3.37463 0
M  V30 8066 C 753.288 -3.39824 -3.40695 0
M  V30 8067 C 755.64 -3.95027 -3.40004 0
M  V30 8068 C 752.968 -4.75215 -3.44075 0
M  V30 8069 C 755.32 -5.30295 -3.44921 0
M  V30 8070 C 753.984 -5.70562 -3.46432 0
M  V30 8071 H 753.254 -0.341598 -0.657565 0
M  V30 8072 H 755.901 -1.44263 -1.25938 0
M  V30 8073 H 754.206 -0.908915 -3.81111 0
M  V30 8074 H 755.903 -1.29986 -3.79348 0
M  V30 8075 H 752.493 -2.6653 -3.35648 0
M  V30 8076 H 756.677 -3.64596 -3.36725 0
M  V30 8077 H 751.933 -5.05754 -3.43545 0
M  V30 8078 H 756.107 -6.0446 -3.45833 0
M  V30 8079 H 753.734 -6.75456 -3.48803 0
M  V30 8080 N 755.309 1.25446 -0.953992 0
M  V30 8081 C 756.72 1.75047 -0.649255 0
M  V30 8082 C 757.071 1.77527 0.835385 0
M  V30 8083 O 756.196 1.39569 1.65377 0
M  V30 8084 C 756.791 3.17889 -1.17183 0
M  V30 8085 C 755.35 3.65052 -0.917267 0
M  V30 8086 C 754.497 2.44124 -1.31525 0
M  V30 8087 H 757.448 1.11342 -1.13087 0
M  V30 8088 H 757.469 3.76768 -0.531616 0
M  V30 8089 H 756.981 3.16052 -2.25239 0
M  V30 8090 H 755.082 3.72305 0.148354 0
M  V30 8091 H 755.195 4.53222 -1.55328 0
M  V30 8092 H 753.559 2.43906 -0.733624 0
M  V30 8093 H 754.342 2.44979 -2.405 0
M  V30 8094 N 756.787 0.722489 1.40064 0
M  V30 8095 C 758.034 0.264979 2.00759 0
M  V30 8096 C 758.362 -1.14395 1.57302 0
M  V30 8097 O 757.617 -1.79165 0.787298 0
M  V30 8098 C 757.916 0.300682 3.56133 0
M  V30 8099 C 757.582 1.66087 4.19197 0
M  V30 8100 C 756.244 2.03319 4.36136 0
M  V30 8101 C 758.596 2.55452 4.54306 0
M  V30 8102 C 755.924 3.29448 4.8547 0
M  V30 8103 C 758.276 3.8094 5.05042 0
M  V30 8104 C 756.94 4.1828 5.2019 0
M  V30 8105 H 756.21 0.0969625 0.734629 0
M  V30 8106 H 758.857 0.926877 1.67575 0
M  V30 8107 H 757.162 -0.44479 3.89267 0
M  V30 8108 H 758.859 -0.0712542 4.00937 0
M  V30 8109 H 755.449 1.36137 4.06405 0
M  V30 8110 H 759.633 2.27961 4.40849 0
M  V30 8111 H 754.889 3.58338 4.95382 0
M  V30 8112 H 759.063 4.50351 5.31184 0
M  V30 8113 H 756.69 5.16081 5.58179 0
M  V30 8114 N 758.265 -1.50454 0.469181 0
M  V30 8115 C 759.511 -2.02615 -0.0865971 0
M  V30 8116 C 759.844 -1.35062 -1.39542 0
M  V30 8117 O 759.119 -0.475701 -1.88593 0
M  V30 8118 C 759.402 -3.59068 -0.272385 0
M  V30 8119 C 759.255 -4.37196 1.05733 0
M  V30 8120 C 760.574 -4.2793 -1.0278 0
M  V30 8121 H 757.693 -0.736389 -0.0299977 0
M  V30 8122 H 760.335 -1.79792 0.614399 0
M  V30 8123 H 758.485 -3.78646 -0.869471 0
M  V30 8124 H 760.157 -4.29195 1.69084 0
M  V30 8125 H 758.4 -4.01013 1.65442 0
M  V30 8126 H 759.071 -5.44924 0.880997 0
M  V30 8127 H 761.547 -4.12816 -0.521718 0
M  V30 8128 H 760.423 -5.37214 -1.12659 0
M  V30 8129 H 760.684 -3.90968 -2.0639 0
M  V30 8130 N 759.743 -0.201713 -1.56304 0
M  V30 8131 C 760.992 0.435557 -1.96941 0
M  V30 8132 C 761.305 1.62299 -1.09172 0
M  V30 8133 O 762.511 2.32849 -1.3962 0
M  V30 8134 C 760.967 0.826298 -3.50286 0
M  V30 8135 C 760.575 -0.337216 -4.46729 0
M  V30 8136 C 762.319 1.43028 -3.99679 0
M  V30 8137 C 760.226 0.0748539 -5.91353 0
M  V30 8138 H 759.156 0.1665 -0.735387 0
M  V30 8139 H 761.807 -0.294781 -1.81117 0
M  V30 8140 H 760.189 1.61349 -3.61639 0
M  V30 8141 H 761.363 -1.11476 -4.47113 0
M  V30 8142 H 759.678 -0.853126 -4.07567 0
M  V30 8143 H 762.275 1.75115 -5.05212 0
M  V30 8144 H 762.618 2.33911 -3.44371 0
M  V30 8145 H 763.151 0.706924 -3.91468 0
M  V30 8146 H 759.89 -0.799957 -6.506 0
M  V30 8147 H 759.41 0.817122 -5.94208 0
M  V30 8148 H 761.089 0.508389 -6.45 0
M  V30 8149 N 761.222 1.57436 0.0718424 0
M  V30 8150 C 762.17 2.04725 1.10411 0
M  V30 8151 C 763.164 0.952579 1.4008 0
M  V30 8152 O 764.37 1.13769 1.39487 0
M  V30 8153 H 760.745 0.652749 0.373393 0
M  V30 8154 H 762.716 2.90569 0.679126 0
M  V30 8155 C 761.465 2.5068 2.40946 0
M  V30 8156 H 760.788 3.34505 2.18967 0
M  V30 8157 H 762.228 2.87521 3.11621 0
M  V30 8158 C 760.687 1.38971 3.06902 0
M  V30 8159 O 761.217 0.731786 3.94978 0
M  V30 8160 N 759.423 1.13485 2.67525 0
M  V30 8161 H 758.97 1.67168 1.95991 0
M  V30 8162 H 758.928 0.389467 3.11978 0
M  V30 8163 N 762.7 -0.34323 1.53817 0
M  V30 8164 C 763.648 -1.44176 1.82527 0
M  V30 8165 C 764.642 -1.54452 0.695772 0
M  V30 8166 O 765.848 -1.57072 0.879114 0
M  V30 8167 H 762.223 -0.480729 0.578277 0
M  V30 8168 H 764.194 -1.17176 2.74431 0
M  V30 8169 C 762.943 -2.80695 2.05197 0
M  V30 8170 H 762.266 -2.73554 2.91561 0
M  V30 8171 H 763.706 -3.56679 2.29251 0
M  V30 8172 C 762.165 -3.26322 0.837589 0
M  V30 8173 O 762.695 -4.01683 0.0371631 0
M  V30 8174 N 760.901 -2.83128 0.654724 0
M  V30 8175 H 760.448 -2.21965 1.30725 0
M  V30 8176 H 760.406 -3.14011 -0.156345 0
M  V30 8177 N 764.178 -1.45556 -0.604258 0
M  V30 8178 C 765.088 -1.57025 -1.74299 0
M  V30 8179 C 766.104 -0.45456 -1.67958 0
M  V30 8180 O 767.28 -0.715711 -1.88254 0
M  V30 8181 C 764.345 -1.53702 -3.10768 0
M  V30 8182 C 763.406 -2.76335 -3.28538 0
M  V30 8183 C 762.639 -2.73161 -4.58496 0
M  V30 8184 O 762.862 -1.80678 -5.41028 0
M  V30 8185 O 761.796 -3.64409 -4.79051 0
M  V30 8186 H 765.622 -2.53284 -1.67573 0
M  V30 8187 H 763.207 -1.28104 -0.768745 0
M  V30 8188 H 765.089 -1.54468 -3.92068 0
M  V30 8189 H 763.764 -0.605957 -3.17978 0
M  V30 8190 H 762.671 -2.8113 -2.46813 0
M  V30 8191 H 764.004 -3.68578 -3.26207 0
M  V30 8192 N 765.656 0.84705 -1.32902 0
M  V30 8193 C 766.586 1.97166 -1.25091 0
M  V30 8194 C 767.567 1.69578 -0.133161 0
M  V30 8195 O 768.752 1.91519 -0.321591 0
M  V30 8196 C 765.882 3.33157 -0.981006 0
M  V30 8197 C 764.836 3.75119 -2.06082 0
M  V30 8198 C 764.162 5.08826 -1.64318 0
M  V30 8199 C 765.462 3.89774 -3.47669 0
M  V30 8200 H 767.156 2.03958 -2.19184 0
M  V30 8201 H 764.702 0.979907 -1.05517 0
M  V30 8202 H 766.655 4.11393 -0.912891 0
M  V30 8203 H 765.379 3.266 -0.00445559 0
M  V30 8204 H 764.038 2.9914 -2.11921 0
M  V30 8205 H 763.686 4.98732 -0.653876 0
M  V30 8206 H 763.386 5.37873 -2.36572 0
M  V30 8207 H 764.91 5.89546 -1.58958 0
M  V30 8208 H 766.324 4.58343 -3.44376 0
M  V30 8209 H 764.721 4.30248 -4.18338 0
M  V30 8210 H 765.791 2.92463 -3.86773 0
M  V30 8211 N 767.134 1.16236 1.06428 0
M  V30 8212 C 768.082 0.863669 2.15971 0
M  V30 8213 C 769.076 -0.166723 1.68578 0
M  V30 8214 O 770.282 -0.0208425 1.79988 0
M  V30 8215 H 766.657 0.261684 0.705 0
M  V30 8216 H 768.628 1.79498 2.38376 0
M  V30 8217 C 767.377 0.379697 3.45621 0
M  V30 8218 H 766.7 1.16399 3.82481 0
M  V30 8219 H 768.14 0.209458 4.23482 0
M  V30 8220 C 766.599 -0.900499 3.24642 0
M  V30 8221 O 767.129 -1.97004 3.50074 0
M  V30 8222 N 765.335 -0.843721 2.78082 0
M  V30 8223 H 764.882 0.0268429 2.57586 0
M  V30 8224 H 764.84 -1.70078 2.64425 0
M  V30 8225 N 768.612 -1.24939 0.960631 0
M  V30 8226 C 769.56 -2.27659 0.47686 0
M  V30 8227 C 770.554 -1.63148 -0.455961 0
M  V30 8228 O 771.76 -1.76911 -0.332029 0
M  V30 8229 H 768.135 -0.739651 0.135723 0
M  V30 8230 H 770.106 -2.65844 1.35534 0
M  V30 8231 C 768.855 -3.46976 -0.224191 0
M  V30 8232 H 768.178 -3.96854 0.484471 0
M  V30 8233 H 769.618 -4.20717 -0.526615 0
M  V30 8234 C 768.077 -3.04159 -1.44876 0
M  V30 8235 O 768.607 -3.10697 -2.54618 0
M  V30 8236 N 766.813 -2.59284 -1.31226 0
M  V30 8237 H 766.36 -2.54164 -0.419361 0
M  V30 8238 H 766.318 -2.31 -2.13275 0
M  V30 8239 N 770.09 -0.729906 -1.39679 0
M  V30 8240 C 771.053 -0.0951668 -2.29002 0
M  V30 8241 C 772.053 0.672471 -1.46063 0
M  V30 8242 O 773.243 0.502245 -1.66803 0
M  V30 8243 C 770.375 0.874631 -3.29489 0
M  V30 8244 H 771.568 -0.882062 -2.86635 0
M  V30 8245 H 769.121 -0.495424 -1.4824 0
M  V30 8246 H 769.856 1.68807 -2.76902 0
M  V30 8247 H 769.641 0.326893 -3.90735 0
M  V30 8248 H 771.131 1.31548 -3.96339 0
M  V30 8249 N 771.568 1.50203 -0.477153 0
M  V30 8250 C 772.5 2.26508 0.350239 0
M  V30 8251 C 773.513 1.32081 0.95176 0
M  V30 8252 O 774.702 1.57546 0.839139 0
M  V30 8253 C 771.802 3.0361 1.50579 0
M  V30 8254 C 770.975 4.25438 1.01595 0
M  V30 8255 C 770.034 4.84783 2.04626 0
M  V30 8256 O 769.06 5.45528 1.62442 0
M  V30 8257 N 770.262 4.72318 3.37485 0
M  V30 8258 H 773.027 2.98155 -0.30394 0
M  V30 8259 H 770.588 1.58938 -0.308289 0
M  V30 8260 H 772.58 3.4019 2.1921 0
M  V30 8261 H 771.15 2.34724 2.06455 0
M  V30 8262 H 770.37 3.93894 0.155316 0
M  V30 8263 H 771.658 5.04413 0.666694 0
M  V30 8264 H 771.056 4.24022 3.74462 0
M  V30 8265 H 769.613 5.13149 4.01897 0
M  V30 8266 N 773.046 0.209999 1.56195 0
M  V30 8267 C 774.295 -0.425106 1.97169 0
M  V30 8268 C 774.608 -1.61718 1.10031 0
M  V30 8269 O 775.814 -2.32105 1.40853 0
M  V30 8270 C 774.27 -0.80771 3.50719 0
M  V30 8271 C 773.878 0.360902 4.46544 0
M  V30 8272 C 775.622 -1.40906 4.00432 0
M  V30 8273 C 773.529 -0.0434919 5.91384 0
M  V30 8274 H 772.459 -0.162598 0.736259 0
M  V30 8275 H 775.11 0.304382 1.80958 0
M  V30 8276 H 773.492 -1.59429 3.62489 0
M  V30 8277 H 774.666 1.13846 4.46515 0
M  V30 8278 H 772.981 0.874729 4.07109 0
M  V30 8279 H 775.578 -1.72433 5.06133 0
M  V30 8280 H 775.921 -2.32081 3.45607 0
M  V30 8281 H 776.454 -0.686154 3.91838 0
M  V30 8282 H 773.193 0.834448 6.50167 0
M  V30 8283 H 772.713 -0.785598 5.94633 0
M  V30 8284 H 774.392 -0.474176 6.4526 0
M  V30 8285 N 774.524 -1.57472 -0.0634922 0
M  V30 8286 C 775.935 -1.76303 -0.614337 0
M  V30 8287 C 776.286 -0.836578 -1.77471 0
M  V30 8288 O 775.411 -0.0227184 -2.16388 0
M  V30 8289 C 776.006 -3.19709 -1.12122 0
M  V30 8290 C 774.565 -3.39856 -1.61786 0
M  V30 8291 C 773.712 -2.71975 -0.540845 0
M  V30 8292 H 776.663 -1.57864 0.162702 0
M  V30 8293 H 776.684 -3.24326 -1.98979 0
M  V30 8294 H 776.196 -3.87114 -0.276472 0
M  V30 8295 H 774.297 -2.77578 -2.48558 0
M  V30 8296 H 774.41 -4.48338 -1.68908 0
M  V30 8297 H 772.774 -2.34763 -0.987854 0
M  V30 8298 H 773.557 -3.4204 0.293856 0
M  V30 8299 N 776.003 0.335068 -1.53997 0
M  V30 8300 C 776.933 1.41727 -1.85568 0
M  V30 8301 C 777.914 1.54505 -0.7115 0
M  V30 8302 O 779.099 1.68573 -0.964191 0
M  V30 8303 C 776.229 2.7866 -2.07282 0
M  V30 8304 C 775.183 2.80682 -3.23112 0
M  V30 8305 C 774.509 4.20581 -3.30175 0
M  V30 8306 C 775.809 2.45458 -4.61029 0
M  V30 8307 H 777.503 1.15555 -2.76202 0
M  V30 8308 H 775.049 0.554445 -1.32898 0
M  V30 8309 H 777.002 3.54423 -2.27952 0
M  V30 8310 H 775.726 3.06286 -1.13387 0
M  V30 8311 H 774.385 2.07373 -3.02311 0
M  V30 8312 H 774.033 4.4533 -2.33859 0
M  V30 8313 H 773.733 4.22843 -4.08016 0
M  V30 8314 H 775.257 4.98174 -3.53066 0
M  V30 8315 H 776.671 3.10934 -4.81656 0
M  V30 8316 H 775.068 2.5899 -5.41336 0
M  V30 8317 H 776.138 1.40628 -4.6406 0
M  V30 8318 N 777.481 1.45874 0.596531 0
M  V30 8319 C 778.429 1.55739 1.72766 0
M  V30 8320 C 779.423 0.426666 1.63939 0
M  V30 8321 O 780.629 0.60301 1.69599 0
M  V30 8322 H 777.004 0.489386 0.570968 0
M  V30 8323 H 778.975 2.50871 1.61575 0
M  V30 8324 C 777.724 1.55174 3.11153 0
M  V30 8325 H 777.047 2.41511 3.1861 0
M  V30 8326 H 778.487 1.66133 3.90097 0
M  V30 8327 C 776.946 0.278001 3.35751 0
M  V30 8328 O 777.476 -0.637557 3.96608 0
M  V30 8329 N 775.682 0.170227 2.90101 0
M  V30 8330 H 775.229 0.916159 2.40758 0
M  V30 8331 H 775.187 -0.68117 3.06932 0
M  V30 8332 N 778.959 -0.83999 1.33349 0
M  V30 8333 C 779.907 -1.97113 1.23488 0
M  V30 8334 C 780.901 -1.68849 0.136503 0
M  V30 8335 O 782.107 -1.77476 0.300389 0
M  V30 8336 H 778.482 -0.647049 0.383185 0
M  V30 8337 H 780.453 -2.02554 2.19122 0
M  V30 8338 C 779.202 -3.33314 0.989815 0
M  V30 8339 H 778.525 -3.556 1.82726 0
M  V30 8340 H 779.965 -4.12963 0.961123 0
M  V30 8341 C 778.424 -3.35496 -0.307272 0
M  V30 8342 O 778.954 -3.79589 -1.31434 0
M  V30 8343 N 777.16 -2.88669 -0.334414 0
M  V30 8344 H 776.707 -2.5298 0.485659 0
M  V30 8345 H 776.665 -2.90512 -1.20209 0
M  V30 8346 N 780.437 -1.16799 -1.0581 0
M  V30 8347 C 781.683 -0.953935 -1.78963 0
M  V30 8348 C 782.016 0.516638 -1.87202 0
M  V30 8349 O 781.291 1.38338 -1.36721 0
M  V30 8350 C 781.574 -1.58808 -3.23191 0
M  V30 8351 C 781.427 -3.13032 -3.23003 0
M  V30 8352 C 782.746 -1.2868 -4.20867 0
M  V30 8353 H 779.865 -0.347972 -0.64968 0
M  V30 8354 H 782.507 -1.44204 -1.23715 0
M  V30 8355 H 780.657 -1.17303 -3.70368 0
M  V30 8356 H 782.329 -3.63553 -2.83949 0
M  V30 8357 H 780.572 -3.46108 -2.61518 0
M  V30 8358 H 781.243 -3.52527 -4.24769 0
M  V30 8359 H 783.719 -1.6461 -3.82155 0
M  V30 8360 H 782.595 -1.75645 -5.20038 0
M  V30 8361 H 782.856 -0.206491 -4.41618 0
M  V30 8362 N 781.915 1.24427 -0.967243 0
M  V30 8363 C 783.162 1.92487 -0.62888 0
M  V30 8364 C 783.49 1.75623 0.835871 0
M  V30 8365 O 782.745 1.1027 1.61675 0
M  V30 8366 C 783.044 3.44568 -0.949096 0
M  V30 8367 C 782.71 3.816 -2.40192 0
M  V30 8368 C 781.372 3.9142 -2.799 0
M  V30 8369 C 783.724 3.99715 -3.34481 0
M  V30 8370 C 781.052 4.16771 -4.12939 0
M  V30 8371 C 783.404 4.26562 -4.67148 0
M  V30 8372 C 782.068 4.34601 -5.06634 0
M  V30 8373 H 781.338 0.704361 -0.230124 0
M  V30 8374 H 783.985 1.4772 -1.21864 0
M  V30 8375 H 782.29 3.90819 -0.277085 0
M  V30 8376 H 783.987 3.95436 -0.665692 0
M  V30 8377 H 780.577 3.74522 -2.08402 0
M  V30 8378 H 784.761 3.91531 -3.04987 0
M  V30 8379 H 780.017 4.21214 -4.43158 0
M  V30 8380 H 784.191 4.39523 -5.40178 0
M  V30 8381 H 781.818 4.53998 -6.09746 0
M  V30 8382 N 783.393 0.737304 1.3929 0
M  V30 8383 C 784.356 0.10731 2.28949 0
M  V30 8384 C 785.356 -0.664716 1.46418 0
M  V30 8385 O 786.546 -0.493392 1.67067 0
M  V30 8386 C 783.678 -0.857145 3.29948 0
M  V30 8387 H 784.871 0.89725 2.86163 0
M  V30 8388 H 782.424 0.503279 1.47976 0
M  V30 8389 H 783.159 -1.67336 2.77794 0
M  V30 8390 H 782.944 -0.306167 3.90903 0
M  V30 8391 H 784.434 -1.29444 3.97031 0
M  V30 8392 N 784.871 -1.49948 0.485112 0
M  V30 8393 C 785.819 -2.30449 -0.315609 0
M  V30 8394 C 786.813 -1.38351 -0.977516 0
M  V30 8395 O 788.019 -1.55477 -0.907019 0
M  V30 8396 H 784.394 -0.742262 -0.120629 0
M  V30 8397 H 786.365 -2.95925 0.383552 0
M  V30 8398 C 785.114 -3.19283 -1.37673 0
M  V30 8399 H 784.437 -3.90067 -0.876801 0
M  V30 8400 H 785.877 -3.78579 -1.90929 0
M  V30 8401 C 784.336 -2.37817 -2.38631 0
M  V30 8402 O 784.866 -2.0711 -3.44192 0
M  V30 8403 N 783.072 -2.00135 -2.107 0
M  V30 8404 H 782.619 -2.25307 -1.24878 0
M  V30 8405 H 782.577 -1.45933 -2.7848 0
M  V30 8406 N 786.349 -0.21828 -1.56081 0
M  V30 8407 C 787.577 0.419258 -2.02608 0
M  V30 8408 C 787.992 1.53578 -1.09814 0
M  V30 8409 O 787.349 1.82185 -0.107149 0
M  V30 8410 C 787.4 0.953955 -3.48686 0
M  V30 8411 O 787.121 -0.11805 -4.37941 0
M  V30 8412 C 788.622 1.66506 -4.10841 0
M  V30 8413 H 785.842 0.10296 -0.663054 0
M  V30 8414 H 788.386 -0.333776 -2.01758 0
M  V30 8415 H 786.541 1.65727 -3.50162 0
M  V30 8416 H 786.955 0.283359 -5.23734 0
M  V30 8417 H 788.429 1.99123 -5.14834 0
M  V30 8418 H 788.906 2.57705 -3.55647 0
M  V30 8419 H 789.512 1.00703 -4.13206 0
M  V30 8420 N 787.827 1.57504 0.0551401 0
M  V30 8421 C 788.737 2.08198 1.08124 0
M  V30 8422 C 789.753 1.01496 1.41331 0
M  V30 8423 O 790.929 1.33073 1.51174 0
M  V30 8424 C 787.994 2.52968 2.37083 0
M  V30 8425 C 787.055 3.7404 2.10696 0
M  V30 8426 C 786.288 4.16665 3.33505 0
M  V30 8427 O 786.511 3.59019 4.4324 0
M  V30 8428 O 785.445 5.09324 3.20737 0
M  V30 8429 H 789.271 2.95977 0.680518 0
M  V30 8430 H 786.856 1.46933 0.270401 0
M  V30 8431 H 788.738 2.82211 3.12946 0
M  V30 8432 H 787.413 1.6831 2.76502 0
M  V30 8433 H 786.32 3.49855 1.32484 0
M  V30 8434 H 787.653 4.59601 1.76148 0
M  V30 8435 N 789.305 -0.326896 1.54172 0
M  V30 8436 C 790.582 -1.08326 1.62864 0
M  V30 8437 C 790.962 -2.06018 0.46039 0
M  V30 8438 O 790.31 -2.21889 -0.545685 0
M  V30 8439 C 790.52 -1.78816 2.9971 0
M  V30 8440 C 791.868 -2.31958 3.55641 0
M  V30 8441 O 792.892 -1.88888 3.01993 0
M  V30 8442 O 791.751 -3.10801 4.49517 0
M  V30 8443 H 788.845 -0.499131 0.659392 0
M  V30 8444 H 791.391 -0.327054 1.66519 0
M  V30 8445 H 790.163 -1.07739 3.76176 0
M  V30 8446 H 789.786 -2.61255 2.99719 0
M  V30 8447 N 790.784 -1.46188 -0.588786 0
M  V30 8448 C 791.747 -1.55882 -1.68029 0
M  V30 8449 C 792.747 -0.436515 -1.54762 0
M  V30 8450 O 793.937 -0.700626 -1.59489 0
M  V30 8451 C 791.069 -1.47332 -3.07418 0
M  V30 8452 H 792.262 -2.5315 -1.60795 0
M  V30 8453 H 789.815 -1.33908 -0.806116 0
M  V30 8454 H 790.55 -0.513193 -3.20214 0
M  V30 8455 H 790.335 -2.28753 -3.18456 0
M  V30 8456 H 791.825 -1.57187 -3.86887 0
M  V30 8457 N 792.262 0.832906 -1.33792 0
M  V30 8458 C 793.508 1.59089 -1.25772 0
M  V30 8459 C 793.841 1.93414 0.174601 0
M  V30 8460 O 793.116 1.59195 1.11746 0
M  V30 8461 C 793.399 2.89699 -2.13885 0
M  V30 8462 C 793.252 2.62017 -3.65605 0
M  V30 8463 C 794.571 3.91182 -2.01654 0
M  V30 8464 H 791.69 0.577232 -0.458227 0
M  V30 8465 H 794.332 0.960227 -1.6395 0
M  V30 8466 H 792.482 3.4352 -1.81456 0
M  V30 8467 H 794.154 2.14582 -4.08353 0
M  V30 8468 H 792.397 1.95621 -3.87189 0
M  V30 8469 H 793.068 3.55112 -4.2261 0
M  V30 8470 H 795.544 3.46684 -2.30107 0
M  V30 8471 H 794.42 4.80391 -2.65548 0
M  V30 8472 H 794.681 4.30861 -0.990536 0
M  V30 8473 N 793.74 1.17359 1.05189 0
M  V30 8474 C 794.67 0.91365 2.14883 0
M  V30 8475 C 795.651 -0.144365 1.69486 0
M  V30 8476 O 796.836 0.00587861 1.94199 0
M  V30 8477 C 793.966 0.426196 3.44675 0
M  V30 8478 C 792.92 1.4234 4.03638 0
M  V30 8479 C 792.246 0.793902 5.28773 0
M  V30 8480 C 793.546 2.7966 4.41121 0
M  V30 8481 H 795.24 1.831 2.36885 0
M  V30 8482 H 792.786 0.881781 1.13845 0
M  V30 8483 H 794.739 0.231767 4.20762 0
M  V30 8484 H 793.463 -0.526693 3.22325 0
M  V30 8485 H 792.122 1.60457 3.2962 0
M  V30 8486 H 791.77 -0.165824 5.02727 0
M  V30 8487 H 791.47 1.45959 5.69183 0
M  V30 8488 H 792.994 0.609747 6.07548 0
M  V30 8489 H 794.408 2.6526 5.08242 0
M  V30 8490 H 792.805 3.42807 4.92548 0
M  V30 8491 H 793.875 3.34068 3.51464 0
M  V30 8492 N 795.218 -1.23913 0.973828 0
M  V30 8493 C 796.166 -2.27141 0.50098 0
M  V30 8494 C 797.16 -1.63623 -0.438631 0
M  V30 8495 O 798.366 -1.77253 -0.313247 0
M  V30 8496 H 794.741 -0.73817 0.14356 0
M  V30 8497 H 796.712 -2.64392 1.38346 0
M  V30 8498 C 795.461 -3.47195 -0.187377 0
M  V30 8499 H 794.784 -3.96318 0.526535 0
M  V30 8500 H 796.224 -4.21252 -0.481962 0
M  V30 8501 C 794.683 -3.05678 -1.41642 0
M  V30 8502 O 795.213 -3.1338 -2.51309 0
M  V30 8503 N 793.419 -2.60661 -1.28469 0
M  V30 8504 H 792.966 -2.54594 -0.39238 0
M  V30 8505 H 792.924 -2.33249 -2.10813 0
M  V30 8506 N 796.696 -0.74468 -1.38897 0
M  V30 8507 C 797.643 -0.111064 -2.30533 0
M  V30 8508 C 798.613 0.719276 -1.49719 0
M  V30 8509 O 799.798 0.677244 -1.78376 0
M  V30 8510 C 796.938 0.78292 -3.36102 0
M  V30 8511 C 796.051 -0.0610817 -4.31957 0
M  V30 8512 C 795.186 0.835075 -5.24595 0
M  V30 8513 C 794.225 -0.0130974 -6.12099 0
M  V30 8514 N 793.362 0.839525 -6.97063 0
M  V30 8515 H 798.202 -0.898113 -2.84144 0
M  V30 8516 H 795.739 -0.454537 -1.39901 0
M  V30 8517 H 797.697 1.31578 -3.95908 0
M  V30 8518 H 796.327 1.53585 -2.83922 0
M  V30 8519 H 795.379 -0.711469 -3.73687 0
M  V30 8520 H 796.691 -0.716482 -4.93627 0
M  V30 8521 H 795.845 1.43542 -5.89475 0
M  V30 8522 H 794.584 1.52423 -4.63269 0
M  V30 8523 H 793.589 -0.626179 -5.46223 0
M  V30 8524 H 794.814 -0.699181 -6.75491 0
M  V30 8525 H 792.76 1.5138 -6.38295 0
M  V30 8526 H 792.677 0.240823 -7.55616 0
M  V30 8527 H 793.945 1.42513 -7.66362 0
M  V30 8528 N 798.174 1.49689 -0.493057 0
M  V30 8529 C 799.451 1.9525 0.116907 0
M  V30 8530 C 799.831 1.43429 1.54892 0
M  V30 8531 O 799.179 0.644621 2.19219 0
M  V30 8532 C 799.389 3.4898 0.037705 0
M  V30 8533 C 800.737 4.24052 0.215621 0
M  V30 8534 O 801.761 3.5602 0.113266 0
M  V30 8535 O 800.62 5.44847 0.42477 0
M  V30 8536 H 797.714 0.820973 0.099662 0
M  V30 8537 H 800.26 1.60367 -0.555029 0
M  V30 8538 H 799.032 3.79309 -0.961251 0
M  V30 8539 H 798.655 3.9046 0.750137 0
M  V30 8540 N 799.652 0.226554 1.55963 0
M  V30 8541 C 800.899 -0.403789 1.98433 0
M  V30 8542 C 801.227 -1.59416 1.1143 0
M  V30 8543 O 800.482 -1.95042 0.160389 0
M  V30 8544 C 800.781 -0.87642 3.46488 0
M  V30 8545 C 800.447 0.203973 4.50438 0
M  V30 8546 C 799.109 0.500754 4.78587 0
M  V30 8547 C 801.461 0.934396 5.12756 0
M  V30 8548 C 798.789 1.53239 5.66334 0
M  V30 8549 C 801.141 1.9554 6.0162 0
M  V30 8550 C 799.805 2.25905 6.28111 0
M  V30 8551 H 799.075 -0.147757 0.726119 0
M  V30 8552 H 801.722 0.330121 1.88633 0
M  V30 8553 H 800.027 -1.68918 3.53517 0
M  V30 8554 H 801.724 -1.37407 3.76723 0
M  V30 8555 H 798.314 -0.0374917 4.28584 0
M  V30 8556 H 802.498 0.718355 4.91074 0
M  V30 8557 H 797.754 1.77321 5.85122 0
M  V30 8558 H 801.928 2.52642 6.48957 0
M  V30 8559 H 799.555 3.05985 6.959 0
M  V30 8560 N 801.13 -1.57531 -0.0467866 0
M  V30 8561 C 802.358 -1.92696 -0.753371 0
M  V30 8562 C 802.773 -0.824792 -1.69831 0
M  V30 8563 O 802.13 0.200155 -1.81399 0
M  V30 8564 C 802.181 -3.27728 -1.52566 0
M  V30 8565 O 801.902 -4.3371 -0.618674 0
M  V30 8566 C 803.403 -3.77066 -2.33101 0
M  V30 8567 H 800.623 -0.636367 -0.212788 0
M  V30 8568 H 803.167 -2.04498 -0.00959361 0
M  V30 8569 H 801.322 -3.17378 -2.22148 0
M  V30 8570 H 801.736 -5.11548 -1.15839 0
M  V30 8571 H 803.21 -4.74109 -2.82709 0
M  V30 8572 H 803.687 -3.07348 -3.13741 0
M  V30 8573 H 804.293 -3.90442 -1.68628 0
M  V30 8574 N 802.608 0.318715 -1.54344 0
M  V30 8575 C 803.855 1.05608 -1.72781 0
M  V30 8576 C 804.183 1.87854 -0.504083 0
M  V30 8577 O 803.438 1.88826 0.51414 0
M  V30 8578 C 803.737 2.00514 -2.95853 0
M  V30 8579 C 803.403 1.34385 -4.30409 0
M  V30 8580 C 802.065 1.16081 -4.66989 0
M  V30 8581 C 804.417 0.869627 -5.13894 0
M  V30 8582 C 801.745 0.490114 -5.84649 0
M  V30 8583 C 804.097 0.212735 -6.32242 0
M  V30 8584 C 802.761 0.0175882 -6.67498 0
M  V30 8585 H 802.031 0.386449 -0.632249 0
M  V30 8586 H 804.678 0.332729 -1.88587 0
M  V30 8587 H 802.983 2.79317 -2.74753 0
M  V30 8588 H 804.68 2.57605 -3.07312 0
M  V30 8589 H 801.27 1.49634 -4.01631 0
M  V30 8590 H 805.454 0.998809 -4.86146 0
M  V30 8591 H 800.71 0.327767 -6.10521 0
M  V30 8592 H 804.884 -0.162699 -6.9621 0
M  V30 8593 H 802.511 -0.504137 -7.58527 0
M  V30 8594 N 804.086 1.46499 0.581025 0
M  V30 8595 C 805.363 1.42372 1.34125 0
M  V30 8596 C 805.743 0.108073 2.10823 0
M  V30 8597 O 805.091 -0.910366 2.09582 0
M  V30 8598 C 805.301 2.65445 2.26583 0
M  V30 8599 C 806.649 3.11664 2.88359 0
M  V30 8600 O 807.673 2.66006 2.36896 0
M  V30 8601 O 806.532 3.90974 3.81839 0
M  V30 8602 H 803.626 0.566262 0.602724 0
M  V30 8603 H 806.172 1.58667 0.601903 0
M  V30 8604 H 804.944 3.52756 1.69348 0
M  V30 8605 H 804.567 2.51618 3.07854 0
M  V30 8606 O 805.603 -0.725332 1.44295 0
M  V30 8607 H 806.294 -1.37566 1.36365 0
M  V30 END ATOM
M  V30 BEGIN BOND
M  V30 END BOND
M  V30 END CTAB
M  END
$$$$
