drugbank_target|Q9H3S4 Thiamin pyrophosphokinase 1 (DB00152; DB04768)
 OpenBabel12092119253D

  0  0  0     0  0            999 V3000
M  V30 BEGIN CTAB
M  V30 COUNTS 3819 3862 0 0 0
M  V30 BEGIN ATOM
M  V30 1 H -0.908 1.98254 -0.117106 0
M  V30 2 N 0 1.576 0 0
M  V30 3 C 0.933 2.03868 1.02534 0
M  V30 4 C 1.911 0.928543 1.3348 0
M  V30 5 O 3.095 1.19667 1.45644 0
M  V30 6 C 0.222 2.43627 2.35294 0
M  V30 7 C -0.732 3.65373 2.2001 0
M  V30 8 S 0.101 5.13292 1.52614 0
M  V30 9 C 1.257 5.56322 2.86805 0
M  V30 10 H 1.49 2.90518 0.631377 0
M  V30 11 H -0.977 1.52953 0.210867 0
M  V30 12 H 0.981 2.67203 3.11629 0
M  V30 13 H -0.358 1.57376 2.7183 0
M  V30 14 H -1.165 3.90944 3.18086 0
M  V30 15 H -1.563 3.418 1.51819 0
M  V30 16 H 0.729 5.58782 3.83104 0
M  V30 17 H 1.672 6.56266 2.65933 0
M  V30 18 H 2.08 4.83886 2.90714 0
M  V30 19 N 1.4781 -0.272755 1.55222 0
M  V30 20 C 2.3881 -1.35918 1.91216 0
M  V30 21 C 3.4041 -1.54026 0.809436 0
M  V30 22 O 4.5801 -1.68148 1.10852 0
M  V30 23 C 1.6451 -2.69834 2.17693 0
M  V30 24 C 0.7061 -2.6047 3.41253 0
M  V30 25 C -0.0609 -3.88 3.66458 0
M  V30 26 O 0.1621 -4.88693 2.94169 0
M  V30 27 O -0.9039 -3.88189 4.59992 0
M  V30 28 H 2.9221 -1.0839 2.83699 0
M  V30 29 H 0.5071 -0.471301 1.41771 0
M  V30 30 H 2.3891 -3.49017 2.36147 0
M  V30 31 H 1.0641 -2.97148 1.28392 0
M  V30 32 H -0.0289 -1.79663 3.28134 0
M  V30 33 H 1.3041 -2.38106 4.30774 0
M  V30 34 N 2.9562 -1.48159 -0.537278 0
M  V30 35 C 3.9062 -1.5854 -1.63857 0
M  V30 36 C 4.8902 -0.442969 -1.54682 0
M  V30 37 O 6.0822 -0.69401 -1.62827 0
M  V30 38 C 3.2112 -1.62144 -3.02596 0
M  V30 39 C 2.2972 -2.81841 -3.16901 0
M  V30 40 N 2.6882 -4.06337 -3.01204 0
M  V30 41 C 0.9862 -2.79021 -3.47942 0
M  V30 42 C 1.6872 -4.86606 -3.18731 0
M  V30 43 N 0.6632 -4.19288 -3.45974 0
M  V30 44 H 4.4652 -2.5255 -1.50319 0
M  V30 45 H 1.9792 -1.4443 -0.742555 0
M  V30 46 H 3.9762 -1.67674 -3.81695 0
M  V30 47 H 2.6362 -0.69245 -3.17231 0
M  V30 48 H 3.6472 -4.36888 -2.78117 0
M  V30 49 H 0.3242 -1.95347 -3.6898 0
M  V30 50 H 1.7142 -5.95385 -3.11394 0
M  V30 51 N 4.4343 0.785586 -1.36625 0
M  V30 52 C 5.3973 1.87999 -1.31107 0
M  V30 53 C 6.3973 1.59316 -0.217959 0
M  V30 54 O 7.5873 1.67656 -0.472977 0
M  V30 55 C 4.7193 3.24861 -1.03334 0
M  V30 56 H 5.9123 1.94307 -2.2844 0
M  V30 57 H 3.4653 0.983813 -1.21453 0
M  V30 58 H 4.2003 3.24235 -0.0647432 0
M  V30 59 H 3.9853 3.4707 -1.82441 0
M  V30 60 H 5.4753 4.04929 -1.02088 0
M  V30 61 N 5.9124 1.20967 1.01018 0
M  V30 62 C 7.1594 1.02374 1.74716 0
M  V30 63 C 7.4874 -0.443375 1.89379 0
M  V30 64 O 6.7424 -1.34535 1.42123 0
M  V30 65 C 7.0414 1.65997 3.16512 0
M  V30 66 C 6.7074 3.15831 3.2181 0
M  V30 67 C 5.3694 3.56719 3.22963 0
M  V30 68 C 7.7214 4.11816 3.19464 0
M  V30 69 C 5.0494 4.92107 3.19449 0
M  V30 70 C 7.4014 5.47158 3.17491 0
M  V30 71 C 6.0654 5.87451 3.16951 0
M  V30 72 H 5.3354 0.374614 0.639332 0
M  V30 73 H 7.9824 1.50485 1.18434 0
M  V30 74 H 6.2874 1.10166 3.75993 0
M  V30 75 H 7.9844 1.49119 3.72242 0
M  V30 76 H 4.5744 2.83263 3.21652 0
M  V30 77 H 8.7584 3.81257 3.17737 0
M  V30 78 H 4.0144 5.22579 3.17366 0
M  V30 79 H 8.1884 6.21274 3.14629 0
M  V30 80 H 5.8154 6.92329 3.13983 0
M  V30 81 N 7.3905 -1.2043 1.01659 0
M  V30 82 C 8.6185 -1.93777 0.725132 0
M  V30 83 C 9.0335 -1.74772 -0.714166 0
M  V30 84 O 8.3905 -1.06169 -1.4844 0
M  V30 85 C 8.4415 -3.45876 1.05129 0
M  V30 86 O 8.1625 -3.6426 2.43406 0
M  V30 87 C 9.6635 -4.36368 0.780891 0
M  V30 88 H 6.8835 -0.615901 0.266284 0
M  V30 89 H 9.4275 -1.52922 1.35776 0
M  V30 90 H 7.5825 -3.8461 0.464065 0
M  V30 91 H 7.9965 -4.58246 2.55169 0
M  V30 92 H 9.4705 -5.41743 1.05918 0
M  V30 93 H 9.9475 -4.38275 -0.284937 0
M  V30 94 H 10.5535 -4.03296 1.35027 0
M  V30 95 N 8.8686 -0.792821 -1.36206 0
M  V30 96 C 10.2796 -0.429513 -1.81692 0
M  V30 97 C 10.6306 1.04695 -1.65932 0
M  V30 98 O 9.7556 1.81256 -1.18218 0
M  V30 99 C 10.3506 -0.772831 -3.29868 0
M  V30 100 C 8.9096 -0.462307 -3.7355 0
M  V30 101 C 8.0566 -1.00569 -2.5842 0
M  V30 102 H 11.0076 -0.985672 -1.24379 0
M  V30 103 H 11.0286 -0.0651928 -3.80444 0
M  V30 104 H 10.5406 -1.84747 -3.41307 0
M  V30 105 H 8.6416 0.604158 -3.67669 0
M  V30 106 H 8.7546 -0.985299 -4.68859 0
M  V30 107 H 7.1186 -0.428734 -2.51066 0
M  V30 108 H 7.9016 -2.08616 -2.72643 0
M  V30 109 N 10.3467 1.47872 -0.545128 0
M  V30 110 C 11.2767 2.32661 0.197793 0
M  V30 111 C 12.2577 1.43041 0.920504 0
M  V30 112 O 13.4427 1.71912 0.90333 0
M  V30 113 C 10.5727 3.24569 1.23582 0
M  V30 114 C 9.5267 4.23333 0.630323 0
M  V30 115 C 8.8527 5.0448 1.77211 0
M  V30 116 C 10.1527 5.20704 -0.407974 0
M  V30 117 H 11.8467 2.95024 -0.510045 0
M  V30 118 H 9.3927 1.4187 -0.246731 0
M  V30 119 H 11.3457 3.8272 1.76362 0
M  V30 120 H 10.0697 2.60236 1.97344 0
M  V30 121 H 8.7287 3.6639 0.123922 0
M  V30 122 H 8.3767 4.36561 2.49847 0
M  V30 123 H 8.0767 5.71339 1.37281 0
M  V30 124 H 9.6007 5.65487 2.3034 0
M  V30 125 H 11.0147 5.7329 0.033305 0
M  V30 126 H 9.4117 5.95699 -0.725486 0
M  V30 127 H 10.4817 4.66917 -1.30828 0
M  V30 128 N 11.8248 0.280983 1.55075 0
M  V30 129 C 12.7348 -0.61388 2.26426 0
M  V30 130 C 13.7508 -1.16521 1.29224 0
M  V30 131 O 14.9268 -1.19426 1.62171 0
M  V30 132 C 11.9918 -1.7788 2.9759 0
M  V30 133 C 11.0528 -1.26355 4.10284 0
M  V30 134 C 10.2858 -2.37295 4.78045 0
M  V30 135 O 10.5088 -3.56777 4.45047 0
M  V30 136 O 9.4428 -2.05119 5.65871 0
M  V30 137 H 13.2688 -0.0356932 3.03679 0
M  V30 138 H 10.8538 0.0481686 1.49322 0
M  V30 139 H 12.7358 -2.45791 3.42293 0
M  V30 140 H 11.4108 -2.34397 2.23249 0
M  V30 141 H 10.3178 -0.550735 3.70024 0
M  V30 142 H 11.6508 -0.744065 4.86543 0
M  V30 143 N 13.3029 -1.57598 0.00835791 0
M  V30 144 C 14.7139 -1.7892 -0.53333 0
M  V30 145 C 15.0649 -0.916609 -1.73473 0
M  V30 146 O 14.1899 -0.121336 -2.1606 0
M  V30 147 C 14.7849 -3.24488 -0.974313 0
M  V30 148 C 13.3439 -3.46878 -1.46125 0
M  V30 149 C 12.4909 -2.74157 -0.416302 0
M  V30 150 H 15.4419 -1.56958 0.234495 0
M  V30 151 H 15.4629 -3.3306 -1.83988 0
M  V30 152 H 14.9749 -3.87972 -0.099718 0
M  V30 153 H 13.0759 -2.8862 -2.35646 0
M  V30 154 H 13.1889 -4.55572 -1.48295 0
M  V30 155 H 11.5529 -2.39022 -0.87981 0
M  V30 156 H 12.3359 -3.40345 0.44947 0
M  V30 157 N 14.781 0.264519 -1.55364 0
M  V30 158 C 15.711 1.33121 -1.91836 0
M  V30 159 C 16.692 1.51101 -0.781192 0
M  V30 160 O 17.877 1.64003 -1.04003 0
M  V30 161 C 15.007 2.68921 -2.19769 0
M  V30 162 C 13.961 2.65661 -3.35571 0
M  V30 163 C 13.287 4.05093 -3.49004 0
M  V30 164 C 14.587 2.24187 -4.71739 0
M  V30 165 H 16.281 1.02844 -2.81182 0
M  V30 166 H 13.827 0.493286 -1.35287 0
M  V30 167 H 15.78 3.43663 -2.43872 0
M  V30 168 H 14.504 3.00799 -1.27231 0
M  V30 169 H 13.163 1.93377 -3.1145 0
M  V30 170 H 12.811 4.34206 -2.53917 0
M  V30 171 H 12.511 4.03804 -4.26868 0
M  V30 172 H 14.035 4.81561 -3.75408 0
M  V30 173 H 15.449 2.88654 -4.9533 0
M  V30 174 H 13.846 2.34044 -5.52579 0
M  V30 175 H 14.916 1.19327 -4.69988 0
M  V30 176 N 16.2591 1.48442 0.529413 0
M  V30 177 C 17.1891 1.65902 1.64313 0
M  V30 178 C 18.1701 0.507897 1.6234 0
M  V30 179 O 19.3551 0.740503 1.79528 0
M  V30 180 C 16.4851 1.69911 3.02898 0
M  V30 181 C 15.4391 2.8453 3.19729 0
M  V30 182 C 14.7651 2.73629 4.59381 0
M  V30 183 C 16.0651 4.25821 3.02447 0
M  V30 184 H 17.7591 2.5914 1.49955 0
M  V30 185 H 15.3051 1.24709 0.719982 0
M  V30 186 H 17.2581 1.80715 3.80684 0
M  V30 187 H 15.9821 0.732524 3.18279 0
M  V30 188 H 14.6411 2.73283 2.44361 0
M  V30 189 H 14.2891 1.74938 4.71599 0
M  V30 190 H 13.9891 3.50541 4.71588 0
M  V30 191 H 15.5131 2.86401 5.39265 0
M  V30 192 H 16.9271 4.37898 3.70024 0
M  V30 193 H 15.3241 5.03735 3.26146 0
M  V30 194 H 16.3941 4.42244 1.98867 0
M  V30 195 N 17.7372 -0.778329 1.37039 0
M  V30 196 C 18.9622 -1.57248 1.35233 0
M  V30 197 C 19.3872 -1.87999 -0.0615568 0
M  V30 198 O 18.7452 -1.48734 -1.03672 0
M  V30 199 C 18.7932 -2.86353 2.19167 0
M  V30 200 O 17.8972 -3.80442 1.59178 0
M  V30 201 H 17.2382 -0.476569 0.462362 0
M  V30 202 H 19.7682 -0.963853 1.80474 0
M  V30 203 H 19.7782 -3.35519 2.32145 0
M  V30 204 H 18.4532 -2.63299 3.21942 0
M  V30 205 H 17.0302 -3.39067 1.55203 0
M  V30 206 N 19.2153 -1.21501 -1.00376 0
M  V30 207 C 20.4433 -1.059 -1.77744 0
M  V30 208 C 20.8583 0.391125 -1.84704 0
M  V30 209 O 20.2153 1.27133 -1.30933 0
M  V30 210 C 20.2663 -1.65111 -3.21591 0
M  V30 211 O 19.9873 -3.0445 -3.15027 0
M  V30 212 C 21.4883 -1.54637 -4.15454 0
M  V30 213 H 18.7083 -0.371825 -0.558558 0
M  V30 214 H 21.2523 -1.60865 -1.26264 0
M  V30 215 H 19.4073 -1.14235 -3.70175 0
M  V30 216 H 19.8213 -3.3278 -4.0541 0
M  V30 217 H 21.2953 -2.00808 -5.14179 0
M  V30 218 H 21.7723 -0.501022 -4.36333 0
M  V30 219 H 22.3783 -2.04767 -3.72761 0
M  V30 220 N 20.6934 1.19889 -1.02296 0
M  V30 221 C 21.9414 1.89046 -0.714558 0
M  V30 222 C 22.2624 1.79636 0.758681 0
M  V30 223 O 21.5324 1.20292 1.54618 0
M  V30 224 H 20.1124 0.699802 -0.261317 0
M  V30 225 H 22.7744 1.45574 -1.29592 0
M  V30 226 H 21.8704 2.95524 -1.0036 0
M  V30 227 N 22.1715 0.800033 1.35784 0
M  V30 228 C 23.1195 0.193851 2.31791 0
M  V30 229 C 24.1135 -0.652744 1.56319 0
M  V30 230 O 25.3195 -0.546641 1.71499 0
M  V30 231 H 21.6945 0.04392 0.750716 0
M  V30 232 H 23.6655 1.01883 2.80468 0
M  V30 233 C 22.4145 -0.648338 3.41602 0
M  V30 234 H 21.7375 -0.00624665 3.998 0
M  V30 235 H 23.1775 -1.03898 4.11073 0
M  V30 236 C 21.6365 -1.8111 2.84079 0
M  V30 237 O 22.1665 -2.90825 2.77099 0
M  V30 238 N 20.3725 -1.62056 2.41218 0
M  V30 239 H 19.9195 -0.728123 2.47095 0
M  V30 240 H 19.8775 -2.40013 2.03079 0
M  V30 241 N 23.6496 -1.47581 0.552962 0
M  V30 242 C 24.5796 -2.32762 -0.185451 0
M  V30 243 C 25.5606 -1.43527 -0.912905 0
M  V30 244 O 26.7456 -1.72388 -0.894201 0
M  V30 245 C 23.8756 -3.25219 -1.21859 0
M  V30 246 C 22.8296 -4.23661 -0.607864 0
M  V30 247 C 22.1556 -5.05413 -1.74533 0
M  V30 248 C 23.4556 -5.20481 0.435582 0
M  V30 249 H 25.1496 -2.94749 0.525684 0
M  V30 250 H 22.6956 -1.41738 0.254251 0
M  V30 251 H 24.6486 -3.8365 -1.7433 0
M  V30 252 H 23.3726 -2.61279 -1.95961 0
M  V30 253 H 22.0316 -3.66451 -0.104489 0
M  V30 254 H 21.6796 -4.3788 -2.47529 0
M  V30 255 H 21.3796 -5.72059 -1.34249 0
M  V30 256 H 22.9036 -5.66701 -2.27338 0
M  V30 257 H 24.3176 -5.733 -0.00290157 0
M  V30 258 H 22.7146 -5.95305 0.757067 0
M  V30 259 H 23.7846 -4.66217 1.33303 0
M  V30 260 N 25.1277 -0.289203 -1.54924 0
M  V30 261 C 26.0747 0.592115 -2.23075 0
M  V30 262 C 27.0447 1.13881 -1.20915 0
M  V30 263 O 28.2297 1.18551 -1.495 0
M  V30 264 C 25.3697 1.76376 -2.96623 0
M  V30 265 C 24.4827 1.24959 -4.13533 0
M  V30 266 C 23.6177 2.38416 -4.74691 0
M  V30 267 C 22.6567 1.84072 -5.83767 0
M  V30 268 N 21.7937 2.91057 -6.38929 0
M  V30 269 H 26.6337 0.00432038 -2.98 0
M  V30 270 H 24.1707 -0.00963529 -1.47097 0
M  V30 271 H 26.1287 2.45268 -3.3749 0
M  V30 272 H 24.7587 2.32337 -2.24097 0
M  V30 273 H 23.8107 0.453307 -3.77689 0
M  V30 274 H 25.1227 0.811662 -4.92152 0
M  V30 275 H 24.2767 3.15276 -5.18349 0
M  V30 276 H 23.0157 2.8553 -3.95378 0
M  V30 277 H 22.0207 1.05697 -5.39545 0
M  V30 278 H 23.2457 1.37877 -6.64956 0
M  V30 279 H 21.1917 3.37526 -5.62505 0
M  V30 280 H 21.1087 2.51724 -7.12861 0
M  V30 281 H 22.3767 3.6785 -6.87246 0
M  V30 282 N 26.6058 1.57591 -0.0167156 0
M  V30 283 C 27.8358 1.95292 0.674149 0
M  V30 284 C 28.2438 0.891097 1.66901 0
M  V30 285 O 27.5868 -0.136908 1.83189 0
M  V30 286 C 27.6488 3.29072 1.44747 0
M  V30 287 C 27.3128 4.52879 0.612331 0
M  V30 288 C 28.3098 5.1979 -0.107126 0
M  V30 289 C 25.9948 4.99242 0.553381 0
M  V30 290 C 27.9888 6.31375 -0.874339 0
M  V30 291 C 25.6758 6.10713 -0.217546 0
M  V30 292 C 26.6738 6.76637 -0.930123 0
M  V30 293 O 26.3618 7.85969 -1.68844 0
M  V30 294 H 26.0938 0.648275 0.191615 0
M  V30 295 H 28.6478 2.05284 -0.0690148 0
M  V30 296 H 26.8778 3.15535 2.2355 0
M  V30 297 H 28.5668 3.51764 2.02526 0
M  V30 298 H 29.3328 4.84948 -0.0708392 0
M  V30 299 H 25.2118 4.47744 1.09757 0
M  V30 300 H 28.7558 6.82764 -1.43106 0
M  V30 301 H 24.6528 6.44994 -0.255593 0
M  V30 302 H 25.4208 8.02571 -1.6069 0
M  V30 303 N 28.0839 -0.256276 1.55502 0
M  V30 304 C 29.3239 -0.993081 1.78654 0
M  V30 305 C 29.6879 -1.8288 0.584724 0
M  V30 306 O 30.8889 -2.59665 0.694822 0
M  V30 307 C 29.1599 -1.83856 3.06483 0
M  V30 308 S 30.7189 -2.63573 3.5082 0
M  V30 309 H 27.5369 -0.334199 0.62756 0
M  V30 310 H 30.1389 -0.26184 1.93739 0
M  V30 311 H 28.8429 -1.21414 3.92029 0
M  V30 312 H 28.3739 -2.61271 2.94111 0
M  V30 313 H 30.3889 -3.86312 3.11412 0
M  V30 314 N 29.562 -1.4872 -0.521534 0
M  V30 315 C 30.492 -1.66771 -1.63431 0
M  V30 316 C 31.473 -0.516499 -1.62069 0
M  V30 317 O 32.658 -0.750013 -1.79132 0
M  V30 318 C 29.788 -1.71515 -3.01993 0
M  V30 319 C 28.742 -2.86222 -3.18216 0
M  V30 320 C 28.068 -2.76061 -4.57924 0
M  V30 321 C 29.368 -4.27419 -3.00184 0
M  V30 322 H 31.062 -2.59932 -1.48579 0
M  V30 323 H 28.608 -1.25089 -0.713358 0
M  V30 324 H 30.561 -1.82731 -3.7972 0
M  V30 325 H 29.285 -0.749393 -3.17886 0
M  V30 326 H 27.944 -2.74575 -2.42908 0
M  V30 327 H 27.592 -1.77437 -4.70665 0
M  V30 328 H 27.292 -3.53037 -4.69722 0
M  V30 329 H 28.816 -2.89256 -5.37739 0
M  V30 330 H 30.23 -4.39855 -3.67697 0
M  V30 331 H 28.627 -5.05458 -3.2347 0
M  V30 332 H 29.697 -4.43293 -1.96518 0
M  V30 333 N 31.0401 0.771051 -1.3745 0
M  V30 334 C 32.2861 1.5319 -1.32894 0
M  V30 335 C 32.6191 1.94008 0.0862511 0
M  V30 336 O 31.8941 1.64124 1.04373 0
M  V30 337 C 32.1771 2.79648 -2.26868 0
M  V30 338 C 32.0301 2.45079 -3.77169 0
M  V30 339 C 33.3491 3.81583 -2.19277 0
M  V30 340 H 30.4681 0.555744 -0.484064 0
M  V30 341 H 33.1101 0.884492 -1.68157 0
M  V30 342 H 31.2601 3.34891 -1.96926 0
M  V30 343 H 32.9321 1.95745 -4.1771 0
M  V30 344 H 31.1751 1.77767 -3.95704 0
M  V30 345 H 31.8461 3.35478 -4.38359 0
M  V30 346 H 34.3221 3.35835 -2.45671 0
M  V30 347 H 33.1981 4.67787 -2.87171 0
M  V30 348 H 33.4591 4.25897 -1.18592 0
M  V30 349 N 32.5182 1.22032 0.997298 0
M  V30 350 C 33.7672 1.03637 1.73038 0
M  V30 351 C 34.0802 -0.429475 1.90827 0
M  V30 352 O 35.2862 -0.732995 2.61418 0
M  V30 353 C 33.7422 1.80582 3.11317 0
M  V30 354 C 33.3502 3.31387 3.01474 0
M  V30 355 C 35.0942 1.70621 3.88701 0
M  V30 356 C 33.0012 4.00791 4.3488 0
M  V30 357 H 31.9312 0.384179 0.648785 0
M  V30 358 H 34.5822 1.4584 1.11368 0
M  V30 359 H 32.9642 1.31175 3.73643 0
M  V30 360 H 34.1382 3.88155 2.4834 0
M  V30 361 H 32.4532 3.41976 2.37575 0
M  V30 362 H 35.0502 2.19799 4.87434 0
M  V30 363 H 35.3932 0.665823 4.10941 0
M  V30 364 H 35.9262 2.17547 3.33044 0
M  V30 365 H 32.6652 5.05064 4.1784 0
M  V30 366 H 32.1852 3.48811 4.87945 0
M  V30 367 H 33.8642 4.06139 5.03647 0
M  V30 368 N 33.9963 -1.19345 1.0293 0
M  V30 369 C 34.9263 -2.2481 0.631105 0
M  V30 370 C 35.9073 -1.66245 -0.360104 0
M  V30 371 O 37.0923 -1.92677 -0.242726 0
M  V30 372 C 34.2223 -3.47295 -0.0184607 0
M  V30 373 C 33.1763 -4.18536 0.895073 0
M  V30 374 C 32.5023 -5.34586 0.110592 0
M  V30 375 C 33.8023 -4.73287 2.209 0
M  V30 376 H 35.4963 -2.58372 1.51275 0
M  V30 377 H 33.0423 -1.24194 0.728818 0
M  V30 378 H 34.9953 -4.20268 -0.308675 0
M  V30 379 H 33.7193 -3.12933 -0.934907 0
M  V30 380 H 32.3783 -3.47446 1.16949 0
M  V30 381 H 32.0263 -4.96469 -0.807902 0
M  V30 382 H 31.7263 -5.83183 0.719087 0
M  V30 383 H 33.2503 -6.10355 -0.172871 0
M  V30 384 H 34.6643 -5.38013 1.98028 0
M  V30 385 H 33.0613 -5.32373 2.76946 0
M  V30 386 H 34.1313 -3.91331 2.86336 0
M  V30 387 N 35.4744 -0.807222 -1.35358 0
M  V30 388 C 36.4224 -0.20614 -2.31685 0
M  V30 389 C 37.4164 0.644445 -1.56663 0
M  V30 390 O 38.6224 0.537538 -1.71786 0
M  V30 391 H 34.9974 -0.0479006 -0.750473 0
M  V30 392 H 36.9684 -1.03369 -2.79924 0
M  V30 393 C 35.7174 0.630212 -3.41941 0
M  V30 394 H 35.0404 -0.0149558 -3.99797 0
M  V30 395 H 36.4804 1.01716 -4.11619 0
M  V30 396 C 34.9394 1.79601 -2.85035 0
M  V30 397 O 35.4694 2.89351 -2.78637 0
M  V30 398 N 33.6754 1.60774 -2.42074 0
M  V30 399 H 33.2224 0.715009 -2.47478 0
M  V30 400 H 33.1804 2.38933 -2.04349 0
M  V30 401 N 36.9525 1.47285 -0.560781 0
M  V30 402 C 37.8845 2.28118 0.222438 0
M  V30 403 C 38.8975 1.37219 0.876056 0
M  V30 404 O 40.0865 1.62011 0.749307 0
M  V30 405 C 37.1865 3.1159 1.33285 0
M  V30 406 C 36.3595 4.30473 0.77534 0
M  V30 407 C 35.4185 4.95513 1.77069 0
M  V30 408 O 34.4445 5.53792 1.31539 0
M  V30 409 N 35.6465 4.90531 3.10418 0
M  V30 410 H 38.4115 2.95976 -0.470958 0
M  V30 411 H 35.9725 1.56955 -0.39709 0
M  V30 412 H 37.9645 3.51967 1.99752 0
M  V30 413 H 36.5345 2.45951 1.92943 0
M  V30 414 H 35.7545 3.94144 -0.0662113 0
M  V30 415 H 37.0425 5.07362 0.382272 0
M  V30 416 H 36.4405 4.44389 3.5005 0
M  V30 417 H 34.9975 5.34917 3.72434 0
M  V30 418 N 38.4306 0.297415 1.54768 0
M  V30 419 C 39.8416 -0.195947 1.85669 0
M  V30 420 C 40.1926 -1.53707 1.21937 0
M  V30 421 O 39.3176 -2.10164 0.515754 0
M  V30 422 C 39.9126 -0.362318 3.36857 0
M  V30 423 C 38.4716 -0.799901 3.67802 0
M  V30 424 C 37.6186 0.0938578 2.77141 0
M  V30 425 H 40.5696 0.518538 1.4999 0
M  V30 426 H 40.5906 -1.19745 3.61167 0
M  V30 427 H 40.1026 0.613921 3.83214 0
M  V30 428 H 38.2036 -1.78682 3.26961 0
M  V30 429 H 38.3166 -0.621773 4.75048 0
M  V30 430 H 36.6806 -0.426254 2.51108 0
M  V30 431 H 37.4636 1.06639 3.26318 0
M  V30 432 N 39.9087 -1.5758 0.0250728 0
M  V30 433 C 40.8387 -2.13007 -0.956575 0
M  V30 434 C 41.8197 -1.0452 -1.342 0
M  V30 435 O 43.0047 -1.32332 -1.42133 0
M  V30 436 C 40.1347 -2.65386 -2.24026 0
M  V30 437 C 39.0887 -3.78623 -1.99571 0
M  V30 438 C 38.4147 -4.17414 -3.3417 0
M  V30 439 C 39.7147 -5.04867 -1.33814 0
M  V30 440 H 41.4087 -2.9528 -0.494991 0
M  V30 441 H 38.9547 -1.42042 -0.236651 0
M  V30 442 H 40.9077 -3.02794 -2.93076 0
M  V30 443 H 39.6317 -1.80268 -2.72343 0
M  V30 444 H 38.2907 -3.41646 -1.32941 0
M  V30 445 H 37.9387 -3.29284 -3.80238 0
M  V30 446 H 37.6387 -4.93719 -3.18615 0
M  V30 447 H 39.1627 -4.57402 -4.04495 0
M  V30 448 H 40.5767 -5.39888 -1.92857 0
M  V30 449 H 38.9737 -5.86144 -1.28669 0
M  V30 450 H 40.0437 -4.83904 -0.310561 0
M  V30 451 N 41.3868 0.248026 -1.55636 0
M  V30 452 C 42.6638 0.998988 -1.68165 0
M  V30 453 C 43.0438 2.03409 -0.564621 0
M  V30 454 O 42.3918 2.24378 0.432076 0
M  V30 455 C 42.6018 1.63334 -3.0842 0
M  V30 456 C 43.9498 2.13562 -3.66983 0
M  V30 457 O 44.9738 1.73277 -3.11213 0
M  V30 458 O 43.8328 2.87526 -4.64749 0
M  V30 459 H 40.9268 0.464933 -0.683935 0
M  V30 460 H 43.4728 0.241902 -1.67967 0
M  V30 461 H 42.2448 0.884583 -3.8117 0
M  V30 462 H 41.8678 2.45666 -3.12624 0
M  V30 463 N 42.8649 1.48995 0.513639 0
M  V30 464 C 43.8129 1.65199 1.63744 0
M  V30 465 C 44.8069 0.51809 1.61283 0
M  V30 466 O 46.0129 0.697335 1.65943 0
M  V30 467 H 42.3879 0.52069 0.542574 0
M  V30 468 H 44.3589 2.59552 1.47226 0
M  V30 469 C 43.1079 1.72409 3.01945 0
M  V30 470 H 42.4309 2.59029 3.04539 0
M  V30 471 H 43.8709 1.87785 3.80148 0
M  V30 472 C 42.3299 0.46618 3.33659 0
M  V30 473 O 42.8599 -0.413744 3.99564 0
M  V30 474 N 41.0659 0.332931 2.88687 0
M  V30 475 H 40.6129 1.04996 2.35231 0
M  V30 476 H 40.5709 -0.507665 3.10274 0
M  V30 477 N 44.343 -0.763751 1.37857 0
M  V30 478 C 45.573 -1.55067 1.3652 0
M  V30 479 C 45.981 -1.89135 -0.0494227 0
M  V30 480 O 45.324 -1.52529 -1.02375 0
M  V30 481 C 45.386 -2.8838 2.14656 0
M  V30 482 C 45.05 -2.76905 3.63555 0
M  V30 483 C 46.047 -2.4739 4.57268 0
M  V30 484 C 43.732 -2.94676 4.06781 0
M  V30 485 C 45.726 -2.35786 5.92186 0
M  V30 486 C 43.413 -2.82692 5.41782 0
M  V30 487 C 44.411 -2.53289 6.34298 0
M  V30 488 O 44.099 -2.41345 7.66817 0
M  V30 489 H 43.831 -0.486776 0.469069 0
M  V30 490 H 46.385 -0.953812 1.81911 0
M  V30 491 H 44.615 -3.50217 1.63967 0
M  V30 492 H 46.304 -3.49828 2.05852 0
M  V30 493 H 47.07 -2.33339 4.2518 0
M  V30 494 H 42.949 -3.16563 3.35126 0
M  V30 495 H 46.493 -2.12757 6.64365 0
M  V30 496 H 42.39 -2.96314 5.7347 0
M  V30 497 H 43.158 -2.56634 7.77226 0
M  V30 498 N 45.8211 -1.22559 -0.990812 0
M  V30 499 C 47.0681 -1.05141 -1.73065 0
M  V30 500 C 47.3961 0.413191 -1.9006 0
M  V30 501 O 46.6511 1.32257 -1.44245 0
M  V30 502 C 46.9501 -1.71011 -3.13831 0
M  V30 503 C 46.6161 -3.20911 -3.16745 0
M  V30 504 C 45.2781 -3.61812 -3.17247 0
M  V30 505 C 47.6301 -4.16846 -3.12872 0
M  V30 506 C 44.9581 -4.97127 -3.1158 0
M  V30 507 C 47.3101 -5.5214 -3.08746 0
M  V30 508 C 45.9741 -5.92419 -3.07565 0
M  V30 509 H 45.2441 -0.384738 -0.633291 0
M  V30 510 H 47.8911 -1.5235 -1.16025 0
M  V30 511 H 46.1961 -1.16133 -3.74193 0
M  V30 512 H 47.8931 -1.55023 -3.69823 0
M  V30 513 H 44.4831 -2.88344 -3.17105 0
M  V30 514 H 48.6671 -3.86263 -3.11632 0
M  V30 515 H 43.9231 -5.27562 -3.09012 0
M  V30 516 H 48.0971 -6.26201 -3.04705 0
M  V30 517 H 45.7241 -6.97236 -3.02929 0
M  V30 518 N 47.2992 1.18797 -1.03562 0
M  V30 519 C 48.7152 1.40671 -0.753917 0
M  V30 520 C 48.9152 1.9043 0.658686 0
M  V30 521 O 47.9712 2.08538 1.42366 0
M  V30 522 C 49.2842 2.41192 -1.79574 0
M  V30 523 C 50.8322 2.54928 -1.81606 0
M  V30 524 C 51.3072 3.58709 -2.84766 0
M  V30 525 N 52.7982 3.66212 -2.83625 0
M  V30 526 C 53.5332 4.46225 -3.60098 0
M  V30 527 N 53.0292 5.29888 -4.46308 0
M  V30 528 N 54.8222 4.40939 -3.4861 0
M  V30 529 H 46.9732 0.848221 -1.94728 0
M  V30 530 H 49.2362 0.435081 -0.842264 0
M  V30 531 H 48.9422 2.11669 -2.80872 0
M  V30 532 H 48.8162 3.40467 -1.62365 0
M  V30 533 H 51.2032 2.83771 -0.809817 0
M  V30 534 H 51.2842 1.55784 -2.02891 0
M  V30 535 H 50.9282 3.30607 -3.85566 0
M  V30 536 H 50.8582 4.57519 -2.60737 0
M  V30 537 H 53.3492 3.06466 -2.21105 0
M  V30 538 H 53.6622 5.88078 -5.01382 0
M  V30 539 H 52.0072 5.29326 -4.50377 0
M  V30 540 H 55.1982 3.74624 -2.80668 0
M  V30 541 H 55.3712 5.03056 -4.08459 0
M  V30 542 N 48.7773 0.814389 1.34928 0
M  V30 543 C 49.7273 0.202752 2.27097 0
M  V30 544 C 50.7113 -0.62799 1.48139 0
M  V30 545 O 51.9033 -0.483969 1.70255 0
M  V30 546 C 49.0323 -0.64146 3.37254 0
M  V30 547 C 48.1183 0.19944 4.23631 0
M  V30 548 N 48.5093 1.26628 4.89693 0
M  V30 549 C 46.8073 -0.0176433 4.45997 0
M  V30 550 C 47.5083 1.78031 5.53787 0
M  V30 551 N 46.4843 1.08553 5.32651 0
M  V30 552 H 50.2863 1.01893 2.75672 0
M  V30 553 H 47.8003 0.656332 1.48546 0
M  V30 554 H 49.7973 -1.09575 4.02243 0
M  V30 555 H 48.4573 -1.4559 2.9023 0
M  V30 556 H 49.4683 1.64901 4.90946 0
M  V30 557 H 46.1453 -0.800601 4.09752 0
M  V30 558 H 47.5353 2.67236 6.16469 0
M  V30 559 N 50.2554 -1.46986 0.568584 0
M  V30 560 C 51.1854 -2.32946 -0.160753 0
M  V30 561 C 52.1664 -1.44487 -0.897631 0
M  V30 562 O 53.3514 -1.73327 -0.875867 0
M  V30 563 C 50.4814 -3.26494 -1.18403 0
M  V30 564 C 49.4354 -4.24282 -0.562895 0
M  V30 565 C 48.7614 -5.07236 -1.69163 0
M  V30 566 C 50.0614 -5.19989 0.490761 0
M  V30 567 H 51.7554 -2.94175 0.556916 0
M  V30 568 H 49.3014 -1.4146 0.26927 0
M  V30 569 H 51.2544 -3.85477 -1.70251 0
M  V30 570 H 49.9784 -2.63343 -1.93179 0
M  V30 571 H 48.6374 -3.66541 -0.0656164 0
M  V30 572 H 48.2854 -4.4048 -2.42871 0
M  V30 573 H 47.9854 -5.7345 -1.28174 0
M  V30 574 H 49.5094 -5.6908 -2.21314 0
M  V30 575 H 50.9234 -5.73271 0.0579047 0
M  V30 576 H 49.3204 -5.94469 0.820165 0
M  V30 577 H 50.3904 -4.64777 1.3824 0
M  V30 578 N 51.7335 -0.305618 -1.54608 0
M  V30 579 C 52.9795 0.295595 -2.01241 0
M  V30 580 C 53.3345 1.51171 -1.19018 0
M  V30 581 O 52.6275 1.89832 -0.259684 0
M  V30 582 C 52.8215 0.698983 -3.50498 0
M  V30 583 C 52.6505 -0.476491 -4.47168 0
M  V30 584 C 51.4205 -0.969963 -4.95903 0
M  V30 585 C 53.6185 -1.32294 -4.96994 0
M  V30 586 N 51.6005 -2.11172 -5.76437 0
M  V30 587 C 52.9715 -2.31212 -5.75275 0
M  V30 588 C 55.0265 -1.35278 -4.7917 0
M  V30 589 C 53.7295 -3.32896 -6.37631 0
M  V30 590 C 55.7555 -2.35823 -5.42348 0
M  V30 591 C 55.1175 -3.33469 -6.20466 0
M  V30 592 H 51.2165 0.0724992 -0.778632 0
M  V30 593 H 53.8005 -0.436583 -1.89742 0
M  V30 594 H 51.9715 1.40032 -3.62278 0
M  V30 595 H 53.7035 1.28013 -3.8392 0
M  V30 596 H 50.4585 -0.544178 -4.70463 0
M  V30 597 H 50.8825 -2.68714 -6.21387 0
M  V30 598 H 55.5245 -0.61157 -4.18354 0
M  V30 599 H 53.2425 -4.07933 -6.97579 0
M  V30 600 H 56.8285 -2.38911 -5.30484 0
M  V30 601 H 55.7085 -4.09996 -6.68485 0
M  V30 602 N 53.2116 1.57565 -0.0334293 0
M  V30 603 C 54.1596 2.1164 0.96496 0
M  V30 604 C 55.1536 1.04398 1.33407 0
M  V30 605 O 56.3596 1.22828 1.3158 0
M  V30 606 H 52.7346 0.676222 0.32898 0
M  V30 607 H 54.7056 2.94455 0.483614 0
M  V30 608 C 53.4546 2.66207 2.23672 0
M  V30 609 H 52.7776 3.48378 1.96145 0
M  V30 610 H 54.2176 3.07685 2.9173 0
M  V30 611 C 52.6766 1.59151 2.96939 0
M  V30 612 O 53.2066 0.993858 3.89211 0
M  V30 613 N 51.4126 1.31093 2.59351 0
M  V30 614 H 50.9596 1.7988 1.84393 0
M  V30 615 H 50.9176 0.596889 3.08682 0
M  V30 616 N 54.6897 -0.239769 1.55765 0
M  V30 617 C 55.6367 -1.29696 1.90913 0
M  V30 618 C 56.6067 -1.47478 0.764164 0
M  V30 619 O 57.7917 -1.61345 1.01845 0
M  V30 620 C 54.9317 -2.64598 2.21544 0
M  V30 621 C 54.0447 -2.54765 3.48882 0
M  V30 622 C 53.1797 -3.82069 3.69049 0
M  V30 623 C 52.2187 -3.66883 4.89963 0
M  V30 624 N 51.3557 -4.86094 5.06614 0
M  V30 625 H 56.1957 -0.990224 2.81067 0
M  V30 626 H 53.7327 -0.477684 1.39128 0
M  V30 627 H 55.6907 -3.43132 2.3731 0
M  V30 628 H 54.3207 -2.93405 1.34585 0
M  V30 629 H 53.3727 -1.67763 3.41409 0
M  V30 630 H 54.6847 -2.39457 4.37563 0
M  V30 631 H 53.8387 -4.69046 3.84812 0
M  V30 632 H 52.5777 -4.00282 2.78614 0
M  V30 633 H 51.5827 -2.78289 4.74168 0
M  V30 634 H 52.8077 -3.50157 5.81865 0
M  V30 635 H 50.7537 -5.04655 4.19117 0
M  V30 636 H 50.6707 -4.73443 5.89396 0
M  V30 637 H 51.9387 -5.74549 5.26795 0
M  V30 638 N 56.1678 -1.49265 -0.50573 0
M  V30 639 C 57.1308 -1.65075 -1.59006 0
M  V30 640 C 58.1308 -0.522768 -1.52065 0
M  V30 641 O 59.3208 -0.789117 -1.55302 0
M  V30 642 C 56.4528 -1.64369 -2.98656 0
M  V30 643 H 57.6458 -2.61784 -1.46319 0
M  V30 644 H 55.1988 -1.38226 -0.729616 0
M  V30 645 H 55.9338 -0.692272 -3.16825 0
M  V30 646 H 55.7188 -2.46282 -3.05103 0
M  V30 647 H 57.2088 -1.78674 -3.77446 0
M  V30 648 N 57.6459 0.756429 -1.3826 0
M  V30 649 C 58.5759 1.88374 -1.37976 0
M  V30 650 C 59.5569 1.68311 -0.246082 0
M  V30 651 O 60.7419 1.88944 -0.44874 0
M  V30 652 C 57.8719 3.25864 -1.20125 0
M  V30 653 C 56.8259 3.60523 -2.30666 0
M  V30 654 C 56.1519 4.9672 -1.97923 0
M  V30 655 C 57.4519 3.65692 -3.72916 0
M  V30 656 H 59.1459 1.88869 -2.32312 0
M  V30 657 H 56.6919 0.907272 -1.11824 0
M  V30 658 H 58.6449 4.0438 -1.18552 0
M  V30 659 H 57.3689 3.25841 -0.222498 0
M  V30 660 H 56.0279 2.84324 -2.3142 0
M  V30 661 H 55.6759 4.93253 -0.985393 0
M  V30 662 H 55.3759 5.20878 -2.71955 0
M  V30 663 H 56.8999 5.77618 -1.97964 0
M  V30 664 H 58.3139 4.34328 -3.74208 0
M  V30 665 H 56.7109 4.01358 -4.4613 0
M  V30 666 H 57.7809 2.65987 -4.05436 0
M  V30 667 N 59.124 1.23083 0.984299 0
M  V30 668 C 60.054 1.03292 2.09411 0
M  V30 669 C 61.035 -0.048923 1.7003 0
M  V30 670 O 62.22 0.114967 1.93859 0
M  V30 671 C 59.35 0.619155 3.41736 0
M  V30 672 C 58.304 1.64791 3.95004 0
M  V30 673 C 57.63 1.0897 5.23478 0
M  V30 674 C 58.93 3.03999 4.24714 0
M  V30 675 H 60.624 1.96119 2.26225 0
M  V30 676 H 58.17 0.944344 1.08711 0
M  V30 677 H 60.123 0.467777 4.18796 0
M  V30 678 H 58.847 -0.344786 3.24775 0
M  V30 679 H 57.506 1.78721 3.20085 0
M  V30 680 H 57.154 0.11686 5.02864 0
M  V30 681 H 56.854 1.77704 5.60085 0
M  V30 682 H 58.378 0.950093 6.03163 0
M  V30 683 H 59.792 2.93393 4.92538 0
M  V30 684 H 58.189 3.69936 4.72512 0
M  V30 685 H 59.259 3.53285 3.32142 0
M  V30 686 N 60.6021 -1.18246 1.0419 0
M  V30 687 C 62.0181 -1.40269 0.761366 0
M  V30 688 C 62.2181 -1.90777 -0.648578 0
M  V30 689 O 61.2741 -2.0929 -1.41258 0
M  V30 690 C 62.5871 -2.40237 1.8085 0
M  V30 691 C 64.1351 -2.53961 1.82955 0
M  V30 692 C 64.6101 -3.57194 2.86664 0
M  V30 693 N 66.1011 -3.64702 2.85563 0
M  V30 694 C 66.8361 -4.44309 3.6246 0
M  V30 695 N 66.3321 -5.27514 4.49111 0
M  V30 696 N 68.1251 -4.39084 3.50944 0
M  V30 697 H 60.2761 -0.837882 1.95175 0
M  V30 698 H 62.5391 -0.430608 0.84456 0
M  V30 699 H 62.2451 -2.10176 2.81991 0
M  V30 700 H 62.1191 -3.39601 1.64168 0
M  V30 701 H 64.5061 -2.83338 0.824855 0
M  V30 702 H 64.5871 -1.54706 2.03715 0
M  V30 703 H 64.2311 -3.28558 3.87314 0
M  V30 704 H 64.1611 -4.5613 2.6316 0
M  V30 705 H 66.6521 -3.05289 2.22727 0
M  V30 706 H 66.9651 -5.85411 5.04493 0
M  V30 707 H 65.3101 -5.2693 4.53178 0
M  V30 708 H 68.5011 -3.7313 2.82651 0
M  V30 709 H 68.6741 -5.00883 4.11121 0
M  V30 710 N 62.0802 -0.821533 -1.34494 0
M  V30 711 C 63.0432 -0.247847 -2.27856 0
M  V30 712 C 64.0432 0.573453 -1.50227 0
M  V30 713 O 65.2332 0.389759 -1.69784 0
M  V30 714 C 62.3652 0.652698 -3.34593 0
M  V30 715 H 63.5582 -1.07146 -2.80107 0
M  V30 716 H 61.1112 -0.593291 -1.44602 0
M  V30 717 H 61.8462 1.49943 -2.87555 0
M  V30 718 H 61.6312 0.065292 -3.92046 0
M  V30 719 H 63.1212 1.04793 -4.04238 0
M  V30 720 N 63.5583 1.46682 -0.576371 0
M  V30 721 C 64.7983 2.04306 -0.0621356 0
M  V30 722 C 65.1623 1.4389 1.2712 0
M  V30 723 O 66.3633 1.92675 1.87429 0
M  V30 724 C 64.6343 3.57399 0.00927922 0
M  V30 725 S 66.1933 4.36309 0.466859 0
M  V30 726 H 63.0113 0.710167 -0.0344016 0
M  V30 727 H 65.6133 1.79807 -0.767437 0
M  V30 728 H 64.3173 3.98889 -0.965178 0
M  V30 729 H 63.8483 3.86424 0.737547 0
M  V30 730 H 65.8633 4.6533 1.72287 0
M  V30 731 N 65.0364 0.313813 1.54444 0
M  V30 732 C 65.9994 -0.54379 2.22656 0
M  V30 733 C 66.9994 -1.05124 1.21678 0
M  V30 734 O 68.1894 -0.945225 1.46325 0
M  V30 735 C 65.3214 -1.75427 2.92298 0
M  V30 736 H 66.5144 0.0523599 2.99854 0
M  V30 737 H 64.0674 0.0647834 1.56166 0
M  V30 738 H 64.8024 -2.38991 2.19211 0
M  V30 739 H 64.5874 -1.39791 3.66334 0
M  V30 740 H 66.0774 -2.36325 3.44297 0
M  V30 741 N 66.5145 -1.57545 0.0417849 0
M  V30 742 C 67.7915 -1.83642 -0.673433 0
M  V30 743 C 68.1715 -0.928298 -1.89594 0
M  V30 744 O 67.5195 0.0129955 -2.28496 0
M  V30 745 C 67.7295 -3.33155 -1.03964 0
M  V30 746 C 69.0775 -3.99941 -1.42592 0
M  V30 747 O 70.1015 -3.37725 -1.13226 0
M  V30 748 O 68.9605 -5.09619 -1.9736 0
M  V30 749 H 66.0545 -0.757638 -0.331533 0
M  V30 750 H 68.6005 -1.69554 0.070433 0
M  V30 751 H 67.3725 -3.9093 -0.170098 0
M  V30 752 H 66.9955 -3.52396 -1.84126 0
M  V30 753 N 67.9926 0.231505 -1.5589 0
M  V30 754 C 69.2406 0.955461 -1.78088 0
M  V30 755 C 69.5616 1.85262 -0.608533 0
M  V30 756 O 68.8316 1.92277 0.375035 0
M  V30 757 H 67.4116 0.355787 -0.656829 0
M  V30 758 H 70.0736 0.245751 -1.93344 0
M  V30 759 H 69.1696 1.56814 -2.69844 0
M  V30 760 N 69.4707 1.49531 0.497807 0
M  V30 761 C 70.7187 1.58865 1.24926 0
M  V30 762 C 71.0397 0.278721 1.92998 0
M  V30 763 O 70.3097 -0.702144 1.82885 0
M  V30 764 H 68.8897 0.585343 0.464094 0
M  V30 765 H 71.5517 1.86174 0.57666 0
M  V30 766 H 70.6477 2.38633 2.01149 0
M  V30 767 N 70.9488 -0.749086 1.3866 0
M  V30 768 C 71.9118 -1.84457 1.36045 0
M  V30 769 C 72.9118 -1.58682 0.260122 0
M  V30 770 O 74.1018 -1.66343 0.517261 0
M  V30 771 C 71.2338 -3.22008 1.11911 0
M  V30 772 H 72.4268 -1.88182 2.33512 0
M  V30 773 H 69.9798 -0.951266 1.24019 0
M  V30 774 H 70.7148 -3.2395 0.150686 0
M  V30 775 H 70.4998 -3.42111 1.91579 0
M  V30 776 H 71.9898 -4.0208 1.12788 0
M  V30 777 N 72.4269 -1.23603 -0.977757 0
M  V30 778 C 73.3749 -1.01704 -2.09187 0
M  V30 779 C 74.3689 0.0448214 -1.69341 0
M  V30 780 O 75.5749 -0.108902 -1.7967 0
M  V30 781 H 71.9499 -0.311803 -0.684312 0
M  V30 782 H 73.9209 -1.96207 -2.24823 0
M  V30 783 C 72.6699 -0.627746 -3.41986 0
M  V30 784 H 71.9929 -1.43656 -3.73099 0
M  V30 785 H 73.4329 -0.514053 -4.20872 0
M  V30 786 C 71.8919 0.664238 -3.30287 0
M  V30 787 O 72.4219 1.71268 -3.6336 0
M  V30 788 N 70.6279 0.641156 -2.83439 0
M  V30 789 H 70.1749 -0.212376 -2.56723 0
M  V30 790 H 70.1329 1.50583 -2.75993 0
M  V30 791 N 73.905 1.17692 -1.04816 0
M  V30 792 C 75.321 1.39863 -0.768794 0
M  V30 793 C 75.521 1.91118 0.638451 0
M  V30 794 O 74.577 2.10036 1.40146 0
M  V30 795 C 75.89 2.39274 -1.82122 0
M  V30 796 C 77.438 2.52987 -1.843 0
M  V30 797 C 77.913 3.55669 -2.88555 0
M  V30 798 N 79.404 3.63183 -2.87493 0
M  V30 799 C 80.139 4.42381 -3.64811 0
M  V30 800 N 79.635 5.25125 -4.51903 0
M  V30 801 N 81.428 4.37217 -3.53267 0
M  V30 802 H 73.579 0.82752 -1.95617 0
M  V30 803 H 75.842 0.426123 -0.846831 0
M  V30 804 H 75.548 2.08678 -2.83102 0
M  V30 805 H 75.422 3.38725 -1.65967 0
M  V30 806 H 77.809 2.82896 -0.839869 0
M  V30 807 H 77.89 1.53623 -2.04532 0
M  V30 808 H 77.534 3.26499 -3.89051 0
M  V30 809 H 77.464 4.54728 -2.65575 0
M  V30 810 H 79.955 3.04103 -2.24343 0
M  V30 811 H 80.268 5.82728 -5.07591 0
M  V30 812 H 78.613 5.24519 -4.55966 0
M  V30 813 H 81.804 3.71626 -2.84625 0
M  V30 814 H 81.977 4.98696 -4.13771 0
M  V30 815 N 75.3831 0.828654 1.34056 0
M  V30 816 C 76.3131 0.269443 2.3194 0
M  V30 817 C 77.2941 -0.617247 1.58506 0
M  V30 818 O 78.4791 -0.542931 1.86456 0
M  V30 819 C 75.6091 -0.564793 3.42677 0
M  V30 820 C 74.5631 0.225241 4.27407 0
M  V30 821 C 73.8891 -0.7321 5.29664 0
M  V30 822 C 75.1891 1.43663 5.02154 0
M  V30 823 H 76.8831 1.08728 2.7896 0
M  V30 824 H 74.4291 0.524283 1.34117 0
M  V30 825 H 76.3821 -0.966233 4.10173 0
M  V30 826 H 75.1061 -1.41574 2.9432 0
M  V30 827 H 73.7651 0.608117 3.61521 0
M  V30 828 H 73.4131 -1.57916 4.77568 0
M  V30 829 H 73.1131 -0.20767 5.87233 0
M  V30 830 H 74.6371 -1.13128 6.00029 0
M  V30 831 H 76.0511 1.1089 5.62473 0
M  V30 832 H 74.4481 1.89711 5.69324 0
M  V30 833 H 75.5181 2.21181 4.31517 0
M  V30 834 N 76.8612 -1.46375 0.584142 0
M  V30 835 C 78.0912 -2.06461 0.0758195 0
M  V30 836 C 78.4992 -1.43322 -1.23512 0
M  V30 837 O 77.8422 -0.533216 -1.75791 0
M  V30 838 C 77.9042 -3.59131 -0.162773 0
M  V30 839 C 77.5682 -4.4447 1.06279 0
M  V30 840 C 78.5652 -4.80918 1.97519 0
M  V30 841 C 76.2502 -4.85584 1.28504 0
M  V30 842 C 78.2442 -5.57309 3.09331 0
M  V30 843 C 75.9312 -5.61734 2.4062 0
M  V30 844 C 76.9292 -5.9751 3.30863 0
M  V30 845 O 76.6172 -6.72121 4.41032 0
M  V30 846 H 76.3492 -0.673745 0.0551725 0
M  V30 847 H 78.9032 -1.88969 0.804984 0
M  V30 848 H 77.1332 -3.74936 -0.946565 0
M  V30 849 H 78.8222 -4.0114 -0.619782 0
M  V30 850 H 79.5882 -4.49732 1.81565 0
M  V30 851 H 75.4672 -4.57187 0.591702 0
M  V30 852 H 79.0112 -5.85152 3.79793 0
M  V30 853 H 74.9082 -5.92334 2.56537 0
M  V30 854 H 75.6762 -6.90547 4.39417 0
M  V30 855 N 78.3393 -0.321999 -1.54275 0
M  V30 856 C 79.6163 0.335232 -1.92706 0
M  V30 857 C 79.9963 1.70006 -1.25145 0
M  V30 858 O 79.3443 2.25067 -0.394596 0
M  V30 859 C 79.5543 0.429008 -3.46353 0
M  V30 860 C 80.9023 0.690029 -4.18956 0
M  V30 861 O 81.9263 0.511992 -3.52501 0
M  V30 862 O 80.7853 1.03338 -5.36641 0
M  V30 863 H 77.8793 0.191143 -0.804608 0
M  V30 864 H 80.4253 -0.3716 -1.65581 0
M  V30 865 H 79.1973 -0.529611 -3.87699 0
M  V30 866 H 78.8203 1.18348 -3.79578 0
M  V30 867 N 79.8174 1.5752 -0.0501392 0
M  V30 868 C 81.0664 1.91827 0.623328 0
M  V30 869 C 81.3794 0.930222 1.72065 0
M  V30 870 O 82.5854 1.1653 2.4522 0
M  V30 871 C 81.0414 3.40692 1.16003 0
M  V30 872 C 80.6494 4.479 0.0948811 0
M  V30 873 C 82.3934 3.84034 1.80881 0
M  V30 874 C 80.3004 5.87879 0.644411 0
M  V30 875 H 79.2304 0.715918 0.236596 0
M  V30 876 H 81.8814 1.83115 -0.118861 0
M  V30 877 H 80.2634 3.44405 1.9545 0
M  V30 878 H 81.4374 4.55775 -0.678675 0
M  V30 879 H 79.7524 4.13892 -0.45637 0
M  V30 880 H 82.3494 4.85984 2.22988 0
M  V30 881 H 82.6924 3.20225 2.6601 0
M  V30 882 H 83.2254 3.82833 1.0809 0
M  V30 883 H 79.9644 6.55282 -0.169229 0
M  V30 884 H 79.4844 5.83567 1.38598 0
M  V30 885 H 81.1634 6.37098 1.12763 0
M  V30 886 N 81.2955 -0.223234 1.56011 0
M  V30 887 C 82.5235 -0.964812 1.83027 0
M  V30 888 C 82.9385 -1.78013 0.62904 0
M  V30 889 O 82.2955 -1.78008 -0.402414 0
M  V30 890 C 82.3465 -1.88373 3.08542 0
M  V30 891 O 82.0675 -1.10137 4.2403 0
M  V30 892 C 83.5685 -2.73934 3.48533 0
M  V30 893 H 80.7885 -0.282842 0.608475 0
M  V30 894 H 83.3325 -0.238971 2.03099 0
M  V30 895 H 81.4875 -2.56354 2.9045 0
M  V30 896 H 81.9015 -1.72501 4.95322 0
M  V30 897 H 83.3755 -3.34117 4.39397 0
M  V30 898 H 83.8525 -3.46244 2.70207 0
M  V30 899 H 84.4585 -2.11369 3.69057 0
M  V30 900 N 82.7736 -1.49793 -0.48987 0
M  V30 901 C 83.6836 -1.70036 -1.61632 0
M  V30 902 C 84.6996 -0.583102 -1.63939 0
M  V30 903 O 85.8756 -0.859169 -1.82154 0
M  V30 904 C 82.9406 -1.77277 -2.97949 0
M  V30 905 C 82.0016 -3.00918 -3.06181 0
M  V30 906 C 81.2346 -3.07804 -4.35996 0
M  V30 907 O 81.4576 -2.21982 -5.25433 0
M  V30 908 O 80.3916 -4.00369 -4.49431 0
M  V30 909 H 84.2176 -2.65486 -1.47482 0
M  V30 910 H 81.8026 -1.33666 -0.667362 0
M  V30 911 H 83.6846 -1.84329 -3.78947 0
M  V30 912 H 82.3596 -0.850076 -3.12339 0
M  V30 913 H 81.2666 -2.99377 -2.2433 0
M  V30 914 H 82.5996 -3.92704 -2.96723 0
M  V30 915 N 84.2517 0.741722 -1.39055 0
M  V30 916 C 85.4997 1.49818 -1.35643 0
M  V30 917 C 85.8207 1.94938 0.0491642 0
M  V30 918 O 85.0907 1.68505 0.999141 0
M  V30 919 H 83.6707 0.555755 -0.499144 0
M  V30 920 H 86.3327 0.880957 -1.73854 0
M  V30 921 H 85.4287 2.38348 -2.01486 0
M  V30 922 N 85.7298 1.2412 0.971189 0
M  V30 923 C 86.6398 1.04747 2.09917 0
M  V30 924 C 87.6558 -0.0107162 1.73997 0
M  V30 925 O 88.8318 0.186714 2.00533 0
M  V30 926 C 85.8968 0.650828 3.40537 0
M  V30 927 C 84.9578 1.7851 3.90426 0
M  V30 928 C 84.1908 1.40729 5.14812 0
M  V30 929 O 84.4138 0.29557 5.69634 0
M  V30 930 O 83.3478 2.23168 5.58999 0
M  V30 931 H 87.1738 1.99304 2.29154 0
M  V30 932 H 84.7588 1.02908 1.08307 0
M  V30 933 H 86.6408 0.440992 4.19086 0
M  V30 934 H 85.3158 -0.265649 3.22608 0
M  V30 935 H 84.2228 2.04966 3.12953 0
M  V30 936 H 85.5558 2.68023 4.12825 0
M  V30 937 N 87.2079 -1.17134 1.05439 0
M  V30 938 C 88.6239 -1.39454 0.776201 0
M  V30 939 C 88.8239 -1.91454 -0.628307 0
M  V30 940 O 87.8799 -2.10777 -1.39031 0
M  V30 941 C 89.1929 -2.38305 1.83388 0
M  V30 942 C 90.7409 -2.52006 1.85639 0
M  V30 943 C 91.2159 -3.54133 2.90437 0
M  V30 944 N 92.7069 -3.61653 2.89415 0
M  V30 945 C 93.4419 -4.4044 3.67152 0
M  V30 946 N 92.9379 -5.22721 4.54681 0
M  V30 947 N 94.7309 -4.35337 3.55581 0
M  V30 948 H 86.8819 -0.817134 1.96053 0
M  V30 949 H 89.1449 -0.421626 0.849079 0
M  V30 950 H 88.8509 -2.07173 2.84204 0
M  V30 951 H 88.7249 -3.37841 1.67761 0
M  V30 952 H 91.1119 -2.82447 0.85486 0
M  V30 953 H 91.1929 -1.52537 2.05344 0
M  V30 954 H 90.8369 -3.24431 3.90777 0
M  V30 955 H 90.7669 -4.53313 2.67983 0
M  V30 956 H 93.2579 -3.02909 2.25952 0
M  V30 957 H 93.5709 -5.80027 5.10674 0
M  V30 958 H 91.9159 -5.22093 4.58741 0
M  V30 959 H 95.1069 -3.70112 2.86592 0
M  V30 960 H 95.2799 -4.96494 4.1641 0
M  V30 961 N 88.686 -0.835752 -1.33615 0
M  V30 962 C 89.596 -0.269088 -2.33052 0
M  V30 963 C 90.612 0.603251 -1.63208 0
M  V30 964 O 91.788 0.508112 -1.94885 0
M  V30 965 C 88.853 0.549091 -3.42324 0
M  V30 966 C 87.914 -0.347156 -4.27894 0
M  V30 967 C 87.147 0.43207 -5.31948 0
M  V30 968 O 87.37 1.66409 -5.45586 0
M  V30 969 O 86.304 -0.192298 -6.01593 0
M  V30 970 H 90.13 -1.09243 -2.83372 0
M  V30 971 H 87.715 -0.598198 -1.36901 0
M  V30 972 H 89.597 1.01414 -4.09015 0
M  V30 973 H 88.272 1.34955 -2.94226 0
M  V30 974 H 87.179 -0.859979 -3.64081 0
M  V30 975 H 88.512 -1.1123 -4.79467 0
M  V30 976 N 90.1641 1.46063 -0.591896 0
M  V30 977 C 91.3891 2.07226 -0.0850314 0
M  V30 978 C 91.8141 1.43625 1.21463 0
M  V30 979 O 91.1721 0.523305 1.73583 0
M  V30 980 C 91.2201 3.60554 0.0576567 0
M  V30 981 O 90.3241 3.97128 1.11188 0
M  V30 982 H 89.6651 0.660615 -0.0669568 0
M  V30 983 H 92.1951 1.8756 -0.81745 0
M  V30 984 H 92.2051 4.07165 0.2609 0
M  V30 985 H 90.8801 4.06235 -0.891416 0
M  V30 986 H 89.4571 3.62213 0.886356 0
M  V30 987 N 91.6422 0.330177 1.54103 0
M  V30 988 C 92.8892 -0.270405 2.00686 0
M  V30 989 C 93.2172 -1.51621 1.21825 0
M  V30 990 O 92.4722 -1.93536 0.29025 0
M  V30 991 C 92.7712 -0.643134 3.51566 0
M  V30 992 C 92.4372 0.504251 4.48072 0
M  V30 993 C 91.0992 0.819163 4.74176 0
M  V30 994 C 93.4512 1.27465 5.05373 0
M  V30 995 C 90.7792 1.90708 5.5484 0
M  V30 996 C 93.1312 2.35271 5.87223 0
M  V30 997 C 91.7952 2.67336 6.11627 0
M  V30 998 H 91.0652 -0.0989482 0.734364 0
M  V30 999 H 93.7122 0.455324 1.86008 0
M  V30 1000 H 92.0172 -1.44938 3.64006 0
M  V30 1001 H 93.7142 -1.11949 3.85056 0
M  V30 1002 H 90.3042 0.248733 4.27878 0
M  V30 1003 H 94.4882 1.04462 4.85182 0
M  V30 1004 H 89.7442 2.15991 5.71977 0
M  V30 1005 H 93.9182 2.95405 6.30641 0
M  V30 1006 H 91.5452 3.51763 6.73919 0
M  V30 1007 N 93.1203 -1.57491 0.0584922 0
M  V30 1008 C 94.0503 -2.14988 -0.911178 0
M  V30 1009 C 95.0313 -1.07343 -1.31952 0
M  V30 1010 O 96.2163 -1.35318 -1.39294 0
M  V30 1011 C 93.3463 -2.70078 -2.18347 0
M  V30 1012 C 92.3003 -3.82771 -1.91495 0
M  V30 1013 C 91.6263 -4.24408 -3.25241 0
M  V30 1014 C 92.9263 -5.07592 -1.23075 0
M  V30 1015 H 94.6203 -2.96263 -0.432246 0
M  V30 1016 H 92.1663 -1.42512 -0.206469 0
M  V30 1017 H 94.1193 -3.08943 -2.86587 0
M  V30 1018 H 92.8433 -1.86005 -2.68458 0
M  V30 1019 H 91.5023 -3.44389 -1.25664 0
M  V30 1020 H 91.1503 -3.37275 -3.73168 0
M  V30 1021 H 90.8503 -5.00366 -3.08071 0
M  V30 1022 H 92.3743 -4.65879 -3.94701 0
M  V30 1023 H 93.7883 -5.43857 -1.81362 0
M  V30 1024 H 92.1853 -5.88741 -1.16207 0
M  V30 1025 H 93.2553 -4.84454 -0.207847 0
M  V30 1026 N 94.5984 0.214957 -1.56127 0
M  V30 1027 C 96.0094 0.781386 -1.69562 0
M  V30 1028 C 96.3604 1.84707 -0.66165 0
M  V30 1029 O 95.4854 2.156 0.185927 0
M  V30 1030 C 96.0804 1.42411 -3.07416 0
M  V30 1031 C 94.6394 1.93786 -3.22683 0
M  V30 1032 C 93.7864 0.800438 -2.65496 0
M  V30 1033 H 96.7374 -0.00980633 -1.58697 0
M  V30 1034 H 96.7584 2.29309 -3.0364 0
M  V30 1035 H 96.2704 0.64826 -3.82648 0
M  V30 1036 H 94.3714 2.74152 -2.52332 0
M  V30 1037 H 94.4844 2.1133 -4.29973 0
M  V30 1038 H 92.8484 1.2095 -2.2415 0
M  V30 1039 H 93.6314 0.0371471 -3.4328 0
M  V30 1040 N 96.0765 1.50051 0.48192 0
M  V30 1041 C 96.9865 1.7089 1.60728 0
M  V30 1042 C 98.0025 0.591788 1.63627 0
M  V30 1043 O 99.1785 0.868817 1.81696 0
M  V30 1044 C 96.2435 1.78855 2.97005 0
M  V30 1045 C 95.3045 3.02537 3.04581 0
M  V30 1046 C 94.5375 3.10112 4.34357 0
M  V30 1047 O 94.7605 2.24765 5.24249 0
M  V30 1048 O 93.6945 4.02747 4.47301 0
M  V30 1049 H 97.5205 2.66264 1.46072 0
M  V30 1050 H 95.1055 1.34018 0.660264 0
M  V30 1051 H 96.9875 1.86336 3.77964 0
M  V30 1052 H 95.6625 0.866628 3.11883 0
M  V30 1053 H 94.5695 3.00563 2.22739 0
M  V30 1054 H 95.9025 3.94272 2.94636 0
M  V30 1055 N 97.5546 -0.734337 1.39446 0
M  V30 1056 C 98.8016 -1.49391 1.36706 0
M  V30 1057 C 99.1296 -1.94465 -0.0367813 0
M  V30 1058 O 98.3846 -1.67154 -1.01774 0
M  V30 1059 C 98.6836 -2.74711 2.28623 0
M  V30 1060 C 98.3496 -2.48501 3.76242 0
M  V30 1061 C 97.0116 -2.41062 4.16464 0
M  V30 1062 C 99.3636 -2.26098 4.69606 0
M  V30 1063 C 96.6916 -2.09262 5.48112 0
M  V30 1064 C 99.0436 -1.95814 6.01531 0
M  V30 1065 C 97.7076 -1.86845 6.40816 0
M  V30 1066 H 96.9776 -0.546661 0.500243 0
M  V30 1067 H 99.6246 -0.842788 1.71957 0
M  V30 1068 H 97.9296 -3.44569 1.86492 0
M  V30 1069 H 99.6266 -3.32741 2.23796 0
M  V30 1070 H 96.2166 -2.55169 3.44364 0
M  V30 1071 H 100.401 -2.30812 4.39363 0
M  V30 1072 H 95.6566 -2.00841 5.77471 0
M  V30 1073 H 99.8306 -1.77488 6.73403 0
M  V30 1074 H 97.4576 -1.6197 7.42745 0
M  V30 1075 N 99.0327 -1.24633 -0.964593 0
M  V30 1076 C 100.282 -1.08188 -1.7023 0
M  V30 1077 C 100.595 0.37873 -1.91898 0
M  V30 1078 O 101.801 0.663427 -2.6327 0
M  V30 1079 C 100.257 -1.88773 -3.06419 0
M  V30 1080 C 99.8647 -3.39263 -2.92582 0
M  V30 1081 C 101.609 -1.80867 -3.84041 0
M  V30 1082 C 99.5157 -4.1218 -4.24101 0
M  V30 1083 H 98.4457 -0.401245 -0.638372 0
M  V30 1084 H 101.097 -1.48742 -1.07462 0
M  V30 1085 H 99.4787 -1.41035 -3.70034 0
M  V30 1086 H 100.653 -3.94603 -2.37961 0
M  V30 1087 H 98.9677 -3.48154 -2.28424 0
M  V30 1088 H 101.565 -2.32646 -4.81435 0
M  V30 1089 H 101.908 -0.774543 -4.09031 0
M  V30 1090 H 102.441 -2.26301 -3.27159 0
M  V30 1091 H 99.1797 -5.15965 -4.04303 0
M  V30 1092 H 98.6997 -3.61626 -4.78526 0
M  V30 1093 H 100.379 -4.19349 -4.92702 0
M  V30 1094 N 100.511 1.16574 -1.06058 0
M  V30 1095 C 101.459 2.22941 -0.663343 0
M  V30 1096 C 102.453 1.66358 0.319593 0
M  V30 1097 O 103.659 1.7905 0.184713 0
M  V30 1098 H 100.034 0.725907 -0.196376 0
M  V30 1099 H 102.005 2.53736 -1.57037 0
M  V30 1100 C 100.754 3.47642 -0.0632808 0
M  V30 1101 H 100.077 3.91493 -0.810733 0
M  V30 1102 H 101.517 4.2363 0.177177 0
M  V30 1103 C 99.9758 3.1509 1.19248 0
M  V30 1104 O 100.506 3.30673 2.28075 0
M  V30 1105 N 98.7118 2.6924 1.09353 0
M  V30 1106 H 98.2588 2.5676 0.207912 0
M  V30 1107 H 98.2168 2.47833 1.93458 0
M  V30 1108 N 101.989 0.842826 1.3317 0
M  V30 1109 C 103.237 0.439577 1.97262 0
M  V30 1110 C 103.558 -1.00548 1.67078 0
M  V30 1111 O 102.828 -1.70098 0.971779 0
M  V30 1112 H 101.408 0.159558 0.72976 0
M  V30 1113 H 104.07 1.07665 1.62463 0
M  V30 1114 H 103.166 0.574886 3.0676 0
M  V30 1115 N 103.467 -1.45747 0.599634 0
M  V30 1116 C 104.744 -1.95585 0.0240846 0
M  V30 1117 C 105.124 -1.54217 -1.44154 0
M  V30 1118 O 104.472 -0.800903 -2.14004 0
M  V30 1119 C 104.682 -3.48344 0.21385 0
M  V30 1120 C 106.03 -4.24504 0.0904902 0
M  V30 1121 O 107.054 -3.55911 0.143558 0
M  V30 1122 O 105.913 -5.46491 -0.0310766 0
M  V30 1123 H 103.007 -0.82602 -0.0402478 0
M  V30 1124 H 105.553 -1.55951 0.669139 0
M  V30 1125 H 104.325 -3.71397 1.23206 0
M  V30 1126 H 103.948 -3.9485 -0.466842 0
M  V30 1127 N 104.945 -0.338344 -1.53925 0
M  V30 1128 C 106.192 0.259758 -2.00827 0
M  V30 1129 C 106.52 1.50973 -1.22628 0
M  V30 1130 O 105.775 1.93379 -0.300509 0
M  V30 1131 C 106.074 0.62448 -3.51902 0
M  V30 1132 C 105.74 -0.528006 -4.47798 0
M  V30 1133 C 104.402 -0.844298 -4.73735 0
M  V30 1134 C 106.754 -1.30143 -5.0469 0
M  V30 1135 C 104.082 -1.93648 -5.53821 0
M  V30 1136 C 106.434 -2.38382 -5.85967 0
M  V30 1137 C 105.098 -2.70576 -6.10201 0
M  V30 1138 H 104.368 0.0950523 -0.734878 0
M  V30 1139 H 107.015 -0.465182 -1.85764 0
M  V30 1140 H 105.32 1.43006 -3.64769 0
M  V30 1141 H 107.017 1.09905 -3.85645 0
M  V30 1142 H 103.607 -0.271421 -4.2774 0
M  V30 1143 H 107.791 -1.07033 -4.84621 0
M  V30 1144 H 103.047 -2.19021 -5.70824 0
M  V30 1145 H 107.221 -2.98746 -6.29066 0
M  V30 1146 H 104.848 -3.55333 -6.72044 0
M  V30 1147 N 106.423 1.57458 -0.0668435 0
M  V30 1148 C 107.7 1.8469 0.644132 0
M  V30 1149 C 108.08 0.958343 1.88093 0
M  V30 1150 O 107.428 0.0233579 2.28488 0
M  V30 1151 C 107.638 3.34767 0.986509 0
M  V30 1152 C 108.986 4.02159 1.36212 0
M  V30 1153 O 110.01 3.39484 1.07839 0
M  V30 1154 O 108.869 5.12694 1.89227 0
M  V30 1155 H 105.963 0.762816 0.319437 0
M  V30 1156 H 108.509 1.6942 -0.0973986 0
M  V30 1157 H 107.281 3.91151 0.107883 0
M  V30 1158 H 106.904 3.55281 1.78497 0
M  V30 1159 N 107.901 -0.206675 1.56239 0
M  V30 1160 C 109.126 -0.949474 1.8439 0
M  V30 1161 C 109.551 -1.76549 0.649016 0
M  V30 1162 O 108.909 -1.76782 -0.402231 0
M  V30 1163 C 108.957 -1.83078 3.10668 0
M  V30 1164 O 108.061 -2.9281 2.90407 0
M  V30 1165 H 107.402 -0.268033 0.607499 0
M  V30 1166 H 109.932 -0.215488 2.03462 0
M  V30 1167 H 109.942 -2.2377 3.41161 0
M  V30 1168 H 108.617 -1.23112 3.97261 0
M  V30 1169 H 107.194 -2.55956 2.71184 0
M  V30 1170 N 109.379 -1.50304 -0.473955 0
M  V30 1171 C 110.628 -1.60392 -1.22301 0
M  V30 1172 C 110.941 -0.308411 -1.93153 0
M  V30 1173 O 112.147 -0.288156 -2.69966 0
M  V30 1174 C 110.603 -2.83109 -2.2221 0
M  V30 1175 C 110.211 -4.19524 -1.57173 0
M  V30 1176 C 111.955 -3.0254 -2.97775 0
M  V30 1177 C 109.862 -5.33431 -2.55353 0
M  V30 1178 H 108.792 -0.597286 -0.460179 0
M  V30 1179 H 111.443 -1.76731 -0.493803 0
M  V30 1180 H 109.825 -2.60322 -2.9841 0
M  V30 1181 H 110.999 -4.52554 -0.867824 0
M  V30 1182 H 109.314 -4.05674 -0.939002 0
M  V30 1183 H 111.911 -3.84811 -3.71248 0
M  V30 1184 H 112.254 -2.14154 -3.56992 0
M  V30 1185 H 112.787 -3.25494 -2.28688 0
M  V30 1186 H 109.526 -6.23962 -2.00878 0
M  V30 1187 H 109.046 -5.04823 -3.23904 0
M  V30 1188 H 110.725 -5.63887 -3.17239 0
M  V30 1189 N 110.857 0.726932 -1.39834 0
M  V30 1190 C 112.273 1.03354 -1.21615 0
M  V30 1191 C 112.473 2.01327 -0.08338 0
M  V30 1192 O 111.529 2.46158 0.56238 0
M  V30 1193 C 112.842 1.58811 -2.55342 0
M  V30 1194 C 114.39 1.70851 -2.62257 0
M  V30 1195 C 114.865 2.29716 -3.96225 0
M  V30 1196 N 116.356 2.37116 -3.97907 0
M  V30 1197 C 117.091 2.83619 -4.98345 0
M  V30 1198 N 116.587 3.29958 -6.09179 0
M  V30 1199 N 118.38 2.82901 -4.8572 0
M  V30 1200 H 110.531 0.0773069 -2.12259 0
M  V30 1201 H 112.794 0.0969102 -0.943034 0
M  V30 1202 H 112.5 0.942855 -3.38826 0
M  V30 1203 H 112.374 2.57502 -2.75632 0
M  V30 1204 H 114.761 2.34497 -1.79152 0
M  V30 1205 H 114.842 0.707913 -2.45809 0
M  V30 1206 H 114.486 1.66696 -4.79765 0
M  V30 1207 H 114.416 3.30469 -4.09997 0
M  V30 1208 H 116.907 2.04374 -3.17868 0
M  V30 1209 H 117.22 3.63976 -6.8172 0
M  V30 1210 H 115.565 3.27946 -6.12761 0
M  V30 1211 H 118.756 2.46027 -3.98231 0
M  V30 1212 H 118.929 3.18827 -5.6414 0
M  V30 1213 N 112.336 1.25143 0.95797 0
M  V30 1214 C 113.747 1.08851 1.51685 0
M  V30 1215 C 114.098 -0.33687 1.93286 0
M  V30 1216 O 113.223 -1.22644 1.7829 0
M  V30 1217 C 113.818 1.96978 2.75654 0
M  V30 1218 C 112.377 1.84881 3.27866 0
M  V30 1219 C 111.524 1.91329 2.0072 0
M  V30 1220 H 114.475 1.38478 0.77522 0
M  V30 1221 H 114.496 1.5078 3.4935 0
M  V30 1222 H 114.008 3.00712 2.45345 0
M  V30 1223 H 112.109 0.840182 3.63004 0
M  V30 1224 H 112.222 2.6951 3.96107 0
M  V30 1225 H 110.586 1.35174 2.15871 0
M  V30 1226 H 111.369 2.96661 1.72764 0
M  V30 1227 N 113.814 -1.1601 1.06675 0
M  V30 1228 C 114.724 -2.24156 0.692179 0
M  V30 1229 C 115.74 -1.71507 -0.293513 0
M  V30 1230 O 116.916 -2.009 -0.141861 0
M  V30 1231 C 113.981 -3.46587 0.0884131 0
M  V30 1232 C 113.042 -4.14257 1.12646 0
M  V30 1233 C 112.275 -5.30844 0.551416 0
M  V30 1234 O 112.498 -5.66858 -0.634656 0
M  V30 1235 O 111.432 -5.87848 1.29298 0
M  V30 1236 H 115.258 -2.58513 1.59388 0
M  V30 1237 H 112.843 -1.23599 0.83926 0
M  V30 1238 H 114.725 -4.20679 -0.246361 0
M  V30 1239 H 113.4 -3.13994 -0.786712 0
M  V30 1240 H 112.307 -3.42118 1.51348 0
M  V30 1241 H 113.64 -4.50914 1.97325 0
M  V30 1242 N 115.292 -0.849877 -1.32721 0
M  V30 1243 C 116.538 -0.451591 -1.97708 0
M  V30 1244 C 116.871 0.989175 -1.6712 0
M  V30 1245 O 116.146 1.69334 -0.956891 0
M  V30 1246 C 116.429 -0.685598 -3.53513 0
M  V30 1247 C 116.282 -2.17444 -3.93749 0
M  V30 1248 C 117.601 -0.138874 -4.39881 0
M  V30 1249 H 114.72 -0.16555 -0.718166 0
M  V30 1250 H 117.362 -1.06742 -1.57182 0
M  V30 1251 H 115.512 -0.161416 -3.88165 0
M  V30 1252 H 117.184 -2.76433 -3.693 0
M  V30 1253 H 115.427 -2.65476 -3.43081 0
M  V30 1254 H 116.098 -2.28888 -5.02309 0
M  V30 1255 H 118.574 -0.587068 -4.11938 0
M  V30 1256 H 117.45 -0.332213 -5.47894 0
M  V30 1257 H 117.711 0.95806 -4.31594 0
M  V30 1258 N 116.77 1.45427 -0.607355 0
M  V30 1259 C 118.186 1.57283 -0.270985 0
M  V30 1260 C 118.386 1.59875 1.22647 0
M  V30 1261 O 117.442 1.52893 2.00948 0
M  V30 1262 C 118.755 2.85566 -0.941952 0
M  V30 1263 C 120.303 2.9924 -0.917849 0
M  V30 1264 C 120.778 4.30293 -1.56882 0
M  V30 1265 N 122.269 4.37051 -1.5343 0
M  V30 1266 C 123.004 5.37123 -2.00715 0
M  V30 1267 N 122.5 6.43734 -2.56084 0
M  V30 1268 N 124.293 5.28479 -1.91484 0
M  V30 1269 H 116.444 1.41988 -1.57966 0
M  V30 1270 H 118.707 0.67885 -0.661715 0
M  V30 1271 H 118.413 2.8955 -1.99633 0
M  V30 1272 H 118.287 3.74322 -0.465096 0
M  V30 1273 H 120.674 2.94822 0.127984 0
M  V30 1274 H 120.755 2.11895 -1.43297 0
M  V30 1275 H 120.399 4.35469 -2.61398 0
M  V30 1276 H 120.329 5.16454 -1.02873 0
M  V30 1277 H 122.82 3.60615 -1.12982 0
M  V30 1278 H 123.133 7.16341 -2.89958 0
M  V30 1279 H 121.478 6.44485 -2.60122 0
M  V30 1280 H 124.669 4.44098 -1.47967 0
M  V30 1281 H 124.842 6.0632 -2.28648 0
M  V30 1282 N 118.248 0.346503 1.53744 0
M  V30 1283 C 119.158 -0.517293 2.28826 0
M  V30 1284 C 120.174 -1.10935 1.3405 0
M  V30 1285 O 121.35 -1.1244 1.6709 0
M  V30 1286 C 118.415 -1.65098 3.04866 0
M  V30 1287 C 117.476 -1.0884 4.15274 0
M  V30 1288 C 116.709 -2.16806 4.87679 0
M  V30 1289 O 116.932 -3.3758 4.59778 0
M  V30 1290 O 115.866 -1.80934 5.74061 0
M  V30 1291 H 119.692 0.0931396 3.03557 0
M  V30 1292 H 117.277 0.111458 1.48984 0
M  V30 1293 H 119.159 -2.31053 3.5241 0
M  V30 1294 H 117.834 -2.24717 2.32989 0
M  V30 1295 H 116.741 -0.3933 3.72027 0
M  V30 1296 H 118.074 -0.537036 4.89261 0
M  V30 1297 N 119.726 -1.57421 0.075193 0
M  V30 1298 C 120.956 -1.97659 -0.601203 0
M  V30 1299 C 121.364 -0.952427 -1.63479 0
M  V30 1300 O 120.707 0.0688241 -1.83571 0
M  V30 1301 C 120.769 -3.34218 -1.32434 0
M  V30 1302 C 120.433 -4.5484 -0.443826 0
M  V30 1303 C 121.43 -5.19034 0.299969 0
M  V30 1304 C 119.115 -5.00952 -0.367709 0
M  V30 1305 C 121.109 -6.27695 1.10807 0
M  V30 1306 C 118.796 -6.09484 0.444058 0
M  V30 1307 C 119.794 -6.72719 1.18061 0
M  V30 1308 O 119.482 -7.79161 1.97898 0
M  V30 1309 H 119.214 -0.65494 -0.167422 0
M  V30 1310 H 121.768 -2.04886 0.145157 0
M  V30 1311 H 119.998 -3.23615 -2.11685 0
M  V30 1312 H 121.687 -3.59038 -1.89331 0
M  V30 1313 H 122.453 -4.84351 0.250776 0
M  V30 1314 H 118.332 -4.51509 -0.930638 0
M  V30 1315 H 121.876 -6.76982 1.68347 0
M  V30 1316 H 117.773 -6.43601 0.494803 0
M  V30 1317 H 118.541 -7.96055 1.90367 0
M  V30 1318 N 121.204 0.198386 -1.56346 0
M  V30 1319 C 122.434 0.934215 -1.84271 0
M  V30 1320 C 122.842 1.77496 -0.655125 0
M  V30 1321 O 122.185 1.7961 0.385488 0
M  V30 1322 C 122.247 1.88278 -3.06254 0
M  V30 1323 C 121.911 1.22431 -4.40295 0
M  V30 1324 C 122.908 0.602839 -5.16393 0
M  V30 1325 C 120.593 1.22915 -4.87029 0
M  V30 1326 C 122.587 -0.0050083 -6.374 0
M  V30 1327 C 120.274 0.617465 -6.07973 0
M  V30 1328 C 121.272 0.00146341 -6.83 0
M  V30 1329 O 120.96 -0.600642 -8.01653 0
M  V30 1330 H 120.692 0.278245 -0.616081 0
M  V30 1331 H 123.246 0.211626 -2.04307 0
M  V30 1332 H 121.476 2.64498 -2.82095 0
M  V30 1333 H 123.165 2.48612 -3.20853 0
M  V30 1334 H 123.931 0.591265 -4.81382 0
M  V30 1335 H 119.81 1.69801 -4.28589 0
M  V30 1336 H 123.354 -0.48643 -6.95902 0
M  V30 1337 H 119.251 0.62653 -6.42452 0
M  V30 1338 H 120.019 -0.497225 -8.16988 0
M  V30 1339 N 122.682 1.50554 0.465978 0
M  V30 1340 C 123.645 1.69233 1.54574 0
M  V30 1341 C 124.645 0.562901 1.50626 0
M  V30 1342 O 125.835 0.830016 1.53155 0
M  V30 1343 C 122.967 1.7223 2.94193 0
M  V30 1344 H 124.16 2.65571 1.39327 0
M  V30 1345 H 121.713 1.40111 0.692711 0
M  V30 1346 H 122.448 0.77603 3.14878 0
M  V30 1347 H 122.233 2.54285 2.98466 0
M  V30 1348 H 123.723 1.88618 3.72576 0
M  V30 1349 N 124.16 -0.719506 1.40217 0
M  V30 1350 C 125.388 -1.50864 1.41589 0
M  V30 1351 C 125.803 -1.88794 0.0145275 0
M  V30 1352 O 125.16 -1.55174 -0.960594 0
M  V30 1353 C 125.211 -2.78646 2.30302 0
M  V30 1354 O 124.932 -2.42321 3.64983 0
M  V30 1355 C 126.433 -3.72569 2.40224 0
M  V30 1356 H 123.653 -0.465709 0.48307 0
M  V30 1357 H 126.197 -0.88785 1.84221 0
M  V30 1358 H 124.352 -3.37019 1.91042 0
M  V30 1359 H 124.766 -3.24514 4.12057 0
M  V30 1360 H 126.24 -4.5908 3.06512 0
M  V30 1361 H 126.717 -4.15403 1.42608 0
M  V30 1362 H 127.323 -3.20109 2.80019 0
M  V30 1363 N 125.638 -1.25649 -0.95132 0
M  V30 1364 C 126.585 -1.06323 -2.04851 0
M  V30 1365 C 127.555 0.0286491 -1.66075 0
M  V30 1366 O 128.74 -0.12917 -1.90362 0
M  V30 1367 C 125.88 -0.691529 -3.381 0
M  V30 1368 C 124.993 -1.85861 -3.89974 0
M  V30 1369 C 124.128 -1.43096 -5.11563 0
M  V30 1370 C 123.167 -2.56696 -5.55674 0
M  V30 1371 N 122.304 -2.14684 -6.68472 0
M  V30 1372 H 127.144 -2.00222 -2.20715 0
M  V30 1373 H 124.681 -0.997027 -1.08156 0
M  V30 1374 H 126.639 -0.456963 -4.1469 0
M  V30 1375 H 125.269 0.210474 -3.22113 0
M  V30 1376 H 124.321 -2.20639 -3.09875 0
M  V30 1377 H 125.633 -2.71161 -4.18657 0
M  V30 1378 H 124.787 -1.15624 -5.9558 0
M  V30 1379 H 123.526 -0.548722 -4.84603 0
M  V30 1380 H 122.531 -2.84909 -4.7022 0
M  V30 1381 H 123.756 -3.45503 -5.8464 0
M  V30 1382 H 121.702 -1.28881 -6.43215 0
M  V30 1383 H 121.619 -2.9353 -6.96689 0
M  V30 1384 H 122.887 -1.90397 -7.5589 0
M  V30 1385 N 127.117 1.15442 -1.07289 0
M  V30 1386 C 128.365 1.85845 -0.794096 0
M  V30 1387 C 128.686 1.82692 0.681809 0
M  V30 1388 O 127.956 1.26741 1.49377 0
M  V30 1389 H 126.536 0.688089 -0.290763 0
M  V30 1390 H 129.198 1.39947 -1.3565 0
M  V30 1391 H 128.294 2.91001 -1.12804 0
M  V30 1392 N 128.595 0.856903 1.32268 0
M  V30 1393 C 129.835 0.467705 1.98977 0
M  V30 1394 C 130.199 -0.959231 1.66321 0
M  V30 1395 O 131.4 -1.4531 2.26138 0
M  V30 1396 C 129.671 0.70256 3.50427 0
M  V30 1397 S 131.23 0.411269 4.36868 0
M  V30 1398 H 128.048 0.175121 0.689096 0
M  V30 1399 H 130.65 1.1101 1.60925 0
M  V30 1400 H 129.354 1.74012 3.71683 0
M  V30 1401 H 128.885 0.0466707 3.93372 0
M  V30 1402 H 130.9 -0.761799 4.90317 0
M  V30 1403 N 130.073 -1.45103 0.615059 0
M  V30 1404 C 130.983 -2.34382 -0.101034 0
M  V30 1405 C 131.999 -1.51681 -0.852585 0
M  V30 1406 O 133.175 -1.8446 -0.808484 0
M  V30 1407 C 130.24 -3.29417 -1.08099 0
M  V30 1408 C 129.301 -4.28025 -0.330577 0
M  V30 1409 C 128.534 -5.1852 -1.26385 0
M  V30 1410 O 128.757 -5.12598 -2.50198 0
M  V30 1411 O 127.691 -5.97122 -0.756866 0
M  V30 1412 H 131.517 -2.97033 0.632855 0
M  V30 1413 H 129.102 -1.4461 0.375293 0
M  V30 1414 H 130.984 -3.87958 -1.6452 0
M  V30 1415 H 129.659 -2.69321 -1.79577 0
M  V30 1416 H 128.566 -3.73078 0.276283 0
M  V30 1417 H 129.899 -4.90997 0.343866 0
M  V30 1418 N 131.551 -0.354651 -1.53558 0
M  V30 1419 C 132.481 0.489091 -2.2832 0
M  V30 1420 C 133.462 1.09324 -1.30316 0
M  V30 1421 O 134.647 1.11255 -1.59173 0
M  V30 1422 C 131.777 1.63456 -3.0643 0
M  V30 1423 C 130.731 1.1582 -4.12031 0
M  V30 1424 C 130.057 2.39305 -4.7816 0
M  V30 1425 C 131.357 0.250731 -5.21698 0
M  V30 1426 H 133.051 -0.134614 -2.99097 0
M  V30 1427 H 130.597 -0.0661826 -1.43848 0
M  V30 1428 H 132.55 2.23136 -3.57475 0
M  V30 1429 H 131.274 2.28533 -2.33325 0
M  V30 1430 H 129.933 0.584146 -3.61916 0
M  V30 1431 H 129.581 3.02814 -4.01637 0
M  V30 1432 H 129.281 2.08109 -5.49513 0
M  V30 1433 H 130.805 2.99691 -5.31994 0
M  V30 1434 H 132.219 0.754695 -5.68311 0
M  V30 1435 H 130.616 0.0301468 -6.00092 0
M  V30 1436 H 131.686 -0.710125 -4.79672 0
M  V30 1437 N 133.029 1.57378 -0.0835403 0
M  V30 1438 C 134.278 1.93106 0.582498 0
M  V30 1439 C 134.591 0.96651 1.70053 0
M  V30 1440 O 135.797 1.21705 2.42693 0
M  V30 1441 C 134.253 3.43076 1.08751 0
M  V30 1442 C 133.861 4.48 -0.000146404 0
M  V30 1443 C 135.605 3.87785 1.72694 0
M  V30 1444 C 133.512 5.89113 0.519568 0
M  V30 1445 H 132.442 0.720775 0.221358 0
M  V30 1446 H 135.093 1.82821 -0.157675 0
M  V30 1447 H 133.475 3.48474 1.88101 0
M  V30 1448 H 134.649 4.54233 -0.775199 0
M  V30 1449 H 132.964 4.1283 -0.54406 0
M  V30 1450 H 135.561 4.90604 2.1263 0
M  V30 1451 H 135.904 3.25796 2.59158 0
M  V30 1452 H 136.437 3.8504 0.999457 0
M  V30 1453 H 133.176 6.54775 -0.308186 0
M  V30 1454 H 132.696 5.86376 1.26188 0
M  V30 1455 H 134.375 6.39346 0.992237 0
M  V30 1456 N 134.507 -0.190092 1.56449 0
M  V30 1457 C 135.732 -0.929864 1.85387 0
M  V30 1458 C 136.157 -1.7585 0.667704 0
M  V30 1459 O 135.515 -1.77198 -0.383459 0
M  V30 1460 C 135.563 -1.79773 3.12593 0
M  V30 1461 O 134.667 -2.89713 2.93496 0
M  V30 1462 H 134.008 -0.261574 0.610307 0
M  V30 1463 H 136.538 -0.193896 2.03679 0
M  V30 1464 H 136.548 -2.20139 3.43515 0
M  V30 1465 H 135.223 -1.18892 3.98544 0
M  V30 1466 H 133.8 -2.53065 2.73884 0
M  V30 1467 N 135.985 -1.50799 -0.457987 0
M  V30 1468 C 137.213 -1.66218 -1.23203 0
M  V30 1469 C 137.628 -0.350894 -1.85511 0
M  V30 1470 O 136.985 0.668546 -1.69814 0
M  V30 1471 C 137.036 -2.76291 -2.33121 0
M  V30 1472 O 136.757 -4.02338 -1.73366 0
M  V30 1473 C 138.258 -3.028 -3.2377 0
M  V30 1474 H 135.478 -0.558361 -0.372121 0
M  V30 1475 H 138.022 -1.97099 -0.545179 0
M  V30 1476 H 136.177 -2.48068 -2.97558 0
M  V30 1477 H 136.591 -4.63312 -2.4585 0
M  V30 1478 H 138.065 -3.8345 -3.97077 0
M  V30 1479 H 138.542 -2.14385 -3.83322 0
M  V30 1480 H 139.148 -3.32604 -2.65056 0
M  V30 1481 N 137.463 0.71206 -1.40597 0
M  V30 1482 C 138.874 1.29135 -1.34837 0
M  V30 1483 C 139.225 1.96186 -0.0235395 0
M  V30 1484 O 138.35 1.97768 0.878444 0
M  V30 1485 C 138.945 2.34827 -2.44217 0
M  V30 1486 C 137.504 2.88371 -2.41907 0
M  V30 1487 C 136.651 1.62202 -2.24913 0
M  V30 1488 H 139.602 0.507944 -1.50352 0
M  V30 1489 H 139.623 3.15749 -2.12327 0
M  V30 1490 H 139.135 1.85996 -3.40627 0
M  V30 1491 H 137.236 3.41422 -1.49204 0
M  V30 1492 H 137.349 3.39925 -3.37621 0
M  V30 1493 H 135.713 1.874 -1.72492 0
M  V30 1494 H 136.496 1.15391 -3.23326 0
M  V30 1495 N 138.941 1.26152 0.944643 0
M  V30 1496 C 140.218 1.02247 1.66748 0
M  V30 1497 C 140.598 -0.448202 2.06287 0
M  V30 1498 O 139.946 -1.42779 1.78399 0
M  V30 1499 C 140.156 1.96788 2.88228 0
M  V30 1500 C 141.504 2.25201 3.59958 0
M  V30 1501 O 142.528 1.94626 2.98327 0
M  V30 1502 O 141.387 2.77242 4.70956 0
M  V30 1503 H 138.481 0.388517 0.730057 0
M  V30 1504 H 141.027 1.37348 0.99668 0
M  V30 1505 H 139.799 2.96047 2.55875 0
M  V30 1506 H 139.422 1.62145 3.63035 0
M  V30 1507 N 140.419 -1.14872 1.07899 0
M  V30 1508 C 141.351 -2.19425 0.662231 0
M  V30 1509 C 142.364 -1.60231 -0.288079 0
M  V30 1510 O 143.553 -1.78336 -0.076534 0
M  V30 1511 C 140.653 -3.38867 -0.0470695 0
M  V30 1512 C 139.826 -4.27597 0.920831 0
M  V30 1513 C 138.885 -5.25616 0.247805 0
M  V30 1514 O 137.911 -5.62189 0.890599 0
M  V30 1515 N 139.113 -5.71746 -1.00435 0
M  V30 1516 H 141.878 -2.55797 1.56166 0
M  V30 1517 H 139.439 -1.30042 0.964404 0
M  V30 1518 H 141.431 -4.01497 -0.50813 0
M  V30 1519 H 140.001 -3.00864 -0.848523 0
M  V30 1520 H 139.221 -3.61982 1.56087 0
M  V30 1521 H 140.509 -4.83748 1.57688 0
M  V30 1522 H 139.907 -5.44153 -1.54642 0
M  V30 1523 H 138.464 -6.36389 -1.40899 0
M  V30 1524 N 141.898 -0.863906 -1.31812 0
M  V30 1525 C 143.175 -0.39275 -1.91616 0
M  V30 1526 C 143.555 1.12461 -1.7865 0
M  V30 1527 O 142.903 1.95045 -1.19037 0
M  V30 1528 C 143.113 -0.867385 -3.38049 0
M  V30 1529 C 144.461 -0.889966 -4.15168 0
M  V30 1530 O 145.485 -0.812635 -3.46806 0
M  V30 1531 O 144.344 -1.00079 -5.37258 0
M  V30 1532 H 141.438 -0.116358 -0.818773 0
M  V30 1533 H 143.984 -0.951418 -1.40521 0
M  V30 1534 H 142.756 -1.91081 -3.41473 0
M  V30 1535 H 142.379 -0.286687 -3.96565 0
M  V30 1536 N 143.376 1.44774 -0.622745 0
M  V30 1537 C 144.326 2.2774 0.108889 0
M  V30 1538 C 145.31 1.38189 0.824175 0
M  V30 1539 O 146.502 1.62063 0.711664 0
M  V30 1540 C 143.631 3.25353 1.09546 0
M  V30 1541 C 142.717 4.22392 0.380232 0
M  V30 1542 N 143.108 5.02388 -0.586535 0
M  V30 1543 C 141.406 4.41588 0.625792 0
M  V30 1544 C 142.107 5.72894 -1.00834 0
M  V30 1545 N 141.083 5.42479 -0.348878 0
M  V30 1546 H 144.885 2.86993 -0.63341 0
M  V30 1547 H 142.399 1.5611 -0.447589 0
M  V30 1548 H 144.396 3.83538 1.63414 0
M  V30 1549 H 143.056 2.6766 1.83815 0
M  V30 1550 H 144.067 5.0885 -0.963975 0
M  V30 1551 H 140.744 3.95003 1.352 0
M  V30 1552 H 142.134 6.47158 -1.80656 0
M  V30 1553 N 144.854 0.36279 1.53368 0
M  V30 1554 C 146.082 -0.228613 2.05633 0
M  V30 1555 C 146.497 -1.42676 1.23649 0
M  V30 1556 O 145.854 -1.80394 0.27647 0
M  V30 1557 C 145.905 -0.624845 3.56059 0
M  V30 1558 O 145.626 0.525675 4.34935 0
M  V30 1559 C 147.127 -1.27493 4.24571 0
M  V30 1560 H 144.347 -0.0407183 0.669763 0
M  V30 1561 H 146.891 0.520352 1.97769 0
M  V30 1562 H 145.046 -1.32373 3.64083 0
M  V30 1563 H 145.46 0.205969 5.24095 0
M  V30 1564 H 146.934 -1.50277 5.31151 0
M  V30 1565 H 147.411 -2.23439 3.78116 0
M  V30 1566 H 148.017 -0.617558 4.20792 0
M  V30 1567 N 146.332 -1.57332 0.0918853 0
M  V30 1568 C 147.609 -1.85691 -0.614668 0
M  V30 1569 C 147.989 -0.988146 -1.86545 0
M  V30 1570 O 147.337 -0.0597055 -2.28422 0
M  V30 1571 C 147.547 -3.36294 -0.933126 0
M  V30 1572 C 148.895 -4.04275 -1.29796 0
M  V30 1573 O 149.919 -3.41157 -1.02424 0
M  V30 1574 O 148.778 -5.1564 -1.81047 0
M  V30 1575 H 145.872 -0.767802 -0.307261 0
M  V30 1576 H 148.418 -1.69244 0.12434 0
M  V30 1577 H 147.19 -3.91273 -0.0456404 0
M  V30 1578 H 146.813 -3.58076 -1.72822 0
M  V30 1579 N 147.81 0.181792 -1.56548 0
M  V30 1580 C 149.057 0.900097 -1.81396 0
M  V30 1581 C 149.385 1.82695 -0.667281 0
M  V30 1582 O 148.64 1.92614 0.346146 0
M  V30 1583 C 148.939 1.73728 -3.12335 0
M  V30 1584 C 148.605 0.960255 -4.40556 0
M  V30 1585 C 147.267 0.745766 -4.75386 0
M  V30 1586 C 149.619 0.414477 -5.19549 0
M  V30 1587 C 146.947 -0.0257694 -5.86694 0
M  V30 1588 C 149.299 -0.343916 -6.31664 0
M  V30 1589 C 147.963 -0.569301 -6.65068 0
M  V30 1590 H 147.233 0.329369 -0.663775 0
M  V30 1591 H 149.88 0.165647 -1.90782 0
M  V30 1592 H 148.185 2.54081 -2.98245 0
M  V30 1593 H 149.882 2.29591 -3.28769 0
M  V30 1594 H 146.472 1.13746 -4.13231 0
M  V30 1595 H 150.656 0.567554 -4.93044 0
M  V30 1596 H 145.912 -0.210233 -6.11038 0
M  V30 1597 H 150.086 -0.774133 -6.92084 0
M  V30 1598 H 147.713 -1.16903 -7.51158 0
M  V30 1599 N 149.288 1.51039 0.449983 0
M  V30 1600 C 150.516 1.66869 1.2232 0
M  V30 1601 C 150.931 0.360727 1.85322 0
M  V30 1602 O 150.288 -0.659531 1.70166 0
M  V30 1603 C 150.339 2.77524 2.31652 0
M  V30 1604 O 150.06 4.03252 1.7123 0
M  V30 1605 C 151.561 3.04512 3.2216 0
M  V30 1606 H 148.781 0.560326 0.369155 0
M  V30 1607 H 151.325 1.97385 0.534719 0
M  V30 1608 H 149.48 2.49642 2.96239 0
M  V30 1609 H 149.894 4.64609 2.43389 0
M  V30 1610 H 151.368 3.85551 3.95038 0
M  V30 1611 H 151.845 2.16415 3.8218 0
M  V30 1612 H 152.451 3.34005 2.63288 0
M  V30 1613 N 150.766 -0.704594 1.40972 0
M  V30 1614 C 151.713 -1.81862 1.42109 0
M  V30 1615 C 152.683 -1.63781 0.276593 0
M  V30 1616 O 153.868 -1.84759 0.4763 0
M  V30 1617 C 151.008 -3.19669 1.30022 0
M  V30 1618 C 150.121 -3.49246 2.54267 0
M  V30 1619 C 149.256 -4.76618 2.3454 0
M  V30 1620 C 148.295 -4.99133 3.54306 0
M  V30 1621 N 147.432 -6.17726 3.33706 0
M  V30 1622 H 152.272 -1.80226 2.37324 0
M  V30 1623 H 149.809 -0.880238 1.17857 0
M  V30 1624 H 151.767 -3.99263 1.21018 0
M  V30 1625 H 150.397 -3.20506 0.384192 0
M  V30 1626 H 149.449 -2.64125 2.73756 0
M  V30 1627 H 150.761 -3.61788 3.43381 0
M  V30 1628 H 149.915 -5.64249 2.22952 0
M  V30 1629 H 148.654 -4.66305 1.42867 0
M  V30 1630 H 147.659 -4.09953 3.66359 0
M  V30 1631 H 148.884 -5.11311 4.4692 0
M  V30 1632 H 146.83 -6.08642 2.44725 0
M  V30 1633 H 146.747 -6.30995 4.16391 0
M  V30 1634 H 148.015 -7.08115 3.25873 0
M  V30 1635 N 152.244 -1.26651 -0.937939 0
M  V30 1636 C 153.484 -1.13611 -1.69917 0
M  V30 1637 C 153.848 0.314687 -1.89404 0
M  V30 1638 O 155.049 0.567285 -2.62746 0
M  V30 1639 C 153.32 -1.88742 -3.03498 0
M  V30 1640 S 154.879 -1.91794 -3.94665 0
M  V30 1641 H 151.697 -0.405767 -0.583844 0
M  V30 1642 H 154.299 -1.60416 -1.11745 0
M  V30 1643 H 153.003 -2.9336 -2.86999 0
M  V30 1644 H 152.534 -1.42391 -3.66727 0
M  V30 1645 H 154.549 -1.00698 -4.85875 0
M  V30 1646 N 153.722 1.14298 -1.08507 0
M  V30 1647 C 154.652 2.21542 -0.737646 0
M  V30 1648 C 155.633 1.67773 0.280377 0
M  V30 1649 O 156.818 1.93616 0.150521 0
M  V30 1650 C 153.948 3.46988 -0.147259 0
M  V30 1651 C 152.902 4.13789 -1.09374 0
M  V30 1652 C 152.228 5.33449 -0.365524 0
M  V30 1653 C 153.528 4.62208 -2.4323 0
M  V30 1654 H 155.222 2.5086 -1.6343 0
M  V30 1655 H 152.768 1.20576 -0.787243 0
M  V30 1656 H 154.721 4.21262 0.107808 0
M  V30 1657 H 153.445 3.17037 0.784538 0
M  V30 1658 H 152.104 3.4147 -1.33393 0
M  V30 1659 H 151.752 4.99759 0.57011 0
M  V30 1660 H 151.452 5.79088 -0.996512 0
M  V30 1661 H 152.976 6.10485 -0.118534 0
M  V30 1662 H 154.39 5.27952 -2.23472 0
M  V30 1663 H 152.787 5.18553 -3.02031 0
M  V30 1664 H 153.857 3.77224 -3.04681 0
M  V30 1665 N 155.201 0.870884 1.31352 0
M  V30 1666 C 156.148 0.325425 2.28494 0
M  V30 1667 C 157.118 -0.576615 1.5577 0
M  V30 1668 O 158.303 -0.508059 1.83911 0
M  V30 1669 C 155.443 -0.466283 3.41935 0
M  V30 1670 C 154.556 0.463378 4.29508 0
M  V30 1671 C 153.691 -0.342544 5.30094 0
M  V30 1672 C 152.73 0.583486 6.09313 0
M  V30 1673 N 151.867 -0.186244 7.01853 0
M  V30 1674 H 156.707 1.15901 2.74538 0
M  V30 1675 H 154.244 0.58294 1.35056 0
M  V30 1676 H 156.202 -0.941085 4.06447 0
M  V30 1677 H 154.832 -1.26456 2.97 0
M  V30 1678 H 153.884 1.05663 3.65431 0
M  V30 1679 H 155.196 1.1734 4.84802 0
M  V30 1680 H 154.35 -0.879816 6.00287 0
M  V30 1681 H 153.089 -1.08585 4.75458 0
M  V30 1682 H 152.094 1.13251 5.3801 0
M  V30 1683 H 153.319 1.32566 6.66035 0
M  V30 1684 H 151.265 -0.912348 6.49625 0
M  V30 1685 H 151.182 0.464422 7.54572 0
M  V30 1686 H 152.45 -0.704716 7.76308 0
M  V30 1687 N 156.679 -1.44442 0.630414 0
M  V30 1688 C 157.612 -2.27862 -0.124247 0
M  V30 1689 C 158.59 -1.38495 -0.851931 0
M  V30 1690 O 159.774 -1.67935 -0.856166 0
M  V30 1691 C 156.901 -3.17407 -1.18197 0
M  V30 1692 C 155.947 -4.22875 -0.554892 0
M  V30 1693 S 156.78 -5.31485 0.654489 0
M  V30 1694 C 157.936 -6.246 -0.40326 0
M  V30 1695 H 158.169 -2.91519 0.583435 0
M  V30 1696 H 155.702 -1.48618 0.418565 0
M  V30 1697 H 157.66 -3.69549 -1.78728 0
M  V30 1698 H 156.321 -2.52971 -1.86184 0
M  V30 1699 H 155.514 -4.85542 -1.35148 0
M  V30 1700 H 155.116 -3.73992 -0.0242105 0
M  V30 1701 H 157.408 -6.65375 -1.27602 0
M  V30 1702 H 158.351 -7.07851 0.187813 0
M  V30 1703 H 158.759 -5.59775 -0.728837 0
M  V30 1704 N 158.157 -0.370918 -1.53173 0
M  V30 1705 C 159.087 0.464847 -2.28826 0
M  V30 1706 C 160.068 1.07936 -1.31468 0
M  V30 1707 O 161.253 1.0956 -1.60344 0
M  V30 1708 C 158.383 1.60196 -3.08147 0
M  V30 1709 C 157.337 1.11443 -4.13237 0
M  V30 1710 C 156.663 2.3422 -4.80672 0
M  V30 1711 C 157.963 0.195384 -5.21934 0
M  V30 1712 H 159.657 -0.166329 -2.98938 0
M  V30 1713 H 157.203 -0.0814359 -1.4377 0
M  V30 1714 H 159.156 2.19332 -3.59822 0
M  V30 1715 H 157.88 2.26045 -2.35735 0
M  V30 1716 H 156.539 0.545727 -3.62515 0
M  V30 1717 H 156.187 2.98537 -4.04827 0
M  V30 1718 H 155.887 2.02269 -5.51689 0
M  V30 1719 H 157.411 2.94032 -5.35143 0
M  V30 1720 H 158.825 0.694375 -5.69079 0
M  V30 1721 H 157.222 -0.0335027 -6.00091 0
M  V30 1722 H 158.292 -0.760961 -4.78892 0
M  V30 1723 N 159.635 1.57281 -0.100228 0
M  V30 1724 C 160.567 2.11342 0.886972 0
M  V30 1725 C 161.58 1.05182 1.24261 0
M  V30 1726 O 162.769 1.32613 1.19483 0
M  V30 1727 C 159.869 2.5825 2.19454 0
M  V30 1728 C 159.042 3.88302 2.01346 0
M  V30 1729 C 158.101 4.21004 3.15661 0
M  V30 1730 O 157.127 4.9014 2.89398 0
M  V30 1731 N 158.329 3.76818 4.41575 0
M  V30 1732 H 161.094 2.96668 0.425216 0
M  V30 1733 H 158.655 1.61678 0.0847334 0
M  V30 1734 H 160.647 2.7717 2.94888 0
M  V30 1735 H 159.217 1.77907 2.57037 0
M  V30 1736 H 158.437 3.7848 1.10212 0
M  V30 1737 H 159.725 4.73375 1.8653 0
M  V30 1738 H 159.123 3.2102 4.65792 0
M  V30 1739 H 157.68 4.00882 5.13942 0
M  V30 1740 N 161.113 -0.173488 1.56642 0
M  V30 1741 C 162.06 -1.21482 1.96242 0
M  V30 1742 C 163.03 -1.44104 0.826027 0
M  V30 1743 O 164.215 -1.5688 1.08597 0
M  V30 1744 C 161.355 -2.54964 2.32567 0
M  V30 1745 C 160.468 -2.39739 3.59373 0
M  V30 1746 C 159.603 -3.66072 3.84921 0
M  V30 1747 C 158.642 -3.45771 5.05083 0
M  V30 1748 N 157.779 -4.64169 5.26775 0
M  V30 1749 H 162.619 -0.870123 2.85014 0
M  V30 1750 H 160.156 -0.418245 1.41029 0
M  V30 1751 H 162.114 -3.32758 2.5165 0
M  V30 1752 H 160.744 -2.87433 1.46908 0
M  V30 1753 H 159.796 -1.53131 3.48217 0
M  V30 1754 H 161.108 -2.20683 4.47326 0
M  V30 1755 H 160.262 -4.52303 4.0436 0
M  V30 1756 H 159.001 -3.88105 2.9534 0
M  V30 1757 H 158.006 -2.57927 4.85545 0
M  V30 1758 H 159.231 -3.25163 5.96193 0
M  V30 1759 H 157.177 -4.86425 4.40144 0
M  V30 1760 H 157.094 -4.48019 6.08946 0
M  V30 1761 H 158.362 -5.51689 5.5069 0
M  V30 1762 N 162.591 -1.51276 -0.441967 0
M  V30 1763 C 163.538 -1.72256 -1.53612 0
M  V30 1764 C 164.508 -0.564164 -1.56225 0
M  V30 1765 O 165.693 -0.798074 -1.73307 0
M  V30 1766 C 162.833 -1.84932 -2.91366 0
M  V30 1767 C 161.946 -3.12459 -2.98317 0
M  V30 1768 C 161.081 -3.15758 -4.27166 0
M  V30 1769 C 160.12 -4.37619 -4.27967 0
M  V30 1770 N 159.257 -4.38493 -5.48333 0
M  V30 1771 H 164.097 -2.65654 -1.35026 0
M  V30 1772 H 161.634 -1.31662 -0.656009 0
M  V30 1773 H 163.592 -1.90263 -3.7129 0
M  V30 1774 H 162.222 -0.949461 -3.08521 0
M  V30 1775 H 161.274 -3.1646 -2.11086 0
M  V30 1776 H 162.586 -4.02382 -2.94771 0
M  V30 1777 H 161.74 -3.19979 -5.15459 0
M  V30 1778 H 160.479 -2.23715 -4.33362 0
M  V30 1779 H 159.484 -4.33579 -3.38067 0
M  V30 1780 H 160.709 -5.30921 -4.23438 0
M  V30 1781 H 158.655 -3.49318 -5.55259 0
M  V30 1782 H 158.572 -5.22219 -5.46647 0
M  V30 1783 H 159.84 -4.469 -6.38671 0
M  V30 1784 N 164.069 0.697108 -1.41344 0
M  V30 1785 C 165.318 1.45279 -1.39918 0
M  V30 1786 C 165.631 1.95597 -0.0109624 0
M  V30 1787 O 166.837 2.71208 0.125919 0
M  V30 1788 C 165.293 2.62695 -2.46007 0
M  V30 1789 C 164.901 2.19169 -3.90729 0
M  V30 1790 C 166.645 3.40336 -2.53715 0
M  V30 1791 C 164.552 3.33535 -4.88373 0
M  V30 1792 H 163.482 0.545692 -0.520323 0
M  V30 1793 H 166.133 0.756929 -1.67161 0
M  V30 1794 H 164.515 3.34541 -2.11892 0
M  V30 1795 H 165.689 1.54623 -4.34083 0
M  V30 1796 H 164.004 1.54525 -3.86666 0
M  V30 1797 H 166.601 4.2547 -3.2385 0
M  V30 1798 H 166.944 3.85418 -1.5735 0
M  V30 1799 H 167.477 2.75546 -2.86913 0
M  V30 1800 H 164.216 2.93468 -5.86137 0
M  V30 1801 H 163.736 3.96936 -4.49668 0
M  V30 1802 H 165.415 3.99335 -5.09059 0
M  V30 1803 N 165.547 1.27147 0.931209 0
M  V30 1804 C 166.457 1.11372 2.06478 0
M  V30 1805 C 167.473 0.044645 1.73943 0
M  V30 1806 O 168.649 0.250417 1.99837 0
M  V30 1807 C 165.714 0.758838 3.38294 0
M  V30 1808 C 164.775 1.90841 3.84549 0
M  V30 1809 C 164.008 1.57036 5.10074 0
M  V30 1810 O 164.231 0.476645 5.68405 0
M  V30 1811 O 163.165 2.40839 5.51616 0
M  V30 1812 H 166.991 2.06493 2.22698 0
M  V30 1813 H 164.576 1.06301 1.04978 0
M  V30 1814 H 166.458 0.574098 4.17471 0
M  V30 1815 H 165.133 -0.162879 3.2329 0
M  V30 1816 H 164.04 2.14819 3.06274 0
M  V30 1817 H 165.373 2.81021 4.04089 0
M  V30 1818 N 167.025 -1.13721 1.09112 0
M  V30 1819 C 167.935 -2.22638 0.73957 0
M  V30 1820 C 168.951 -1.72091 -0.257068 0
M  V30 1821 O 170.127 -2.01155 -0.0992154 0
M  V30 1822 C 167.192 -3.46322 0.16191 0
M  V30 1823 C 166.253 -4.11775 1.21408 0
M  V30 1824 C 165.486 -5.29555 0.663891 0
M  V30 1825 O 165.709 -5.68077 -0.514274 0
M  V30 1826 O 164.643 -5.84973 1.41738 0
M  V30 1827 H 168.469 -2.55074 1.64836 0
M  V30 1828 H 166.054 -1.21791 0.865289 0
M  V30 1829 H 167.936 -4.21107 -0.157073 0
M  V30 1830 H 166.611 -3.15593 -0.719932 0
M  V30 1831 H 165.518 -3.3883 1.58571 0
M  V30 1832 H 166.851 -4.46627 2.06845 0
M  V30 1833 N 168.503 -0.877838 -1.30888 0
M  V30 1834 C 169.45 -0.337538 -2.28318 0
M  V30 1835 C 170.42 0.568346 -1.56074 0
M  V30 1836 O 171.605 0.498298 -1.84178 0
M  V30 1837 C 168.745 0.448142 -3.42178 0
M  V30 1838 C 167.858 -0.48615 -4.29256 0
M  V30 1839 C 166.993 0.314427 -5.30269 0
M  V30 1840 C 166.032 -0.615791 -6.08995 0
M  V30 1841 N 165.169 0.14902 -7.01942 0
M  V30 1842 H 170.009 -1.17356 -2.73919 0
M  V30 1843 H 167.546 -0.590094 -1.34745 0
M  V30 1844 H 169.504 0.919517 -4.06941 0
M  V30 1845 H 168.134 1.24879 -2.97666 0
M  V30 1846 H 167.186 -1.076 -3.64865 0
M  V30 1847 H 168.498 -1.19909 -4.84173 0
M  V30 1848 H 167.652 0.847969 -6.00745 0
M  V30 1849 H 166.391 1.06062 -4.76027 0
M  V30 1850 H 165.396 -1.16102 -5.37401 0
M  V30 1851 H 166.621 -1.36097 -6.65323 0
M  V30 1852 H 164.567 0.877884 -6.50099 0
M  V30 1853 H 164.484 -0.504433 -7.54315 0
M  V30 1854 H 165.752 0.663537 -7.76671 0
M  V30 1855 N 169.982 1.44106 -0.638065 0
M  V30 1856 C 171.259 1.95453 -0.0759321 0
M  V30 1857 C 171.639 1.57984 1.40015 0
M  V30 1858 O 170.987 0.857361 2.11806 0
M  V30 1859 C 171.197 3.47655 -0.306132 0
M  V30 1860 C 172.545 4.24114 -0.203008 0
M  V30 1861 O 173.569 3.55405 -0.237871 0
M  V30 1862 O 172.428 5.46381 -0.113827 0
M  V30 1863 H 169.522 0.826797 0.0183332 0
M  V30 1864 H 172.068 1.54122 -0.710251 0
M  V30 1865 H 170.84 3.68 -1.3301 0
M  V30 1866 H 170.463 3.95949 0.361991 0
M  V30 1867 N 171.46 0.379036 1.52974 0
M  V30 1868 C 172.39 -0.452706 2.29069 0
M  V30 1869 C 173.371 -1.07237 1.32039 0
M  V30 1870 O 174.556 -1.08708 1.60923 0
M  V30 1871 C 171.686 -1.5856 3.08992 0
M  V30 1872 C 170.64 -1.0925 4.13822 0
M  V30 1873 C 169.966 -2.31668 4.81907 0
M  V30 1874 C 171.266 -0.167702 5.22031 0
M  V30 1875 H 172.96 0.182181 2.98845 0
M  V30 1876 H 170.506 0.0890592 1.43724 0
M  V30 1877 H 172.459 -2.1742 3.6098 0
M  V30 1878 H 171.183 -2.24792 2.36931 0
M  V30 1879 H 169.842 -0.526494 3.628 0
M  V30 1880 H 169.49 -2.96386 4.06404 0
M  V30 1881 H 169.19 -1.9934 5.52754 0
M  V30 1882 H 170.714 -2.91189 5.36695 0
M  V30 1883 H 172.128 -0.664186 5.6944 0
M  V30 1884 H 170.525 0.0653265 6.00064 0
M  V30 1885 H 171.595 0.786347 4.78482 0
M  V30 1886 N 172.938 -1.57226 0.108567 0
M  V30 1887 C 173.885 -2.14756 -0.845481 0
M  V30 1888 C 174.855 -1.06971 -1.27068 0
M  V30 1889 O 176.04 -1.34827 -1.35005 0
M  V30 1890 C 173.18 -2.74298 -2.09415 0
M  V30 1891 C 172.293 -3.96358 -1.71826 0
M  V30 1892 C 171.428 -4.44021 -2.9158 0
M  V30 1893 C 170.467 -5.58637 -2.50181 0
M  V30 1894 N 169.604 -6.01091 -3.62814 0
M  V30 1895 H 174.444 -2.95961 -0.348035 0
M  V30 1896 H 171.981 -1.46226 -0.160106 0
M  V30 1897 H 173.939 -3.06945 -2.82561 0
M  V30 1898 H 172.569 -1.95801 -2.56636 0
M  V30 1899 H 171.621 -3.69939 -0.885947 0
M  V30 1900 H 172.933 -4.79504 -1.37394 0
M  V30 1901 H 172.087 -4.78522 -3.72963 0
M  V30 1902 H 170.826 -3.59803 -3.29231 0
M  V30 1903 H 169.831 -5.23751 -1.67228 0
M  V30 1904 H 171.056 -6.44613 -2.13659 0
M  V30 1905 H 169.002 -5.19817 -4.00158 0
M  V30 1906 H 168.919 -6.79066 -3.32273 0
M  V30 1907 H 170.187 -6.40227 -4.44668 0
M  V30 1908 N 174.416 0.165178 -1.56732 0
M  V30 1909 C 175.662 0.882112 -1.82611 0
M  V30 1910 C 175.995 1.81628 -0.687378 0
M  V30 1911 O 175.27 1.92009 0.310267 0
M  V30 1912 C 175.553 1.67245 -3.18906 0
M  V30 1913 C 175.406 0.760987 -4.43316 0
M  V30 1914 C 176.725 2.63884 -3.52212 0
M  V30 1915 H 173.844 0.319242 -0.664269 0
M  V30 1916 H 176.486 0.148052 -1.89422 0
M  V30 1917 H 174.636 2.29824 -3.1323 0
M  V30 1918 H 176.308 0.147596 -4.61064 0
M  V30 1919 H 174.551 0.0694102 -4.33744 0
M  V30 1920 H 175.222 1.34962 -5.35247 0
M  V30 1921 H 177.698 2.11429 -3.58381 0
M  V30 1922 H 176.574 3.16245 -4.48643 0
M  V30 1923 H 176.835 3.44377 -2.77231 0
M  V30 1924 N 175.894 1.51508 0.433938 0
M  V30 1925 C 177.171 1.54888 1.19453 0
M  V30 1926 C 177.551 0.315154 2.08734 0
M  V30 1927 O 176.899 -0.699558 2.17528 0
M  V30 1928 C 177.109 2.86467 1.99342 0
M  V30 1929 C 178.457 3.38545 2.56267 0
M  V30 1930 O 179.481 2.88041 2.0955 0
M  V30 1931 O 178.34 4.26675 3.41483 0
M  V30 1932 H 175.434 0.622863 0.544032 0
M  V30 1933 H 177.98 1.63823 0.442732 0
M  V30 1934 H 176.752 3.67718 1.33788 0
M  V30 1935 H 176.375 2.8071 2.8158 0
M  V30 1936 N 177.372 -0.689602 1.41712 0
M  V30 1937 C 178.618 -1.45181 1.41599 0
M  V30 1938 C 178.951 -1.94181 0.0270081 0
M  V30 1939 O 178.226 -1.6993 -0.946265 0
M  V30 1940 C 178.509 -2.65945 2.42787 0
M  V30 1941 C 178.362 -2.22672 3.90816 0
M  V30 1942 C 179.681 -3.68149 2.41151 0
M  V30 1943 H 176.8 -0.526576 0.515642 0
M  V30 1944 H 179.442 -0.784947 1.73028 0
M  V30 1945 H 177.592 -3.2284 2.16116 0
M  V30 1946 H 179.264 -1.71058 4.28412 0
M  V30 1947 H 177.507 -1.54394 4.05395 0
M  V30 1948 H 178.178 -3.0935 4.57172 0
M  V30 1949 H 180.654 -3.2094 2.64834 0
M  V30 1950 H 179.53 -4.50248 3.13955 0
M  V30 1951 H 179.791 -4.18259 1.43221 0
M  V30 1952 N 178.85 -1.27639 -0.924453 0
M  V30 1953 C 180.099 -1.13549 -1.66702 0
M  V30 1954 C 180.412 0.317487 -1.93006 0
M  V30 1955 O 181.618 0.579333 -2.65247 0
M  V30 1956 C 180.074 -1.98426 -3.00259 0
M  V30 1957 C 179.682 -3.484 -2.81641 0
M  V30 1958 C 181.426 -1.92993 -3.78092 0
M  V30 1959 C 179.333 -4.25464 -4.10773 0
M  V30 1960 H 178.263 -0.421351 -0.625283 0
M  V30 1961 H 180.914 -1.52085 -1.02676 0
M  V30 1962 H 179.296 -1.52736 -3.6536 0
M  V30 1963 H 180.47 -4.01973 -2.25287 0
M  V30 1964 H 178.785 -3.55245 -2.17232 0
M  V30 1965 H 181.382 -2.47844 -4.7379 0
M  V30 1966 H 181.725 -0.904281 -4.0636 0
M  V30 1967 H 182.258 -2.36595 -3.19793 0
M  V30 1968 H 178.997 -5.28566 -3.87683 0
M  V30 1969 H 178.517 -3.76667 -4.66779 0
M  V30 1970 H 180.196 -4.34812 -4.79111 0
M  V30 1971 N 180.328 1.1314 -1.09713 0
M  V30 1972 C 181.574 1.84757 -0.836224 0
M  V30 1973 C 181.907 1.8347 0.636598 0
M  V30 1974 O 181.182 1.27491 1.46889 0
M  V30 1975 C 181.465 3.32782 -1.37578 0
M  V30 1976 C 181.318 3.42567 -2.91493 0
M  V30 1977 C 182.637 4.28307 -1.01198 0
M  V30 1978 H 179.756 0.67082 -0.305236 0
M  V30 1979 H 182.398 1.3278 -1.35903 0
M  V30 1980 H 180.548 3.77177 -0.931097 0
M  V30 1981 H 182.22 3.06862 -3.44432 0
M  V30 1982 H 180.463 2.83349 -3.28475 0
M  V30 1983 H 181.134 4.46674 -3.24324 0
M  V30 1984 H 183.61 3.91999 -1.39556 0
M  V30 1985 H 182.486 5.30307 -1.41653 0
M  V30 1986 H 182.747 4.42029 0.0794833 0
M  V30 1987 N 181.806 0.884767 1.30421 0
M  V30 1988 C 183.034 0.518044 2.0031 0
M  V30 1989 C 183.449 -0.893408 1.66324 0
M  V30 1990 O 182.806 -1.5875 0.900262 0
M  V30 1991 C 182.857 0.682997 3.54989 0
M  V30 1992 O 182.578 2.03888 3.87764 0
M  V30 1993 C 184.079 0.31924 4.42149 0
M  V30 1994 H 181.299 0.200265 0.640418 0
M  V30 1995 H 183.843 1.19001 1.6631 0
M  V30 1996 H 181.998 0.0584052 3.87356 0
M  V30 1997 H 182.412 2.05735 4.82466 0
M  V30 1998 H 183.886 0.485555 5.4986 0
M  V30 1999 H 184.363 -0.742717 4.32875 0
M  V30 2000 H 184.969 0.920147 4.15227 0
M  V30 2001 N 183.284 -1.43765 0.645699 0
M  V30 2002 C 184.214 -2.33471 -0.0370477 0
M  V30 2003 C 185.195 -1.49042 -0.819779 0
M  V30 2004 O 186.38 -1.77726 -0.782758 0
M  V30 2005 C 183.51 -3.32311 -1.0093 0
M  V30 2006 C 182.464 -4.2667 -0.337201 0
M  V30 2007 C 181.79 -5.1549 -1.42037 0
M  V30 2008 C 183.09 -5.16657 0.765706 0
M  V30 2009 H 184.784 -2.90809 0.712069 0
M  V30 2010 H 182.33 -1.39834 0.343876 0
M  V30 2011 H 184.283 -3.9396 -1.49578 0
M  V30 2012 H 183.007 -2.73213 -1.78948 0
M  V30 2013 H 181.666 -3.66374 0.128771 0
M  V30 2014 H 181.314 -4.52735 -2.1918 0
M  V30 2015 H 181.014 -5.79438 -0.975966 0
M  V30 2016 H 182.538 -5.80012 -1.90838 0
M  V30 2017 H 183.952 -5.72158 0.361702 0
M  V30 2018 H 182.349 -5.89286 1.13413 0
M  V30 2019 H 183.419 -4.56796 1.62683 0
M  V30 2020 N 184.763 -0.387143 -1.52771 0
M  V30 2021 C 186.011 0.195349 -2.01154 0
M  V30 2022 C 186.332 1.475 -1.27549 0
M  V30 2023 O 185.602 1.91878 -0.394924 0
M  V30 2024 H 184.182 0.075178 -0.743207 0
M  V30 2025 H 186.844 -0.518337 -1.87881 0
M  V30 2026 H 185.94 0.407096 -3.09434 0
M  V30 2027 N 186.241 1.57166 -0.116904 0
M  V30 2028 C 187.489 1.94737 0.540533 0
M  V30 2029 C 187.81 1.00096 1.67349 0
M  V30 2030 O 187.08 0.0568854 1.95817 0
M  V30 2031 H 185.66 0.718981 0.202669 0
M  V30 2032 H 188.322 1.94017 -0.185353 0
M  V30 2033 H 187.418 2.97719 0.936483 0
M  V30 2034 N 187.719 -0.156864 1.56817 0
M  V30 2035 C 188.649 -1.19589 2.00551 0
M  V30 2036 C 189.63 -1.4536 0.883426 0
M  V30 2037 O 190.815 -1.56449 1.15054 0
M  V30 2038 C 187.945 -2.53143 2.37773 0
M  V30 2039 C 186.899 -2.41913 3.53075 0
M  V30 2040 C 186.225 -3.80088 3.76081 0
M  V30 2041 C 187.525 -1.91157 4.86062 0
M  V30 2042 H 189.219 -0.832293 2.87599 0
M  V30 2043 H 186.765 -0.398918 1.38364 0
M  V30 2044 H 188.718 -3.26047 2.66967 0
M  V30 2045 H 187.442 -2.91319 1.4765 0
M  V30 2046 H 186.101 -1.71462 3.24031 0
M  V30 2047 H 185.749 -4.15683 2.83225 0
M  V30 2048 H 185.449 -3.73439 4.53671 0
M  V30 2049 H 186.973 -4.54556 4.0769 0
M  V30 2050 H 188.387 -2.53846 5.14038 0
M  V30 2051 H 186.784 -1.95422 5.67389 0
M  V30 2052 H 187.854 -0.866673 4.77092 0
M  V30 2053 N 189.197 -1.51736 -0.425897 0
M  V30 2054 C 190.16 -1.73271 -1.50032 0
M  V30 2055 C 191.16 -0.602639 -1.4908 0
M  V30 2056 O 192.35 -0.87033 -1.509 0
M  V30 2057 C 189.482 -1.79969 -2.89523 0
M  V30 2058 H 190.675 -2.69172 -1.32237 0
M  V30 2059 H 188.228 -1.41899 -0.65532 0
M  V30 2060 H 188.963 -0.859241 -3.1271 0
M  V30 2061 H 188.748 -2.62109 -2.91619 0
M  V30 2062 H 190.238 -1.9843 -3.67444 0
M  V30 2063 N 190.675 0.682077 -1.42076 0
M  V30 2064 C 191.923 1.4393 -1.41876 0
M  V30 2065 C 192.244 1.94971 -0.0335599 0
M  V30 2066 O 191.514 1.72591 0.926773 0
M  V30 2067 H 190.094 0.534085 -0.522267 0
M  V30 2068 H 192.756 0.806427 -1.77434 0
M  V30 2069 H 191.852 2.29588 -2.11414 0
M  V30 2070 N 192.153 1.28127 0.917671 0
M  V30 2071 C 193.569 1.05749 1.19538 0
M  V30 2072 C 193.769 -0.202633 2.00479 0
M  V30 2073 O 192.825 -0.905382 2.3571 0
M  V30 2074 C 194.138 2.30273 1.93378 0
M  V30 2075 C 195.686 2.35412 2.06277 0
M  V30 2076 C 196.161 3.59692 2.83524 0
M  V30 2077 N 197.652 3.60309 2.91087 0
M  V30 2078 C 198.387 4.53147 3.51348 0
M  V30 2079 N 197.883 5.563 4.12919 0
M  V30 2080 N 199.676 4.40751 3.48849 0
M  V30 2081 H 191.827 2.09024 0.377184 0
M  V30 2082 H 194.09 0.919798 0.22951 0
M  V30 2083 H 193.796 3.22055 1.41328 0
M  V30 2084 H 193.67 2.36378 2.93947 0
M  V30 2085 H 196.057 1.4413 2.57508 0
M  V30 2086 H 196.138 2.33304 1.04895 0
M  V30 2087 H 195.782 4.51316 2.32973 0
M  V30 2088 H 195.712 3.59054 3.85211 0
M  V30 2089 H 198.203 2.85714 2.47338 0
M  V30 2090 H 198.516 6.2329 4.56869 0
M  V30 2091 H 196.861 5.60131 4.11435 0
M  V30 2092 H 200.052 3.59367 2.99955 0
M  V30 2093 H 200.225 5.13291 3.9552 0
M  V30 2094 N 193.631 -1.12557 1.10312 0
M  V30 2095 C 194.878 -1.84038 0.844759 0
M  V30 2096 C 195.206 -1.84026 -0.629668 0
M  V30 2097 O 194.461 -1.28026 -1.48013 0
M  V30 2098 C 194.76 -3.31462 1.33669 0
M  V30 2099 C 194.426 -3.51647 2.82232 0
M  V30 2100 C 193.088 -3.56864 3.22802 0
M  V30 2101 C 195.44 -3.58867 3.77974 0
M  V30 2102 C 192.768 -3.66844 4.57867 0
M  V30 2103 C 195.12 -3.70375 5.1284 0
M  V30 2104 C 193.784 -3.73848 5.52986 0
M  V30 2105 H 193.054 -0.673444 0.309119 0
M  V30 2106 H 195.701 -1.32824 1.37949 0
M  V30 2107 H 194.006 -3.85091 0.721949 0
M  V30 2108 H 195.703 -3.85236 1.11329 0
M  V30 2109 H 192.293 -3.48249 2.49842 0
M  V30 2110 H 196.477 -3.54107 3.47738 0
M  V30 2111 H 191.733 -3.67804 4.88396 0
M  V30 2112 H 195.907 -3.74904 5.86873 0
M  V30 2113 H 193.534 -3.81333 6.57639 0
M  V30 2114 N 195.109 -0.891671 -1.2995 0
M  V30 2115 C 196.386 -0.433307 -1.9074 0
M  V30 2116 C 196.766 1.08646 -1.80995 0
M  V30 2117 O 196.114 1.92476 -1.23147 0
M  V30 2118 C 196.324 -0.938895 -3.36134 0
M  V30 2119 C 197.672 -0.977829 -4.13187 0
M  V30 2120 O 198.696 -0.886015 -3.45005 0
M  V30 2121 O 197.555 -1.11453 -5.35015 0
M  V30 2122 H 194.649 -0.133699 -0.816121 0
M  V30 2123 H 197.195 -0.981011 -1.38471 0
M  V30 2124 H 195.967 -1.98281 -3.37343 0
M  V30 2125 H 195.59 -0.37074 -3.95868 0
M  V30 2126 N 196.587 1.43421 -0.653314 0
M  V30 2127 C 197.519 2.29071 0.0769134 0
M  V30 2128 C 198.532 1.42513 0.787017 0
M  V30 2129 O 199.721 1.66449 0.644757 0
M  V30 2130 C 196.821 3.19436 1.13199 0
M  V30 2131 C 195.994 4.34533 0.500006 0
M  V30 2132 C 195.053 5.05771 1.45198 0
M  V30 2133 O 194.079 5.61037 0.960538 0
M  V30 2134 N 195.281 5.0928 2.78594 0
M  V30 2135 H 198.046 2.92382 -0.658235 0
M  V30 2136 H 195.607 1.54112 -0.496104 0
M  V30 2137 H 197.599 3.63958 1.76964 0
M  V30 2138 H 196.169 2.57724 1.7691 0
M  V30 2139 H 195.389 3.92925 -0.316738 0
M  V30 2140 H 196.677 5.08766 0.0588345 0
M  V30 2141 H 196.075 4.65751 3.2108 0
M  V30 2142 H 194.632 5.57519 3.37662 0
M  V30 2143 N 198.065 0.39524 1.52563 0
M  V30 2144 C 199.314 -0.186321 2.00838 0
M  V30 2145 C 199.627 -1.47402 1.28577 0
M  V30 2146 O 200.833 -2.13599 1.67593 0
M  V30 2147 C 199.289 -0.382595 3.57861 0
M  V30 2148 C 198.897 0.892202 4.39026 0
M  V30 2149 C 200.641 -0.9202 4.14406 0
M  V30 2150 C 198.548 0.66388 5.87662 0
M  V30 2151 H 197.478 -0.0734041 0.750418 0
M  V30 2152 H 200.129 0.518552 1.76021 0
M  V30 2153 H 198.511 -1.14946 3.7895 0
M  V30 2154 H 199.685 1.66414 4.29701 0
M  V30 2155 H 198 1.35519 3.9373 0
M  V30 2156 H 200.597 -1.10683 5.23119 0
M  V30 2157 H 200.94 -1.89096 3.70875 0
M  V30 2158 H 201.473 -0.212751 3.97231 0
M  V30 2159 H 198.212 1.6058 6.35527 0
M  V30 2160 H 197.732 -0.0690193 5.9976 0
M  V30 2161 H 199.411 0.300699 6.46301 0
M  V30 2162 N 199.544 -1.57102 0.125237 0
M  V30 2163 C 200.477 -2.11371 -0.860094 0
M  V30 2164 C 201.455 -1.03168 -1.25679 0
M  V30 2165 O 202.639 -1.30862 -1.35674 0
M  V30 2166 C 199.766 -2.61555 -2.1519 0
M  V30 2167 C 198.812 -3.81701 -1.9028 0
M  V30 2168 S 199.645 -5.23797 -1.11343 0
M  V30 2169 C 200.801 -5.77353 -2.41689 0
M  V30 2170 H 201.034 -2.94617 -0.39852 0
M  V30 2171 H 198.567 -1.54145 -0.0886555 0
M  V30 2172 H 200.525 -2.91122 -2.89411 0
M  V30 2173 H 199.186 -1.78479 -2.58465 0
M  V30 2174 H 198.379 -4.14985 -2.86014 0
M  V30 2175 H 197.981 -3.52783 -1.24178 0
M  V30 2176 H 200.273 -5.87458 -3.37489 0
M  V30 2177 H 201.216 -6.75323 -2.12942 0
M  V30 2178 H 201.624 -5.05457 -2.51342 0
M  V30 2179 N 201.022 0.148545 -1.56898 0
M  V30 2180 C 201.985 1.16736 -1.97244 0
M  V30 2181 C 202.985 1.35947 -0.858777 0
M  V30 2182 O 204.175 1.32966 -1.12542 0
M  V30 2183 C 201.307 2.52798 -2.28705 0
M  V30 2184 H 202.5 0.821279 -2.88435 0
M  V30 2185 H 200.053 0.391831 -1.51309 0
M  V30 2186 H 200.788 2.92381 -1.403 0
M  V30 2187 H 200.573 2.40216 -3.09901 0
M  V30 2188 H 202.063 3.26179 -2.60762 0
M  V30 2189 N 202.5 1.5196 0.417844 0
M  V30 2190 C 203.725 1.69717 1.1921 0
M  V30 2191 C 204.15 0.402148 1.83751 0
M  V30 2192 O 203.508 -0.639593 1.69643 0
M  V30 2193 C 203.556 2.82794 2.2374 0
M  V30 2194 O 202.66 2.47756 3.29683 0
M  V30 2195 H 202.001 0.565263 0.348387 0
M  V30 2196 H 204.531 1.98621 0.490985 0
M  V30 2197 H 204.541 3.07452 2.68212 0
M  V30 2198 H 203.216 3.76756 1.76146 0
M  V30 2199 H 201.793 2.33739 2.90552 0
M  V30 2200 N 203.978 -0.674533 1.42435 0
M  V30 2201 C 205.224 -1.43671 1.43131 0
M  V30 2202 C 205.557 -1.94142 0.0476021 0
M  V30 2203 O 204.832 -1.70924 -0.928188 0
M  V30 2204 C 205.115 -2.63355 2.45594 0
M  V30 2205 C 204.968 -2.18514 3.93156 0
M  V30 2206 C 206.287 -3.65571 2.45043 0
M  V30 2207 H 203.406 -0.521077 0.521198 0
M  V30 2208 H 206.048 -0.766551 1.7385 0
M  V30 2209 H 204.198 -3.2053 2.19528 0
M  V30 2210 H 205.87 -1.66504 4.30202 0
M  V30 2211 H 204.113 -1.50086 4.07009 0
M  V30 2212 H 204.784 -3.04484 4.60428 0
M  V30 2213 H 207.26 -3.18113 2.68223 0
M  V30 2214 H 206.136 -4.46893 3.18713 0
M  V30 2215 H 206.397 -4.16716 1.47649 0
M  V30 2216 N 205.456 -1.28612 -0.910864 0
M  V30 2217 C 206.404 -1.1265 -2.03501 0
M  V30 2218 C 207.398 -0.0450054 -1.6934 0
M  V30 2219 O 208.604 -0.203988 -1.7884 0
M  V30 2220 H 204.979 -0.347639 -0.666822 0
M  V30 2221 H 206.95 -2.07849 -2.14106 0
M  V30 2222 C 205.699 -0.808143 -3.38178 0
M  V30 2223 H 205.022 -1.63231 -3.6496 0
M  V30 2224 H 206.462 -0.736426 -4.17556 0
M  V30 2225 C 204.921 0.488226 -3.33344 0
M  V30 2226 O 205.451 1.51766 -3.71927 0
M  V30 2227 N 203.657 0.490009 -2.86439 0
M  V30 2228 H 203.204 -0.348161 -2.55236 0
M  V30 2229 H 203.162 1.35741 -2.83587 0
M  V30 2230 N 206.934 1.1197 -1.10907 0
M  V30 2231 C 208.162 1.87402 -0.876824 0
M  V30 2232 C 208.577 1.79894 0.573025 0
M  V30 2233 O 207.934 1.17629 1.39534 0
M  V30 2234 C 207.985 3.36428 -1.32282 0
M  V30 2235 O 207.706 3.43765 -2.71582 0
M  V30 2236 C 209.207 4.28783 -1.12518 0
M  V30 2237 H 206.427 0.592793 -0.314384 0
M  V30 2238 H 208.971 1.41649 -1.47499 0
M  V30 2239 H 207.126 3.79706 -0.768229 0
M  V30 2240 H 207.54 4.3652 -2.90776 0
M  V30 2241 H 209.014 5.31613 -1.48633 0
M  V30 2242 H 209.491 4.39153 -0.0642394 0
M  V30 2243 H 210.097 3.91291 -1.66648 0
M  V30 2244 N 208.412 0.89855 1.29475 0
M  V30 2245 C 209.342 0.39201 2.30186 0
M  V30 2246 C 210.323 -0.532359 1.61555 0
M  V30 2247 O 211.508 -0.443331 1.89072 0
M  V30 2248 C 208.638 -0.382353 3.45189 0
M  V30 2249 C 207.592 0.451483 4.25612 0
M  V30 2250 C 206.918 -0.450307 5.328 0
M  V30 2251 C 208.218 1.70079 4.93832 0
M  V30 2252 H 209.912 1.23362 2.72804 0
M  V30 2253 H 207.458 0.594638 1.31149 0
M  V30 2254 H 209.411 -0.747451 4.14718 0
M  V30 2255 H 208.135 -1.25774 3.01411 0
M  V30 2256 H 206.794 0.798897 3.57789 0
M  V30 2257 H 206.442 -1.32379 4.85268 0
M  V30 2258 H 206.142 0.103902 5.87508 0
M  V30 2259 H 207.666 -0.811623 6.05182 0
M  V30 2260 H 209.08 1.40549 5.55805 0
M  V30 2261 H 207.477 2.19623 5.58467 0
M  V30 2262 H 208.547 2.43744 4.19186 0
M  V30 2263 N 209.89 -1.43072 0.660911 0
M  V30 2264 C 211.137 -2.01721 0.177445 0
M  V30 2265 C 211.465 -1.5218 -1.21126 0
M  V30 2266 O 210.72 -0.708659 -1.82419 0
M  V30 2267 C 211.019 -3.57103 0.145563 0
M  V30 2268 C 210.685 -4.26021 1.47705 0
M  V30 2269 C 209.347 -4.44563 1.84165 0
M  V30 2270 C 211.699 -4.64983 2.35458 0
M  V30 2271 C 209.027 -4.99334 3.0803 0
M  V30 2272 C 211.379 -5.21127 3.58622 0
M  V30 2273 C 210.043 -5.37884 3.95268 0
M  V30 2274 H 209.313 -0.73815 0.0649317 0
M  V30 2275 H 211.96 -1.71446 0.853144 0
M  V30 2276 H 210.265 -3.86965 -0.61361 0
M  V30 2277 H 211.962 -4.00248 -0.2455 0
M  V30 2278 H 208.552 -4.11939 1.18339 0
M  V30 2279 H 212.736 -4.50343 2.08579 0
M  V30 2280 H 207.992 -5.10493 3.36462 0
M  V30 2281 H 212.166 -5.50262 4.26831 0
M  V30 2282 H 209.793 -5.80089 4.91325 0
M  V30 2283 N 211.368 -0.403325 -1.52352 0
M  V30 2284 C 212.3 0.4603 -2.2453 0
M  V30 2285 C 213.313 1.01505 -1.27282 0
M  V30 2286 O 214.502 0.914982 -1.53266 0
M  V30 2287 C 211.602 1.65208 -2.95905 0
M  V30 2288 C 210.775 1.22224 -4.19976 0
M  V30 2289 C 209.834 2.28028 -4.74226 0
M  V30 2290 O 208.86 1.88857 -5.36956 0
M  V30 2291 N 210.062 3.6012 -4.55295 0
M  V30 2292 H 212.827 -0.158156 -2.99282 0
M  V30 2293 H 210.388 -0.230402 -1.60252 0
M  V30 2294 H 212.38 2.35541 -3.29093 0
M  V30 2295 H 210.95 2.17658 -2.24374 0
M  V30 2296 H 210.17 0.34725 -3.92668 0
M  V30 2297 H 211.458 0.911924 -5.00561 0
M  V30 2298 H 210.856 3.94698 -4.05253 0
M  V30 2299 H 209.413 4.26447 -4.92936 0
M  V30 2300 N 212.846 1.57033 -0.133567 0
M  V30 2301 C 213.809 2.14897 0.796995 0
M  V30 2302 C 214.809 1.0874 1.18458 0
M  V30 2303 O 215.999 1.34446 1.1077 0
M  V30 2304 C 213.131 2.70112 2.07973 0
M  V30 2305 H 214.324 2.98457 0.293873 0
M  V30 2306 H 211.877 1.55871 0.115787 0
M  V30 2307 H 212.612 1.9018 2.62682 0
M  V30 2308 H 212.397 3.47764 1.81115 0
M  V30 2309 H 213.887 3.14738 2.74462 0
M  V30 2310 N 214.325 -0.140222 1.56975 0
M  V30 2311 C 215.553 -0.866437 1.87884 0
M  V30 2312 C 215.968 -1.74428 0.722517 0
M  V30 2313 O 215.325 -1.79891 -0.30749 0
M  V30 2314 C 215.376 -1.71753 3.18093 0
M  V30 2315 O 215.097 -0.875056 4.29272 0
M  V30 2316 C 216.598 -2.55074 3.62563 0
M  V30 2317 H 213.818 -0.25019 0.622612 0
M  V30 2318 H 216.362 -0.130977 2.0408 0
M  V30 2319 H 214.517 -2.40598 3.03631 0
M  V30 2320 H 214.931 -1.46002 5.03769 0
M  V30 2321 H 216.405 -3.10356 4.5649 0
M  V30 2322 H 216.882 -3.31434 2.88181 0
M  V30 2323 H 217.488 -1.91509 3.79743 0
M  V30 2324 N 215.803 -1.52179 -0.40978 0
M  V30 2325 C 216.753 -1.71857 -1.49831 0
M  V30 2326 C 217.737 -0.572469 -1.50372 0
M  V30 2327 O 218.929 -0.829509 -1.56359 0
M  V30 2328 C 216.058 -1.87206 -2.87765 0
M  V30 2329 C 215.144 -3.07685 -2.91875 0
M  V30 2330 N 215.535 -4.30403 -2.65683 0
M  V30 2331 C 213.833 -3.07505 -3.23043 0
M  V30 2332 C 214.534 -5.11868 -2.76344 0
M  V30 2333 N 213.51 -4.47101 -3.09195 0
M  V30 2334 H 217.312 -2.64381 -1.28375 0
M  V30 2335 H 214.826 -1.50203 -0.617479 0
M  V30 2336 H 216.823 -1.99419 -3.66111 0
M  V30 2337 H 215.483 -0.958814 -3.10221 0
M  V30 2338 H 216.494 -4.58887 -2.4009 0
M  V30 2339 H 213.171 -2.25915 -3.51096 0
M  V30 2340 H 214.561 -6.19634 -2.59814 0
M  V30 2341 N 217.281 0.66697 -1.42791 0
M  V30 2342 C 218.53 1.42278 -1.42968 0
M  V30 2343 C 218.843 1.9553 -0.0524489 0
M  V30 2344 O 220.049 2.71414 0.068363 0
M  V30 2345 C 218.505 2.57418 -2.51524 0
M  V30 2346 C 218.113 2.10832 -3.9529 0
M  V30 2347 C 219.857 3.34878 -2.60877 0
M  V30 2348 C 217.764 3.23101 -4.95338 0
M  V30 2349 H 216.694 0.534533 -0.531781 0
M  V30 2350 H 219.345 0.721302 -1.68729 0
M  V30 2351 H 217.727 3.29971 -2.18941 0
M  V30 2352 H 218.901 1.4538 -4.37266 0
M  V30 2353 H 217.216 1.46289 -3.89857 0
M  V30 2354 H 219.813 4.18505 -3.32802 0
M  V30 2355 H 220.156 3.81993 -1.6549 0
M  V30 2356 H 220.689 2.69398 -2.92693 0
M  V30 2357 H 217.428 2.80969 -5.9223 0
M  V30 2358 H 216.948 3.87309 -4.57987 0
M  V30 2359 H 218.627 3.88447 -5.17415 0
M  V30 2360 N 218.759 1.29093 0.90403 0
M  V30 2361 C 219.987 1.19689 1.68766 0
M  V30 2362 C 220.402 -0.243113 1.87228 0
M  V30 2363 O 219.759 -1.16326 1.40621 0
M  V30 2364 C 219.81 1.90144 3.07453 0
M  V30 2365 O 219.531 3.2852 2.89838 0
M  V30 2366 C 221.032 1.87162 4.01852 0
M  V30 2367 H 218.252 0.415035 0.527244 0
M  V30 2368 H 220.796 1.7039 1.13082 0
M  V30 2369 H 218.951 1.43289 3.59926 0
M  V30 2370 H 219.365 3.63944 3.77684 0
M  V30 2371 H 220.839 2.41032 4.96596 0
M  V30 2372 H 221.316 0.84617 4.30972 0
M  V30 2373 H 221.922 2.33741 3.5531 0
M  V30 2374 N 220.237 -1.11381 1.11499 0
M  V30 2375 C 221.648 -1.6465 0.880191 0
M  V30 2376 C 221.999 -1.87199 -0.587434 0
M  V30 2377 O 221.124 -1.60667 -1.44966 0
M  V30 2378 C 221.719 -2.99105 1.59128 0
M  V30 2379 C 220.278 -3.49279 1.40289 0
M  V30 2380 C 219.425 -2.24077 1.63354 0
M  V30 2381 H 222.376 -0.950123 1.27116 0
M  V30 2382 H 222.397 -3.66107 1.03664 0
M  V30 2383 H 221.909 -2.82661 2.65941 0
M  V30 2384 H 220.01 -3.70887 0.356888 0
M  V30 2385 H 220.123 -4.2803 2.15238 0
M  V30 2386 H 218.487 -2.31733 1.05698 0
M  V30 2387 H 219.27 -2.10175 2.71443 0
M  V30 2388 N 221.715 -0.905404 -1.28997 0
M  V30 2389 C 222.962 -0.534248 -1.95325 0
M  V30 2390 C 223.29 0.920535 -1.71337 0
M  V30 2391 O 222.545 1.66861 -1.02254 0
M  V30 2392 C 222.844 -0.779906 -3.48787 0
M  V30 2393 C 222.51 -2.21293 -3.92861 0
M  V30 2394 C 221.172 -2.60475 -4.04606 0
M  V30 2395 C 223.524 -3.14587 -4.15553 0
M  V30 2396 C 220.852 -3.9212 -4.36416 0
M  V30 2397 C 223.204 -4.45787 -4.48839 0
M  V30 2398 C 221.868 -4.84834 -4.58794 0
M  V30 2399 H 221.138 -0.195495 -0.714747 0
M  V30 2400 H 223.785 -1.14514 -1.53488 0
M  V30 2401 H 222.09 -0.0861365 -3.91705 0
M  V30 2402 H 223.787 -0.472029 -3.98212 0
M  V30 2403 H 220.377 -1.89887 -3.84241 0
M  V30 2404 H 224.561 -2.85528 -4.0594 0
M  V30 2405 H 219.817 -4.22086 -4.42327 0
M  V30 2406 H 223.991 -5.18098 -4.65346 0
M  V30 2407 H 221.618 -5.86877 -4.83197 0
M  V30 2408 N 223.193 1.4272 -0.668489 0
M  V30 2409 C 224.604 1.84793 -0.266151 0
M  V30 2410 C 224.955 1.55959 1.19043 0
M  V30 2411 O 224.08 1.01622 1.91055 0
M  V30 2412 C 224.675 3.35436 -0.476271 0
M  V30 2413 C 223.234 3.76182 -0.128113 0
M  V30 2414 C 222.381 2.66344 -0.771777 0
M  V30 2415 H 225.332 1.32656 -0.871098 0
M  V30 2416 H 225.353 3.79515 0.273561 0
M  V30 2417 H 224.865 3.5639 -1.53647 0
M  V30 2418 H 222.966 3.60836 0.928891 0
M  V30 2419 H 223.079 4.75766 -0.564231 0
M  V30 2420 H 221.443 2.53885 -0.203652 0
M  V30 2421 H 222.226 2.90123 -1.83531 0
M  V30 2422 N 224.671 0.411399 1.52136 0
M  V30 2423 C 225.92 -0.165009 2.01024 0
M  V30 2424 C 226.233 -1.4603 1.30133 0
M  V30 2425 O 227.439 -2.1181 1.69849 0
M  V30 2426 C 225.895 -0.344618 3.58246 0
M  V30 2427 C 225.503 0.938716 4.38055 0
M  V30 2428 C 227.247 -0.876195 4.15359 0
M  V30 2429 C 225.154 0.726172 5.86925 0
M  V30 2430 H 224.084 -0.0654407 0.751155 0
M  V30 2431 H 226.735 0.537192 1.75461 0
M  V30 2432 H 225.117 -1.10921 3.80148 0
M  V30 2433 H 226.291 1.70963 4.27912 0
M  V30 2434 H 224.606 1.39688 3.92271 0
M  V30 2435 H 227.203 -1.05128 5.24263 0
M  V30 2436 H 227.546 -1.85152 3.7286 0
M  V30 2437 H 228.079 -0.170607 3.97434 0
M  V30 2438 H 224.818 1.67312 6.33788 0
M  V30 2439 H 224.338 -0.00540283 5.998 0
M  V30 2440 H 226.017 0.369231 6.45946 0
M  V30 2441 N 226.149 -1.5696 0.141893 0
M  V30 2442 C 227.398 -1.95135 -0.510427 0
M  V30 2443 C 227.711 -1.02896 -1.66348 0
M  V30 2444 O 228.917 -1.30629 -2.38009 0
M  V30 2445 C 227.373 -3.46876 -0.959427 0
M  V30 2446 C 226.981 -4.47691 0.166419 0
M  V30 2447 C 228.725 -3.93927 -1.58183 0
M  V30 2448 C 226.632 -5.90636 -0.300565 0
M  V30 2449 H 225.562 -0.728494 -0.194454 0
M  V30 2450 H 228.213 -1.8211 0.22542 0
M  V30 2451 H 226.595 -3.55215 -1.75038 0
M  V30 2452 H 227.769 -4.51043 0.94325 0
M  V30 2453 H 226.084 -4.10527 0.696905 0
M  V30 2454 H 228.681 -4.98158 -1.94275 0
M  V30 2455 H 229.024 -3.3519 -2.46888 0
M  V30 2456 H 229.557 -3.88484 -0.855863 0
M  V30 2457 H 226.296 -6.5318 0.550989 0
M  V30 2458 H 225.816 -5.90655 -1.04338 0
M  V30 2459 H 227.495 -6.42588 -0.754265 0
M  V30 2460 N 227.627 0.131896 -1.57047 0
M  V30 2461 C 228.876 0.84044 -1.83356 0
M  V30 2462 C 229.189 1.81646 -0.725535 0
M  V30 2463 O 230.395 2.57025 -0.874659 0
M  V30 2464 C 228.851 1.54528 -3.25037 0
M  V30 2465 C 228.459 0.610902 -4.43815 0
M  V30 2466 C 230.203 2.23972 -3.60606 0
M  V30 2467 C 228.11 1.31823 -5.76521 0
M  V30 2468 H 227.04 0.317599 -0.683847 0
M  V30 2469 H 229.691 0.0931561 -1.83263 0
M  V30 2470 H 228.073 2.33873 -3.19561 0
M  V30 2471 H 229.247 -0.148407 -4.60561 0
M  V30 2472 H 227.562 0.0241016 -4.16393 0
M  V30 2473 H 230.159 2.77558 -4.57018 0
M  V30 2474 H 230.502 3.01173 -2.87403 0
M  V30 2475 H 231.035 1.51529 -3.6781 0
M  V30 2476 H 227.774 0.587771 -6.52859 0
M  V30 2477 H 227.294 2.04987 -5.63685 0
M  V30 2478 H 228.973 1.855 -6.19838 0
M  V30 2479 N 229.106 1.52395 0.401703 0
M  V30 2480 C 230.355 1.66044 1.14509 0
M  V30 2481 C 230.668 0.400216 1.91462 0
M  V30 2482 O 231.874 0.416632 2.68284 0
M  V30 2483 C 230.33 2.93388 2.0845 0
M  V30 2484 C 229.938 4.26545 1.36978 0
M  V30 2485 C 231.682 3.16402 2.83001 0
M  V30 2486 C 229.589 5.45007 2.29611 0
M  V30 2487 H 228.519 0.618562 0.431158 0
M  V30 2488 H 231.17 1.78886 0.40892 0
M  V30 2489 H 229.552 2.74263 2.8565 0
M  V30 2490 H 230.726 4.56179 0.650916 0
M  V30 2491 H 229.041 4.09692 0.74438 0
M  V30 2492 H 231.638 4.02085 3.52465 0
M  V30 2493 H 231.981 2.30943 3.46368 0
M  V30 2494 H 232.514 3.36034 2.12898 0
M  V30 2495 H 229.253 6.32835 1.70879 0
M  V30 2496 H 228.773 5.19702 2.9945 0
M  V30 2497 H 230.452 5.7838 2.89974 0
M  V30 2498 N 230.584 -0.659388 1.43143 0
M  V30 2499 C 231.516 -1.7849 1.43784 0
M  V30 2500 C 232.529 -1.5932 0.334787 0
M  V30 2501 O 233.718 -1.68155 0.598842 0
M  V30 2502 C 230.818 -3.15828 1.22906 0
M  V30 2503 C 229.991 -3.61711 2.45934 0
M  V30 2504 C 229.05 -4.77831 2.20371 0
M  V30 2505 O 228.076 -4.87586 2.93681 0
M  V30 2506 N 229.278 -5.67611 1.21647 0
M  V30 2507 H 232.043 -1.7842 2.40803 0
M  V30 2508 H 229.604 -0.84302 1.3822 0
M  V30 2509 H 231.596 -3.91189 1.03697 0
M  V30 2510 H 230.166 -3.10707 0.343542 0
M  V30 2511 H 229.386 -2.76861 2.80609 0
M  V30 2512 H 230.674 -3.89112 3.27825 0
M  V30 2513 H 230.072 -5.62397 0.610449 0
M  V30 2514 H 228.629 -6.42719 1.08423 0
M  V30 2515 N 232.062 -1.29571 -0.897171 0
M  V30 2516 C 232.972 -1.16808 -2.03453 0
M  V30 2517 C 233.988 -0.0907471 -1.73763 0
M  V30 2518 O 235.164 -0.303312 -1.99103 0
M  V30 2519 C 232.229 -0.848264 -3.36163 0
M  V30 2520 C 231.29 -2.0097 -3.79354 0
M  V30 2521 C 230.523 -1.70505 -5.05731 0
M  V30 2522 O 230.746 -0.62718 -5.66941 0
M  V30 2523 O 229.68 -2.5538 -5.45036 0
M  V30 2524 H 233.506 -2.12325 -2.17144 0
M  V30 2525 H 231.091 -1.09047 -1.02123 0
M  V30 2526 H 232.973 -0.684581 -4.15802 0
M  V30 2527 H 231.648 0.0771071 -3.23608 0
M  V30 2528 H 230.555 -2.22863 -3.00471 0
M  V30 2529 H 231.888 -2.91636 -3.96496 0
M  V30 2530 N 233.54 1.10788 -1.12088 0
M  V30 2531 C 234.45 2.20599 -0.798338 0
M  V30 2532 C 235.466 1.72712 0.21135 0
M  V30 2533 O 236.642 2.01348 0.0458477 0
M  V30 2534 C 233.707 3.45771 -0.253674 0
M  V30 2535 C 232.768 4.08411 -1.32283 0
M  V30 2536 C 232.001 5.27608 -0.80406 0
M  V30 2537 O 232.224 5.69241 0.363478 0
M  V30 2538 O 231.158 5.8101 -1.57198 0
M  V30 2539 H 234.984 2.50614 -1.7154 0
M  V30 2540 H 232.569 1.19454 -0.897275 0
M  V30 2541 H 234.451 4.21376 0.0453691 0
M  V30 2542 H 233.126 3.1739 0.636005 0
M  V30 2543 H 232.033 3.34507 -1.67499 0
M  V30 2544 H 233.366 4.40986 -2.18614 0
M  V30 2545 N 235.018 0.912232 1.28515 0
M  V30 2546 C 236.243 0.559774 1.99703 0
M  V30 2547 C 236.668 -0.851393 1.67729 0
M  V30 2548 O 236.026 -1.56875 0.908834 0
M  V30 2549 C 236.074 0.773874 3.52198 0
M  V30 2550 O 235.178 -0.167842 4.12058 0
M  V30 2551 H 234.519 0.21723 0.627461 0
M  V30 2552 H 237.049 1.22725 1.63706 0
M  V30 2553 H 237.059 0.683386 4.02236 0
M  V30 2554 H 235.734 1.80261 3.74805 0
M  V30 2555 H 234.311 -0.0287509 3.72889 0
M  V30 2556 N 236.496 -1.42363 0.676048 0
M  V30 2557 C 237.426 -2.33497 0.0124832 0
M  V30 2558 C 238.407 -1.50748 -0.787981 0
M  V30 2559 O 239.592 -1.79346 -0.744884 0
M  V30 2560 C 236.722 -3.34377 -0.938582 0
M  V30 2561 C 235.676 -4.27289 -0.246622 0
M  V30 2562 C 235.002 -5.18386 -1.31071 0
M  V30 2563 C 236.302 -5.14916 0.875125 0
M  V30 2564 H 237.996 -2.89233 0.773593 0
M  V30 2565 H 235.542 -1.39073 0.37346 0
M  V30 2566 H 237.495 -3.97044 -1.41188 0
M  V30 2567 H 236.219 -2.76947 -1.73113 0
M  V30 2568 H 234.878 -3.66018 0.206456 0
M  V30 2569 H 234.526 -4.57282 -2.09528 0
M  V30 2570 H 234.226 -5.81378 -0.852839 0
M  V30 2571 H 235.75 -5.83929 -1.78492 0
M  V30 2572 H 237.164 -5.71262 0.482983 0
M  V30 2573 H 235.561 -5.86747 1.25887 0
M  V30 2574 H 236.631 -4.53242 1.72335 0
M  V30 2575 N 237.974 -0.419461 -1.51915 0
M  V30 2576 C 239.223 0.154346 -2.01109 0
M  V30 2577 C 239.536 1.45338 -1.30905 0
M  V30 2578 O 240.742 2.10906 -1.7097 0
M  V30 2579 C 239.198 0.325615 -3.58424 0
M  V30 2580 C 238.806 -0.961934 -4.37551 0
M  V30 2581 C 240.55 0.854155 -4.15818 0
M  V30 2582 C 238.457 -0.757287 -5.86531 0
M  V30 2583 H 237.387 0.0614563 -0.751491 0
M  V30 2584 H 240.038 -0.54649 -1.75173 0
M  V30 2585 H 238.42 1.08903 -3.80731 0
M  V30 2586 H 239.594 -1.7323 -4.26999 0
M  V30 2587 H 237.909 -1.41766 -3.91524 0
M  V30 2588 H 240.506 1.02346 -5.24814 0
M  V30 2589 H 240.849 1.83172 -3.73837 0
M  V30 2590 H 241.382 0.149528 -3.97519 0
M  V30 2591 H 238.121 -1.70671 -6.32892 0
M  V30 2592 H 237.641 -0.0264061 -5.99794 0
M  V30 2593 H 239.32 -0.403482 -6.45741 0
M  V30 2594 N 239.452 1.56882 -0.150215 0
M  V30 2595 C 240.682 2.00302 0.506213 0
M  V30 2596 C 241.09 1.02934 1.58749 0
M  V30 2597 O 240.433 0.0188384 1.8369 0
M  V30 2598 C 240.495 3.40156 1.16337 0
M  V30 2599 C 240.159 4.56439 0.226311 0
M  V30 2600 C 241.156 5.17012 -0.547265 0
M  V30 2601 C 238.841 5.02136 0.128279 0
M  V30 2602 C 240.835 6.21693 -1.40629 0
M  V30 2603 C 238.522 6.06672 -0.734345 0
M  V30 2604 C 239.52 6.6632 -1.50023 0
M  V30 2605 O 239.208 7.68831 -2.34848 0
M  V30 2606 H 238.94 0.662182 0.135984 0
M  V30 2607 H 241.494 2.03961 -0.242746 0
M  V30 2608 H 239.724 3.33346 1.96004 0
M  V30 2609 H 241.413 3.67663 1.71985 0
M  V30 2610 H 242.179 4.82603 -0.48158 0
M  V30 2611 H 238.058 4.55435 0.714157 0
M  V30 2612 H 241.602 6.68179 -2.00455 0
M  V30 2613 H 237.499 6.40507 -0.801309 0
M  V30 2614 H 238.267 7.86065 -2.28131 0
M  V30 2615 N 240.93 -0.123565 1.57115 0
M  V30 2616 C 241.86 -1.15309 2.03042 0
M  V30 2617 C 242.841 -1.43454 0.914061 0
M  V30 2618 O 244.026 -1.53973 1.18347 0
M  V30 2619 C 241.156 -2.48043 2.43089 0
M  V30 2620 C 240.11 -2.3437 3.58127 0
M  V30 2621 C 239.436 -3.72026 3.84059 0
M  V30 2622 C 240.736 -1.80804 4.90007 0
M  V30 2623 H 242.43 -0.771102 2.893 0
M  V30 2624 H 239.976 -0.369479 1.39179 0
M  V30 2625 H 241.929 -3.20311 2.73823 0
M  V30 2626 H 240.653 -2.88122 1.53796 0
M  V30 2627 H 239.312 -1.64551 3.27595 0
M  V30 2628 H 238.96 -4.09582 2.91979 0
M  V30 2629 H 238.66 -3.63732 4.6149 0
M  V30 2630 H 240.184 -4.45806 4.1724 0
M  V30 2631 H 241.598 -2.42886 5.19307 0
M  V30 2632 H 239.995 -1.83343 5.71407 0
M  V30 2633 H 241.065 -0.76528 4.78823 0
M  V30 2634 N 242.408 -1.52605 -0.393616 0
M  V30 2635 C 243.338 -1.80022 -1.48709 0
M  V30 2636 C 244.319 -0.651995 -1.57108 0
M  V30 2637 O 245.504 -0.89913 -1.72132 0
M  V30 2638 C 242.634 -1.96492 -2.86371 0
M  V30 2639 C 241.588 -3.12161 -2.92813 0
M  V30 2640 C 240.914 -3.13877 -4.3288 0
M  V30 2641 C 242.214 -4.51322 -2.6288 0
M  V30 2642 H 243.908 -2.71589 -1.26015 0
M  V30 2643 H 241.454 -1.30684 -0.604778 0
M  V30 2644 H 243.407 -2.14255 -3.62867 0
M  V30 2645 H 242.131 -1.01611 -3.10391 0
M  V30 2646 H 240.79 -2.94173 -2.18764 0
M  V30 2647 H 240.438 -2.16687 -4.53933 0
M  V30 2648 H 240.138 -3.91576 -4.38112 0
M  V30 2649 H 241.662 -3.33789 -5.1129 0
M  V30 2650 H 243.076 -4.69435 -3.29096 0
M  V30 2651 H 241.473 -5.31053 -2.79468 0
M  V30 2652 H 242.543 -4.58353 -1.58242 0
M  V30 2653 N 243.887 0.651787 -1.4349 0
M  V30 2654 C 244.819 1.77725 -1.44729 0
M  V30 2655 C 245.832 1.59141 -0.343231 0
M  V30 2656 O 247.021 1.67835 -0.607751 0
M  V30 2657 C 244.121 3.15172 -1.24579 0
M  V30 2658 C 243.294 3.60402 -2.47849 0
M  V30 2659 C 242.353 4.76656 -2.22902 0
M  V30 2660 O 241.379 4.86022 -2.96263 0
M  V30 2661 N 242.581 5.66958 -1.24656 0
M  V30 2662 H 245.346 1.77141 -2.41746 0
M  V30 2663 H 242.907 0.835678 -1.38665 0
M  V30 2664 H 244.899 3.90634 -1.0577 0
M  V30 2665 H 243.469 3.1052 -0.360015 0
M  V30 2666 H 242.689 2.75369 -2.82073 0
M  V30 2667 H 243.977 3.87368 -3.29884 0
M  V30 2668 H 243.375 5.62065 -0.640265 0
M  V30 2669 H 241.932 6.42135 -1.1183 0
M  V30 2670 N 245.365 1.30045 0.890287 0
M  V30 2671 C 246.776 1.16738 1.45702 0
M  V30 2672 C 247.127 -0.233939 1.948 0
M  V30 2673 O 246.252 -1.13021 1.84541 0
M  V30 2674 C 246.847 2.11313 2.64825 0
M  V30 2675 C 245.406 2.02001 3.17604 0
M  V30 2676 C 244.553 2.01699 1.90296 0
M  V30 2677 H 247.504 1.42392 0.700726 0
M  V30 2678 H 247.525 1.69086 3.40867 0
M  V30 2679 H 247.037 3.13294 2.2906 0
M  V30 2680 H 245.138 1.03142 3.5804 0
M  V30 2681 H 245.251 2.90128 3.81264 0
M  V30 2682 H 243.615 1.46427 2.08402 0
M  V30 2683 H 244.398 3.05402 1.56795 0
M  V30 2684 N 246.843 -1.10192 1.12674 0
M  V30 2685 C 248.091 -1.81845 0.881861 0
M  V30 2686 C 248.412 -1.85737 -0.593867 0
M  V30 2687 O 247.682 -1.33724 -1.4316 0
M  V30 2688 H 246.262 -0.673432 0.323261 0
M  V30 2689 H 248.924 -1.33316 1.42172 0
M  V30 2690 H 248.02 -2.85288 1.2656 0
M  V30 2691 N 248.321 -0.919034 -1.28029 0
M  V30 2692 C 249.268 -0.410005 -2.27129 0
M  V30 2693 C 250.238 0.518405 -1.57803 0
M  V30 2694 O 251.423 0.439451 -1.8567 0
M  V30 2695 C 248.563 0.339054 -3.4343 0
M  V30 2696 C 247.676 -0.622468 -4.27492 0
M  V30 2697 C 246.811 0.145567 -5.31001 0
M  V30 2698 C 245.85 -0.809226 -6.06727 0
M  V30 2699 N 244.987 -0.0743728 -7.02061 0
M  V30 2700 H 249.827 -1.26011 -2.70047 0
M  V30 2701 H 247.364 -0.632663 -1.328 0
M  V30 2702 H 249.322 0.789586 -4.0966 0
M  V30 2703 H 247.952 1.15346 -3.01488 0
M  V30 2704 H 247.004 -1.19153 -3.61257 0
M  V30 2705 H 248.316 -1.35252 -4.80113 0
M  V30 2706 H 247.47 0.656417 -6.03139 0
M  V30 2707 H 246.209 0.908643 -4.79161 0
M  V30 2708 H 245.214 -1.3314 -5.33436 0
M  V30 2709 H 246.439 -1.57194 -6.60656 0
M  V30 2710 H 244.385 0.670616 -6.52563 0
M  V30 2711 H 244.302 -0.744157 -7.52329 0
M  V30 2712 H 245.57 0.416109 -7.78389 0
M  V30 2713 N 249.799 1.42003 -0.683588 0
M  V30 2714 C 250.749 2.27997 0.0121992 0
M  V30 2715 C 251.733 1.4156 0.764822 0
M  V30 2716 O 252.925 1.64935 0.642287 0
M  V30 2717 C 250.054 3.29706 0.956482 0
M  V30 2718 C 249.14 4.23625 0.200739 0
M  V30 2719 N 249.531 4.99448 -0.799087 0
M  V30 2720 C 247.829 4.43845 0.437937 0
M  V30 2721 C 248.53 5.68102 -1.25041 0
M  V30 2722 N 247.506 5.40511 -0.578648 0
M  V30 2723 H 251.308 2.84048 -0.754564 0
M  V30 2724 H 248.822 1.54071 -0.513398 0
M  V30 2725 H 250.819 3.90124 1.47 0
M  V30 2726 H 249.479 2.75216 1.72297 0
M  V30 2727 H 250.49 5.04303 -1.17893 0
M  V30 2728 H 247.167 4.00382 1.18325 0
M  V30 2729 H 248.557 6.38913 -2.07942 0
M  V30 2730 N 251.277 0.427512 1.51691 0
M  V30 2731 C 252.693 0.0792977 1.59403 0
M  V30 2732 C 252.893 -1.41035 1.43914 0
M  V30 2733 O 251.949 -2.17922 1.27539 0
M  V30 2734 C 253.262 0.590636 2.94842 0
M  V30 2735 C 254.81 0.550215 3.08126 0
M  V30 2736 C 255.285 1.03836 4.46074 0
M  V30 2737 N 256.776 0.995943 4.52366 0
M  V30 2738 C 257.511 1.34463 5.57411 0
M  V30 2739 N 257.007 1.76569 6.69922 0
M  V30 2740 N 258.8 1.26343 5.47717 0
M  V30 2741 H 250.951 1.39687 1.60004 0
M  V30 2742 H 253.214 0.575003 0.753708 0
M  V30 2743 H 252.92 1.63251 3.11516 0
M  V30 2744 H 252.794 0.0102061 3.77199 0
M  V30 2745 H 255.181 -0.482654 2.91126 0
M  V30 2746 H 255.262 1.16693 2.27632 0
M  V30 2747 H 254.906 2.06965 4.63819 0
M  V30 2748 H 254.836 0.398286 5.25092 0
M  V30 2749 H 257.327 0.68661 3.7161 0
M  V30 2750 H 257.64 2.01438 7.46085 0
M  V30 2751 H 255.985 1.80488 6.71155 0
M  V30 2752 H 259.176 0.933209 4.58703 0
M  V30 2753 H 259.349 1.53846 6.29472 0
M  V30 2754 N 252.755 -1.56801 0.158532 0
M  V30 2755 C 253.685 -2.20347 -0.772609 0
M  V30 2756 C 254.666 -1.15518 -1.24859 0
M  V30 2757 O 255.851 -1.43902 -1.30406 0
M  V30 2758 C 252.981 -2.83417 -2.00729 0
M  V30 2759 C 251.935 -3.94174 -1.66765 0
M  V30 2760 C 251.261 -4.44233 -2.97592 0
M  V30 2761 C 252.561 -5.14392 -0.905447 0
M  V30 2762 H 254.255 -2.98413 -0.242959 0
M  V30 2763 H 251.801 -1.43537 -0.115419 0
M  V30 2764 H 253.754 -3.26543 -2.6636 0
M  V30 2765 H 252.478 -2.02701 -2.56086 0
M  V30 2766 H 251.137 -3.51684 -1.03508 0
M  V30 2767 H 250.785 -3.60325 -3.50963 0
M  V30 2768 H 250.485 -5.18945 -2.75626 0
M  V30 2769 H 252.009 -4.90037 -3.64274 0
M  V30 2770 H 253.423 -5.5429 -1.46408 0
M  V30 2771 H 251.82 -5.9494 -0.7853 0
M  V30 2772 H 252.89 -4.84795 0.100668 0
M  V30 2773 N 254.233 0.115231 -1.57178 0
M  V30 2774 C 255.183 1.14707 -1.97044 0
M  V30 2775 C 256.167 1.36866 -0.845957 0
M  V30 2776 O 257.359 1.37895 -1.10968 0
M  V30 2777 C 254.488 2.47266 -2.38148 0
M  V30 2778 C 253.574 2.28566 -3.57237 0
M  V30 2779 N 253.965 1.79685 -4.72807 0
M  V30 2780 C 252.263 2.59208 -3.62943 0
M  V30 2781 C 252.964 1.74781 -5.54821 0
M  V30 2782 N 251.94 2.19264 -4.97417 0
M  V30 2783 H 255.742 0.761754 -2.83857 0
M  V30 2784 H 253.256 0.322928 -1.59157 0
M  V30 2785 H 255.253 3.219 -2.64927 0
M  V30 2786 H 253.913 2.86552 -1.52702 0
M  V30 2787 H 254.924 1.49177 -4.9595 0
M  V30 2788 H 251.601 3.02154 -2.88113 0
M  V30 2789 H 252.991 1.38212 -6.57531 0
M  V30 2790 N 255.711 1.52812 0.385517 0
M  V30 2791 C 256.957 1.68275 1.13188 0
M  V30 2792 C 257.29 0.423179 1.89533 0
M  V30 2793 O 256.565 -0.579113 1.85679 0
M  V30 2794 C 256.848 2.92001 2.1073 0
M  V30 2795 C 256.701 4.28067 1.38125 0
M  V30 2796 C 258.02 3.11283 3.11113 0
M  V30 2797 H 255.139 0.612352 0.410115 0
M  V30 2798 H 257.781 1.85415 0.414869 0
M  V30 2799 H 255.931 2.77519 2.71874 0
M  V30 2800 H 257.603 4.54324 0.799187 0
M  V30 2801 H 255.846 4.28388 0.683092 0
M  V30 2802 H 256.517 5.10733 2.09417 0
M  V30 2803 H 258.993 3.2482 2.6006 0
M  V30 2804 H 257.869 3.99325 3.76605 0
M  V30 2805 H 258.13 2.25656 3.80173 0
M  V30 2806 N 257.189 -0.644168 1.43834 0
M  V30 2807 C 258.466 -1.40188 1.36406 0
M  V30 2808 C 258.846 -2.11094 0.0163124 0
M  V30 2809 O 258.194 -2.05426 -1.00062 0
M  V30 2810 C 258.404 -2.3791 2.55343 0
M  V30 2811 C 259.752 -3.01637 2.98832 0
M  V30 2812 O 260.776 -2.48237 2.55455 0
M  V30 2813 O 259.635 -3.98477 3.74003 0
M  V30 2814 H 256.729 -0.626773 0.539523 0
M  V30 2815 H 259.275 -0.670317 1.559 0
M  V30 2816 H 258.047 -1.84525 3.4506 0
M  V30 2817 H 257.67 -3.18503 2.37995 0
M  V30 2818 N 258.668 -1.30515 -0.883378 0
M  V30 2819 C 259.896 -1.22359 -1.66841 0
M  V30 2820 C 260.311 0.213296 -1.87591 0
M  V30 2821 O 259.668 1.14075 -1.42454 0
M  V30 2822 C 259.719 -1.95011 -3.04389 0
M  V30 2823 O 259.44 -3.3309 -2.84575 0
M  V30 2824 C 260.941 -1.93532 -3.98824 0
M  V30 2825 H 258.161 -0.423371 -0.520575 0
M  V30 2826 H 260.705 -1.72167 -1.10357 0
M  V30 2827 H 258.86 -1.48997 -3.57601 0
M  V30 2828 H 259.274 -3.69907 -3.71846 0
M  V30 2829 H 260.748 -2.48902 -4.92699 0
M  V30 2830 H 261.225 -0.914627 -4.29571 0
M  V30 2831 H 261.831 -2.39364 -3.51547 0
M  V30 2832 N 260.146 1.09593 -1.13257 0
M  V30 2833 C 261.394 1.81375 -0.891492 0
M  V30 2834 C 261.715 1.86049 0.584009 0
M  V30 2835 O 260.985 1.34481 1.42449 0
M  V30 2836 H 259.565 0.671708 -0.326828 0
M  V30 2837 H 262.227 1.3256 -1.42877 0
M  V30 2838 H 261.323 2.84612 -1.28071 0
M  V30 2839 N 261.624 0.925811 1.2754 0
M  V30 2840 C 262.557 0.367836 2.25216 0
M  V30 2841 C 263.535 -0.534738 1.53556 0
M  V30 2842 O 264.719 -0.475672 1.824 0
M  V30 2843 C 261.846 -0.47298 3.35381 0
M  V30 2844 C 260.892 0.365898 4.24928 0
M  V30 2845 S 261.725 1.78025 5.05042 0
M  V30 2846 C 262.881 0.947068 6.18693 0
M  V30 2847 H 263.114 1.19568 2.72196 0
M  V30 2848 H 260.647 0.727867 1.36167 0
M  V30 2849 H 262.605 -0.952242 3.99303 0
M  V30 2850 H 261.266 -1.27533 2.87044 0
M  V30 2851 H 260.459 -0.277582 5.03235 0
M  V30 2852 H 260.061 0.779261 3.65792 0
M  V30 2853 H 262.353 0.182201 6.77255 0
M  V30 2854 H 263.296 1.70309 6.87314 0
M  V30 2855 H 263.704 0.489913 5.6237 0
M  V30 2856 N 263.102 -1.41638 0.69111 0
M  V30 2857 C 264.012 -2.34588 0.0233487 0
M  V30 2858 C 265.028 -1.55987 -0.770984 0
M  V30 2859 O 266.204 -1.88486 -0.709569 0
M  V30 2860 C 263.269 -3.34684 -0.904851 0
M  V30 2861 C 262.33 -4.29176 -0.103225 0
M  V30 2862 C 261.563 -5.2449 -0.987216 0
M  V30 2863 O 261.786 -5.2514 -2.22674 0
M  V30 2864 O 260.72 -6.00295 -0.439281 0
M  V30 2865 H 264.546 -2.93261 0.789416 0
M  V30 2866 H 262.131 -1.42417 0.45142 0
M  V30 2867 H 264.013 -3.96133 -1.43724 0
M  V30 2868 H 262.688 -2.78461 -1.65049 0
M  V30 2869 H 261.595 -3.71089 0.473655 0
M  V30 2870 H 262.928 -4.88484 0.60365 0
M  V30 2871 N 264.58 -0.43555 -1.51462 0
M  V30 2872 C 265.828 0.131254 -2.01673 0
M  V30 2873 C 266.149 1.43368 -1.32177 0
M  V30 2874 O 265.419 1.90524 -0.455769 0
M  V30 2875 H 263.999 0.0514954 -0.745223 0
M  V30 2876 H 266.661 -0.577847 -1.86137 0
M  V30 2877 H 265.757 0.308446 -3.10572 0
M  V30 2878 N 266.058 1.56714 -0.166846 0
M  V30 2879 C 267.335 1.88412 0.525373 0
M  V30 2880 C 267.715 1.07602 1.81618 0
M  V30 2881 O 267.063 0.168621 2.27877 0
M  V30 2882 C 267.273 3.40363 0.771613 0
M  V30 2883 C 268.621 4.10007 1.1036 0
M  V30 2884 O 269.645 3.45655 0.860304 0
M  V30 2885 O 268.504 5.2369 1.56239 0
M  V30 2886 H 265.598 0.781587 0.270278 0
M  V30 2887 H 268.144 1.68458 -0.204946 0
M  V30 2888 H 266.916 3.91046 -0.141093 0
M  V30 2889 H 266.539 3.65914 1.55541 0
M  V30 2890 N 267.536 -0.106894 1.57237 0
M  V30 2891 C 268.782 -0.808678 1.86633 0
M  V30 2892 C 269.137 -1.76917 0.756178 0
M  V30 2893 O 268.43 -1.90055 -0.242834 0
M  V30 2894 C 268.624 -1.58628 3.20268 0
M  V30 2895 C 268.453 -0.702592 4.44178 0
M  V30 2896 C 267.223 -0.352808 5.04067 0
M  V30 2897 C 269.421 -0.0148031 5.14298 0
M  V30 2898 N 267.403 0.540279 6.11518 0
M  V30 2899 C 268.774 0.736809 6.15606 0
M  V30 2900 C 270.829 0.0603524 4.97863 0
M  V30 2901 C 269.532 1.55654 7.02257 0
M  V30 2902 C 271.558 0.866942 5.85011 0
M  V30 2903 C 270.92 1.60671 6.85831 0
M  V30 2904 H 267.019 -0.27246 0.733001 0
M  V30 2905 H 269.603 -0.0717858 1.94568 0
M  V30 2906 H 267.774 -2.29413 3.13408 0
M  V30 2907 H 269.506 -2.23434 3.3743 0
M  V30 2908 H 266.261 -0.697802 4.68431 0
M  V30 2909 H 266.685 0.979029 6.69884 0
M  V30 2910 H 271.327 -0.497236 4.19866 0
M  V30 2911 H 269.045 2.12524 7.79653 0
M  V30 2912 H 272.631 0.927612 5.74358 0
M  V30 2913 H 271.511 2.2208 7.52097 0
M  V30 2914 N 269.014 -1.53014 -0.377408 0
M  V30 2915 C 270.254 -1.70318 -1.1301 0
M  V30 2916 C 270.618 -0.439538 -1.86901 0
M  V30 2917 O 271.819 -0.489095 -2.64313 0
M  V30 2918 C 270.09 -2.91125 -2.07319 0
M  V30 2919 S 271.649 -3.29075 -2.90268 0
M  V30 2920 H 268.467 -0.599426 -0.382374 0
M  V30 2921 H 271.069 -1.91089 -0.412933 0
M  V30 2922 H 269.773 -3.81303 -1.51777 0
M  V30 2923 H 269.304 -2.7272 -2.83526 0
M  V30 2924 H 271.319 -2.80165 -4.09539 0
M  V30 2925 N 270.492 0.636531 -1.44174 0
M  V30 2926 C 271.74 1.39343 -1.46383 0
M  V30 2927 C 272.061 1.94766 -0.0955715 0
M  V30 2928 O 271.331 1.75452 0.871395 0
M  V30 2929 H 269.911 0.517199 -0.538994 0
M  V30 2930 H 272.573 0.74957 -1.7991 0
M  V30 2931 H 271.669 2.22746 -2.18611 0
M  V30 2932 N 271.97 1.30982 0.876444 0
M  V30 2933 C 272.9 1.20668 1.99903 0
M  V30 2934 C 273.881 0.095354 1.69833 0
M  V30 2935 O 275.066 0.27885 1.92188 0
M  V30 2936 C 272.196 0.90655 3.3526 0
M  V30 2937 C 271.15 1.97675 3.79617 0
M  V30 2938 C 270.476 1.52943 5.1236 0
M  V30 2939 C 271.776 3.389 3.97422 0
M  V30 2940 H 273.47 2.14586 2.0879 0
M  V30 2941 H 271.016 1.03308 1.00317 0
M  V30 2942 H 272.969 0.821025 4.13324 0
M  V30 2943 H 271.693 -0.0682969 3.26529 0
M  V30 2944 H 270.352 2.05205 3.03787 0
M  V30 2945 H 270 0.54262 5.00065 0
M  V30 2946 H 269.7 2.24532 5.43009 0
M  V30 2947 H 271.224 1.45786 5.92941 0
M  V30 2948 H 272.638 3.34081 4.659 0
M  V30 2949 H 271.035 4.0865 4.3946 0
M  V30 2950 H 272.105 3.80163 3.01006 0
M  V30 2951 N 273.449 -1.08991 1.13837 0
M  V30 2952 C 274.698 -1.80631 0.897509 0
M  V30 2953 C 275.011 -1.86872 -0.57777 0
M  V30 2954 O 276.217 -2.54866 -0.935701 0
M  V30 2955 C 274.673 -3.24517 1.55618 0
M  V30 2956 C 274.281 -3.26529 3.0673 0
M  V30 2957 C 276.025 -4.00882 1.3962 0
M  V30 2958 C 273.932 -4.64965 3.65461 0
M  V30 2959 H 272.862 -0.67691 0.332129 0
M  V30 2960 H 275.513 -1.2246 1.3666 0
M  V30 2961 H 273.895 -3.82778 1.01476 0
M  V30 2962 H 275.069 -2.78008 3.67489 0
M  V30 2963 H 273.384 -2.63656 3.22296 0
M  V30 2964 H 275.981 -5.03167 1.80906 0
M  V30 2965 H 276.324 -4.14896 0.341578 0
M  V30 2966 H 276.857 -3.49075 1.90766 0
M  V30 2967 H 273.596 -4.56153 4.70749 0
M  V30 2968 H 273.116 -5.13792 3.09481 0
M  V30 2969 H 274.795 -5.3394 3.654 0
M  V30 2970 N 274.927 -0.932562 -1.27047 0
M  V30 2971 C 276.338 -0.619451 -1.76124 0
M  V30 2972 C 276.689 0.865397 -1.76083 0
M  V30 2973 O 275.814 1.67722 -1.36742 0
M  V30 2974 C 276.409 -1.11771 -3.19832 0
M  V30 2975 C 274.968 -0.855174 -3.66557 0
M  V30 2976 C 274.115 -1.27362 -2.46321 0
M  V30 2977 H 277.066 -1.11181 -1.13245 0
M  V30 2978 H 277.087 -0.46759 -3.77616 0
M  V30 2979 H 276.599 -2.19842 -3.1983 0
M  V30 2980 H 274.7 0.211524 -3.71999 0
M  V30 2981 H 274.813 -1.47613 -4.55793 0
M  V30 2982 H 273.177 -0.692119 -2.45116 0
M  V30 2983 H 273.96 -2.36307 -2.49025 0
M  V30 2984 N 276.405 1.4127 -0.698611 0
M  V30 2985 C 277.651 2.01478 -0.231207 0
M  V30 2986 C 277.984 1.55215 1.16713 0
M  V30 2987 O 277.259 0.764672 1.78838 0
M  V30 2988 C 277.542 3.58912 -0.292281 0
M  V30 2989 C 277.395 4.15293 -1.72778 0
M  V30 2990 C 278.714 4.38736 0.346194 0
M  V30 2991 H 275.833 0.732025 -0.0854878 0
M  V30 2992 H 278.475 1.67977 -0.887906 0
M  V30 2993 H 276.625 3.87582 0.26686 0
M  V30 2994 H 278.297 3.97486 -2.341 0
M  V30 2995 H 276.54 3.7022 -2.26096 0
M  V30 2996 H 277.211 5.24452 -1.72202 0
M  V30 2997 H 279.687 4.15897 -0.130035 0
M  V30 2998 H 278.563 5.48221 0.272932 0
M  V30 2999 H 278.824 4.18425 1.42734 0
M  V30 3000 N 277.883 0.443576 1.51229 0
M  V30 3001 C 279.131 -0.120557 2.0174 0
M  V30 3002 C 279.452 -1.42665 1.32935 0
M  V30 3003 O 278.722 -1.9028 0.465866 0
M  V30 3004 H 277.302 -0.0475426 0.745486 0
M  V30 3005 H 279.964 0.587711 1.85828 0
M  V30 3006 H 279.06 -0.291972 3.10731 0
M  V30 3007 N 279.361 -1.56624 0.175154 0
M  V30 3008 C 280.293 -2.15333 -0.785128 0
M  V30 3009 C 281.306 -1.1099 -1.19101 0
M  V30 3010 O 282.495 -1.38162 -1.13019 0
M  V30 3011 C 279.595 -2.68427 -2.06882 0
M  V30 3012 C 278.768 -3.97466 -1.8259 0
M  V30 3013 C 277.827 -4.35585 -2.95215 0
M  V30 3014 O 276.853 -5.03389 -2.65684 0
M  V30 3015 N 278.055 -3.97457 -4.23094 0
M  V30 3016 H 280.82 -2.98359 -0.283187 0
M  V30 3017 H 278.381 -1.61898 -0.00749817 0
M  V30 3018 H 280.373 -2.90924 -2.81328 0
M  V30 3019 H 278.943 -1.89968 -2.48256 0
M  V30 3020 H 278.163 -3.83307 -0.920287 0
M  V30 3021 H 279.451 -4.81736 -1.63733 0
M  V30 3022 H 278.849 -3.42878 -4.49945 0
M  V30 3023 H 277.406 -4.24947 -4.9423 0
M  V30 3024 N 280.839 0.0985539 -1.57292 0
M  V30 3025 C 282.25 0.653457 -1.74891 0
M  V30 3026 C 282.601 1.7929 -0.796838 0
M  V30 3027 O 281.726 2.16385 0.0254886 0
M  V30 3028 C 282.321 1.19216 -3.17133 0
M  V30 3029 C 280.88 1.69316 -3.36168 0
M  V30 3030 C 280.027 0.601294 -2.70702 0
M  V30 3031 H 282.978 -0.127497 -1.58187 0
M  V30 3032 H 282.999 2.06154 -3.19814 0
M  V30 3033 H 282.511 0.362635 -3.86402 0
M  V30 3034 H 280.612 2.5468 -2.71972 0
M  V30 3035 H 280.725 1.78853 -4.44464 0
M  V30 3036 H 279.089 1.0399 -2.32504 0
M  V30 3037 H 279.872 -0.217592 -3.4261 0
M  V30 3038 N 282.317 1.53212 0.369288 0
M  V30 3039 C 283.557 1.70915 1.12105 0
M  V30 3040 C 283.921 0.449444 1.86665 0
M  V30 3041 O 285.122 0.503105 2.6405 0
M  V30 3042 C 283.393 2.9222 2.05772 0
M  V30 3043 S 284.952 3.30609 2.88519 0
M  V30 3044 H 281.77 0.601445 0.379189 0
M  V30 3045 H 284.372 1.91306 0.402794 0
M  V30 3046 H 283.076 3.82103 1.49752 0
M  V30 3047 H 282.607 2.7422 2.82076 0
M  V30 3048 H 284.622 2.82333 4.08047 0
M  V30 3049 N 283.795 -0.628877 1.44509 0
M  V30 3050 C 284.728 -1.75367 1.46019 0
M  V30 3051 C 285.706 -1.59444 0.318787 0
M  V30 3052 O 286.89 -1.81297 0.516099 0
M  V30 3053 C 284.017 -3.12965 1.29501 0
M  V30 3054 C 283.063 -3.47532 2.47233 0
M  V30 3055 S 283.896 -3.44758 4.09758 0
M  V30 3056 C 285.052 -4.84973 3.95667 0
M  V30 3057 H 285.285 -1.7382 2.41193 0
M  V30 3058 H 282.818 -0.803686 1.31834 0
M  V30 3059 H 284.776 -3.92367 1.20658 0
M  V30 3060 H 283.437 -3.12049 0.358341 0
M  V30 3061 H 282.63 -4.47664 2.31544 0
M  V30 3062 H 282.232 -2.75598 2.52828 0
M  V30 3063 H 284.524 -5.74255 3.59496 0
M  V30 3064 H 285.467 -5.05716 4.95638 0
M  V30 3065 H 285.875 -4.59653 3.27688 0
M  V30 3066 N 285.273 -1.31445 -0.869486 0
M  V30 3067 C 286.205 -1.14955 -1.98287 0
M  V30 3068 C 287.218 -0.0885037 -1.62559 0
M  V30 3069 O 288.407 -0.336044 -1.75308 0
M  V30 3070 C 285.507 -0.734255 -3.3085 0
M  V30 3071 C 284.68 -1.88042 -3.94917 0
M  V30 3072 C 283.739 -1.4511 -5.05796 0
M  V30 3073 O 282.765 -2.16082 -5.2659 0
M  V30 3074 N 283.967 -0.338763 -5.79511 0
M  V30 3075 H 286.732 -2.10856 -2.12979 0
M  V30 3076 H 284.293 -1.23786 -1.04349 0
M  V30 3077 H 286.285 -0.42975 -4.02412 0
M  V30 3078 H 284.855 0.133158 -3.12316 0
M  V30 3079 H 284.075 -2.35222 -3.1633 0
M  V30 3080 H 285.363 -2.6481 -4.34457 0
M  V30 3081 H 284.761 0.252274 -5.65137 0
M  V30 3082 H 283.318 -0.0937925 -6.51733 0
M  V30 3083 N 286.751 1.08385 -1.14413 0
M  V30 3084 C 287.997 1.81044 -0.913834 0
M  V30 3085 C 288.33 1.86004 0.558209 0
M  V30 3086 O 287.605 1.33606 1.4135 0
M  V30 3087 C 287.888 3.26648 -1.51569 0
M  V30 3088 C 287.741 3.29895 -3.0576 0
M  V30 3089 C 289.06 4.23629 -1.19273 0
M  V30 3090 H 286.179 0.65727 -0.333414 0
M  V30 3091 H 288.821 1.26896 -1.41412 0
M  V30 3092 H 286.971 3.72889 -1.09023 0
M  V30 3093 H 288.643 2.91977 -3.57137 0
M  V30 3094 H 286.886 2.69163 -3.40197 0
M  V30 3095 H 287.557 4.32516 -3.42977 0
M  V30 3096 H 290.033 3.85727 -1.56057 0
M  V30 3097 H 288.909 5.23822 -1.64017 0
M  V30 3098 H 289.17 4.41968 -0.108068 0
M  V30 3099 N 288.23 0.939286 1.26551 0
M  V30 3100 C 289.458 0.602536 1.97932 0
M  V30 3101 C 289.873 -0.82206 1.69964 0
M  V30 3102 O 289.23 -1.54789 0.966784 0
M  V30 3103 C 289.281 0.832946 3.51773 0
M  V30 3104 O 289.002 2.20151 3.78768 0
M  V30 3105 C 290.503 0.506483 4.40397 0
M  V30 3106 H 287.723 0.227248 0.631347 0
M  V30 3107 H 290.267 1.25948 1.61113 0
M  V30 3108 H 288.422 0.222644 3.8676 0
M  V30 3109 H 288.836 2.26013 4.73306 0
M  V30 3110 H 290.31 0.718333 5.47306 0
M  V30 3111 H 290.787 -0.558451 4.35635 0
M  V30 3112 H 291.393 1.09543 4.10951 0
M  V30 3113 N 289.708 -1.40897 0.706093 0
M  V30 3114 C 290.936 -2.05373 0.250887 0
M  V30 3115 C 291.351 -1.53172 -1.10381 0
M  V30 3116 O 290.708 -0.684305 -1.69185 0
M  V30 3117 C 290.759 -3.6088 0.211571 0
M  V30 3118 O 290.48 -4.11153 1.51276 0
M  V30 3119 C 291.981 -4.42517 -0.263346 0
M  V30 3120 H 289.201 -0.66115 0.114552 0
M  V30 3121 H 291.745 -1.80479 0.961635 0
M  V30 3122 H 289.9 -3.84777 -0.450073 0
M  V30 3123 H 290.314 -5.05279 1.40689 0
M  V30 3124 H 291.788 -5.51479 -0.239718 0
M  V30 3125 H 292.265 -4.19396 -1.30397 0
M  V30 3126 H 292.871 -4.23708 0.367677 0
M  V30 3127 N 291.186 -0.45159 -1.50991 0
M  V30 3128 C 292.414 0.108334 -2.06616 0
M  V30 3129 C 292.829 1.35224 -1.31757 0
M  V30 3130 O 292.186 1.78475 -0.381174 0
M  V30 3131 C 292.237 0.41619 -3.59096 0
M  V30 3132 O 291.958 -0.778361 -4.3113 0
M  V30 3133 C 293.459 1.02523 -4.31282 0
M  V30 3134 H 290.679 0.00159995 -0.670998 0
M  V30 3135 H 293.223 -0.634771 -1.94399 0
M  V30 3136 H 291.378 1.10921 -3.71181 0
M  V30 3137 H 291.792 -0.511181 -5.22003 0
M  V30 3138 H 293.266 1.19053 -5.39009 0
M  V30 3139 H 293.743 2.01013 -3.905 0
M  V30 3140 H 294.349 0.371173 -4.23677 0
M  V30 3141 N 292.664 1.56529 -0.183458 0
M  V30 3142 C 293.912 1.96855 0.457452 0
M  V30 3143 C 294.233 1.07104 1.62953 0
M  V30 3144 O 293.503 0.139887 1.954 0
M  V30 3145 H 292.083 0.72693 0.171992 0
M  V30 3146 H 294.745 1.93056 -0.267476 0
M  V30 3147 H 293.841 3.01423 0.809368 0
M  V30 3148 N 294.142 -0.090211 1.57342 0
M  V30 3149 C 295.072 -1.10976 2.05443 0
M  V30 3150 C 296.053 -1.41482 0.944284 0
M  V30 3151 O 297.238 -1.51428 1.21586 0
M  V30 3152 C 294.368 -2.42831 2.48295 0
M  V30 3153 C 293.322 -2.26721 3.63018 0
M  V30 3154 C 292.648 -3.63796 3.91863 0
M  V30 3155 C 293.948 -1.7037 4.93732 0
M  V30 3156 H 295.642 -0.709564 2.9087 0
M  V30 3157 H 293.188 -0.339874 1.39932 0
M  V30 3158 H 295.141 -3.14431 2.80555 0
M  V30 3159 H 293.865 -2.84795 1.59873 0
M  V30 3160 H 292.524 -1.57565 3.31012 0
M  V30 3161 H 292.172 -4.03297 3.00601 0
M  V30 3162 H 291.872 -3.53861 4.69101 0
M  V30 3163 H 293.396 -4.36855 4.26603 0
M  V30 3164 H 294.81 -2.31816 5.24342 0
M  V30 3165 H 293.207 -1.71181 5.75167 0
M  V30 3166 H 294.277 -0.663542 4.80339 0
M  V30 3167 N 295.62 -1.53406 -0.361157 0
M  V30 3168 C 296.567 -1.80156 -1.44265 0
M  V30 3169 C 297.537 -0.646183 -1.53015 0
M  V30 3170 O 298.722 -0.888818 -1.68833 0
M  V30 3171 C 295.862 -2.00116 -2.81154 0
M  V30 3172 C 294.975 -3.27833 -2.81335 0
M  V30 3173 C 294.11 -3.37957 -4.09828 0
M  V30 3174 C 293.149 -4.59689 -4.04168 0
M  V30 3175 N 292.286 -4.66942 -5.24318 0
M  V30 3176 H 297.126 -2.72438 -1.20754 0
M  V30 3177 H 294.663 -1.34954 -0.585296 0
M  V30 3178 H 296.621 -2.09677 -3.60682 0
M  V30 3179 H 295.251 -1.11167 -3.03054 0
M  V30 3180 H 294.303 -3.27204 -1.94014 0
M  V30 3181 H 295.615 -4.17442 -2.73027 0
M  V30 3182 H 294.769 -3.46853 -4.97773 0
M  V30 3183 H 293.508 -2.46372 -4.20894 0
M  V30 3184 H 292.513 -4.50889 -3.14609 0
M  V30 3185 H 293.738 -5.5262 -3.947 0
M  V30 3186 H 291.684 -3.7826 -5.35962 0
M  V30 3187 H 291.601 -5.50462 -5.18197 0
M  V30 3188 H 292.869 -4.80127 -6.14084 0
M  V30 3189 N 297.098 0.621204 -1.44841 0
M  V30 3190 C 298.344 1.38073 -1.49357 0
M  V30 3191 C 298.699 1.91973 -0.128115 0
M  V30 3192 O 297.992 1.71311 0.858087 0
M  V30 3193 C 298.186 2.55675 -2.4973 0
M  V30 3194 C 298.015 2.13289 -3.95901 0
M  V30 3195 C 296.785 2.001 -4.63991 0
M  V30 3196 C 298.983 1.7159 -4.84831 0
M  V30 3197 N 296.965 1.51381 -5.94943 0
M  V30 3198 C 298.336 1.34188 -6.05304 0
M  V30 3199 C 300.391 1.59059 -4.7181 0
M  V30 3200 C 299.094 0.855085 -7.14199 0
M  V30 3201 C 301.12 1.11784 -5.8074 0
M  V30 3202 C 300.482 0.753385 -7.0036 0
M  V30 3203 H 296.581 0.499675 -0.601539 0
M  V30 3204 H 299.165 0.711609 -1.8123 0
M  V30 3205 H 297.336 3.20201 -2.19832 0
M  V30 3206 H 299.068 3.22509 -2.4448 0
M  V30 3207 H 295.823 2.20863 -4.18947 0
M  V30 3208 H 296.247 1.29293 -6.64539 0
M  V30 3209 H 300.889 1.85865 -3.79755 0
M  V30 3210 H 298.607 0.574552 -8.06055 0
M  V30 3211 H 302.193 1.02533 -5.72694 0
M  V30 3212 H 301.073 0.393183 -7.83214 0
M  V30 3213 N 298.576 1.31904 0.862503 0
M  V30 3214 C 299.524 1.20125 1.9918 0
M  V30 3215 C 300.518 0.107824 1.69056 0
M  V30 3216 O 301.724 0.270223 1.7796 0
M  V30 3217 H 298.099 0.372148 0.65346 0
M  V30 3218 H 300.07 2.15652 2.06244 0
M  V30 3219 C 298.819 0.933099 3.34946 0
M  V30 3220 H 298.142 1.76664 3.5865 0
M  V30 3221 H 299.582 0.890892 4.14535 0
M  V30 3222 C 298.041 -0.364172 3.34926 0
M  V30 3223 O 298.571 -1.37858 3.77304 0
M  V30 3224 N 296.777 -0.383362 2.8806 0
M  V30 3225 H 296.324 0.442651 2.53768 0
M  V30 3226 H 296.282 -1.25123 2.8843 0
M  V30 3227 N 300.054 -1.07777 1.14986 0
M  V30 3228 C 300.984 -2.16865 0.865557 0
M  V30 3229 C 301.965 -1.69123 -0.182083 0
M  V30 3230 O 303.15 -1.94164 -0.0373815 0
M  V30 3231 C 300.28 -3.45539 0.349313 0
M  V30 3232 C 299.234 -4.06708 1.33313 0
M  V30 3233 C 298.56 -5.30411 0.675918 0
M  V30 3234 C 299.86 -4.47241 2.69764 0
M  V30 3235 H 301.554 -2.40905 1.77778 0
M  V30 3236 H 299.1 -1.15781 0.856203 0
M  V30 3237 H 301.053 -4.21174 0.137983 0
M  V30 3238 H 299.777 -3.21072 -0.598362 0
M  V30 3239 H 298.436 -3.33112 1.53075 0
M  V30 3240 H 298.084 -5.02232 -0.277767 0
M  V30 3241 H 297.784 -5.72293 1.33244 0
M  V30 3242 H 299.308 -6.08755 0.474262 0
M  V30 3243 H 300.722 -5.14025 2.53873 0
M  V30 3244 H 299.119 -5.00062 3.3175 0
M  V30 3245 H 300.189 -3.58818 3.26156 0
M  V30 3246 N 301.532 -0.945985 -1.26051 0
M  V30 3247 C 302.76 -0.613025 -1.9761 0
M  V30 3248 C 303.175 0.813035 -1.70397 0
M  V30 3249 O 302.532 1.54274 -0.974979 0
M  V30 3250 C 302.583 -0.85159 -3.51326 0
M  V30 3251 O 302.304 -2.22157 -3.77595 0
M  V30 3252 C 303.805 -0.529831 -4.40122 0
M  V30 3253 H 301.025 -0.230593 -0.630133 0
M  V30 3254 H 303.569 -1.268 -1.60443 0
M  V30 3255 H 301.724 -0.243151 -3.86636 0
M  V30 3256 H 302.138 -2.2852 -4.721 0
M  V30 3257 H 303.612 -0.747348 -5.46917 0
M  V30 3258 H 304.089 0.535341 -4.35925 0
M  V30 3259 H 304.695 -1.11721 -4.10364 0
M  V30 3260 N 303.011 1.40521 -0.713556 0
M  V30 3261 C 303.959 2.32549 -0.0485227 0
M  V30 3262 C 304.953 1.51931 0.74922 0
M  V30 3263 O 306.159 1.67745 0.652816 0
M  V30 3264 H 302.534 0.751994 0.00311138 0
M  V30 3265 H 304.505 2.86291 -0.841443 0
M  V30 3266 C 303.254 3.36879 0.860687 0
M  V30 3267 H 302.577 3.98978 0.256246 0
M  V30 3268 H 304.017 4.03772 1.294 0
M  V30 3269 C 302.476 2.72197 1.9852 0
M  V30 3270 O 303.006 2.5837 3.07584 0
M  V30 3271 N 301.212 2.30612 1.76823 0
M  V30 3272 H 300.759 2.42059 0.881217 0
M  V30 3273 H 300.717 1.87672 2.52243 0
M  V30 3274 N 304.489 0.459591 1.5075 0
M  V30 3275 C 305.766 -0.160371 1.94941 0
M  V30 3276 C 306.146 -1.58048 1.39943 0
M  V30 3277 O 305.494 -2.206 0.595629 0
M  V30 3278 C 305.704 -0.115432 3.48809 0
M  V30 3279 C 307.052 -0.310026 4.23467 0
M  V30 3280 O 308.076 -0.192543 3.55679 0
M  V30 3281 O 306.935 -0.546031 5.43765 0
M  V30 3282 H 304.029 -0.117925 0.818549 0
M  V30 3283 H 306.575 0.519169 1.61563 0
M  V30 3284 H 305.347 0.87652 3.81357 0
M  V30 3285 H 304.97 -0.836928 3.88692 0
M  V30 3286 N 305.967 -1.56429 0.191757 0
M  V30 3287 C 307.213 -1.97777 -0.448554 0
M  V30 3288 C 307.546 -1.07847 -1.61501 0
M  V30 3289 O 306.821 -0.129774 -1.94067 0
M  V30 3290 C 307.104 -3.48362 -0.911906 0
M  V30 3291 C 306.957 -4.4907 0.256136 0
M  V30 3292 C 308.276 -4.02561 -1.77857 0
M  V30 3293 H 305.395 -0.719071 -0.161572 0
M  V30 3294 H 308.037 -1.87896 0.282007 0
M  V30 3295 H 306.187 -3.56914 -1.53442 0
M  V30 3296 H 307.859 -4.5256 0.893733 0
M  V30 3297 H 306.102 -4.24181 0.908436 0
M  V30 3298 H 306.773 -5.51889 -0.11053 0
M  V30 3299 H 309.249 -3.96767 -1.25359 0
M  V30 3300 H 308.125 -5.08301 -2.07174 0
M  V30 3301 H 308.386 -3.47616 -2.73158 0
M  V30 3302 N 307.445 0.0818655 -1.57387 0
M  V30 3303 C 308.375 1.09885 -2.06028 0
M  V30 3304 C 309.356 1.4098 -0.951774 0
M  V30 3305 O 310.541 1.50781 -1.22387 0
M  V30 3306 C 307.671 2.4151 -2.4958 0
M  V30 3307 C 306.625 2.24792 -3.64215 0
M  V30 3308 C 305.951 3.61712 -3.93787 0
M  V30 3309 C 307.251 1.67749 -4.94629 0
M  V30 3310 H 308.945 0.694128 -2.91243 0
M  V30 3311 H 306.491 0.332448 -1.4011 0
M  V30 3312 H 308.444 3.12939 -2.82219 0
M  V30 3313 H 307.168 2.83943 -1.61381 0
M  V30 3314 H 305.827 1.55807 -3.31843 0
M  V30 3315 H 305.475 4.01697 -3.02735 0
M  V30 3316 H 305.175 3.51368 -4.70971 0
M  V30 3317 H 306.699 4.34587 -4.28913 0
M  V30 3318 H 308.113 2.29032 -5.25564 0
M  V30 3319 H 306.51 1.68128 -5.76067 0
M  V30 3320 H 307.58 0.638059 -4.80684 0
M  V30 3321 N 308.923 1.53595 0.353017 0
M  V30 3322 C 309.886 1.80232 1.41594 0
M  V30 3323 C 310.886 0.673081 1.46035 0
M  V30 3324 O 312.076 0.941335 1.46576 0
M  V30 3325 C 309.208 1.93578 2.80607 0
M  V30 3326 H 310.401 2.75174 1.19244 0
M  V30 3327 H 307.954 1.44864 0.586872 0
M  V30 3328 H 308.689 1.00746 3.08254 0
M  V30 3329 H 308.474 2.75724 2.78781 0
M  V30 3330 H 309.964 2.15735 3.57558 0
M  V30 3331 N 310.401 -0.613514 1.45168 0
M  V30 3332 C 311.648 -1.37268 1.48875 0
M  V30 3333 C 311.976 -1.94077 0.128161 0
M  V30 3334 O 311.231 -1.75178 -0.872416 0
M  V30 3335 C 311.53 -2.54347 2.51083 0
M  V30 3336 C 311.196 -2.1572 3.95949 0
M  V30 3337 C 309.858 -2.04899 4.35396 0
M  V30 3338 C 312.21 -1.85485 4.87078 0
M  V30 3339 C 309.538 -1.62057 5.63875 0
M  V30 3340 C 311.89 -1.4413 6.15962 0
M  V30 3341 C 310.554 -1.31863 6.54346 0
M  V30 3342 H 309.824 -0.502299 0.544773 0
M  V30 3343 H 312.471 -0.694021 1.78481 0
M  V30 3344 H 310.776 -3.27524 2.15024 0
M  V30 3345 H 312.473 -3.12577 2.51191 0
M  V30 3346 H 309.063 -2.25066 3.64751 0
M  V30 3347 H 313.247 -1.92745 4.57343 0
M  V30 3348 H 308.503 -1.51177 5.92415 0
M  V30 3349 H 312.677 -1.19778 6.86022 0
M  V30 3350 H 310.304 -0.984392 7.538 0
M  V30 3351 N 311.879 -1.3236 -0.855495 0
M  V30 3352 C 313.127 -1.22629 -1.60644 0
M  V30 3353 C 313.448 0.212136 -1.93843 0
M  V30 3354 O 312.718 1.13666 -1.59552 0
M  V30 3355 H 311.298 -0.450882 -0.595579 0
M  V30 3356 H 313.96 -1.65871 -1.02337 0
M  V30 3357 H 313.056 -1.80832 -2.54374 0
M  V30 3358 N 313.357 1.07166 -1.15556 0
M  V30 3359 C 314.585 1.83514 -0.955519 0
M  V30 3360 C 315 1.82163 0.49621 0
M  V30 3361 O 314.357 1.23441 1.34419 0
M  V30 3362 C 314.408 3.30515 -1.46432 0
M  V30 3363 O 314.129 3.31937 -2.85918 0
M  V30 3364 C 315.63 4.23625 -1.30603 0
M  V30 3365 H 312.85 0.578926 -0.339244 0
M  V30 3366 H 315.394 1.35265 -1.53374 0
M  V30 3367 H 313.549 3.76106 -0.928584 0
M  V30 3368 H 313.963 4.23794 -3.09029 0
M  V30 3369 H 315.437 5.24831 -1.71047 0
M  V30 3370 H 315.914 4.38485 -0.250441 0
M  V30 3371 H 316.52 3.83871 -1.83094 0
M  V30 3372 N 314.835 0.952656 1.25548 0
M  V30 3373 C 315.765 0.489287 2.28316 0
M  V30 3374 C 316.746 -0.463359 1.63667 0
M  V30 3375 O 317.931 -0.36274 1.90782 0
M  V30 3376 C 315.061 -0.235603 3.465 0
M  V30 3377 C 314.015 0.631593 4.23314 0
M  V30 3378 C 313.341 -0.223923 5.34231 0
M  V30 3379 C 314.641 1.90871 4.86174 0
M  V30 3380 H 316.335 1.34822 2.67326 0
M  V30 3381 H 313.881 0.649728 1.28509 0
M  V30 3382 H 315.834 -0.570882 4.17515 0
M  V30 3383 H 314.558 -1.12877 3.06474 0
M  V30 3384 H 313.217 0.949929 3.54079 0
M  V30 3385 H 312.865 -1.11678 4.90446 0
M  V30 3386 H 312.565 0.35299 5.86539 0
M  V30 3387 H 314.089 -0.554214 6.0808 0
M  V30 3388 H 315.503 1.63997 5.49343 0
M  V30 3389 H 313.9 2.43112 5.4865 0
M  V30 3390 H 314.97 2.61304 4.08471 0
M  V30 3391 N 316.313 -1.40141 0.720998 0
M  V30 3392 C 317.559 -2.01084 0.263231 0
M  V30 3393 C 317.892 -1.57052 -1.14229 0
M  V30 3394 O 317.167 -0.793027 -1.77599 0
M  V30 3395 C 317.45 -3.58401 0.349344 0
M  V30 3396 C 317.303 -4.12491 1.79363 0
M  V30 3397 C 318.622 -4.39231 -0.276351 0
M  V30 3398 H 315.741 -0.730572 0.0971228 0
M  V30 3399 H 318.383 -1.66543 0.914518 0
M  V30 3400 H 316.533 -3.87958 -0.205165 0
M  V30 3401 H 318.205 -3.93711 2.40394 0
M  V30 3402 H 316.448 -3.66576 2.31958 0
M  V30 3403 H 317.119 -5.21646 1.80524 0
M  V30 3404 H 319.595 -4.15637 0.196184 0
M  V30 3405 H 318.471 -5.48586 -0.185681 0
M  V30 3406 H 318.732 -4.20643 -1.36059 0
M  V30 3407 N 317.792 -0.46758 -1.50504 0
M  V30 3408 C 319.017 0.0886943 -2.0721 0
M  V30 3409 C 319.442 1.33057 -1.32956 0
M  V30 3410 O 318.8 1.77354 -0.376197 0
M  V30 3411 C 318.848 0.359202 -3.58806 0
M  V30 3412 O 317.952 1.44034 -3.8643 0
M  V30 3413 H 317.293 -0.0114349 -0.663902 0
M  V30 3414 H 319.823 -0.657613 -1.93744 0
M  V30 3415 H 319.833 0.600742 -4.03553 0
M  V30 3416 H 318.508 -0.548311 -4.1227 0
M  V30 3417 H 317.085 1.18638 -3.53524 0
M  V30 3418 N 319.27 1.56325 -0.20005 0
M  V30 3419 C 320.498 2.02105 0.442874 0
M  V30 3420 C 320.913 1.08014 1.5485 0
M  V30 3421 O 320.27 0.0858797 1.82298 0
M  V30 3422 C 320.321 3.47549 0.994583 0
M  V30 3423 O 320.042 4.38049 -0.0669322 0
M  V30 3424 C 321.543 4.0887 1.7129 0
M  V30 3425 H 318.763 0.661807 0.110691 0
M  V30 3426 H 321.307 2.02134 -0.310207 0
M  V30 3427 H 319.462 3.48204 1.69803 0
M  V30 3428 H 319.876 5.23368 0.344462 0
M  V30 3429 H 321.35 5.12475 2.05118 0
M  V30 3430 H 321.827 3.52615 2.61838 0
M  V30 3431 H 322.433 4.12002 1.05518 0
M  V30 3432 N 320.748 -0.0735177 1.57428 0
M  V30 3433 C 321.973 -0.789787 1.91774 0
M  V30 3434 C 322.398 -1.70413 0.796306 0
M  V30 3435 O 321.756 -1.79555 -0.250961 0
M  V30 3436 C 321.804 -1.5609 3.25067 0
M  V30 3437 O 320.908 -2.67144 3.14178 0
M  V30 3438 H 320.249 -0.215582 0.628029 0
M  V30 3439 H 322.779 -0.0422781 2.04556 0
M  V30 3440 H 322.789 -1.94052 3.58898 0
M  V30 3441 H 321.464 -0.890015 4.06265 0
M  V30 3442 H 320.041 -2.32052 2.91901 0
M  V30 3443 N 322.226 -1.5378 -0.344866 0
M  V30 3444 C 323.174 -1.82373 -1.4437 0
M  V30 3445 C 324.168 -0.694128 -1.54526 0
M  V30 3446 O 325.374 -0.877442 -1.57165 0
M  V30 3447 H 321.749 -0.577765 -0.481344 0
M  V30 3448 H 323.72 -2.74306 -1.17468 0
M  V30 3449 C 322.469 -2.04898 -2.80913 0
M  V30 3450 H 321.792 -2.9127 -2.73865 0
M  V30 3451 H 323.232 -2.28871 -3.56923 0
M  V30 3452 C 321.691 -0.834116 -3.26411 0
M  V30 3453 O 322.221 -0.0328885 -4.01687 0
M  V30 3454 N 320.427 -0.65171 -2.83198 0
M  V30 3455 H 319.974 -1.30489 -2.22104 0
M  V30 3456 H 319.932 0.159686 -3.13994 0
M  V30 3457 N 323.704 0.605807 -1.45491 0
M  V30 3458 C 324.932 1.39136 -1.5313 0
M  V30 3459 C 325.347 1.88082 -0.164507 0
M  V30 3460 O 324.704 1.62316 0.834247 0
M  V30 3461 C 324.755 2.59463 -2.51716 0
M  V30 3462 O 324.476 2.12551 -3.83084 0
M  V30 3463 C 325.977 3.52301 -2.6907 0
M  V30 3464 H 323.197 0.425849 -0.51855 0
M  V30 3465 H 325.741 0.73865 -1.90694 0
M  V30 3466 H 323.896 3.20772 -2.17219 0
M  V30 3467 H 324.31 2.90744 -4.36541 0
M  V30 3468 H 325.784 4.33271 -3.42024 0
M  V30 3469 H 326.261 4.02757 -1.75167 0
M  V30 3470 H 326.867 2.96845 -3.04571 0
M  V30 3471 N 325.182 1.32811 0.848464 0
M  V30 3472 C 326.412 1.26556 1.63301 0
M  V30 3473 C 326.82 -0.1676 1.88456 0
M  V30 3474 O 326.163 -1.11713 1.45828 0
M  V30 3475 C 326.225 1.96202 3.01239 0
M  V30 3476 C 325.889 3.45528 2.99098 0
M  V30 3477 C 326.886 4.40903 2.75501 0
M  V30 3478 C 324.571 3.87558 3.19537 0
M  V30 3479 C 326.565 5.76282 2.72356 0
M  V30 3480 C 324.252 5.23044 3.16019 0
M  V30 3481 C 325.25 6.17217 2.92458 0
M  V30 3482 O 324.938 7.50223 2.88825 0
M  V30 3483 H 324.67 0.43771 0.515156 0
M  V30 3484 H 327.224 1.7559 1.0657 0
M  V30 3485 H 325.454 1.41746 3.59785 0
M  V30 3486 H 327.143 1.83573 3.62016 0
M  V30 3487 H 327.909 4.09756 2.5947 0
M  V30 3488 H 323.788 3.14674 3.369 0
M  V30 3489 H 327.332 6.4976 2.53886 0
M  V30 3490 H 323.229 5.53818 3.31596 0
M  V30 3491 H 323.997 7.59657 3.04735 0
M  V30 3492 N 326.66 -1.06551 1.16123 0
M  V30 3493 C 327.937 -1.76097 0.85142 0
M  V30 3494 C 328.317 -2.00802 -0.6513 0
M  V30 3495 O 327.665 -1.63302 -1.59827 0
M  V30 3496 C 327.875 -3.06384 1.67122 0
M  V30 3497 C 329.223 -3.80585 1.88255 0
M  V30 3498 O 330.247 -3.16218 1.63966 0
M  V30 3499 O 329.106 -4.96212 2.2899 0
M  V30 3500 H 326.2 -0.765102 0.313923 0
M  V30 3501 H 328.746 -1.12844 1.26745 0
M  V30 3502 H 327.518 -2.84071 2.69108 0
M  V30 3503 H 327.141 -3.77371 1.25206 0
M  V30 3504 N 328.138 -0.959301 -1.25041 0
M  V30 3505 C 329.386 -0.615393 -1.92503 0
M  V30 3506 C 329.707 0.850969 -1.75452 0
M  V30 3507 O 328.977 1.60658 -1.12098 0
M  V30 3508 H 327.557 -0.224613 -0.712431 0
M  V30 3509 H 330.219 -1.21855 -1.5211 0
M  V30 3510 H 329.315 -0.848738 -3.00338 0
M  V30 3511 N 329.616 1.39756 -0.72842 0
M  V30 3512 C 330.841 2.05472 -0.282159 0
M  V30 3513 C 331.266 1.54549 1.07221 0
M  V30 3514 O 330.624 0.686372 1.67805 0
M  V30 3515 C 330.672 3.59462 -0.286264 0
M  V30 3516 O 329.776 4.05918 0.728298 0
M  V30 3517 H 329.117 0.651226 -0.129618 0
M  V30 3518 H 331.647 1.78915 -0.992499 0
M  V30 3519 H 331.657 4.07798 -0.128373 0
M  V30 3520 H 330.332 3.95889 -1.27456 0
M  V30 3521 H 328.909 3.69012 0.537081 0
M  V30 3522 N 331.094 0.475555 1.50254 0
M  V30 3523 C 332.342 -0.077738 2.0195 0
M  V30 3524 C 332.663 -1.39813 1.35931 0
M  V30 3525 O 331.933 -1.89249 0.506123 0
M  V30 3526 H 330.513 -0.031719 0.746326 0
M  V30 3527 H 333.175 0.626995 1.84539 0
M  V30 3528 H 332.271 -0.225995 3.11281 0
M  V30 3529 N 332.573 -1.56217 0.208337 0
M  V30 3530 C 333.819 -1.98242 -0.427552 0
M  V30 3531 C 334.152 -1.09554 -1.60348 0
M  V30 3532 O 333.427 -0.15035 -1.93918 0
M  V30 3533 C 333.71 -3.4931 -0.874907 0
M  V30 3534 C 333.563 -4.48773 0.303751 0
M  V30 3535 C 334.882 -4.04424 -1.73577 0
M  V30 3536 H 332.001 -0.720744 -0.153936 0
M  V30 3537 H 334.643 -1.87586 0.30192 0
M  V30 3538 H 332.793 -3.58522 -1.49648 0
M  V30 3539 H 334.465 -4.51586 0.941682 0
M  V30 3540 H 332.708 -4.23194 0.953375 0
M  V30 3541 H 333.379 -5.51976 -0.0519883 0
M  V30 3542 H 335.855 -3.98075 -1.21143 0
M  V30 3543 H 334.731 -5.1047 -2.01771 0
M  V30 3544 H 334.992 -3.50494 -2.69456 0
M  V30 3545 N 334.051 0.0651679 -1.57465 0
M  V30 3546 C 335.297 0.764193 -1.87851 0
M  V30 3547 C 335.63 1.76889 -0.801495 0
M  V30 3548 O 334.905 1.93594 0.187528 0
M  V30 3549 C 335.188 1.46625 -3.28897 0
M  V30 3550 C 335.041 0.477515 -4.47258 0
M  V30 3551 C 336.36 2.4095 -3.68281 0
M  V30 3552 H 333.479 0.276351 -0.683227 0
M  V30 3553 H 336.121 0.0272868 -1.8998 0
M  V30 3554 H 334.271 2.09438 -3.27212 0
M  V30 3555 H 335.943 -0.145922 -4.61069 0
M  V30 3556 H 334.186 -0.206576 -4.33308 0
M  V30 3557 H 334.857 1.0065 -5.42746 0
M  V30 3558 H 337.333 1.88209 -3.71102 0
M  V30 3559 H 336.209 2.87072 -4.67847 0
M  V30 3560 H 336.47 3.26049 -2.98571 0
M  V30 3561 N 335.529 1.53961 0.336706 0
M  V30 3562 C 336.757 1.75483 1.09605 0
M  V30 3563 C 337.172 0.4972 1.82136 0
M  V30 3564 O 336.529 -0.53149 1.74589 0
M  V30 3565 C 336.58 2.93943 2.10428 0
M  V30 3566 O 336.301 4.14842 1.40846 0
M  V30 3567 C 337.802 3.27571 2.98684 0
M  V30 3568 H 335.022 0.586166 0.326574 0
M  V30 3569 H 337.566 2.00808 0.38683 0
M  V30 3570 H 335.721 2.70929 2.76905 0
M  V30 3571 H 336.135 4.81383 2.08255 0
M  V30 3572 H 337.609 4.13791 3.6535 0
M  V30 3573 H 338.086 2.44168 3.65074 0
M  V30 3574 H 338.692 3.52615 2.37787 0
M  V30 3575 N 337.007 -0.598083 1.45811 0
M  V30 3576 C 338.253 -1.35882 1.50545 0
M  V30 3577 C 338.586 -1.93616 0.150445 0
M  V30 3578 O 337.861 -1.75604 -0.83628 0
M  V30 3579 C 338.144 -2.49966 2.59208 0
M  V30 3580 C 337.997 -1.97367 4.04186 0
M  V30 3581 C 339.316 -3.52068 2.64076 0
M  V30 3582 H 336.435 -0.492717 0.548087 0
M  V30 3583 H 339.077 -0.673319 1.77669 0
M  V30 3584 H 337.227 -3.08443 2.3621 0
M  V30 3585 H 338.899 -1.43466 4.38423 0
M  V30 3586 H 337.142 -1.283 4.14393 0
M  V30 3587 H 337.813 -2.79649 4.75921 0
M  V30 3588 H 340.289 -3.03448 2.84708 0
M  V30 3589 H 339.165 -4.2937 3.41954 0
M  V30 3590 H 339.426 -4.08304 1.69531 0
M  V30 3591 N 338.485 -1.33259 -0.841409 0
M  V30 3592 C 339.395 -1.25332 -1.98316 0
M  V30 3593 C 340.411 -0.164364 -1.73222 0
M  V30 3594 O 341.587 -0.387486 -1.97637 0
M  V30 3595 C 338.652 -0.990078 -3.32262 0
M  V30 3596 C 337.713 -2.16879 -3.70489 0
M  V30 3597 C 336.946 -1.91801 -4.98044 0
M  V30 3598 O 337.169 -0.867075 -5.63771 0
M  V30 3599 O 336.103 -2.78267 -5.33714 0
M  V30 3600 H 339.929 -2.21344 -2.07944 0
M  V30 3601 H 337.514 -1.1328 -0.974058 0
M  V30 3602 H 339.396 -0.860321 -4.12524 0
M  V30 3603 H 338.071 -0.0602155 -3.23644 0
M  V30 3604 H 336.978 -2.35407 -2.90748 0
M  V30 3605 H 338.311 -3.0819 -3.8377 0
M  V30 3606 N 339.963 1.05934 -1.16686 0
M  V30 3607 C 341.191 1.8249 -0.974929 0
M  V30 3608 C 341.606 1.82679 0.476861 0
M  V30 3609 O 340.963 1.2486 1.33103 0
M  V30 3610 C 341.014 3.28943 -1.49929 0
M  V30 3611 O 340.735 3.28886 -2.89423 0
M  V30 3612 C 342.236 4.22215 -1.35089 0
M  V30 3613 H 339.456 0.575295 -0.345365 0
M  V30 3614 H 342 1.33631 -1.548 0
M  V30 3615 H 340.155 3.751 -0.968423 0
M  V30 3616 H 340.569 4.20493 -3.13506 0
M  V30 3617 H 342.043 5.22987 -1.76603 0
M  V30 3618 H 342.52 4.38195 -0.296935 0
M  V30 3619 H 343.126 3.81907 -1.87155 0
M  V30 3620 N 341.441 0.965919 1.2453 0
M  V30 3621 C 342.718 0.543777 1.87889 0
M  V30 3622 C 343.098 -0.97909 1.87021 0
M  V30 3623 O 342.446 -1.84969 1.3416 0
M  V30 3624 C 342.656 1.13327 3.30088 0
M  V30 3625 C 344.004 1.21707 4.06783 0
M  V30 3626 O 345.028 1.08566 3.39252 0
M  V30 3627 O 343.887 1.42456 5.27606 0
M  V30 3628 H 340.981 0.181054 0.806938 0
M  V30 3629 H 343.527 1.06007 1.32516 0
M  V30 3630 H 342.299 2.17612 3.25209 0
M  V30 3631 H 341.922 0.600911 3.93033 0
M  V30 3632 N 342.919 -1.39368 0.735821 0
M  V30 3633 C 343.869 -2.27885 0.0724287 0
M  V30 3634 C 344.853 -1.44301 -0.711756 0
M  V30 3635 O 346.045 -1.67206 -0.58063 0
M  V30 3636 C 343.174 -3.33029 -0.833454 0
M  V30 3637 C 342.26 -4.24078 -0.0433749 0
M  V30 3638 N 342.651 -4.96138 0.983903 0
M  V30 3639 C 340.949 -4.45164 -0.272905 0
M  V30 3640 C 341.65 -5.63069 1.4604 0
M  V30 3641 N 340.626 -5.37991 0.778857 0
M  V30 3642 H 344.428 -2.81052 0.859467 0
M  V30 3643 H 341.942 -1.5206 0.570227 0
M  V30 3644 H 343.939 -3.95311 -1.32419 0
M  V30 3645 H 342.599 -2.81421 -1.61964 0
M  V30 3646 H 343.61 -4.9958 1.36528 0
M  V30 3647 H 340.287 -4.04497 -1.03383 0
M  V30 3648 H 341.677 -6.30755 2.31511 0
M  V30 3649 N 344.397 -0.483516 -1.5 0
M  V30 3650 C 345.808 -0.0314176 -1.86674 0
M  V30 3651 C 346.159 1.37728 -1.39733 0
M  V30 3652 O 345.284 2.02327 -0.767635 0
M  V30 3653 C 345.879 -0.0502376 -3.38763 0
M  V30 3654 C 344.438 0.346442 -3.74802 0
M  V30 3655 C 343.585 -0.430366 -2.7394 0
M  V30 3656 H 346.536 -0.697182 -1.42566 0
M  V30 3657 H 346.557 0.749116 -3.73053 0
M  V30 3658 H 346.069 -1.07563 -3.72897 0
M  V30 3659 H 344.17 1.37572 -3.46273 0
M  V30 3660 H 344.283 0.0391486 -4.79084 0
M  V30 3661 H 342.647 0.117557 -2.54429 0
M  V30 3662 H 343.43 -1.4555 -3.10918 0
M  V30 3663 N 345.875 1.56104 -0.216619 0
M  V30 3664 C 346.805 2.23063 0.690296 0
M  V30 3665 C 347.786 1.20072 1.20485 0
M  V30 3666 O 348.971 1.48643 1.24976 0
M  V30 3667 C 346.101 2.90672 1.90072 0
M  V30 3668 C 345.055 4.00092 1.5202 0
M  V30 3669 C 344.381 4.54972 2.80899 0
M  V30 3670 C 345.681 5.17398 0.71391 0
M  V30 3671 H 347.375 2.99109 0.132038 0
M  V30 3672 H 344.921 1.43866 0.0620664 0
M  V30 3673 H 346.874 3.36204 2.54057 0
M  V30 3674 H 345.598 2.12066 2.48386 0
M  V30 3675 H 344.257 3.55283 0.903839 0
M  V30 3676 H 343.905 3.73102 3.37348 0
M  V30 3677 H 343.605 5.28817 2.56176 0
M  V30 3678 H 345.129 5.0322 3.45836 0
M  V30 3679 H 346.543 5.59342 1.25735 0
M  V30 3680 H 344.94 5.97444 0.563951 0
M  V30 3681 H 346.01 4.84088 -0.280527 0
M  V30 3682 N 347.353 -0.0568162 1.57498 0
M  V30 3683 C 348.283 -1.06593 2.0775 0
M  V30 3684 C 349.264 -1.39448 0.974082 0
M  V30 3685 O 350.449 -1.48815 1.24771 0
M  V30 3686 C 347.579 -2.37509 2.5339 0
M  V30 3687 C 346.533 -2.1897 3.67745 0
M  V30 3688 C 345.859 -3.55402 3.99492 0
M  V30 3689 C 347.159 -1.59859 4.97235 0
M  V30 3690 H 348.853 -0.647706 2.9231 0
M  V30 3691 H 346.399 -0.310116 1.40621 0
M  V30 3692 H 348.352 -3.08409 2.87162 0
M  V30 3693 H 347.076 -2.8134 1.65878 0
M  V30 3694 H 345.735 -1.50508 3.3428 0
M  V30 3695 H 345.383 -3.9683 3.09088 0
M  V30 3696 H 345.083 -3.43831 4.76502 0
M  V30 3697 H 346.607 -4.27708 4.35773 0
M  V30 3698 H 348.021 -2.20642 5.29141 0
M  V30 3699 H 346.418 -1.58942 5.78669 0
M  V30 3700 H 347.488 -0.561506 4.81638 0
M  V30 3701 N 348.832 -1.54138 -0.328536 0
M  V30 3702 C 350.078 -1.73297 -1.06488 0
M  V30 3703 C 350.433 -0.497958 -1.85844 0
M  V30 3704 O 349.726 0.509591 -1.84699 0
M  V30 3705 C 349.92 -2.9457 -2.02393 0
M  V30 3706 C 349.749 -4.29747 -1.32467 0
M  V30 3707 C 348.519 -4.93987 -1.06324 0
M  V30 3708 C 350.717 -5.08903 -0.743137 0
M  V30 3709 N 348.699 -6.13005 -0.331359 0
M  V30 3710 C 350.07 -6.19836 -0.142602 0
M  V30 3711 C 352.125 -4.93699 -0.64546 0
M  V30 3712 C 350.828 -7.17224 0.546125 0
M  V30 3713 C 352.854 -5.91393 0.0295558 0
M  V30 3714 C 352.216 -7.01674 0.619056 0
M  V30 3715 H 348.315 -0.687017 -0.373539 0
M  V30 3716 H 350.899 -1.91589 -0.346659 0
M  V30 3717 H 349.07 -2.77752 -2.71493 0
M  V30 3718 H 350.802 -3.0238 -2.68977 0
M  V30 3719 H 347.557 -4.53824 -1.35428 0
M  V30 3720 H 347.981 -6.76997 0.0202939 0
M  V30 3721 H 352.623 -4.08589 -1.08695 0
M  V30 3722 H 350.341 -8.01896 0.999459 0
M  V30 3723 H 353.927 -5.81706 0.104705 0
M  V30 3724 H 352.807 -7.75971 1.13309 0
M  V30 3725 N 350.31 0.590341 -1.46126 0
M  V30 3726 C 351.538 1.37504 -1.54597 0
M  V30 3727 C 351.953 1.87897 -0.184447 0
M  V30 3728 O 351.31 1.63192 0.816984 0
M  V30 3729 C 351.361 2.56779 -2.54454 0
M  V30 3730 O 351.082 2.08476 -3.85317 0
M  V30 3731 C 352.583 3.49427 -2.72792 0
M  V30 3732 H 349.803 0.420325 -0.523037 0
M  V30 3733 H 352.347 0.718383 -1.91467 0
M  V30 3734 H 350.502 3.1845 -2.20609 0
M  V30 3735 H 350.916 2.86097 -4.396 0
M  V30 3736 H 352.39 4.29619 -3.466 0
M  V30 3737 H 352.867 4.00876 -1.79429 0
M  V30 3738 H 353.473 2.93598 -3.07702 0
M  V30 3739 N 351.788 1.33704 0.83433 0
M  V30 3740 C 352.721 1.18675 1.94914 0
M  V30 3741 C 353.699 0.0811145 1.62398 0
M  V30 3742 O 354.883 0.244186 1.86912 0
M  V30 3743 C 352.01 0.821231 3.28593 0
M  V30 3744 C 351.056 1.93501 3.80079 0
M  V30 3745 S 351.889 3.54671 4.01209 0
M  V30 3746 C 353.045 3.20136 5.37833 0
M  V30 3747 H 353.278 2.13043 2.07364 0
M  V30 3748 H 350.811 1.18598 0.988624 0
M  V30 3749 H 352.769 0.617123 4.05835 0
M  V30 3750 H 351.43 -0.103927 3.13928 0
M  V30 3751 H 350.623 1.63273 4.76821 0
M  V30 3752 H 350.225 2.09601 3.09747 0
M  V30 3753 H 352.517 2.71242 6.20833 0
M  V30 3754 H 353.46 4.15975 5.73036 0
M  V30 3755 H 353.868 2.56613 5.02802 0
M  V30 3756 N 353.266 -1.05314 1.17247 0
M  V30 3757 C 354.229 -2.112 0.890357 0
M  V30 3758 C 355.229 -1.60359 -0.118943 0
M  V30 3759 O 356.419 -1.73833 0.113086 0
M  V30 3760 C 353.551 -3.39266 0.333422 0
M  V30 3761 H 354.744 -2.37659 1.82916 0
M  V30 3762 H 352.297 -1.21538 0.982758 0
M  V30 3763 H 353.032 -3.18462 -0.612587 0
M  V30 3764 H 352.817 -3.77477 1.06082 0
M  V30 3765 H 354.307 -4.17315 0.154322 0
M  V30 3766 N 354.744 -0.972509 -1.24016 0
M  V30 3767 C 355.993 -0.632603 -1.91523 0
M  V30 3768 C 356.306 0.836641 -1.76804 0
M  V30 3769 O 357.512 1.28728 -2.39043 0
M  V30 3770 C 355.968 -1.08082 -3.43287 0
M  V30 3771 C 355.576 -2.57386 -3.66683 0
M  V30 3772 C 357.32 -0.814288 -4.16617 0
M  V30 3773 C 355.227 -2.95915 -5.12043 0
M  V30 3774 H 354.157 -0.232898 -0.717129 0
M  V30 3775 H 356.808 -1.17936 -1.40582 0
M  V30 3776 H 355.19 -0.462339 -3.93292 0
M  V30 3777 H 356.364 -3.24405 -3.27258 0
M  V30 3778 H 354.679 -2.81701 -3.06649 0
M  V30 3779 H 357.276 -1.0781 -5.23718 0
M  V30 3780 H 357.619 0.24955 -4.15551 0
M  V30 3781 H 358.152 -1.39397 -3.72577 0
M  V30 3782 H 354.891 -4.0139 -5.18234 0
M  V30 3783 H 354.411 -2.33584 -5.52448 0
M  V30 3784 H 356.09 -2.86086 -5.80314 0
M  V30 3785 N 356.222 1.38976 -0.743202 0
M  V30 3786 C 357.169 2.30544 -0.10861 0
M  V30 3787 C 358.139 1.49642 0.720869 0
M  V30 3788 O 359.324 1.78304 0.679142 0
M  V30 3789 C 356.464 3.36018 0.786496 0
M  V30 3790 C 355.577 4.31963 -0.0564849 0
M  V30 3791 C 354.712 5.24506 0.840657 0
M  V30 3792 C 353.751 6.121 -0.00658363 0
M  V30 3793 N 352.888 6.96973 0.846943 0
M  V30 3794 H 357.728 2.8424 -0.895088 0
M  V30 3795 H 355.265 1.3995 -0.453048 0
M  V30 3796 H 357.223 3.95768 1.31999 0
M  V30 3797 H 355.853 2.83758 1.53887 0
M  V30 3798 H 354.905 3.73763 -0.707492 0
M  V30 3799 H 356.217 4.93703 -0.711229 0
M  V30 3800 H 355.371 5.89322 1.4417 0
M  V30 3801 H 354.11 4.63107 1.52916 0
M  V30 3802 H 353.115 5.46289 -0.620366 0
M  V30 3803 H 354.34 6.75565 -0.691992 0
M  V30 3804 H 352.286 6.38133 1.52059 0
M  V30 3805 H 352.203 7.5559 0.248864 0
M  V30 3806 H 353.471 7.6621 1.43328 0
M  V30 3807 N 357.7 0.491464 1.49741 0
M  V30 3808 C 358.925 -0.0557177 2.07325 0
M  V30 3809 C 359.35 -1.30925 1.35056 0
M  V30 3810 O 358.708 -1.76733 0.404365 0
M  V30 3811 C 358.756 -0.302074 3.59333 0
M  V30 3812 O 357.86 -1.37868 3.88672 0
M  V30 3813 H 357.201 0.0219956 0.663636 0
M  V30 3814 H 359.731 0.688352 1.92673 0
M  V30 3815 H 359.741 -0.536464 4.04458 0
M  V30 3816 H 358.416 0.61383 4.11345 0
M  V30 3817 H 356.993 -1.12999 3.55367 0
M  V30 3818 O 359.217 -1.57286 0.366498 0
M  V30 3819 H 359.908 -1.92825 -0.183877 0
M  V30 END ATOM
M  V30 BEGIN BOND
M  V30 END BOND
M  V30 END CTAB
M  END
$$$$
