drugbank_target|P62993 Growth factor receptor-bound protein 2 (DB00061; DB03276)
 OpenBabel12092119433D

  0  0  0     0  0            999 V3000
M  V30 BEGIN CTAB
M  V30 COUNTS 3485 3535 0 0 0
M  V30 BEGIN ATOM
M  V30 1 H -0.908 1.98254 -0.117106 0
M  V30 2 N 0 1.576 0 0
M  V30 3 C 0.933 2.03868 1.02534 0
M  V30 4 C 1.911 0.928543 1.3348 0
M  V30 5 O 3.095 1.19667 1.45644 0
M  V30 6 C 0.222 2.43627 2.35294 0
M  V30 7 C -0.732 3.65373 2.2001 0
M  V30 8 S 0.101 5.13292 1.52614 0
M  V30 9 C 1.257 5.56322 2.86805 0
M  V30 10 H 1.49 2.90518 0.631377 0
M  V30 11 H -0.977 1.52953 0.210867 0
M  V30 12 H 0.981 2.67203 3.11629 0
M  V30 13 H -0.358 1.57376 2.7183 0
M  V30 14 H -1.165 3.90944 3.18086 0
M  V30 15 H -1.563 3.418 1.51819 0
M  V30 16 H 0.729 5.58782 3.83104 0
M  V30 17 H 1.672 6.56266 2.65933 0
M  V30 18 H 2.08 4.83886 2.90714 0
M  V30 19 N 1.4781 -0.272755 1.55222 0
M  V30 20 C 2.3881 -1.35918 1.91216 0
M  V30 21 C 3.4041 -1.54026 0.809436 0
M  V30 22 O 4.5801 -1.68148 1.10852 0
M  V30 23 C 1.6451 -2.69834 2.17693 0
M  V30 24 C 0.7061 -2.6047 3.41253 0
M  V30 25 C -0.0609 -3.88 3.66458 0
M  V30 26 O 0.1621 -4.88693 2.94169 0
M  V30 27 O -0.9039 -3.88189 4.59992 0
M  V30 28 H 2.9221 -1.0839 2.83699 0
M  V30 29 H 0.5071 -0.471301 1.41771 0
M  V30 30 H 2.3891 -3.49017 2.36147 0
M  V30 31 H 1.0641 -2.97148 1.28392 0
M  V30 32 H -0.0289 -1.79663 3.28134 0
M  V30 33 H 1.3041 -2.38106 4.30774 0
M  V30 34 N 2.9562 -1.48159 -0.537278 0
M  V30 35 C 3.9192 -1.61665 -1.62472 0
M  V30 36 C 4.9192 -0.490395 -1.5314 0
M  V30 37 O 6.1092 -0.755998 -1.5694 0
M  V30 38 C 3.2412 -1.57997 -3.02076 0
M  V30 39 H 4.4342 -2.58621 -1.51839 0
M  V30 40 H 1.9872 -1.36647 -0.758771 0
M  V30 41 H 2.7222 -0.624913 -3.18222 0
M  V30 42 H 2.5072 -2.39755 -3.10258 0
M  V30 43 H 3.9972 -1.70627 -3.81151 0
M  V30 44 N 4.4343 0.785586 -1.36625 0
M  V30 45 C 5.6833 1.53883 -1.30396 0
M  V30 46 C 5.9963 1.95271 0.113452 0
M  V30 47 O 7.2023 2.69858 0.298142 0
M  V30 48 C 5.6583 2.77808 -2.28802 0
M  V30 49 C 5.2663 2.43574 -3.75999 0
M  V30 50 C 7.0103 3.55783 -2.31558 0
M  V30 51 C 4.9173 3.63919 -4.66173 0
M  V30 52 H 3.8473 0.577678 -0.484566 0
M  V30 53 H 6.4983 0.861705 -1.62009 0
M  V30 54 H 4.8803 3.47339 -1.90188 0
M  V30 55 H 6.0543 1.81916 -4.23371 0
M  V30 56 H 4.3693 1.78803 -3.76056 0
M  V30 57 H 6.9663 4.45205 -2.96137 0
M  V30 58 H 7.3093 3.94644 -1.3252 0
M  V30 59 H 7.8423 2.93235 -2.68809 0
M  V30 60 H 4.5813 3.3015 -5.66287 0
M  V30 61 H 4.1013 4.2473 -4.23515 0
M  V30 62 H 5.7803 4.30901 -4.82632 0
M  V30 63 N 5.9124 1.20967 1.01018 0
M  V30 64 C 6.8754 0.965918 2.07853 0
M  V30 65 C 7.8754 -0.0610545 1.60684 0
M  V30 66 O 9.0654 0.175681 1.73312 0
M  V30 67 C 6.1974 0.455513 3.37843 0
M  V30 68 H 7.3904 1.91365 2.3091 0
M  V30 69 H 4.9434 1.02594 1.17916 0
M  V30 70 H 5.6784 -0.497381 3.20463 0
M  V30 71 H 5.4634 1.19622 3.73407 0
M  V30 72 H 6.9534 0.304667 4.16487 0
M  V30 73 N 7.3905 -1.2043 1.01659 0
M  V30 74 C 8.3375 -2.23215 0.586822 0
M  V30 75 C 9.3075 -1.61382 -0.393085 0
M  V30 76 O 10.4925 -1.88544 -0.292525 0
M  V30 77 C 7.6325 -3.45032 -0.0687464 0
M  V30 78 C 6.7455 -4.21296 0.955724 0
M  V30 79 C 5.8805 -5.30507 0.271208 0
M  V30 80 C 4.9195 -5.98515 1.28244 0
M  V30 81 N 4.0565 -6.99316 0.62459 0
M  V30 82 H 8.8965 -2.59336 1.46796 0
M  V30 83 H 6.4335 -1.27431 0.734836 0
M  V30 84 H 8.3915 -4.1459 -0.465965 0
M  V30 85 H 7.0215 -3.09604 -0.913529 0
M  V30 86 H 6.0735 -3.50803 1.4711 0
M  V30 87 H 7.3855 -4.6803 1.72479 0
M  V30 88 H 6.5395 -6.06428 -0.18151 0
M  V30 89 H 5.2785 -4.8481 -0.530163 0
M  V30 90 H 4.2835 -5.21355 1.74554 0
M  V30 91 H 5.5085 -6.46298 2.08509 0
M  V30 92 H 3.4545 -6.55812 -0.156914 0
M  V30 93 H 3.3715 -7.44178 1.33172 0
M  V30 94 H 4.6395 -7.79255 0.195462 0
M  V30 95 N 8.8686 -0.792821 -1.36206 0
M  V30 96 C 10.0986 -0.378275 -2.03107 0
M  V30 97 C 10.5066 1.01119 -1.59911 0
M  V30 98 O 9.8496 1.66052 -0.785658 0
M  V30 99 C 9.9116 -0.366535 -3.57627 0
M  V30 100 C 9.5756 -1.70416 -4.24037 0
M  V30 101 C 10.5726 -2.6602 -4.46687 0
M  V30 102 C 8.2576 -1.98439 -4.6144 0
M  V30 103 C 10.2516 -3.8784 -5.05825 0
M  V30 104 C 7.9386 -3.20525 -5.20295 0
M  V30 105 C 8.9366 -4.15044 -5.42427 0
M  V30 106 O 8.6246 -5.34978 -6.00045 0
M  V30 107 H 8.3566 -0.153543 -0.658332 0
M  V30 108 H 10.9106 -1.07383 -1.75094 0
M  V30 109 H 9.1406 0.385539 -3.84773 0
M  V30 110 H 10.8296 0.0238088 -4.05893 0
M  V30 111 H 11.5956 -2.45658 -4.18183 0
M  V30 112 H 7.4746 -1.25686 -4.43536 0
M  V30 113 H 11.0186 -4.61628 -5.23015 0
M  V30 114 H 6.9156 -3.40764 -5.48225 0
M  V30 115 H 7.6836 -5.36088 -6.18508 0
M  V30 116 N 10.3467 1.47872 -0.545128 0
M  V30 117 C 11.6237 1.9554 0.0485222 0
M  V30 118 C 12.0037 1.4876 1.49779 0
M  V30 119 O 11.3517 0.720925 2.16829 0
M  V30 120 C 11.5617 3.48898 -0.084417 0
M  V30 121 C 12.9097 4.24547 0.0671239 0
M  V30 122 O 13.9337 3.56198 -0.0113649 0
M  V30 123 O 12.7927 5.45999 0.233882 0
M  V30 124 H 9.8867 0.823957 0.0708773 0
M  V30 125 H 12.4327 1.58327 -0.610798 0
M  V30 126 H 11.2047 3.75714 -1.09337 0
M  V30 127 H 10.8277 3.92845 0.613066 0
M  V30 128 N 11.8248 0.280983 1.55075 0
M  V30 129 C 13.0718 -0.334115 1.99725 0
M  V30 130 C 13.3998 -1.5542 1.1694 0
M  V30 131 O 12.6548 -1.94361 0.228531 0
M  V30 132 C 12.9538 -0.754656 3.49342 0
M  V30 133 C 12.6198 0.361445 4.49449 0
M  V30 134 C 11.2818 0.667893 4.76542 0
M  V30 135 C 13.6338 1.11322 5.09173 0
M  V30 136 C 10.9618 1.7296 5.60626 0
M  V30 137 C 13.3138 2.1647 5.9441 0
M  V30 138 C 11.9778 2.47742 6.19822 0
M  V30 139 H 11.2478 -0.122261 0.730844 0
M  V30 140 H 13.8948 0.395917 1.87363 0
M  V30 141 H 12.1998 -1.56446 3.5921 0
M  V30 142 H 13.8968 -1.24142 3.813 0
M  V30 143 H 10.4868 0.112481 4.28452 0
M  V30 144 H 14.6708 0.88973 4.8826 0
M  V30 145 H 9.9268 1.97684 5.78559 0
M  V30 146 H 14.1008 2.75193 6.3972 0
M  V30 147 H 11.7278 3.30145 6.84769 0
M  V30 148 N 13.3029 -1.57598 0.00835791 0
M  V30 149 C 14.2499 -2.08945 -0.980346 0
M  V30 150 C 15.2199 -0.986738 -1.33614 0
M  V30 151 O 16.4049 -1.25968 -1.43306 0
M  V30 152 C 13.5449 -2.60425 -2.26435 0
M  V30 153 C 12.6579 -3.84628 -1.96685 0
M  V30 154 C 11.7929 -4.24579 -3.19228 0
M  V30 155 C 10.8319 -5.41596 -2.85202 0
M  V30 156 N 9.9689 -5.768 -4.00307 0
M  V30 157 H 14.8089 -2.93148 -0.535551 0
M  V30 158 H 12.3459 -1.44912 -0.252776 0
M  V30 159 H 14.3039 -2.88354 -3.01509 0
M  V30 160 H 12.9339 -1.79083 -2.68568 0
M  V30 161 H 11.9859 -3.63556 -1.11942 0
M  V30 162 H 13.2979 -4.69796 -1.67611 0
M  V30 163 H 12.4519 -4.53834 -4.02641 0
M  V30 164 H 11.1909 -3.38137 -3.51447 0
M  V30 165 H 10.1959 -5.12056 -2.00198 0
M  V30 166 H 11.4209 -6.29721 -2.54222 0
M  V30 167 H 9.3669 -4.93316 -4.32407 0
M  V30 168 H 9.2839 -6.5656 -3.74786 0
M  V30 169 H 10.5519 -6.10652 -4.84484 0
M  V30 170 N 14.781 0.264519 -1.55364 0
M  V30 171 C 15.744 1.31046 -1.88042 0
M  V30 172 C 16.744 1.41943 -0.755569 0
M  V30 173 O 17.934 1.40947 -1.02369 0
M  V30 174 C 15.066 2.69067 -2.09323 0
M  V30 175 H 16.259 1.03297 -2.81549 0
M  V30 176 H 13.812 0.502989 -1.47986 0
M  V30 177 H 14.547 3.01982 -1.18226 0
M  V30 178 H 14.332 2.62542 -2.91229 0
M  V30 179 H 15.822 3.44623 -2.35848 0
M  V30 180 N 16.2591 1.48442 0.529413 0
M  V30 181 C 17.4871 1.60151 1.30994 0
M  V30 182 C 17.9021 0.261985 1.86973 0
M  V30 183 O 17.2591 -0.748805 1.66431 0
M  V30 184 C 17.3101 2.64854 2.46038 0
M  V30 185 O 17.0311 3.93608 1.92365 0
M  V30 186 C 18.5321 2.87007 3.37849 0
M  V30 187 H 15.7521 0.539971 0.398338 0
M  V30 188 H 18.2961 1.94273 0.638597 0
M  V30 189 H 16.4511 2.33589 3.09055 0
M  V30 190 H 16.8651 4.51055 2.67675 0
M  V30 191 H 18.3391 3.64068 4.14919 0
M  V30 192 H 18.8161 1.95852 3.93114 0
M  V30 193 H 19.4221 3.19579 2.80623 0
M  V30 194 N 17.7372 -0.778329 1.37039 0
M  V30 195 C 18.7002 -1.87301 1.32102 0
M  V30 196 C 19.7002 -1.59198 0.226405 0
M  V30 197 O 20.8902 -1.67403 0.481861 0
M  V30 198 C 18.0222 -3.24309 1.05055 0
M  V30 199 H 19.2152 -1.93093 2.29467 0
M  V30 200 H 16.7682 -0.977358 1.21973 0
M  V30 201 H 17.5032 -3.24196 0.0819373 0
M  V30 202 H 17.2882 -3.46098 1.84279 0
M  V30 203 H 18.7782 -4.04382 1.04234 0
M  V30 204 N 19.2153 -1.21501 -1.00376 0
M  V30 205 C 20.4923 -0.941745 -1.71437 0
M  V30 206 C 20.8723 0.546114 -2.03914 0
M  V30 207 O 20.2203 1.51128 -1.71384 0
M  V30 208 C 20.4303 -1.82812 -2.97289 0
M  V30 209 C 21.7783 -2.07771 -3.70292 0
M  V30 210 O 22.8023 -1.80171 -3.07273 0
M  V30 211 O 21.6613 -2.54456 -4.83647 0
M  V30 212 H 18.7553 -0.353243 -0.747762 0
M  V30 213 H 21.3013 -1.32436 -1.06108 0
M  V30 214 H 20.0733 -2.83501 -2.69709 0
M  V30 215 H 19.6963 -1.4464 -3.70358 0
M  V30 216 N 20.6934 1.19889 -1.02296 0
M  V30 217 C 21.9704 1.85148 -0.630832 0
M  V30 218 C 22.3504 1.91385 0.890782 0
M  V30 219 O 21.6984 1.42642 1.78509 0
M  V30 220 C 21.9084 3.24442 -1.28602 0
M  V30 221 C 23.2564 4.00663 -1.4055 0
M  V30 222 O 24.2804 3.33818 -1.24273 0
M  V30 223 O 23.1394 5.20387 -1.66913 0
M  V30 224 H 20.2334 0.797613 -0.218499 0
M  V30 225 H 22.7794 1.27427 -1.12074 0
M  V30 226 H 21.5514 3.14704 -2.32545 0
M  V30 227 H 21.1744 3.89802 -0.7836 0
M  V30 228 N 22.1715 0.800033 1.35784 0
M  V30 229 C 23.0815 0.207204 2.33683 0
M  V30 230 C 24.0975 -0.64631 1.61551 0
M  V30 231 O 25.2735 -0.559604 1.93469 0
M  V30 232 C 22.3385 -0.639659 3.40748 0
M  V30 233 C 21.3995 0.233585 4.28664 0
M  V30 234 C 20.6325 -0.572954 5.30616 0
M  V30 235 O 20.8555 -1.80816 5.40982 0
M  V30 236 O 19.7895 0.0327285 6.01891 0
M  V30 237 H 23.6155 1.01692 2.86169 0
M  V30 238 H 21.2005 0.561691 1.38439 0
M  V30 239 H 23.0825 -1.12223 4.06182 0
M  V30 240 H 21.7575 -1.42708 2.90544 0
M  V30 241 H 20.6645 0.763147 3.66233 0
M  V30 242 H 21.9975 0.984784 4.82248 0
M  V30 243 N 23.6496 -1.47581 0.552962 0
M  V30 244 C 24.5796 -2.32762 -0.185451 0
M  V30 245 C 25.5606 -1.43527 -0.912905 0
M  V30 246 O 26.7456 -1.72388 -0.894201 0
M  V30 247 C 23.8756 -3.25219 -1.21859 0
M  V30 248 C 22.8296 -4.23661 -0.607864 0
M  V30 249 C 22.1556 -5.05413 -1.74533 0
M  V30 250 C 23.4556 -5.20481 0.435582 0
M  V30 251 H 25.1496 -2.94749 0.525684 0
M  V30 252 H 22.6956 -1.41738 0.254251 0
M  V30 253 H 24.6486 -3.8365 -1.7433 0
M  V30 254 H 23.3726 -2.61279 -1.95961 0
M  V30 255 H 22.0316 -3.66451 -0.104489 0
M  V30 256 H 21.6796 -4.3788 -2.47529 0
M  V30 257 H 21.3796 -5.72059 -1.34249 0
M  V30 258 H 22.9036 -5.66701 -2.27338 0
M  V30 259 H 24.3176 -5.733 -0.00290157 0
M  V30 260 H 22.7146 -5.95305 0.757067 0
M  V30 261 H 23.7846 -4.66217 1.33303 0
M  V30 262 N 25.1277 -0.289203 -1.54924 0
M  V30 263 C 26.3527 0.329299 -2.04769 0
M  V30 264 C 26.7777 1.4763 -1.16564 0
M  V30 265 O 26.1357 1.80527 -0.167186 0
M  V30 266 C 26.1837 0.774438 -3.52186 0
M  V30 267 O 25.2877 1.88038 -3.67036 0
M  V30 268 H 24.6287 0.0659259 -0.660719 0
M  V30 269 H 27.1587 -0.42761 -2.00082 0
M  V30 270 H 27.1687 1.06642 -3.93816 0
M  V30 271 H 25.8437 -0.0646707 -4.1585 0
M  V30 272 H 24.4207 1.58985 -3.3731 0
M  V30 273 N 26.6058 1.57591 -0.0167156 0
M  V30 274 C 27.8528 1.91283 0.664597 0
M  V30 275 C 28.1808 0.891949 1.72842 0
M  V30 276 O 27.4358 -0.100931 1.9544 0
M  V30 277 C 27.7348 3.3172 1.33029 0
M  V30 278 C 27.4008 4.4914 0.398047 0
M  V30 279 C 26.0628 4.80992 0.141421 0
M  V30 280 C 28.4148 5.20634 -0.242825 0
M  V30 281 C 25.7428 5.81703 -0.764092 0
M  V30 282 C 28.0948 6.22311 -1.13632 0
M  V30 283 C 26.7588 6.52611 -1.40196 0
M  V30 284 H 26.0288 0.699956 0.243193 0
M  V30 285 H 28.6758 1.9135 -0.0758267 0
M  V30 286 H 26.9808 3.27856 2.14517 0
M  V30 287 H 28.6778 3.55055 1.86379 0
M  V30 288 H 25.2678 4.24262 0.608238 0
M  V30 289 H 29.4518 4.96267 -0.0576019 0
M  V30 290 H 24.7078 6.03532 -0.977732 0
M  V30 291 H 28.8818 6.76834 -1.63917 0
M  V30 292 H 26.5088 7.30467 -2.10529 0
M  V30 293 N 28.0839 -0.256276 1.55502 0
M  V30 294 C 29.0309 -1.31714 1.89526 0
M  V30 295 C 30.0009 -1.4828 0.748479 0
M  V30 296 O 31.1859 -1.62416 1.00128 0
M  V30 297 C 28.3259 -2.66933 2.18725 0
M  V30 298 C 27.4389 -2.58452 3.4616 0
M  V30 299 C 26.5739 -3.85961 3.64976 0
M  V30 300 C 25.6129 -3.72059 4.86044 0
M  V30 301 N 24.7499 -4.9144 5.01429 0
M  V30 302 H 29.5899 -1.01998 2.80001 0
M  V30 303 H 27.1269 -0.492413 1.38613 0
M  V30 304 H 29.0849 -3.4563 2.33657 0
M  V30 305 H 27.7149 -2.94816 1.31466 0
M  V30 306 H 26.7669 -1.71374 3.3961 0
M  V30 307 H 28.0789 -2.44085 4.34999 0
M  V30 308 H 27.2329 -4.73101 3.79816 0
M  V30 309 H 25.9719 -4.03215 2.74353 0
M  V30 310 H 24.9769 -2.83302 4.7119 0
M  V30 311 H 26.2019 -3.56309 5.78118 0
M  V30 312 H 24.1479 -5.09072 4.13741 0
M  V30 313 H 24.0649 -4.79668 5.84341 0
M  V30 314 H 25.3329 -5.80104 5.20672 0
M  V30 315 N 29.562 -1.4872 -0.521534 0
M  V30 316 C 30.978 -1.35028 -0.850855 0
M  V30 317 C 31.178 -0.367712 -1.98116 0
M  V30 318 O 30.234 0.208037 -2.51642 0
M  V30 319 C 31.547 -2.75263 -1.21041 0
M  V30 320 C 33.095 -2.83813 -1.31981 0
M  V30 321 C 33.57 -4.24769 -1.71276 0
M  V30 322 N 35.061 -4.27482 -1.78363 0
M  V30 323 C 35.796 -5.33494 -2.1017 0
M  V30 324 N 35.292 -6.49775 -2.40343 0
M  V30 325 N 37.085 -5.20894 -2.11248 0
M  V30 326 H 29.236 -2.11214 0.22413 0
M  V30 327 H 31.499 -0.947252 0.0376439 0
M  V30 328 H 31.205 -3.48765 -0.453415 0
M  V30 329 H 31.079 -3.09327 -2.15863 0
M  V30 330 H 33.466 -2.10561 -2.06756 0
M  V30 331 H 33.547 -2.53358 -0.352596 0
M  V30 332 H 33.191 -4.9854 -0.970588 0
M  V30 333 H 33.121 -4.52673 -2.69062 0
M  V30 334 H 35.612 -3.43611 -1.57288 0
M  V30 335 H 35.925 -7.26402 -2.63743 0
M  V30 336 H 34.27 -6.53035 -2.37844 0
M  V30 337 H 37.461 -4.29065 -1.87139 0
M  V30 338 H 37.634 -6.03612 -2.35704 0
M  V30 339 N 31.0401 0.771051 -1.3745 0
M  V30 340 C 32.2881 1.52661 -1.32435 0
M  V30 341 C 32.6091 1.9479 0.0905024 0
M  V30 342 O 31.8791 1.66348 1.03466 0
M  V30 343 H 30.4591 0.566218 -0.487244 0
M  V30 344 H 33.1211 0.917636 -1.71946 0
M  V30 345 H 32.2171 2.42568 -1.96385 0
M  V30 346 N 32.5182 1.22032 0.997298 0
M  V30 347 C 33.7952 0.950823 1.70935 0
M  V30 348 C 34.1752 -0.535292 2.042 0
M  V30 349 O 33.5232 -1.50217 1.72183 0
M  V30 350 C 33.7332 1.84386 2.96315 0
M  V30 351 C 35.0812 2.09732 3.69185 0
M  V30 352 O 36.1052 1.81798 3.06314 0
M  V30 353 O 34.9642 2.57018 4.82291 0
M  V30 354 H 32.0582 0.357204 0.745878 0
M  V30 355 H 34.6042 1.32997 1.05404 0
M  V30 356 H 33.3762 2.84928 2.68201 0
M  V30 357 H 32.9992 1.46602 3.69586 0
M  V30 358 N 33.9963 -1.19345 1.0293 0
M  V30 359 C 35.2453 -1.88363 0.721256 0
M  V30 360 C 35.5583 -1.80514 -0.753254 0
M  V30 361 O 36.7643 -2.44788 -1.17436 0
M  V30 362 C 35.2203 -3.37872 1.23978 0
M  V30 363 C 34.8283 -3.54278 2.74211 0
M  V30 364 C 36.5723 -4.12365 1.00775 0
M  V30 365 C 34.4793 -4.97682 3.19479 0
M  V30 366 H 33.4093 -0.705484 0.266098 0
M  V30 367 H 36.0603 -1.34928 1.24365 0
M  V30 368 H 34.4423 -3.90707 0.6453 0
M  V30 369 H 35.6163 -3.11769 3.39318 0
M  V30 370 H 33.9313 -2.93174 2.95699 0
M  V30 371 H 36.5283 -5.18119 1.32123 0
M  V30 372 H 36.8713 -4.16263 -0.0554308 0
M  V30 373 H 37.4043 -3.65668 1.56625 0
M  V30 374 H 34.1433 -4.98945 4.25128 0
M  V30 375 H 33.6633 -5.4095 2.591 0
M  V30 376 H 35.3423 -5.66337 3.12845 0
M  V30 377 N 35.4744 -0.807222 -1.35358 0
M  V30 378 C 36.4044 -0.232509 -2.3234 0
M  V30 379 C 37.3854 0.642386 -1.57504 0
M  V30 380 O 38.5704 0.572526 -1.85569 0
M  V30 381 C 35.7004 0.619238 -3.41735 0
M  V30 382 C 34.6544 -0.157215 -4.27711 0
M  V30 383 C 33.9804 0.816273 -5.28433 0
M  V30 384 C 35.2804 -1.35656 -5.04376 0
M  V30 385 H 36.9744 -1.04276 -2.80654 0
M  V30 386 H 34.5204 -0.50288 -1.34934 0
M  V30 387 H 36.4734 1.03137 -4.08584 0
M  V30 388 H 35.1974 1.46239 -2.92031 0
M  V30 389 H 33.8564 -0.550525 -3.62443 0
M  V30 390 H 33.5044 1.65494 -4.74996 0
M  V30 391 H 33.2044 0.301067 -5.86828 0
M  V30 392 H 34.7284 1.22659 -5.98153 0
M  V30 393 H 36.1424 -1.01927 -5.64166 0
M  V30 394 H 34.5394 -1.8063 -5.7227 0
M  V30 395 H 35.6094 -2.14288 -4.34981 0
M  V30 396 N 36.9525 1.47285 -0.560781 0
M  V30 397 C 37.8995 2.30058 0.18491 0
M  V30 398 C 38.8695 1.39281 0.904986 0
M  V30 399 O 40.0545 1.68241 0.899979 0
M  V30 400 C 37.1945 3.23317 1.20666 0
M  V30 401 C 36.3075 4.29186 0.492285 0
M  V30 402 C 35.4425 5.09592 1.49964 0
M  V30 403 C 34.4815 6.07232 0.770439 0
M  V30 404 N 33.6185 6.80584 1.72479 0
M  V30 405 H 38.4585 2.93302 -0.527048 0
M  V30 406 H 35.9955 1.44568 -0.271738 0
M  V30 407 H 37.9535 3.75811 1.81168 0
M  V30 408 H 36.5835 2.61929 1.88661 0
M  V30 409 H 35.6355 3.7972 -0.227333 0
M  V30 410 H 36.9475 4.98738 -0.0787929 0
M  V30 411 H 36.1015 5.66254 2.17809 0
M  V30 412 H 34.8405 4.3995 2.10464 0
M  V30 413 H 33.8455 5.49745 0.0780846 0
M  V30 414 H 35.0705 6.78884 0.171134 0
M  V30 415 H 33.0165 6.1367 2.3183 0
M  V30 416 H 32.9335 7.46319 1.20596 0
M  V30 417 H 34.2015 7.41818 2.39428 0
M  V30 418 N 38.4306 0.297415 1.54768 0
M  V30 419 C 39.6766 -0.313376 2.00364 0
M  V30 420 C 40.0096 -1.53815 1.18553 0
M  V30 421 O 39.2846 -1.92739 0.261103 0
M  V30 422 C 39.5676 -0.673525 3.53745 0
M  V30 423 C 39.4206 0.560133 4.46299 0
M  V30 424 C 40.7396 -1.50143 4.13697 0
M  V30 425 H 37.8586 -0.112428 0.728374 0
M  V30 426 H 40.5006 0.4088 1.8555 0
M  V30 427 H 38.6506 -1.28881 3.665 0
M  V30 428 H 40.3226 1.19863 4.45455 0
M  V30 429 H 38.5656 1.19405 4.17043 0
M  V30 430 H 39.2366 0.26405 5.51368 0
M  V30 431 H 41.7126 -0.981588 4.04356 0
M  V30 432 H 40.5886 -1.72221 5.21182 0
M  V30 433 H 40.8496 -2.48952 3.65343 0
M  V30 434 N 39.9087 -1.5758 0.0250728 0
M  V30 435 C 40.8387 -2.13007 -0.956575 0
M  V30 436 C 41.8197 -1.0452 -1.342 0
M  V30 437 O 43.0047 -1.32332 -1.42133 0
M  V30 438 C 40.1347 -2.65386 -2.24026 0
M  V30 439 C 39.0887 -3.78623 -1.99571 0
M  V30 440 C 38.4147 -4.17414 -3.3417 0
M  V30 441 C 39.7147 -5.04867 -1.33814 0
M  V30 442 H 41.4087 -2.9528 -0.494991 0
M  V30 443 H 38.9547 -1.42042 -0.236651 0
M  V30 444 H 40.9077 -3.02794 -2.93076 0
M  V30 445 H 39.6317 -1.80268 -2.72343 0
M  V30 446 H 38.2907 -3.41646 -1.32941 0
M  V30 447 H 37.9387 -3.29284 -3.80238 0
M  V30 448 H 37.6387 -4.93719 -3.18615 0
M  V30 449 H 39.1627 -4.57402 -4.04495 0
M  V30 450 H 40.5767 -5.39888 -1.92857 0
M  V30 451 H 38.9737 -5.86144 -1.28669 0
M  V30 452 H 40.0437 -4.83904 -0.310561 0
M  V30 453 N 41.3868 0.248026 -1.55636 0
M  V30 454 C 42.3348 1.32683 -1.91045 0
M  V30 455 C 43.3288 1.49883 -0.789401 0
M  V30 456 O 44.5348 1.51371 -0.974007 0
M  V30 457 H 40.9098 0.444272 -0.606734 0
M  V30 458 H 42.8808 1.00085 -2.81115 0
M  V30 459 C 41.6298 2.6755 -2.22064 0
M  V30 460 H 40.9528 2.55114 -3.07826 0
M  V30 461 H 42.3928 3.41912 -2.50743 0
M  V30 462 C 40.8518 3.20556 -1.0366 0
M  V30 463 O 41.3818 4.00695 -0.284016 0
M  V30 464 N 39.5878 2.78568 -0.82753 0
M  V30 465 H 39.1348 2.1351 -1.44123 0
M  V30 466 H 39.0928 3.14378 -0.0369803 0
M  V30 467 N 42.8649 1.48995 0.513639 0
M  V30 468 C 43.7749 1.67443 1.64317 0
M  V30 469 C 44.7909 0.556947 1.64846 0
M  V30 470 O 45.9669 0.830082 1.83498 0
M  V30 471 C 43.0319 1.72515 3.00732 0
M  V30 472 C 42.0929 2.96009 3.1093 0
M  V30 473 C 41.3259 3.00829 4.40837 0
M  V30 474 O 41.5489 2.13594 5.28898 0
M  V30 475 O 40.4829 3.93168 4.55744 0
M  V30 476 H 44.3089 2.63106 1.51687 0
M  V30 477 H 41.8939 1.32588 0.688543 0
M  V30 478 H 43.7759 1.78277 3.81831 0
M  V30 479 H 42.4509 0.800278 3.13651 0
M  V30 480 H 41.3579 2.9577 2.29065 0
M  V30 481 H 42.6909 3.87934 3.02933 0
M  V30 482 N 44.343 -0.763751 1.37857 0
M  V30 483 C 45.253 -1.90817 1.36478 0
M  V30 484 C 46.269 -1.71997 0.263248 0
M  V30 485 O 47.445 -1.95095 0.499979 0
M  V30 486 C 44.51 -3.2605 1.17864 0
M  V30 487 C 43.571 -3.57467 2.3773 0
M  V30 488 C 42.804 -4.86249 2.19995 0
M  V30 489 O 43.027 -5.57884 1.18836 0
M  V30 490 O 41.961 -5.16911 3.08361 0
M  V30 491 H 45.787 -1.94933 2.32884 0
M  V30 492 H 43.372 -0.907619 1.1867 0
M  V30 493 H 45.254 -4.06924 1.09504 0
M  V30 494 H 43.929 -3.22769 0.245372 0
M  V30 495 H 42.836 -2.76796 2.51664 0
M  V30 496 H 44.169 -3.655 3.29652 0
M  V30 497 N 45.8211 -1.22559 -0.990812 0
M  V30 498 C 47.0611 -1.06302 -1.74583 0
M  V30 499 C 47.4251 0.394737 -1.87898 0
M  V30 500 O 48.6261 0.678214 -2.60103 0
M  V30 501 C 46.8971 -1.75699 -3.11231 0
M  V30 502 S 48.4561 -1.74882 -4.02445 0
M  V30 503 H 45.2741 -0.380639 -0.600529 0
M  V30 504 H 47.8761 -1.55532 -1.18449 0
M  V30 505 H 46.5801 -2.80923 -2.99183 0
M  V30 506 H 46.1111 -1.26708 -3.72436 0
M  V30 507 H 48.1261 -0.799997 -4.89709 0
M  V30 508 N 47.2992 1.18797 -1.03562 0
M  V30 509 C 48.5762 1.84469 -0.650434 0
M  V30 510 C 48.9562 1.92319 0.870433 0
M  V30 511 O 48.3042 1.44528 1.76986 0
M  V30 512 C 48.5142 3.2306 -1.32036 0
M  V30 513 C 49.8622 3.9915 -1.44792 0
M  V30 514 O 50.8862 3.32481 -1.27806 0
M  V30 515 O 49.7452 5.18587 -1.72423 0
M  V30 516 H 46.8392 0.795251 -0.226946 0
M  V30 517 H 49.3852 1.26231 -1.13419 0
M  V30 518 H 48.1572 3.1222 -2.3587 0
M  V30 519 H 47.7802 3.88949 -0.8249 0
M  V30 520 N 48.7773 0.814389 1.34928 0
M  V30 521 C 49.7093 0.187834 2.28429 0
M  V30 522 C 50.7223 -0.617374 1.5064 0
M  V30 523 O 51.9113 -0.448454 1.72775 0
M  V30 524 C 49.0113 -0.755962 3.30361 0
M  V30 525 C 48.1843 0.00456686 4.374 0
M  V30 526 C 47.2433 -0.858876 5.19143 0
M  V30 527 O 46.2693 -0.306968 5.68372 0
M  V30 528 N 47.4713 -2.17988 5.38016 0
M  V30 529 H 50.2363 0.991105 2.82838 0
M  V30 530 H 47.7973 0.670561 1.4736 0
M  V30 531 H 49.7893 -1.338 3.81942 0
M  V30 532 H 48.3593 -1.46001 2.7641 0
M  V30 533 H 47.5793 0.767865 3.86649 0
M  V30 534 H 48.8673 0.528422 5.06049 0
M  V30 535 H 48.2653 -2.65212 4.99679 0
M  V30 536 H 46.8223 -2.71098 5.92747 0
M  V30 537 N 50.2554 -1.46986 0.568584 0
M  V30 538 C 51.2034 -2.31858 -0.185649 0
M  V30 539 C 52.1974 -1.43624 -0.898249 0
M  V30 540 O 53.4034 -1.60327 -0.818242 0
M  V30 541 H 49.7784 -0.747866 -0.0787399 0
M  V30 542 H 51.7494 -2.93303 0.549191 0
M  V30 543 C 50.4984 -3.26513 -1.19519 0
M  V30 544 H 49.8214 -3.94377 -0.656285 0
M  V30 545 H 51.2614 -3.88707 -1.6936 0
M  V30 546 C 49.7204 -2.50847 -2.24894 0
M  V30 547 O 50.2504 -2.26119 -3.32014 0
M  V30 548 N 48.4564 -2.11656 -1.99124 0
M  V30 549 H 48.0034 -2.31966 -1.12024 0
M  V30 550 H 47.9614 -1.61347 -2.69842 0
M  V30 551 N 51.7335 -0.305618 -1.54608 0
M  V30 552 C 52.9795 0.295595 -2.01241 0
M  V30 553 C 53.3345 1.51171 -1.19018 0
M  V30 554 O 52.6275 1.89832 -0.259684 0
M  V30 555 C 52.8215 0.698983 -3.50498 0
M  V30 556 C 52.6505 -0.476491 -4.47168 0
M  V30 557 C 51.4205 -0.969963 -4.95903 0
M  V30 558 C 53.6185 -1.32294 -4.96994 0
M  V30 559 N 51.6005 -2.11172 -5.76437 0
M  V30 560 C 52.9715 -2.31212 -5.75275 0
M  V30 561 C 55.0265 -1.35278 -4.7917 0
M  V30 562 C 53.7295 -3.32896 -6.37631 0
M  V30 563 C 55.7555 -2.35823 -5.42348 0
M  V30 564 C 55.1175 -3.33469 -6.20466 0
M  V30 565 H 51.2165 0.0724992 -0.778632 0
M  V30 566 H 53.8005 -0.436583 -1.89742 0
M  V30 567 H 51.9715 1.40032 -3.62278 0
M  V30 568 H 53.7035 1.28013 -3.8392 0
M  V30 569 H 50.4585 -0.544178 -4.70463 0
M  V30 570 H 50.8825 -2.68714 -6.21387 0
M  V30 571 H 55.5245 -0.61157 -4.18354 0
M  V30 572 H 53.2425 -4.07933 -6.97579 0
M  V30 573 H 56.8285 -2.38911 -5.30484 0
M  V30 574 H 55.7085 -4.09996 -6.68485 0
M  V30 575 N 53.2116 1.57565 -0.0334293 0
M  V30 576 C 54.4416 1.95996 0.653398 0
M  V30 577 C 54.8496 0.908749 1.65947 0
M  V30 578 O 54.1926 -0.117471 1.83324 0
M  V30 579 C 54.2546 3.30589 1.41249 0
M  V30 580 C 53.9186 4.53503 0.564263 0
M  V30 581 C 54.9156 5.19647 -0.16225 0
M  V30 582 C 52.6006 4.99801 0.500398 0
M  V30 583 C 54.5946 6.30412 -0.941255 0
M  V30 584 C 52.2816 6.10448 -0.282308 0
M  V30 585 C 53.2796 6.75612 -1.00184 0
M  V30 586 O 52.9676 7.84134 -1.77171 0
M  V30 587 H 52.6996 0.65027 0.184728 0
M  V30 588 H 55.2536 2.05199 -0.0907841 0
M  V30 589 H 53.4836 3.17888 2.20191 0
M  V30 590 H 55.1726 3.53892 1.98784 0
M  V30 591 H 55.9386 4.84846 -0.12227 0
M  V30 592 H 51.8176 4.48883 1.05002 0
M  V30 593 H 55.3616 6.81208 -1.50339 0
M  V30 594 H 51.2586 6.44686 -0.323989 0
M  V30 595 H 52.0266 8.00822 -1.69194 0
M  V30 596 N 54.6897 -0.239769 1.55765 0
M  V30 597 C 55.6367 -1.29696 1.90913 0
M  V30 598 C 56.6067 -1.47478 0.764164 0
M  V30 599 O 57.7917 -1.61345 1.01845 0
M  V30 600 C 54.9317 -2.64598 2.21544 0
M  V30 601 C 54.0447 -2.54765 3.48882 0
M  V30 602 C 53.1797 -3.82069 3.69049 0
M  V30 603 C 52.2187 -3.66883 4.89963 0
M  V30 604 N 51.3557 -4.86094 5.06614 0
M  V30 605 H 56.1957 -0.990224 2.81067 0
M  V30 606 H 53.7327 -0.477684 1.39128 0
M  V30 607 H 55.6907 -3.43132 2.3731 0
M  V30 608 H 54.3207 -2.93405 1.34585 0
M  V30 609 H 53.3727 -1.67763 3.41409 0
M  V30 610 H 54.6847 -2.39457 4.37563 0
M  V30 611 H 53.8387 -4.69046 3.84812 0
M  V30 612 H 52.5777 -4.00282 2.78614 0
M  V30 613 H 51.5827 -2.78289 4.74168 0
M  V30 614 H 52.8077 -3.50157 5.81865 0
M  V30 615 H 50.7537 -5.04655 4.19117 0
M  V30 616 H 50.6707 -4.73443 5.89396 0
M  V30 617 H 51.9387 -5.74549 5.26795 0
M  V30 618 N 56.1678 -1.49265 -0.50573 0
M  V30 619 C 57.1308 -1.65075 -1.59006 0
M  V30 620 C 58.1308 -0.522768 -1.52065 0
M  V30 621 O 59.3208 -0.789117 -1.55302 0
M  V30 622 C 56.4528 -1.64369 -2.98656 0
M  V30 623 H 57.6458 -2.61784 -1.46319 0
M  V30 624 H 55.1988 -1.38226 -0.729616 0
M  V30 625 H 55.9338 -0.692272 -3.16825 0
M  V30 626 H 55.7188 -2.46282 -3.05103 0
M  V30 627 H 57.2088 -1.78674 -3.77446 0
M  V30 628 N 57.6459 0.756429 -1.3826 0
M  V30 629 C 58.5559 1.9009 -1.37488 0
M  V30 630 C 59.5719 1.71855 -0.272366 0
M  V30 631 O 60.7479 1.94827 -0.510318 0
M  V30 632 C 57.8129 3.25421 -1.19592 0
M  V30 633 C 56.8739 3.56202 -2.39622 0
M  V30 634 C 56.1069 4.85075 -2.2257 0
M  V30 635 O 56.3299 5.57246 -1.21793 0
M  V30 636 O 55.2639 5.15269 -3.11098 0
M  V30 637 H 59.0899 1.93695 -2.33914 0
M  V30 638 H 56.6749 0.901313 -1.1915 0
M  V30 639 H 58.5569 4.06337 -1.11661 0
M  V30 640 H 57.2319 3.22634 -0.262486 0
M  V30 641 H 56.1389 2.75458 -2.53128 0
M  V30 642 H 57.4719 3.63747 -3.31586 0
M  V30 643 N 59.124 1.23083 0.984299 0
M  V30 644 C 60.054 1.03292 2.09411 0
M  V30 645 C 61.035 -0.048923 1.7003 0
M  V30 646 O 62.22 0.114967 1.93859 0
M  V30 647 C 59.35 0.619155 3.41736 0
M  V30 648 C 58.304 1.64791 3.95004 0
M  V30 649 C 57.63 1.0897 5.23478 0
M  V30 650 C 58.93 3.03999 4.24714 0
M  V30 651 H 60.624 1.96119 2.26225 0
M  V30 652 H 58.17 0.944344 1.08711 0
M  V30 653 H 60.123 0.467777 4.18796 0
M  V30 654 H 58.847 -0.344786 3.24775 0
M  V30 655 H 57.506 1.78721 3.20085 0
M  V30 656 H 57.154 0.11686 5.02864 0
M  V30 657 H 56.854 1.77704 5.60085 0
M  V30 658 H 58.378 0.950093 6.03163 0
M  V30 659 H 59.792 2.93393 4.92538 0
M  V30 660 H 58.189 3.69936 4.72512 0
M  V30 661 H 59.259 3.53285 3.32142 0
M  V30 662 N 60.6021 -1.18246 1.0419 0
M  V30 663 C 61.5501 -2.23968 0.627792 0
M  V30 664 C 62.5441 -1.65828 -0.346019 0
M  V30 665 O 63.7501 -1.78733 -0.213175 0
M  V30 666 H 60.1251 -0.728939 0.184802 0
M  V30 667 H 62.0961 -2.56202 1.52981 0
M  V30 668 C 60.8451 -3.47699 0.00796591 0
M  V30 669 H 60.1681 -3.92734 0.748347 0
M  V30 670 H 61.6081 -4.23294 -0.24455 0
M  V30 671 C 60.0671 -3.13153 -1.24246 0
M  V30 672 O 60.5971 -3.27003 -2.33307 0
M  V30 673 N 58.8031 -2.67467 -1.13622 0
M  V30 674 H 58.3501 -2.56396 -0.248734 0
M  V30 675 H 58.3081 -2.44724 -1.97377 0
M  V30 676 N 62.0802 -0.821533 -1.34494 0
M  V30 677 C 63.3282 -0.408139 -1.97936 0
M  V30 678 C 63.6492 1.03193 -1.65457 0
M  V30 679 O 62.9192 1.71622 -0.944595 0
M  V30 680 H 61.4992 -0.147928 -0.732206 0
M  V30 681 H 64.1612 -1.05067 -1.64155 0
M  V30 682 H 63.2572 -0.52601 -3.07635 0
M  V30 683 N 63.5583 1.46682 -0.576371 0
M  V30 684 C 64.5053 2.30241 0.160499 0
M  V30 685 C 65.4753 1.40233 0.890162 0
M  V30 686 O 66.6603 1.69186 0.882084 0
M  V30 687 C 63.8003 3.24578 1.1723 0
M  V30 688 C 62.9133 4.29684 0.446736 0
M  V30 689 C 62.0483 5.11154 1.44551 0
M  V30 690 C 61.0873 6.08015 0.70599 0
M  V30 691 N 60.2243 6.82376 1.65251 0
M  V30 692 H 65.0643 2.92727 -0.558127 0
M  V30 693 H 62.6013 1.44272 -0.287056 0
M  V30 694 H 64.5593 3.77711 1.77172 0
M  V30 695 H 63.1893 2.63916 1.85872 0
M  V30 696 H 62.2413 3.79458 -0.267594 0
M  V30 697 H 63.5533 4.98626 -0.131686 0
M  V30 698 H 62.7073 5.68533 2.11791 0
M  V30 699 H 61.4463 4.42158 2.05786 0
M  V30 700 H 60.4513 5.49796 0.0197725 0
M  V30 701 H 61.6763 6.79028 0.09912 0
M  V30 702 H 59.6223 6.16094 2.25308 0
M  V30 703 H 59.5393 7.47556 1.12673 0
M  V30 704 H 60.8073 7.44316 2.31546 0
M  V30 705 N 65.0364 0.313813 1.54444 0
M  V30 706 C 66.3134 -0.345447 1.92525 0
M  V30 707 C 66.6934 -1.70667 1.24242 0
M  V30 708 O 66.0414 -2.25273 0.382654 0
M  V30 709 C 66.2514 -0.44737 3.46121 0
M  V30 710 C 67.5994 -0.712238 4.18584 0
M  V30 711 O 68.6234 -0.530678 3.52225 0
M  V30 712 O 67.4824 -1.06183 5.36085 0
M  V30 713 H 64.5764 -0.195407 0.803583 0
M  V30 714 H 67.1224 0.362813 1.65776 0
M  V30 715 H 65.8944 0.509043 3.87975 0
M  V30 716 H 65.5174 -1.20359 3.78945 0
M  V30 717 N 66.5145 -1.57545 0.0417849 0
M  V30 718 C 67.7625 -1.91937 -0.632829 0
M  V30 719 C 68.0835 -0.919978 -1.71934 0
M  V30 720 O 67.3535 0.0366064 -1.95866 0
M  V30 721 H 65.9335 -0.708493 -0.236742 0
M  V30 722 H 68.5955 -1.9468 0.0925745 0
M  V30 723 H 67.6915 -2.92912 -1.07746 0
M  V30 724 N 67.9926 0.231505 -1.5589 0
M  V30 725 C 69.2396 0.957352 -1.78441 0
M  V30 726 C 69.5676 1.84726 -0.60882 0
M  V30 727 O 68.8226 1.91416 0.40725 0
M  V30 728 C 69.1216 1.83577 -3.0665 0
M  V30 729 C 68.7876 1.09993 -4.37278 0
M  V30 730 C 67.4496 0.896629 -4.72773 0
M  V30 731 C 69.8016 0.579558 -5.17968 0
M  V30 732 C 67.1296 0.160896 -5.86479 0
M  V30 733 C 69.4816 -0.142783 -6.32439 0
M  V30 734 C 68.1456 -0.357427 -6.66542 0
M  V30 735 H 67.4156 0.35032 -0.65296 0
M  V30 736 H 70.0626 0.226259 -1.90159 0
M  V30 737 H 68.3676 2.63441 -2.90011 0
M  V30 738 H 70.0646 2.39934 -3.21298 0
M  V30 739 H 66.6546 1.26835 -4.09403 0
M  V30 740 H 70.8386 0.724125 -4.90989 0
M  V30 741 H 66.0946 -0.0157293 -6.11398 0
M  V30 742 H 70.2686 -0.553559 -6.94196 0
M  V30 743 H 67.8956 -0.929466 -7.54497 0
M  V30 744 N 69.4707 1.49531 0.497807 0
M  V30 745 C 70.7197 1.58426 1.24837 0
M  V30 746 C 71.0327 0.277643 1.93619 0
M  V30 747 O 72.2387 0.24517 2.70391 0
M  V30 748 C 70.6947 2.79538 2.26686 0
M  V30 749 C 70.3027 4.16971 1.63828 0
M  V30 750 C 72.0467 2.97764 3.0255 0
M  V30 751 C 69.9537 5.29301 2.63807 0
M  V30 752 H 68.8837 0.58989 0.469623 0
M  V30 753 H 71.5347 1.75923 0.521857 0
M  V30 754 H 69.9167 2.55542 3.02514 0
M  V30 755 H 71.0907 4.51116 0.939711 0
M  V30 756 H 69.4057 4.04129 1.00342 0
M  V30 757 H 72.0027 3.78856 3.77323 0
M  V30 758 H 72.3457 2.08448 3.60354 0
M  V30 759 H 72.8787 3.21815 2.33838 0
M  V30 760 H 69.6177 6.20687 2.10779 0
M  V30 761 H 69.1377 4.99606 3.31894 0
M  V30 762 H 70.8167 5.58768 3.2617 0
M  V30 763 N 70.9488 -0.749086 1.3866 0
M  V30 764 C 72.3598 -1.32664 1.31366 0
M  V30 765 C 72.7108 -1.96179 -0.028484 0
M  V30 766 O 71.8358 -1.9537 -0.93057 0
M  V30 767 C 72.4308 -2.41219 2.37905 0
M  V30 768 C 70.9898 -2.94684 2.34176 0
M  V30 769 C 70.1368 -1.68108 2.20533 0
M  V30 770 H 73.0878 -0.547628 1.48952 0
M  V30 771 H 73.1088 -3.21268 2.0388 0
M  V30 772 H 72.6208 -1.94962 3.35576 0
M  V30 773 H 70.7218 -3.45258 1.401 0
M  V30 774 H 70.8348 -3.48757 3.2849 0
M  V30 775 H 69.1988 -1.91907 1.67463 0
M  V30 776 H 69.9818 -1.23923 3.20153 0
M  V30 777 N 72.4269 -1.23603 -0.977757 0
M  V30 778 C 73.3739 -1.01954 -2.07061 0
M  V30 779 C 74.3439 0.0638697 -1.65977 0
M  V30 780 O 75.5289 -0.0887624 -1.90593 0
M  V30 781 C 72.6689 -0.619658 -3.39491 0
M  V30 782 C 71.7819 -1.77547 -3.93829 0
M  V30 783 C 70.9169 -1.32212 -5.14484 0
M  V30 784 C 69.9559 -2.44852 -5.60994 0
M  V30 785 N 69.0929 -2.00456 -6.72876 0
M  V30 786 H 73.9329 -1.95495 -2.24913 0
M  V30 787 H 71.4699 -0.973861 -1.10247 0
M  V30 788 H 73.4279 -0.368898 -4.15566 0
M  V30 789 H 72.0579 0.278752 -3.21594 0
M  V30 790 H 71.1099 -2.14016 -3.14486 0
M  V30 791 H 72.4219 -2.62219 -4.24314 0
M  V30 792 H 71.5759 -1.02965 -5.97899 0
M  V30 793 H 70.3149 -0.445808 -4.85658 0
M  V30 794 H 69.3199 -2.74871 -4.76157 0
M  V30 795 H 70.5449 -3.33024 -5.91837 0
M  V30 796 H 68.4909 -1.15208 -6.45804 0
M  V30 797 H 68.4079 -2.78687 -7.02759 0
M  V30 798 H 69.6759 -1.7432 -7.59758 0
M  V30 799 N 73.905 1.17692 -1.04816 0
M  V30 800 C 74.853 2.23632 -0.63966 0
M  V30 801 C 75.847 1.6601 0.337219 0
M  V30 802 O 77.053 1.78844 0.203693 0
M  V30 803 H 73.428 0.727949 -0.188665 0
M  V30 804 H 75.399 2.55387 -1.54337 0
M  V30 805 C 74.148 3.4769 -0.0264051 0
M  V30 806 H 73.471 3.92331 -0.769164 0
M  V30 807 H 74.911 4.23418 0.222098 0
M  V30 808 C 73.37 3.13807 1.22584 0
M  V30 809 O 73.9 3.28236 2.31569 0
M  V30 810 N 72.106 2.68065 1.12202 0
M  V30 811 H 71.653 2.56525 0.235133 0
M  V30 812 H 71.611 2.45767 1.96076 0
M  V30 813 N 75.3831 0.828654 1.34056 0
M  V30 814 C 76.6131 0.431993 2.02033 0
M  V30 815 C 77.0211 -0.96844 1.62536 0
M  V30 816 O 76.3641 -1.6391 0.829408 0
M  V30 817 C 76.4261 0.461224 3.56529 0
M  V30 818 C 76.0901 1.81599 4.1937 0
M  V30 819 C 77.0871 2.7777 4.39477 0
M  V30 820 C 74.7721 2.10604 4.56017 0
M  V30 821 C 76.7661 4.01115 4.95364 0
M  V30 822 C 74.4531 3.34207 5.11614 0
M  V30 823 C 75.4511 4.2928 5.31232 0
M  V30 824 O 75.1391 5.50699 5.8565 0
M  V30 825 H 74.8711 0.170943 0.654029 0
M  V30 826 H 77.4251 1.11988 1.72185 0
M  V30 827 H 75.6551 -0.283388 3.8566 0
M  V30 828 H 77.3441 0.0838149 4.05813 0
M  V30 829 H 78.1101 2.56659 4.11523 0
M  V30 830 H 73.9891 1.37402 4.40047 0
M  V30 831 H 77.5331 4.75333 5.10592 0
M  V30 832 H 73.4301 3.55179 5.38997 0
M  V30 833 H 74.1981 5.52298 6.04077 0
M  V30 834 N 76.8612 -1.46375 0.584142 0
M  V30 835 C 78.1102 -2.01585 0.0679741 0
M  V30 836 C 78.4232 -1.46109 -1.30045 0
M  V30 837 O 79.6292 -1.93148 -1.90804 0
M  V30 838 C 78.0852 -3.5983 0.0709207 0
M  V30 839 C 77.6932 -4.24303 1.43775 0
M  V30 840 C 79.4372 -4.22693 -0.391228 0
M  V30 841 C 77.3442 -5.74631 1.39834 0
M  V30 842 H 76.2742 -0.753689 0.0216421 0
M  V30 843 H 78.9252 -1.68093 0.736001 0
M  V30 844 H 77.3072 -3.90405 -0.663299 0
M  V30 845 H 78.4812 -4.05335 2.19181 0
M  V30 846 H 76.7962 -3.73539 1.84004 0
M  V30 847 H 79.3932 -5.3289 -0.439524 0
M  V30 848 H 79.7362 -3.91728 -1.40906 0
M  V30 849 H 80.2692 -3.96749 0.288974 0
M  V30 850 H 77.0082 -6.10258 2.39303 0
M  V30 851 H 76.5282 -5.95858 0.686505 0
M  V30 852 H 78.2072 -6.37375 1.11187 0
M  V30 853 N 78.3393 -0.321999 -1.54275 0
M  V30 854 C 79.2493 0.553631 -2.27974 0
M  V30 855 C 80.2653 1.13054 -1.32268 0
M  V30 856 O 81.4413 1.15084 -1.6528 0
M  V30 857 C 78.5063 1.69927 -3.02201 0
M  V30 858 C 77.5673 1.15433 -4.1349 0
M  V30 859 C 76.8003 2.24537 -4.84168 0
M  V30 860 O 77.0233 3.44852 -4.5435 0
M  V30 861 O 75.9573 1.90044 -5.7111 0
M  V30 862 H 79.7833 -0.0448345 -3.03667 0
M  V30 863 H 77.3683 -0.0877418 -1.49142 0
M  V30 864 H 79.2503 2.3663 -3.48689 0
M  V30 865 H 77.9253 2.28395 -2.29385 0
M  V30 866 H 76.8323 0.452436 -3.71354 0
M  V30 867 H 78.1653 0.614805 -4.88345 0
M  V30 868 N 79.8174 1.5752 -0.0501392 0
M  V30 869 C 80.7504 2.07026 0.959962 0
M  V30 870 C 81.7284 0.970539 1.30458 0
M  V30 871 O 82.9124 1.2424 1.41763 0
M  V30 872 C 80.0394 2.5099 2.27424 0
M  V30 873 C 79.0854 3.72188 2.08275 0
M  V30 874 S 79.9184 5.17888 1.36207 0
M  V30 875 C 81.0744 5.65165 2.6896 0
M  V30 876 H 81.3074 2.9238 0.538631 0
M  V30 877 H 78.8404 1.53547 0.162099 0
M  V30 878 H 80.7984 2.76982 3.02971 0
M  V30 879 H 79.4594 1.65944 2.66686 0
M  V30 880 H 78.6524 4.00866 3.05487 0
M  V30 881 H 78.2544 3.46457 1.40868 0
M  V30 882 H 80.5464 5.70687 3.65133 0
M  V30 883 H 81.4894 6.64394 2.4492 0
M  V30 884 H 81.8974 4.9289 2.75172 0
M  V30 885 N 81.2955 -0.223234 1.56011 0
M  V30 886 C 82.2425 -1.27664 1.92277 0
M  V30 887 C 83.2125 -1.46659 0.779763 0
M  V30 888 O 84.3975 -1.60256 1.03551 0
M  V30 889 C 81.5375 -2.62234 2.24338 0
M  V30 890 C 80.6505 -2.51051 3.51564 0
M  V30 891 C 79.7855 -3.78133 3.7308 0
M  V30 892 C 78.8245 -3.61665 4.93827 0
M  V30 893 N 77.9615 -4.80693 5.11741 0
M  V30 894 H 82.8015 -0.960358 2.82101 0
M  V30 895 H 80.3385 -0.462901 1.39627 0
M  V30 896 H 82.2965 -3.40596 2.40936 0
M  V30 897 H 80.9265 -2.91961 1.3769 0
M  V30 898 H 79.9785 -1.64132 3.43169 0
M  V30 899 H 81.2905 -2.34803 4.40079 0
M  V30 900 H 80.4445 -4.64938 3.89766 0
M  V30 901 H 79.1835 -3.97304 2.82844 0
M  V30 902 H 78.1885 -2.73244 4.77093 0
M  V30 903 H 79.4135 -3.43966 5.85546 0
M  V30 904 H 77.3595 -5.00181 4.24446 0
M  V30 905 H 77.2765 -4.67165 5.94384 0
M  V30 906 H 78.5445 -5.6893 5.3286 0
M  V30 907 N 82.7736 -1.49793 -0.48987 0
M  V30 908 C 84.1846 -1.52914 -1.07118 0
M  V30 909 C 84.5356 -0.321738 -1.93544 0
M  V30 910 O 83.6606 0.567338 -2.08831 0
M  V30 911 C 84.2556 -2.771 -1.94938 0
M  V30 912 C 82.8146 -2.82963 -2.48212 0
M  V30 913 C 81.9616 -2.46972 -1.26096 0
M  V30 914 H 84.9126 -1.56329 -0.273289 0
M  V30 915 H 84.9336 -2.57892 -2.79771 0
M  V30 916 H 84.4456 -3.64959 -1.32009 0
M  V30 917 H 82.5466 -1.99411 -3.14748 0
M  V30 918 H 82.6596 -3.85406 -2.84603 0
M  V30 919 H 81.0236 -1.98994 -1.58976 0
M  V30 920 H 81.8066 -3.37118 -0.648581 0
M  V30 921 N 84.2517 0.741722 -1.39055 0
M  V30 922 C 85.2017 1.84661 -1.33732 0
M  V30 923 C 86.1857 1.59397 -0.219401 0
M  V30 924 O 87.3777 1.71015 -0.456375 0
M  V30 925 C 84.5067 3.22512 -1.17647 0
M  V30 926 C 83.5927 3.53628 -2.34112 0
M  V30 927 N 83.9837 3.55723 -3.59576 0
M  V30 928 C 82.2817 3.83956 -2.26923 0
M  V30 929 C 82.9827 3.84443 -4.36553 0
M  V30 930 N 81.9587 4.01877 -3.66055 0
M  V30 931 H 85.7607 1.84576 -2.28711 0
M  V30 932 H 83.2747 0.939647 -1.32455 0
M  V30 933 H 85.2717 4.01597 -1.11917 0
M  V30 934 H 83.9317 3.2384 -0.236124 0
M  V30 935 H 84.9427 3.37196 -3.93089 0
M  V30 936 H 81.6197 3.92929 -1.41113 0
M  V30 937 H 83.0097 3.92588 -5.45274 0
M  V30 938 N 85.7298 1.2412 0.971189 0
M  V30 939 C 87.1408 1.07236 1.52831 0
M  V30 940 C 87.4918 -0.357352 1.92918 0
M  V30 941 O 86.6168 -1.24528 1.76979 0
M  V30 942 C 87.2118 1.94043 2.77728 0
M  V30 943 C 85.7708 1.81394 3.29808 0
M  V30 944 C 84.9178 1.89189 2.02738 0
M  V30 945 H 87.8688 1.37648 0.789864 0
M  V30 946 H 87.8898 1.47066 3.5093 0
M  V30 947 H 87.4018 2.98093 2.4852 0
M  V30 948 H 85.5028 0.801634 3.63874 0
M  V30 949 H 85.6158 2.65294 3.98944 0
M  V30 950 H 83.9798 1.32877 2.17292 0
M  V30 951 H 84.7628 2.94812 1.759 0
M  V30 952 N 87.2079 -1.17134 1.05439 0
M  V30 953 C 88.4539 -1.87979 0.776872 0
M  V30 954 C 88.8089 -1.7965 -0.688751 0
M  V30 955 O 88.1019 -1.19535 -1.4974 0
M  V30 956 C 88.2959 -3.36833 1.19491 0
M  V30 957 C 88.1249 -3.59653 2.69963 0
M  V30 958 C 86.8949 -3.76234 3.37307 0
M  V30 959 C 89.0929 -3.59091 3.68182 0
M  V30 960 N 87.0749 -3.86922 4.76618 0
M  V30 961 C 88.4459 -3.75659 4.93235 0
M  V30 962 C 90.5009 -3.42255 3.61616 0
M  V30 963 C 89.2039 -3.77133 6.12506 0
M  V30 964 C 91.2299 -3.45018 4.8033 0
M  V30 965 C 90.5919 -3.62096 6.04207 0
M  V30 966 H 86.6909 -0.705876 0.336546 0
M  V30 967 H 89.2749 -1.40602 1.34682 0
M  V30 968 H 87.4459 -3.82873 0.652884 0
M  V30 969 H 89.1779 -3.95305 0.866966 0
M  V30 970 H 85.9329 -3.76193 2.87708 0
M  V30 971 H 86.3569 -3.96055 5.49062 0
M  V30 972 H 90.9989 -3.27986 2.66805 0
M  V30 973 H 88.7169 -3.90186 7.07659 0
M  V30 974 H 92.3029 -3.33246 4.76905 0
M  V30 975 H 91.1829 -3.64142 6.94529 0
M  V30 976 N 88.686 -0.835752 -1.33615 0
M  V30 977 C 89.933 -0.429959 -1.97883 0
M  V30 978 C 90.261 1.01006 -1.66217 0
M  V30 979 O 89.516 1.72047 -0.93265 0
M  V30 980 C 89.815 -0.593925 -3.52431 0
M  V30 981 C 89.481 -2.00158 -4.04039 0
M  V30 982 C 88.143 -2.38662 -4.17844 0
M  V30 983 C 90.495 -2.92117 -4.31644 0
M  V30 984 C 87.823 -3.68435 -4.56588 0
M  V30 985 C 90.175 -4.21368 -4.71838 0
M  V30 986 C 88.839 -4.59833 -4.83849 0
M  V30 987 H 88.109 -0.157333 -0.724104 0
M  V30 988 H 90.756 -1.06217 -1.59343 0
M  V30 989 H 89.061 0.121619 -3.91611 0
M  V30 990 H 90.758 -0.260282 -4.00154 0
M  V30 991 H 87.348 -1.69252 -3.93766 0
M  V30 992 H 91.532 -2.63608 -4.20505 0
M  V30 993 H 86.788 -3.98046 -4.64079 0
M  V30 994 H 90.962 -4.92703 -4.92155 0
M  V30 995 H 88.589 -5.60438 -5.13627 0
M  V30 996 N 90.1641 1.46063 -0.591896 0
M  V30 997 C 91.4111 2.02338 -0.0809991 0
M  V30 998 C 91.7391 1.46228 1.28249 0
M  V30 999 O 90.9941 0.620818 1.85592 0
M  V30 1000 C 91.2931 3.57391 0.0249813 0
M  V30 1001 C 90.9591 4.32583 -1.27211 0
M  V30 1002 C 89.6211 4.52844 -1.62745 0
M  V30 1003 C 91.9731 4.75687 -2.13005 0
M  V30 1004 C 89.3011 5.13462 -2.83855 0
M  V30 1005 C 91.6531 5.37644 -3.3335 0
M  V30 1006 C 90.3171 5.5613 -3.69155 0
M  V30 1007 H 89.5871 0.740407 -0.0296397 0
M  V30 1008 H 92.2341 1.75321 -0.770374 0
M  V30 1009 H 90.5391 3.83597 0.797537 0
M  V30 1010 H 92.2361 3.98621 0.436184 0
M  V30 1011 H 88.8261 4.17116 -0.985499 0
M  V30 1012 H 93.0101 4.59782 -1.86855 0
M  V30 1013 H 88.2661 5.25965 -3.11722 0
M  V30 1014 H 92.4401 5.7 -4.00092 0
M  V30 1015 H 90.0671 6.0287 -4.63089 0
M  V30 1016 N 91.6422 0.330177 1.54103 0
M  V30 1017 C 92.8902 -0.269871 2.0029 0
M  V30 1018 C 93.2112 -1.52133 1.21986 0
M  V30 1019 O 92.4812 -1.93212 0.323438 0
M  V30 1020 H 91.0612 -0.10271 0.739905 0
M  V30 1021 H 93.7232 0.448249 1.89675 0
M  V30 1022 H 92.8192 -0.52166 3.07709 0
M  V30 1023 N 93.1203 -1.57491 0.0584922 0
M  V30 1024 C 94.0673 -2.11958 -0.913376 0
M  V30 1025 C 95.0373 -1.02875 -1.30407 0
M  V30 1026 O 96.2223 -1.30464 -1.39226 0
M  V30 1027 C 93.3623 -2.67497 -2.18035 0
M  V30 1028 C 92.4753 -3.90691 -1.84349 0
M  V30 1029 C 91.6103 -4.3452 -3.05559 0
M  V30 1030 C 90.6493 -5.50395 -2.67827 0
M  V30 1031 N 89.7863 -5.89244 -3.81754 0
M  V30 1032 H 94.6263 -2.94704 -0.442017 0
M  V30 1033 H 92.1633 -1.45643 -0.206545 0
M  V30 1034 H 94.1213 -2.978 -2.92183 0
M  V30 1035 H 92.7513 -1.87537 -2.62735 0
M  V30 1036 H 91.8033 -3.66934 -1.00319 0
M  V30 1037 H 93.1153 -4.7489 -1.5258 0
M  V30 1038 H 92.2693 -4.66414 -3.87998 0
M  V30 1039 H 91.0083 -3.49147 -3.40511 0
M  V30 1040 H 90.0133 -5.18165 -1.83806 0
M  V30 1041 H 91.2383 -6.3749 -2.34059 0
M  V30 1042 H 89.1843 -5.06823 -4.16493 0
M  V30 1043 H 89.1013 -6.68151 -3.53708 0
M  V30 1044 H 90.3693 -6.25756 -4.64811 0
M  V30 1045 N 94.5984 0.214957 -1.56127 0
M  V30 1046 C 95.8474 0.936451 -1.78643 0
M  V30 1047 C 96.1604 1.85237 -0.628229 0
M  V30 1048 O 97.3664 2.613 -0.737186 0
M  V30 1049 C 95.8224 1.7154 -3.16389 0
M  V30 1050 C 95.4304 0.845299 -4.39953 0
M  V30 1051 C 97.1744 2.42772 -3.48227 0
M  V30 1052 C 95.0814 1.62198 -5.68723 0
M  V30 1053 H 94.0114 0.353401 -0.666051 0
M  V30 1054 H 96.6624 0.190169 -1.82512 0
M  V30 1055 H 95.0444 2.50484 -3.06715 0
M  V30 1056 H 96.2184 0.0959353 -4.607 0
M  V30 1057 H 94.5334 0.244789 -4.1568 0
M  V30 1058 H 97.1304 3.01394 -4.41663 0
M  V30 1059 H 97.4734 3.15984 -2.71035 0
M  V30 1060 H 98.0064 1.70813 -3.5926 0
M  V30 1061 H 94.7454 0.933011 -6.48826 0
M  V30 1062 H 94.2654 2.34579 -5.52026 0
M  V30 1063 H 95.9444 2.18095 -6.09133 0
M  V30 1064 N 96.0765 1.50051 0.48192 0
M  V30 1065 C 97.4875 1.5348 1.06305 0
M  V30 1066 C 97.8385 0.331997 1.93371 0
M  V30 1067 O 96.9635 -0.556256 2.09129 0
M  V30 1068 C 97.5585 2.7813 1.93466 0
M  V30 1069 C 96.1175 2.84275 2.46707 0
M  V30 1070 C 95.2645 2.47637 1.24785 0
M  V30 1071 H 98.2155 1.56472 0.264995 0
M  V30 1072 H 98.2365 2.59372 2.78399 0
M  V30 1073 H 97.7485 3.65654 1.30072 0
M  V30 1074 H 95.8495 2.01077 3.13686 0
M  V30 1075 H 95.9625 3.8691 2.82555 0
M  V30 1076 H 94.3265 1.99835 1.57918 0
M  V30 1077 H 95.1095 3.37457 0.630694 0
M  V30 1078 N 97.5546 -0.734337 1.39446 0
M  V30 1079 C 98.9706 -1.03997 1.21065 0
M  V30 1080 C 99.1706 -2.01369 0.0727019 0
M  V30 1081 O 98.2266 -2.45856 -0.575426 0
M  V30 1082 C 99.5396 -1.60163 2.54496 0
M  V30 1083 C 101.088 -1.7224 2.61347 0
M  V30 1084 C 101.563 -2.31814 3.95002 0
M  V30 1085 N 103.054 -2.39223 3.96644 0
M  V30 1086 C 103.789 -2.86258 4.96834 0
M  V30 1087 N 103.285 -3.33184 6.07421 0
M  V30 1088 N 105.078 -2.85473 4.84213 0
M  V30 1089 H 97.2286 -0.0885624 2.12215 0
M  V30 1090 H 99.4916 -0.10191 0.942506 0
M  V30 1091 H 99.1976 -0.960811 3.38321 0
M  V30 1092 H 99.0716 -2.5896 2.74262 0
M  V30 1093 H 101.459 -2.35443 1.77906 0
M  V30 1094 H 101.54 -0.720939 2.4543 0
M  V30 1095 H 101.184 -1.69238 4.78875 0
M  V30 1096 H 101.114 -3.32638 4.08239 0
M  V30 1097 H 103.605 -2.06057 3.16779 0
M  V30 1098 H 103.918 -3.67586 6.7978 0
M  V30 1099 H 102.263 -3.31191 6.11013 0
M  V30 1100 H 105.454 -2.48136 3.96921 0
M  V30 1101 H 105.627 -3.21814 5.62441 0
M  V30 1102 N 99.0327 -1.24633 -0.964593 0
M  V30 1103 C 99.9957 -1.0424 -2.04124 0
M  V30 1104 C 100.996 0.00137563 -1.608 0
M  V30 1105 O 102.186 -0.239883 -1.7254 0
M  V30 1106 C 99.3177 -0.580588 -3.3592 0
M  V30 1107 H 100.511 -1.99803 -2.23649 0
M  V30 1108 H 98.0637 -1.06899 -1.14027 0
M  V30 1109 H 98.7987 0.3781 -3.22088 0
M  V30 1110 H 98.5837 -1.33398 -3.6871 0
M  V30 1111 H 100.074 -0.459034 -4.15069 0
M  V30 1112 N 100.511 1.16574 -1.06058 0
M  V30 1113 C 101.458 2.20883 -0.669263 0
M  V30 1114 C 102.428 1.62729 0.332918 0
M  V30 1115 O 103.613 1.895 0.222346 0
M  V30 1116 C 100.753 3.45049 -0.0593572 0
M  V30 1117 C 99.8658 4.17458 -1.11143 0
M  V30 1118 C 99.0008 5.29135 -0.467916 0
M  V30 1119 C 98.0398 5.93343 -1.50369 0
M  V30 1120 N 97.1768 6.96516 -0.883706 0
M  V30 1121 H 102.017 2.53709 -1.5632 0
M  V30 1122 H 99.5538 1.24616 -0.781625 0
M  V30 1123 H 101.512 4.16033 0.311771 0
M  V30 1124 H 100.142 3.12781 0.797992 0
M  V30 1125 H 99.1938 3.45101 -1.60029 0
M  V30 1126 H 100.506 4.61307 -1.89731 0
M  V30 1127 H 99.6598 6.06684 -0.0436871 0
M  V30 1128 H 98.3988 4.86443 0.349864 0
M  V30 1129 H 97.4038 5.14517 -1.93784 0
M  V30 1130 H 98.6288 6.38114 -2.32352 0
M  V30 1131 H 96.5748 6.55943 -0.086595 0
M  V30 1132 H 96.4918 7.38723 -1.607 0
M  V30 1133 H 97.7598 7.77993 -0.484543 0
M  V30 1134 N 101.989 0.842826 1.3317 0
M  V30 1135 C 102.952 0.284065 2.27433 0
M  V30 1136 C 103.952 -0.54948 1.5112 0
M  V30 1137 O 105.142 -0.362699 1.70382 0
M  V30 1138 C 102.274 -0.599384 3.35589 0
M  V30 1139 H 103.467 1.11589 2.78366 0
M  V30 1140 H 101.02 0.616221 1.4364 0
M  V30 1141 H 101.755 -1.45349 2.89904 0
M  V30 1142 H 101.54 -0.00291266 3.921 0
M  V30 1143 H 103.03 -0.983488 4.05854 0
M  V30 1144 N 103.467 -1.45747 0.599634 0
M  V30 1145 C 104.377 -2.34262 -0.125888 0
M  V30 1146 C 105.393 -1.50768 -0.868625 0
M  V30 1147 O 106.569 -1.83592 -0.828003 0
M  V30 1148 C 103.634 -3.28252 -1.11587 0
M  V30 1149 C 102.695 -4.27651 -0.375956 0
M  V30 1150 C 101.928 -5.1715 -1.31877 0
M  V30 1151 O 102.151 -5.09916 -2.55621 0
M  V30 1152 O 101.085 -5.96286 -0.820157 0
M  V30 1153 H 104.911 -2.97688 0.601315 0
M  V30 1154 H 102.496 -1.44999 0.359934 0
M  V30 1155 H 104.378 -3.86191 -1.68626 0
M  V30 1156 H 103.053 -2.67401 -1.82424 0
M  V30 1157 H 101.96 -3.7335 0.236698 0
M  V30 1158 H 103.293 -4.91334 0.29177 0
M  V30 1159 N 104.945 -0.338344 -1.53925 0
M  V30 1160 C 105.855 0.529421 -2.28548 0
M  V30 1161 C 106.871 1.11645 -1.3346 0
M  V30 1162 O 108.047 1.13325 -1.66492 0
M  V30 1163 C 105.112 1.66713 -3.03987 0
M  V30 1164 C 104.173 1.11041 -4.14691 0
M  V30 1165 C 103.406 2.19389 -4.86522 0
M  V30 1166 O 103.629 3.40013 -4.57982 0
M  V30 1167 O 102.563 1.83976 -5.73094 0
M  V30 1168 H 106.389 -0.0770399 -3.03602 0
M  V30 1169 H 103.974 -0.103555 -1.49041 0
M  V30 1170 H 105.856 2.32918 -3.5118 0
M  V30 1171 H 104.531 2.25949 -2.31794 0
M  V30 1172 H 103.438 0.413024 -3.71813 0
M  V30 1173 H 104.771 0.562975 -4.8897 0
M  V30 1174 N 106.423 1.57458 -0.0668435 0
M  V30 1175 C 107.356 2.08033 0.93795 0
M  V30 1176 C 108.334 0.984321 1.29421 0
M  V30 1177 O 109.518 1.25736 1.40437 0
M  V30 1178 C 106.645 2.53388 2.24749 0
M  V30 1179 C 105.691 3.74376 2.04315 0
M  V30 1180 S 106.524 5.19303 1.30706 0
M  V30 1181 C 107.68 5.67986 2.62951 0
M  V30 1182 H 107.913 2.92935 0.50759 0
M  V30 1183 H 105.446 1.5371 0.145804 0
M  V30 1184 H 107.404 2.8018 3.00016 0
M  V30 1185 H 106.065 1.68763 2.64911 0
M  V30 1186 H 105.258 4.04083 3.01218 0
M  V30 1187 H 104.86 3.47931 1.37186 0
M  V30 1188 H 107.152 5.74528 3.5906 0
M  V30 1189 H 108.095 6.66955 2.3786 0
M  V30 1190 H 108.503 4.95781 2.69929 0
M  V30 1191 N 107.901 -0.206675 1.56239 0
M  V30 1192 C 108.831 -1.25909 1.96645 0
M  V30 1193 C 109.812 -1.48097 0.836734 0
M  V30 1194 O 110.997 -1.6003 1.10019 0
M  V30 1195 C 108.127 -2.6058 2.29599 0
M  V30 1196 C 107.081 -2.53024 3.452 0
M  V30 1197 C 106.407 -3.91861 3.63798 0
M  V30 1198 C 107.707 -2.06524 4.79734 0
M  V30 1199 H 109.401 -0.923369 2.84806 0
M  V30 1200 H 106.947 -0.442735 1.37025 0
M  V30 1201 H 108.9 -3.34375 2.56459 0
M  V30 1202 H 107.624 -2.95869 1.38307 0
M  V30 1203 H 106.283 -1.81684 3.18412 0
M  V30 1204 H 105.931 -4.24483 2.69857 0
M  V30 1205 H 105.631 -3.87683 4.4156 0
M  V30 1206 H 107.155 -4.67296 3.93022 0
M  V30 1207 H 108.569 -2.70072 5.05702 0
M  V30 1208 H 106.966 -2.13374 5.60885 0
M  V30 1209 H 108.036 -1.01802 4.74093 0
M  V30 1210 N 109.379 -1.50304 -0.473955 0
M  V30 1211 C 110.604 -1.65175 -1.25427 0
M  V30 1212 C 111.029 -0.333673 -1.85117 0
M  V30 1213 O 110.387 0.702114 -1.67153 0
M  V30 1214 C 110.435 -2.74295 -2.34082 0
M  V30 1215 O 109.539 -2.35349 -3.38651 0
M  V30 1216 H 108.88 -0.551944 -0.369126 0
M  V30 1217 H 111.41 -1.96662 -0.564364 0
M  V30 1218 H 111.42 -2.97285 -2.79438 0
M  V30 1219 H 110.095 -3.69959 -1.90008 0
M  V30 1220 H 108.672 -2.22794 -2.99027 0
M  V30 1221 N 110.857 0.726932 -1.39834 0
M  V30 1222 C 111.804 1.841 -1.39197 0
M  V30 1223 C 112.774 1.642 -0.250502 0
M  V30 1224 O 113.959 1.85494 -0.446846 0
M  V30 1225 C 111.099 3.21697 -1.24919 0
M  V30 1226 C 110.212 3.53247 -2.48678 0
M  V30 1227 C 109.347 4.80289 -2.26928 0
M  V30 1228 C 108.386 5.04707 -3.4632 0
M  V30 1229 N 107.523 6.22956 -3.23836 0
M  V30 1230 H 112.363 1.83979 -2.34427 0
M  V30 1231 H 109.9 0.898876 -1.16442 0
M  V30 1232 H 111.858 4.01137 -1.1465 0
M  V30 1233 H 110.488 3.21076 -0.333153 0
M  V30 1234 H 109.54 2.68447 -2.69519 0
M  V30 1235 H 110.852 3.67205 -3.37582 0
M  V30 1236 H 110.006 5.67725 -2.13947 0
M  V30 1237 H 108.745 4.68519 -1.35431 0
M  V30 1238 H 107.75 4.1573 -3.5979 0
M  V30 1239 H 108.975 5.18357 -4.38729 0
M  V30 1240 H 106.921 6.12459 -2.35011 0
M  V30 1241 H 106.838 6.37539 -4.063 0
M  V30 1242 H 108.106 7.1321 -3.14566 0
M  V30 1243 N 112.336 1.25143 0.95797 0
M  V30 1244 C 113.268 1.01023 2.05735 0
M  V30 1245 C 114.281 -0.0236902 1.62783 0
M  V30 1246 O 115.47 0.21448 1.77207 0
M  V30 1247 C 112.57 0.504595 3.35122 0
M  V30 1248 C 111.743 1.6039 4.06932 0
M  V30 1249 C 110.802 1.09922 5.14591 0
M  V30 1250 O 109.828 1.79293 5.40225 0
M  V30 1251 N 111.03 -0.0612545 5.80468 0
M  V30 1252 H 113.795 1.95683 2.26998 0
M  V30 1253 H 111.356 1.16303 1.12629 0
M  V30 1254 H 113.348 0.151516 4.04416 0
M  V30 1255 H 111.918 -0.347989 3.10657 0
M  V30 1256 H 111.138 2.12872 3.31782 0
M  V30 1257 H 112.426 2.34252 4.51667 0
M  V30 1258 H 111.824 -0.640985 5.62057 0
M  V30 1259 H 110.381 -0.355395 6.5083 0
M  V30 1260 N 113.814 -1.1601 1.06675 0
M  V30 1261 C 115.23 -1.38622 0.790948 0
M  V30 1262 C 115.43 -1.92109 -0.607965 0
M  V30 1263 O 114.486 -2.12239 -1.36787 0
M  V30 1264 C 115.799 -2.36347 1.85905 0
M  V30 1265 C 117.347 -2.50023 1.88301 0
M  V30 1266 C 117.822 -3.51033 2.94176 0
M  V30 1267 N 119.313 -3.58563 2.93235 0
M  V30 1268 C 120.048 -4.36521 3.71803 0
M  V30 1269 N 119.544 -5.17869 4.602 0
M  V30 1270 N 121.337 -4.31541 3.60178 0
M  V30 1271 H 113.488 -0.796294 1.96908 0
M  V30 1272 H 115.751 -0.412597 0.853503 0
M  V30 1273 H 115.457 -2.04147 2.86386 0
M  V30 1274 H 115.331 -3.36042 1.71334 0
M  V30 1275 H 117.718 -2.81524 0.884769 0
M  V30 1276 H 117.799 -1.5035 2.06951 0
M  V30 1277 H 117.443 -3.20268 3.94196 0
M  V30 1278 H 117.373 -4.50445 2.72776 0
M  V30 1279 H 119.864 -3.00496 2.29152 0
M  V30 1280 H 120.177 -5.74578 5.16797 0
M  V30 1281 H 118.522 -5.17199 4.64253 0
M  V30 1282 H 121.713 -3.67051 2.90502 0
M  V30 1283 H 121.886 -4.9205 4.21653 0
M  V30 1284 N 115.292 -0.849877 -1.32721 0
M  V30 1285 C 116.242 -0.262892 -2.26479 0
M  V30 1286 C 117.226 0.588493 -1.49752 0
M  V30 1287 O 118.418 0.438659 -1.71478 0
M  V30 1288 C 115.547 0.551818 -3.38836 0
M  V30 1289 C 114.633 -0.311689 -4.22953 0
M  V30 1290 N 115.024 -1.39567 -4.86163 0
M  V30 1291 C 113.322 -0.100611 -4.45887 0
M  V30 1292 C 114.023 -1.92651 -5.48872 0
M  V30 1293 N 112.999 -1.22637 -5.29586 0
M  V30 1294 H 116.801 -1.09166 -2.72873 0
M  V30 1295 H 114.315 -0.695486 -1.46754 0
M  V30 1296 H 116.312 0.988713 -4.05006 0
M  V30 1297 H 114.972 1.37844 -2.93988 0
M  V30 1298 H 115.983 -1.77859 -4.86402 0
M  V30 1299 H 112.66 0.691681 -4.11731 0
M  V30 1300 H 114.05 -2.83487 -6.09167 0
M  V30 1301 N 116.77 1.45427 -0.607355 0
M  V30 1302 C 118.047 1.9557 -0.0344566 0
M  V30 1303 C 118.427 1.54979 1.43334 0
M  V30 1304 O 117.775 0.812241 2.13576 0
M  V30 1305 C 117.985 3.48226 -0.232321 0
M  V30 1306 C 119.333 4.2445 -0.113001 0
M  V30 1307 O 120.357 3.55829 -0.162431 0
M  V30 1308 O 119.216 5.465 0.00209442 0
M  V30 1309 H 116.31 0.826222 0.0358667 0
M  V30 1310 H 118.856 1.55594 -0.6774 0
M  V30 1311 H 117.628 3.70739 -1.25174 0
M  V30 1312 H 117.251 3.95092 0.445896 0
M  V30 1313 N 118.248 0.346503 1.53744 0
M  V30 1314 C 119.496 -0.248612 2.00565 0
M  V30 1315 C 119.817 -1.5083 1.23593 0
M  V30 1316 O 119.087 -1.92858 0.343912 0
M  V30 1317 H 117.667 -0.0948564 0.740953 0
M  V30 1318 H 120.329 0.468341 1.89189 0
M  V30 1319 H 119.425 -0.488994 3.08245 0
M  V30 1320 N 119.726 -1.57421 0.075193 0
M  V30 1321 C 120.689 -2.11791 -0.876203 0
M  V30 1322 C 121.689 -1.04268 -1.22412 0
M  V30 1323 O 122.879 -1.30242 -1.15684 0
M  V30 1324 C 120.011 -2.62207 -2.17854 0
M  V30 1325 H 121.204 -2.9716 -0.40444 0
M  V30 1326 H 118.757 -1.55333 -0.173557 0
M  V30 1327 H 119.492 -1.803 -2.6956 0
M  V30 1328 H 119.277 -3.40802 -1.93897 0
M  V30 1329 H 120.767 -3.04335 -2.85955 0
M  V30 1330 N 121.204 0.198386 -1.56346 0
M  V30 1331 C 122.451 0.919286 -1.80431 0
M  V30 1332 C 122.779 1.83393 -0.647866 0
M  V30 1333 O 122.034 1.92236 0.366556 0
M  V30 1334 C 122.333 1.77031 -3.10475 0
M  V30 1335 C 121.999 1.00693 -4.39513 0
M  V30 1336 C 120.661 0.796145 -4.74568 0
M  V30 1337 C 123.013 0.469559 -5.19081 0
M  V30 1338 C 120.341 0.0364588 -5.86689 0
M  V30 1339 C 122.693 -0.2769 -6.31994 0
M  V30 1340 C 121.357 -0.49873 -6.65634 0
M  V30 1341 H 120.627 0.336391 -0.660244 0
M  V30 1342 H 123.274 0.185872 -1.90596 0
M  V30 1343 H 121.579 2.5723 -2.95533 0
M  V30 1344 H 123.276 2.33065 -3.26315 0
M  V30 1345 H 119.866 1.18122 -4.12001 0
M  V30 1346 H 124.05 0.619816 -4.92414 0
M  V30 1347 H 119.306 -0.145412 -6.11227 0
M  V30 1348 H 123.48 -0.700684 -6.92866 0
M  V30 1349 H 121.107 -1.0893 -7.52355 0
M  V30 1350 N 122.682 1.50554 0.465978 0
M  V30 1351 C 123.612 1.72722 1.57128 0
M  V30 1352 C 124.593 0.576294 1.6004 0
M  V30 1353 O 125.778 0.81598 1.76225 0
M  V30 1354 C 122.908 1.82605 2.95419 0
M  V30 1355 C 121.862 2.97835 3.07373 0
M  V30 1356 C 121.188 2.92867 4.47363 0
M  V30 1357 C 122.488 4.38265 2.84114 0
M  V30 1358 H 124.182 2.65267 1.38829 0
M  V30 1359 H 121.728 1.2765 0.666441 0
M  V30 1360 H 123.681 1.96698 3.72677 0
M  V30 1361 H 122.405 0.866858 3.14886 0
M  V30 1362 H 121.064 2.83401 2.3255 0
M  V30 1363 H 120.712 1.94783 4.63755 0
M  V30 1364 H 120.412 3.70227 4.56296 0
M  V30 1365 H 121.936 3.09015 5.26633 0
M  V30 1366 H 123.35 4.53198 3.51118 0
M  V30 1367 H 121.747 5.17115 3.04487 0
M  V30 1368 H 122.817 4.50281 1.7993 0
M  V30 1369 N 124.16 -0.719506 1.40217 0
M  V30 1370 C 125.409 -1.47486 1.37589 0
M  V30 1371 C 125.722 -1.9559 -0.0201568 0
M  V30 1372 O 126.928 -2.70973 -0.169049 0
M  V30 1373 C 125.384 -2.66575 2.41796 0
M  V30 1374 C 124.992 -2.25358 3.87192 0
M  V30 1375 C 126.736 -3.4433 2.48269 0
M  V30 1376 C 124.643 -3.41262 4.83005 0
M  V30 1377 H 123.573 -0.553901 0.511576 0
M  V30 1378 H 126.224 -0.783427 1.65936 0
M  V30 1379 H 124.606 -3.3787 2.06543 0
M  V30 1380 H 125.78 -1.61509 4.31569 0
M  V30 1381 H 124.095 -1.60657 3.84159 0
M  V30 1382 H 126.692 -4.30569 3.17041 0
M  V30 1383 H 127.035 -3.87872 1.51198 0
M  V30 1384 H 127.568 -2.80076 2.82493 0
M  V30 1385 H 124.307 -3.02755 5.81394 0
M  V30 1386 H 123.827 -4.0404 4.43297 0
M  V30 1387 H 125.506 -4.07383 5.02641 0
M  V30 1388 N 125.638 -1.25649 -0.95132 0
M  V30 1389 C 127.054 -1.02542 -1.223 0
M  V30 1390 C 127.254 0.255715 -1.99871 0
M  V30 1391 O 126.31 0.967558 -2.33226 0
M  V30 1392 C 127.623 -2.25065 -1.99415 0
M  V30 1393 C 129.171 -2.29861 -2.12446 0
M  V30 1394 C 129.646 -3.52048 -2.92961 0
M  V30 1395 N 131.137 -3.52465 -3.00538 0
M  V30 1396 C 131.872 -4.43672 -3.63239 0
M  V30 1397 N 131.368 -5.45157 -4.27523 0
M  V30 1398 N 133.161 -4.31346 -3.60412 0
M  V30 1399 H 125.312 -2.07951 -0.432471 0
M  V30 1400 H 127.575 -0.91339 -0.253816 0
M  V30 1401 H 127.281 -3.18194 -1.49817 0
M  V30 1402 H 127.155 -2.28502 -3.00111 0
M  V30 1403 H 129.542 -1.37252 -2.61239 0
M  V30 1404 H 129.623 -2.3044 -1.11044 0
M  V30 1405 H 129.267 -4.44981 -2.44856 0
M  V30 1406 H 129.197 -3.48715 -3.94596 0
M  V30 1407 H 131.688 -2.79056 -2.54826 0
M  V30 1408 H 132.001 -6.10958 -4.73234 0
M  V30 1409 H 130.346 -5.49025 -4.26141 0
M  V30 1410 H 133.537 -3.51288 -3.09377 0
M  V30 1411 H 133.71 -5.02624 -4.0899 0
M  V30 1412 N 127.117 1.15442 -1.07289 0
M  V30 1413 C 128.027 2.23786 -0.704057 0
M  V30 1414 C 129.043 1.7166 0.284413 0
M  V30 1415 O 130.219 2.00972 0.131205 0
M  V30 1416 C 127.284 3.46535 -0.106792 0
M  V30 1417 C 126.345 4.13654 -1.14842 0
M  V30 1418 C 125.578 5.30544 -0.57956 0
M  V30 1419 O 125.801 5.67187 0.604585 0
M  V30 1420 O 124.735 5.87154 -1.32414 0
M  V30 1421 H 128.561 2.57664 -1.60757 0
M  V30 1422 H 126.146 1.23152 -0.845803 0
M  V30 1423 H 128.028 4.20804 0.224048 0
M  V30 1424 H 126.703 3.14407 0.770049 0
M  V30 1425 H 125.61 3.4131 -1.5316 0
M  V30 1426 H 126.943 4.49861 -1.99714 0
M  V30 1427 N 128.595 0.856903 1.32268 0
M  V30 1428 C 129.82 0.474569 2.01897 0
M  V30 1429 C 130.245 -0.921766 1.63967 0
M  V30 1430 O 129.603 -1.60589 0.84148 0
M  V30 1431 C 129.651 0.623799 3.55164 0
M  V30 1432 O 128.755 -0.342459 4.10976 0
M  V30 1433 H 128.096 0.190422 0.63611 0
M  V30 1434 H 130.626 1.15672 1.68764 0
M  V30 1435 H 130.636 0.512169 4.04773 0
M  V30 1436 H 129.311 1.64202 3.82113 0
M  V30 1437 H 127.888 -0.18688 3.72431 0
M  V30 1438 N 130.073 -1.45103 0.615059 0
M  V30 1439 C 130.983 -2.34382 -0.101034 0
M  V30 1440 C 131.999 -1.51681 -0.852585 0
M  V30 1441 O 133.175 -1.8446 -0.808484 0
M  V30 1442 C 130.24 -3.29417 -1.08099 0
M  V30 1443 C 129.301 -4.28025 -0.330577 0
M  V30 1444 C 128.534 -5.1852 -1.26385 0
M  V30 1445 O 128.757 -5.12598 -2.50198 0
M  V30 1446 O 127.691 -5.97122 -0.756866 0
M  V30 1447 H 131.517 -2.97033 0.632855 0
M  V30 1448 H 129.102 -1.4461 0.375293 0
M  V30 1449 H 130.984 -3.87958 -1.6452 0
M  V30 1450 H 129.659 -2.69321 -1.79577 0
M  V30 1451 H 128.566 -3.73078 0.276283 0
M  V30 1452 H 129.899 -4.90997 0.343866 0
M  V30 1453 N 131.551 -0.354651 -1.53558 0
M  V30 1454 C 132.776 0.242153 -2.05981 0
M  V30 1455 C 133.201 1.42553 -1.2272 0
M  V30 1456 O 132.559 1.79656 -0.243604 0
M  V30 1457 C 132.607 0.624367 -3.55154 0
M  V30 1458 O 131.711 1.72301 -3.74681 0
M  V30 1459 H 131.052 0.0378432 -0.662921 0
M  V30 1460 H 133.582 -0.512087 -1.98088 0
M  V30 1461 H 133.592 0.898433 -3.97985 0
M  V30 1462 H 132.267 -0.240989 -4.15201 0
M  V30 1463 H 130.844 1.44535 -3.4375 0
M  V30 1464 N 133.029 1.57378 -0.0835403 0
M  V30 1465 C 133.992 2.12252 0.864959 0
M  V30 1466 C 134.992 1.04916 1.21858 0
M  V30 1467 O 136.182 1.30853 1.14991 0
M  V30 1468 C 133.314 2.63358 2.16461 0
M  V30 1469 H 134.507 2.97371 0.388676 0
M  V30 1470 H 132.06 1.55423 0.165317 0
M  V30 1471 H 132.795 1.81727 2.686 0
M  V30 1472 H 132.58 3.41826 1.92087 0
M  V30 1473 H 134.07 3.05847 2.84337 0
M  V30 1474 N 134.507 -0.190092 1.56449 0
M  V30 1475 C 135.918 -0.754312 1.70784 0
M  V30 1476 C 136.269 -1.83631 0.690951 0
M  V30 1477 O 135.394 -2.15868 -0.151604 0
M  V30 1478 C 135.989 -1.37503 3.09642 0
M  V30 1479 C 134.548 -1.88628 3.25725 0
M  V30 1480 C 133.695 -0.758098 2.66736 0
M  V30 1481 H 136.646 0.0350524 1.58661 0
M  V30 1482 H 136.667 -2.2445 3.0725 0
M  V30 1483 H 136.179 -0.587302 3.83631 0
M  V30 1484 H 134.28 -2.70103 2.56661 0
M  V30 1485 H 134.393 -2.04462 4.3328 0
M  V30 1486 H 132.757 -1.17369 2.26046 0
M  V30 1487 H 133.54 0.0174705 3.43296 0
M  V30 1488 N 135.985 -1.50799 -0.457987 0
M  V30 1489 C 137.233 -1.62121 -1.2067 0
M  V30 1490 C 137.554 -0.329793 -1.92191 0
M  V30 1491 O 136.824 0.653409 -1.84682 0
M  V30 1492 H 135.404 -0.597441 -0.448411 0
M  V30 1493 H 138.066 -1.87637 -0.527096 0
M  V30 1494 H 137.162 -2.43882 -1.94751 0
M  V30 1495 N 137.463 0.71206 -1.40597 0
M  V30 1496 C 138.74 1.46536 -1.29563 0
M  V30 1497 C 139.12 2.10931 0.0844217 0
M  V30 1498 O 138.468 2.00418 1.0975 0
M  V30 1499 C 138.678 2.49821 -2.43701 0
M  V30 1500 C 140.026 3.15551 -2.841 0
M  V30 1501 O 141.05 2.60142 -2.4332 0
M  V30 1502 O 139.909 4.15867 -3.54566 0
M  V30 1503 H 137.003 0.651801 -0.509004 0
M  V30 1504 H 139.549 0.743935 -1.52524 0
M  V30 1505 H 138.321 2.00778 -3.35863 0
M  V30 1506 H 137.944 3.29495 -2.22528 0
M  V30 1507 N 138.941 1.26152 0.944643 0
M  V30 1508 C 140.188 1.11492 1.69044 0
M  V30 1509 C 140.516 -0.342366 1.91463 0
M  V30 1510 O 139.771 -1.26812 1.49054 0
M  V30 1511 C 140.07 1.82541 3.07268 0
M  V30 1512 C 139.736 3.32445 3.04616 0
M  V30 1513 C 138.398 3.73337 3.036 0
M  V30 1514 C 140.75 4.28171 2.97185 0
M  V30 1515 C 138.078 5.08348 2.92915 0
M  V30 1516 C 140.43 5.63218 2.88041 0
M  V30 1517 C 139.094 6.03426 2.85366 0
M  V30 1518 H 138.364 0.407977 0.618576 0
M  V30 1519 H 141.011 1.56551 1.10291 0
M  V30 1520 H 139.316 1.29941 3.69625 0
M  V30 1521 H 141.013 1.68642 3.63815 0
M  V30 1522 H 137.603 2.99915 3.06185 0
M  V30 1523 H 141.787 3.97563 2.97081 0
M  V30 1524 H 137.043 5.38667 2.89219 0
M  V30 1525 H 141.217 6.37078 2.81254 0
M  V30 1526 H 138.844 7.07999 2.76842 0
M  V30 1527 N 140.419 -1.14872 1.07899 0
M  V30 1528 C 141.644 -1.90202 0.826926 0
M  V30 1529 C 142.069 -1.77774 -0.614664 0
M  V30 1530 O 141.427 -1.11431 -1.43013 0
M  V30 1531 C 141.475 -3.38352 1.24702 0
M  V30 1532 O 140.579 -4.10497 0.39575 0
M  V30 1533 H 139.92 -0.591968 0.300782 0
M  V30 1534 H 142.45 -1.45437 1.43907 0
M  V30 1535 H 142.46 -3.89156 1.22563 0
M  V30 1536 H 141.135 -3.46715 2.29698 0
M  V30 1537 H 139.712 -3.69796 0.480117 0
M  V30 1538 N 141.898 -0.863906 -1.31812 0
M  V30 1539 C 142.828 -0.330843 -2.31144 0
M  V30 1540 C 143.809 0.575005 -1.60087 0
M  V30 1541 O 144.994 0.493304 -1.8783 0
M  V30 1542 C 142.124 0.47374 -3.44054 0
M  V30 1543 C 141.078 -0.338481 -4.26659 0
M  V30 1544 C 140.404 0.591412 -5.31419 0
M  V30 1545 C 141.704 -1.56926 -4.98168 0
M  V30 1546 H 143.398 -1.16086 -2.75979 0
M  V30 1547 H 140.944 -0.559657 -1.32679 0
M  V30 1548 H 142.897 0.857143 -4.12591 0
M  V30 1549 H 141.621 1.33721 -2.9797 0
M  V30 1550 H 140.28 -0.703754 -3.59782 0
M  V30 1551 H 139.928 1.45199 -4.81587 0
M  V30 1552 H 139.628 0.0519022 -5.87577 0
M  V30 1553 H 141.152 0.97179 -6.02817 0
M  V30 1554 H 142.566 -1.25764 -5.59336 0
M  V30 1555 H 140.963 -2.04739 -5.64094 0
M  V30 1556 H 142.033 -2.32544 -4.25501 0
M  V30 1557 N 143.376 1.44774 -0.622745 0
M  V30 1558 C 144.601 2.06999 -0.128968 0
M  V30 1559 C 145.026 1.4617 1.1839 0
M  V30 1560 O 144.384 0.560007 1.72434 0
M  V30 1561 C 144.432 3.60595 -0.0188351 0
M  V30 1562 O 143.536 3.99398 1.02739 0
M  V30 1563 H 142.877 0.659047 -0.0809544 0
M  V30 1564 H 145.407 1.85784 -0.85705 0
M  V30 1565 H 145.417 4.07627 0.174476 0
M  V30 1566 H 144.092 4.04252 -0.977384 0
M  V30 1567 H 142.669 3.64011 0.809326 0
M  V30 1568 N 144.854 0.36279 1.53368 0
M  V30 1569 C 146.1 -0.228113 2.01513 0
M  V30 1570 C 146.433 -1.48648 1.2497 0
M  V30 1571 O 145.708 -1.91459 0.342616 0
M  V30 1572 C 145.991 -0.522884 3.56284 0
M  V30 1573 C 145.844 0.74892 4.43521 0
M  V30 1574 C 147.163 -1.32461 4.19693 0
M  V30 1575 H 144.282 -0.0814343 0.732487 0
M  V30 1576 H 146.924 0.48713 1.83649 0
M  V30 1577 H 145.074 -1.1322 3.71636 0
M  V30 1578 H 146.746 1.38648 4.39971 0
M  V30 1579 H 144.989 1.36986 4.11603 0
M  V30 1580 H 145.66 0.497667 5.49752 0
M  V30 1581 H 148.136 -0.809203 4.08156 0
M  V30 1582 H 147.012 -1.49961 5.28018 0
M  V30 1583 H 147.273 -2.33232 3.75573 0
M  V30 1584 N 146.332 -1.57332 0.0918853 0
M  V30 1585 C 147.279 -2.13847 -0.868211 0
M  V30 1586 C 148.249 -1.05618 -1.28196 0
M  V30 1587 O 149.434 -1.33387 -1.36427 0
M  V30 1588 C 146.574 -2.72062 -2.12312 0
M  V30 1589 C 145.687 -3.94514 -1.7602 0
M  V30 1590 C 144.822 -4.40903 -2.96273 0
M  V30 1591 C 143.861 -5.55953 -2.56092 0
M  V30 1592 N 142.998 -5.97209 -3.69169 0
M  V30 1593 H 147.838 -2.95575 -0.379406 0
M  V30 1594 H 145.375 -1.46048 -0.175606 0
M  V30 1595 H 147.333 -3.03931 -2.858 0
M  V30 1596 H 145.963 -1.93068 -2.58698 0
M  V30 1597 H 145.015 -3.68979 -0.925135 0
M  V30 1598 H 146.327 -4.7802 -1.42472 0
M  V30 1599 H 145.481 -4.74539 -3.78018 0
M  V30 1600 H 144.22 -3.56291 -3.33029 0
M  V30 1601 H 143.225 -5.21948 -1.72773 0
M  V30 1602 H 144.45 -6.42311 -2.20484 0
M  V30 1603 H 142.396 -5.15543 -4.05649 0
M  V30 1604 H 142.313 -6.75504 -3.39456 0
M  V30 1605 H 143.581 -6.35475 -4.51434 0
M  V30 1606 N 147.81 0.181792 -1.56548 0
M  V30 1607 C 149.057 0.900097 -1.81396 0
M  V30 1608 C 149.385 1.82695 -0.667281 0
M  V30 1609 O 148.64 1.92614 0.346146 0
M  V30 1610 C 148.939 1.73728 -3.12335 0
M  V30 1611 C 148.605 0.960255 -4.40556 0
M  V30 1612 C 147.267 0.745766 -4.75386 0
M  V30 1613 C 149.619 0.414477 -5.19549 0
M  V30 1614 C 146.947 -0.0257694 -5.86694 0
M  V30 1615 C 149.299 -0.343916 -6.31664 0
M  V30 1616 C 147.963 -0.569301 -6.65068 0
M  V30 1617 H 147.233 0.329369 -0.663775 0
M  V30 1618 H 149.88 0.165647 -1.90782 0
M  V30 1619 H 148.185 2.54081 -2.98245 0
M  V30 1620 H 149.882 2.29591 -3.28769 0
M  V30 1621 H 146.472 1.13746 -4.13231 0
M  V30 1622 H 150.656 0.567554 -4.93044 0
M  V30 1623 H 145.912 -0.210233 -6.11038 0
M  V30 1624 H 150.086 -0.774133 -6.92084 0
M  V30 1625 H 147.713 -1.16903 -7.51158 0
M  V30 1626 N 149.288 1.51039 0.449983 0
M  V30 1627 C 150.536 1.62759 1.19808 0
M  V30 1628 C 150.857 0.339981 1.92013 0
M  V30 1629 O 150.127 -0.643606 1.85026 0
M  V30 1630 H 148.707 0.599811 0.445237 0
M  V30 1631 H 151.369 1.87914 0.517138 0
M  V30 1632 H 150.465 2.44911 1.93455 0
M  V30 1633 N 150.766 -0.704594 1.40972 0
M  V30 1634 C 151.714 -1.83994 1.42299 0
M  V30 1635 C 152.708 -1.66684 0.302111 0
M  V30 1636 O 153.914 -1.73655 0.473697 0
M  V30 1637 H 150.289 -0.606171 0.44504 0
M  V30 1638 H 152.26 -1.79992 2.38003 0
M  V30 1639 C 151.009 -3.21946 1.31323 0
M  V30 1640 H 150.332 -3.35878 2.16855 0
M  V30 1641 H 151.772 -4.01491 1.36311 0
M  V30 1642 C 150.231 -3.36891 0.0245977 0
M  V30 1643 O 150.761 -3.90687 -0.934153 0
M  V30 1644 N 148.967 -2.90559 -0.0485243 0
M  V30 1645 H 148.514 -2.46968 0.732419 0
M  V30 1646 H 148.472 -3.00937 -0.910171 0
M  V30 1647 N 152.244 -1.26651 -0.937939 0
M  V30 1648 C 153.521 -1.0313 -1.66204 0
M  V30 1649 C 153.901 0.437256 -2.06522 0
M  V30 1650 O 153.249 1.41831 -1.79154 0
M  V30 1651 C 153.459 -1.98314 -2.87181 0
M  V30 1652 C 154.807 -2.27107 -3.58758 0
M  V30 1653 O 155.831 -1.96205 -2.97291 0
M  V30 1654 O 154.69 -2.79736 -4.69479 0
M  V30 1655 H 151.784 -0.392384 -0.727986 0
M  V30 1656 H 154.33 -1.37874 -0.989382 0
M  V30 1657 H 153.102 -2.97399 -2.54302 0
M  V30 1658 H 152.725 -1.64068 -3.6217 0
M  V30 1659 N 153.722 1.14298 -1.08507 0
M  V30 1660 C 154.968 1.85633 -0.816581 0
M  V30 1661 C 155.301 1.82784 0.656021 0
M  V30 1662 O 154.576 1.25926 1.48233 0
M  V30 1663 C 154.859 3.34223 -1.34041 0
M  V30 1664 C 154.712 3.45639 -2.87843 0
M  V30 1665 C 156.031 4.29356 -0.9665 0
M  V30 1666 H 153.15 0.67402 -0.298104 0
M  V30 1667 H 155.792 1.34214 -1.34487 0
M  V30 1668 H 153.942 3.78144 -0.89104 0
M  V30 1669 H 155.614 3.10498 -3.41158 0
M  V30 1670 H 153.857 2.86817 -3.25451 0
M  V30 1671 H 154.528 4.50089 -3.19569 0
M  V30 1672 H 157.004 3.93457 -1.35391 0
M  V30 1673 H 155.88 5.3178 -1.3602 0
M  V30 1674 H 156.141 4.41919 0.126362 0
M  V30 1675 N 155.201 0.870884 1.31352 0
M  V30 1676 C 156.133 0.28455 2.27427 0
M  V30 1677 C 157.146 -0.552927 1.53123 0
M  V30 1678 O 158.335 -0.374771 1.74521 0
M  V30 1679 C 155.435 -0.615164 3.3327 0
M  V30 1680 C 154.608 0.190079 4.36987 0
M  V30 1681 C 153.667 -0.637917 5.22319 0
M  V30 1682 O 152.693 -0.065626 5.69162 0
M  V30 1683 N 153.895 -1.94973 5.46778 0
M  V30 1684 H 156.66 1.11017 2.7838 0
M  V30 1685 H 154.221 0.732458 1.44384 0
M  V30 1686 H 156.213 -1.1748 3.87273 0
M  V30 1687 H 154.783 -1.34146 2.82354 0
M  V30 1688 H 154.003 0.931165 3.83044 0
M  V30 1689 H 155.291 0.742579 5.03352 0
M  V30 1690 H 154.689 -2.4378 5.10478 0
M  V30 1691 H 153.246 -2.45713 6.03712 0
M  V30 1692 N 156.679 -1.44442 0.630414 0
M  V30 1693 C 157.629 -2.27794 -0.0968103 0
M  V30 1694 C 158.613 -1.38624 -0.816834 0
M  V30 1695 O 159.805 -1.62438 -0.70306 0
M  V30 1696 C 156.934 -3.25929 -1.07819 0
M  V30 1697 C 156.02 -4.22588 -0.357826 0
M  V30 1698 N 156.411 -5.0207 0.613169 0
M  V30 1699 C 154.709 -4.41914 -0.602365 0
M  V30 1700 C 155.41 -5.72351 1.03871 0
M  V30 1701 N 154.386 -5.42287 0.377642 0
M  V30 1702 H 158.188 -2.86653 0.648621 0
M  V30 1703 H 155.702 -1.55871 0.455862 0
M  V30 1704 H 157.699 -3.84399 -1.61378 0
M  V30 1705 H 156.359 -2.68631 -1.82393 0
M  V30 1706 H 157.37 -5.08331 0.990947 0
M  V30 1707 H 154.047 -3.95714 -1.33103 0
M  V30 1708 H 155.437 -6.4619 1.84086 0
M  V30 1709 N 158.157 -0.370918 -1.53173 0
M  V30 1710 C 159.404 0.217102 -2.01333 0
M  V30 1711 C 159.732 1.48338 -1.25802 0
M  V30 1712 O 158.987 1.92698 -0.34146 0
M  V30 1713 C 159.286 0.549696 -3.53147 0
M  V30 1714 C 158.952 -0.622872 -4.46577 0
M  V30 1715 C 157.614 -0.944595 -4.71838 0
M  V30 1716 C 159.966 -1.40819 -5.01816 0
M  V30 1717 C 157.294 -2.05351 -5.49589 0
M  V30 1718 C 159.646 -2.50757 -5.80778 0
M  V30 1719 C 158.31 -2.83458 -6.04324 0
M  V30 1720 H 157.58 0.0794431 -0.736729 0
M  V30 1721 H 160.227 -0.504481 -1.84736 0
M  V30 1722 H 158.532 1.35237 -3.6772 0
M  V30 1723 H 160.229 1.017 -3.87889 0
M  V30 1724 H 156.819 -0.36209 -4.27068 0
M  V30 1725 H 161.003 -1.17289 -4.82242 0
M  V30 1726 H 156.259 -2.3108 -5.6605 0
M  V30 1727 H 160.433 -3.12022 -6.22588 0
M  V30 1728 H 158.06 -3.69508 -6.64355 0
M  V30 1729 N 159.635 1.57281 -0.100228 0
M  V30 1730 C 160.582 2.14305 0.856858 0
M  V30 1731 C 161.552 1.06296 1.27634 0
M  V30 1732 O 162.737 1.34109 1.35718 0
M  V30 1733 C 159.877 2.73184 2.10866 0
M  V30 1734 C 158.99 3.95442 1.73925 0
M  V30 1735 C 158.125 4.42468 2.93931 0
M  V30 1736 C 157.164 5.57303 2.5314 0
M  V30 1737 N 156.301 5.99158 3.65997 0
M  V30 1738 H 161.141 2.95772 0.363726 0
M  V30 1739 H 158.678 1.46139 0.167858 0
M  V30 1740 H 160.636 3.05442 2.84185 0
M  V30 1741 H 159.266 1.94437 2.57671 0
M  V30 1742 H 158.318 3.69464 0.905554 0
M  V30 1743 H 159.63 4.78769 1.39935 0
M  V30 1744 H 158.784 4.76537 3.75496 0
M  V30 1745 H 157.523 3.58052 3.31134 0
M  V30 1746 H 156.528 5.22857 1.70003 0
M  V30 1747 H 157.753 6.43471 2.17075 0
M  V30 1748 H 155.699 5.17687 4.02909 0
M  V30 1749 H 155.616 6.77295 3.35869 0
M  V30 1750 H 156.884 6.3786 4.48057 0
M  V30 1751 N 161.113 -0.173488 1.56642 0
M  V30 1752 C 162.359 -0.891784 1.8214 0
M  V30 1753 C 162.692 -1.8199 0.677736 0
M  V30 1754 O 161.967 -1.91842 -0.320446 0
M  V30 1755 C 162.25 -1.68933 3.18015 0
M  V30 1756 C 162.103 -0.784487 4.42906 0
M  V30 1757 C 163.422 -2.65748 3.50808 0
M  V30 1758 H 160.541 -0.322761 0.662567 0
M  V30 1759 H 163.183 -0.158095 1.89341 0
M  V30 1760 H 161.333 -2.31482 3.12007 0
M  V30 1761 H 163.005 -0.172046 4.60979 0
M  V30 1762 H 161.248 -0.0924117 4.33702 0
M  V30 1763 H 161.919 -1.37799 5.34524 0
M  V30 1764 H 164.395 -2.13327 3.57255 0
M  V30 1765 H 163.271 -3.18619 4.4696 0
M  V30 1766 H 163.532 -3.45842 2.75401 0
M  V30 1767 N 162.591 -1.51276 -0.441967 0
M  V30 1768 C 163.521 -1.752 -1.54361 0
M  V30 1769 C 164.502 -0.601682 -1.59103 0
M  V30 1770 O 165.687 -0.843913 -1.74905 0
M  V30 1771 C 162.817 -1.87282 -2.92477 0
M  V30 1772 C 161.771 -3.02687 -3.02596 0
M  V30 1773 C 161.097 -2.99947 -4.42647 0
M  V30 1774 C 162.397 -4.4273 -2.77106 0
M  V30 1775 H 164.091 -2.67442 -1.34592 0
M  V30 1776 H 161.637 -1.28694 -0.646048 0
M  V30 1777 H 163.59 -2.02602 -3.695 0
M  V30 1778 H 162.314 -0.916844 -3.13467 0
M  V30 1779 H 160.973 -2.87065 -2.28012 0
M  V30 1780 H 160.621 -2.02136 -4.60597 0
M  V30 1781 H 160.321 -3.77439 -4.50348 0
M  V30 1782 H 161.845 -3.17354 -5.2165 0
M  V30 1783 H 163.259 -4.58727 -3.43864 0
M  V30 1784 H 161.656 -5.21893 -2.96222 0
M  V30 1785 H 162.726 -4.53087 -1.72744 0
M  V30 1786 N 164.069 0.697108 -1.41344 0
M  V30 1787 C 165.485 1.00751 -1.2378 0
M  V30 1788 C 165.685 2.01105 -0.126066 0
M  V30 1789 O 164.741 2.47295 0.51004 0
M  V30 1790 C 166.054 1.53359 -2.58653 0
M  V30 1791 C 167.602 1.6525 -2.65822 0
M  V30 1792 C 168.077 2.2126 -4.01009 0
M  V30 1793 N 169.568 2.28622 -4.02847 0
M  V30 1794 C 170.303 2.72984 -5.04249 0
M  V30 1795 N 169.799 3.16962 -6.16041 0
M  V30 1796 N 171.592 2.72534 -4.91611 0
M  V30 1797 H 163.743 0.0322662 -2.12375 0
M  V30 1798 H 166.006 0.0768853 -0.944877 0
M  V30 1799 H 165.712 0.870773 -3.4075 0
M  V30 1800 H 165.586 2.51597 -2.81032 0
M  V30 1801 H 167.973 2.30644 -1.84086 0
M  V30 1802 H 168.054 0.655614 -2.47256 0
M  V30 1803 H 167.698 1.56482 -4.83193 0
M  V30 1804 H 167.628 3.21698 -4.16915 0
M  V30 1805 H 170.119 1.97585 -3.22131 0
M  V30 1806 H 170.432 3.49434 -6.89287 0
M  V30 1807 H 168.777 3.14875 -6.1958 0
M  V30 1808 H 171.968 2.37525 -4.0336 0
M  V30 1809 H 172.141 3.06789 -5.70775 0
M  V30 1810 N 165.547 1.27147 0.931209 0
M  V30 1811 C 166.824 1.0401 1.65654 0
M  V30 1812 C 167.204 -0.426297 2.06751 0
M  V30 1813 O 166.552 -1.40879 1.79904 0
M  V30 1814 C 166.762 1.99834 2.86125 0
M  V30 1815 C 168.11 2.29007 3.57549 0
M  V30 1816 O 169.134 1.97779 2.96246 0
M  V30 1817 O 167.993 2.82222 4.67989 0
M  V30 1818 H 165.087 0.396239 0.725895 0
M  V30 1819 H 167.633 1.38397 0.982056 0
M  V30 1820 H 166.405 2.98744 2.52721 0
M  V30 1821 H 166.028 1.65987 3.61295 0
M  V30 1822 N 167.025 -1.13721 1.09112 0
M  V30 1823 C 168.273 -1.84559 0.823562 0
M  V30 1824 C 168.594 -1.83754 -0.652658 0
M  V30 1825 O 167.864 -1.29102 -1.47342 0
M  V30 1826 H 166.444 -0.683376 0.301673 0
M  V30 1827 H 169.106 -1.37771 1.37859 0
M  V30 1828 H 168.202 -2.8917 1.17419 0
M  V30 1829 N 168.503 -0.877838 -1.30888 0
M  V30 1830 C 169.466 -0.344265 -2.266 0
M  V30 1831 C 170.466 0.50922 -1.52524 0
M  V30 1832 O 171.656 0.317398 -1.71284 0
M  V30 1833 C 168.788 0.510198 -3.37061 0
M  V30 1834 H 169.981 -1.1893 -2.7531 0
M  V30 1835 H 167.534 -0.654088 -1.41956 0
M  V30 1836 H 168.269 1.37612 -2.93655 0
M  V30 1837 H 168.054 -0.101047 -3.9197 0
M  V30 1838 H 169.544 0.875537 -4.08319 0
M  V30 1839 N 169.982 1.44106 -0.638065 0
M  V30 1840 C 171.23 2.01579 -0.145043 0
M  V30 1841 C 171.551 1.50496 1.24 0
M  V30 1842 O 170.821 0.711374 1.82527 0
M  V30 1843 H 169.401 0.745282 -0.05063 0
M  V30 1844 H 172.063 1.76516 -0.826327 0
M  V30 1845 H 171.159 3.11877 -0.118039 0
M  V30 1846 N 171.46 0.379036 1.52974 0
M  V30 1847 C 172.407 -0.461048 2.26148 0
M  V30 1848 C 173.377 -1.06637 1.27349 0
M  V30 1849 O 174.562 -1.09633 1.56157 0
M  V30 1850 C 171.702 -1.58782 3.06402 0
M  V30 1851 C 170.815 -1.00636 4.20115 0
M  V30 1852 C 169.95 -2.10334 4.87784 0
M  V30 1853 C 168.989 -1.49724 5.93506 0
M  V30 1854 N 168.126 -2.5331 6.54812 0
M  V30 1855 H 172.966 0.169429 2.97518 0
M  V30 1856 H 170.503 0.0953806 1.4679 0
M  V30 1857 H 172.461 -2.25174 3.51215 0
M  V30 1858 H 171.091 -2.18876 2.37261 0
M  V30 1859 H 170.143 -0.232332 3.7969 0
M  V30 1860 H 171.455 -0.523343 4.96047 0
M  V30 1861 H 170.609 -2.84519 5.35849 0
M  V30 1862 H 169.348 -2.61992 4.11353 0
M  V30 1863 H 168.353 -0.740598 5.44789 0
M  V30 1864 H 169.578 -0.988732 6.71864 0
M  V30 1865 H 167.524 -3.04156 5.81227 0
M  V30 1866 H 167.441 -2.09734 7.26325 0
M  V30 1867 H 168.709 -3.27155 7.07524 0
M  V30 1868 N 172.938 -1.57226 0.108567 0
M  V30 1869 C 174.168 -1.9889 -0.559142 0
M  V30 1870 C 174.576 -0.986889 -1.61422 0
M  V30 1871 O 173.919 0.0298705 -1.83676 0
M  V30 1872 C 173.981 -3.36952 -1.25315 0
M  V30 1873 C 173.645 -4.55679 -0.347248 0
M  V30 1874 C 174.642 -5.18281 0.409996 0
M  V30 1875 C 172.327 -5.0162 -0.261367 0
M  V30 1876 C 174.321 -6.25203 1.24096 0
M  V30 1877 C 172.008 -6.08405 0.573238 0
M  V30 1878 C 173.006 -6.70063 1.32304 0
M  V30 1879 O 172.694 -7.74788 2.14381 0
M  V30 1880 H 172.426 -0.658343 -0.153492 0
M  V30 1881 H 174.98 -2.04532 0.188584 0
M  V30 1882 H 173.21 -3.28032 -2.04773 0
M  V30 1883 H 174.899 -3.62974 -1.81673 0
M  V30 1884 H 175.665 -4.8371 0.353457 0
M  V30 1885 H 171.544 -4.53381 -0.834656 0
M  V30 1886 H 175.088 -6.73259 1.82669 0
M  V30 1887 H 170.985 -6.42406 0.631208 0
M  V30 1888 H 171.753 -7.91837 2.07209 0
M  V30 1889 N 174.416 0.165178 -1.56732 0
M  V30 1890 C 175.663 0.880807 -1.8234 0
M  V30 1891 C 175.991 1.81977 -0.686621 0
M  V30 1892 O 175.246 1.92971 0.325697 0
M  V30 1893 C 175.545 1.70405 -3.1416 0
M  V30 1894 C 175.211 0.913475 -4.4155 0
M  V30 1895 C 173.873 0.695303 -4.7615 0
M  V30 1896 C 176.225 0.359349 -5.1996 0
M  V30 1897 C 173.553 -0.0879947 -5.86634 0
M  V30 1898 C 175.905 -0.410893 -6.31264 0
M  V30 1899 C 174.569 -0.639808 -6.64427 0
M  V30 1900 H 173.839 0.32231 -0.667231 0
M  V30 1901 H 176.486 0.145402 -1.90947 0
M  V30 1902 H 174.791 2.50903 -3.00923 0
M  V30 1903 H 176.488 2.26091 -3.31186 0
M  V30 1904 H 173.078 1.09357 -4.14414 0
M  V30 1905 H 177.262 0.515228 -4.93618 0
M  V30 1906 H 172.518 -0.27503 -6.10781 0
M  V30 1907 H 176.692 -0.847494 -6.91224 0
M  V30 1908 H 174.319 -1.24864 -7.49875 0
M  V30 1909 N 175.894 1.51508 0.433938 0
M  V30 1910 C 176.824 1.76016 1.53429 0
M  V30 1911 C 177.805 0.610112 1.58782 0
M  V30 1912 O 178.99 0.853177 1.74455 0
M  V30 1913 C 176.12 1.88831 2.9148 0
M  V30 1914 C 175.074 3.04288 3.00987 0
M  V30 1915 C 174.4 3.0229 4.4105 0
M  V30 1916 C 175.7 4.44193 2.74754 0
M  V30 1917 H 177.394 2.68152 1.33171 0
M  V30 1918 H 174.94 1.29035 0.639214 0
M  V30 1919 H 176.893 2.04559 3.6842 0
M  V30 1920 H 175.617 0.933455 3.12976 0
M  V30 1921 H 174.276 2.8827 2.26486 0
M  V30 1922 H 173.924 2.04576 4.59519 0
M  V30 1923 H 173.624 3.79822 4.4834 0
M  V30 1924 H 175.148 3.20116 5.1996 0
M  V30 1925 H 176.562 4.60544 3.41426 0
M  V30 1926 H 174.959 5.23457 2.9345 0
M  V30 1927 H 176.029 4.53996 1.70339 0
M  V30 1928 N 177.372 -0.689602 1.41712 0
M  V30 1929 C 178.618 -1.45041 1.42599 0
M  V30 1930 C 178.973 -1.92366 0.0363764 0
M  V30 1931 O 178.266 -1.67022 -0.938844 0
M  V30 1932 C 178.46 -2.67298 2.37247 0
M  V30 1933 C 178.289 -2.31935 3.85274 0
M  V30 1934 C 177.059 -2.2201 4.53916 0
M  V30 1935 C 179.257 -1.94526 4.76093 0
M  V30 1936 N 177.239 -1.79594 5.87043 0
M  V30 1937 C 178.61 -1.62915 5.98213 0
M  V30 1938 C 180.665 -1.81388 4.63684 0
M  V30 1939 C 179.368 -1.19486 7.09306 0
M  V30 1940 C 181.394 -1.39364 5.74745 0
M  V30 1941 C 180.756 -1.08668 6.95967 0
M  V30 1942 H 176.855 -0.527806 0.577014 0
M  V30 1943 H 179.439 -0.797266 1.77628 0
M  V30 1944 H 177.61 -3.30325 2.04304 0
M  V30 1945 H 179.342 -3.33806 2.28814 0
M  V30 1946 H 176.097 -2.406 4.07932 0
M  V30 1947 H 176.521 -1.60851 6.57614 0
M  V30 1948 H 181.163 -2.03772 3.70455 0
M  V30 1949 H 178.881 -0.958477 8.02396 0
M  V30 1950 H 182.467 -1.2974 5.6715 0
M  V30 1951 H 181.347 -0.766417 7.80446 0
M  V30 1952 N 178.85 -1.27639 -0.924453 0
M  V30 1953 C 180.096 -1.14336 -1.67497 0
M  V30 1954 C 180.429 0.309465 -1.91718 0
M  V30 1955 O 179.704 1.22608 -1.50989 0
M  V30 1956 C 179.987 -1.93096 -3.0395 0
M  V30 1957 C 179.84 -3.46381 -2.8695 0
M  V30 1958 C 181.159 -1.73798 -4.0433 0
M  V30 1959 H 178.278 -0.416728 -0.607871 0
M  V30 1960 H 180.92 -1.56832 -1.07256 0
M  V30 1961 H 179.07 -1.56982 -3.55372 0
M  V30 1962 H 180.742 -3.92343 -2.42621 0
M  V30 1963 H 178.985 -3.72557 -2.22225 0
M  V30 1964 H 179.656 -3.96735 -3.83804 0
M  V30 1965 H 182.132 -2.05293 -3.61931 0
M  V30 1966 H 181.008 -2.31294 -4.97789 0
M  V30 1967 H 181.269 -0.686725 -4.36734 0
M  V30 1968 N 180.328 1.1314 -1.09713 0
M  V30 1969 C 181.574 1.84757 -0.836224 0
M  V30 1970 C 181.907 1.8347 0.636598 0
M  V30 1971 O 181.182 1.27491 1.46889 0
M  V30 1972 C 181.465 3.32782 -1.37578 0
M  V30 1973 C 181.318 3.42567 -2.91493 0
M  V30 1974 C 182.637 4.28307 -1.01198 0
M  V30 1975 H 179.756 0.67082 -0.305236 0
M  V30 1976 H 182.398 1.3278 -1.35903 0
M  V30 1977 H 180.548 3.77177 -0.931097 0
M  V30 1978 H 182.22 3.06862 -3.44432 0
M  V30 1979 H 180.463 2.83349 -3.28475 0
M  V30 1980 H 181.134 4.46674 -3.24324 0
M  V30 1981 H 183.61 3.91999 -1.39556 0
M  V30 1982 H 182.486 5.30307 -1.41653 0
M  V30 1983 H 182.747 4.42029 0.0794833 0
M  V30 1984 N 181.806 0.884767 1.30421 0
M  V30 1985 C 182.753 0.349642 2.28136 0
M  V30 1986 C 183.723 -0.560061 1.56373 0
M  V30 1987 O 184.908 -0.488524 1.8444 0
M  V30 1988 C 182.048 -0.42999 3.42411 0
M  V30 1989 C 181.161 0.508907 4.28992 0
M  V30 1990 C 180.296 -0.286301 5.30428 0
M  V30 1991 C 179.335 0.648079 6.08659 0
M  V30 1992 N 178.472 -0.111792 7.02011 0
M  V30 1993 H 183.312 1.18807 2.73293 0
M  V30 1994 H 180.849 0.597231 1.3443 0
M  V30 1995 H 182.807 -0.897923 4.07423 0
M  V30 1996 H 181.437 -1.23299 2.98324 0
M  V30 1997 H 180.489 1.09533 3.64289 0
M  V30 1998 H 181.801 1.22475 4.8353 0
M  V30 1999 H 180.955 -0.816098 6.01186 0
M  V30 2000 H 179.694 -1.03536 4.76583 0
M  V30 2001 H 178.699 1.18951 5.36778 0
M  V30 2002 H 179.924 1.39623 6.64592 0
M  V30 2003 H 177.87 -0.843395 6.50556 0
M  V30 2004 H 177.787 0.544429 7.54037 0
M  V30 2005 H 179.055 -0.622339 7.77012 0
M  V30 2006 N 183.284 -1.43765 0.645699 0
M  V30 2007 C 184.531 -2.01898 0.15604 0
M  V30 2008 C 184.859 -1.50887 -1.22733 0
M  V30 2009 O 184.114 -0.689271 -1.8316 0
M  V30 2010 C 184.413 -3.57238 0.107679 0
M  V30 2011 C 184.079 -4.27564 1.43178 0
M  V30 2012 C 182.741 -4.46492 1.7944 0
M  V30 2013 C 185.093 -4.67454 2.30513 0
M  V30 2014 C 182.421 -5.02573 3.02716 0
M  V30 2015 C 184.773 -5.24901 3.53074 0
M  V30 2016 C 183.437 -5.42046 3.89541 0
M  V30 2017 H 182.707 -0.738797 0.057099 0
M  V30 2018 H 185.354 -1.72341 0.834912 0
M  V30 2019 H 183.659 -3.86293 -0.654618 0
M  V30 2020 H 185.356 -3.99965 -0.287938 0
M  V30 2021 H 181.946 -4.13171 1.13963 0
M  V30 2022 H 186.13 -4.5253 2.0379 0
M  V30 2023 H 181.386 -5.14033 3.31028 0
M  V30 2024 H 185.56 -5.54758 4.20971 0
M  V30 2025 H 183.187 -5.85268 4.85145 0
M  V30 2026 N 184.763 -0.387143 -1.52771 0
M  V30 2027 C 185.711 0.463953 -2.27926 0
M  V30 2028 C 186.705 1.06493 -1.31741 0
M  V30 2029 O 187.911 1.00565 -1.49287 0
M  V30 2030 H 184.286 0.16837 -0.732909 0
M  V30 2031 H 186.257 -0.19141 -2.97785 0
M  V30 2032 C 185.006 1.5803 -3.09713 0
M  V30 2033 H 184.329 1.12718 -3.83581 0
M  V30 2034 H 185.769 2.15008 -3.65442 0
M  V30 2035 C 184.228 2.53509 -2.2189 0
M  V30 2036 O 184.758 3.56863 -1.84422 0
M  V30 2037 N 182.964 2.23199 -1.86093 0
M  V30 2038 H 182.511 1.39185 -2.16761 0
M  V30 2039 H 182.469 2.87333 -1.27621 0
M  V30 2040 N 186.241 1.57166 -0.116904 0
M  V30 2041 C 187.466 1.999 0.55271 0
M  V30 2042 C 187.891 0.996039 1.59564 0
M  V30 2043 O 187.249 -0.032556 1.81271 0
M  V30 2044 C 187.297 3.4152 1.15742 0
M  V30 2045 O 186.401 3.44106 2.27299 0
M  V30 2046 H 185.742 0.649447 0.138258 0
M  V30 2047 H 188.272 2.03573 -0.204759 0
M  V30 2048 H 188.282 3.79684 1.49346 0
M  V30 2049 H 186.957 4.14034 0.393493 0
M  V30 2050 H 185.534 3.17759 1.9515 0
M  V30 2051 N 187.719 -0.156864 1.56817 0
M  V30 2052 C 188.649 -1.19589 2.00551 0
M  V30 2053 C 189.63 -1.4536 0.883426 0
M  V30 2054 O 190.815 -1.56449 1.15054 0
M  V30 2055 C 187.945 -2.53143 2.37773 0
M  V30 2056 C 186.899 -2.41913 3.53075 0
M  V30 2057 C 186.225 -3.80088 3.76081 0
M  V30 2058 C 187.525 -1.91157 4.86062 0
M  V30 2059 H 189.219 -0.832293 2.87599 0
M  V30 2060 H 186.765 -0.398918 1.38364 0
M  V30 2061 H 188.718 -3.26047 2.66967 0
M  V30 2062 H 187.442 -2.91319 1.4765 0
M  V30 2063 H 186.101 -1.71462 3.24031 0
M  V30 2064 H 185.749 -4.15683 2.83225 0
M  V30 2065 H 185.449 -3.73439 4.53671 0
M  V30 2066 H 186.973 -4.54556 4.0769 0
M  V30 2067 H 188.387 -2.53846 5.14038 0
M  V30 2068 H 186.784 -1.95422 5.67389 0
M  V30 2069 H 187.854 -0.866673 4.77092 0
M  V30 2070 N 189.197 -1.51736 -0.425897 0
M  V30 2071 C 190.145 -1.74464 -1.53834 0
M  V30 2072 C 191.139 -0.611241 -1.57988 0
M  V30 2073 O 192.345 -0.792899 -1.61596 0
M  V30 2074 H 188.72 -0.551437 -0.511293 0
M  V30 2075 H 190.691 -2.67694 -1.31843 0
M  V30 2076 C 189.44 -1.8972 -2.91379 0
M  V30 2077 H 188.763 -2.76344 -2.88919 0
M  V30 2078 H 190.203 -2.09629 -3.68553 0
M  V30 2079 C 188.662 -0.65992 -3.30374 0
M  V30 2080 O 189.192 0.180083 -4.01296 0
M  V30 2081 N 187.398 -0.500677 -2.86254 0
M  V30 2082 H 186.945 -1.18532 -2.28709 0
M  V30 2083 H 186.903 0.325903 -3.12706 0
M  V30 2084 N 190.675 0.682077 -1.42076 0
M  V30 2085 C 191.585 1.82535 -1.47371 0
M  V30 2086 C 192.601 1.7017 -0.363079 0
M  V30 2087 O 193.777 1.91848 -0.612875 0
M  V30 2088 C 190.842 3.18624 -1.36674 0
M  V30 2089 C 189.903 3.42999 -2.58167 0
M  V30 2090 C 189.136 4.72595 -2.4797 0
M  V30 2091 O 189.359 5.50006 -1.5116 0
M  V30 2092 O 188.293 4.98054 -3.37974 0
M  V30 2093 H 192.119 1.81023 -2.43853 0
M  V30 2094 H 189.704 0.836887 -1.2376 0
M  V30 2095 H 191.586 3.99847 -1.33043 0
M  V30 2096 H 190.261 3.20789 -0.433138 0
M  V30 2097 H 189.168 2.61653 -2.67373 0
M  V30 2098 H 190.501 3.45659 -3.50401 0
M  V30 2099 N 192.153 1.28127 0.917671 0
M  V30 2100 C 193.083 1.14248 2.03641 0
M  V30 2101 C 194.064 0.0412748 1.7005 0
M  V30 2102 O 195.249 0.217566 1.92977 0
M  V30 2103 C 192.379 0.799431 3.37974 0
M  V30 2104 C 191.333 1.85497 3.85713 0
M  V30 2105 C 190.659 1.36565 5.16966 0
M  V30 2106 C 191.959 3.26085 4.08002 0
M  V30 2107 H 193.653 2.07835 2.15511 0
M  V30 2108 H 191.199 1.00064 1.03553 0
M  V30 2109 H 193.152 0.689114 4.15727 0
M  V30 2110 H 191.876 -0.172145 3.26146 0
M  V30 2111 H 190.535 1.95437 3.10161 0
M  V30 2112 H 190.183 0.383253 5.01538 0
M  V30 2113 H 189.883 2.07143 5.49878 0
M  V30 2114 H 191.407 1.26848 5.97279 0
M  V30 2115 H 192.821 3.19089 4.76293 0
M  V30 2116 H 191.218 3.94462 4.52238 0
M  V30 2117 H 192.288 3.70394 3.12948 0
M  V30 2118 N 193.631 -1.12557 1.10312 0
M  V30 2119 C 194.877 -1.84311 0.846011 0
M  V30 2120 C 195.21 -1.83805 -0.626859 0
M  V30 2121 O 194.485 -1.28268 -1.46211 0
M  V30 2122 C 194.768 -3.32048 1.39341 0
M  V30 2123 C 194.621 -3.41016 2.93305 0
M  V30 2124 C 195.94 -4.27764 1.03468 0
M  V30 2125 H 193.059 -0.669192 0.30879 0
M  V30 2126 H 195.701 -1.32057 1.36605 0
M  V30 2127 H 193.851 -3.76678 0.951087 0
M  V30 2128 H 195.523 -3.05031 3.46055 0
M  V30 2129 H 193.766 -2.81603 3.29973 0
M  V30 2130 H 194.437 -4.44948 3.26689 0
M  V30 2131 H 196.913 -3.91253 1.41633 0
M  V30 2132 H 195.789 -5.29549 1.44463 0
M  V30 2133 H 196.05 -4.42064 -0.0560404 0
M  V30 2134 N 195.109 -0.891671 -1.2995 0
M  V30 2135 C 196.386 -0.433307 -1.9074 0
M  V30 2136 C 196.766 1.08646 -1.80995 0
M  V30 2137 O 196.114 1.92476 -1.23147 0
M  V30 2138 C 196.324 -0.938895 -3.36134 0
M  V30 2139 C 197.672 -0.977829 -4.13187 0
M  V30 2140 O 198.696 -0.886015 -3.45005 0
M  V30 2141 O 197.555 -1.11453 -5.35015 0
M  V30 2142 H 194.649 -0.133699 -0.816121 0
M  V30 2143 H 197.195 -0.981011 -1.38471 0
M  V30 2144 H 195.967 -1.98281 -3.37343 0
M  V30 2145 H 195.59 -0.37074 -3.95868 0
M  V30 2146 N 196.587 1.43421 -0.653314 0
M  V30 2147 C 197.817 2.05864 -0.174238 0
M  V30 2148 C 198.225 1.49052 1.16534 0
M  V30 2149 O 197.568 0.616481 1.73047 0
M  V30 2150 C 197.63 3.59499 -0.00875873 0
M  V30 2151 C 197.294 4.38893 -1.27364 0
M  V30 2152 C 198.291 4.70947 -2.20239 0
M  V30 2153 C 195.976 4.789 -1.51525 0
M  V30 2154 C 197.97 5.41916 -3.35568 0
M  V30 2155 C 195.657 5.49614 -2.67147 0
M  V30 2156 C 196.655 5.81044 -3.58994 0
M  V30 2157 O 196.343 6.50313 -4.72597 0
M  V30 2158 H 196.075 0.670345 -0.0872549 0
M  V30 2159 H 198.629 1.84913 -0.894226 0
M  V30 2160 H 196.859 3.79025 0.7666 0
M  V30 2161 H 198.548 4.0364 0.427687 0
M  V30 2162 H 199.314 4.40558 -2.02815 0
M  V30 2163 H 195.193 4.53843 -0.809158 0
M  V30 2164 H 198.737 5.66365 -4.07279 0
M  V30 2165 H 194.634 5.79419 -2.84505 0
M  V30 2166 H 195.402 6.68795 -4.71864 0
M  V30 2167 N 198.065 0.39524 1.52563 0
M  V30 2168 C 199.015 -0.4541 2.23432 0
M  V30 2169 C 199.999 -1.02482 1.24042 0
M  V30 2170 O 201.191 -0.949938 1.49349 0
M  V30 2171 C 198.32 -1.57769 3.049 0
M  V30 2172 C 197.406 -1.01842 4.1169 0
M  V30 2173 N 197.797 -0.184613 5.05463 0
M  V30 2174 C 196.095 -1.29033 4.26927 0
M  V30 2175 C 196.796 0.125013 5.81566 0
M  V30 2176 N 195.772 -0.480498 5.41472 0
M  V30 2177 H 199.574 0.189413 2.93289 0
M  V30 2178 H 197.088 0.204877 1.61102 0
M  V30 2179 H 199.085 -2.19862 3.54212 0
M  V30 2180 H 197.745 -2.22397 2.36579 0
M  V30 2181 H 198.756 0.178602 5.17592 0
M  V30 2182 H 195.433 -1.93721 3.69836 0
M  V30 2183 H 196.823 0.800962 6.67109 0
M  V30 2184 N 199.544 -1.57102 0.125237 0
M  V30 2185 C 200.96 -1.57915 -0.231322 0
M  V30 2186 C 201.16 -1.13833 -1.66266 0
M  V30 2187 O 200.216 -0.828581 -2.38518 0
M  V30 2188 C 201.529 -3.00699 0.00766489 0
M  V30 2189 C 203.077 -3.12947 -0.0577483 0
M  V30 2190 C 203.552 -4.57742 0.153626 0
M  V30 2191 N 205.043 -4.63092 0.0998073 0
M  V30 2192 C 205.778 -5.72905 0.238174 0
M  V30 2193 N 205.274 -6.91445 0.433057 0
M  V30 2194 N 207.067 -5.6182 0.177308 0
M  V30 2195 H 199.218 -1.84055 1.06007 0
M  V30 2196 H 201.481 -0.850905 0.417929 0
M  V30 2197 H 201.187 -3.3726 0.997431 0
M  V30 2198 H 201.061 -3.70236 -0.721452 0
M  V30 2199 H 203.448 -2.7624 -1.03804 0
M  V30 2200 H 203.529 -2.4594 0.70335 0
M  V30 2201 H 203.173 -4.95149 1.13092 0
M  V30 2202 H 203.103 -5.22848 -0.627534 0
M  V30 2203 H 205.594 -3.77871 -0.047051 0
M  V30 2204 H 205.907 -7.70985 0.529332 0
M  V30 2205 H 204.252 -6.93415 0.469109 0
M  V30 2206 H 207.443 -4.68093 0.0259748 0
M  V30 2207 H 207.616 -6.47357 0.288582 0
M  V30 2208 N 201.022 0.148545 -1.56898 0
M  V30 2209 C 202.247 0.880385 -1.87787 0
M  V30 2210 C 202.672 1.74018 -0.714093 0
M  V30 2211 O 202.03 1.78153 0.336343 0
M  V30 2212 C 202.078 1.71422 -3.17249 0
M  V30 2213 O 201.182 2.8183 -3.01074 0
M  V30 2214 H 200.523 0.245301 -0.617028 0
M  V30 2215 H 203.053 0.139826 -2.04122 0
M  V30 2216 H 203.063 2.10954 -3.49231 0
M  V30 2217 H 201.738 1.08284 -4.01556 0
M  V30 2218 H 200.315 2.45715 -2.80497 0
M  V30 2219 N 202.5 1.5196 0.417844 0
M  V30 2220 C 203.728 1.69426 1.18753 0
M  V30 2221 C 204.143 0.399955 1.84515 0
M  V30 2222 O 203.5 -0.623288 1.71527 0
M  V30 2223 C 203.551 2.82375 2.25714 0
M  V30 2224 O 203.272 4.06793 1.62638 0
M  V30 2225 C 204.773 3.11277 3.15628 0
M  V30 2226 H 201.993 0.568031 0.357186 0
M  V30 2227 H 204.537 1.98475 0.49273 0
M  V30 2228 H 202.692 2.5587 2.90877 0
M  V30 2229 H 203.106 4.69667 2.3348 0
M  V30 2230 H 204.58 3.93843 3.86771 0
M  V30 2231 H 205.057 2.24473 3.77503 0
M  V30 2232 H 205.663 3.39515 2.56144 0
M  V30 2233 N 203.978 -0.674533 1.42435 0
M  V30 2234 C 205.203 -1.46784 1.46524 0
M  V30 2235 C 205.628 -1.87938 0.078066 0
M  V30 2236 O 204.986 -1.56014 -0.92354 0
M  V30 2237 C 205.034 -2.69307 2.39805 0
M  V30 2238 O 204.138 -3.67587 1.86959 0
M  V30 2239 H 203.479 -0.440959 0.496439 0
M  V30 2240 H 206.009 -0.827326 1.87127 0
M  V30 2241 H 206.019 -3.17374 2.56393 0
M  V30 2242 H 204.694 -2.38692 3.40586 0
M  V30 2243 H 203.271 -3.2662 1.79927 0
M  V30 2244 N 205.456 -1.28612 -0.910864 0
M  V30 2245 C 206.702 -1.16106 -1.66274 0
M  V30 2246 C 207.035 0.289113 -1.92036 0
M  V30 2247 O 206.31 1.21 -1.52281 0
M  V30 2248 C 206.593 -1.96309 -3.01885 0
M  V30 2249 C 206.446 -3.49405 -2.8326 0
M  V30 2250 C 207.765 -1.78076 -4.02463 0
M  V30 2251 H 204.884 -0.423152 -0.603417 0
M  V30 2252 H 207.526 -1.57961 -1.05586 0
M  V30 2253 H 205.676 -1.60742 -3.53687 0
M  V30 2254 H 207.348 -3.94894 -2.38446 0
M  V30 2255 H 205.591 -3.74893 -2.18261 0
M  V30 2256 H 206.262 -4.00784 -3.79574 0
M  V30 2257 H 208.738 -2.0912 -3.59733 0
M  V30 2258 H 207.614 -2.36561 -4.95308 0
M  V30 2259 H 207.875 -0.733008 -4.35981 0
M  V30 2260 N 206.934 1.1197 -1.10907 0
M  V30 2261 C 208.159 1.87942 -0.877064 0
M  V30 2262 C 208.584 1.79341 0.567314 0
M  V30 2263 O 207.942 1.15184 1.40009 0
M  V30 2264 C 207.99 3.34926 -1.33629 0
M  V30 2265 O 207.094 4.09303 -0.504447 0
M  V30 2266 H 206.435 0.583785 -0.316371 0
M  V30 2267 H 208.965 1.4157 -1.47712 0
M  V30 2268 H 208.975 3.8577 -1.32837 0
M  V30 2269 H 207.65 3.40504 -2.3881 0
M  V30 2270 H 206.227 3.68393 -0.577993 0
M  V30 2271 N 208.412 0.89855 1.29475 0
M  V30 2272 C 209.828 0.594483 1.48115 0
M  V30 2273 C 210.028 -0.86431 1.82022 0
M  V30 2274 O 209.084 -1.64457 1.91599 0
M  V30 2275 C 210.397 1.51932 2.59494 0
M  V30 2276 C 211.945 1.5244 2.7337 0
M  V30 2277 C 212.42 2.43548 3.87877 0
M  V30 2278 N 213.911 2.41589 3.95208 0
M  V30 2279 C 214.646 3.08789 4.83153 0
M  V30 2280 N 214.142 3.85265 5.75798 0
M  V30 2281 N 215.935 2.97952 4.76635 0
M  V30 2282 H 208.086 1.84207 1.05742 0
M  V30 2283 H 210.349 0.789251 0.525154 0
M  V30 2284 H 210.055 2.55865 2.41301 0
M  V30 2285 H 209.929 1.23899 3.56271 0
M  V30 2286 H 212.316 0.492518 2.90961 0
M  V30 2287 H 212.397 1.8451 1.77172 0
M  V30 2288 H 212.041 3.46829 3.71041 0
M  V30 2289 H 211.971 2.08788 4.83441 0
M  V30 2290 H 214.462 1.86025 3.28943 0
M  V30 2291 H 214.775 4.33598 6.39697 0
M  V30 2292 H 213.12 3.89371 5.75687 0
M  V30 2293 H 216.311 2.37723 4.03244 0
M  V30 2294 H 216.484 3.50599 5.44962 0
M  V30 2295 N 209.89 -1.43072 0.660911 0
M  V30 2296 C 210.838 -2.32569 -0.0378199 0
M  V30 2297 C 211.832 -1.49046 -0.805092 0
M  V30 2298 O 213.038 -1.65206 -0.714624 0
M  V30 2299 H 209.413 -0.75136 -0.031019 0
M  V30 2300 H 211.384 -2.89216 0.734609 0
M  V30 2301 C 210.133 -3.33453 -0.985124 0
M  V30 2302 H 209.456 -3.97752 -0.404147 0
M  V30 2303 H 210.896 -3.98691 -1.44297 0
M  V30 2304 C 209.355 -2.64642 -2.08486 0
M  V30 2305 O 209.885 -2.46776 -3.16961 0
M  V30 2306 N 208.091 -2.23891 -1.8526 0
M  V30 2307 H 207.638 -2.38621 -0.970449 0
M  V30 2308 H 207.596 -1.78181 -2.59034 0
M  V30 2309 N 211.368 -0.403325 -1.52352 0
M  V30 2310 C 212.3 0.4603 -2.2453 0
M  V30 2311 C 213.313 1.01505 -1.27282 0
M  V30 2312 O 214.502 0.914982 -1.53266 0
M  V30 2313 C 211.602 1.65208 -2.95905 0
M  V30 2314 C 210.775 1.22224 -4.19976 0
M  V30 2315 C 209.834 2.28028 -4.74226 0
M  V30 2316 O 208.86 1.88857 -5.36956 0
M  V30 2317 N 210.062 3.6012 -4.55295 0
M  V30 2318 H 212.827 -0.158156 -2.99282 0
M  V30 2319 H 210.388 -0.230402 -1.60252 0
M  V30 2320 H 212.38 2.35541 -3.29093 0
M  V30 2321 H 210.95 2.17658 -2.24374 0
M  V30 2322 H 210.17 0.34725 -3.92668 0
M  V30 2323 H 211.458 0.911924 -5.00561 0
M  V30 2324 H 210.856 3.94698 -4.05253 0
M  V30 2325 H 209.413 4.26447 -4.92936 0
M  V30 2326 N 212.846 1.57033 -0.133567 0
M  V30 2327 C 213.778 2.13176 0.841944 0
M  V30 2328 C 214.791 1.07794 1.22001 0
M  V30 2329 O 215.98 1.35117 1.16643 0
M  V30 2330 C 213.08 2.62847 2.13926 0
M  V30 2331 C 212.253 3.92486 1.93064 0
M  V30 2332 C 211.312 4.27605 3.0666 0
M  V30 2333 O 210.338 4.96168 2.78937 0
M  V30 2334 N 211.54 3.861 4.33483 0
M  V30 2335 H 214.305 2.97503 0.362192 0
M  V30 2336 H 211.866 1.61821 0.05042 0
M  V30 2337 H 213.858 2.83363 2.88942 0
M  V30 2338 H 212.428 1.83319 2.53205 0
M  V30 2339 H 211.648 3.80732 1.02159 0
M  V30 2340 H 212.936 4.77225 1.76447 0
M  V30 2341 H 212.334 3.30828 4.58878 0
M  V30 2342 H 210.891 4.11694 5.05323 0
M  V30 2343 N 214.325 -0.140222 1.56975 0
M  V30 2344 C 215.574 -0.850152 1.82908 0
M  V30 2345 C 215.887 -1.82028 0.715892 0
M  V30 2346 O 217.093 -2.57485 0.861016 0
M  V30 2347 C 215.549 -1.5625 3.24213 0
M  V30 2348 C 215.157 -0.63443 4.43485 0
M  V30 2349 C 216.901 -2.25881 3.59413 0
M  V30 2350 C 214.808 -1.34879 5.75814 0
M  V30 2351 H 213.738 -0.321221 0.682153 0
M  V30 2352 H 216.389 -0.102874 1.83211 0
M  V30 2353 H 214.771 -2.35565 3.18316 0
M  V30 2354 H 215.945 0.12398 4.60633 0
M  V30 2355 H 214.26 -0.0461836 4.16374 0
M  V30 2356 H 216.857 -2.79978 4.5554 0
M  V30 2357 H 217.2 -3.02693 2.85802 0
M  V30 2358 H 217.733 -1.53477 3.67001 0
M  V30 2359 H 214.472 -0.622385 6.52539 0
M  V30 2360 H 213.992 -2.07974 5.6259 0
M  V30 2361 H 215.671 -1.88784 6.18845 0
M  V30 2362 N 215.803 -1.52179 -0.40978 0
M  V30 2363 C 217.05 -1.66206 -1.15679 0
M  V30 2364 C 217.378 -0.391674 -1.90516 0
M  V30 2365 O 216.633 0.62533 -1.8544 0
M  V30 2366 C 216.932 -2.83428 -2.17723 0
M  V30 2367 C 216.598 -4.21672 -1.59699 0
M  V30 2368 C 215.26 -4.59274 -1.43599 0
M  V30 2369 C 217.612 -5.07825 -1.17317 0
M  V30 2370 C 214.94 -5.80709 -0.836328 0
M  V30 2371 C 217.292 -6.29864 -0.587691 0
M  V30 2372 C 215.956 -6.66216 -0.413818 0
M  V30 2373 H 215.226 -0.608192 -0.423301 0
M  V30 2374 H 217.873 -1.86279 -0.444097 0
M  V30 2375 H 216.178 -2.57687 -2.95135 0
M  V30 2376 H 217.875 -2.91477 -2.75394 0
M  V30 2377 H 214.465 -3.9204 -1.73213 0
M  V30 2378 H 218.649 -4.79359 -1.28565 0
M  V30 2379 H 213.905 -6.07498 -0.689626 0
M  V30 2380 H 218.079 -6.95948 -0.250894 0
M  V30 2381 H 215.706 -7.60182 0.0529471 0
M  V30 2382 N 217.281 0.66697 -1.42791 0
M  V30 2383 C 218.211 1.79218 -1.49677 0
M  V30 2384 C 219.192 1.66405 -0.352623 0
M  V30 2385 O 220.377 1.85708 -0.567993 0
M  V30 2386 C 217.507 3.17565 -1.40605 0
M  V30 2387 C 216.461 3.45124 -2.53127 0
M  V30 2388 C 215.787 4.83127 -2.29112 0
M  V30 2389 C 217.087 3.41236 -3.95418 0
M  V30 2390 H 218.781 1.73713 -2.43853 0
M  V30 2391 H 216.327 0.83432 -1.17367 0
M  V30 2392 H 218.28 3.96022 -1.44029 0
M  V30 2393 H 217.004 3.23767 -0.429271 0
M  V30 2394 H 215.663 2.69031 -2.49034 0
M  V30 2395 H 215.311 4.85988 -1.29709 0
M  V30 2396 H 215.011 5.02528 -3.04531 0
M  V30 2397 H 216.535 5.63859 -2.34297 0
M  V30 2398 H 217.949 4.09651 -4.01073 0
M  V30 2399 H 216.346 3.72173 -4.70752 0
M  V30 2400 H 217.416 2.39665 -4.21532 0
M  V30 2401 N 218.759 1.29093 0.90403 0
M  V30 2402 C 220.175 1.07011 1.1841 0
M  V30 2403 C 220.375 -0.181358 2.00682 0
M  V30 2404 O 219.431 -0.880331 2.36657 0
M  V30 2405 C 220.744 2.32311 1.90924 0
M  V30 2406 C 222.292 2.37587 2.03768 0
M  V30 2407 C 222.767 3.62679 2.79693 0
M  V30 2408 N 224.258 3.63376 2.87249 0
M  V30 2409 C 224.993 4.56848 3.46522 0
M  V30 2410 N 224.489 5.60648 4.06996 0
M  V30 2411 N 226.282 4.44426 3.44154 0
M  V30 2412 H 218.433 2.09412 0.354993 0
M  V30 2413 H 220.696 0.922181 0.219742 0
M  V30 2414 H 220.402 3.23536 1.37905 0
M  V30 2415 H 220.276 2.39483 2.91424 0
M  V30 2416 H 222.663 1.46853 2.55965 0
M  V30 2417 H 222.744 2.34403 1.02415 0
M  V30 2418 H 222.388 4.53762 2.28173 0
M  V30 2419 H 222.318 3.63119 3.81381 0
M  V30 2420 H 224.809 2.88321 2.44293 0
M  V30 2421 H 225.122 6.28101 4.50232 0
M  V30 2422 H 223.467 5.64463 4.05471 0
M  V30 2423 H 226.658 3.62529 2.96126 0
M  V30 2424 H 226.831 5.17457 3.90054 0
M  V30 2425 N 220.237 -1.11381 1.11499 0
M  V30 2426 C 221.514 -1.7955 0.775965 0
M  V30 2427 C 221.894 -1.97859 -0.73588 0
M  V30 2428 O 221.242 -1.56376 -1.66609 0
M  V30 2429 C 221.452 -3.13196 1.53977 0
M  V30 2430 C 222.8 -3.88227 1.71944 0
M  V30 2431 O 223.824 -3.22887 1.50407 0
M  V30 2432 O 222.683 -5.05477 2.07738 0
M  V30 2433 H 219.777 -0.777728 0.28119 0
M  V30 2434 H 222.323 -1.18118 1.21845 0
M  V30 2435 H 221.095 -2.95229 2.56818 0
M  V30 2436 H 220.718 -3.82342 1.09088 0
M  V30 2437 N 221.715 -0.905404 -1.28997 0
M  V30 2438 C 222.964 -0.530191 -1.94607 0
M  V30 2439 C 223.277 0.929185 -1.72121 0
M  V30 2440 O 224.483 1.41218 -2.31883 0
M  V30 2441 C 222.939 -0.897333 -3.48534 0
M  V30 2442 C 222.547 -2.37587 -3.79811 0
M  V30 2443 C 224.291 -0.592304 -4.20347 0
M  V30 2444 C 222.198 -2.68357 -5.27009 0
M  V30 2445 H 221.128 -0.194558 -0.728466 0
M  V30 2446 H 223.779 -1.10318 -1.46636 0
M  V30 2447 H 222.161 -0.253214 -3.9519 0
M  V30 2448 H 223.335 -3.06602 -3.43994 0
M  V30 2449 H 221.65 -2.6505 -3.2115 0
M  V30 2450 H 224.247 -0.798975 -5.28697 0
M  V30 2451 H 224.59 0.469474 -4.13644 0
M  V30 2452 H 225.123 -1.19452 -3.79442 0
M  V30 2453 H 221.862 -3.73355 -5.38782 0
M  V30 2454 H 221.382 -2.03971 -5.64053 0
M  V30 2455 H 223.061 -2.54922 -5.94663 0
M  V30 2456 N 223.193 1.4272 -0.668489 0
M  V30 2457 C 224.103 2.34596 0.0139753 0
M  V30 2458 C 225.119 1.5474 0.795703 0
M  V30 2459 O 226.295 1.87334 0.739466 0
M  V30 2460 C 223.36 3.33202 0.957982 0
M  V30 2461 C 222.421 4.28957 0.17149 0
M  V30 2462 C 221.654 5.22853 1.07053 0
M  V30 2463 O 221.877 5.21531 2.31001 0
M  V30 2464 O 220.811 5.9952 0.534727 0
M  V30 2465 H 224.637 2.9448 -0.742661 0
M  V30 2466 H 222.222 1.43117 -0.428705 0
M  V30 2467 H 224.104 3.93796 1.50008 0
M  V30 2468 H 222.779 2.758 1.69458 0
M  V30 2469 H 221.686 3.71796 -0.414558 0
M  V30 2470 H 223.019 4.89383 -0.52586 0
M  V30 2471 N 224.671 0.411399 1.52136 0
M  V30 2472 C 225.603 -0.448386 2.24771 0
M  V30 2473 C 226.616 -1.00828 1.27818 0
M  V30 2474 O 227.805 -0.906841 1.53749 0
M  V30 2475 C 224.905 -1.63636 2.96777 0
M  V30 2476 C 224.078 -1.19995 4.20618 0
M  V30 2477 C 223.137 -2.25509 4.75428 0
M  V30 2478 O 222.163 -1.86007 5.3795 0
M  V30 2479 N 223.365 -3.577 4.57199 0
M  V30 2480 H 226.13 0.174025 2.99194 0
M  V30 2481 H 223.691 0.238897 1.60128 0
M  V30 2482 H 225.683 -2.33793 3.30338 0
M  V30 2483 H 224.253 -2.16465 2.25526 0
M  V30 2484 H 223.473 -0.326421 3.92846 0
M  V30 2485 H 224.761 -0.885365 5.01038 0
M  V30 2486 H 224.159 -3.92543 4.07341 0
M  V30 2487 H 222.716 -4.23827 4.95191 0
M  V30 2488 N 226.149 -1.5696 0.141893 0
M  V30 2489 C 227.395 -1.9625 -0.511248 0
M  V30 2490 C 227.728 -1.02654 -1.64851 0
M  V30 2491 O 227.003 -0.0679676 -1.94381 0
M  V30 2492 C 227.286 -3.45285 -1.02227 0
M  V30 2493 C 227.139 -4.49658 0.113138 0
M  V30 2494 C 228.458 -3.96698 -1.90574 0
M  V30 2495 H 225.577 -0.713567 -0.184367 0
M  V30 2496 H 228.219 -1.88698 0.222087 0
M  V30 2497 H 226.369 -3.51852 -1.64719 0
M  V30 2498 H 228.041 -4.55174 0.749302 0
M  V30 2499 H 226.284 -4.26857 0.773026 0
M  V30 2500 H 226.955 -5.51258 -0.286053 0
M  V30 2501 H 229.431 -3.92578 -1.37918 0
M  V30 2502 H 228.307 -5.01453 -2.2324 0
M  V30 2503 H 228.568 -3.3875 -2.84079 0
M  V30 2504 N 227.627 0.131896 -1.57047 0
M  V30 2505 C 229.038 0.690407 -1.73465 0
M  V30 2506 C 229.389 1.8094 -0.758629 0
M  V30 2507 O 228.514 2.16282 0.0713813 0
M  V30 2508 C 229.109 1.25916 -3.14532 0
M  V30 2509 C 227.668 1.76409 -3.32501 0
M  V30 2510 C 226.815 0.658579 -2.69366 0
M  V30 2511 H 229.766 -0.0939144 -1.58422 0
M  V30 2512 H 229.787 2.12892 -3.15369 0
M  V30 2513 H 229.299 0.444515 -3.85546 0
M  V30 2514 H 227.4 2.60391 -2.66509 0
M  V30 2515 H 227.513 1.88241 -4.4057 0
M  V30 2516 H 225.877 1.08899 -2.30246 0
M  V30 2517 H 226.66 -0.14487 -3.42994 0
M  V30 2518 N 229.106 1.52395 0.401703 0
M  V30 2519 C 230.038 1.72505 1.50912 0
M  V30 2520 C 231.051 0.605468 1.51122 0
M  V30 2521 O 232.24 0.880828 1.55254 0
M  V30 2522 C 229.34 1.75711 2.89791 0
M  V30 2523 C 228.513 3.04824 3.1369 0
M  V30 2524 C 227.572 2.99743 4.32482 0
M  V30 2525 O 226.598 3.73635 4.29402 0
M  V30 2526 N 227.8 2.18047 5.37992 0
M  V30 2527 H 230.565 2.68049 1.34052 0
M  V30 2528 H 228.126 1.50724 0.591084 0
M  V30 2529 H 230.118 1.69834 3.6734 0
M  V30 2530 H 228.688 0.876092 3.00072 0
M  V30 2531 H 227.908 3.2429 2.24119 0
M  V30 2532 H 229.196 3.90221 3.26504 0
M  V30 2533 H 228.594 1.57456 5.43345 0
M  V30 2534 H 227.151 2.18021 6.14256 0
M  V30 2535 N 230.584 -0.659388 1.43143 0
M  V30 2536 C 231.516 -1.7849 1.43784 0
M  V30 2537 C 232.529 -1.5932 0.334787 0
M  V30 2538 O 233.718 -1.68155 0.598842 0
M  V30 2539 C 230.818 -3.15828 1.22906 0
M  V30 2540 C 229.991 -3.61711 2.45934 0
M  V30 2541 C 229.05 -4.77831 2.20371 0
M  V30 2542 O 228.076 -4.87586 2.93681 0
M  V30 2543 N 229.278 -5.67611 1.21647 0
M  V30 2544 H 232.043 -1.7842 2.40803 0
M  V30 2545 H 229.604 -0.84302 1.3822 0
M  V30 2546 H 231.596 -3.91189 1.03697 0
M  V30 2547 H 230.166 -3.10707 0.343542 0
M  V30 2548 H 229.386 -2.76861 2.80609 0
M  V30 2549 H 230.674 -3.89112 3.27825 0
M  V30 2550 H 230.072 -5.62397 0.610449 0
M  V30 2551 H 228.629 -6.42719 1.08423 0
M  V30 2552 N 232.062 -1.29571 -0.897171 0
M  V30 2553 C 233.473 -1.15964 -1.46319 0
M  V30 2554 C 233.824 0.244267 -1.94674 0
M  V30 2555 O 232.949 1.13998 -1.83939 0
M  V30 2556 C 233.544 -2.09906 -2.65942 0
M  V30 2557 C 232.103 -2.00314 -3.18671 0
M  V30 2558 C 231.25 -2.00687 -1.91363 0
M  V30 2559 H 234.201 -1.42019 -0.708268 0
M  V30 2560 H 234.222 -1.67276 -3.41759 0
M  V30 2561 H 233.734 -3.12075 -2.30718 0
M  V30 2562 H 231.835 -1.01242 -3.58582 0
M  V30 2563 H 231.948 -2.88102 -3.82798 0
M  V30 2564 H 230.312 -1.45319 -2.09175 0
M  V30 2565 H 231.095 -3.04566 -1.58413 0
M  V30 2566 N 233.54 1.10788 -1.12088 0
M  V30 2567 C 234.768 1.86461 -0.896651 0
M  V30 2568 C 235.183 1.80492 0.553912 0
M  V30 2569 O 234.54 1.19102 1.38278 0
M  V30 2570 C 234.591 3.35006 -1.35843 0
M  V30 2571 O 234.312 3.40866 -2.75213 0
M  V30 2572 C 235.813 4.27565 -1.1706 0
M  V30 2573 H 233.033 0.589425 -0.320654 0
M  V30 2574 H 235.577 1.40076 -1.48993 0
M  V30 2575 H 233.732 3.7887 -0.808458 0
M  V30 2576 H 234.146 4.33411 -2.9539 0
M  V30 2577 H 235.62 5.30007 -1.54263 0
M  V30 2578 H 236.097 4.3906 -0.110814 0
M  V30 2579 H 236.703 3.89501 -1.70789 0
M  V30 2580 N 235.018 0.912232 1.28515 0
M  V30 2581 C 236.248 0.559604 1.98877 0
M  V30 2582 C 236.656 -0.863113 1.68366 0
M  V30 2583 O 235.999 -1.58304 0.931969 0
M  V30 2584 C 236.061 0.68703 3.52874 0
M  V30 2585 C 235.725 2.07901 4.06972 0
M  V30 2586 C 236.722 3.05157 4.20922 0
M  V30 2587 C 234.407 2.39178 4.417 0
M  V30 2588 C 236.401 4.31806 4.68852 0
M  V30 2589 C 234.088 3.66068 4.89324 0
M  V30 2590 C 235.086 4.62195 5.02856 0
M  V30 2591 O 234.774 5.86829 5.49442 0
M  V30 2592 H 234.506 0.212191 0.641834 0
M  V30 2593 H 237.06 1.22712 1.64715 0
M  V30 2594 H 235.29 -0.0375486 3.86682 0
M  V30 2595 H 236.979 0.341727 4.04459 0
M  V30 2596 H 237.745 2.82311 3.94367 0
M  V30 2597 H 233.624 1.65109 4.30418 0
M  V30 2598 H 237.168 5.06842 4.79329 0
M  V30 2599 H 233.065 3.88739 5.15318 0
M  V30 2600 H 233.833 5.89597 5.6773 0
M  V30 2601 N 236.496 -1.42363 0.676048 0
M  V30 2602 C 237.742 -2.0182 0.199125 0
M  V30 2603 C 238.075 -1.53339 -1.19168 0
M  V30 2604 O 237.35 -0.736124 -1.80032 0
M  V30 2605 C 237.633 -3.59331 0.235144 0
M  V30 2606 C 237.486 -4.17989 1.66149 0
M  V30 2607 C 238.805 -4.3813 -0.41595 0
M  V30 2608 H 235.924 -0.733293 0.0738311 0
M  V30 2609 H 238.566 -1.69368 0.86107 0
M  V30 2610 H 236.716 -3.87109 -0.328487 0
M  V30 2611 H 238.388 -4.0116 2.27747 0
M  V30 2612 H 236.631 -3.7377 2.20178 0
M  V30 2613 H 237.302 -5.27126 1.63837 0
M  V30 2614 H 239.778 -4.16051 0.0638529 0
M  V30 2615 H 238.654 -5.47717 -0.360115 0
M  V30 2616 H 238.915 -4.16101 -1.49373 0
M  V30 2617 N 237.974 -0.419461 -1.51915 0
M  V30 2618 C 238.906 0.43646 -2.25006 0
M  V30 2619 C 239.919 1.00149 -1.28351 0
M  V30 2620 O 241.108 0.898674 -1.54227 0
M  V30 2621 C 238.208 1.6206 -2.9764 0
M  V30 2622 C 237.381 1.17763 -4.21249 0
M  V30 2623 C 236.44 2.22985 -4.76617 0
M  V30 2624 O 235.466 1.83151 -5.38929 0
M  V30 2625 N 236.668 3.55271 -4.59089 0
M  V30 2626 H 239.433 -0.18989 -2.99098 0
M  V30 2627 H 236.994 -0.247386 -1.59999 0
M  V30 2628 H 238.986 2.32038 -3.31573 0
M  V30 2629 H 237.556 2.15266 -2.2667 0
M  V30 2630 H 236.776 0.305582 -3.93014 0
M  V30 2631 H 238.064 0.858781 -5.015 0
M  V30 2632 H 237.462 3.90377 -4.09417 0
M  V30 2633 H 236.019 4.21195 -4.97432 0
M  V30 2634 N 239.452 1.56882 -0.150215 0
M  V30 2635 C 240.415 2.1573 0.774157 0
M  V30 2636 C 241.415 1.0999 1.17298 0
M  V30 2637 O 242.605 1.35613 1.09338 0
M  V30 2638 C 239.737 2.72302 2.05096 0
M  V30 2639 H 240.93 2.98752 0.262201 0
M  V30 2640 H 238.483 1.55985 0.099248 0
M  V30 2641 H 239.218 1.92956 2.6065 0
M  V30 2642 H 239.003 3.49665 1.77416 0
M  V30 2643 H 240.493 3.17632 2.71109 0
M  V30 2644 N 240.93 -0.123565 1.57115 0
M  V30 2645 C 241.86 -1.15309 2.03042 0
M  V30 2646 C 242.841 -1.43454 0.914061 0
M  V30 2647 O 244.026 -1.53973 1.18347 0
M  V30 2648 C 241.156 -2.48043 2.43089 0
M  V30 2649 C 240.11 -2.3437 3.58127 0
M  V30 2650 C 239.436 -3.72026 3.84059 0
M  V30 2651 C 240.736 -1.80804 4.90007 0
M  V30 2652 H 242.43 -0.771102 2.893 0
M  V30 2653 H 239.976 -0.369479 1.39179 0
M  V30 2654 H 241.929 -3.20311 2.73823 0
M  V30 2655 H 240.653 -2.88122 1.53796 0
M  V30 2656 H 239.312 -1.64551 3.27595 0
M  V30 2657 H 238.96 -4.09582 2.91979 0
M  V30 2658 H 238.66 -3.63732 4.6149 0
M  V30 2659 H 240.184 -4.45806 4.1724 0
M  V30 2660 H 241.598 -2.42886 5.19307 0
M  V30 2661 H 239.995 -1.83343 5.71407 0
M  V30 2662 H 241.065 -0.76528 4.78823 0
M  V30 2663 N 242.408 -1.52605 -0.393616 0
M  V30 2664 C 243.655 -1.67424 -1.1391 0
M  V30 2665 C 243.983 -0.411859 -1.90089 0
M  V30 2666 O 243.238 0.605626 -1.86093 0
M  V30 2667 C 243.537 -2.85721 -2.14705 0
M  V30 2668 C 243.203 -4.23342 -1.55218 0
M  V30 2669 C 241.865 -4.60771 -1.3872 0
M  V30 2670 C 244.217 -5.09041 -1.11924 0
M  V30 2671 C 241.545 -5.81563 -0.774689 0
M  V30 2672 C 243.897 -6.30452 -0.520853 0
M  V30 2673 C 242.561 -6.66617 -0.343134 0
M  V30 2674 H 241.831 -0.612648 -0.416826 0
M  V30 2675 H 244.478 -1.8674 -0.424315 0
M  V30 2676 H 242.783 -2.60803 -2.92385 0
M  V30 2677 H 244.48 -2.94382 -2.72288 0
M  V30 2678 H 241.07 -3.93855 -1.69045 0
M  V30 2679 H 245.254 -4.80695 -1.23473 0
M  V30 2680 H 240.51 -6.08196 -0.625154 0
M  V30 2681 H 244.684 -6.96175 -0.177065 0
M  V30 2682 H 242.311 -7.60083 0.133571 0
M  V30 2683 N 243.887 0.651787 -1.4349 0
M  V30 2684 C 245.164 1.40909 -1.35661 0
M  V30 2685 C 245.544 2.11099 -0.00511733 0
M  V30 2686 O 244.892 2.04892 1.0115 0
M  V30 2687 C 245.102 2.3926 -2.54078 0
M  V30 2688 C 246.45 3.03217 -2.97228 0
M  V30 2689 O 247.474 2.49588 -2.54135 0
M  V30 2690 O 246.333 4.00455 -3.71885 0
M  V30 2691 H 243.427 0.629625 -0.536191 0
M  V30 2692 H 245.973 0.678575 -1.55542 0
M  V30 2693 H 244.745 1.86352 -3.44076 0
M  V30 2694 H 244.368 3.1976 -2.36303 0
M  V30 2695 N 245.365 1.30045 0.890287 0
M  V30 2696 C 246.612 1.18561 1.64163 0
M  V30 2697 C 246.94 -0.260852 1.92743 0
M  V30 2698 O 246.195 -1.20376 1.54299 0
M  V30 2699 C 246.494 1.95409 2.99249 0
M  V30 2700 C 246.16 3.45066 2.90242 0
M  V30 2701 C 244.822 3.85878 2.87492 0
M  V30 2702 C 247.174 4.4039 2.78758 0
M  V30 2703 C 244.502 5.20314 2.7109 0
M  V30 2704 C 246.854 5.74928 2.63894 0
M  V30 2705 C 245.518 6.14986 2.59516 0
M  V30 2706 H 244.788 0.433846 0.600715 0
M  V30 2707 H 247.435 1.61088 1.03552 0
M  V30 2708 H 245.74 1.45501 3.63781 0
M  V30 2709 H 247.437 1.8392 3.56334 0
M  V30 2710 H 244.027 3.12631 2.93189 0
M  V30 2711 H 248.211 4.09806 2.79952 0
M  V30 2712 H 243.467 5.50449 2.66112 0
M  V30 2713 H 247.641 6.48434 2.53981 0
M  V30 2714 H 245.268 7.19104 2.46565 0
M  V30 2715 N 246.843 -1.10192 1.12674 0
M  V30 2716 C 248.12 -1.78717 0.794965 0
M  V30 2717 C 248.5 -1.98628 -0.714853 0
M  V30 2718 O 247.848 -1.58135 -1.64941 0
M  V30 2719 C 248.058 -3.11546 1.5729 0
M  V30 2720 C 249.406 -3.86382 1.76052 0
M  V30 2721 O 250.43 -3.21274 1.53823 0
M  V30 2722 O 249.289 -5.03246 2.13087 0
M  V30 2723 H 246.383 -0.774702 0.289423 0
M  V30 2724 H 248.929 -1.16819 1.23091 0
M  V30 2725 H 247.701 -2.92489 2.59935 0
M  V30 2726 H 247.324 -3.81164 1.13137 0
M  V30 2727 N 248.321 -0.919034 -1.28029 0
M  V30 2728 C 249.732 -0.600735 -1.76771 0
M  V30 2729 C 250.083 0.884024 -1.75156 0
M  V30 2730 O 249.208 1.69163 -1.34956 0
M  V30 2731 C 249.803 -1.08372 -3.21 0
M  V30 2732 C 248.362 -0.816248 -3.67443 0
M  V30 2733 C 247.509 -1.24742 -2.47658 0
M  V30 2734 H 250.46 -1.09974 -1.14418 0
M  V30 2735 H 250.481 -0.427512 -3.78091 0
M  V30 2736 H 249.993 -2.16437 -3.22144 0
M  V30 2737 H 248.094 0.250968 -3.71754 0
M  V30 2738 H 248.207 -1.4277 -4.57333 0
M  V30 2739 H 246.571 -0.666083 -2.45836 0
M  V30 2740 H 247.354 -2.33653 -2.51518 0
M  V30 2741 N 249.799 1.42003 -0.683588 0
M  V30 2742 C 250.731 2.29183 0.0283068 0
M  V30 2743 C 251.744 1.4415 0.756611 0
M  V30 2744 O 252.933 1.67779 0.609306 0
M  V30 2745 C 250.033 3.21765 1.06398 0
M  V30 2746 C 249.206 4.35496 0.407723 0
M  V30 2747 C 248.265 5.08737 1.34437 0
M  V30 2748 O 247.291 5.62948 0.841318 0
M  V30 2749 N 248.493 5.15075 2.67728 0
M  V30 2750 H 251.258 2.9092 -0.720105 0
M  V30 2751 H 248.819 1.53025 -0.528682 0
M  V30 2752 H 250.811 3.6763 1.69204 0
M  V30 2753 H 249.381 2.61418 1.71404 0
M  V30 2754 H 248.601 3.92165 -0.400012 0
M  V30 2755 H 249.889 5.08776 -0.0490956 0
M  V30 2756 H 249.287 4.72457 3.11129 0
M  V30 2757 H 247.844 5.64556 3.2576 0
M  V30 2758 N 251.277 0.427512 1.51691 0
M  V30 2759 C 252.187 -0.39527 2.31246 0
M  V30 2760 C 253.203 -1.03674 1.39742 0
M  V30 2761 O 254.379 -1.03425 1.72816 0
M  V30 2762 C 251.444 -1.48706 3.13189 0
M  V30 2763 C 250.505 -0.866743 4.20459 0
M  V30 2764 C 249.738 -1.90651 4.98486 0
M  V30 2765 O 249.961 -3.12733 4.77026 0
M  V30 2766 O 248.895 -1.5025 5.82845 0
M  V30 2767 H 252.721 0.253918 3.02637 0
M  V30 2768 H 250.306 0.190274 1.48183 0
M  V30 2769 H 252.188 -2.12047 3.64162 0
M  V30 2770 H 250.863 -2.12051 2.44573 0
M  V30 2771 H 249.77 -0.195544 3.73589 0
M  V30 2772 H 251.103 -0.276934 4.9142 0
M  V30 2773 N 252.755 -1.56801 0.158532 0
M  V30 2774 C 254.032 -1.88131 -0.535357 0
M  V30 2775 C 254.412 -1.06638 -1.82186 0
M  V30 2776 O 253.76 -0.156533 -2.27963 0
M  V30 2777 C 253.97 -3.39949 -0.789653 0
M  V30 2778 C 255.318 -4.09416 -1.12533 0
M  V30 2779 O 256.342 -3.45194 -0.878622 0
M  V30 2780 O 255.201 -5.22855 -1.59014 0
M  V30 2781 H 252.295 -0.780143 -0.27442 0
M  V30 2782 H 254.841 -1.68564 0.19601 0
M  V30 2783 H 253.613 -3.91115 0.120353 0
M  V30 2784 H 253.236 -3.65084 -1.57479 0
M  V30 2785 N 254.233 0.115231 -1.57178 0
M  V30 2786 C 255.481 0.820727 -1.84685 0
M  V30 2787 C 255.802 1.80237 -0.744279 0
M  V30 2788 O 255.072 1.94529 0.231375 0
M  V30 2789 H 253.652 0.306084 -0.681411 0
M  V30 2790 H 256.314 0.101656 -1.94635 0
M  V30 2791 H 255.41 1.36366 -2.80733 0
M  V30 2792 N 255.711 1.52812 0.385517 0
M  V30 2793 C 256.621 1.80766 1.49535 0
M  V30 2794 C 257.637 0.694651 1.59532 0
M  V30 2795 O 258.813 0.982611 1.75803 0
M  V30 2796 C 255.878 1.97381 2.85029 0
M  V30 2797 C 254.939 3.21295 2.84724 0
M  V30 2798 C 254.172 3.37108 4.13756 0
M  V30 2799 O 254.395 2.5765 5.08893 0
M  V30 2800 O 253.329 4.30378 4.20783 0
M  V30 2801 H 257.155 2.75015 1.28842 0
M  V30 2802 H 254.74 1.37946 0.573697 0
M  V30 2803 H 256.622 2.09996 3.65349 0
M  V30 2804 H 255.297 1.06322 3.05741 0
M  V30 2805 H 254.204 3.1412 2.03174 0
M  V30 2806 H 255.537 4.12212 2.68965 0
M  V30 2807 N 257.189 -0.644168 1.43834 0
M  V30 2808 C 258.119 -1.76814 1.52509 0
M  V30 2809 C 259.1 -1.65823 0.379052 0
M  V30 2810 O 260.285 -1.84781 0.597466 0
M  V30 2811 C 257.415 -3.15288 1.4564 0
M  V30 2812 C 256.369 -3.41053 2.58586 0
M  V30 2813 C 255.695 -4.79421 2.36769 0
M  V30 2814 C 256.995 -3.34902 4.00797 0
M  V30 2815 H 258.689 -1.69812 2.46586 0
M  V30 2816 H 256.235 -0.815542 1.1868 0
M  V30 2817 H 258.188 -3.93681 1.50311 0
M  V30 2818 H 256.912 -3.23043 0.480725 0
M  V30 2819 H 255.571 -2.65035 2.53282 0
M  V30 2820 H 255.219 -4.83863 1.37424 0
M  V30 2821 H 254.919 -4.9762 3.12487 0
M  V30 2822 H 256.443 -5.6006 2.43238 0
M  V30 2823 H 257.857 -4.03218 4.07539 0
M  V30 2824 H 256.254 -3.64637 4.76613 0
M  V30 2825 H 257.324 -2.32928 4.25291 0
M  V30 2826 N 258.668 -1.30515 -0.883378 0
M  V30 2827 C 259.916 -1.19194 -1.63209 0
M  V30 2828 C 260.237 0.253205 -1.93349 0
M  V30 2829 O 259.507 1.17025 -1.57105 0
M  V30 2830 H 258.087 -0.438148 -0.605009 0
M  V30 2831 H 260.749 -1.63663 -1.05832 0
M  V30 2832 H 259.845 -1.75396 -2.58153 0
M  V30 2833 N 260.146 1.09593 -1.13257 0
M  V30 2834 C 261.393 1.81734 -0.893257 0
M  V30 2835 C 261.721 1.8563 0.580656 0
M  V30 2836 O 260.976 1.31906 1.44566 0
M  V30 2837 C 261.275 3.27802 -1.42411 0
M  V30 2838 C 260.941 3.44041 -2.91456 0
M  V30 2839 C 259.603 3.48181 -3.3215 0
M  V30 2840 C 261.955 3.48719 -3.87356 0
M  V30 2841 C 259.283 3.54575 -4.67433 0
M  V30 2842 C 261.635 3.56648 -5.2248 0
M  V30 2843 C 260.299 3.59055 -5.62704 0
M  V30 2844 H 259.569 0.665011 -0.326866 0
M  V30 2845 H 262.216 1.2912 -1.41422 0
M  V30 2846 H 260.521 3.83042 -0.823795 0
M  V30 2847 H 262.218 3.82149 -1.21503 0
M  V30 2848 H 258.808 3.41502 -2.58987 0
M  V30 2849 H 262.992 3.44763 -3.57004 0
M  V30 2850 H 258.248 3.54725 -4.97976 0
M  V30 2851 H 262.422 3.59212 -5.96607 0
M  V30 2852 H 260.049 3.63763 -6.67518 0
M  V30 2853 N 261.624 0.925811 1.2754 0
M  V30 2854 C 263.04 0.625767 1.46821 0
M  V30 2855 C 263.24 -0.825506 1.83814 0
M  V30 2856 O 262.296 -1.60356 1.95044 0
M  V30 2857 C 263.609 1.57402 2.56213 0
M  V30 2858 C 265.157 1.58204 2.70075 0
M  V30 2859 C 265.632 2.51721 3.82623 0
M  V30 2860 N 267.123 2.49917 3.89994 0
M  V30 2861 C 267.858 3.18968 4.76494 0
M  V30 2862 N 267.354 3.97391 5.67496 0
M  V30 2863 N 269.147 3.07996 4.70208 0
M  V30 2864 H 261.298 1.86409 1.01811 0
M  V30 2865 H 263.561 0.800213 0.508295 0
M  V30 2866 H 263.267 2.60925 2.35819 0
M  V30 2867 H 263.141 1.31428 3.53563 0
M  V30 2868 H 265.528 0.554124 2.89851 0
M  V30 2869 H 265.609 1.88226 1.73218 0
M  V30 2870 H 265.253 3.54622 3.63601 0
M  V30 2871 H 265.183 2.18996 4.78903 0
M  V30 2872 H 267.674 1.9296 3.24923 0
M  V30 2873 H 267.987 4.4707 6.30356 0
M  V30 2874 H 266.332 4.01495 5.67298 0
M  V30 2875 H 269.523 2.46223 3.9811 0
M  V30 2876 H 269.696 3.6208 5.37403 0
M  V30 2877 N 263.102 -1.41638 0.69111 0
M  V30 2878 C 264.518 -1.55435 0.362224 0
M  V30 2879 C 264.718 -1.66754 -1.13117 0
M  V30 2880 O 263.774 -1.64348 -1.91692 0
M  V30 2881 C 265.087 -2.79588 1.10684 0
M  V30 2882 C 266.635 -2.9338 1.09075 0
M  V30 2883 C 267.11 -4.20414 1.81703 0
M  V30 2884 N 268.601 -4.27362 1.7865 0
M  V30 2885 C 269.336 -5.24507 2.31689 0
M  V30 2886 N 268.832 -6.27708 2.93179 0
M  V30 2887 N 270.625 -5.16416 2.2197 0
M  V30 2888 H 262.776 -1.32536 1.65976 0
M  V30 2889 H 265.039 -0.639115 0.700168 0
M  V30 2890 H 264.745 -2.77419 2.16175 0
M  V30 2891 H 264.619 -3.70973 0.682545 0
M  V30 2892 H 267.006 -2.95067 0.0441238 0
M  V30 2893 H 267.087 -2.0318 1.55407 0
M  V30 2894 H 266.731 -4.19488 2.86343 0
M  V30 2895 H 266.661 -5.09578 1.32808 0
M  V30 2896 H 269.152 -3.53415 1.33815 0
M  V30 2897 H 269.465 -6.98217 3.31229 0
M  V30 2898 H 267.81 -6.28223 2.97255 0
M  V30 2899 H 271.001 -4.34716 1.73607 0
M  V30 2900 H 271.174 -5.91958 2.63609 0
M  V30 2901 N 264.58 -0.43555 -1.51462 0
M  V30 2902 C 265.828 0.131254 -2.01673 0
M  V30 2903 C 266.149 1.43368 -1.32177 0
M  V30 2904 O 265.419 1.90524 -0.455769 0
M  V30 2905 H 263.999 0.0514954 -0.745223 0
M  V30 2906 H 266.661 -0.577847 -1.86137 0
M  V30 2907 H 265.757 0.308446 -3.10572 0
M  V30 2908 N 266.058 1.56714 -0.166846 0
M  V30 2909 C 267.335 1.88412 0.525373 0
M  V30 2910 C 267.715 1.07602 1.81618 0
M  V30 2911 O 267.063 0.168621 2.27877 0
M  V30 2912 C 267.273 3.40363 0.771613 0
M  V30 2913 C 268.621 4.10007 1.1036 0
M  V30 2914 O 269.645 3.45655 0.860304 0
M  V30 2915 O 268.504 5.2369 1.56239 0
M  V30 2916 H 265.598 0.781587 0.270278 0
M  V30 2917 H 268.144 1.68458 -0.204946 0
M  V30 2918 H 266.916 3.91046 -0.141093 0
M  V30 2919 H 266.539 3.65914 1.55541 0
M  V30 2920 N 267.536 -0.106894 1.57237 0
M  V30 2921 C 268.783 -0.812526 1.85484 0
M  V30 2922 C 269.111 -1.79304 0.753687 0
M  V30 2923 O 268.366 -1.94047 -0.253853 0
M  V30 2924 C 268.665 -1.58628 3.20268 0
M  V30 2925 C 268.331 -0.748967 4.44636 0
M  V30 2926 C 266.993 -0.518104 4.78403 0
M  V30 2927 C 269.345 -0.166122 5.20935 0
M  V30 2928 C 266.673 0.305659 5.85903 0
M  V30 2929 C 269.025 0.644899 6.29304 0
M  V30 2930 C 267.689 0.885965 6.61594 0
M  V30 2931 H 266.959 -0.297324 0.678734 0
M  V30 2932 H 269.606 -0.0744332 1.91355 0
M  V30 2933 H 267.911 -2.39562 3.10028 0
M  V30 2934 H 269.608 -2.13643 3.39349 0
M  V30 2935 H 266.198 -0.939006 4.18187 0
M  V30 2936 H 270.382 -0.33167 4.95191 0
M  V30 2937 H 265.638 0.501528 6.0934 0
M  V30 2938 H 269.812 1.10345 6.87602 0
M  V30 2939 H 267.439 1.52609 7.44725 0
M  V30 2940 N 269.014 -1.53014 -0.377408 0
M  V30 2941 C 270.263 -1.67845 -1.11853 0
M  V30 2942 C 270.576 -0.430625 -1.90801 0
M  V30 2943 O 271.782 -0.459261 -2.67587 0
M  V30 2944 C 270.238 -2.96668 -2.03756 0
M  V30 2945 C 269.846 -4.28671 -1.30175 0
M  V30 2946 C 271.59 -3.20865 -2.77932 0
M  V30 2947 C 269.497 -5.48591 -2.20911 0
M  V30 2948 H 268.427 -0.625343 -0.421263 0
M  V30 2949 H 271.078 -1.79514 -0.380409 0
M  V30 2950 H 269.46 -2.78773 -2.8125 0
M  V30 2951 H 270.634 -4.57157 -0.578259 0
M  V30 2952 H 268.949 -4.10825 -0.679108 0
M  V30 2953 H 271.546 -4.07642 -3.46024 0
M  V30 2954 H 271.889 -2.36424 -3.4265 0
M  V30 2955 H 272.422 -3.39379 -2.07525 0
M  V30 2956 H 269.161 -6.35474 -1.6079 0
M  V30 2957 H 268.681 -5.244 -2.91144 0
M  V30 2958 H 270.36 -5.8292 -2.80736 0
M  V30 2959 N 270.492 0.636531 -1.44174 0
M  V30 2960 C 271.442 1.74233 -1.47061 0
M  V30 2961 C 272.426 1.57331 -0.337034 0
M  V30 2962 O 273.618 1.67159 -0.581973 0
M  V30 2963 C 270.747 3.12897 -1.41246 0
M  V30 2964 C 269.833 3.35288 -2.59698 0
M  V30 2965 N 270.224 3.2807 -3.84972 0
M  V30 2966 C 268.522 3.66065 -2.54778 0
M  V30 2967 C 269.223 3.51001 -4.63867 0
M  V30 2968 N 268.199 3.73616 -3.94857 0
M  V30 2969 H 272.001 1.67103 -2.41773 0
M  V30 2970 H 269.515 0.838806 -1.3906 0
M  V30 2971 H 271.512 3.92189 -1.41398 0
M  V30 2972 H 270.172 3.21197 -0.47569 0
M  V30 2973 H 271.183 3.07109 -4.17019 0
M  V30 2974 H 267.86 3.81379 -1.6987 0
M  V30 2975 H 269.25 3.51059 -5.72894 0
M  V30 2976 N 271.97 1.30982 0.876444 0
M  V30 2977 C 273.216 1.20474 1.63138 0
M  V30 2978 C 273.549 -0.238096 1.92735 0
M  V30 2979 O 272.824 -1.1692 1.55435 0
M  V30 2980 C 273.107 2.04244 2.96574 0
M  V30 2981 C 272.96 3.56793 2.73896 0
M  V30 2982 C 274.279 1.88684 3.97601 0
M  V30 2983 H 271.398 0.439001 0.591985 0
M  V30 2984 H 274.04 1.60704 1.01361 0
M  V30 2985 H 272.19 1.70063 3.493 0
M  V30 2986 H 273.862 4.01077 2.27892 0
M  V30 2987 H 272.105 3.80548 2.08245 0
M  V30 2988 H 272.776 4.10706 3.68815 0
M  V30 2989 H 275.252 2.18584 3.54062 0
M  V30 2990 H 274.128 2.4961 4.88862 0
M  V30 2991 H 274.389 0.848343 4.33884 0
M  V30 2992 N 273.449 -1.08991 1.13837 0
M  V30 2993 C 274.382 -2.15049 0.763477 0
M  V30 2994 C 275.36 -1.60629 -0.252398 0
M  V30 2995 O 276.544 -1.87958 -0.142853 0
M  V30 2996 C 273.671 -3.38441 0.132545 0
M  V30 2997 C 272.717 -4.11596 1.11763 0
M  V30 2998 S 273.55 -4.6521 2.65216 0
M  V30 2999 C 274.706 -5.91896 2.03495 0
M  V30 3000 H 274.939 -2.46518 1.66182 0
M  V30 3001 H 272.472 -1.21008 0.958976 0
M  V30 3002 H 274.43 -4.09883 -0.225074 0
M  V30 3003 H 273.091 -3.05182 -0.743135 0
M  V30 3004 H 272.284 -5.00121 0.624076 0
M  V30 3005 H 271.886 -3.46038 1.41894 0
M  V30 3006 H 274.178 -6.63156 1.38675 0
M  V30 3007 H 275.121 -6.45938 2.9012 0
M  V30 3008 H 275.529 -5.44625 1.48471 0
M  V30 3009 N 274.927 -0.932562 -1.27047 0
M  V30 3010 C 276.204 -0.49377 -1.89265 0
M  V30 3011 C 276.584 1.02833 -1.8436 0
M  V30 3012 O 275.932 1.88461 -1.29209 0
M  V30 3013 C 276.142 -1.04536 -3.32976 0
M  V30 3014 C 277.49 -1.10879 -4.09867 0
M  V30 3015 O 278.514 -0.995327 -3.42011 0
M  V30 3016 O 277.373 -1.28417 -5.31198 0
M  V30 3017 H 274.467 -0.159596 -0.811454 0
M  V30 3018 H 277.013 -1.02457 -1.3528 0
M  V30 3019 H 275.785 -2.08913 -3.30864 0
M  V30 3020 H 275.408 -0.496494 -3.94488 0
M  V30 3021 N 276.405 1.4127 -0.698611 0
M  V30 3022 C 277.353 2.32588 -0.023855 0
M  V30 3023 C 278.347 1.51128 0.765292 0
M  V30 3024 O 279.553 1.67043 0.670571 0
M  V30 3025 H 275.928 0.751918 0.0110871 0
M  V30 3026 H 277.899 2.87167 -0.811031 0
M  V30 3027 C 276.648 3.35947 0.896369 0
M  V30 3028 H 275.971 3.98684 0.298548 0
M  V30 3029 H 277.411 4.02376 1.33676 0
M  V30 3030 C 275.87 2.70076 2.01396 0
M  V30 3031 O 276.4 2.55093 3.10307 0
M  V30 3032 N 274.606 2.28724 1.79259 0
M  V30 3033 H 274.153 2.4111 0.906841 0
M  V30 3034 H 274.111 1.84986 2.54219 0
M  V30 3035 N 277.883 0.443576 1.51229 0
M  V30 3036 C 279.108 -0.121648 2.07043 0
M  V30 3037 C 279.533 -1.35156 1.30823 0
M  V30 3038 O 278.891 -1.7793 0.347934 0
M  V30 3039 C 278.939 -0.41624 3.5819 0
M  V30 3040 O 278.043 -1.50163 3.8409 0
M  V30 3041 H 277.384 0.000871367 0.663999 0
M  V30 3042 H 279.914 0.626706 1.94765 0
M  V30 3043 H 279.924 -0.664867 4.02546 0
M  V30 3044 H 278.599 0.482653 4.1309 0
M  V30 3045 H 277.176 -1.24248 3.51592 0
M  V30 3046 N 279.361 -1.56624 0.175154 0
M  V30 3047 C 280.638 -1.88688 -0.515373 0
M  V30 3048 C 281.018 -1.08564 -1.81044 0
M  V30 3049 O 280.366 -0.180703 -2.27784 0
M  V30 3050 C 280.576 -3.40768 -0.753552 0
M  V30 3051 C 281.924 -4.10587 -1.08184 0
M  V30 3052 O 282.948 -3.46106 -0.841961 0
M  V30 3053 O 281.807 -5.24512 -1.53459 0
M  V30 3054 H 278.901 -0.78301 -0.26613 0
M  V30 3055 H 281.447 -1.68347 0.213877 0
M  V30 3056 H 280.219 -3.90965 0.161829 0
M  V30 3057 H 279.842 -3.66733 -1.53598 0
M  V30 3058 N 280.839 0.0985539 -1.57292 0
M  V30 3059 C 282.25 0.653457 -1.74891 0
M  V30 3060 C 282.601 1.7929 -0.796838 0
M  V30 3061 O 281.726 2.16385 0.0254886 0
M  V30 3062 C 282.321 1.19216 -3.17133 0
M  V30 3063 C 280.88 1.69316 -3.36168 0
M  V30 3064 C 280.027 0.601294 -2.70702 0
M  V30 3065 H 282.978 -0.127497 -1.58187 0
M  V30 3066 H 282.999 2.06154 -3.19814 0
M  V30 3067 H 282.511 0.362635 -3.86402 0
M  V30 3068 H 280.612 2.5468 -2.71972 0
M  V30 3069 H 280.725 1.78853 -4.44464 0
M  V30 3070 H 279.089 1.0399 -2.32504 0
M  V30 3071 H 279.872 -0.217592 -3.4261 0
M  V30 3072 N 282.317 1.53212 0.369288 0
M  V30 3073 C 283.265 1.80054 1.47253 0
M  V30 3074 C 284.259 0.669456 1.55611 0
M  V30 3075 O 285.465 0.852328 1.58541 0
M  V30 3076 H 281.84 0.570034 0.490475 0
M  V30 3077 H 283.811 2.72403 1.21817 0
M  V30 3078 C 282.56 2.00403 2.84137 0
M  V30 3079 H 281.883 2.86876 2.78464 0
M  V30 3080 H 283.323 2.23164 3.60519 0
M  V30 3081 C 281.782 0.782081 3.27697 0
M  V30 3082 O 282.312 -0.0310205 4.01688 0
M  V30 3083 N 280.518 0.606573 2.84199 0
M  V30 3084 H 280.065 1.26939 2.24152 0
M  V30 3085 H 280.023 -0.20962 3.137 0
M  V30 3086 N 283.795 -0.628877 1.44509 0
M  V30 3087 C 285.041 -1.38863 1.48623 0
M  V30 3088 C 285.396 -1.92038 0.117933 0
M  V30 3089 O 284.689 -1.70853 -0.86716 0
M  V30 3090 C 284.883 -2.56995 2.48371 0
M  V30 3091 C 284.712 -2.15385 3.94765 0
M  V30 3092 C 283.482 -2.02558 4.62924 0
M  V30 3093 C 285.68 -1.74158 4.83915 0
M  V30 3094 N 283.662 -1.54534 5.94132 0
M  V30 3095 C 285.033 -1.37396 6.04584 0
M  V30 3096 C 287.088 -1.61559 4.7096 0
M  V30 3097 C 285.791 -0.892948 7.13736 0
M  V30 3098 C 287.817 -1.14862 5.80139 0
M  V30 3099 C 287.179 -0.790516 6.9995 0
M  V30 3100 H 283.278 -0.502858 0.59888 0
M  V30 3101 H 285.862 -0.72121 1.8085 0
M  V30 3102 H 284.033 -3.21362 2.1813 0
M  V30 3103 H 285.765 -3.23801 2.42766 0
M  V30 3104 H 282.52 -2.23082 4.1777 0
M  V30 3105 H 282.944 -1.32815 6.63844 0
M  V30 3106 H 287.586 -1.87876 3.78764 0
M  V30 3107 H 285.304 -0.617291 8.05739 0
M  V30 3108 H 288.89 -1.05569 5.72142 0
M  V30 3109 H 287.77 -0.434713 7.82994 0
M  V30 3110 N 285.273 -1.31445 -0.869486 0
M  V30 3111 C 286.519 -1.22347 -1.62489 0
M  V30 3112 C 286.874 0.216204 -1.91181 0
M  V30 3113 O 286.167 1.14977 -1.53268 0
M  V30 3114 C 286.361 -2.00145 -2.96102 0
M  V30 3115 C 286.19 -3.51531 -2.80456 0
M  V30 3116 C 284.96 -4.20882 -2.79618 0
M  V30 3117 C 287.158 -4.46471 -2.5528 0
M  V30 3118 N 285.14 -5.58421 -2.55027 0
M  V30 3119 C 286.511 -5.71682 -2.39957 0
M  V30 3120 C 288.566 -4.35892 -2.40629 0
M  V30 3121 C 287.269 -6.87511 -2.11472 0
M  V30 3122 C 289.295 -5.51505 -2.13532 0
M  V30 3123 C 288.657 -6.75707 -1.98998 0
M  V30 3124 H 284.756 -0.502815 -0.598917 0
M  V30 3125 H 287.34 -1.65639 -1.02332 0
M  V30 3126 H 285.511 -1.59221 -3.54264 0
M  V30 3127 H 287.243 -1.83063 -3.60929 0
M  V30 3128 H 283.998 -3.72857 -2.92018 0
M  V30 3129 H 284.422 -6.30841 -2.45701 0
M  V30 3130 H 289.064 -3.40533 -2.50593 0
M  V30 3131 H 286.782 -7.82897 -2.00245 0
M  V30 3132 H 290.368 -5.45238 -2.02995 0
M  V30 3133 H 289.248 -7.63655 -1.78326 0
M  V30 3134 N 286.751 1.08385 -1.14413 0
M  V30 3135 C 287.698 2.15311 -0.831265 0
M  V30 3136 C 288.668 1.64751 0.211292 0
M  V30 3137 O 289.853 1.90627 0.0811674 0
M  V30 3138 C 286.993 3.43658 -0.315143 0
M  V30 3139 C 286.106 4.08064 -1.41802 0
M  V30 3140 C 285.241 5.24207 -0.859126 0
M  V30 3141 C 284.28 5.80554 -1.93967 0
M  V30 3142 N 283.417 6.88042 -1.39793 0
M  V30 3143 H 288.257 2.41415 -1.74708 0
M  V30 3144 H 285.794 1.18474 -0.871909 0
M  V30 3145 H 287.752 4.172 0.00230884 0
M  V30 3146 H 286.382 3.17839 0.56378 0
M  V30 3147 H 285.434 3.3228 -1.85187 0
M  V30 3148 H 286.746 4.45962 -2.23427 0
M  V30 3149 H 285.9 6.04689 -0.49359 0
M  V30 3150 H 284.639 4.87699 -0.011932 0
M  V30 3151 H 283.644 4.98725 -2.31415 0
M  V30 3152 H 284.869 6.19121 -2.79046 0
M  V30 3153 H 282.815 6.53493 -0.572919 0
M  V30 3154 H 282.732 7.24767 -2.15054 0
M  V30 3155 H 284 7.72255 -1.0603 0
M  V30 3156 N 288.23 0.939286 1.26551 0
M  V30 3157 C 289.478 0.58469 1.93457 0
M  V30 3158 C 289.799 -0.878774 1.74076 0
M  V30 3159 O 289.069 -1.62421 1.09528 0
M  V30 3160 H 287.649 0.21325 0.715914 0
M  V30 3161 H 290.311 1.1942 1.54029 0
M  V30 3162 H 289.407 0.800849 3.0165 0
M  V30 3163 N 289.708 -1.40897 0.706093 0
M  V30 3164 C 290.671 -2.29131 0.0562841 0
M  V30 3165 C 291.671 -1.44901 -0.697166 0
M  V30 3166 O 292.861 -1.65926 -0.530484 0
M  V30 3167 C 289.993 -3.27957 -0.93043 0
M  V30 3168 H 291.186 -2.88091 0.833284 0
M  V30 3169 H 288.739 -1.4906 0.470192 0
M  V30 3170 H 289.474 -2.73997 -1.73482 0
M  V30 3171 H 289.259 -3.90124 -0.393166 0
M  V30 3172 H 290.749 -3.94049 -1.38256 0
M  V30 3173 N 291.186 -0.45159 -1.50991 0
M  V30 3174 C 292.426 0.109066 -2.04109 0
M  V30 3175 C 292.79 1.38716 -1.32747 0
M  V30 3176 O 293.991 2.02896 -1.76314 0
M  V30 3177 C 292.262 0.308354 -3.56067 0
M  V30 3178 S 293.821 0.830369 -4.30872 0
M  V30 3179 H 290.639 0.0251531 -0.710555 0
M  V30 3180 H 293.241 -0.614264 -1.85599 0
M  V30 3181 H 291.945 -0.627962 -4.05567 0
M  V30 3182 H 291.476 1.05836 -3.78896 0
M  V30 3183 H 293.491 2.10626 -4.49279 0
M  V30 3184 N 292.664 1.56529 -0.183458 0
M  V30 3185 C 293.614 2.1515 0.754605 0
M  V30 3186 C 294.598 1.08904 1.18443 0
M  V30 3187 O 295.79 1.34997 1.14476 0
M  V30 3188 C 292.919 2.80531 1.97881 0
M  V30 3189 C 292.005 3.93952 1.57043 0
M  V30 3190 N 292.396 4.98221 0.87231 0
M  V30 3191 C 290.694 4.05338 1.86057 0
M  V30 3192 C 291.395 5.77836 0.669377 0
M  V30 3193 N 290.371 5.29858 1.21454 0
M  V30 3194 H 294.173 2.93132 0.212387 0
M  V30 3195 H 291.687 1.62391 0.0167725 0
M  V30 3196 H 293.684 3.20914 2.6612 0
M  V30 3197 H 292.344 2.04035 2.52586 0
M  V30 3198 H 293.355 5.15191 0.529033 0
M  V30 3199 H 290.032 3.39957 2.42354 0
M  V30 3200 H 291.422 6.71799 0.116422 0
M  V30 3201 N 294.142 -0.090211 1.57342 0
M  V30 3202 C 295.39 -0.791241 1.85967 0
M  V30 3203 C 295.711 -1.7903 0.772859 0
M  V30 3204 O 294.981 -1.94872 -0.200398 0
M  V30 3205 H 293.561 -0.295205 0.686195 0
M  V30 3206 H 296.223 -0.0706782 1.94772 0
M  V30 3207 H 295.319 -1.31882 2.82867 0
M  V30 3208 N 295.62 -1.53406 -0.361157 0
M  V30 3209 C 296.552 -1.76446 -1.46286 0
M  V30 3210 C 297.565 -0.645322 -1.49464 0
M  V30 3211 O 298.754 -0.921681 -1.52864 0
M  V30 3212 C 295.854 -1.83332 -2.85031 0
M  V30 3213 C 295.027 -3.13033 -3.05498 0
M  V30 3214 C 294.086 -3.11104 -4.24383 0
M  V30 3215 O 293.112 -3.84888 -4.19344 0
M  V30 3216 N 294.314 -2.32234 -5.32022 0
M  V30 3217 H 297.079 -2.71508 -1.26899 0
M  V30 3218 H 294.64 -1.52238 -0.550915 0
M  V30 3219 H 296.632 -1.79514 -3.62708 0
M  V30 3220 H 295.202 -0.955342 -2.97644 0
M  V30 3221 H 294.422 -3.30119 -2.15442 0
M  V30 3222 H 295.71 -3.9874 -3.16044 0
M  V30 3223 H 295.108 -1.71807 -5.38979 0
M  V30 3224 H 293.665 -2.3423 -6.08259 0
M  V30 3225 N 297.098 0.621204 -1.44841 0
M  V30 3226 C 298.326 1.40752 -1.51646 0
M  V30 3227 C 298.741 1.88246 -0.144549 0
M  V30 3228 O 298.098 1.61422 0.851416 0
M  V30 3229 C 298.149 2.62119 -2.4895 0
M  V30 3230 O 297.87 2.16602 -3.80808 0
M  V30 3231 C 299.371 3.55135 -2.65319 0
M  V30 3232 H 296.591 0.431325 -0.514004 0
M  V30 3233 H 299.135 0.758835 -1.899 0
M  V30 3234 H 297.29 3.23058 -2.13805 0
M  V30 3235 H 297.704 2.95358 -4.33433 0
M  V30 3236 H 299.178 4.36874 -3.37409 0
M  V30 3237 H 299.655 4.04592 -1.70886 0
M  V30 3238 H 300.261 3.00058 -3.01405 0
M  V30 3239 N 298.576 1.31904 0.862503 0
M  V30 3240 C 299.824 1.21776 1.61292 0
M  V30 3241 C 300.145 -0.222413 1.93727 0
M  V30 3242 O 299.415 -1.1451 1.58947 0
M  V30 3243 H 297.995 0.447717 0.597962 0
M  V30 3244 H 300.657 1.65326 1.03215 0
M  V30 3245 H 299.753 1.7948 2.5533 0
M  V30 3246 N 300.054 -1.07777 1.14986 0
M  V30 3247 C 300.987 -2.14228 0.786243 0
M  V30 3248 C 301.965 -1.60888 -0.235347 0
M  V30 3249 O 303.149 -1.88099 -0.122909 0
M  V30 3250 C 300.276 -3.38281 0.168433 0
M  V30 3251 C 299.322 -4.10387 1.16123 0
M  V30 3252 S 300.155 -4.62371 2.70135 0
M  V30 3253 C 301.311 -5.89704 2.09762 0
M  V30 3254 H 301.544 -2.44741 1.68787 0
M  V30 3255 H 299.077 -1.19984 0.971756 0
M  V30 3256 H 301.035 -4.10098 -0.181588 0
M  V30 3257 H 299.696 -3.05953 -0.710725 0
M  V30 3258 H 298.889 -4.99431 0.677086 0
M  V30 3259 H 298.491 -3.44513 1.45556 0
M  V30 3260 H 300.783 -6.61648 1.45701 0
M  V30 3261 H 301.726 -6.42824 2.96955 0
M  V30 3262 H 302.134 -5.4302 1.54239 0
M  V30 3263 N 301.532 -0.945985 -1.26051 0
M  V30 3264 C 302.779 -0.596118 -1.93527 0
M  V30 3265 C 303.107 0.865559 -1.74179 0
M  V30 3266 O 302.362 1.63524 -1.0751 0
M  V30 3267 C 302.661 -0.890475 -3.46129 0
M  V30 3268 C 302.327 -2.3368 -3.85622 0
M  V30 3269 C 300.989 -2.73216 -3.96114 0
M  V30 3270 C 303.341 -3.27648 -4.05334 0
M  V30 3271 C 300.669 -4.05806 -4.2372 0
M  V30 3272 C 303.021 -4.59841 -4.3443 0
M  V30 3273 C 301.685 -4.99185 -4.43137 0
M  V30 3274 H 300.955 -0.218135 -0.708165 0
M  V30 3275 H 303.602 -1.1934 -1.49768 0
M  V30 3276 H 301.907 -0.210711 -3.91233 0
M  V30 3277 H 303.604 -0.598478 -3.96509 0
M  V30 3278 H 300.194 -2.02015 -3.78005 0
M  V30 3279 H 304.378 -2.98298 -3.96651 0
M  V30 3280 H 299.634 -4.35945 -4.28675 0
M  V30 3281 H 303.808 -5.32641 -4.48628 0
M  V30 3282 H 301.435 -6.01952 -4.64282 0
M  V30 3283 N 303.011 1.40521 -0.713556 0
M  V30 3284 C 304.422 1.83853 -0.324807 0
M  V30 3285 C 304.773 1.59667 1.14021 0
M  V30 3286 O 303.898 1.07649 1.87725 0
M  V30 3287 C 304.493 3.33751 -0.582746 0
M  V30 3288 C 303.052 3.75584 -0.247727 0
M  V30 3289 C 302.199 2.63753 -0.856121 0
M  V30 3290 H 305.15 1.29817 -0.91286 0
M  V30 3291 H 305.171 3.80194 0.152682 0
M  V30 3292 H 304.683 3.51322 -1.64908 0
M  V30 3293 H 302.784 3.63608 0.813624 0
M  V30 3294 H 302.897 4.7373 -0.715307 0
M  V30 3295 H 301.261 2.53108 -0.28432 0
M  V30 3296 H 302.044 2.84137 -1.92668 0
M  V30 3297 N 304.489 0.459591 1.5075 0
M  V30 3298 C 305.905 0.113092 1.59199 0
M  V30 3299 C 306.105 -1.37951 1.46874 0
M  V30 3300 O 305.161 -2.15168 1.32132 0
M  V30 3301 C 306.474 0.653043 2.93523 0
M  V30 3302 C 308.022 0.615449 3.0689 0
M  V30 3303 C 308.497 1.13275 4.43771 0
M  V30 3304 N 309.988 1.09167 4.50152 0
M  V30 3305 C 310.723 1.46256 5.54434 0
M  V30 3306 N 310.219 1.90739 6.66026 0
M  V30 3307 N 312.012 1.37932 5.44914 0
M  V30 3308 H 304.163 1.43049 1.57005 0
M  V30 3309 H 306.426 0.590861 0.741341 0
M  V30 3310 H 306.132 1.69822 3.07983 0
M  V30 3311 H 306.006 0.0902132 3.77092 0
M  V30 3312 H 308.393 -0.420793 2.92084 0
M  V30 3313 H 308.474 1.21495 2.25106 0
M  V30 3314 H 308.118 2.16757 4.59324 0
M  V30 3315 H 308.048 0.509576 5.24129 0
M  V30 3316 H 310.539 0.76528 3.7007 0
M  V30 3317 H 310.852 2.17218 7.41644 0
M  V30 3318 H 309.197 1.94683 6.67176 0
M  V30 3319 H 312.388 1.0303 4.56621 0
M  V30 3320 H 312.561 1.67164 6.26067 0
M  V30 3321 N 305.967 -1.56429 0.191757 0
M  V30 3322 C 306.915 -2.20273 -0.747174 0
M  V30 3323 C 307.909 -1.17288 -1.22229 0
M  V30 3324 O 309.115 -1.35441 -1.18557 0
M  V30 3325 H 305.49 -0.705885 -0.259289 0
M  V30 3326 H 307.461 -2.97826 -0.184963 0
M  V30 3327 C 306.21 -2.87356 -1.95759 0
M  V30 3328 H 305.533 -3.66341 -1.60106 0
M  V30 3329 H 306.973 -3.3547 -2.59299 0
M  V30 3330 C 305.432 -1.88213 -2.79423 0
M  V30 3331 O 305.962 -1.38033 -3.7724 0
M  V30 3332 N 304.168 -1.56516 -2.44849 0
M  V30 3333 H 303.715 -1.97516 -1.65364 0
M  V30 3334 H 303.673 -0.904369 -3.01112 0
M  V30 3335 N 307.445 0.0818655 -1.57387 0
M  V30 3336 C 308.675 0.794954 -1.90694 0
M  V30 3337 C 309.083 1.72147 -0.784982 0
M  V30 3338 O 308.426 1.81974 0.251196 0
M  V30 3339 C 308.488 1.65042 -3.19376 0
M  V30 3340 C 308.152 0.894337 -4.48164 0
M  V30 3341 C 309.149 0.21813 -5.19442 0
M  V30 3342 C 306.834 0.864495 -4.94805 0
M  V30 3343 C 308.828 -0.477802 -6.35607 0
M  V30 3344 C 306.515 0.164785 -6.10878 0
M  V30 3345 C 307.513 -0.505173 -6.81129 0
M  V30 3346 O 307.201 -1.19363 -7.94989 0
M  V30 3347 H 306.933 0.231779 -0.635023 0
M  V30 3348 H 309.487 0.059493 -2.05314 0
M  V30 3349 H 307.717 2.42844 -3.00938 0
M  V30 3350 H 309.406 2.24127 -3.38411 0
M  V30 3351 H 310.172 0.232558 -4.84442 0
M  V30 3352 H 306.051 1.37542 -4.40004 0
M  V30 3353 H 309.595 -1.00129 -6.90377 0
M  V30 3354 H 305.492 0.148249 -6.4533 0
M  V30 3355 H 306.26 -1.10188 -8.11049 0
M  V30 3356 N 308.923 1.53595 0.353017 0
M  V30 3357 C 310.169 1.70638 1.09593 0
M  V30 3358 C 310.502 0.463286 1.88593 0
M  V30 3359 O 309.777 -0.539597 1.86865 0
M  V30 3360 C 310.06 2.96406 2.04489 0
M  V30 3361 C 309.913 4.30901 1.29014 0
M  V30 3362 C 311.232 3.17812 3.0444 0
M  V30 3363 H 308.351 0.620913 0.397034 0
M  V30 3364 H 310.993 1.86254 0.375446 0
M  V30 3365 H 309.143 2.83223 2.65927 0
M  V30 3366 H 310.815 4.55917 0.702638 0
M  V30 3367 H 309.058 4.29741 0.592071 0
M  V30 3368 H 309.729 5.1506 1.98537 0
M  V30 3369 H 312.205 3.30263 2.53112 0
M  V30 3370 H 311.081 4.07223 3.6805 0
M  V30 3371 H 311.342 2.33669 3.75301 0
M  V30 3372 N 310.401 -0.613514 1.45168 0
M  V30 3373 C 311.629 -1.39946 1.5239 0
M  V30 3374 C 312.044 -1.88167 0.154531 0
M  V30 3375 O 311.401 -1.61872 -0.842843 0
M  V30 3376 C 311.452 -2.60795 2.50337 0
M  V30 3377 O 311.173 -2.1458 3.81952 0
M  V30 3378 C 312.674 -3.53723 2.67198 0
M  V30 3379 H 309.894 -0.428593 0.516284 0
M  V30 3380 H 312.438 -0.748753 1.903 0
M  V30 3381 H 310.593 -3.21919 2.15515 0
M  V30 3382 H 311.007 -2.93055 4.34993 0
M  V30 3383 H 312.481 -4.35079 3.39721 0
M  V30 3384 H 312.958 -4.0368 1.73029 0
M  V30 3385 H 313.564 -2.98456 3.02992 0
M  V30 3386 N 311.879 -1.3236 -0.855495 0
M  V30 3387 C 313.29 -1.2056 -1.42556 0
M  V30 3388 C 313.641 0.182209 -1.95352 0
M  V30 3389 O 312.766 1.08088 -1.87472 0
M  V30 3390 C 313.361 -2.1826 -2.59129 0
M  V30 3391 C 311.92 -2.10351 -3.12137 0
M  V30 3392 C 311.067 -2.06674 -1.84882 0
M  V30 3393 H 314.018 -1.442 -0.662727 0
M  V30 3394 H 314.039 -1.78064 -3.36264 0
M  V30 3395 H 313.551 -3.19257 -2.20673 0
M  V30 3396 H 311.652 -1.12599 -3.55179 0
M  V30 3397 H 311.765 -3.00135 -3.73438 0
M  V30 3398 H 310.129 -1.51901 -2.04446 0
M  V30 3399 H 310.912 -3.09451 -1.48643 0
M  V30 3400 N 313.357 1.07166 -1.15556 0
M  V30 3401 C 314.603 1.80065 -0.932984 0
M  V30 3402 C 314.936 1.86586 0.53845 0
M  V30 3403 O 314.211 1.35098 1.39924 0
M  V30 3404 C 314.494 3.25022 -1.55025 0
M  V30 3405 C 314.347 3.26634 -3.09242 0
M  V30 3406 C 315.666 4.22341 -1.2376 0
M  V30 3407 H 312.785 0.653697 -0.340366 0
M  V30 3408 H 315.427 1.25389 -1.4275 0
M  V30 3409 H 313.577 3.71712 -1.12972 0
M  V30 3410 H 315.249 2.88173 -3.60214 0
M  V30 3411 H 313.492 2.65539 -3.43033 0
M  V30 3412 H 314.163 4.28854 -3.47546 0
M  V30 3413 H 316.639 3.8405 -1.60139 0
M  V30 3414 H 315.515 5.22053 -1.69564 0
M  V30 3415 H 315.776 4.41828 -0.154938 0
M  V30 3416 N 314.835 0.952656 1.25548 0
M  V30 3417 C 315.783 0.462354 2.27958 0
M  V30 3418 C 316.777 -0.46634 1.62855 0
M  V30 3419 O 317.983 -0.343287 1.76696 0
M  V30 3420 H 314.358 0.13101 0.7405 0
M  V30 3421 H 316.329 1.33839 2.66702 0
M  V30 3422 C 315.078 -0.24628 3.46827 0
M  V30 3423 H 314.401 0.459192 3.97154 0
M  V30 3424 H 315.841 -0.553393 4.20373 0
M  V30 3425 C 314.3 -1.4681 3.0323 0
M  V30 3426 O 314.83 -2.56591 3.09069 0
M  V30 3427 N 313.036 -1.32874 2.58443 0
M  V30 3428 H 312.583 -0.435536 2.53891 0
M  V30 3429 H 312.541 -2.14742 2.29637 0
M  V30 3430 N 316.313 -1.40141 0.720998 0
M  V30 3431 C 317.729 -1.54632 0.395113 0
M  V30 3432 C 317.929 -1.69115 -1.09555 0
M  V30 3433 O 316.985 -1.68377 -1.88163 0
M  V30 3434 C 318.298 -2.77177 1.1659 0
M  V30 3435 C 319.846 -2.91 1.15274 0
M  V30 3436 C 320.321 -4.16465 1.90579 0
M  V30 3437 N 321.812 -4.23476 1.87675 0
M  V30 3438 C 322.547 -5.19475 2.42762 0
M  V30 3439 N 322.043 -6.21348 3.06428 0
M  V30 3440 N 323.836 -5.11592 2.32874 0
M  V30 3441 H 315.987 -1.28986 1.68749 0
M  V30 3442 H 318.25 -0.62412 0.713567 0
M  V30 3443 H 317.956 -2.72771 2.22011 0
M  V30 3444 H 317.83 -3.69442 0.76108 0
M  V30 3445 H 320.217 -2.94907 0.106702 0
M  V30 3446 H 320.298 -1.99838 1.59682 0
M  V30 3447 H 319.942 -4.1332 2.95176 0
M  V30 3448 H 319.872 -5.06646 1.43587 0
M  V30 3449 H 322.363 -3.50497 1.41281 0
M  V30 3450 H 322.676 -6.91034 3.45965 0
M  V30 3451 H 321.021 -6.21777 3.10514 0
M  V30 3452 H 324.212 -4.30936 1.82789 0
M  V30 3453 H 324.385 -5.86233 2.76106 0
M  V30 3454 N 317.792 -0.46758 -1.50504 0
M  V30 3455 C 318.74 0.342482 -2.30065 0
M  V30 3456 C 319.734 0.993596 -1.37201 0
M  V30 3457 O 320.94 0.925102 -1.54408 0
M  V30 3458 H 317.315 0.129283 -0.740803 0
M  V30 3459 H 319.286 -0.34899 -2.96352 0
M  V30 3460 C 318.035 1.4139 -3.17654 0
M  V30 3461 H 317.358 0.922264 -3.89017 0
M  V30 3462 H 318.798 1.95335 -3.76325 0
M  V30 3463 C 317.257 2.4139 -2.35016 0
M  V30 3464 O 317.787 3.46586 -2.03079 0
M  V30 3465 N 315.993 2.13021 -1.97662 0
M  V30 3466 H 315.54 1.27499 -2.23834 0
M  V30 3467 H 315.498 2.80164 -1.42673 0
M  V30 3468 N 319.27 1.56325 -0.20005 0
M  V30 3469 C 320.516 1.98012 0.438059 0
M  V30 3470 C 320.849 1.08702 1.60927 0
M  V30 3471 O 320.124 0.140064 1.93995 0
M  V30 3472 C 320.407 3.48841 0.893419 0
M  V30 3473 C 320.26 4.48928 -0.279947 0
M  V30 3474 C 321.579 4.03498 1.75719 0
M  V30 3475 H 318.698 0.719918 0.157757 0
M  V30 3476 H 321.34 1.87743 -0.291968 0
M  V30 3477 H 319.49 3.57723 1.51547 0
M  V30 3478 H 321.162 4.52079 -0.91772 0
M  V30 3479 H 319.405 4.23694 -0.930919 0
M  V30 3480 H 320.076 5.5194 0.0812601 0
M  V30 3481 H 322.552 3.97427 1.23253 0
M  V30 3482 H 321.428 5.09393 2.04476 0
M  V30 3483 H 321.689 3.4906 2.71311 0
M  V30 3484 O 320.787 0.0630897 1.61377 0
M  V30 3485 H 321.478 -0.544463 1.85891 0
M  V30 END ATOM
M  V30 BEGIN BOND
M  V30 END BOND
M  V30 END CTAB
M  END
$$$$
