drugbank_target|P11766 Alcohol dehydrogenase class-3 (DB00157; DB03017; DB03704; DB04153)
 OpenBabel12092119223D

  0  0  0     0  0            999 V3000
M  V30 BEGIN CTAB
M  V30 COUNTS 5623 5674 0 0 0
M  V30 BEGIN ATOM
M  V30 1 H -0.908 1.98254 -0.117106 0
M  V30 2 N 0 1.576 0 0
M  V30 3 C 0.933 2.03868 1.02534 0
M  V30 4 C 1.911 0.928543 1.3348 0
M  V30 5 O 3.095 1.19667 1.45644 0
M  V30 6 C 0.222 2.43627 2.35294 0
M  V30 7 C -0.732 3.65373 2.2001 0
M  V30 8 S 0.101 5.13292 1.52614 0
M  V30 9 C 1.257 5.56322 2.86805 0
M  V30 10 H 1.49 2.90518 0.631377 0
M  V30 11 H -0.977 1.52953 0.210867 0
M  V30 12 H 0.981 2.67203 3.11629 0
M  V30 13 H -0.358 1.57376 2.7183 0
M  V30 14 H -1.165 3.90944 3.18086 0
M  V30 15 H -1.563 3.418 1.51819 0
M  V30 16 H 0.729 5.58782 3.83104 0
M  V30 17 H 1.672 6.56266 2.65933 0
M  V30 18 H 2.08 4.83886 2.90714 0
M  V30 19 N 1.4781 -0.272755 1.55222 0
M  V30 20 C 2.4411 -1.32041 1.87344 0
M  V30 21 C 3.4411 -1.42342 0.74803 0
M  V30 22 O 4.6311 -1.41488 1.0162 0
M  V30 23 C 1.7631 -2.70173 2.07893 0
M  V30 24 H 2.9561 -1.04789 2.80997 0
M  V30 25 H 0.5091 -0.51083 1.47717 0
M  V30 26 H 1.2441 -3.02605 1.16622 0
M  V30 27 H 1.0291 -2.64082 2.89833 0
M  V30 28 H 2.5191 -3.45869 2.34017 0
M  V30 29 N 2.9562 -1.48159 -0.537278 0
M  V30 30 C 3.9042 -1.62573 -1.66352 0
M  V30 31 C 4.8982 -0.492366 -1.62087 0
M  V30 32 O 6.1042 -0.670847 -1.67032 0
M  V30 33 H 2.4792 -0.511992 -0.550789 0
M  V30 34 H 4.4502 -2.57176 -1.51337 0
M  V30 35 C 3.1992 -1.67583 -3.04649 0
M  V30 36 H 2.5222 -2.54151 -3.08622 0
M  V30 37 H 3.9622 -1.81713 -3.83088 0
M  V30 38 C 2.4212 -0.413039 -3.34358 0
M  V30 39 O 2.9512 0.477259 -3.98855 0
M  V30 40 N 1.1572 -0.286961 -2.8918 0
M  V30 41 H 0.7042 -1.01241 -2.36871 0
M  V30 42 H 0.6622 0.556963 -3.09427 0
M  V30 43 N 4.4343 0.785586 -1.36625 0
M  V30 44 C 5.3443 1.92964 -1.33425 0
M  V30 45 C 6.3603 1.72394 -0.235851 0
M  V30 46 O 7.5363 1.95866 -0.468878 0
M  V30 47 C 4.6013 3.27884 -1.12662 0
M  V30 48 C 3.6623 3.61204 -2.32013 0
M  V30 49 C 2.8953 4.89687 -2.12231 0
M  V30 50 O 3.1183 5.59704 -1.09945 0
M  V30 51 O 2.0523 5.21752 -3.00098 0
M  V30 52 H 5.8783 1.98613 -2.29753 0
M  V30 53 H 3.4633 0.926384 -1.17211 0
M  V30 54 H 5.3453 4.08614 -1.03016 0
M  V30 55 H 4.0203 3.23118 -0.193991 0
M  V30 56 H 2.9273 2.80765 -2.47228 0
M  V30 57 H 4.2603 3.70698 -3.23796 0
M  V30 58 N 5.9124 1.20967 1.01018 0
M  V30 59 C 7.1584 1.02526 1.74975 0
M  V30 60 C 7.4914 -0.4408 1.89131 0
M  V30 61 O 6.7664 -1.32718 1.42184 0
M  V30 62 C 7.0494 1.71699 3.1653 0
M  V30 63 C 6.9024 3.25791 3.10129 0
M  V30 64 C 8.2214 1.45531 4.15342 0
M  V30 65 H 5.3404 0.373863 0.635134 0
M  V30 66 H 7.9824 1.49071 1.17805 0
M  V30 67 H 6.1324 1.32128 3.65341 0
M  V30 68 H 7.8044 3.74697 2.69072 0
M  V30 69 H 6.0474 3.56363 2.47362 0
M  V30 70 H 6.7184 3.69353 4.10222 0
M  V30 71 H 9.1944 1.79872 3.75213 0
M  V30 72 H 8.0704 1.96453 5.1254 0
M  V30 73 H 8.3314 0.384237 4.40427 0
M  V30 74 N 7.3905 -1.2043 1.01659 0
M  V30 75 C 8.6395 -1.89118 0.701237 0
M  V30 76 C 8.9525 -1.79705 -0.772358 0
M  V30 77 O 10.1585 -2.43528 -1.20026 0
M  V30 78 C 8.6145 -3.39168 1.20388 0
M  V30 79 C 8.2225 -3.57166 2.70438 0
M  V30 80 C 9.9665 -4.1341 0.963953 0
M  V30 81 C 7.8735 -5.01042 3.14183 0
M  V30 82 H 6.8035 -0.708267 0.2586 0
M  V30 83 H 9.4545 -1.36239 1.22927 0
M  V30 84 H 7.8365 -3.91369 0.603824 0
M  V30 85 H 9.0105 -3.15351 3.35992 0
M  V30 86 H 7.3255 -2.96294 2.92572 0
M  V30 87 H 9.9225 -5.19491 1.26621 0
M  V30 88 H 10.2655 -4.16181 -0.099578 0
M  V30 89 H 10.7985 -3.67309 1.52738 0
M  V30 90 H 7.5375 -5.03426 4.19812 0
M  V30 91 H 7.0575 -5.43668 2.53348 0
M  V30 92 H 8.7365 -5.69623 3.0682 0
M  V30 93 N 8.8686 -0.792821 -1.36206 0
M  V30 94 C 9.8156 -0.191653 -2.30003 0
M  V30 95 C 10.7856 0.666453 -1.52143 0
M  V30 96 O 11.9706 0.61442 -1.80636 0
M  V30 97 C 9.1106 0.664848 -3.38635 0
M  V30 98 C 8.2236 -0.212175 -4.31479 0
M  V30 99 C 7.3586 0.651022 -5.27196 0
M  V30 100 C 6.3976 -0.227247 -6.11678 0
M  V30 101 N 5.5346 0.595127 -6.99573 0
M  V30 102 H 10.3746 -0.996978 -2.80828 0
M  V30 103 H 7.9116 -0.503206 -1.38225 0
M  V30 104 H 9.8696 1.17645 -4.00269 0
M  V30 105 H 8.4996 1.43557 -2.89122 0
M  V30 106 H 7.5516 -0.841777 -3.70969 0
M  V30 107 H 8.8636 -0.888751 -4.90818 0
M  V30 108 H 8.0176 1.2283 -5.94136 0
M  V30 109 H 6.7566 1.36121 -4.68319 0
M  V30 110 H 5.7616 -0.816904 -5.43697 0
M  V30 111 H 6.9866 -0.93509 -6.72631 0
M  V30 112 H 4.9326 1.28955 -6.432 0
M  V30 113 H 4.8496 -0.0236952 -7.55996 0
M  V30 114 H 6.1176 1.15613 -7.70879 0
M  V30 115 N 10.3467 1.47872 -0.545128 0
M  V30 116 C 11.5867 2.04391 -0.0187854 0
M  V30 117 C 11.9507 1.41162 1.30144 0
M  V30 118 O 13.1517 1.88656 1.91474 0
M  V30 119 C 11.4227 3.57299 0.0850867 0
M  V30 120 S 12.9817 4.35221 0.559302 0
M  V30 121 H 9.7997 0.710737 -0.0193301 0
M  V30 122 H 12.4017 1.81395 -0.729125 0
M  V30 123 H 11.1057 4.00847 -0.880351 0
M  V30 124 H 10.6367 3.84773 0.819348 0
M  V30 125 H 12.6517 4.61571 1.82118 0
M  V30 126 N 11.8248 0.280983 1.55075 0
M  V30 127 C 12.7718 -0.603937 2.22758 0
M  V30 128 C 13.7418 -1.1452 1.20309 0
M  V30 129 O 14.9268 -1.19343 1.48869 0
M  V30 130 C 12.0668 -1.77947 2.95684 0
M  V30 131 C 11.1798 -1.2715 4.12864 0
M  V30 132 C 10.3148 -2.4093 4.7342 0
M  V30 133 C 9.3538 -1.87165 5.82783 0
M  V30 134 N 8.4908 -2.94441 6.37377 0
M  V30 135 H 13.3308 -0.020124 2.97993 0
M  V30 136 H 10.8678 0.00183425 1.471 0
M  V30 137 H 12.8258 -2.47055 3.36184 0
M  V30 138 H 11.4558 -2.33522 2.22861 0
M  V30 139 H 10.5078 -0.473331 3.77444 0
M  V30 140 H 11.8198 -0.837751 4.91715 0
M  V30 141 H 10.9738 -3.18021 5.1667 0
M  V30 142 H 9.7128 -2.87623 3.93859 0
M  V30 143 H 8.7178 -1.08556 5.38976 0
M  V30 144 H 9.9428 -1.41401 6.64216 0
M  V30 145 H 7.8888 -3.40505 5.60707 0
M  V30 146 H 7.8058 -2.55501 7.11516 0
M  V30 147 H 9.0738 -3.71489 6.85285 0
M  V30 148 N 13.3029 -1.57598 0.00835791 0
M  V30 149 C 14.2659 -2.07884 -0.965242 0
M  V30 150 C 15.2659 -0.989825 -1.26725 0
M  V30 151 O 16.4559 -1.25218 -1.21104 0
M  V30 152 C 13.5879 -2.52731 -2.28779 0
M  V30 153 H 14.7809 -2.95178 -0.530112 0
M  V30 154 H 12.3339 -1.54458 -0.239283 0
M  V30 155 H 13.0689 -1.68705 -2.76964 0
M  V30 156 H 12.8539 -3.32272 -2.08177 0
M  V30 157 H 14.3439 -2.91933 -2.98605 0
M  V30 158 N 14.781 0.264519 -1.55364 0
M  V30 159 C 15.744 1.31046 -1.88042 0
M  V30 160 C 16.744 1.41943 -0.755569 0
M  V30 161 O 17.934 1.40947 -1.02369 0
M  V30 162 C 15.066 2.69067 -2.09323 0
M  V30 163 H 16.259 1.03297 -2.81549 0
M  V30 164 H 13.812 0.502989 -1.47986 0
M  V30 165 H 14.547 3.01982 -1.18226 0
M  V30 166 H 14.332 2.62542 -2.91229 0
M  V30 167 H 15.822 3.44623 -2.35848 0
M  V30 168 N 16.2591 1.48442 0.529413 0
M  V30 169 C 17.5051 1.5672 1.28711 0
M  V30 170 C 17.8381 0.2406 1.92704 0
M  V30 171 O 17.1131 -0.753454 1.79313 0
M  V30 172 C 17.3961 2.70587 2.37603 0
M  V30 173 C 17.2491 4.12953 1.78297 0
M  V30 174 C 18.5681 2.80212 3.39366 0
M  V30 175 H 15.6871 0.570474 0.466613 0
M  V30 176 H 18.3291 1.80617 0.589706 0
M  V30 177 H 16.4791 2.50342 2.97088 0
M  V30 178 H 18.1511 4.44639 1.22858 0
M  V30 179 H 16.3941 4.19927 1.0883 0
M  V30 180 H 17.0651 4.88448 2.57144 0
M  V30 181 H 19.5411 2.98553 2.89836 0
M  V30 182 H 18.4171 3.61611 4.12951 0
M  V30 183 H 18.6781 1.88393 3.99951 0
M  V30 184 N 17.7372 -0.778329 1.37039 0
M  V30 185 C 18.7002 -1.87301 1.32102 0
M  V30 186 C 19.7002 -1.59198 0.226405 0
M  V30 187 O 20.8902 -1.67403 0.481861 0
M  V30 188 C 18.0222 -3.24309 1.05055 0
M  V30 189 H 19.2152 -1.93093 2.29467 0
M  V30 190 H 16.7682 -0.977358 1.21973 0
M  V30 191 H 17.5032 -3.24196 0.0819373 0
M  V30 192 H 17.2882 -3.46098 1.84279 0
M  V30 193 H 18.7782 -4.04382 1.04234 0
M  V30 194 N 19.2153 -1.21501 -1.00376 0
M  V30 195 C 20.4613 -1.04457 -1.74529 0
M  V30 196 C 20.8163 0.417386 -1.87818 0
M  V30 197 O 20.1093 1.30556 -1.40234 0
M  V30 198 C 20.3033 -1.67673 -3.15627 0
M  V30 199 C 20.1323 -3.19865 -3.16096 0
M  V30 200 C 18.9023 -3.88915 -3.22604 0
M  V30 201 C 21.1003 -4.16936 -3.01112 0
M  V30 202 N 19.0823 -5.28284 -3.12712 0
M  V30 203 C 20.4533 -5.43066 -2.99131 0
M  V30 204 C 22.5083 -4.07968 -2.85423 0
M  V30 205 C 21.2113 -6.6126 -2.83068 0
M  V30 206 C 23.2373 -5.258 -2.70718 0
M  V30 207 C 22.5993 -6.50842 -2.69414 0
M  V30 208 H 18.6983 -0.436584 -0.648782 0
M  V30 209 H 21.2823 -1.53875 -1.19293 0
M  V30 210 H 19.4533 -1.20822 -3.6913 0
M  V30 211 H 21.1853 -1.43824 -3.78281 0
M  V30 212 H 17.9403 -3.39847 -3.2985 0
M  V30 213 H 18.3643 -6.01284 -3.11105 0
M  V30 214 H 23.0063 -3.1209 -2.85236 0
M  V30 215 H 20.7243 -7.57298 -2.82002 0
M  V30 216 H 24.3103 -5.20683 -2.59577 0
M  V30 217 H 23.1903 -7.40485 -2.5817 0
M  V30 218 N 20.6934 1.19889 -1.02296 0
M  V30 219 C 21.6034 2.26571 -0.608508 0
M  V30 220 C 22.6194 1.70299 0.356964 0
M  V30 221 O 23.7954 2.00235 0.216326 0
M  V30 222 C 20.8604 3.46677 0.0402814 0
M  V30 223 C 19.9214 4.18153 -0.97194 0
M  V30 224 C 19.1544 5.32525 -0.354016 0
M  V30 225 O 19.3774 5.64112 0.844604 0
M  V30 226 O 18.3114 5.92242 -1.07391 0
M  V30 227 H 22.1374 2.64251 -1.49684 0
M  V30 228 H 19.7224 1.26629 -0.792809 0
M  V30 229 H 21.6044 4.19475 0.402324 0
M  V30 230 H 20.2794 3.10858 0.902707 0
M  V30 231 H 19.1864 3.47499 -1.38546 0
M  V30 232 H 20.5194 4.57927 -1.80454 0
M  V30 233 N 22.1715 0.800033 1.35784 0
M  V30 234 C 23.1345 0.211565 2.28221 0
M  V30 235 C 24.1345 -0.59728 1.49296 0
M  V30 236 O 25.3245 -0.416721 1.69142 0
M  V30 237 C 22.4565 -0.705846 3.33513 0
M  V30 238 H 23.6495 1.02677 2.81776 0
M  V30 239 H 21.2025 0.570211 1.45528 0
M  V30 240 H 21.9375 -1.54498 2.85133 0
M  V30 241 H 21.7225 -0.127655 3.91892 0
M  V30 242 H 23.2125 -1.11211 4.02519 0
M  V30 243 N 23.6496 -1.47581 0.552962 0
M  V30 244 C 24.8976 -2.02082 0.0272703 0
M  V30 245 C 25.2186 -1.4301 -1.32563 0
M  V30 246 O 24.4886 -0.603745 -1.86365 0
M  V30 247 H 23.0686 -0.746966 0.00709182 0
M  V30 248 H 25.7306 -1.81033 0.722008 0
M  V30 249 H 24.8266 -3.12034 -0.0639951 0
M  V30 250 N 25.1277 -0.289203 -1.54924 0
M  V30 251 C 26.0747 0.592115 -2.23075 0
M  V30 252 C 27.0447 1.13881 -1.20915 0
M  V30 253 O 28.2297 1.18551 -1.495 0
M  V30 254 C 25.3697 1.76376 -2.96623 0
M  V30 255 C 24.4827 1.24959 -4.13533 0
M  V30 256 C 23.6177 2.38416 -4.74691 0
M  V30 257 C 22.6567 1.84072 -5.83767 0
M  V30 258 N 21.7937 2.91057 -6.38929 0
M  V30 259 H 26.6337 0.00432038 -2.98 0
M  V30 260 H 24.1707 -0.00963529 -1.47097 0
M  V30 261 H 26.1287 2.45268 -3.3749 0
M  V30 262 H 24.7587 2.32337 -2.24097 0
M  V30 263 H 23.8107 0.453307 -3.77689 0
M  V30 264 H 25.1227 0.811662 -4.92152 0
M  V30 265 H 24.2767 3.15276 -5.18349 0
M  V30 266 H 23.0157 2.8553 -3.95378 0
M  V30 267 H 22.0207 1.05697 -5.39545 0
M  V30 268 H 23.2457 1.37877 -6.64956 0
M  V30 269 H 21.1917 3.37526 -5.62505 0
M  V30 270 H 21.1087 2.51724 -7.12861 0
M  V30 271 H 22.3767 3.6785 -6.87246 0
M  V30 272 N 26.6058 1.57591 -0.0167156 0
M  V30 273 C 28.0168 1.79201 0.523834 0
M  V30 274 C 28.3678 0.925796 1.72984 0
M  V30 275 O 27.4928 0.132792 2.15992 0
M  V30 276 C 28.0878 3.25 0.957091 0
M  V30 277 C 26.6468 3.47648 1.44283 0
M  V30 278 C 25.7938 2.74374 0.401757 0
M  V30 279 H 28.7448 1.56831 -0.242816 0
M  V30 280 H 28.7658 3.34031 1.82219 0
M  V30 281 H 28.2778 3.88019 0.0791415 0
M  V30 282 H 26.3788 2.89866 2.34113 0
M  V30 283 H 26.4918 4.56352 1.45877 0
M  V30 284 H 24.8558 2.39485 0.867121 0
M  V30 285 H 25.6388 3.40102 -0.467513 0
M  V30 286 N 28.0839 -0.256276 1.55502 0
M  V30 287 C 29.0139 -1.32102 1.92539 0
M  V30 288 C 29.9949 -1.50684 0.789194 0
M  V30 289 O 31.1799 -1.63449 1.04872 0
M  V30 290 C 28.3099 -2.67752 2.21192 0
M  V30 291 C 27.2639 -2.63878 3.36975 0
M  V30 292 C 26.5899 -4.03236 3.51147 0
M  V30 293 C 27.8899 -2.21682 4.72921 0
M  V30 294 H 29.5839 -1.01351 2.81724 0
M  V30 295 H 27.1299 -0.486105 1.35547 0
M  V30 296 H 29.0829 -3.42365 2.45691 0
M  V30 297 H 27.8069 -3.0012 1.28824 0
M  V30 298 H 26.4659 -1.91722 3.12471 0
M  V30 299 H 26.1139 -4.32854 2.56216 0
M  V30 300 H 25.8139 -4.01535 4.29003 0
M  V30 301 H 27.3379 -4.79563 3.77957 0
M  V30 302 H 28.7519 -2.86023 4.96854 0
M  V30 303 H 27.1489 -2.3111 5.53812 0
M  V30 304 H 28.2189 -1.16833 4.70615 0
M  V30 305 N 29.562 -1.4872 -0.521534 0
M  V30 306 C 30.787 -1.61101 -1.30618 0
M  V30 307 C 31.212 -0.274611 -1.86085 0
M  V30 308 O 30.57 0.754937 -1.64834 0
M  V30 309 C 30.618 -2.66709 -2.4269 0
M  V30 310 O 29.722 -2.24456 -3.45967 0
M  V30 311 H 29.063 -0.539921 -0.386499 0
M  V30 312 H 31.593 -1.94767 -0.626645 0
M  V30 313 H 31.603 -2.88245 -2.88754 0
M  V30 314 H 30.278 -3.63727 -2.01682 0
M  V30 315 H 28.855 -2.13168 -3.05964 0
M  V30 316 N 31.0401 0.771051 -1.3745 0
M  V30 317 C 32.2891 1.52491 -1.3202 0
M  V30 318 C 32.6021 1.9538 0.0927347 0
M  V30 319 O 33.8081 2.70159 0.269503 0
M  V30 320 C 32.2641 2.75366 -2.31736 0
M  V30 321 C 31.8721 2.39573 -3.78562 0
M  V30 322 C 33.6161 3.53307 -2.35318 0
M  V30 323 C 31.5231 3.58954 -4.70007 0
M  V30 324 H 30.4531 0.572506 -0.490666 0
M  V30 325 H 33.1041 0.844474 -1.62914 0
M  V30 326 H 31.4861 3.45303 -1.93861 0
M  V30 327 H 32.6601 1.77415 -4.25277 0
M  V30 328 H 30.9751 1.74805 -3.77932 0
M  V30 329 H 33.5721 4.42039 -3.00842 0
M  V30 330 H 33.9151 3.93217 -1.36698 0
M  V30 331 H 34.4481 2.90367 -2.71904 0
M  V30 332 H 31.1871 3.24125 -5.69757 0
M  V30 333 H 30.7071 4.20214 -4.27996 0
M  V30 334 H 32.3861 4.25758 -4.87175 0
M  V30 335 N 32.5182 1.22032 0.997298 0
M  V30 336 C 33.4282 1.00271 2.12092 0
M  V30 337 C 34.4442 -0.047621 1.73935 0
M  V30 338 O 35.6202 0.144136 2.00884 0
M  V30 339 C 32.6852 0.578449 3.4184 0
M  V30 340 C 31.7462 1.70189 3.94125 0
M  V30 341 C 30.9792 1.29778 5.17681 0
M  V30 342 O 31.2022 0.174676 5.70132 0
M  V30 343 O 30.1362 2.11261 5.63607 0
M  V30 344 H 33.9622 1.94398 2.3333 0
M  V30 345 H 31.5472 1.00587 1.10465 0
M  V30 346 H 33.4292 0.351998 4.19927 0
M  V30 347 H 32.1042 -0.334019 3.21972 0
M  V30 348 H 31.0112 1.98282 3.1723 0
M  V30 349 H 32.3442 2.59206 4.18417 0
M  V30 350 N 33.9963 -1.19345 1.0293 0
M  V30 351 C 34.9063 -2.26245 0.620515 0
M  V30 352 C 35.9223 -1.70486 -0.347928 0
M  V30 353 O 37.0983 -2.00347 -0.205704 0
M  V30 354 C 34.1633 -3.46693 -0.0218957 0
M  V30 355 C 33.2243 -4.17632 0.994102 0
M  V30 356 C 32.4573 -5.32329 0.382253 0
M  V30 357 O 32.6803 -5.64552 -0.814676 0
M  V30 358 O 31.6143 -5.91664 1.10531 0
M  V30 359 H 35.4403 -2.63453 1.51083 0
M  V30 360 H 33.0253 -1.26207 0.799513 0
M  V30 361 H 34.9073 -4.19683 -0.380072 0
M  V30 362 H 33.5823 -3.11333 -0.886209 0
M  V30 363 H 32.4893 -3.4676 1.40387 0
M  V30 364 H 33.8223 -4.56964 1.8288 0
M  V30 365 N 35.4744 -0.807222 -1.35358 0
M  V30 366 C 36.7234 -0.384376 -1.98004 0
M  V30 367 C 37.0364 1.0543 -1.64754 0
M  V30 368 O 38.2424 1.58029 -2.20769 0
M  V30 369 C 36.6984 -0.636326 -3.5423 0
M  V30 370 C 36.3064 -2.08759 -3.96388 0
M  V30 371 C 38.0504 -0.278869 -4.23583 0
M  V30 372 C 35.9574 -2.28525 -5.45463 0
M  V30 373 H 34.8874 -0.139986 -0.740891 0
M  V30 374 H 37.5384 -0.991369 -1.54415 0
M  V30 375 H 35.9204 0.0406256 -3.95979 0
M  V30 376 H 37.0944 -2.8024 -3.6579 0
M  V30 377 H 35.4094 -2.40497 -3.39926 0
M  V30 378 H 38.0064 -0.404599 -5.33167 0
M  V30 379 H 38.3494 0.775012 -4.09022 0
M  V30 380 H 38.8824 -0.909764 -3.87257 0
M  V30 381 H 35.6214 -3.32361 -5.64992 0
M  V30 382 H 35.1414 -1.61569 -5.77629 0
M  V30 383 H 36.8204 -2.10109 -6.11934 0
M  V30 384 N 36.9525 1.47285 -0.560781 0
M  V30 385 C 37.8625 2.33846 0.187954 0
M  V30 386 C 38.8785 1.48412 0.908293 0
M  V30 387 O 40.0545 1.81332 0.876388 0
M  V30 388 C 37.1195 3.25178 1.2025 0
M  V30 389 C 36.1805 4.26504 0.489208 0
M  V30 390 C 35.4135 5.13472 1.45542 0
M  V30 391 O 35.6365 5.02959 2.6905 0
M  V30 392 O 34.5705 5.93902 0.977963 0
M  V30 393 H 38.3965 2.99177 -0.522177 0
M  V30 394 H 35.9815 1.45903 -0.321364 0
M  V30 395 H 37.8635 3.81584 1.78805 0
M  V30 396 H 36.5385 2.6247 1.89449 0
M  V30 397 H 35.4455 3.73847 -0.137627 0
M  V30 398 H 36.7785 4.91935 -0.161399 0
M  V30 399 N 38.4306 0.297415 1.54768 0
M  V30 400 C 39.6766 -0.313376 2.00364 0
M  V30 401 C 40.0096 -1.53815 1.18553 0
M  V30 402 O 39.2846 -1.92739 0.261103 0
M  V30 403 C 39.5676 -0.673525 3.53745 0
M  V30 404 C 39.4206 0.560133 4.46299 0
M  V30 405 C 40.7396 -1.50143 4.13697 0
M  V30 406 H 37.8586 -0.112428 0.728374 0
M  V30 407 H 40.5006 0.4088 1.8555 0
M  V30 408 H 38.6506 -1.28881 3.665 0
M  V30 409 H 40.3226 1.19863 4.45455 0
M  V30 410 H 38.5656 1.19405 4.17043 0
M  V30 411 H 39.2366 0.26405 5.51368 0
M  V30 412 H 41.7126 -0.981588 4.04356 0
M  V30 413 H 40.5886 -1.72221 5.21182 0
M  V30 414 H 40.8496 -2.48952 3.65343 0
M  V30 415 N 39.9087 -1.5758 0.0250728 0
M  V30 416 C 40.8717 -2.08896 -0.943139 0
M  V30 417 C 41.8717 -1.00321 -1.25668 0
M  V30 418 O 43.0617 -1.26495 -1.19769 0
M  V30 419 C 40.1937 -2.55143 -2.26086 0
M  V30 420 H 41.3867 -2.95723 -0.498775 0
M  V30 421 H 38.9397 -1.54703 -0.222888 0
M  V30 422 H 39.6747 -1.71633 -2.75159 0
M  V30 423 H 39.4597 -3.34461 -2.04641 0
M  V30 424 H 40.9497 -2.95083 -2.95492 0
M  V30 425 N 41.3868 0.248026 -1.55636 0
M  V30 426 C 42.7978 0.817177 -1.67866 0
M  V30 427 C 43.1488 1.86069 -0.622322 0
M  V30 428 O 42.2738 2.15157 0.231618 0
M  V30 429 C 42.8688 1.489 -3.04326 0
M  V30 430 C 41.4278 2.00587 -3.185 0
M  V30 431 C 40.5748 0.856573 -2.63739 0
M  V30 432 H 43.5258 0.0238579 -1.58682 0
M  V30 433 H 43.5468 2.35698 -2.98708 0
M  V30 434 H 43.0588 0.729279 -3.81186 0
M  V30 435 H 41.1598 2.79443 -2.4646 0
M  V30 436 H 41.2728 2.20402 -4.25393 0
M  V30 437 H 39.6368 1.25678 -2.21534 0
M  V30 438 H 40.4198 0.109953 -3.43124 0
M  V30 439 N 42.8649 1.48995 0.513639 0
M  V30 440 C 44.2759 1.5119 1.09537 0
M  V30 441 C 44.6269 0.290906 1.94031 0
M  V30 442 O 43.7519 -0.60049 2.07902 0
M  V30 443 C 44.3469 2.73964 1.99322 0
M  V30 444 C 42.9059 2.78978 2.52682 0
M  V30 445 C 42.0529 2.44934 1.30009 0
M  V30 446 H 45.0039 1.55875 0.298125 0
M  V30 447 H 45.0249 2.53409 2.83838 0
M  V30 448 H 44.5369 3.62813 1.37799 0
M  V30 449 H 42.6379 1.94378 3.1788 0
M  V30 450 H 42.7509 3.8083 2.90698 0
M  V30 451 H 41.1149 1.9644 1.62122 0
M  V30 452 H 41.8979 3.36043 0.702131 0
M  V30 453 N 44.343 -0.763751 1.37857 0
M  V30 454 C 45.29 -1.87726 1.34267 0
M  V30 455 C 46.26 -1.64807 0.206879 0
M  V30 456 O 47.445 -1.86613 0.397508 0
M  V30 457 C 44.585 -3.24896 1.16346 0
M  V30 458 C 43.698 -3.59716 2.39225 0
M  V30 459 C 42.833 -4.86137 2.14114 0
M  V30 460 C 41.872 -5.13711 3.32817 0
M  V30 461 N 41.009 -6.31323 3.07206 0
M  V30 462 H 45.849 -1.90129 2.29466 0
M  V30 463 H 43.386 -0.929433 1.14017 0
M  V30 464 H 45.344 -4.04036 1.03975 0
M  V30 465 H 43.974 -3.21847 0.247909 0
M  V30 466 H 43.026 -2.75498 2.62307 0
M  V30 467 H 44.338 -3.76027 3.27728 0
M  V30 468 H 43.492 -5.73198 1.9882 0
M  V30 469 H 42.231 -4.71945 1.22961 0
M  V30 470 H 41.236 -4.25123 3.48641 0
M  V30 471 H 42.461 -5.29807 4.24832 0
M  V30 472 H 40.407 -6.18474 2.1869 0
M  V30 473 H 40.324 -6.48087 3.89254 0
M  V30 474 H 41.592 -7.213 2.95546 0
M  V30 475 N 45.8211 -1.22559 -0.990812 0
M  V30 476 C 46.7841 -0.998863 -2.0629 0
M  V30 477 C 47.7841 0.0354834 -1.60761 0
M  V30 478 O 48.9741 -0.203231 -1.7301 0
M  V30 479 C 46.1061 -0.509203 -3.37076 0
M  V30 480 H 47.2991 -1.95014 -2.27837 0
M  V30 481 H 44.8521 -1.04456 -1.16269 0
M  V30 482 H 45.5871 0.446335 -3.21214 0
M  V30 483 H 45.3721 -1.25547 -3.71457 0
M  V30 484 H 46.8621 -0.370888 -4.1595 0
M  V30 485 N 47.2992 1.18797 -1.03562 0
M  V30 486 C 48.2492 2.20161 -0.592724 0
M  V30 487 C 49.2332 1.56772 0.362133 0
M  V30 488 O 50.4252 1.76062 0.182009 0
M  V30 489 C 47.5542 3.43266 0.0481024 0
M  V30 490 C 46.6402 4.13786 -0.9296 0
M  V30 491 N 47.0312 4.60388 -2.09467 0
M  V30 492 C 45.3292 4.39572 -0.754499 0
M  V30 493 C 46.0302 5.14619 -2.71187 0
M  V30 494 N 45.0062 5.05826 -1.991 0
M  V30 495 H 48.8082 2.53877 -1.48066 0
M  V30 496 H 46.3222 1.34946 -0.903514 0
M  V30 497 H 48.3192 4.15136 0.383058 0
M  V30 498 H 46.9792 3.11048 0.931636 0
M  V30 499 H 47.9902 4.54999 -2.47379 0
M  V30 500 H 44.6672 4.17425 0.0793713 0
M  V30 501 H 46.0572 5.60917 -3.69895 0
M  V30 502 N 48.7773 0.814389 1.34928 0
M  V30 503 C 49.6873 0.231978 2.3345 0
M  V30 504 C 50.7033 -0.629139 1.62228 0
M  V30 505 O 51.8793 -0.539052 1.94052 0
M  V30 506 C 48.9443 -0.603482 3.41407 0
M  V30 507 C 48.0053 0.279037 4.28392 0
M  V30 508 C 47.2383 -0.516643 5.31193 0
M  V30 509 O 47.4613 -1.75068 5.4287 0
M  V30 510 O 46.3953 0.0965652 6.01823 0
M  V30 511 H 50.2213 1.04721 2.85074 0
M  V30 512 H 47.8063 0.576343 1.37836 0
M  V30 513 H 49.6883 -1.07908 4.0735 0
M  V30 514 H 48.3633 -1.39618 2.92042 0
M  V30 515 H 47.2703 0.801948 3.65403 0
M  V30 516 H 48.6033 1.03588 4.81176 0
M  V30 517 N 50.2554 -1.46986 0.568584 0
M  V30 518 C 51.5014 -2.02741 0.0488709 0
M  V30 519 C 51.8344 -1.44077 -1.30214 0
M  V30 520 O 51.1094 -0.600552 -1.84996 0
M  V30 521 C 51.3924 -3.60086 -0.032047 0
M  V30 522 C 51.2454 -4.29162 1.34686 0
M  V30 523 C 52.5644 -4.33838 -0.739798 0
M  V30 524 H 49.6834 -0.736749 0.0192338 0
M  V30 525 H 52.3254 -1.75289 0.733065 0
M  V30 526 H 50.4754 -3.83606 -0.61473 0
M  V30 527 H 52.1474 -4.16948 1.97362 0
M  V30 528 H 50.3904 -3.89073 1.91846 0
M  V30 529 H 51.0614 -5.37826 1.24285 0
M  V30 530 H 53.5374 -4.15378 -0.244939 0
M  V30 531 H 52.4134 -5.43537 -0.765406 0
M  V30 532 H 52.6744 -4.03875 -1.79827 0
M  V30 533 N 51.7335 -0.305618 -1.54608 0
M  V30 534 C 53.1495 0.0476228 -1.59529 0
M  V30 535 C 53.3495 1.52025 -1.32252 0
M  V30 536 O 52.4055 2.27368 -1.09818 0
M  V30 537 C 53.7185 -0.354471 -2.98603 0
M  V30 538 C 55.2665 -0.303622 -3.11524 0
M  V30 539 C 55.7415 -0.680608 -4.52915 0
M  V30 540 N 57.2325 -0.63332 -4.5885 0
M  V30 541 C 57.9675 -0.897432 -5.66334 0
M  V30 542 N 57.4635 -1.22775 -6.81834 0
M  V30 543 N 59.2565 -0.824186 -5.56025 0
M  V30 544 H 51.4075 -1.2653 -1.70599 0
M  V30 545 H 53.6705 -0.513291 -0.797017 0
M  V30 546 H 53.3765 -1.3798 -3.23503 0
M  V30 547 H 53.2505 0.289568 -3.76087 0
M  V30 548 H 55.6375 0.712472 -2.8637 0
M  V30 549 H 55.7185 -0.982348 -2.36185 0
M  V30 550 H 55.3625 -1.69453 -4.78799 0
M  V30 551 H 55.2925 0.0202385 -5.26596 0
M  V30 552 H 57.7835 -0.389138 -3.75891 0
M  V30 553 H 58.0965 -1.41513 -7.59733 0
M  V30 554 H 56.4415 -1.26583 -6.83375 0
M  V30 555 H 59.6325 -0.565748 -4.64669 0
M  V30 556 H 59.8055 -1.03338 -6.39707 0
M  V30 557 N 53.2116 1.57565 -0.0334293 0
M  V30 558 C 54.4606 1.91155 0.643639 0
M  V30 559 C 54.7736 0.91192 1.73042 0
M  V30 560 O 55.9796 1.13923 2.46442 0
M  V30 561 C 54.4356 3.39443 1.1961 0
M  V30 562 C 54.0436 4.47774 0.142381 0
M  V30 563 C 55.7876 3.82094 1.84944 0
M  V30 564 C 53.6946 5.87162 0.706727 0
M  V30 565 H 52.6246 0.713368 0.244176 0
M  V30 566 H 55.2756 1.8323 -0.0994323 0
M  V30 567 H 53.6576 3.42313 1.99092 0
M  V30 568 H 54.8316 4.56469 -0.630296 0
M  V30 569 H 53.1466 4.14352 -0.412446 0
M  V30 570 H 55.7436 4.83591 2.2813 0
M  V30 571 H 56.0866 3.17386 2.69392 0
M  V30 572 H 56.6196 3.81665 1.12145 0
M  V30 573 H 53.3586 6.55424 -0.0997178 0
M  V30 574 H 52.8786 5.82064 1.44779 0
M  V30 575 H 54.5576 6.35866 1.19514 0
M  V30 576 N 54.6897 -0.239769 1.55765 0
M  V30 577 C 55.6367 -1.29696 1.90913 0
M  V30 578 C 56.6067 -1.47478 0.764164 0
M  V30 579 O 57.7917 -1.61345 1.01845 0
M  V30 580 C 54.9317 -2.64598 2.21544 0
M  V30 581 C 54.0447 -2.54765 3.48882 0
M  V30 582 C 53.1797 -3.82069 3.69049 0
M  V30 583 C 52.2187 -3.66883 4.89963 0
M  V30 584 N 51.3557 -4.86094 5.06614 0
M  V30 585 H 56.1957 -0.990224 2.81067 0
M  V30 586 H 53.7327 -0.477684 1.39128 0
M  V30 587 H 55.6907 -3.43132 2.3731 0
M  V30 588 H 54.3207 -2.93405 1.34585 0
M  V30 589 H 53.3727 -1.67763 3.41409 0
M  V30 590 H 54.6847 -2.39457 4.37563 0
M  V30 591 H 53.8387 -4.69046 3.84812 0
M  V30 592 H 52.5777 -4.00282 2.78614 0
M  V30 593 H 51.5827 -2.78289 4.74168 0
M  V30 594 H 52.8077 -3.50157 5.81865 0
M  V30 595 H 50.7537 -5.04655 4.19117 0
M  V30 596 H 50.6707 -4.73443 5.89396 0
M  V30 597 H 51.9387 -5.74549 5.26795 0
M  V30 598 N 56.1678 -1.49265 -0.50573 0
M  V30 599 C 57.4168 -1.57761 -1.25675 0
M  V30 600 C 57.7298 -0.267371 -1.93764 0
M  V30 601 O 58.9358 -0.230827 -2.70517 0
M  V30 602 C 57.3918 -2.78332 -2.28165 0
M  V30 603 C 56.9998 -4.16096 -1.66037 0
M  V30 604 C 58.7438 -2.96155 -3.04125 0
M  V30 605 C 56.6508 -5.27895 -2.6661 0
M  V30 606 H 55.5808 -0.587391 -0.472745 0
M  V30 607 H 58.2318 -1.75644 -0.53118 0
M  V30 608 H 56.6138 -2.53934 -3.03865 0
M  V30 609 H 57.7878 -4.50612 -0.963622 0
M  V30 610 H 56.1028 -4.03591 -1.02484 0
M  V30 611 H 58.6998 -3.76849 -3.79327 0
M  V30 612 H 59.0428 -2.06534 -3.61455 0
M  V30 613 H 59.5758 -3.2057 -2.35541 0
M  V30 614 H 56.3148 -6.1956 -2.14068 0
M  V30 615 H 55.8348 -4.97839 -3.34539 0
M  V30 616 H 57.5138 -5.57031 -3.29129 0
M  V30 617 N 57.6459 0.756429 -1.3826 0
M  V30 618 C 58.8949 1.51082 -1.3363 0
M  V30 619 C 59.2079 1.95467 0.0720068 0
M  V30 620 O 60.4139 2.7043 0.240834 0
M  V30 621 C 58.8699 2.72893 -2.34644 0
M  V30 622 C 58.4779 2.35544 -3.81081 0
M  V30 623 C 60.2219 3.50791 -2.39052 0
M  V30 624 C 58.1289 3.53948 -4.73787 0
M  V30 625 H 57.0589 0.56727 -0.49671 0
M  V30 626 H 59.7099 0.827147 -1.638 0
M  V30 627 H 58.0919 3.43227 -1.97513 0
M  V30 628 H 59.2659 1.72894 -4.27135 0
M  V30 629 H 57.5809 1.70786 -3.79764 0
M  V30 630 H 60.1779 4.38823 -3.05513 0
M  V30 631 H 60.5209 3.91745 -1.40861 0
M  V30 632 H 61.0539 2.87467 -2.74968 0
M  V30 633 H 57.7929 3.18064 -5.73163 0
M  V30 634 H 57.3129 4.15651 -4.32428 0
M  V30 635 H 58.9919 4.20566 -4.91663 0
M  V30 636 N 59.124 1.23083 0.984299 0
M  V30 637 C 60.087 1.00979 2.05757 0
M  V30 638 C 61.087 -0.0269573 1.60777 0
M  V30 639 O 62.277 0.212403 1.729 0
M  V30 640 C 59.409 0.527072 3.36801 0
M  V30 641 H 60.602 1.9622 2.26799 0
M  V30 642 H 58.155 1.05072 1.15714 0
M  V30 643 H 58.89 -0.429294 3.21446 0
M  V30 644 H 58.675 1.27515 3.70786 0
M  V30 645 H 60.165 0.392942 4.15747 0
M  V30 646 N 60.6021 -1.18246 1.0419 0
M  V30 647 C 61.8301 -1.92195 0.766072 0
M  V30 648 C 62.2451 -1.76247 -0.676933 0
M  V30 649 O 61.6021 -1.09293 -1.46155 0
M  V30 650 C 61.6531 -3.43568 1.12442 0
M  V30 651 O 61.3741 -3.59015 2.51078 0
M  V30 652 C 62.8751 -4.34613 0.873275 0
M  V30 653 H 60.0951 -0.610114 0.279288 0
M  V30 654 H 62.6391 -1.50007 1.38989 0
M  V30 655 H 60.7941 -3.8354 0.545542 0
M  V30 656 H 61.2081 -4.5273 2.64831 0
M  V30 657 H 62.6821 -5.39374 1.17385 0
M  V30 658 H 63.1591 -4.38781 -0.191909 0
M  V30 659 H 63.7651 -4.00341 1.43551 0
M  V30 660 N 62.0802 -0.821533 -1.34494 0
M  V30 661 C 63.0432 -0.247847 -2.27856 0
M  V30 662 C 64.0432 0.573453 -1.50227 0
M  V30 663 O 65.2332 0.389759 -1.69784 0
M  V30 664 C 62.3652 0.652698 -3.34593 0
M  V30 665 H 63.5582 -1.07146 -2.80107 0
M  V30 666 H 61.1112 -0.593291 -1.44602 0
M  V30 667 H 61.8462 1.49943 -2.87555 0
M  V30 668 H 61.6312 0.065292 -3.92046 0
M  V30 669 H 63.1212 1.04793 -4.04238 0
M  V30 670 N 63.5583 1.46682 -0.576371 0
M  V30 671 C 64.8043 2.02712 -0.0596221 0
M  V30 672 C 65.1373 1.44765 1.29448 0
M  V30 673 O 64.4123 0.610355 1.84675 0
M  V30 674 C 64.6953 3.60098 0.0129503 0
M  V30 675 C 64.5483 4.28441 -1.3696 0
M  V30 676 C 65.8673 4.34224 0.71678 0
M  V30 677 H 62.9863 0.736637 -0.0231407 0
M  V30 678 H 65.6283 1.74898 -0.742351 0
M  V30 679 H 63.7783 3.83926 0.594378 0
M  V30 680 H 65.4503 4.15896 -1.9957 0
M  V30 681 H 63.6933 3.8805 -1.93907 0
M  V30 682 H 64.3643 5.3716 -1.27135 0
M  V30 683 H 66.8403 4.15503 0.222908 0
M  V30 684 H 65.7163 5.43936 0.73657 0
M  V30 685 H 65.9773 4.04823 1.77682 0
M  V30 686 N 65.0364 0.313813 1.54444 0
M  V30 687 C 66.2764 -0.292389 2.02298 0
M  V30 688 C 66.6404 -1.50105 1.19719 0
M  V30 689 O 67.8414 -2.17947 1.5733 0
M  V30 690 C 66.1124 -0.627682 3.51845 0
M  V30 691 S 67.6714 -1.21493 4.21646 0
M  V30 692 H 64.4894 -0.0890247 0.705405 0
M  V30 693 H 67.0914 0.444668 1.90376 0
M  V30 694 H 65.7954 0.260265 4.09574 0
M  V30 695 H 65.3264 -1.39519 3.67829 0
M  V30 696 H 67.3414 -2.5022 4.28491 0
M  V30 697 N 66.5145 -1.57545 0.0417849 0
M  V30 698 C 67.4645 -2.07483 -0.945247 0
M  V30 699 C 68.4485 -0.977983 -1.27767 0
M  V30 700 O 69.6405 -1.24142 -1.26166 0
M  V30 701 C 66.7695 -2.61576 -2.22335 0
M  V30 702 C 65.8555 -3.78213 -1.91874 0
M  V30 703 N 66.2465 -4.88344 -1.31733 0
M  V30 704 C 64.5445 -3.8694 -2.21796 0
M  V30 705 C 65.2455 -5.69462 -1.1869 0
M  V30 706 N 64.2215 -5.16771 -1.68666 0
M  V30 707 H 68.0235 -2.90029 -0.475441 0
M  V30 708 H 65.5375 -1.61581 -0.162911 0
M  V30 709 H 67.5345 -2.95651 -2.93932 0
M  V30 710 H 66.1945 -1.80465 -2.69931 0
M  V30 711 H 67.2055 -5.08335 -0.990729 0
M  V30 712 H 63.8825 -3.16757 -2.71977 0
M  V30 713 H 65.2725 -6.68023 -0.720793 0
M  V30 714 N 67.9926 0.231505 -1.5589 0
M  V30 715 C 69.2206 0.974505 -1.82513 0
M  V30 716 C 69.6356 1.78344 -0.619591 0
M  V30 717 O 68.9926 1.77792 0.411848 0
M  V30 718 C 69.0436 1.90007 -3.07538 0
M  V30 719 O 68.7646 1.12385 -4.2344 0
M  V30 720 C 70.2656 2.75779 -3.47075 0
M  V30 721 H 67.4856 0.286065 -0.606966 0
M  V30 722 H 70.0296 0.249739 -2.02969 0
M  V30 723 H 68.1846 2.57891 -2.89086 0
M  V30 724 H 68.5986 1.75125 -4.944 0
M  V30 725 H 70.0726 3.36443 -4.37619 0
M  V30 726 H 70.5496 3.47672 -2.68367 0
M  V30 727 H 71.1556 2.13323 -3.67931 0
M  V30 728 N 69.4707 1.49531 0.497807 0
M  V30 729 C 70.7477 1.49682 1.25915 0
M  V30 730 C 71.1277 0.226339 2.09883 0
M  V30 731 O 70.4757 -0.791189 2.14365 0
M  V30 732 C 70.6857 2.77755 2.11313 0
M  V30 733 C 72.0337 3.27371 2.70395 0
M  V30 734 O 73.0577 2.78894 2.21578 0
M  V30 735 O 71.9167 4.11808 3.59272 0
M  V30 736 H 69.0107 0.599228 0.56996 0
M  V30 737 H 71.5567 1.61798 0.511816 0
M  V30 738 H 70.3287 3.61713 1.49264 0
M  V30 739 H 69.9517 2.68515 2.93233 0
M  V30 740 N 70.9488 -0.749086 1.3866 0
M  V30 741 C 71.9118 -1.84457 1.36045 0
M  V30 742 C 72.9118 -1.58682 0.260122 0
M  V30 743 O 74.1018 -1.66343 0.517261 0
M  V30 744 C 71.2338 -3.22008 1.11911 0
M  V30 745 H 72.4268 -1.88182 2.33512 0
M  V30 746 H 69.9798 -0.951266 1.24019 0
M  V30 747 H 70.7148 -3.2395 0.150686 0
M  V30 748 H 70.4998 -3.42111 1.91579 0
M  V30 749 H 71.9898 -4.0208 1.12788 0
M  V30 750 N 72.4269 -1.23603 -0.977757 0
M  V30 751 C 73.6569 -1.09487 -1.75203 0
M  V30 752 C 74.0649 0.356321 -1.85814 0
M  V30 753 O 73.4079 1.25816 -1.33851 0
M  V30 754 C 73.4699 -1.64905 -3.19447 0
M  V30 755 C 73.1339 -3.13688 -3.32338 0
M  V30 756 C 74.1309 -4.10953 -3.18455 0
M  V30 757 C 71.8159 -3.53449 -3.56902 0
M  V30 758 C 73.8099 -5.45962 -3.28944 0
M  V30 759 C 71.4969 -4.88602 -3.6703 0
M  V30 760 C 72.4949 -5.84668 -3.53062 0
M  V30 761 O 72.1829 -7.17365 -3.62826 0
M  V30 762 H 71.9149 -0.38367 -0.556573 0
M  V30 763 H 74.4689 -1.6398 -1.23693 0
M  V30 764 H 72.6989 -1.04835 -3.72218 0
M  V30 765 H 74.3879 -1.46226 -3.78646 0
M  V30 766 H 75.1539 -3.81577 -2.99372 0
M  V30 767 H 71.0329 -2.79188 -3.66844 0
M  V30 768 H 74.5769 -6.20925 -3.17958 0
M  V30 769 H 70.4739 -5.17653 -3.85623 0
M  V30 770 H 71.2419 -7.2515 -3.79605 0
M  V30 771 N 73.905 1.17692 -1.04816 0
M  V30 772 C 75.133 1.91786 -0.776254 0
M  V30 773 C 75.548 1.76604 0.667577 0
M  V30 774 O 74.905 1.10067 1.45573 0
M  V30 775 C 74.956 3.42967 -1.14263 0
M  V30 776 O 74.677 3.57678 -2.52978 0
M  V30 777 C 76.178 4.34144 -0.896311 0
M  V30 778 H 73.398 0.608624 -0.282519 0
M  V30 779 H 75.942 1.49268 -1.39783 0
M  V30 780 H 74.097 3.83245 -0.565874 0
M  V30 781 H 74.511 4.51319 -2.67229 0
M  V30 782 H 75.985 5.38744 -1.20244 0
M  V30 783 H 76.462 4.38876 0.168636 0
M  V30 784 H 77.068 3.99574 -1.45672 0
M  V30 785 N 75.3831 0.828654 1.34056 0
M  V30 786 C 76.3131 0.269443 2.3194 0
M  V30 787 C 77.2941 -0.617247 1.58506 0
M  V30 788 O 78.4791 -0.542931 1.86456 0
M  V30 789 C 75.6091 -0.564793 3.42677 0
M  V30 790 C 74.5631 0.225241 4.27407 0
M  V30 791 C 73.8891 -0.7321 5.29664 0
M  V30 792 C 75.1891 1.43663 5.02154 0
M  V30 793 H 76.8831 1.08728 2.7896 0
M  V30 794 H 74.4291 0.524283 1.34117 0
M  V30 795 H 76.3821 -0.966233 4.10173 0
M  V30 796 H 75.1061 -1.41574 2.9432 0
M  V30 797 H 73.7651 0.608117 3.61521 0
M  V30 798 H 73.4131 -1.57916 4.77568 0
M  V30 799 H 73.1131 -0.20767 5.87233 0
M  V30 800 H 74.6371 -1.13128 6.00029 0
M  V30 801 H 76.0511 1.1089 5.62473 0
M  V30 802 H 74.4481 1.89711 5.69324 0
M  V30 803 H 75.5181 2.21181 4.31517 0
M  V30 804 N 76.8612 -1.46375 0.584142 0
M  V30 805 C 78.0862 -2.07268 0.0740405 0
M  V30 806 C 78.5112 -1.42979 -1.22223 0
M  V30 807 O 77.8692 -0.514092 -1.73859 0
M  V30 808 C 77.9172 -3.60518 -0.0767769 0
M  V30 809 O 77.0212 -3.96533 -1.13292 0
M  V30 810 H 76.3622 -0.660961 0.0634524 0
M  V30 811 H 78.8922 -1.87991 0.807492 0
M  V30 812 H 78.9022 -4.07021 -0.282489 0
M  V30 813 H 77.5772 -4.06702 0.86986 0
M  V30 814 H 76.1542 -3.61738 -0.905553 0
M  V30 815 N 78.3393 -0.321999 -1.54275 0
M  V30 816 C 79.5873 0.280489 -2.00144 0
M  V30 817 C 79.9083 1.52777 -1.21178 0
M  V30 818 O 79.1783 1.9338 -0.313187 0
M  V30 819 H 77.7583 0.106632 -0.73935 0
M  V30 820 H 80.4203 -0.438184 -1.8991 0
M  V30 821 H 79.5163 0.537972 -3.07428 0
M  V30 822 N 79.8174 1.5752 -0.0501392 0
M  V30 823 C 80.7804 2.1037 0.909786 0
M  V30 824 C 81.7804 1.02308 1.24056 0
M  V30 825 O 82.9704 1.28385 1.17741 0
M  V30 826 C 80.1024 2.58708 2.21998 0
M  V30 827 H 81.2954 2.96479 0.451665 0
M  V30 828 H 78.8484 1.55038 0.198248 0
M  V30 829 H 79.5834 1.75989 2.72394 0
M  V30 830 H 79.3684 3.37675 1.99295 0
M  V30 831 H 80.8584 2.99747 2.9076 0
M  V30 832 N 81.2955 -0.223234 1.56011 0
M  V30 833 C 82.5725 -0.972108 1.69733 0
M  V30 834 C 82.9525 -2.02485 0.59691 0
M  V30 835 O 82.3005 -2.25037 -0.396324 0
M  V30 836 C 82.5105 -1.58407 3.10979 0
M  V30 837 C 83.8585 -2.07696 3.70334 0
M  V30 838 O 84.8825 -1.68304 3.1393 0
M  V30 839 O 83.7415 -2.80096 4.69264 0
M  V30 840 H 80.8355 -0.453993 0.691245 0
M  V30 841 H 83.3815 -0.215149 1.68331 0
M  V30 842 H 82.1535 -0.823831 3.82529 0
M  V30 843 H 81.7765 -2.40661 3.16493 0
M  V30 844 N 82.7736 -1.49793 -0.48987 0
M  V30 845 C 84.1846 -1.52914 -1.07118 0
M  V30 846 C 84.5356 -0.321738 -1.93544 0
M  V30 847 O 83.6606 0.567338 -2.08831 0
M  V30 848 C 84.2556 -2.771 -1.94938 0
M  V30 849 C 82.8146 -2.82963 -2.48212 0
M  V30 850 C 81.9616 -2.46972 -1.26096 0
M  V30 851 H 84.9126 -1.56329 -0.273289 0
M  V30 852 H 84.9336 -2.57892 -2.79771 0
M  V30 853 H 84.4456 -3.64959 -1.32009 0
M  V30 854 H 82.5466 -1.99411 -3.14748 0
M  V30 855 H 82.6596 -3.85406 -2.84603 0
M  V30 856 H 81.0236 -1.98994 -1.58976 0
M  V30 857 H 81.8066 -3.37118 -0.648581 0
M  V30 858 N 84.2517 0.741722 -1.39055 0
M  V30 859 C 85.1617 1.88621 -1.39496 0
M  V30 860 C 86.1777 1.71557 -0.290578 0
M  V30 861 O 87.3537 1.94275 -0.530954 0
M  V30 862 C 84.4187 3.24134 -1.23037 0
M  V30 863 C 83.4797 3.5364 -2.43387 0
M  V30 864 C 82.7127 4.82687 -2.27703 0
M  V30 865 O 82.9357 5.55922 -1.27696 0
M  V30 866 O 81.8697 5.1194 -3.16545 0
M  V30 867 H 85.6957 1.91203 -2.35956 0
M  V30 868 H 83.2807 0.888625 -1.20099 0
M  V30 869 H 85.1627 4.0513 -1.15964 0
M  V30 870 H 83.8377 3.22337 -0.296691 0
M  V30 871 H 82.7447 2.72758 -2.56035 0
M  V30 872 H 84.0777 3.60209 -3.35425 0
M  V30 873 N 85.7298 1.2412 0.971189 0
M  V30 874 C 86.9778 1.07668 1.71032 0
M  V30 875 C 87.2988 -0.385797 1.91146 0
M  V30 876 O 86.5688 -1.27569 1.4867 0
M  V30 877 H 85.1488 0.395429 0.633755 0
M  V30 878 H 87.8108 1.55984 1.16855 0
M  V30 879 H 86.9068 1.57195 2.69622 0
M  V30 880 N 87.2079 -1.17134 1.05439 0
M  V30 881 C 88.4479 -1.89137 0.77502 0
M  V30 882 C 88.8119 -1.79345 -0.685526 0
M  V30 883 O 90.0129 -2.46188 -1.0791 0
M  V30 884 C 88.2839 -3.35003 1.2453 0
M  V30 885 S 89.8429 -4.24952 1.09367 0
M  V30 886 H 86.6609 -0.652949 0.281387 0
M  V30 887 H 89.2629 -1.4145 1.34953 0
M  V30 888 H 87.9669 -3.39666 2.30338 0
M  V30 889 H 87.4979 -3.87736 0.665166 0
M  V30 890 H 89.5129 -4.96196 0.0193397 0
M  V30 891 N 88.686 -0.835752 -1.33615 0
M  V30 892 C 89.933 -0.429959 -1.97883 0
M  V30 893 C 90.261 1.01006 -1.66217 0
M  V30 894 O 89.516 1.72047 -0.93265 0
M  V30 895 C 89.815 -0.593925 -3.52431 0
M  V30 896 C 89.481 -2.00158 -4.04039 0
M  V30 897 C 88.143 -2.38662 -4.17844 0
M  V30 898 C 90.495 -2.92117 -4.31644 0
M  V30 899 C 87.823 -3.68435 -4.56588 0
M  V30 900 C 90.175 -4.21368 -4.71838 0
M  V30 901 C 88.839 -4.59833 -4.83849 0
M  V30 902 H 88.109 -0.157333 -0.724104 0
M  V30 903 H 90.756 -1.06217 -1.59343 0
M  V30 904 H 89.061 0.121619 -3.91611 0
M  V30 905 H 90.758 -0.260282 -4.00154 0
M  V30 906 H 87.348 -1.69252 -3.93766 0
M  V30 907 H 91.532 -2.63608 -4.20505 0
M  V30 908 H 86.788 -3.98046 -4.64079 0
M  V30 909 H 90.962 -4.92703 -4.92155 0
M  V30 910 H 88.589 -5.60438 -5.13627 0
M  V30 911 N 90.1641 1.46063 -0.591896 0
M  V30 912 C 91.5751 1.85944 -0.167822 0
M  V30 913 C 91.9261 1.49429 1.27143 0
M  V30 914 O 91.0511 0.913515 1.96173 0
M  V30 915 C 91.6461 3.37489 -0.297794 0
M  V30 916 C 90.2051 3.76332 0.0714732 0
M  V30 917 C 89.3521 2.7006 -0.629509 0
M  V30 918 H 92.3031 1.37087 -0.799555 0
M  V30 919 H 92.3241 3.77532 0.474349 0
M  V30 920 H 91.8361 3.64034 -1.3454 0
M  V30 921 H 89.9371 3.55405 1.11886 0
M  V30 922 H 90.0501 4.78088 -0.311245 0
M  V30 923 H 88.4141 2.54607 -0.0687867 0
M  V30 924 H 89.1971 2.99444 -1.67894 0
M  V30 925 N 91.6422 0.330177 1.54103 0
M  V30 926 C 92.8882 -0.270806 2.00984 0
M  V30 927 C 93.2212 -1.51265 1.21789 0
M  V30 928 O 92.4962 -1.92142 0.301927 0
M  V30 929 C 92.7792 -0.598339 3.55094 0
M  V30 930 C 92.6322 0.654674 4.4501 0
M  V30 931 C 93.9512 -1.41334 4.16789 0
M  V30 932 H 91.0702 -0.0969531 0.730595 0
M  V30 933 H 93.7122 0.448066 1.84641 0
M  V30 934 H 91.8622 -1.21078 3.69151 0
M  V30 935 H 93.5342 1.29285 4.42813 0
M  V30 936 H 91.7772 1.28224 4.14416 0
M  V30 937 H 92.4482 0.380944 5.50684 0
M  V30 938 H 94.9242 -0.895597 4.06347 0
M  V30 939 H 93.8002 -1.61127 5.24718 0
M  V30 940 H 94.0612 -2.41146 3.70541 0
M  V30 941 N 93.1203 -1.57491 0.0584922 0
M  V30 942 C 94.3693 -1.92155 -0.613146 0
M  V30 943 C 94.6823 -0.939334 -1.71569 0
M  V30 944 O 95.8883 -1.17829 -2.44599 0
M  V30 945 C 94.3443 -3.41303 -1.14195 0
M  V30 946 C 93.9523 -4.47944 -0.0711265 0
M  V30 947 C 95.6963 -3.84988 -1.78841 0
M  V30 948 C 93.6033 -5.88212 -0.613225 0
M  V30 949 H 92.5333 -0.717162 -0.232796 0
M  V30 950 H 95.1843 -1.83049 0.12857 0
M  V30 951 H 93.5663 -3.45437 -1.93621 0
M  V30 952 H 94.7403 -4.55408 0.702836 0
M  V30 953 H 93.0553 -4.13644 0.478313 0
M  V30 954 H 95.6523 -4.87159 -2.20408 0
M  V30 955 H 95.9953 -3.21632 -2.64308 0
M  V30 956 H 96.5283 -3.83401 -1.06059 0
M  V30 957 H 93.2673 -6.55183 0.203978 0
M  V30 958 H 92.7873 -5.84294 -1.35501 0
M  V30 959 H 94.4663 -6.37687 -1.09383 0
M  V30 960 N 94.5984 0.214957 -1.56127 0
M  V30 961 C 95.5284 1.2695 -1.95974 0
M  V30 962 C 96.5094 1.48539 -0.828868 0
M  V30 963 O 97.6944 1.60611 -1.09168 0
M  V30 964 C 94.8244 2.61794 -2.28214 0
M  V30 965 C 93.7784 2.54851 -3.43853 0
M  V30 966 C 93.1044 3.93785 -3.61715 0
M  V30 967 C 94.4044 2.09065 -4.78632 0
M  V30 968 H 96.0984 0.93846 -2.84312 0
M  V30 969 H 93.6444 0.449996 -1.36788 0
M  V30 970 H 95.5974 3.35731 -2.54682 0
M  V30 971 H 94.3214 2.96599 -1.36736 0
M  V30 972 H 92.9804 1.8337 -3.17444 0
M  V30 973 H 92.6284 4.25908 -2.67602 0
M  V30 974 H 92.3284 3.90019 -4.39498 0
M  V30 975 H 93.8524 4.69374 -3.90539 0
M  V30 976 H 95.2664 2.7275 -5.04262 0
M  V30 977 H 93.6634 2.16346 -5.59745 0
M  V30 978 H 94.7334 1.04315 -4.73547 0
M  V30 979 N 96.0765 1.50051 0.48192 0
M  V30 980 C 97.3245 1.60181 1.23234 0
M  V30 981 C 97.6455 0.299176 1.92691 0
M  V30 982 O 96.9155 -0.682708 1.83619 0
M  V30 983 H 95.4955 0.590232 0.457859 0
M  V30 984 H 98.1575 1.86775 0.556881 0
M  V30 985 H 97.2535 2.40753 1.98607 0
M  V30 986 N 97.5546 -0.734337 1.39446 0
M  V30 987 C 98.5046 -1.83949 1.34709 0
M  V30 988 C 99.4886 -1.59279 0.227851 0
M  V30 989 O 100.681 -1.70771 0.465438 0
M  V30 990 C 97.8096 -3.21884 1.19356 0
M  V30 991 C 96.8956 -3.52381 2.35984 0
M  V30 992 N 97.2866 -3.53811 3.61457 0
M  V30 993 C 95.5846 -3.82747 2.28956 0
M  V30 994 C 96.2856 -3.82122 4.38586 0
M  V30 995 N 95.2616 -3.9993 3.68181 0
M  V30 996 H 99.0636 -1.83361 2.29687 0
M  V30 997 H 96.5776 -0.932609 1.32952 0
M  V30 998 H 98.5746 -4.00998 1.14046 0
M  V30 999 H 97.2346 -3.23711 0.253295 0
M  V30 1000 H 98.2456 -3.35107 3.94872 0
M  V30 1001 H 94.9226 -3.92175 1.43194 0
M  V30 1002 H 96.3126 -3.89691 5.47349 0
M  V30 1003 N 99.0327 -1.24633 -0.964593 0
M  V30 1004 C 99.9427 -1.05859 -2.09359 0
M  V30 1005 C 100.959 0.00148855 -1.74 0
M  V30 1006 O 102.135 -0.197346 -2.00431 0
M  V30 1007 C 99.1997 -0.668879 -3.40187 0
M  V30 1008 C 98.2607 -1.80578 -3.89474 0
M  V30 1009 C 97.4937 -1.43457 -5.14058 0
M  V30 1010 O 97.7167 -0.325775 -5.69469 0
M  V30 1011 O 96.6507 -2.2613 -5.57807 0
M  V30 1012 H 100.477 -2.00516 -2.28094 0
M  V30 1013 H 98.0617 -1.03481 -1.0776 0
M  V30 1014 H 99.9437 -0.463211 -4.18846 0
M  V30 1015 H 98.6187 0.248536 -3.22744 0
M  V30 1016 H 97.5257 -2.06623 -3.11862 0
M  V30 1017 H 98.8587 -2.70208 -4.11398 0
M  V30 1018 N 100.511 1.16574 -1.06058 0
M  V30 1019 C 101.759 1.86677 -0.77434 0
M  V30 1020 C 102.08 1.81959 0.701147 0
M  V30 1021 O 101.35 1.2515 1.50713 0
M  V30 1022 H 99.9298 0.691134 -0.283449 0
M  V30 1023 H 102.592 1.41378 -1.34158 0
M  V30 1024 H 101.688 2.92181 -1.09711 0
M  V30 1025 N 101.989 0.842826 1.3317 0
M  V30 1026 C 102.952 0.284065 2.27433 0
M  V30 1027 C 103.952 -0.54948 1.5112 0
M  V30 1028 O 105.142 -0.362699 1.70382 0
M  V30 1029 C 102.274 -0.599384 3.35589 0
M  V30 1030 H 103.467 1.11589 2.78366 0
M  V30 1031 H 101.02 0.616221 1.4364 0
M  V30 1032 H 101.755 -1.45349 2.89904 0
M  V30 1033 H 101.54 -0.00291266 3.921 0
M  V30 1034 H 103.03 -0.983488 4.05854 0
M  V30 1035 N 103.467 -1.45747 0.599634 0
M  V30 1036 C 104.715 -2.01893 0.0915472 0
M  V30 1037 C 105.036 -1.47155 -1.27946 0
M  V30 1038 O 104.306 -0.66273 -1.84349 0
M  V30 1039 H 102.886 -0.746363 0.0308524 0
M  V30 1040 H 105.548 -1.78645 0.779237 0
M  V30 1041 H 104.644 -3.1208 0.0353086 0
M  V30 1042 N 104.945 -0.338344 -1.53925 0
M  V30 1043 C 106.194 0.260732 -2.00008 0
M  V30 1044 C 106.507 1.52073 -1.23017 0
M  V30 1045 O 107.713 2.19672 -1.5955 0
M  V30 1046 C 106.169 0.51515 -3.56194 0
M  V30 1047 C 105.777 -0.728645 -4.42035 0
M  V30 1048 C 107.521 1.07337 -4.10706 0
M  V30 1049 C 105.428 -0.445315 -5.89721 0
M  V30 1050 H 104.358 0.101205 -0.747177 0
M  V30 1051 H 107.009 -0.452866 -1.77824 0
M  V30 1052 H 105.391 1.28932 -3.74423 0
M  V30 1053 H 106.565 -1.50352 -4.35581 0
M  V30 1054 H 104.88 -1.20813 -3.98489 0
M  V30 1055 H 107.477 1.30022 -5.18651 0
M  V30 1056 H 107.82 2.0273 -3.63602 0
M  V30 1057 H 108.353 0.360034 -3.96167 0
M  V30 1058 H 105.092 -1.36883 -6.41049 0
M  V30 1059 H 104.612 0.291569 -5.99091 0
M  V30 1060 H 106.291 -0.0606218 -6.46972 0
M  V30 1061 N 106.423 1.57458 -0.0668435 0
M  V30 1062 C 107.669 1.93587 0.6043 0
M  V30 1063 C 108.002 0.946722 1.69561 0
M  V30 1064 O 107.277 -0.0248516 1.94484 0
M  V30 1065 C 107.56 3.40014 1.18585 0
M  V30 1066 C 107.413 4.49685 0.101529 0
M  V30 1067 C 108.732 3.87154 2.09284 0
M  V30 1068 H 105.851 0.703958 0.218202 0
M  V30 1069 H 108.493 1.89542 -0.131804 0
M  V30 1070 H 106.643 3.43592 1.81319 0
M  V30 1071 H 108.315 4.5823 -0.531279 0
M  V30 1072 H 106.558 4.30059 -0.568487 0
M  V30 1073 H 107.229 5.49266 0.54874 0
M  V30 1074 H 109.705 3.85551 1.56491 0
M  V30 1075 H 108.581 4.90231 2.46911 0
M  V30 1076 H 108.842 3.2481 2.99918 0
M  V30 1077 N 107.901 -0.206675 1.56239 0
M  V30 1078 C 108.811 -1.27686 1.96808 0
M  V30 1079 C 109.827 -1.50455 0.874035 0
M  V30 1080 O 111.003 -1.63295 1.17884 0
M  V30 1081 C 108.068 -2.60358 2.28942 0
M  V30 1082 C 107.129 -2.45762 3.51994 0
M  V30 1083 C 106.362 -3.72108 3.82585 0
M  V30 1084 O 106.585 -4.75776 3.14631 0
M  V30 1085 O 105.519 -3.6833 4.76043 0
M  V30 1086 H 109.345 -0.962593 2.88041 0
M  V30 1087 H 106.93 -0.410746 1.43643 0
M  V30 1088 H 108.812 -3.38687 2.50737 0
M  V30 1089 H 107.487 -2.91435 1.4088 0
M  V30 1090 H 106.394 -1.65584 3.35459 0
M  V30 1091 H 107.727 -2.19621 4.40486 0
M  V30 1092 N 109.379 -1.50304 -0.473955 0
M  V30 1093 C 110.604 -1.65175 -1.25427 0
M  V30 1094 C 111.029 -0.333673 -1.85117 0
M  V30 1095 O 110.387 0.702114 -1.67153 0
M  V30 1096 C 110.435 -2.74295 -2.34082 0
M  V30 1097 O 109.539 -2.35349 -3.38651 0
M  V30 1098 H 108.88 -0.551944 -0.369126 0
M  V30 1099 H 111.41 -1.96662 -0.564364 0
M  V30 1100 H 111.42 -2.97285 -2.79438 0
M  V30 1101 H 110.095 -3.69959 -1.90008 0
M  V30 1102 H 108.672 -2.22794 -2.99027 0
M  V30 1103 N 110.857 0.726932 -1.39834 0
M  V30 1104 C 112.103 1.48884 -1.377 0
M  V30 1105 C 112.436 1.94185 0.0244852 0
M  V30 1106 O 111.711 1.67361 0.990986 0
M  V30 1107 C 111.994 2.72288 -2.3565 0
M  V30 1108 C 111.847 2.32956 -3.84775 0
M  V30 1109 C 113.166 3.74414 -2.31306 0
M  V30 1110 H 110.285 0.540062 -0.5015 0
M  V30 1111 H 112.927 0.830547 -1.70886 0
M  V30 1112 H 111.077 3.28457 -2.07481 0
M  V30 1113 H 112.749 1.82356 -4.23726 0
M  V30 1114 H 110.992 1.65088 -4.01159 0
M  V30 1115 H 111.663 3.21362 -4.4881 0
M  V30 1116 H 114.139 3.27849 -2.56231 0
M  V30 1117 H 113.015 4.58414 -3.01907 0
M  V30 1118 H 113.276 4.21909 -1.32081 0
M  V30 1119 N 112.336 1.25143 0.95797 0
M  V30 1120 C 113.584 1.09476 1.69881 0
M  V30 1121 C 113.905 -0.365502 1.91544 0
M  V30 1122 O 113.175 -1.25985 1.50015 0
M  V30 1123 H 111.755 0.402128 0.629525 0
M  V30 1124 H 114.417 1.57214 1.15194 0
M  V30 1125 H 113.513 1.60046 2.6794 0
M  V30 1126 N 113.814 -1.1601 1.06675 0
M  V30 1127 C 114.724 -2.24156 0.692179 0
M  V30 1128 C 115.74 -1.71507 -0.293513 0
M  V30 1129 O 116.916 -2.009 -0.141861 0
M  V30 1130 C 113.981 -3.46587 0.0884131 0
M  V30 1131 C 113.042 -4.14257 1.12646 0
M  V30 1132 C 112.275 -5.30844 0.551416 0
M  V30 1133 O 112.498 -5.66858 -0.634656 0
M  V30 1134 O 111.432 -5.87848 1.29298 0
M  V30 1135 H 115.258 -2.58513 1.59388 0
M  V30 1136 H 112.843 -1.23599 0.83926 0
M  V30 1137 H 114.725 -4.20679 -0.246361 0
M  V30 1138 H 113.4 -3.13994 -0.786712 0
M  V30 1139 H 112.307 -3.42118 1.51348 0
M  V30 1140 H 113.64 -4.50914 1.97325 0
M  V30 1141 N 115.292 -0.849877 -1.32721 0
M  V30 1142 C 116.54 -0.450032 -1.97026 0
M  V30 1143 C 116.861 0.996604 -1.67609 0
M  V30 1144 O 116.131 1.6958 -0.980786 0
M  V30 1145 H 114.711 -0.163426 -0.728904 0
M  V30 1146 H 117.373 -1.08526 -1.6189 0
M  V30 1147 H 116.469 -0.591146 -3.0645 0
M  V30 1148 N 116.77 1.45427 -0.607355 0
M  V30 1149 C 118.016 2.0254 -0.102607 0
M  V30 1150 C 118.349 1.47478 1.26348 0
M  V30 1151 O 117.624 0.64939 1.83339 0
M  V30 1152 C 117.907 3.60044 -0.0634347 0
M  V30 1153 C 117.76 4.2544 -1.46017 0
M  V30 1154 C 119.079 4.35646 0.624514 0
M  V30 1155 H 116.198 0.73598 -0.0387607 0
M  V30 1156 H 118.84 1.73284 -0.779282 0
M  V30 1157 H 116.99 3.85101 0.512808 0
M  V30 1158 H 118.662 4.11569 -2.08347 0
M  V30 1159 H 116.905 3.83849 -2.02094 0
M  V30 1160 H 117.576 5.34342 -1.385 0
M  V30 1161 H 120.052 4.15882 0.134723 0
M  V30 1162 H 118.928 5.45376 0.621028 0
M  V30 1163 H 119.189 4.08501 1.69055 0
M  V30 1164 N 118.248 0.346503 1.53744 0
M  V30 1165 C 119.476 -0.25041 2.05379 0
M  V30 1166 C 119.891 -1.43979 1.22129 0
M  V30 1167 O 119.248 -1.80677 0.257321 0
M  V30 1168 C 119.299 -0.662575 3.55376 0
M  V30 1169 O 119.02 0.479515 4.35468 0
M  V30 1170 C 120.521 -1.31989 4.23195 0
M  V30 1171 H 117.741 -0.0478198 0.669294 0
M  V30 1172 H 120.285 0.499346 1.9831 0
M  V30 1173 H 118.44 -1.36227 3.62658 0
M  V30 1174 H 118.854 0.15037 5.24284 0
M  V30 1175 H 120.328 -1.55902 5.29527 0
M  V30 1176 H 120.805 -2.27436 3.75725 0
M  V30 1177 H 121.411 -0.662154 4.20114 0
M  V30 1178 N 119.726 -1.57421 0.075193 0
M  V30 1179 C 120.673 -2.12915 -0.890843 0
M  V30 1180 C 121.643 -1.04252 -1.29309 0
M  V30 1181 O 122.828 -1.31933 -1.37834 0
M  V30 1182 C 119.968 -2.69795 -2.15186 0
M  V30 1183 C 119.081 -3.92624 -1.80194 0
M  V30 1184 C 118.216 -4.37736 -3.00933 0
M  V30 1185 C 117.255 -5.53205 -2.61974 0
M  V30 1186 N 116.392 -5.9326 -3.75483 0
M  V30 1187 H 121.232 -2.95156 -0.410735 0
M  V30 1188 H 118.769 -1.45854 -0.191086 0
M  V30 1189 H 120.727 -3.00883 -2.89008 0
M  V30 1190 H 119.357 -1.90313 -2.60731 0
M  V30 1191 H 118.409 -3.67977 -0.964218 0
M  V30 1192 H 119.721 -4.76482 -1.47534 0
M  V30 1193 H 118.875 -4.70503 -3.8303 0
M  V30 1194 H 117.614 -3.52739 -3.36789 0
M  V30 1195 H 116.619 -5.20086 -1.783 0
M  V30 1196 H 117.844 -6.39936 -2.27284 0
M  V30 1197 H 115.79 -5.11212 -4.11094 0
M  V30 1198 H 115.707 -6.71865 -3.46602 0
M  V30 1199 H 116.975 -6.30651 -4.58148 0
M  V30 1200 N 121.204 0.198386 -1.56346 0
M  V30 1201 C 122.134 1.24865 -1.9731 0
M  V30 1202 C 123.115 1.47651 -0.844576 0
M  V30 1203 O 124.3 1.59444 -1.10866 0
M  V30 1204 C 121.43 2.59358 -2.30977 0
M  V30 1205 C 120.384 2.5119 -3.46537 0
M  V30 1206 C 119.71 3.89926 -3.65871 0
M  V30 1207 C 121.01 2.03977 -4.80823 0
M  V30 1208 H 122.704 0.908252 -2.85291 0
M  V30 1209 H 120.25 0.435462 -1.37258 0
M  V30 1210 H 122.203 3.33011 -2.58228 0
M  V30 1211 H 120.927 2.95132 -1.39874 0
M  V30 1212 H 119.586 1.79993 -3.19371 0
M  V30 1213 H 119.234 4.23046 -2.72105 0
M  V30 1214 H 118.934 3.85336 -4.4361 0
M  V30 1215 H 120.458 4.65205 -3.95495 0
M  V30 1216 H 121.872 2.67386 -5.07127 0
M  V30 1217 H 120.269 2.10397 -5.62008 0
M  V30 1218 H 121.339 0.992861 -4.74626 0
M  V30 1219 N 122.682 1.50554 0.465978 0
M  V30 1220 C 123.629 1.6979 1.56333 0
M  V30 1221 C 124.599 0.539239 1.57103 0
M  V30 1222 O 125.784 0.770401 1.74555 0
M  V30 1223 C 122.924 1.80273 2.94271 0
M  V30 1224 C 122.037 3.07674 3.0325 0
M  V30 1225 C 121.172 3.08922 4.32135 0
M  V30 1226 C 120.211 4.30755 4.34875 0
M  V30 1227 N 119.348 4.29714 5.55239 0
M  V30 1228 H 124.188 2.63472 1.39235 0
M  V30 1229 H 121.725 1.30602 0.676873 0
M  V30 1230 H 123.683 1.84332 3.74269 0
M  V30 1231 H 122.313 0.900258 3.09992 0
M  V30 1232 H 121.365 3.13062 2.16094 0
M  V30 1233 H 122.677 3.97642 3.01135 0
M  V30 1234 H 121.831 3.11738 5.20485 0
M  V30 1235 H 120.57 2.16792 4.36866 0
M  V30 1236 H 119.575 4.28146 3.44922 0
M  V30 1237 H 120.8 5.24117 4.31831 0
M  V30 1238 H 118.746 3.4044 5.60746 0
M  V30 1239 H 118.663 5.13456 5.54886 0
M  V30 1240 H 119.931 4.36683 6.457 0
M  V30 1241 N 124.16 -0.719506 1.40217 0
M  V30 1242 C 125.123 -1.8153 1.39927 0
M  V30 1243 C 126.123 -1.58095 0.293723 0
M  V30 1244 O 127.313 -1.65209 0.552429 0
M  V30 1245 C 124.445 -3.19561 1.18716 0
M  V30 1246 H 125.638 -1.83186 2.37451 0
M  V30 1247 H 123.191 -0.924746 1.26008 0
M  V30 1248 H 123.926 -3.23557 0.219366 0
M  V30 1249 H 123.711 -3.3797 1.98793 0
M  V30 1250 H 125.201 -3.99598 1.21291 0
M  V30 1251 N 125.638 -1.25649 -0.95132 0
M  V30 1252 C 126.886 -1.10375 -1.69298 0
M  V30 1253 C 127.207 0.355339 -1.91735 0
M  V30 1254 O 126.477 1.25188 -1.50681 0
M  V30 1255 H 125.057 -0.405461 -0.627384 0
M  V30 1256 H 127.719 -1.57823 -1.14358 0
M  V30 1257 H 126.815 -1.61465 -2.67087 0
M  V30 1258 N 127.117 1.15442 -1.07289 0
M  V30 1259 C 128.394 1.82306 -0.708792 0
M  V30 1260 C 128.774 1.94991 0.808807 0
M  V30 1261 O 128.122 1.50085 1.72298 0
M  V30 1262 C 128.332 3.18695 -1.42247 0
M  V30 1263 C 129.68 3.94341 -1.57417 0
M  V30 1264 O 130.704 3.28247 -1.38319 0
M  V30 1265 O 129.563 5.12839 -1.88834 0
M  V30 1266 H 126.657 0.787628 -0.252132 0
M  V30 1267 H 129.203 1.22559 -1.17377 0
M  V30 1268 H 127.975 3.04557 -2.45684 0
M  V30 1269 H 127.598 3.86128 -0.948223 0
M  V30 1270 N 128.595 0.856903 1.32268 0
M  V30 1271 C 129.823 0.475439 2.01363 0
M  V30 1272 C 130.238 -0.928486 1.64392 0
M  V30 1273 O 129.595 -1.60624 0.866387 0
M  V30 1274 C 129.646 0.607545 3.56358 0
M  V30 1275 O 129.367 1.95617 3.92002 0
M  V30 1276 C 130.868 0.225382 4.42727 0
M  V30 1277 H 128.088 0.186636 0.644521 0
M  V30 1278 H 130.632 1.15446 1.68797 0
M  V30 1279 H 128.787 -0.0237719 3.87393 0
M  V30 1280 H 129.201 1.95455 4.86721 0
M  V30 1281 H 130.675 0.368813 5.50767 0
M  V30 1282 H 131.152 -0.834369 4.31202 0
M  V30 1283 H 131.758 0.831864 4.17085 0
M  V30 1284 N 130.073 -1.45103 0.615059 0
M  V30 1285 C 131.319 -2.02483 0.113347 0
M  V30 1286 C 131.652 -1.48146 -1.25564 0
M  V30 1287 O 130.927 -0.659104 -1.82992 0
M  V30 1288 C 131.21 -3.60005 0.0825278 0
M  V30 1289 C 131.063 -4.2466 1.48271 0
M  V30 1290 C 132.382 -4.35972 -0.601401 0
M  V30 1291 H 129.501 -0.735764 0.0426632 0
M  V30 1292 H 132.143 -1.72868 0.788461 0
M  V30 1293 H 130.293 -3.85367 -0.492378 0
M  V30 1294 H 131.965 -4.10458 2.10527 0
M  V30 1295 H 130.208 -3.82772 2.04127 0
M  V30 1296 H 130.879 -5.336 1.41332 0
M  V30 1297 H 133.355 -4.15947 -0.112666 0
M  V30 1298 H 132.231 -5.45697 -0.592097 0
M  V30 1299 H 132.492 -4.09391 -1.66887 0
M  V30 1300 N 131.551 -0.354651 -1.53558 0
M  V30 1301 C 132.8 0.239504 -2.00273 0
M  V30 1302 C 133.113 1.50759 -1.24623 0
M  V30 1303 O 134.319 2.17968 -1.61871 0
M  V30 1304 C 132.775 0.477341 -3.5672 0
M  V30 1305 C 132.383 -0.775488 -4.41237 0
M  V30 1306 C 134.127 1.02975 -4.11821 0
M  V30 1307 C 132.034 -0.507838 -5.89216 0
M  V30 1308 H 130.964 0.0932743 -0.748208 0
M  V30 1309 H 133.615 -0.471701 -1.77334 0
M  V30 1310 H 131.997 1.24953 -3.7577 0
M  V30 1311 H 133.171 -1.54963 -4.33962 0
M  V30 1312 H 131.486 -1.25033 -3.97185 0
M  V30 1313 H 134.083 1.24513 -5.2 0
M  V30 1314 H 134.426 1.98862 -3.65731 0
M  V30 1315 H 134.959 0.317994 -3.96527 0
M  V30 1316 H 131.698 -1.43674 -6.39561 0
M  V30 1317 H 131.218 0.228011 -5.99366 0
M  V30 1318 H 132.897 -0.129238 -6.46871 0
M  V30 1319 N 133.029 1.57378 -0.0835403 0
M  V30 1320 C 134.44 1.81261 0.447358 0
M  V30 1321 C 134.791 0.998331 1.68902 0
M  V30 1322 O 133.916 0.224282 2.15235 0
M  V30 1323 C 134.511 3.28767 0.818386 0
M  V30 1324 C 133.07 3.53455 1.29409 0
M  V30 1325 C 132.217 2.75831 0.285024 0
M  V30 1326 H 135.168 1.5566 -0.309115 0
M  V30 1327 H 135.189 3.41459 1.67887 0
M  V30 1328 H 134.701 3.88006 -0.0855019 0
M  V30 1329 H 132.802 2.99534 2.21608 0
M  V30 1330 H 132.915 4.62128 1.2639 0
M  V30 1331 H 131.279 2.42947 0.764767 0
M  V30 1332 H 132.062 3.37813 -0.611341 0
M  V30 1333 N 134.507 -0.190092 1.56449 0
M  V30 1334 C 135.437 -1.23816 1.97969 0
M  V30 1335 C 136.418 -1.47201 0.852395 0
M  V30 1336 O 137.603 -1.58854 1.1171 0
M  V30 1337 C 134.733 -2.5813 2.3235 0
M  V30 1338 C 133.687 -2.49348 3.47864 0
M  V30 1339 C 133.013 -3.8798 3.67934 0
M  V30 1340 C 134.313 -2.01424 4.81898 0
M  V30 1341 H 136.007 -0.89311 2.85769 0
M  V30 1342 H 133.553 -0.428177 1.37487 0
M  V30 1343 H 135.506 -3.31637 2.59991 0
M  V30 1344 H 134.23 -2.94386 1.41438 0
M  V30 1345 H 132.889 -1.78297 3.20321 0
M  V30 1346 H 132.537 -4.21597 2.74344 0
M  V30 1347 H 132.237 -3.82978 4.45648 0
M  V30 1348 H 133.761 -4.63101 3.97957 0
M  V30 1349 H 135.175 -2.64693 5.08538 0
M  V30 1350 H 133.572 -2.07413 5.63116 0
M  V30 1351 H 134.642 -0.967677 4.75146 0
M  V30 1352 N 135.985 -1.50799 -0.457987 0
M  V30 1353 C 137.215 -1.65977 -1.23025 0
M  V30 1354 C 137.623 -0.347918 -1.85974 0
M  V30 1355 O 136.966 0.68148 -1.70592 0
M  V30 1356 C 137.028 -2.70309 -2.3701 0
M  V30 1357 C 136.692 -4.135 -1.94594 0
M  V30 1358 C 137.689 -4.98949 -1.46101 0
M  V30 1359 C 135.374 -4.5949 -2.02915 0
M  V30 1360 C 137.368 -6.28442 -1.06489 0
M  V30 1361 C 135.055 -5.88984 -1.62914 0
M  V30 1362 C 136.053 -6.73286 -1.1478 0
M  V30 1363 O 135.741 -8.00362 -0.75339 0
M  V30 1364 H 135.473 -0.56064 -0.377702 0
M  V30 1365 H 138.027 -1.97857 -0.551537 0
M  V30 1366 H 136.257 -2.337 -3.08093 0
M  V30 1367 H 137.946 -2.74574 -2.98938 0
M  V30 1368 H 138.712 -4.6463 -1.39084 0
M  V30 1369 H 134.591 -3.94009 -2.39328 0
M  V30 1370 H 138.135 -6.94194 -0.688488 0
M  V30 1371 H 134.032 -6.22822 -1.69595 0
M  V30 1372 H 134.8 -8.13744 -0.88108 0
M  V30 1373 N 137.463 0.71206 -1.40597 0
M  V30 1374 C 138.712 1.46754 -1.38369 0
M  V30 1375 C 139.025 1.95598 0.0097839 0
M  V30 1376 O 140.231 2.71059 0.154677 0
M  V30 1377 C 138.687 2.65289 -2.43207 0
M  V30 1378 C 138.295 2.23301 -3.88382 0
M  V30 1379 C 140.039 3.43008 -2.50091 0
M  V30 1380 C 137.946 3.38696 -4.84808 0
M  V30 1381 H 136.876 0.55118 -0.514506 0
M  V30 1382 H 139.527 0.774616 -1.66349 0
M  V30 1383 H 137.909 3.36769 -2.08332 0
M  V30 1384 H 139.083 1.59218 -4.32419 0
M  V30 1385 H 137.398 1.58618 -3.85006 0
M  V30 1386 H 139.995 4.28881 -3.1932 0
M  V30 1387 H 140.338 3.87065 -1.53253 0
M  V30 1388 H 140.871 2.78574 -2.83974 0
M  V30 1389 H 137.61 2.99668 -5.82992 0
M  V30 1390 H 137.13 4.01683 -4.45433 0
M  V30 1391 H 138.809 4.04712 -5.04794 0
M  V30 1392 N 138.941 1.26152 0.944643 0
M  V30 1393 C 140.352 1.10454 1.50522 0
M  V30 1394 C 140.703 -0.31635 1.93633 0
M  V30 1395 O 139.828 -1.20746 1.79581 0
M  V30 1396 C 140.423 1.99891 2.73549 0
M  V30 1397 C 138.982 1.88348 3.25886 0
M  V30 1398 C 138.129 1.93447 1.9868 0
M  V30 1399 H 141.08 1.39292 0.760489 0
M  V30 1400 H 141.101 1.54477 3.47732 0
M  V30 1401 H 140.613 3.03297 2.42141 0
M  V30 1402 H 138.714 0.878636 3.62092 0
M  V30 1403 H 138.827 2.73696 3.93227 0
M  V30 1404 H 137.191 1.37456 2.14425 0
M  V30 1405 H 137.974 2.98476 1.69607 0
M  V30 1406 N 140.419 -1.14872 1.07899 0
M  V30 1407 C 141.351 -2.19425 0.662231 0
M  V30 1408 C 142.364 -1.60231 -0.288079 0
M  V30 1409 O 143.553 -1.78336 -0.076534 0
M  V30 1410 C 140.653 -3.38867 -0.0470695 0
M  V30 1411 C 139.826 -4.27597 0.920831 0
M  V30 1412 C 138.885 -5.25616 0.247805 0
M  V30 1413 O 137.911 -5.62189 0.890599 0
M  V30 1414 N 139.113 -5.71746 -1.00435 0
M  V30 1415 H 141.878 -2.55797 1.56166 0
M  V30 1416 H 139.439 -1.30042 0.964404 0
M  V30 1417 H 141.431 -4.01497 -0.50813 0
M  V30 1418 H 140.001 -3.00864 -0.848523 0
M  V30 1419 H 139.221 -3.61982 1.56087 0
M  V30 1420 H 140.509 -4.83748 1.57688 0
M  V30 1421 H 139.907 -5.44153 -1.54642 0
M  V30 1422 H 138.464 -6.36389 -1.40899 0
M  V30 1423 N 141.898 -0.863906 -1.31812 0
M  V30 1424 C 143.138 -0.47825 -1.98726 0
M  V30 1425 C 143.502 0.950397 -1.66828 0
M  V30 1426 O 144.703 1.44109 -2.26905 0
M  V30 1427 C 142.974 -0.721134 -3.50049 0
M  V30 1428 S 144.533 -0.434432 -4.36644 0
M  V30 1429 H 141.351 -0.178773 -0.688158 0
M  V30 1430 H 143.953 -1.11862 -1.60334 0
M  V30 1431 H 142.657 -1.75981 -3.70755 0
M  V30 1432 H 142.188 -0.0675315 -3.93342 0
M  V30 1433 H 144.203 0.735786 -4.90714 0
M  V30 1434 N 143.376 1.44774 -0.622745 0
M  V30 1435 C 144.624 2.01721 -0.123655 0
M  V30 1436 C 144.945 1.49172 1.25589 0
M  V30 1437 O 144.215 0.691974 1.83272 0
M  V30 1438 H 142.795 0.745777 -0.0427225 0
M  V30 1439 H 145.457 1.77382 -0.807559 0
M  V30 1440 H 144.553 3.11984 -0.0849534 0
M  V30 1441 N 144.854 0.36279 1.53368 0
M  V30 1442 C 145.764 -0.492994 2.29362 0
M  V30 1443 C 146.78 -1.09507 1.35219 0
M  V30 1444 O 147.956 -1.10662 1.68273 0
M  V30 1445 C 145.021 -1.61855 3.066 0
M  V30 1446 C 144.082 -1.04429 4.16405 0
M  V30 1447 C 143.315 -2.11621 4.89951 0
M  V30 1448 O 143.538 -3.32684 4.63333 0
M  V30 1449 O 142.472 -1.74835 5.75948 0
M  V30 1450 H 146.298 0.125331 3.03441 0
M  V30 1451 H 143.883 0.127253 1.48857 0
M  V30 1452 H 145.765 -2.27302 3.54841 0
M  V30 1453 H 144.44 -2.22233 2.3536 0
M  V30 1454 H 143.347 -0.353819 3.72423 0
M  V30 1455 H 144.68 -0.485113 4.89804 0
M  V30 1456 N 146.332 -1.57332 0.0918853 0
M  V30 1457 C 147.572 -1.96117 -0.575988 0
M  V30 1458 C 147.936 -0.972499 -1.65549 0
M  V30 1459 O 149.137 -1.24872 -2.38034 0
M  V30 1460 C 147.408 -3.39407 -1.11973 0
M  V30 1461 S 148.967 -4.00185 -1.79992 0
M  V30 1462 H 145.785 -0.685682 -0.188045 0
M  V30 1463 H 148.387 -1.94755 0.170525 0
M  V30 1464 H 147.091 -4.09131 -0.322504 0
M  V30 1465 H 146.622 -3.44358 -1.90214 0
M  V30 1466 H 148.637 -3.88728 -3.08391 0
M  V30 1467 N 147.81 0.181792 -1.56548 0
M  V30 1468 C 148.757 1.22521 -1.95595 0
M  V30 1469 C 149.727 1.4454 -0.818373 0
M  V30 1470 O 150.912 1.57454 -1.07763 0
M  V30 1471 C 148.052 2.56193 -2.31212 0
M  V30 1472 C 147.165 2.41641 -3.58097 0
M  V30 1473 C 146.3 3.68108 -3.82975 0
M  V30 1474 C 145.339 3.48445 -5.03242 0
M  V30 1475 N 144.476 4.66956 -5.24306 0
M  V30 1476 H 149.316 0.885226 -2.84548 0
M  V30 1477 H 146.853 0.425718 -1.40805 0
M  V30 1478 H 148.811 3.34088 -2.49882 0
M  V30 1479 H 147.441 2.88208 -1.45382 0
M  V30 1480 H 146.493 1.54976 -3.474 0
M  V30 1481 H 147.805 2.23052 -4.46149 0
M  V30 1482 H 146.959 4.54441 -4.01956 0
M  V30 1483 H 145.698 3.89666 -2.93278 0
M  V30 1484 H 144.703 2.60499 -4.8417 0
M  V30 1485 H 145.928 3.2832 -5.9446 0
M  V30 1486 H 143.874 4.88752 -4.37559 0
M  V30 1487 H 143.791 4.51242 -6.06561 0
M  V30 1488 H 145.059 5.54602 -5.47756 0
M  V30 1489 N 149.288 1.51039 0.449983 0
M  V30 1490 C 150.535 1.63081 1.20045 0
M  V30 1491 C 150.863 0.341024 1.91487 0
M  V30 1492 O 150.118 -0.674276 1.83717 0
M  V30 1493 C 150.417 2.77556 2.25161 0
M  V30 1494 C 150.083 4.17289 1.70823 0
M  V30 1495 C 148.745 4.55305 1.55725 0
M  V30 1496 C 151.097 5.04536 1.3074 0
M  V30 1497 C 148.425 5.78287 0.989999 0
M  V30 1498 C 150.777 6.28085 0.754482 0
M  V30 1499 C 149.441 6.64885 0.590308 0
M  V30 1500 H 148.711 0.596755 0.439277 0
M  V30 1501 H 151.358 1.85037 0.49333 0
M  V30 1502 H 149.663 2.49771 3.01863 0
M  V30 1503 H 151.36 2.84073 2.83026 0
M  V30 1504 H 147.95 3.8731 1.83546 0
M  V30 1505 H 152.134 4.75782 1.41229 0
M  V30 1506 H 147.39 6.05456 0.850451 0
M  V30 1507 H 151.564 6.95038 0.435324 0
M  V30 1508 H 149.191 7.60055 0.14862 0
M  V30 1509 N 150.766 -0.704594 1.40972 0
M  V30 1510 C 152.006 -1.47691 1.41304 0
M  V30 1511 C 152.37 -1.91992 0.0178582 0
M  V30 1512 O 153.571 -2.68599 -0.103996 0
M  V30 1513 C 151.842 -2.66254 2.38419 0
M  V30 1514 S 153.401 -3.55516 2.57204 0
M  V30 1515 H 150.219 -0.504808 0.500689 0
M  V30 1516 H 152.821 -0.822962 1.77335 0
M  V30 1517 H 151.525 -2.31897 3.38603 0
M  V30 1518 H 151.056 -3.3655 2.03711 0
M  V30 1519 H 153.071 -4.61115 1.83268 0
M  V30 1520 N 152.244 -1.26651 -0.937939 0
M  V30 1521 C 153.174 -1.10993 -2.05433 0
M  V30 1522 C 154.155 -0.0142161 -1.70094 0
M  V30 1523 O 155.34 -0.186837 -1.93299 0
M  V30 1524 C 152.47 -0.745561 -3.39203 0
M  V30 1525 C 151.424 -1.79337 -3.88616 0
M  V30 1526 C 150.75 -1.28324 -5.19073 0
M  V30 1527 C 152.05 -3.19553 -4.13138 0
M  V30 1528 H 153.744 -2.0438 -2.1879 0
M  V30 1529 H 151.29 -0.984041 -1.05131 0
M  V30 1530 H 153.243 -0.622888 -4.16771 0
M  V30 1531 H 151.967 0.22401 -3.25831 0
M  V30 1532 H 150.626 -1.90477 -3.13231 0
M  V30 1533 H 150.274 -0.303414 -5.02084 0
M  V30 1534 H 149.974 -1.98369 -5.53103 0
M  V30 1535 H 151.498 -1.1733 -5.99221 0
M  V30 1536 H 152.912 -3.11471 -4.81309 0
M  V30 1537 H 151.309 -3.87218 -4.58457 0
M  V30 1538 H 152.379 -3.65368 -3.18801 0
M  V30 1539 N 153.722 1.14298 -1.08507 0
M  V30 1540 C 154.67 2.21483 -0.710483 0
M  V30 1541 C 155.664 1.66998 0.284234 0
M  V30 1542 O 156.87 1.79401 0.146692 0
M  V30 1543 H 153.245 0.721578 -0.211729 0
M  V30 1544 H 155.216 2.50348 -1.62384 0
M  V30 1545 C 153.965 3.4743 -0.137007 0
M  V30 1546 H 153.288 3.89686 -0.893592 0
M  V30 1547 H 154.728 4.2391 0.0872789 0
M  V30 1548 C 153.187 3.17548 1.12538 0
M  V30 1549 O 153.717 3.35437 2.21009 0
M  V30 1550 N 151.923 2.71499 1.03617 0
M  V30 1551 H 151.47 2.57143 0.153403 0
M  V30 1552 H 151.428 2.51881 1.88158 0
M  V30 1553 N 155.201 0.870884 1.31352 0
M  V30 1554 C 156.612 0.534714 1.78879 0
M  V30 1555 C 156.963 -0.948423 1.71754 0
M  V30 1556 O 156.088 -1.74055 1.28584 0
M  V30 1557 C 156.683 0.963839 3.24801 0
M  V30 1558 C 155.242 0.679311 3.70219 0
M  V30 1559 C 154.389 1.15465 2.52117 0
M  V30 1560 H 157.34 1.05651 1.18421 0
M  V30 1561 H 157.361 0.286892 3.79417 0
M  V30 1562 H 156.873 2.04332 3.29955 0
M  V30 1563 H 154.974 -0.388769 3.70566 0
M  V30 1564 H 155.087 1.25698 4.62317 0
M  V30 1565 H 153.451 0.574383 2.48139 0
M  V30 1566 H 154.234 2.24157 2.60016 0
M  V30 1567 N 156.679 -1.44442 0.630414 0
M  V30 1568 C 157.626 -2.30678 -0.0749355 0
M  V30 1569 C 158.596 -1.4344 -0.837502 0
M  V30 1570 O 159.781 -1.72343 -0.818684 0
M  V30 1571 C 156.921 -3.28706 -1.05103 0
M  V30 1572 C 156.034 -4.31046 -0.286954 0
M  V30 1573 C 155.169 -5.16167 -1.2548 0
M  V30 1574 C 154.208 -6.10216 -0.479843 0
M  V30 1575 N 153.345 -6.88039 -1.39811 0
M  V30 1576 H 158.185 -2.90454 0.666386 0
M  V30 1577 H 155.722 -1.43107 0.340404 0
M  V30 1578 H 157.68 -3.84027 -1.63031 0
M  V30 1579 H 156.31 -2.70632 -1.75949 0
M  V30 1580 H 155.362 -3.78203 0.408243 0
M  V30 1581 H 156.674 -4.97794 0.316657 0
M  V30 1582 H 155.828 -5.76002 -1.90544 0
M  V30 1583 H 154.567 -4.49491 -1.89233 0
M  V30 1584 H 153.572 -5.49491 0.184295 0
M  V30 1585 H 154.797 -6.78928 0.152965 0
M  V30 1586 H 152.743 -6.24032 -2.02287 0
M  V30 1587 H 152.66 -7.51223 -0.848508 0
M  V30 1588 H 153.928 -7.52397 -2.03762 0
M  V30 1589 N 158.157 -0.370918 -1.53173 0
M  V30 1590 C 159.385 0.217704 -2.05751 0
M  V30 1591 C 159.8 1.42018 -1.24404 0
M  V30 1592 O 159.157 1.80245 -0.286033 0
M  V30 1593 C 159.208 0.605954 -3.56385 0
M  V30 1594 O 158.929 -0.548734 -4.3465 0
M  V30 1595 C 160.43 1.2524 -4.25241 0
M  V30 1596 H 157.65 0.0371659 -0.66997 0
M  V30 1597 H 160.194 -0.530832 -1.9749 0
M  V30 1598 H 158.349 1.3044 -3.6478 0
M  V30 1599 H 158.763 -0.23376 -5.23979 0
M  V30 1600 H 160.237 1.47458 -5.3194 0
M  V30 1601 H 160.714 2.2143 -3.79296 0
M  V30 1602 H 161.32 0.595233 -4.21114 0
M  V30 1603 N 159.635 1.57281 -0.100228 0
M  V30 1604 C 160.583 2.15542 0.874328 0
M  V30 1605 C 161.577 1.09962 1.28859 0
M  V30 1606 O 162.783 1.28298 1.26252 0
M  V30 1607 H 159.158 0.689567 0.300003 0
M  V30 1608 H 161.129 2.96241 0.35829 0
M  V30 1609 C 159.878 2.75454 2.1218 0
M  V30 1610 H 159.201 3.56384 1.81193 0
M  V30 1611 H 160.641 3.19781 2.78417 0
M  V30 1612 C 159.1 1.71602 2.89921 0
M  V30 1613 O 159.63 1.15804 3.84646 0
M  V30 1614 N 157.836 1.41975 2.53558 0
M  V30 1615 H 157.383 1.87539 1.76598 0
M  V30 1616 H 157.341 0.727274 3.05873 0
M  V30 1617 N 161.113 -0.173488 1.56642 0
M  V30 1618 C 162.043 -1.2171 1.99271 0
M  V30 1619 C 163.024 -1.46289 0.867959 0
M  V30 1620 O 164.209 -1.5766 1.13388 0
M  V30 1621 C 161.339 -2.55651 2.35074 0
M  V30 1622 C 160.293 -2.45645 3.50489 0
M  V30 1623 C 159.619 -3.84056 3.72028 0
M  V30 1624 C 160.919 -1.96302 4.84007 0
M  V30 1625 H 162.613 -0.86275 2.867 0
M  V30 1626 H 160.159 -0.413571 1.37933 0
M  V30 1627 H 162.112 -3.2886 2.63494 0
M  V30 1628 H 160.836 -2.92869 1.44552 0
M  V30 1629 H 159.495 -1.7489 3.22194 0
M  V30 1630 H 159.143 -4.18664 2.788 0
M  V30 1631 H 158.843 -3.7823 4.49684 0
M  V30 1632 H 160.367 -4.58854 4.02846 0
M  V30 1633 H 161.781 -2.59284 5.11317 0
M  V30 1634 H 160.178 -2.01429 5.65284 0
M  V30 1635 H 161.248 -0.917226 4.76146 0
M  V30 1636 N 162.591 -1.51276 -0.441967 0
M  V30 1637 C 163.831 -1.65372 -1.20132 0
M  V30 1638 C 164.195 -0.359871 -1.88597 0
M  V30 1639 O 165.396 -0.376551 -2.66149 0
M  V30 1640 C 163.667 -2.8207 -2.1948 0
M  V30 1641 S 165.226 -3.16467 -3.03964 0
M  V30 1642 H 162.044 -0.582669 -0.407453 0
M  V30 1643 H 164.646 -1.89166 -0.493609 0
M  V30 1644 H 163.35 -3.74523 -1.67812 0
M  V30 1645 H 162.881 -2.6045 -2.94838 0
M  V30 1646 H 164.896 -2.62543 -4.21053 0
M  V30 1647 N 164.069 0.697108 -1.41344 0
M  V30 1648 C 165.001 1.8224 -1.39001 0
M  V30 1649 C 166.014 1.60152 -0.292428 0
M  V30 1650 O 167.203 1.69684 -0.554048 0
M  V30 1651 C 164.303 3.18976 -1.14489 0
M  V30 1652 C 163.476 3.68105 -2.36258 0
M  V30 1653 C 162.535 4.83506 -2.07625 0
M  V30 1654 O 161.561 4.95201 -2.8065 0
M  V30 1655 N 162.763 5.70637 -1.06555 0
M  V30 1656 H 165.528 1.84742 -2.35988 0
M  V30 1657 H 163.089 0.87937 -1.35936 0
M  V30 1658 H 165.081 3.93801 -0.932885 0
M  V30 1659 H 163.651 3.11508 -0.261043 0
M  V30 1660 H 162.871 2.84204 -2.7317 0
M  V30 1661 H 164.159 3.97667 -3.17393 0
M  V30 1662 H 163.557 5.63817 -0.461125 0
M  V30 1663 H 162.114 6.45368 -0.913444 0
M  V30 1664 N 165.547 1.27147 0.931209 0
M  V30 1665 C 166.494 1.09568 2.03134 0
M  V30 1666 C 167.464 -0.00222433 1.661 0
M  V30 1667 O 168.649 0.159439 1.90133 0
M  V30 1668 C 165.789 0.745231 3.36957 0
M  V30 1669 C 164.902 1.92041 3.86968 0
M  V30 1670 C 164.037 1.51216 5.09222 0
M  V30 1671 C 163.076 2.65504 5.5152 0
M  V30 1672 N 162.213 2.25291 6.64972 0
M  V30 1673 H 167.053 2.03708 2.17502 0
M  V30 1674 H 164.59 1.01411 1.06556 0
M  V30 1675 H 166.548 0.522878 4.1391 0
M  V30 1676 H 165.178 -0.159202 3.22407 0
M  V30 1677 H 164.23 2.25541 3.06326 0
M  V30 1678 H 165.542 2.77787 4.1429 0
M  V30 1679 H 164.696 1.25084 5.93666 0
M  V30 1680 H 163.435 0.625749 4.83669 0
M  V30 1681 H 162.44 2.92354 4.65628 0
M  V30 1682 H 163.665 3.54761 5.7907 0
M  V30 1683 H 161.611 1.39098 6.41083 0
M  V30 1684 H 161.528 3.04577 6.91931 0
M  V30 1685 H 162.796 2.02398 7.52765 0
M  V30 1686 N 167.025 -1.13721 1.09112 0
M  V30 1687 C 168.274 -1.84275 0.82009 0
M  V30 1688 C 168.587 -1.84253 -0.656509 0
M  V30 1689 O 169.793 -2.50668 -1.04296 0
M  V30 1690 C 168.249 -3.30825 1.41714 0
M  V30 1691 C 167.857 -3.39244 2.92605 0
M  V30 1692 C 169.601 -4.06443 1.22492 0
M  V30 1693 C 167.508 -4.80047 3.45411 0
M  V30 1694 H 166.438 -0.690387 0.30312 0
M  V30 1695 H 169.089 -1.28146 1.31343 0
M  V30 1696 H 167.471 -3.86737 0.851498 0
M  V30 1697 H 168.645 -2.93344 3.55367 0
M  V30 1698 H 166.96 -2.77088 3.10823 0
M  V30 1699 H 169.557 -5.10387 1.59402 0
M  V30 1700 H 169.9 -4.15972 0.165299 0
M  V30 1701 H 170.433 -3.56852 1.75788 0
M  V30 1702 H 167.172 -4.75709 4.50978 0
M  V30 1703 H 166.692 -5.26455 2.87411 0
M  V30 1704 H 168.371 -5.48957 3.42425 0
M  V30 1705 N 168.503 -0.877838 -1.30888 0
M  V30 1706 C 169.919 -0.570844 -1.49042 0
M  V30 1707 C 170.119 0.893159 -1.80624 0
M  V30 1708 O 169.175 1.67485 -1.88958 0
M  V30 1709 C 170.488 -1.47784 -2.61878 0
M  V30 1710 C 172.036 -1.48071 -2.75761 0
M  V30 1711 C 172.511 -2.37347 -3.91702 0
M  V30 1712 N 174.002 -2.35271 -3.99001 0
M  V30 1713 C 174.737 -3.01063 -4.88004 0
M  V30 1714 N 174.233 -3.76055 -5.81854 0
M  V30 1715 N 176.026 -2.90332 -4.81315 0
M  V30 1716 H 168.177 -1.82502 -1.0866 0
M  V30 1717 H 170.44 -0.780797 -0.537644 0
M  V30 1718 H 170.146 -2.51993 -2.45341 0
M  V30 1719 H 170.02 -1.18215 -3.58197 0
M  V30 1720 H 172.407 -0.446166 -2.91708 0
M  V30 1721 H 172.488 -1.81668 -1.80085 0
M  V30 1722 H 172.132 -3.40883 -3.76512 0
M  V30 1723 H 172.062 -2.01071 -4.86701 0
M  V30 1724 H 174.553 -1.80768 -3.3186 0
M  V30 1725 H 174.866 -4.23366 -6.46514 0
M  V30 1726 H 173.211 -3.80163 -5.81808 0
M  V30 1727 H 176.402 -2.31278 -4.06974 0
M  V30 1728 H 176.575 -3.41885 -5.50471 0
M  V30 1729 N 169.982 1.44106 -0.638065 0
M  V30 1730 C 171.228 2.02277 -0.145546 0
M  V30 1731 C 171.561 1.50125 1.23191 0
M  V30 1732 O 170.836 0.688133 1.8192 0
M  V30 1733 C 171.119 3.59829 -0.139791 0
M  V30 1734 C 170.972 4.22247 -1.55008 0
M  V30 1735 C 172.291 4.36873 0.531966 0
M  V30 1736 H 169.41 0.734992 -0.0543632 0
M  V30 1737 H 172.052 1.71592 -0.815863 0
M  V30 1738 H 170.202 3.86102 0.431007 0
M  V30 1739 H 171.874 4.07057 -2.1703 0
M  V30 1740 H 170.117 3.79476 -2.10191 0
M  V30 1741 H 170.788 5.31284 -1.49804 0
M  V30 1742 H 173.264 4.16074 0.0464781 0
M  V30 1743 H 172.14 5.4657 0.505206 0
M  V30 1744 H 172.401 4.11995 1.60352 0
M  V30 1745 N 171.46 0.379036 1.52974 0
M  V30 1746 C 172.688 -0.20679 2.05864 0
M  V30 1747 C 173.103 -1.41356 1.25155 0
M  V30 1748 O 172.46 -1.8009 0.295588 0
M  V30 1749 C 172.511 -0.587045 3.56702 0
M  V30 1750 O 172.232 0.571776 4.34353 0
M  V30 1751 C 173.733 -1.22983 4.25899 0
M  V30 1752 H 170.953 -0.0336123 0.670158 0
M  V30 1753 H 173.497 0.541298 1.97206 0
M  V30 1754 H 171.652 -1.28504 3.65466 0
M  V30 1755 H 172.066 0.261544 5.23847 0
M  V30 1756 H 173.54 -1.44635 5.32715 0
M  V30 1757 H 174.017 -2.19416 3.80465 0
M  V30 1758 H 174.623 -0.572892 4.21424 0
M  V30 1759 N 172.938 -1.57226 0.108567 0
M  V30 1760 C 173.87 -2.11809 -0.875752 0
M  V30 1761 C 174.883 -1.05839 -1.23701 0
M  V30 1762 O 176.072 -1.33245 -1.18778 0
M  V30 1763 C 173.172 -2.59411 -2.18081 0
M  V30 1764 C 172.345 -3.89364 -1.99284 0
M  V30 1765 C 171.404 -4.22672 -3.13424 0
M  V30 1766 O 170.43 -4.91668 -2.86795 0
M  V30 1767 N 171.632 -3.79154 -4.3957 0
M  V30 1768 H 174.397 -2.9689 -0.409477 0
M  V30 1769 H 171.958 -1.61721 -0.076158 0
M  V30 1770 H 173.95 -2.7873 -2.93414 0
M  V30 1771 H 172.52 -1.79268 -2.5609 0
M  V30 1772 H 171.74 -3.79059 -1.08203 0
M  V30 1773 H 173.028 -4.74358 -1.84017 0
M  V30 1774 H 172.426 -3.23486 -4.64083 0
M  V30 1775 H 170.983 -4.03602 -5.11809 0
M  V30 1776 N 174.416 0.165178 -1.56732 0
M  V30 1777 C 175.664 0.879068 -1.8198 0
M  V30 1778 C 175.985 1.82514 -0.686561 0
M  V30 1779 O 175.255 1.93694 0.293146 0
M  V30 1780 H 173.835 0.327608 -0.671329 0
M  V30 1781 H 176.497 0.163526 -1.94213 0
M  V30 1782 H 175.593 1.45228 -2.76252 0
M  V30 1783 N 175.894 1.51508 0.433938 0
M  V30 1784 C 176.841 1.73068 1.52696 0
M  V30 1785 C 177.811 0.572441 1.55924 0
M  V30 1786 O 178.996 0.807253 1.72882 0
M  V30 1787 C 176.136 1.86474 2.90381 0
M  V30 1788 C 175.249 3.14037 2.96656 0
M  V30 1789 C 174.384 3.18019 4.25485 0
M  V30 1790 C 173.423 4.39882 4.2564 0
M  V30 1791 N 172.56 4.41394 5.45999 0
M  V30 1792 H 177.4 2.66366 1.33615 0
M  V30 1793 H 174.937 1.32008 0.649018 0
M  V30 1794 H 176.895 1.92229 3.70275 0
M  V30 1795 H 175.525 0.965809 3.08013 0
M  V30 1796 H 174.577 3.17575 2.09404 0
M  V30 1797 H 175.889 4.0394 2.92633 0
M  V30 1798 H 175.043 3.22708 5.13755 0
M  V30 1799 H 173.782 2.2601 4.3217 0
M  V30 1800 H 172.787 4.35366 3.35763 0
M  V30 1801 H 174.012 5.33159 4.20617 0
M  V30 1802 H 171.958 3.52258 5.53399 0
M  V30 1803 H 171.875 5.25111 5.4387 0
M  V30 1804 H 173.143 4.50281 6.36292 0
M  V30 1805 N 177.372 -0.689602 1.41712 0
M  V30 1806 C 178.62 -1.4468 1.4111 0
M  V30 1807 C 178.941 -1.94986 0.0232196 0
M  V30 1808 O 178.211 -1.72097 -0.935913 0
M  V30 1809 H 176.791 -0.536847 0.519427 0
M  V30 1810 H 179.453 -0.815825 1.77004 0
M  V30 1811 H 178.549 -2.30706 2.10193 0
M  V30 1812 N 178.85 -1.27639 -0.924453 0
M  V30 1813 C 179.78 -1.13166 -2.04244 0
M  V30 1814 C 180.761 -0.032256 -1.70069 0
M  V30 1815 O 181.946 -0.207328 -1.9309 0
M  V30 1816 C 179.076 -0.781496 -3.38393 0
M  V30 1817 C 178.03 -1.83449 -3.86692 0
M  V30 1818 C 177.356 -1.33822 -5.17683 0
M  V30 1819 C 178.656 -3.23917 -4.09726 0
M  V30 1820 H 180.35 -2.06689 -2.1661 0
M  V30 1821 H 177.896 -0.995136 -1.04082 0
M  V30 1822 H 179.849 -0.667057 -4.16087 0
M  V30 1823 H 178.573 0.189439 -3.2605 0
M  V30 1824 H 177.232 -1.93789 -3.11193 0
M  V30 1825 H 176.88 -0.35665 -5.01734 0
M  V30 1826 H 176.58 -2.04224 -5.50968 0
M  V30 1827 H 178.104 -1.23679 -5.97943 0
M  V30 1828 H 179.518 -3.16559 -4.77978 0
M  V30 1829 H 177.915 -3.92059 -4.54324 0
M  V30 1830 H 178.985 -3.68729 -3.14908 0
M  V30 1831 N 180.328 1.1314 -1.09713 0
M  V30 1832 C 181.261 2.17735 -0.683137 0
M  V30 1833 C 182.239 1.59582 0.311841 0
M  V30 1834 O 183.423 1.87298 0.212514 0
M  V30 1835 C 180.55 3.38699 -0.00684324 0
M  V30 1836 C 179.596 4.1546 -0.964102 0
M  V30 1837 S 180.429 4.74733 -2.47767 0
M  V30 1838 C 181.585 5.9904 -1.81387 0
M  V30 1839 H 181.818 2.52515 -1.56918 0
M  V30 1840 H 179.351 1.24484 -0.913404 0
M  V30 1841 H 181.309 4.08765 0.377044 0
M  V30 1842 H 179.97 3.02214 0.85589 0
M  V30 1843 H 179.163 5.02093 -0.43803 0
M  V30 1844 H 178.765 3.51066 -1.28953 0
M  V30 1845 H 181.057 6.67846 -1.13967 0
M  V30 1846 H 182 6.56261 -2.65947 0
M  V30 1847 H 182.408 5.4976 -1.28155 0
M  V30 1848 N 181.806 0.884767 1.30421 0
M  V30 1849 C 183.217 0.553656 1.78302 0
M  V30 1850 C 183.568 -0.930153 1.7275 0
M  V30 1851 O 182.693 -1.72681 1.30423 0
M  V30 1852 C 183.288 0.998234 3.2376 0
M  V30 1853 C 181.847 0.71854 3.69478 0
M  V30 1854 C 180.994 1.18132 2.50879 0
M  V30 1855 H 183.945 1.06901 1.17294 0
M  V30 1856 H 183.966 0.327118 3.79091 0
M  V30 1857 H 183.478 2.0782 3.27769 0
M  V30 1858 H 181.579 -0.349444 3.70958 0
M  V30 1859 H 181.692 1.30595 4.60958 0
M  V30 1860 H 180.056 0.600669 2.47516 0
M  V30 1861 H 180.839 2.26902 2.57624 0
M  V30 1862 N 183.284 -1.43765 0.645699 0
M  V30 1863 C 184.561 -1.9541 0.0862963 0
M  V30 1864 C 184.941 -1.58725 -1.39175 0
M  V30 1865 O 184.289 -0.868581 -2.11348 0
M  V30 1866 C 184.499 -3.47488 0.324565 0
M  V30 1867 C 185.847 -4.24001 0.225497 0
M  V30 1868 O 186.871 -3.55274 0.256715 0
M  V30 1869 O 185.73 -5.46313 0.142801 0
M  V30 1870 H 182.824 -0.826882 -0.0139483 0
M  V30 1871 H 185.37 -1.53743 0.718415 0
M  V30 1872 H 184.142 -3.67289 1.3496 0
M  V30 1873 H 183.765 -3.96135 -0.340987 0
M  V30 1874 N 184.763 -0.387143 -1.52771 0
M  V30 1875 C 186.011 0.195349 -2.01154 0
M  V30 1876 C 186.332 1.475 -1.27549 0
M  V30 1877 O 185.602 1.91878 -0.394924 0
M  V30 1878 H 184.182 0.075178 -0.743207 0
M  V30 1879 H 186.844 -0.518337 -1.87881 0
M  V30 1880 H 185.94 0.407096 -3.09434 0
M  V30 1881 N 186.241 1.57166 -0.116904 0
M  V30 1882 C 187.469 1.99473 0.549383 0
M  V30 1883 C 187.884 0.996541 1.60357 0
M  V30 1884 O 187.241 -0.0108731 1.82497 0
M  V30 1885 C 187.292 3.41788 1.17741 0
M  V30 1886 O 187.013 4.37788 0.165362 0
M  V30 1887 C 188.514 3.99216 1.92722 0
M  V30 1888 H 185.734 0.655009 0.145616 0
M  V30 1889 H 188.278 2.03494 -0.202625 0
M  V30 1890 H 186.433 3.38713 1.88021 0
M  V30 1891 H 186.847 5.20806 0.621403 0
M  V30 1892 H 188.321 5.00882 2.31995 0
M  V30 1893 H 188.798 3.3824 2.80161 0
M  V30 1894 H 189.404 4.0583 1.27209 0
M  V30 1895 N 187.719 -0.156864 1.56817 0
M  V30 1896 C 188.944 -0.890331 1.87318 0
M  V30 1897 C 189.369 -1.74394 0.704855 0
M  V30 1898 O 188.727 -1.77972 -0.345786 0
M  V30 1899 C 188.775 -1.73102 3.16336 0
M  V30 1900 O 187.879 -2.83422 2.99576 0
M  V30 1901 H 187.22 -0.24857 0.615718 0
M  V30 1902 H 189.75 -0.150649 2.04045 0
M  V30 1903 H 189.76 -2.12803 3.48107 0
M  V30 1904 H 188.435 -1.10412 4.00976 0
M  V30 1905 H 187.012 -2.47199 2.7919 0
M  V30 1906 N 189.197 -1.51736 -0.425897 0
M  V30 1907 C 190.613 -1.40166 -0.76326 0
M  V30 1908 C 190.813 -0.492962 -1.95377 0
M  V30 1909 O 189.869 0.0475815 -2.52455 0
M  V30 1910 C 191.182 -2.82403 -1.03291 0
M  V30 1911 C 192.73 -2.91632 -1.13665 0
M  V30 1912 C 193.205 -4.34801 -1.43916 0
M  V30 1913 N 194.696 -4.3796 -1.50816 0
M  V30 1914 C 195.431 -5.4578 -1.75817 0
M  V30 1915 N 194.927 -6.63744 -1.98534 0
M  V30 1916 N 196.72 -5.33274 -1.77694 0
M  V30 1917 H 188.871 -2.09361 0.358 0
M  V30 1918 H 191.134 -0.942941 0.0978094 0
M  V30 1919 H 190.84 -3.50943 -0.230696 0
M  V30 1920 H 190.714 -3.22428 -1.95754 0
M  V30 1921 H 193.101 -2.23284 -1.92947 0
M  V30 1922 H 193.182 -2.55088 -0.190756 0
M  V30 1923 H 192.826 -5.03703 -0.65157 0
M  V30 1924 H 192.756 -4.68868 -2.39729 0
M  V30 1925 H 195.247 -3.52919 -1.35118 0
M  V30 1926 H 195.56 -7.41704 -2.17013 0
M  V30 1927 H 193.905 -6.66839 -1.95832 0
M  V30 1928 H 197.096 -4.40098 -1.59473 0
M  V30 1929 H 197.269 -6.1738 -1.9684 0
M  V30 1930 N 190.675 0.682077 -1.42076 0
M  V30 1931 C 191.922 1.44215 -1.42156 0
M  V30 1932 C 192.25 1.94468 -0.0354186 0
M  V30 1933 O 191.505 1.70816 0.955002 0
M  V30 1934 C 191.804 2.66036 -2.38662 0
M  V30 1935 C 191.47 2.34366 -3.85206 0
M  V30 1936 C 190.132 2.25439 -4.25124 0
M  V30 1937 C 192.484 2.08513 -4.77673 0
M  V30 1938 C 189.812 1.88775 -5.55501 0
M  V30 1939 C 192.164 1.73354 -6.08384 0
M  V30 1940 C 190.828 1.62933 -6.47309 0
M  V30 1941 H 190.098 0.527718 -0.520187 0
M  V30 1942 H 192.745 0.778387 -1.74967 0
M  V30 1943 H 191.05 3.3741 -1.99152 0
M  V30 1944 H 192.747 3.24205 -2.35991 0
M  V30 1945 H 189.337 2.42213 -3.53597 0
M  V30 1946 H 193.521 2.14346 -4.47626 0
M  V30 1947 H 188.777 1.7927 -5.84527 0
M  V30 1948 H 192.951 1.52373 -6.79526 0
M  V30 1949 H 190.578 1.34292 -7.48244 0
M  V30 1950 N 192.153 1.28127 0.917671 0
M  V30 1951 C 193.381 1.17892 1.70026 0
M  V30 1952 C 193.796 -0.262958 1.8696 0
M  V30 1953 O 193.153 -1.17811 1.3938 0
M  V30 1954 C 193.204 1.86872 3.09453 0
M  V30 1955 O 192.925 3.25428 2.93306 0
M  V30 1956 C 194.426 1.8289 4.03815 0
M  V30 1957 H 191.646 0.40942 0.531617 0
M  V30 1958 H 194.19 1.69181 1.14883 0
M  V30 1959 H 192.345 1.39464 3.61426 0
M  V30 1960 H 192.759 3.59918 3.81523 0
M  V30 1961 H 194.233 2.35751 4.99125 0
M  V30 1962 H 194.71 0.800412 4.31845 0
M  V30 1963 H 195.316 2.29959 3.57769 0
M  V30 1964 N 193.631 -1.12557 1.10312 0
M  V30 1965 C 194.871 -1.8568 0.854543 0
M  V30 1966 C 195.235 -1.82091 -0.608843 0
M  V30 1967 O 196.436 -2.50544 -0.973717 0
M  V30 1968 C 194.707 -3.2942 1.38626 0
M  V30 1969 S 196.266 -4.19931 1.27293 0
M  V30 1970 H 193.084 -0.640427 0.308827 0
M  V30 1971 H 195.686 -1.35599 1.40831 0
M  V30 1972 H 194.39 -3.2959 2.44537 0
M  V30 1973 H 193.921 -3.84566 0.82902 0
M  V30 1974 H 195.936 -4.95668 0.229776 0
M  V30 1975 N 195.109 -0.891671 -1.2995 0
M  V30 1976 C 196.056 -0.361736 -2.27948 0
M  V30 1977 C 197.026 0.551761 -1.56668 0
M  V30 1978 O 198.211 0.478736 -1.84696 0
M  V30 1979 C 195.351 0.411825 -3.42634 0
M  V30 1980 C 194.464 -0.531651 -4.28716 0
M  V30 1981 C 193.599 0.258167 -5.30572 0
M  V30 1982 C 192.638 -0.680349 -6.08307 0
M  V30 1983 N 191.775 0.0745613 -7.0206 0
M  V30 1984 H 196.615 -1.20254 -2.72659 0
M  V30 1985 H 194.152 -0.604352 -1.34112 0
M  V30 1986 H 196.11 0.876304 -4.07893 0
M  V30 1987 H 194.74 1.21715 -2.98974 0
M  V30 1988 H 193.792 -1.11463 -3.63703 0
M  V30 1989 H 195.104 -1.25038 -4.82874 0
M  V30 1990 H 194.258 0.784204 -6.0161 0
M  V30 1991 H 192.997 1.01008 -4.77126 0
M  V30 1992 H 192.002 -1.21796 -5.3614 0
M  V30 1993 H 193.227 -1.43145 -6.63842 0
M  V30 1994 H 191.173 0.808883 -6.50994 0
M  V30 1995 H 191.09 -0.584409 -7.53738 0
M  V30 1996 H 192.358 0.581123 -7.77331 0
M  V30 1997 N 196.587 1.43421 -0.653314 0
M  V30 1998 C 197.835 2.01414 -0.166415 0
M  V30 1999 C 198.156 1.51803 1.22397 0
M  V30 2000 O 197.426 0.730693 1.81763 0
M  V30 2001 H 196.006 0.744703 -0.0585319 0
M  V30 2002 H 198.668 1.75629 -0.845003 0
M  V30 2003 H 197.764 3.11734 -0.151111 0
M  V30 2004 N 198.065 0.39524 1.52563 0
M  V30 2005 C 199.012 -0.437036 2.26624 0
M  V30 2006 C 199.982 -1.05281 1.28472 0
M  V30 2007 O 201.167 -1.07971 1.57311 0
M  V30 2008 C 198.307 -1.55524 3.08069 0
M  V30 2009 C 197.42 -0.961745 4.21158 0
M  V30 2010 C 196.555 -2.05149 4.89987 0
M  V30 2011 C 195.594 -1.4342 5.95061 0
M  V30 2012 N 194.731 -2.46351 6.57462 0
M  V30 2013 H 199.571 0.200976 2.97322 0
M  V30 2014 H 197.108 0.110944 1.46681 0
M  V30 2015 H 199.066 -2.21437 3.53584 0
M  V30 2016 H 197.696 -2.16348 2.3957 0
M  V30 2017 H 196.748 -0.192048 3.79915 0
M  V30 2018 H 198.06 -0.470701 4.96574 0
M  V30 2019 H 197.214 -2.78819 5.38837 0
M  V30 2020 H 195.953 -2.57615 4.14109 0
M  V30 2021 H 194.958 -0.682774 5.45544 0
M  V30 2022 H 196.183 -0.917416 6.72875 0
M  V30 2023 H 194.129 -2.97975 5.8442 0
M  V30 2024 H 194.046 -2.02019 7.28508 0
M  V30 2025 H 195.314 -3.19633 7.10954 0
M  V30 2026 N 199.544 -1.57102 0.125237 0
M  V30 2027 C 200.772 -1.99761 -0.538797 0
M  V30 2028 C 201.187 -1.00503 -1.59827 0
M  V30 2029 O 200.544 0.00119474 -1.825 0
M  V30 2030 C 200.595 -3.42408 -1.15927 0
M  V30 2031 O 200.316 -4.37869 -0.142143 0
M  V30 2032 C 201.817 -4.00232 -1.90602 0
M  V30 2033 H 199.037 -0.655772 -0.14214 0
M  V30 2034 H 201.581 -2.03383 0.213413 0
M  V30 2035 H 199.736 -3.39706 -1.86223 0
M  V30 2036 H 200.15 -5.21128 -0.593775 0
M  V30 2037 H 201.624 -5.02105 -2.29335 0
M  V30 2038 H 202.101 -3.39721 -2.78363 0
M  V30 2039 H 202.707 -4.06499 -1.25055 0
M  V30 2040 N 201.022 0.148545 -1.56898 0
M  V30 2041 C 202.271 0.85984 -1.82454 0
M  V30 2042 C 202.584 1.82406 -0.706229 0
M  V30 2043 O 203.79 2.57938 -0.847349 0
M  V30 2044 C 202.246 1.57967 -3.2338 0
M  V30 2045 C 201.854 0.65794 -4.43142 0
M  V30 2046 C 203.598 2.27784 -3.58211 0
M  V30 2047 C 201.505 1.3793 -5.75091 0
M  V30 2048 H 200.435 0.324834 -0.68044 0
M  V30 2049 H 203.086 0.112588 -1.83154 0
M  V30 2050 H 201.468 2.37249 -3.17063 0
M  V30 2051 H 202.642 -0.0995497 -4.60692 0
M  V30 2052 H 200.957 0.0682643 -4.16344 0
M  V30 2053 H 203.554 2.8239 -4.54048 0
M  V30 2054 H 203.897 3.04204 -2.84193 0
M  V30 2055 H 204.43 1.55421 -3.66182 0
M  V30 2056 H 201.169 0.656982 -6.52199 0
M  V30 2057 H 200.689 2.10954 -5.61479 0
M  V30 2058 H 202.368 1.92063 -6.17835 0
M  V30 2059 N 202.5 1.5196 0.417844 0
M  V30 2060 C 203.43 1.77634 1.51554 0
M  V30 2061 C 204.411 0.626918 1.58126 0
M  V30 2062 O 205.596 0.871632 1.7354 0
M  V30 2063 C 202.726 1.91911 2.8946 0
M  V30 2064 C 201.68 3.07463 2.97743 0
M  V30 2065 C 201.006 3.06951 4.37819 0
M  V30 2066 C 202.306 4.47082 2.70027 0
M  V30 2067 H 204 2.6955 1.3032 0
M  V30 2068 H 201.546 1.29706 0.625492 0
M  V30 2069 H 203.499 2.08455 3.6623 0
M  V30 2070 H 202.223 0.966598 3.11969 0
M  V30 2071 H 200.882 2.90656 2.23416 0
M  V30 2072 H 200.53 2.09438 4.57323 0
M  V30 2073 H 200.23 3.84556 4.44286 0
M  V30 2074 H 201.754 3.25613 5.16535 0
M  V30 2075 H 203.168 4.6414 3.36522 0
M  V30 2076 H 201.565 5.2654 2.87881 0
M  V30 2077 H 202.635 4.55777 1.65514 0
M  V30 2078 N 203.978 -0.674533 1.42435 0
M  V30 2079 C 204.928 -1.7807 1.4239 0
M  V30 2080 C 205.912 -1.58169 0.295202 0
M  V30 2081 O 207.104 -1.68643 0.537449 0
M  V30 2082 C 204.233 -3.16532 1.32901 0
M  V30 2083 C 203.319 -3.42055 2.50717 0
M  V30 2084 N 203.71 -3.38162 3.76139 0
M  V30 2085 C 202.008 -3.72692 2.44983 0
M  V30 2086 C 202.709 -3.63177 4.54398 0
M  V30 2087 N 201.685 -3.83954 3.84812 0
M  V30 2088 H 205.487 -1.73454 2.37257 0
M  V30 2089 H 203.001 -0.875381 1.36788 0
M  V30 2090 H 204.998 -3.958 1.30951 0
M  V30 2091 H 203.658 -3.22345 0.390363 0
M  V30 2092 H 204.669 -3.18057 4.0873 0
M  V30 2093 H 201.346 -3.85749 1.59699 0
M  V30 2094 H 202.736 -3.66125 5.63384 0
M  V30 2095 N 205.456 -1.28612 -0.910864 0
M  V30 2096 C 206.686 -1.1862 -1.69153 0
M  V30 2097 C 207.094 0.257324 -1.87442 0
M  V30 2098 O 206.437 1.18543 -1.40332 0
M  V30 2099 C 206.499 -1.81606 -3.10257 0
M  V30 2100 C 206.163 -3.30864 -3.15243 0
M  V30 2101 C 207.16 -4.27256 -2.96223 0
M  V30 2102 C 204.845 -3.71871 -3.37664 0
M  V30 2103 C 206.839 -5.62631 -2.99541 0
M  V30 2104 C 204.526 -5.07371 -3.40614 0
M  V30 2105 C 205.524 -6.02561 -3.21573 0
M  V30 2106 O 205.212 -7.35589 -3.2429 0
M  V30 2107 H 204.944 -0.412633 -0.535453 0
M  V30 2108 H 207.498 -1.70306 -1.14827 0
M  V30 2109 H 205.728 -1.24418 -3.66138 0
M  V30 2110 H 207.417 -1.66092 -3.70362 0
M  V30 2111 H 208.183 -3.9691 -2.78725 0
M  V30 2112 H 204.062 -2.98241 -3.5153 0
M  V30 2113 H 207.606 -6.36907 -2.84597 0
M  V30 2114 H 203.503 -5.37366 -3.57642 0
M  V30 2115 H 204.271 -7.44252 -3.40633 0
M  V30 2116 N 206.934 1.1197 -1.10907 0
M  V30 2117 C 207.867 2.16998 -0.706192 0
M  V30 2118 C 208.845 1.59903 0.294897 0
M  V30 2119 O 210.029 1.87513 0.192636 0
M  V30 2120 C 207.156 3.38673 -0.0427664 0
M  V30 2121 C 206.202 4.14414 -1.00811 0
M  V30 2122 S 207.035 4.72079 -2.52789 0
M  V30 2123 C 208.191 5.97083 -1.87731 0
M  V30 2124 H 208.424 2.50837 -1.59587 0
M  V30 2125 H 205.957 1.23508 -0.926555 0
M  V30 2126 H 207.915 4.09142 0.333668 0
M  V30 2127 H 206.576 3.03105 0.823788 0
M  V30 2128 H 205.769 5.016 -0.491259 0
M  V30 2129 H 205.371 3.49678 -1.3267 0
M  V30 2130 H 207.663 6.66599 -1.21044 0
M  V30 2131 H 208.606 6.53403 -2.72892 0
M  V30 2132 H 209.014 5.4837 -1.33979 0
M  V30 2133 N 208.412 0.89855 1.29475 0
M  V30 2134 C 209.66 0.522847 1.9522 0
M  V30 2135 C 209.981 -0.93371 1.71192 0
M  V30 2136 O 209.251 -1.65823 1.04305 0
M  V30 2137 H 207.831 0.190366 0.722336 0
M  V30 2138 H 210.493 1.14459 1.5775 0
M  V30 2139 H 209.589 0.704476 3.04045 0
M  V30 2140 N 209.89 -1.43072 0.660911 0
M  V30 2141 C 211.118 -2.06067 0.185422 0
M  V30 2142 C 211.533 -1.49582 -1.15198 0
M  V30 2143 O 210.89 -0.630134 -1.71276 0
M  V30 2144 C 210.941 -3.61371 0.0966523 0
M  V30 2145 O 210.662 -4.15758 1.38119 0
M  V30 2146 C 212.163 -4.41455 -0.403996 0
M  V30 2147 H 209.383 -0.664459 0.0934604 0
M  V30 2148 H 211.927 -1.83447 0.90373 0
M  V30 2149 H 210.082 -3.8315 -0.572259 0
M  V30 2150 H 210.496 -5.09499 1.24542 0
M  V30 2151 H 211.97 -5.50437 -0.415045 0
M  V30 2152 H 212.447 -4.15036 -1.43674 0
M  V30 2153 H 213.053 -4.24663 0.232691 0
M  V30 2154 N 211.368 -0.403325 -1.52352 0
M  V30 2155 C 212.593 0.176499 -2.06648 0
M  V30 2156 C 213.018 1.38577 -1.27193 0
M  V30 2157 O 212.376 1.7879 -0.300637 0
M  V30 2158 C 212.424 0.511061 -3.5696 0
M  V30 2159 O 211.528 1.60294 -3.79973 0
M  V30 2160 H 210.869 0.0167337 -0.663789 0
M  V30 2161 H 213.399 -0.574848 -1.96359 0
M  V30 2162 H 213.409 0.771362 -4.00642 0
M  V30 2163 H 212.084 -0.37296 -4.14224 0
M  V30 2164 H 210.661 1.33526 -3.48174 0
M  V30 2165 N 212.846 1.57033 -0.133567 0
M  V30 2166 C 214.074 2.00044 0.528195 0
M  V30 2167 C 214.489 1.01349 1.59291 0
M  V30 2168 O 213.846 0.00848369 1.82498 0
M  V30 2169 C 213.897 3.43018 1.1411 0
M  V30 2170 O 213.618 4.37939 0.11892 0
M  V30 2171 C 215.119 4.01237 1.88477 0
M  V30 2172 H 212.339 0.656517 0.138661 0
M  V30 2173 H 214.883 2.03267 -0.224196 0
M  V30 2174 H 213.038 3.40688 1.84418 0
M  V30 2175 H 213.452 5.21436 0.56613 0
M  V30 2176 H 214.926 5.03314 2.26669 0
M  V30 2177 H 215.403 3.41193 2.76558 0
M  V30 2178 H 216.009 4.07156 1.22898 0
M  V30 2179 N 214.325 -0.140222 1.56975 0
M  V30 2180 C 215.572 -0.851687 1.83719 0
M  V30 2181 C 215.9 -1.80862 0.715485 0
M  V30 2182 O 215.155 -1.93464 -0.294956 0
M  V30 2183 C 215.454 -1.65386 3.16832 0
M  V30 2184 C 215.12 -0.843112 4.42947 0
M  V30 2185 C 213.782 -0.619464 4.77196 0
M  V30 2186 C 216.134 -0.276582 5.20466 0
M  V30 2187 C 213.462 0.181312 5.8642 0
M  V30 2188 C 215.814 0.51127 6.30531 0
M  V30 2189 C 214.478 0.745432 6.63325 0
M  V30 2190 H 213.748 -0.311654 0.672274 0
M  V30 2191 H 216.395 -0.115006 1.91154 0
M  V30 2192 H 214.7 -2.46084 3.04877 0
M  V30 2193 H 216.397 -2.20793 3.34741 0
M  V30 2194 H 212.987 -1.0275 4.16101 0
M  V30 2195 H 217.171 -0.436632 4.94376 0
M  V30 2196 H 212.427 0.372165 6.10266 0
M  V30 2197 H 216.601 0.957354 6.89788 0
M  V30 2198 H 214.228 1.36778 7.47794 0
M  V30 2199 N 215.803 -1.52179 -0.40978 0
M  V30 2200 C 217.028 -1.70347 -1.18308 0
M  V30 2201 C 217.453 -0.411887 -1.83535 0
M  V30 2202 O 216.811 0.630587 -1.6998 0
M  V30 2203 C 216.859 -2.83977 -2.22238 0
M  V30 2204 O 215.963 -2.495 -3.28365 0
M  V30 2205 H 215.304 -0.567103 -0.345384 0
M  V30 2206 H 217.834 -1.98879 -0.480445 0
M  V30 2207 H 217.844 -3.0887 -2.66577 0
M  V30 2208 H 216.519 -3.77685 -1.74146 0
M  V30 2209 H 215.096 -2.35277 -2.89308 0
M  V30 2210 N 217.281 0.66697 -1.42791 0
M  V30 2211 C 218.191 1.80962 -1.49299 0
M  V30 2212 C 219.207 1.69775 -0.381108 0
M  V30 2213 O 220.383 1.91188 -0.633188 0
M  V30 2214 C 217.448 3.17156 -1.40045 0
M  V30 2215 C 216.509 3.40242 -2.6179 0
M  V30 2216 C 215.742 4.69939 -2.52969 0
M  V30 2217 O 215.965 5.48372 -1.56985 0
M  V30 2218 O 214.899 4.94441 -3.43237 0
M  V30 2219 H 218.725 1.78427 -2.45759 0
M  V30 2220 H 216.31 0.823713 -1.24641 0
M  V30 2221 H 218.192 3.98413 -1.37276 0
M  V30 2222 H 216.867 3.20312 -0.467138 0
M  V30 2223 H 215.774 2.58802 -2.70134 0
M  V30 2224 H 217.107 3.41923 -3.54047 0
M  V30 2225 N 218.759 1.29093 0.90403 0
M  V30 2226 C 219.989 1.19516 1.68522 0
M  V30 2227 C 220.397 -0.24738 1.87576 0
M  V30 2228 O 219.74 -1.17798 1.40959 0
M  V30 2229 C 219.802 1.83249 3.0929 0
M  V30 2230 C 219.466 3.32531 3.13484 0
M  V30 2231 C 220.463 4.28821 2.93953 0
M  V30 2232 C 218.148 3.73656 3.35688 0
M  V30 2233 C 220.142 5.64212 2.96553 0
M  V30 2234 C 217.829 5.0917 3.37919 0
M  V30 2235 C 218.827 6.04258 3.18373 0
M  V30 2236 O 218.515 7.37298 3.20385 0
M  V30 2237 H 218.247 0.415467 0.533257 0
M  V30 2238 H 220.801 1.70912 1.13922 0
M  V30 2239 H 219.031 1.26358 3.65473 0
M  V30 2240 H 220.72 1.68054 3.69476 0
M  V30 2241 H 221.486 3.98382 2.76616 0
M  V30 2242 H 217.365 3.00101 3.49943 0
M  V30 2243 H 220.909 6.38407 2.81216 0
M  V30 2244 H 216.806 5.39256 3.54787 0
M  V30 2245 H 217.574 7.46048 3.36681 0
M  V30 2246 N 220.237 -1.11381 1.11499 0
M  V30 2247 C 221.465 -1.86934 0.88675 0
M  V30 2248 C 221.88 -1.80195 -0.563476 0
M  V30 2249 O 221.237 -1.18367 -1.38908 0
M  V30 2250 C 221.288 -3.35722 1.34064 0
M  V30 2251 O 221.009 -3.4232 2.73401 0
M  V30 2252 C 222.51 -4.2818 1.14791 0
M  V30 2253 H 219.73 -0.591117 0.317523 0
M  V30 2254 H 222.274 -1.40865 1.48248 0
M  V30 2255 H 220.429 -3.79294 0.788355 0
M  V30 2256 H 220.843 -4.34971 2.93087 0
M  V30 2257 H 222.317 -5.30817 1.5145 0
M  V30 2258 H 222.794 -4.39113 0.0875279 0
M  V30 2259 H 223.4 -3.90402 1.68721 0
M  V30 2260 N 221.715 -0.905404 -1.28997 0
M  V30 2261 C 222.961 -0.535039 -1.95615 0
M  V30 2262 C 223.294 0.917404 -1.71165 0
M  V30 2263 O 222.569 1.65123 -1.02785 0
M  V30 2264 C 222.852 -0.834918 -3.50287 0
M  V30 2265 C 222.705 -2.33948 -3.84172 0
M  V30 2266 C 224.024 -0.325318 -4.38896 0
M  V30 2267 H 221.143 -0.195861 -0.710498 0
M  V30 2268 H 223.785 -1.13313 -1.52513 0
M  V30 2269 H 221.935 -0.325904 -3.87131 0
M  V30 2270 H 223.607 -2.91847 -3.57243 0
M  V30 2271 H 221.85 -2.79789 -3.31513 0
M  V30 2272 H 222.521 -2.49987 -4.92149 0
M  V30 2273 H 224.997 -0.761256 -4.09077 0
M  V30 2274 H 223.873 -0.564295 -5.45992 0
M  V30 2275 H 224.134 0.774144 -4.35269 0
M  V30 2276 N 223.193 1.4272 -0.668489 0
M  V30 2277 C 224.439 2.01923 -0.188419 0
M  V30 2278 C 224.772 1.52704 1.19979 0
M  V30 2279 O 224.047 0.726566 1.8042 0
M  V30 2280 C 224.33 3.59451 -0.216085 0
M  V30 2281 C 224.183 4.18864 -1.6393 0
M  V30 2282 C 225.502 4.37903 0.439179 0
M  V30 2283 H 222.621 0.733674 -0.0699412 0
M  V30 2284 H 225.263 1.69822 -0.852076 0
M  V30 2285 H 223.413 3.86929 0.349012 0
M  V30 2286 H 225.085 4.02362 -2.25616 0
M  V30 2287 H 223.328 3.74933 -2.18193 0
M  V30 2288 H 223.999 5.27987 -1.61039 0
M  V30 2289 H 226.475 4.16079 -0.0417878 0
M  V30 2290 H 225.351 5.47519 0.389157 0
M  V30 2291 H 225.612 4.15303 1.51577 0
M  V30 2292 N 224.671 0.411399 1.52136 0
M  V30 2293 C 225.634 -0.401089 2.25663 0
M  V30 2294 C 226.634 -0.971732 1.28117 0
M  V30 2295 O 227.824 -0.850254 1.52041 0
M  V30 2296 C 224.956 -1.56483 3.02863 0
M  V30 2297 H 226.149 0.24295 2.98914 0
M  V30 2298 H 223.702 0.163968 1.55438 0
M  V30 2299 H 224.437 -2.24567 2.33967 0
M  V30 2300 H 224.222 -1.16211 3.74483 0
M  V30 2301 H 225.712 -2.13951 3.58629 0
M  V30 2302 N 226.149 -1.5696 0.141893 0
M  V30 2303 C 227.426 -1.87553 -0.555281 0
M  V30 2304 C 227.806 -1.04699 -1.83306 0
M  V30 2305 O 227.154 -0.132346 -2.28116 0
M  V30 2306 C 227.364 -3.39093 -0.825664 0
M  V30 2307 C 228.712 -4.08199 -1.16869 0
M  V30 2308 O 229.736 -3.44242 -0.915185 0
M  V30 2309 O 228.595 -5.21139 -1.6455 0
M  V30 2310 H 225.689 -0.777188 -0.282679 0
M  V30 2311 H 228.235 -1.68763 0.17812 0
M  V30 2312 H 227.007 -3.91221 0.0788633 0
M  V30 2313 H 226.63 -3.63393 -1.61343 0
M  V30 2314 N 227.627 0.131896 -1.57047 0
M  V30 2315 C 228.876 0.84044 -1.83356 0
M  V30 2316 C 229.189 1.81646 -0.725535 0
M  V30 2317 O 230.395 2.57025 -0.874659 0
M  V30 2318 C 228.851 1.54528 -3.25037 0
M  V30 2319 C 228.459 0.610902 -4.43815 0
M  V30 2320 C 230.203 2.23972 -3.60606 0
M  V30 2321 C 228.11 1.31823 -5.76521 0
M  V30 2322 H 227.04 0.317599 -0.683847 0
M  V30 2323 H 229.691 0.0931561 -1.83263 0
M  V30 2324 H 228.073 2.33873 -3.19561 0
M  V30 2325 H 229.247 -0.148407 -4.60561 0
M  V30 2326 H 227.562 0.0241016 -4.16393 0
M  V30 2327 H 230.159 2.77558 -4.57018 0
M  V30 2328 H 230.502 3.01173 -2.87403 0
M  V30 2329 H 231.035 1.51529 -3.6781 0
M  V30 2330 H 227.774 0.587771 -6.52859 0
M  V30 2331 H 227.294 2.04987 -5.63685 0
M  V30 2332 H 228.973 1.855 -6.19838 0
M  V30 2333 N 229.106 1.52395 0.401703 0
M  V30 2334 C 230.331 1.70972 1.17403 0
M  V30 2335 C 230.756 0.421615 1.83314 0
M  V30 2336 O 230.114 -0.621564 1.70312 0
M  V30 2337 C 230.162 2.85151 2.20728 0
M  V30 2338 O 229.266 2.51238 3.27037 0
M  V30 2339 H 228.607 0.568927 0.342372 0
M  V30 2340 H 231.137 1.99131 0.469891 0
M  V30 2341 H 231.147 3.10279 2.64936 0
M  V30 2342 H 229.822 3.78603 1.7214 0
M  V30 2343 H 228.399 2.36808 2.88057 0
M  V30 2344 N 230.584 -0.659388 1.43143 0
M  V30 2345 C 231.83 -1.42145 1.44647 0
M  V30 2346 C 232.163 -1.9408 0.0681907 0
M  V30 2347 O 231.438 -1.71899 -0.910007 0
M  V30 2348 C 231.721 -2.60735 2.48373 0
M  V30 2349 C 231.574 -2.14332 3.95451 0
M  V30 2350 C 232.893 -3.62951 2.48906 0
M  V30 2351 H 230.012 -0.51552 0.526696 0
M  V30 2352 H 232.654 -0.748069 1.74654 0
M  V30 2353 H 230.804 -3.18184 2.22916 0
M  V30 2354 H 232.476 -1.61932 4.31944 0
M  V30 2355 H 230.719 -1.4576 4.08578 0
M  V30 2356 H 231.39 -2.99583 4.63631 0
M  V30 2357 H 233.866 -3.1525 2.71582 0
M  V30 2358 H 232.742 -4.43487 3.23435 0
M  V30 2359 H 233.003 -4.15126 1.52061 0
M  V30 2360 N 232.062 -1.29571 -0.897171 0
M  V30 2361 C 233.025 -1.14913 -1.98312 0
M  V30 2362 C 234.025 -0.0838629 -1.60581 0
M  V30 2363 O 235.215 -0.331006 -1.71026 0
M  V30 2364 C 232.347 -0.757835 -3.3237 0
M  V30 2365 H 233.54 -2.11377 -2.12743 0
M  V30 2366 H 231.093 -1.12793 -1.08201 0
M  V30 2367 H 231.828 0.206837 -3.2364 0
M  V30 2368 H 231.613 -1.52755 -3.61121 0
M  V30 2369 H 233.103 -0.678408 -4.12053 0
M  V30 2370 N 233.54 1.10788 -1.12088 0
M  V30 2371 C 234.487 2.17025 -0.785407 0
M  V30 2372 C 235.457 1.64265 0.246191 0
M  V30 2373 O 236.642 1.90412 0.121584 0
M  V30 2374 C 233.782 3.44249 -0.242177 0
M  V30 2375 C 232.895 4.1098 -1.33115 0
M  V30 2376 C 232.03 5.25911 -0.747741 0
M  V30 2377 C 231.069 5.84538 -1.81609 0
M  V30 2378 N 230.206 6.90853 -1.25167 0
M  V30 2379 H 235.046 2.45066 -1.69548 0
M  V30 2380 H 232.583 1.20297 -0.846582 0
M  V30 2381 H 234.541 4.17101 0.0908026 0
M  V30 2382 H 233.171 3.16571 0.631072 0
M  V30 2383 H 232.223 3.36133 -1.78097 0
M  V30 2384 H 233.535 4.50601 -2.13917 0
M  V30 2385 H 232.689 6.056 -0.365216 0
M  V30 2386 H 231.428 4.87614 0.0915188 0
M  V30 2387 H 230.433 5.03522 -2.20785 0
M  V30 2388 H 231.658 6.249 -2.6585 0
M  V30 2389 H 229.604 6.54562 -0.434174 0
M  V30 2390 H 229.521 7.29166 -1.99633 0
M  V30 2391 H 230.789 7.7433 -0.896259 0
M  V30 2392 N 235.018 0.912232 1.28515 0
M  V30 2393 C 236.267 0.540504 1.94323 0
M  V30 2394 C 236.58 -0.920044 1.72611 0
M  V30 2395 O 237.786 -1.39986 2.32629 0
M  V30 2396 C 236.242 0.915803 3.48053 0
M  V30 2397 C 235.85 2.39598 3.78546 0
M  V30 2398 C 237.594 0.614588 4.20027 0
M  V30 2399 C 235.501 2.71148 5.25578 0
M  V30 2400 H 234.431 0.198418 0.727424 0
M  V30 2401 H 237.082 1.11094 1.46049 0
M  V30 2402 H 235.464 0.274168 3.9505 0
M  V30 2403 H 236.638 3.08422 3.42364 0
M  V30 2404 H 234.953 2.66749 3.1974 0
M  V30 2405 H 237.55 0.827002 5.28266 0
M  V30 2406 H 237.893 -0.447531 4.13887 0
M  V30 2407 H 238.426 1.21462 3.78803 0
M  V30 2408 H 235.165 3.76207 5.36794 0
M  V30 2409 H 234.685 2.0696 5.62963 0
M  V30 2410 H 236.364 2.58072 5.93302 0
M  V30 2411 N 236.496 -1.42363 0.676048 0
M  V30 2412 C 237.773 -1.95183 0.127726 0
M  V30 2413 C 238.153 -1.61641 -1.35777 0
M  V30 2414 O 237.501 -0.913216 -2.09458 0
M  V30 2415 C 237.711 -3.46721 0.398199 0
M  V30 2416 C 239.059 -4.23427 0.315383 0
M  V30 2417 O 240.083 -3.54649 0.332016 0
M  V30 2418 O 238.942 -5.45888 0.25865 0
M  V30 2419 H 236.036 -0.826992 0.00359427 0
M  V30 2420 H 238.582 -1.52184 0.750864 0
M  V30 2421 H 237.354 -3.64344 1.4272 0
M  V30 2422 H 236.977 -3.96769 -0.256885 0
M  V30 2423 N 237.974 -0.419461 -1.51915 0
M  V30 2424 C 239.385 0.0477853 -1.86639 0
M  V30 2425 C 239.736 1.43531 -1.33766 0
M  V30 2426 O 238.861 2.05401 -0.68113 0
M  V30 2427 C 239.456 0.0934885 -3.38671 0
M  V30 2428 C 238.015 0.505097 -3.72996 0
M  V30 2429 C 237.162 -0.313792 -2.75519 0
M  V30 2430 H 240.113 -0.636088 -1.45395 0
M  V30 2431 H 240.134 0.906667 -3.6954 0
M  V30 2432 H 239.646 -0.916501 -3.77123 0
M  V30 2433 H 237.747 1.52135 -3.40126 0
M  V30 2434 H 237.86 0.242309 -4.78487 0
M  V30 2435 H 236.224 0.225363 -2.53701 0
M  V30 2436 H 237.007 -1.32232 -3.16812 0
M  V30 2437 N 239.452 1.56882 -0.150215 0
M  V30 2438 C 240.382 2.19935 0.784284 0
M  V30 2439 C 241.363 1.14854 1.25469 0
M  V30 2440 O 242.548 1.43209 1.31168 0
M  V30 2441 C 239.678 2.82349 2.02229 0
M  V30 2442 C 238.632 3.93285 1.68853 0
M  V30 2443 C 237.958 4.42649 2.99944 0
M  V30 2444 C 239.258 5.13904 0.932714 0
M  V30 2445 H 240.952 2.9828 0.258781 0
M  V30 2446 H 238.498 1.43473 0.123029 0
M  V30 2447 H 240.451 3.25126 2.68088 0
M  V30 2448 H 239.175 2.0134 2.57157 0
M  V30 2449 H 237.834 3.5113 1.05371 0
M  V30 2450 H 237.482 3.58458 3.52869 0
M  V30 2451 H 237.182 5.17476 2.78374 0
M  V30 2452 H 238.706 4.88099 3.66868 0
M  V30 2453 H 240.12 5.53506 1.49345 0
M  V30 2454 H 238.517 5.94515 0.81684 0
M  V30 2455 H 239.587 4.84842 -0.0749568 0
M  V30 2456 N 240.93 -0.123565 1.57115 0
M  V30 2457 C 241.893 -1.13583 1.99076 0
M  V30 2458 C 242.893 -1.34564 0.880296 0
M  V30 2459 O 244.083 -1.31158 1.14644 0
M  V30 2460 C 241.215 -2.49128 2.32698 0
M  V30 2461 H 242.408 -0.775287 2.89706 0
M  V30 2462 H 239.961 -0.36771 1.51913 0
M  V30 2463 H 240.696 -2.90111 1.44934 0
M  V30 2464 H 240.481 -2.35255 3.13684 0
M  V30 2465 H 241.971 -3.2199 2.65918 0
M  V30 2466 N 242.408 -1.52605 -0.393616 0
M  V30 2467 C 243.819 -1.59417 -0.971761 0
M  V30 2468 C 244.17 -0.444173 -1.91106 0
M  V30 2469 O 243.295 0.433382 -2.12016 0
M  V30 2470 C 243.89 -2.88936 -1.76921 0
M  V30 2471 C 242.449 -2.98175 -2.29714 0
M  V30 2472 C 241.596 -2.54491 -1.10135 0
M  V30 2473 H 244.547 -1.57751 -0.173317 0
M  V30 2474 H 244.568 -2.75163 -2.62804 0
M  V30 2475 H 244.08 -3.72616 -1.08532 0
M  V30 2476 H 242.181 -2.19024 -3.01429 0
M  V30 2477 H 242.294 -4.02726 -2.59517 0
M  V30 2478 H 240.658 -2.08702 -1.45999 0
M  V30 2479 H 241.441 -3.4056 -0.432874 0
M  V30 2480 N 243.887 0.651787 -1.4349 0
M  V30 2481 C 244.817 1.77621 -1.51569 0
M  V30 2482 C 245.798 1.66022 -0.370253 0
M  V30 2483 O 246.983 1.85095 -0.587658 0
M  V30 2484 C 244.113 3.16056 -1.43966 0
M  V30 2485 C 243.067 3.4242 -2.56774 0
M  V30 2486 C 242.393 4.8067 -2.34223 0
M  V30 2487 C 243.693 3.37023 -3.99015 0
M  V30 2488 H 245.387 1.71117 -2.45681 0
M  V30 2489 H 242.933 0.821825 -1.18246 0
M  V30 2490 H 244.886 3.94472 -1.48221 0
M  V30 2491 H 243.61 3.23293 -0.463586 0
M  V30 2492 H 242.269 2.66375 -2.51873 0
M  V30 2493 H 241.917 4.84585 -1.34856 0
M  V30 2494 H 241.617 4.9927 -3.09844 0
M  V30 2495 H 243.141 5.61342 -2.40265 0
M  V30 2496 H 244.555 4.05374 -4.05395 0
M  V30 2497 H 242.952 3.67159 -4.74673 0
M  V30 2498 H 244.022 2.3518 -4.2405 0
M  V30 2499 N 245.365 1.30045 0.890287 0
M  V30 2500 C 246.642 1.09227 1.62262 0
M  V30 2501 C 247.022 -0.360305 2.08002 0
M  V30 2502 O 246.37 -1.35084 1.84295 0
M  V30 2503 C 246.58 2.08835 2.79623 0
M  V30 2504 C 247.928 2.40266 3.50082 0
M  V30 2505 O 248.952 2.07104 2.89804 0
M  V30 2506 O 247.811 2.96967 4.58773 0
M  V30 2507 H 244.905 0.419132 0.712922 0
M  V30 2508 H 247.451 1.41451 0.937529 0
M  V30 2509 H 246.223 3.06633 2.43089 0
M  V30 2510 H 245.846 1.77397 3.55832 0
M  V30 2511 N 246.843 -1.10192 1.12674 0
M  V30 2512 C 247.79 -2.16606 0.796906 0
M  V30 2513 C 248.76 -1.64394 -0.237476 0
M  V30 2514 O 249.945 -1.90474 -0.111484 0
M  V30 2515 C 247.085 -3.44116 0.26043 0
M  V30 2516 C 246.198 -4.10268 1.35293 0
M  V30 2517 C 245.333 -5.25507 0.775621 0
M  V30 2518 C 244.372 -5.83567 1.84706 0
M  V30 2519 N 243.509 -6.90179 1.28829 0
M  V30 2520 H 248.349 -2.44163 1.70846 0
M  V30 2521 H 245.886 -1.19846 0.85295 0
M  V30 2522 H 247.844 -4.17143 -0.0686814 0
M  V30 2523 H 246.474 -3.16901 -0.614274 0
M  V30 2524 H 245.526 -3.35184 1.79877 0
M  V30 2525 H 246.838 -4.4946 2.16303 0
M  V30 2526 H 245.992 -6.05398 0.397327 0
M  V30 2527 H 244.731 -4.87656 -0.0656581 0
M  V30 2528 H 243.736 -5.02344 2.23452 0
M  V30 2529 H 244.961 -6.23482 2.69161 0
M  V30 2530 H 242.907 -6.54322 0.468881 0
M  V30 2531 H 242.824 -7.28097 2.03497 0
M  V30 2532 H 244.092 -7.73844 0.937311 0
M  V30 2533 N 248.321 -0.919034 -1.28029 0
M  V30 2534 C 249.567 -0.555757 -1.95036 0
M  V30 2535 C 249.9 0.899198 -1.72128 0
M  V30 2536 O 249.175 1.64023 -1.04531 0
M  V30 2537 C 249.458 -0.872024 -3.49382 0
M  V30 2538 C 249.311 -2.3801 -3.81669 0
M  V30 2539 C 250.63 -0.37185 -4.38526 0
M  V30 2540 H 247.749 -0.203386 -0.708381 0
M  V30 2541 H 250.391 -1.14924 -1.51303 0
M  V30 2542 H 248.541 -0.366946 -3.86763 0
M  V30 2543 H 250.213 -2.9562 -3.54128 0
M  V30 2544 H 248.456 -2.83289 -3.28526 0
M  V30 2545 H 249.127 -2.55192 -4.8947 0
M  V30 2546 H 251.603 -0.804602 -4.08247 0
M  V30 2547 H 250.479 -0.622173 -5.45362 0
M  V30 2548 H 250.74 0.727934 -4.36066 0
M  V30 2549 N 249.799 1.42003 -0.683588 0
M  V30 2550 C 251.039 2.03282 -0.213513 0
M  V30 2551 C 251.403 1.52924 1.16097 0
M  V30 2552 O 252.604 2.06048 1.7262 0
M  V30 2553 C 250.875 3.56483 -0.255856 0
M  V30 2554 S 252.434 4.3857 0.14193 0
M  V30 2555 H 249.252 0.705659 -0.0869853 0
M  V30 2556 H 251.854 1.73619 -0.8987 0
M  V30 2557 H 250.558 3.90631 -1.25841 0
M  V30 2558 H 250.089 3.90831 0.448875 0
M  V30 2559 H 252.104 4.76828 1.37295 0
M  V30 2560 N 251.277 0.427512 1.51691 0
M  V30 2561 C 252.207 -0.3796 2.30394 0
M  V30 2562 C 253.188 -1.02982 1.35384 0
M  V30 2563 O 254.373 -1.03534 1.643 0
M  V30 2564 C 251.503 -1.48649 3.1388 0
M  V30 2565 C 250.457 -0.960294 4.17088 0
M  V30 2566 C 249.783 -2.16219 4.89033 0
M  V30 2567 C 251.083 -0.00153679 5.223 0
M  V30 2568 H 252.777 0.277164 2.98114 0
M  V30 2569 H 250.323 0.134739 1.43368 0
M  V30 2570 H 252.276 -2.05826 3.67714 0
M  V30 2571 H 251 -2.1714 2.43962 0
M  V30 2572 H 249.659 -0.410806 3.64291 0
M  V30 2573 H 249.307 -2.83307 4.15628 0
M  V30 2574 H 249.007 -1.81654 5.58816 0
M  V30 2575 H 250.531 -2.73968 5.45687 0
M  V30 2576 H 251.945 -0.482687 5.71264 0
M  V30 2577 H 250.342 0.256199 5.99553 0
M  V30 2578 H 251.412 0.938174 4.75738 0
M  V30 2579 N 252.755 -1.56801 0.158532 0
M  V30 2580 C 253.685 -2.20347 -0.772609 0
M  V30 2581 C 254.666 -1.15518 -1.24859 0
M  V30 2582 O 255.851 -1.43902 -1.30406 0
M  V30 2583 C 252.981 -2.83417 -2.00729 0
M  V30 2584 C 251.935 -3.94174 -1.66765 0
M  V30 2585 C 251.261 -4.44233 -2.97592 0
M  V30 2586 C 252.561 -5.14392 -0.905447 0
M  V30 2587 H 254.255 -2.98413 -0.242959 0
M  V30 2588 H 251.801 -1.43537 -0.115419 0
M  V30 2589 H 253.754 -3.26543 -2.6636 0
M  V30 2590 H 252.478 -2.02701 -2.56086 0
M  V30 2591 H 251.137 -3.51684 -1.03508 0
M  V30 2592 H 250.785 -3.60325 -3.50963 0
M  V30 2593 H 250.485 -5.18945 -2.75626 0
M  V30 2594 H 252.009 -4.90037 -3.64274 0
M  V30 2595 H 253.423 -5.5429 -1.46408 0
M  V30 2596 H 251.82 -5.9494 -0.7853 0
M  V30 2597 H 252.89 -4.84795 0.100668 0
M  V30 2598 N 254.233 0.115231 -1.57178 0
M  V30 2599 C 255.481 0.820727 -1.84685 0
M  V30 2600 C 255.802 1.80237 -0.744279 0
M  V30 2601 O 255.072 1.94529 0.231375 0
M  V30 2602 H 253.652 0.306084 -0.681411 0
M  V30 2603 H 256.314 0.101656 -1.94635 0
M  V30 2604 H 255.41 1.36366 -2.80733 0
M  V30 2605 N 255.711 1.52812 0.385517 0
M  V30 2606 C 256.951 1.69716 1.13911 0
M  V30 2607 C 257.315 0.42962 1.87132 0
M  V30 2608 O 258.516 0.475071 2.64569 0
M  V30 2609 C 256.787 2.90021 2.0886 0
M  V30 2610 S 258.346 3.27531 2.92009 0
M  V30 2611 H 255.164 0.59739 0.385547 0
M  V30 2612 H 257.766 1.90868 0.423061 0
M  V30 2613 H 256.47 3.80493 1.53797 0
M  V30 2614 H 256.001 2.71213 2.84969 0
M  V30 2615 H 258.016 2.77989 4.11019 0
M  V30 2616 N 257.189 -0.644168 1.43834 0
M  V30 2617 C 258.437 -1.40117 1.45642 0
M  V30 2618 C 258.758 -1.94814 0.0852413 0
M  V30 2619 O 258.028 -1.74988 -0.880688 0
M  V30 2620 H 256.608 -0.52005 0.536243 0
M  V30 2621 H 259.27 -0.7591 1.7951 0
M  V30 2622 H 258.366 -2.23902 2.17427 0
M  V30 2623 N 258.668 -1.30515 -0.883378 0
M  V30 2624 C 259.917 -1.18795 -1.63005 0
M  V30 2625 C 260.23 0.255923 -1.93919 0
M  V30 2626 O 261.436 0.494654 -2.66956 0
M  V30 2627 C 259.892 -2.07878 -2.93794 0
M  V30 2628 C 259.5 -3.57184 -2.70414 0
M  V30 2629 C 261.244 -2.04924 -3.71761 0
M  V30 2630 C 259.151 -4.38317 -3.97029 0
M  V30 2631 H 258.081 -0.441031 -0.611562 0
M  V30 2632 H 260.732 -1.55275 -0.977854 0
M  V30 2633 H 259.114 -1.64283 -3.60315 0
M  V30 2634 H 260.288 -4.08937 -2.12384 0
M  V30 2635 H 258.603 -3.61976 -2.0582 0
M  V30 2636 H 261.2 -2.62792 -4.65665 0
M  V30 2637 H 261.543 -1.0331 -4.03277 0
M  V30 2638 H 262.076 -2.46649 -3.12104 0
M  V30 2639 H 258.815 -5.40632 -3.70671 0
M  V30 2640 H 258.335 -3.91326 -4.54559 0
M  V30 2641 H 260.014 -4.49834 -4.65036 0
M  V30 2642 N 260.146 1.09593 -1.13257 0
M  V30 2643 C 261.371 1.8604 -0.916732 0
M  V30 2644 C 261.796 1.80504 0.529146 0
M  V30 2645 O 261.154 1.18127 1.37534 0
M  V30 2646 C 261.202 3.32017 -1.40703 0
M  V30 2647 O 260.306 4.08141 -0.591153 0
M  V30 2648 H 259.647 0.576943 -0.328683 0
M  V30 2649 H 262.177 1.38405 -1.50682 0
M  V30 2650 H 262.187 3.82865 -1.4099 0
M  V30 2651 H 260.862 3.35361 -2.45979 0
M  V30 2652 H 259.439 3.67084 -0.656005 0
M  V30 2653 N 261.624 0.925811 1.2754 0
M  V30 2654 C 262.852 0.581509 1.9856 0
M  V30 2655 C 263.267 -0.840041 1.69082 0
M  V30 2656 O 262.624 -1.55805 0.950312 0
M  V30 2657 C 262.675 0.795589 3.52637 0
M  V30 2658 O 262.396 2.16121 3.81082 0
M  V30 2659 C 263.897 0.459744 4.4091 0
M  V30 2660 H 261.117 0.220538 0.633722 0
M  V30 2661 H 263.661 1.24232 1.6244 0
M  V30 2662 H 261.816 0.18161 3.86974 0
M  V30 2663 H 262.23 2.2098 4.75676 0
M  V30 2664 H 263.704 0.660244 5.48037 0
M  V30 2665 H 264.181 -0.604625 4.35018 0
M  V30 2666 H 264.787 1.05178 4.12089 0
M  V30 2667 N 263.102 -1.41638 0.69111 0
M  V30 2668 C 264.35 -2.00902 0.219758 0
M  V30 2669 C 264.671 -1.54994 -1.18329 0
M  V30 2670 O 263.941 -0.778628 -1.79762 0
M  V30 2671 H 262.521 -0.74289 0.0782558 0
M  V30 2672 H 265.183 -1.73327 0.891271 0
M  V30 2673 H 264.279 -3.11224 0.233708 0
M  V30 2674 N 264.58 -0.43555 -1.51462 0
M  V30 2675 C 265.81 0.130053 -2.0619 0
M  V30 2676 C 266.218 1.37164 -1.30317 0
M  V30 2677 O 265.561 1.80225 -0.355598 0
M  V30 2678 C 265.623 0.519418 -3.55728 0
M  V30 2679 C 265.287 -0.615119 -4.52841 0
M  V30 2680 C 266.284 -1.48671 -4.9819 0
M  V30 2681 C 263.969 -0.795341 -4.95963 0
M  V30 2682 C 265.963 -2.52324 -5.8533 0
M  V30 2683 C 263.65 -1.83514 -5.82894 0
M  V30 2684 C 264.648 -2.69748 -6.27475 0
M  V30 2685 O 264.336 -3.71944 -7.1268 0
M  V30 2686 H 264.068 0.0121612 -0.675891 0
M  V30 2687 H 266.622 -0.6129 -1.96043 0
M  V30 2688 H 264.852 1.31505 -3.63653 0
M  V30 2689 H 266.541 1.01597 -3.92979 0
M  V30 2690 H 267.307 -1.359 -4.65571 0
M  V30 2691 H 263.186 -0.133713 -4.60806 0
M  V30 2692 H 266.73 -3.19665 -6.20048 0
M  V30 2693 H 262.627 -1.96306 -6.14926 0
M  V30 2694 H 263.395 -3.68503 -7.30854 0
M  V30 2695 N 266.058 1.56714 -0.166846 0
M  V30 2696 C 267.306 1.96358 0.478305 0
M  V30 2697 C 267.627 1.0537 1.6408 0
M  V30 2698 O 266.897 0.119154 1.95537 0
M  V30 2699 H 265.477 0.725065 0.179692 0
M  V30 2700 H 268.139 1.93329 -0.246985 0
M  V30 2701 H 267.235 3.00547 0.841292 0
M  V30 2702 N 267.536 -0.106894 1.57237 0
M  V30 2703 C 268.499 -1.11466 2.0027 0
M  V30 2704 C 269.499 -1.33623 0.894519 0
M  V30 2705 O 270.689 -1.29935 1.16028 0
M  V30 2706 C 267.821 -2.46646 2.35327 0
M  V30 2707 H 269.014 -0.744516 2.90512 0
M  V30 2708 H 266.567 -0.351576 1.52295 0
M  V30 2709 H 267.302 -2.88558 1.48003 0
M  V30 2710 H 267.087 -2.31915 3.16161 0
M  V30 2711 H 268.577 -3.19151 2.69318 0
M  V30 2712 N 269.014 -1.53014 -0.377408 0
M  V30 2713 C 269.977 -1.77957 -1.44444 0
M  V30 2714 C 270.977 -0.649763 -1.47087 0
M  V30 2715 O 272.167 -0.917897 -1.48055 0
M  V30 2716 C 269.299 -1.89089 -2.83651 0
M  V30 2717 H 270.492 -2.73243 -1.23606 0
M  V30 2718 H 268.045 -1.43912 -0.609844 0
M  V30 2719 H 268.78 -0.958293 -3.09818 0
M  V30 2720 H 268.565 -2.71254 -2.83132 0
M  V30 2721 H 270.055 -2.1002 -3.60945 0
M  V30 2722 N 270.492 0.636531 -1.44174 0
M  V30 2723 C 271.738 1.39826 -1.4689 0
M  V30 2724 C 272.071 1.93947 -0.0990585 0
M  V30 2725 O 271.346 1.73325 0.882544 0
M  V30 2726 C 271.629 2.56751 -2.5249 0
M  V30 2727 C 271.482 2.08014 -3.98811 0
M  V30 2728 C 272.801 3.58946 -2.54649 0
M  V30 2729 H 269.92 0.507075 -0.53483 0
M  V30 2730 H 272.562 0.720188 -1.75822 0
M  V30 2731 H 270.712 3.14597 -2.2795 0
M  V30 2732 H 272.384 1.5504 -4.34466 0
M  V30 2733 H 270.627 1.39242 -4.10846 0
M  V30 2734 H 271.298 2.92169 -4.68339 0
M  V30 2735 H 273.774 3.1089 -2.76563 0
M  V30 2736 H 272.65 4.38286 -3.3045 0
M  V30 2737 H 272.911 4.12655 -1.58646 0
M  V30 2738 N 271.97 1.30982 0.876444 0
M  V30 2739 C 272.918 1.18006 2.00443 0
M  V30 2740 C 273.912 0.0898871 1.69161 0
M  V30 2741 O 275.118 0.251333 1.78237 0
M  V30 2742 H 271.493 0.365196 0.65737 0
M  V30 2743 H 273.464 2.13453 2.0852 0
M  V30 2744 C 272.213 0.897521 3.35916 0
M  V30 2745 H 271.536 1.7285 3.60504 0
M  V30 2746 H 272.976 0.846874 4.15456 0
M  V30 2747 C 271.435 -0.399674 3.34521 0
M  V30 2748 O 271.965 -1.41852 3.7582 0
M  V30 2749 N 270.171 -0.413893 2.87637 0
M  V30 2750 H 269.718 0.41571 2.54224 0
M  V30 2751 H 269.676 -1.28175 2.87086 0
M  V30 2752 N 273.449 -1.08991 1.13837 0
M  V30 2753 C 274.677 -1.85011 0.926202 0
M  V30 2754 C 275.092 -1.8135 -0.525127 0
M  V30 2755 O 274.449 -1.21287 -1.36366 0
M  V30 2756 C 274.5 -3.32802 1.41155 0
M  V30 2757 O 274.221 -3.36444 2.80601 0
M  V30 2758 C 275.722 -4.25649 1.23847 0
M  V30 2759 H 272.942 -0.584249 0.32999 0
M  V30 2760 H 275.486 -1.37688 1.51202 0
M  V30 2761 H 273.641 -3.77536 0.868631 0
M  V30 2762 H 274.055 -4.28657 3.02248 0
M  V30 2763 H 275.529 -5.27485 1.62675 0
M  V30 2764 H 276.006 -4.38828 0.18065 0
M  V30 2765 H 276.612 -3.86735 1.76964 0
M  V30 2766 N 274.927 -0.932562 -1.27047 0
M  V30 2767 C 275.89 -0.440064 -2.24936 0
M  V30 2768 C 276.89 0.444071 -1.54547 0
M  V30 2769 O 278.08 0.244465 -1.72476 0
M  V30 2770 C 275.212 0.36678 -3.38921 0
M  V30 2771 H 276.405 -1.305 -2.70018 0
M  V30 2772 H 273.958 -0.713707 -1.39054 0
M  V30 2773 H 274.693 1.25033 -2.99228 0
M  V30 2774 H 274.478 -0.267204 -3.91188 0
M  V30 2775 H 275.968 0.701567 -4.11665 0
M  V30 2776 N 276.405 1.4127 -0.698611 0
M  V30 2777 C 277.352 2.30773 -0.0352094 0
M  V30 2778 C 278.322 1.47273 0.768111 0
M  V30 2779 O 279.507 1.76053 0.735524 0
M  V30 2780 C 276.647 3.33346 0.893 0
M  V30 2781 C 275.76 4.31924 0.0809695 0
M  V30 2782 C 274.895 5.21566 1.0071 0
M  V30 2783 C 273.934 6.11811 0.188155 0
M  V30 2784 N 273.071 6.93926 1.06825 0
M  V30 2785 H 277.911 2.86943 -0.804207 0
M  V30 2786 H 275.448 1.4132 -0.408294 0
M  V30 2787 H 277.406 3.91368 1.44523 0
M  V30 2788 H 276.036 2.78719 1.62836 0
M  V30 2789 H 275.088 3.75825 -0.588224 0
M  V30 2790 H 276.4 4.95716 -0.553801 0
M  V30 2791 H 275.554 5.84437 1.62845 0
M  V30 2792 H 274.293 4.58008 1.67572 0
M  V30 2793 H 273.298 5.47986 -0.446254 0
M  V30 2794 H 274.523 6.77425 -0.476716 0
M  V30 2795 H 272.469 6.32973 1.72283 0
M  V30 2796 H 272.386 7.54416 0.489123 0
M  V30 2797 H 273.654 7.61262 1.67632 0
M  V30 2798 N 277.883 0.443576 1.51229 0
M  V30 2799 C 278.813 -0.355142 2.30783 0
M  V30 2800 C 279.794 -1.0154 1.36468 0
M  V30 2801 O 280.979 -1.01785 1.65389 0
M  V30 2802 C 278.109 -1.45312 3.15439 0
M  V30 2803 C 277.063 -0.916002 4.18083 0
M  V30 2804 C 276.389 -2.1102 4.91299 0
M  V30 2805 C 277.689 0.0538602 5.22272 0
M  V30 2806 H 279.383 0.308767 2.97804 0
M  V30 2807 H 276.929 0.149937 1.43217 0
M  V30 2808 H 278.882 -2.01914 3.69876 0
M  V30 2809 H 277.606 -2.14541 2.46252 0
M  V30 2810 H 276.265 -0.372145 3.64706 0
M  V30 2811 H 275.913 -2.78882 4.18609 0
M  V30 2812 H 275.613 -1.75717 5.60712 0
M  V30 2813 H 277.137 -2.68164 5.48562 0
M  V30 2814 H 278.551 -0.422069 5.71744 0
M  V30 2815 H 276.948 0.319776 5.99247 0
M  V30 2816 H 278.018 0.98858 4.74716 0
M  V30 2817 N 279.361 -1.56624 0.175154 0
M  V30 2818 C 280.271 -2.21741 -0.766042 0
M  V30 2819 C 281.287 -1.21023 -1.25018 0
M  V30 2820 O 282.463 -1.53697 -1.3015 0
M  V30 2821 C 279.528 -2.84839 -1.97655 0
M  V30 2822 C 278.589 -4.00769 -1.53892 0
M  V30 2823 C 277.822 -4.60849 -2.69173 0
M  V30 2824 O 278.045 -4.19823 -3.86141 0
M  V30 2825 O 276.979 -5.50655 -2.43028 0
M  V30 2826 H 280.805 -3.02738 -0.241585 0
M  V30 2827 H 278.39 -1.49305 -0.053222 0
M  V30 2828 H 280.272 -3.24834 -2.68442 0
M  V30 2829 H 278.947 -2.06836 -2.48999 0
M  V30 2830 H 277.854 -3.65436 -0.80044 0
M  V30 2831 H 279.187 -4.80376 -1.07236 0
M  V30 2832 N 280.839 0.0985539 -1.57292 0
M  V30 2833 C 282.25 0.653457 -1.74891 0
M  V30 2834 C 282.601 1.7929 -0.796838 0
M  V30 2835 O 281.726 2.16385 0.0254886 0
M  V30 2836 C 282.321 1.19216 -3.17133 0
M  V30 2837 C 280.88 1.69316 -3.36168 0
M  V30 2838 C 280.027 0.601294 -2.70702 0
M  V30 2839 H 282.978 -0.127497 -1.58187 0
M  V30 2840 H 282.999 2.06154 -3.19814 0
M  V30 2841 H 282.511 0.362635 -3.86402 0
M  V30 2842 H 280.612 2.5468 -2.71972 0
M  V30 2843 H 280.725 1.78853 -4.44464 0
M  V30 2844 H 279.089 1.0399 -2.32504 0
M  V30 2845 H 279.872 -0.217592 -3.4261 0
M  V30 2846 N 282.317 1.53212 0.369288 0
M  V30 2847 C 283.565 1.68881 1.11012 0
M  V30 2848 C 283.886 0.441285 1.89941 0
M  V30 2849 O 283.156 -0.544623 1.88177 0
M  V30 2850 H 281.736 0.622569 0.412816 0
M  V30 2851 H 284.398 1.90391 0.416802 0
M  V30 2852 H 283.494 2.54822 1.80201 0
M  V30 2853 N 283.795 -0.628877 1.44509 0
M  V30 2854 C 285.02 -1.42048 1.5112 0
M  V30 2855 C 285.445 -1.87594 0.137818 0
M  V30 2856 O 284.803 -1.58873 -0.873437 0
M  V30 2857 C 284.851 -2.61541 2.48251 0
M  V30 2858 O 283.955 -3.61453 1.98559 0
M  V30 2859 H 283.296 -0.424942 0.510216 0
M  V30 2860 H 285.826 -0.767374 1.89664 0
M  V30 2861 H 285.836 -3.09057 2.66361 0
M  V30 2862 H 284.511 -2.27736 3.48007 0
M  V30 2863 H 283.088 -3.20731 1.90227 0
M  V30 2864 N 285.273 -1.31445 -0.869486 0
M  V30 2865 C 286.519 -1.21337 -1.62496 0
M  V30 2866 C 286.852 0.227872 -1.92858 0
M  V30 2867 O 286.127 1.16094 -1.56053 0
M  V30 2868 C 286.41 -2.05814 -2.95487 0
M  V30 2869 C 286.263 -3.5824 -2.72 0
M  V30 2870 C 287.582 -1.9079 -3.96594 0
M  V30 2871 H 284.701 -0.442135 -0.589649 0
M  V30 2872 H 287.343 -1.6124 -1.00507 0
M  V30 2873 H 285.493 -1.71913 -3.48394 0
M  V30 2874 H 287.165 -4.0228 -2.25762 0
M  V30 2875 H 285.408 -3.81647 -2.06224 0
M  V30 2876 H 286.079 -4.12657 -3.66631 0
M  V30 2877 H 288.555 -2.20459 -3.52898 0
M  V30 2878 H 287.431 -2.52199 -4.87531 0
M  V30 2879 H 287.692 -0.871341 -4.33428 0
M  V30 2880 N 286.751 1.08385 -1.14413 0
M  V30 2881 C 287.991 1.8238 -0.922868 0
M  V30 2882 C 288.355 1.84225 0.540842 0
M  V30 2883 O 289.556 2.53985 0.880058 0
M  V30 2884 C 287.827 3.24048 -1.50757 0
M  V30 2885 S 289.386 4.14917 -1.4279 0
M  V30 2886 H 286.204 0.628524 -0.332384 0
M  V30 2887 H 288.806 1.30278 -1.45766 0
M  V30 2888 H 287.51 3.20288 -2.56601 0
M  V30 2889 H 287.041 3.81224 -0.971178 0
M  V30 2890 H 289.056 4.94473 -0.413582 0
M  V30 2891 N 288.23 0.939286 1.26551 0
M  V30 2892 C 289.193 0.451987 2.24699 0
M  V30 2893 C 290.193 -0.435869 1.5478 0
M  V30 2894 O 291.383 -0.235314 1.72603 0
M  V30 2895 C 288.515 -0.348801 3.39111 0
M  V30 2896 H 289.708 1.3193 2.69322 0
M  V30 2897 H 287.261 0.721072 1.38673 0
M  V30 2898 H 287.996 -1.23444 2.99887 0
M  V30 2899 H 287.781 0.287945 3.91041 0
M  V30 2900 H 289.271 -0.679726 4.12031 0
M  V30 2901 N 289.708 -1.40897 0.706093 0
M  V30 2902 C 290.954 -2.01352 0.241889 0
M  V30 2903 C 291.287 -1.55832 -1.15888 0
M  V30 2904 O 290.562 -0.774145 -1.7843 0
M  V30 2905 C 290.845 -3.58752 0.311311 0
M  V30 2906 C 290.698 -4.1437 1.74978 0
M  V30 2907 C 292.017 -4.38914 -0.322922 0
M  V30 2908 H 289.136 -0.731562 0.0893687 0
M  V30 2909 H 291.778 -1.67504 0.896802 0
M  V30 2910 H 289.928 -3.87718 -0.246302 0
M  V30 2911 H 291.6 -3.96239 2.36205 0
M  V30 2912 H 289.843 -3.69016 2.28057 0
M  V30 2913 H 290.514 -5.23532 1.74981 0
M  V30 2914 H 292.99 -4.15822 0.152089 0
M  V30 2915 H 291.866 -5.48358 -0.243855 0
M  V30 2916 H 292.127 -4.19176 -1.40513 0
M  V30 2917 N 291.186 -0.45159 -1.50991 0
M  V30 2918 C 292.433 0.110074 -2.02201 0
M  V30 2919 C 292.761 1.4146 -1.33489 0
M  V30 2920 O 292.016 1.90617 -0.443125 0
M  V30 2921 C 292.315 0.361728 -3.55565 0
M  V30 2922 C 291.981 -0.858717 -4.42648 0
M  V30 2923 C 290.643 -1.19338 -4.66167 0
M  V30 2924 C 292.995 -1.67221 -4.93646 0
M  V30 2925 C 290.323 -2.34195 -5.37931 0
M  V30 2926 C 292.675 -2.8119 -5.6667 0
M  V30 2927 C 291.339 -3.15094 -5.88449 0
M  V30 2928 H 290.609 0.040279 -0.739904 0
M  V30 2929 H 293.256 -0.601696 -1.81802 0
M  V30 2930 H 291.561 1.15554 -3.74372 0
M  V30 2931 H 293.258 0.80996 -3.92735 0
M  V30 2932 H 289.848 -0.58796 -4.24548 0
M  V30 2933 H 294.032 -1.42686 -4.75347 0
M  V30 2934 H 289.288 -2.6076 -5.53005 0
M  V30 2935 H 293.462 -3.44585 -6.05173 0
M  V30 2936 H 291.089 -4.04204 -6.43835 0
M  V30 2937 N 292.664 1.56529 -0.183458 0
M  V30 2938 C 293.912 1.96855 0.457452 0
M  V30 2939 C 294.233 1.07104 1.62953 0
M  V30 2940 O 293.503 0.139887 1.954 0
M  V30 2941 H 292.083 0.72693 0.171992 0
M  V30 2942 H 294.745 1.93056 -0.267476 0
M  V30 2943 H 293.841 3.01423 0.809368 0
M  V30 2944 N 294.142 -0.090211 1.57342 0
M  V30 2945 C 295.072 -1.10976 2.05443 0
M  V30 2946 C 296.053 -1.41482 0.944284 0
M  V30 2947 O 297.238 -1.51428 1.21586 0
M  V30 2948 C 294.368 -2.42831 2.48295 0
M  V30 2949 C 293.322 -2.26721 3.63018 0
M  V30 2950 C 292.648 -3.63796 3.91863 0
M  V30 2951 C 293.948 -1.7037 4.93732 0
M  V30 2952 H 295.642 -0.709564 2.9087 0
M  V30 2953 H 293.188 -0.339874 1.39932 0
M  V30 2954 H 295.141 -3.14431 2.80555 0
M  V30 2955 H 293.865 -2.84795 1.59873 0
M  V30 2956 H 292.524 -1.57565 3.31012 0
M  V30 2957 H 292.172 -4.03297 3.00601 0
M  V30 2958 H 291.872 -3.53861 4.69101 0
M  V30 2959 H 293.396 -4.36855 4.26603 0
M  V30 2960 H 294.81 -2.31816 5.24342 0
M  V30 2961 H 293.207 -1.71181 5.75167 0
M  V30 2962 H 294.277 -0.663542 4.80339 0
M  V30 2963 N 295.62 -1.53406 -0.361157 0
M  V30 2964 C 296.868 -1.69467 -1.10115 0
M  V30 2965 C 297.189 -0.451352 -1.89705 0
M  V30 2966 O 296.459 0.534636 -1.88463 0
M  V30 2967 H 295.039 -0.624749 -0.409508 0
M  V30 2968 H 297.701 -1.90609 -0.406699 0
M  V30 2969 H 296.797 -2.55774 -1.78847 0
M  V30 2970 N 297.098 0.621204 -1.44841 0
M  V30 2971 C 298.346 1.37783 -1.47852 0
M  V30 2972 C 298.667 1.94653 -0.116224 0
M  V30 2973 O 297.937 1.76367 0.852737 0
M  V30 2974 H 296.517 0.511453 -0.544449 0
M  V30 2975 H 299.179 0.730446 -1.80694 0
M  V30 2976 H 298.275 2.20414 -2.20961 0
M  V30 2977 N 298.576 1.31904 0.862503 0
M  V30 2978 C 299.822 1.22197 1.61851 0
M  V30 2979 C 300.155 -0.217641 1.92977 0
M  V30 2980 O 299.43 -1.15264 1.56666 0
M  V30 2981 C 299.713 2.07378 2.94391 0
M  V30 2982 C 299.566 3.59678 2.70096 0
M  V30 2983 C 300.885 1.92891 3.95577 0
M  V30 2984 H 298.004 0.445255 0.587296 0
M  V30 2985 H 300.646 1.6177 0.99651 0
M  V30 2986 H 298.796 1.73758 3.47477 0
M  V30 2987 H 300.468 4.03472 2.23625 0
M  V30 2988 H 298.711 3.82735 2.04197 0
M  V30 2989 H 299.382 4.14595 3.64438 0
M  V30 2990 H 301.858 2.22327 3.51724 0
M  V30 2991 H 300.734 2.54781 4.86187 0
M  V30 2992 H 300.995 0.894315 4.3296 0
M  V30 2993 N 300.054 -1.07777 1.14986 0
M  V30 2994 C 301.302 -1.79934 0.920235 0
M  V30 2995 C 301.623 -1.86955 -0.554336 0
M  V30 2996 O 300.893 -1.36731 -1.40291 0
M  V30 2997 H 299.473 -0.666424 0.337473 0
M  V30 2998 H 302.135 -1.3027 1.44968 0
M  V30 2999 H 301.231 -2.82539 1.32583 0
M  V30 3000 N 301.532 -0.945985 -1.26051 0
M  V30 3001 C 302.462 -0.477172 -2.28572 0
M  V30 3002 C 303.443 0.472032 -1.63419 0
M  V30 3003 O 304.628 0.372853 -1.90587 0
M  V30 3004 C 301.758 0.253975 -3.4637 0
M  V30 3005 C 300.712 -0.609135 -4.23643 0
M  V30 3006 C 300.038 0.252252 -5.34105 0
M  V30 3007 C 301.338 -1.8829 -4.8718 0
M  V30 3008 H 303.032 -1.33402 -2.68038 0
M  V30 3009 H 300.578 -0.642904 -1.28852 0
M  V30 3010 H 302.531 0.593016 -4.17207 0
M  V30 3011 H 301.255 1.145 -3.05871 0
M  V30 3012 H 299.914 -0.931138 -3.54578 0
M  V30 3013 H 299.562 1.14278 -4.89846 0
M  V30 3014 H 299.262 -0.32188 -5.86718 0
M  V30 3015 H 300.786 0.586454 -6.07777 0
M  V30 3016 H 302.2 -1.61081 -5.50205 0
M  V30 3017 H 300.597 -2.40199 -5.49931 0
M  V30 3018 H 301.667 -2.59134 -4.09851 0
M  V30 3019 N 303.011 1.40521 -0.713556 0
M  V30 3020 C 303.974 2.29098 -0.0684347 0
M  V30 3021 C 304.974 1.45268 0.689472 0
M  V30 3022 O 306.164 1.66205 0.521677 0
M  V30 3023 C 303.296 3.28446 0.913024 0
M  V30 3024 H 304.489 2.87645 -0.84855 0
M  V30 3025 H 302.042 1.48809 -0.47809 0
M  V30 3026 H 302.777 2.74913 1.72027 0
M  V30 3027 H 302.562 3.90327 0.372472 0
M  V30 3028 H 304.052 3.94777 1.36165 0
M  V30 3029 N 304.489 0.459591 1.5075 0
M  V30 3030 C 305.735 -0.0994966 2.02556 0
M  V30 3031 C 306.068 -1.40399 1.3417 0
M  V30 3032 O 305.343 -1.88892 0.463683 0
M  V30 3033 C 305.626 -0.295242 3.58888 0
M  V30 3034 C 305.479 1.02947 4.37861 0
M  V30 3035 C 306.798 -1.05502 4.27267 0
M  V30 3036 H 303.917 -0.034686 0.736183 0
M  V30 3037 H 306.559 0.602938 1.8018 0
M  V30 3038 H 304.709 -0.893563 3.78084 0
M  V30 3039 H 306.381 1.66348 4.30263 0
M  V30 3040 H 304.624 1.62885 4.02058 0
M  V30 3041 H 305.295 0.846281 5.45474 0
M  V30 3042 H 307.771 -0.547993 4.12476 0
M  V30 3043 H 306.647 -1.16077 5.36486 0
M  V30 3044 H 306.908 -2.08875 3.89645 0
M  V30 3045 N 305.967 -1.56429 0.191757 0
M  V30 3046 C 307.216 -1.9666 -0.448088 0
M  V30 3047 C 307.529 -1.08136 -1.62991 0
M  V30 3048 O 308.735 -1.38135 -2.33733 0
M  V30 3049 C 307.191 -3.49753 -0.848585 0
M  V30 3050 C 306.799 -4.46935 0.308764 0
M  V30 3051 C 308.543 -3.9876 -1.4557 0
M  V30 3052 C 306.45 -5.91293 -0.112506 0
M  V30 3053 H 305.38 -0.734312 -0.171179 0
M  V30 3054 H 308.031 -1.81301 0.283242 0
M  V30 3055 H 306.413 -3.60604 -1.63649 0
M  V30 3056 H 307.587 -4.47813 1.08627 0
M  V30 3057 H 305.902 -4.08102 0.827158 0
M  V30 3058 H 308.499 -5.04086 -1.78328 0
M  V30 3059 H 308.842 -3.42875 -2.36099 0
M  V30 3060 H 309.375 -3.9101 -0.731836 0
M  V30 3061 H 306.114 -6.51097 0.758514 0
M  V30 3062 H 305.634 -5.93676 -0.854941 0
M  V30 3063 H 307.313 -6.44663 -0.549448 0
M  V30 3064 N 307.445 0.0818655 -1.57387 0
M  V30 3065 C 308.378 1.12986 -1.98266 0
M  V30 3066 C 309.356 1.38123 -0.857954 0
M  V30 3067 O 310.54 1.51663 -1.1194 0
M  V30 3068 C 307.667 2.47632 -2.31076 0
M  V30 3069 C 306.713 2.38693 -3.53452 0
M  V30 3070 S 307.546 1.79071 -5.04672 0
M  V30 3071 C 308.702 3.15316 -5.40673 0
M  V30 3072 H 308.935 0.781435 -2.86846 0
M  V30 3073 H 306.468 0.290034 -1.51651 0
M  V30 3074 H 308.426 3.25089 -2.50654 0
M  V30 3075 H 307.087 2.79638 -1.43043 0
M  V30 3076 H 306.28 3.37964 -3.73893 0
M  V30 3077 H 305.882 1.69369 -3.33452 0
M  V30 3078 H 308.174 4.11613 -5.38127 0
M  V30 3079 H 309.117 2.99664 -6.41566 0
M  V30 3080 H 309.525 3.15457 -4.68132 0
M  V30 3081 N 308.923 1.53595 0.353017 0
M  V30 3082 C 310.171 1.70049 1.09215 0
M  V30 3083 C 310.492 0.461406 1.89463 0
M  V30 3084 O 309.762 -0.524633 1.88744 0
M  V30 3085 H 308.342 0.626912 0.40619 0
M  V30 3086 H 311.004 1.90822 0.396585 0
M  V30 3087 H 310.1 2.56718 1.77488 0
M  V30 3088 N 310.401 -0.613514 1.45168 0
M  V30 3089 C 311.641 -1.38405 1.5041 0
M  V30 3090 C 312.005 -1.91489 0.139922 0
M  V30 3091 O 313.206 -2.68716 0.067033 0
M  V30 3092 C 311.477 -2.50552 2.5487 0
M  V30 3093 S 313.036 -3.38439 2.79292 0
M  V30 3094 H 309.854 -0.471945 0.531779 0
M  V30 3095 H 312.456 -0.708518 1.82209 0
M  V30 3096 H 311.16 -2.09894 3.52665 0
M  V30 3097 H 310.691 -3.22913 2.24701 0
M  V30 3098 H 312.706 -4.48527 2.12222 0
M  V30 3099 N 311.879 -1.3236 -0.855495 0
M  V30 3100 C 312.826 -1.21225 -1.964 0
M  V30 3101 C 313.796 -0.0946204 -1.6583 0
M  V30 3102 O 314.981 -0.27002 -1.8888 0
M  V30 3103 C 312.121 -0.940419 -3.32039 0
M  V30 3104 C 311.234 -2.14276 -3.75113 0
M  V30 3105 C 310.369 -1.80648 -4.9954 0
M  V30 3106 C 309.408 -2.97208 -5.35102 0
M  V30 3107 N 308.545 -2.63678 -6.50706 0
M  V30 3108 H 313.385 -2.16042 -2.05255 0
M  V30 3109 H 310.922 -1.07451 -1.00463 0
M  V30 3110 H 312.88 -0.763311 -4.10158 0
M  V30 3111 H 311.51 -0.0290413 -3.22787 0
M  V30 3112 H 310.562 -2.43017 -2.92655 0
M  V30 3113 H 311.874 -3.01468 -3.97389 0
M  V30 3114 H 311.028 -1.59484 -5.85363 0
M  V30 3115 H 309.767 -0.906678 -4.79198 0
M  V30 3116 H 308.772 -3.19004 -4.47791 0
M  V30 3117 H 309.997 -3.87918 -5.57401 0
M  V30 3118 H 307.943 -1.76238 -6.31883 0
M  V30 3119 H 307.86 -3.444 -6.72997 0
M  V30 3120 H 309.128 -2.45942 -7.39684 0
M  V30 3121 N 313.357 1.07166 -1.15556 0
M  V30 3122 C 314.603 1.80065 -0.932984 0
M  V30 3123 C 314.936 1.86586 0.53845 0
M  V30 3124 O 314.211 1.35098 1.39924 0
M  V30 3125 C 314.494 3.25022 -1.55025 0
M  V30 3126 C 314.347 3.26634 -3.09242 0
M  V30 3127 C 315.666 4.22341 -1.2376 0
M  V30 3128 H 312.785 0.653697 -0.340366 0
M  V30 3129 H 315.427 1.25389 -1.4275 0
M  V30 3130 H 313.577 3.71712 -1.12972 0
M  V30 3131 H 315.249 2.88173 -3.60214 0
M  V30 3132 H 313.492 2.65539 -3.43033 0
M  V30 3133 H 314.163 4.28854 -3.47546 0
M  V30 3134 H 316.639 3.8405 -1.60139 0
M  V30 3135 H 315.515 5.22053 -1.69564 0
M  V30 3136 H 315.776 4.41828 -0.154938 0
M  V30 3137 N 314.835 0.952656 1.25548 0
M  V30 3138 C 315.798 0.475794 2.24207 0
M  V30 3139 C 316.798 -0.419428 1.55234 0
M  V30 3140 O 317.988 -0.216994 1.72843 0
M  V30 3141 C 315.12 -0.312814 3.39462 0
M  V30 3142 H 316.313 1.34779 2.67908 0
M  V30 3143 H 313.866 0.735739 1.37901 0
M  V30 3144 H 314.601 -1.20257 3.01179 0
M  V30 3145 H 314.386 0.329404 3.90714 0
M  V30 3146 H 315.876 -0.635986 4.12729 0
M  V30 3147 N 316.313 -1.40141 0.720998 0
M  V30 3148 C 317.561 -2.0039 0.262323 0
M  V30 3149 C 317.882 -1.57469 -1.15015 0
M  V30 3150 O 317.152 -0.816582 -1.78069 0
M  V30 3151 H 315.732 -0.741063 0.093996 0
M  V30 3152 H 318.394 -1.71398 0.927835 0
M  V30 3153 H 317.49 -3.10658 0.299671 0
M  V30 3154 N 317.792 -0.46758 -1.50504 0
M  V30 3155 C 318.755 0.317059 -2.26996 0
M  V30 3156 C 319.755 0.923513 -1.31635 0
M  V30 3157 O 320.945 0.793239 -1.55091 0
M  V30 3158 C 318.077 1.45134 -3.08462 0
M  V30 3159 H 319.27 -0.353723 -2.97807 0
M  V30 3160 H 316.823 -0.221545 -1.54722 0
M  V30 3161 H 317.558 2.15728 -2.4214 0
M  V30 3162 H 317.343 1.02232 -3.78538 0
M  V30 3163 H 318.833 2.00493 -3.66323 0
M  V30 3164 N 319.27 1.56325 -0.20005 0
M  V30 3165 C 320.495 2.02548 0.44597 0
M  V30 3166 C 320.92 1.07922 1.5406 0
M  V30 3167 O 320.278 0.0635775 1.81188 0
M  V30 3168 C 320.326 3.47175 0.974761 0
M  V30 3169 O 319.43 3.55671 2.08739 0
M  V30 3170 H 318.771 0.655862 0.103638 0
M  V30 3171 H 321.301 2.02201 -0.312381 0
M  V30 3172 H 321.311 3.87067 1.2901 0
M  V30 3173 H 319.986 4.15538 0.17347 0
M  V30 3174 H 318.563 3.27657 1.78032 0
M  V30 3175 N 320.748 -0.0735177 1.57428 0
M  V30 3176 C 322.164 -0.428264 1.53747 0
M  V30 3177 C 322.364 -1.79272 0.91998 0
M  V30 3178 O 321.42 -2.47051 0.521745 0
M  V30 3179 C 322.733 -0.370914 2.98404 0
M  V30 3180 C 324.281 -0.451224 3.0973 0
M  V30 3181 C 324.756 -0.4238 4.56035 0
M  V30 3182 N 326.247 -0.483925 4.60665 0
M  V30 3183 C 326.982 -0.484891 5.71346 0
M  V30 3184 N 326.478 -0.440775 6.91396 0
M  V30 3185 N 328.271 -0.531319 5.59583 0
M  V30 3186 H 320.422 0.819949 1.95935 0
M  V30 3187 H 322.685 0.307493 0.896745 0
M  V30 3188 H 322.391 0.564956 3.47133 0
M  V30 3189 H 322.265 -1.18176 3.5821 0
M  V30 3190 H 324.652 -1.37752 2.60976 0
M  V30 3191 H 324.733 0.388167 2.52838 0
M  V30 3192 H 324.377 0.498638 5.05446 0
M  V30 3193 H 324.307 -1.2807 5.10789 0
M  V30 3194 H 326.798 -0.522338 3.74273 0
M  V30 3195 H 327.111 -0.44539 7.71515 0
M  V30 3196 H 325.456 -0.40749 6.93804 0
M  V30 3197 H 328.647 -0.563464 4.64696 0
M  V30 3198 H 328.82 -0.528603 6.4584 0
M  V30 3199 N 322.226 -1.5378 -0.344866 0
M  V30 3200 C 323.475 -1.7018 -1.08267 0
M  V30 3201 C 323.788 -0.471 -1.89845 0
M  V30 3202 O 324.994 -0.515917 -2.66553 0
M  V30 3203 C 323.45 -3.00923 -1.97417 0
M  V30 3204 C 323.058 -4.31335 -1.21053 0
M  V30 3205 C 324.802 -3.26688 -2.71063 0
M  V30 3206 C 322.709 -5.53153 -2.09225 0
M  V30 3207 H 321.639 -0.634138 -0.407903 0
M  V30 3208 H 324.29 -1.8028 -0.342246 0
M  V30 3209 H 322.672 -2.84676 -2.75274 0
M  V30 3210 H 323.846 -4.58281 -0.481159 0
M  V30 3211 H 322.161 -4.12173 -0.591813 0
M  V30 3212 H 324.758 -4.1489 -3.37299 0
M  V30 3213 H 325.101 -2.43639 -3.37558 0
M  V30 3214 H 325.634 -3.43705 -2.0028 0
M  V30 3215 H 322.373 -6.38741 -1.47274 0
M  V30 3216 H 321.893 -5.30458 -2.79955 0
M  V30 3217 H 323.572 -5.88744 -2.68308 0
M  V30 3218 N 323.704 0.605807 -1.45491 0
M  V30 3219 C 324.953 1.36086 -1.48874 0
M  V30 3220 C 325.266 1.95131 -0.135333 0
M  V30 3221 O 326.472 2.7146 -0.0468144 0
M  V30 3222 C 324.928 2.46518 -2.62215 0
M  V30 3223 C 324.536 1.93877 -4.03876 0
M  V30 3224 C 326.28 3.23512 -2.74846 0
M  V30 3225 C 324.187 3.01801 -5.08596 0
M  V30 3226 H 323.117 0.511497 -0.553974 0
M  V30 3227 H 325.768 0.649089 -1.71636 0
M  V30 3228 H 324.15 3.20388 -2.32739 0
M  V30 3229 H 325.324 1.26704 -4.43038 0
M  V30 3230 H 323.639 1.29622 -3.95711 0
M  V30 3231 H 326.236 4.04013 -3.50253 0
M  V30 3232 H 326.579 3.74631 -1.81542 0
M  V30 3233 H 327.112 2.56742 -3.03856 0
M  V30 3234 H 323.851 2.55597 -6.03614 0
M  V30 3235 H 323.371 3.67535 -4.74002 0
M  V30 3236 H 325.05 3.66152 -5.33424 0
M  V30 3237 N 325.182 1.32811 0.848464 0
M  V30 3238 C 326.43 1.23479 1.59991 0
M  V30 3239 C 326.751 -0.201853 1.93952 0
M  V30 3240 O 326.021 -1.12818 1.60153 0
M  V30 3241 H 324.601 0.454034 0.593179 0
M  V30 3242 H 327.263 1.66412 1.01455 0
M  V30 3243 H 326.359 1.82178 2.53412 0
M  V30 3244 N 326.66 -1.06551 1.16123 0
M  V30 3245 C 327.906 -1.79567 0.94252 0
M  V30 3246 C 328.239 -1.86869 -0.528547 0
M  V30 3247 O 327.514 -1.35838 -1.39206 0
M  V30 3248 C 327.797 -3.24195 1.56747 0
M  V30 3249 C 327.65 -3.24989 3.10969 0
M  V30 3250 C 328.969 -4.21678 1.25998 0
M  V30 3251 H 326.088 -0.651883 0.343828 0
M  V30 3252 H 328.73 -1.2463 1.43413 0
M  V30 3253 H 326.88 -3.71107 1.14942 0
M  V30 3254 H 328.552 -2.86258 3.61737 0
M  V30 3255 H 326.795 -2.63716 3.44436 0
M  V30 3256 H 327.466 -4.27005 3.49815 0
M  V30 3257 H 329.942 -3.83196 1.62174 0
M  V30 3258 H 328.818 -5.21146 1.7233 0
M  V30 3259 H 329.079 -4.4174 0.178367 0
M  V30 3260 N 328.138 -0.959301 -1.25041 0
M  V30 3261 C 329.415 -0.533805 -1.88175 0
M  V30 3262 C 329.795 0.988994 -1.865 0
M  V30 3263 O 329.143 1.85677 -1.33177 0
M  V30 3264 C 329.353 -1.11575 -3.30684 0
M  V30 3265 C 330.701 -1.19548 -4.07423 0
M  V30 3266 O 331.725 -1.06765 -3.39823 0
M  V30 3267 O 330.584 -1.39656 -5.28354 0
M  V30 3268 H 327.678 -0.176772 -0.807887 0
M  V30 3269 H 330.224 -1.05303 -1.33076 0
M  V30 3270 H 328.996 -2.15884 -3.26358 0
M  V30 3271 H 328.619 -0.580059 -3.93346 0
M  V30 3272 N 329.616 1.39756 -0.72842 0
M  V30 3273 C 330.865 1.99879 -0.270407 0
M  V30 3274 C 331.178 1.58449 1.14688 0
M  V30 3275 O 332.384 2.11362 1.70407 0
M  V30 3276 C 330.84 3.57292 -0.43252 0
M  V30 3277 C 330.448 4.07688 -1.85727 0
M  V30 3278 C 332.192 4.24485 -0.0359507 0
M  V30 3279 C 330.099 5.5765 -1.96928 0
M  V30 3280 H 329.029 0.747689 -0.0973472 0
M  V30 3281 H 331.68 1.59837 -0.901355 0
M  V30 3282 H 330.062 3.95097 0.267219 0
M  V30 3283 H 331.236 3.81231 -2.58843 0
M  V30 3284 H 329.551 3.53135 -2.20646 0
M  V30 3285 H 332.148 5.34609 -0.0987484 0
M  V30 3286 H 332.491 4.03915 1.00787 0
M  V30 3287 H 333.024 3.9183 -0.686604 0
M  V30 3288 H 329.763 5.8309 -2.99476 0
M  V30 3289 H 329.283 5.8593 -1.28241 0
M  V30 3290 H 330.962 6.22957 -1.74737 0
M  V30 3291 N 331.094 0.475555 1.50254 0
M  V30 3292 C 332.042 -0.330276 2.30243 0
M  V30 3293 C 333.036 -0.986306 1.37726 0
M  V30 3294 O 334.242 -0.9169 1.54897 0
M  V30 3295 H 330.617 -0.125353 0.741479 0
M  V30 3296 H 332.588 0.364702 2.96163 0
M  V30 3297 C 331.337 -1.39704 3.18399 0
M  V30 3298 H 330.66 -0.901621 3.89501 0
M  V30 3299 H 332.1 -1.93336 3.77355 0
M  V30 3300 C 330.559 -2.4014 2.36293 0
M  V30 3301 O 331.089 -3.45504 2.04914 0
M  V30 3302 N 329.295 -2.1197 1.98789 0
M  V30 3303 H 328.842 -1.2631 2.24507 0
M  V30 3304 H 328.8 -2.79403 1.44157 0
M  V30 3305 N 332.573 -1.56217 0.208337 0
M  V30 3306 C 333.52 -2.19699 -0.707192 0
M  V30 3307 C 334.49 -1.14836 -1.20008 0
M  V30 3308 O 335.675 -1.4314 -1.26157 0
M  V30 3309 C 332.815 -2.87061 -1.91546 0
M  V30 3310 C 331.928 -4.06483 -1.46271 0
M  V30 3311 C 331.063 -4.61665 -2.62752 0
M  V30 3312 C 330.102 -5.73417 -2.14147 0
M  V30 3313 N 329.239 -6.22948 -3.23853 0
M  V30 3314 H 334.079 -2.97575 -0.159111 0
M  V30 3315 H 331.616 -1.46948 -0.0667874 0
M  V30 3316 H 333.574 -3.24294 -2.62468 0
M  V30 3317 H 332.204 -2.11725 -2.43664 0
M  V30 3318 H 331.256 -3.74825 -0.648886 0
M  V30 3319 H 332.568 -4.87271 -1.06622 0
M  V30 3320 H 331.722 -5.01272 -3.41776 0
M  V30 3321 H 330.461 -3.80013 -3.05682 0
M  V30 3322 H 329.466 -5.33326 -1.33581 0
M  V30 3323 H 330.691 -6.56897 -1.72232 0
M  V30 3324 H 328.637 -5.44213 -3.6629 0
M  V30 3325 H 328.554 -6.98823 -2.88414 0
M  V30 3326 H 329.822 -6.6721 -4.03052 0
M  V30 3327 N 334.051 0.0651679 -1.57465 0
M  V30 3328 C 335.328 0.79644 -1.78651 0
M  V30 3329 C 335.708 1.95454 -0.797566 0
M  V30 3330 O 335.056 2.27882 0.167946 0
M  V30 3331 C 335.266 1.26322 -3.25337 0
M  V30 3332 C 336.614 1.6939 -3.89348 0
M  V30 3333 O 337.638 1.35872 -3.29268 0
M  V30 3334 O 336.497 2.31471 -4.95059 0
M  V30 3335 H 333.591 0.382157 -0.733407 0
M  V30 3336 H 336.137 0.0447311 -1.69641 0
M  V30 3337 H 334.909 0.434859 -3.88876 0
M  V30 3338 H 334.532 2.07604 -3.39096 0
M  V30 3339 N 335.529 1.53961 0.336706 0
M  V30 3340 C 336.476 1.82428 1.41381 0
M  V30 3341 C 337.446 0.670444 1.51968 0
M  V30 3342 O 338.631 0.915565 1.67398 0
M  V30 3343 C 335.771 2.04564 2.77934 0
M  V30 3344 C 334.884 3.32267 2.76084 0
M  V30 3345 C 334.019 3.44434 4.04399 0
M  V30 3346 C 333.058 4.66061 3.96804 0
M  V30 3347 N 332.195 4.75224 5.16823 0
M  V30 3348 H 337.035 2.74324 1.16405 0
M  V30 3349 H 334.572 1.35869 0.563752 0
M  V30 3350 H 336.53 2.15388 3.57301 0
M  V30 3351 H 335.16 1.15974 3.01247 0
M  V30 3352 H 334.212 3.3025 1.88784 0
M  V30 3353 H 335.524 4.21733 2.66351 0
M  V30 3354 H 334.678 3.54728 4.92192 0
M  V30 3355 H 333.417 2.53037 4.16921 0
M  V30 3356 H 332.422 4.55838 3.07396 0
M  V30 3357 H 333.647 5.58829 3.85858 0
M  V30 3358 H 331.593 3.86739 5.29876 0
M  V30 3359 H 331.51 5.58636 5.09374 0
M  V30 3360 H 332.778 4.89835 6.06367 0
M  V30 3361 N 337.007 -0.598083 1.45811 0
M  V30 3362 C 338.254 -1.35681 1.50323 0
M  V30 3363 C 338.582 -1.9393 0.148739 0
M  V30 3364 O 337.837 -1.76094 -0.853787 0
M  V30 3365 C 338.136 -2.51669 2.53766 0
M  V30 3366 C 337.802 -2.11508 3.98215 0
M  V30 3367 C 336.464 -2.0027 4.37545 0
M  V30 3368 C 338.816 -1.80308 4.89018 0
M  V30 3369 C 336.144 -1.56067 5.65562 0
M  V30 3370 C 338.496 -1.37589 6.17456 0
M  V30 3371 C 337.16 -1.24916 6.55708 0
M  V30 3372 H 336.43 -0.496492 0.550069 0
M  V30 3373 H 339.077 -0.675052 1.79207 0
M  V30 3374 H 337.382 -3.25225 2.18486 0
M  V30 3375 H 339.079 -3.09895 2.54492 0
M  V30 3376 H 335.669 -2.21185 3.67117 0
M  V30 3377 H 339.853 -1.87884 4.59362 0
M  V30 3378 H 335.109 -1.44886 5.93985 0
M  V30 3379 H 339.283 -1.12495 6.87254 0
M  V30 3380 H 336.91 -0.904386 7.54801 0
M  V30 3381 N 338.485 -1.33259 -0.841409 0
M  V30 3382 C 339.448 -1.23221 -1.9326 0
M  V30 3383 C 340.448 -0.151895 -1.60081 0
M  V30 3384 O 341.638 -0.403246 -1.69468 0
M  V30 3385 C 338.77 -0.898123 -3.28856 0
M  V30 3386 H 339.963 -2.2021 -2.03587 0
M  V30 3387 H 337.516 -1.17281 -1.03319 0
M  V30 3388 H 338.251 0.0693841 -3.24226 0
M  V30 3389 H 338.036 -1.67934 -3.54317 0
M  V30 3390 H 339.526 -0.852563 -4.08805 0
M  V30 3391 N 339.963 1.05934 -1.16686 0
M  V30 3392 C 341.379 1.30938 -0.912542 0
M  V30 3393 C 341.579 1.96803 0.432533 0
M  V30 3394 O 340.635 2.23693 1.17123 0
M  V30 3395 C 341.948 2.18649 -2.06429 0
M  V30 3396 C 343.496 2.32055 -2.10047 0
M  V30 3397 C 343.971 3.23122 -3.24586 0
M  V30 3398 N 345.462 3.30706 -3.24327 0
M  V30 3399 C 346.197 4.01273 -4.09594 0
M  V30 3400 N 345.693 4.74332 -5.04956 0
M  V30 3401 N 347.486 3.97361 -3.97569 0
M  V30 3402 H 339.637 0.615777 -2.03278 0
M  V30 3403 H 341.9 0.334077 -0.887185 0
M  V30 3404 H 341.606 1.77534 -3.03603 0
M  V30 3405 H 341.48 3.19252 -2.00894 0
M  V30 3406 H 343.867 2.72415 -1.13464 0
M  V30 3407 H 343.948 1.31107 -2.19647 0
M  V30 3408 H 343.592 2.83477 -4.2143 0
M  V30 3409 H 343.522 4.24057 -3.12223 0
M  V30 3410 H 346.013 2.78644 -2.55276 0
M  V30 3411 H 346.326 5.25716 -5.6643 0
M  V30 3412 H 344.671 4.733 -5.08933 0
M  V30 3413 H 347.862 3.39405 -3.22369 0
M  V30 3414 H 348.035 4.52089 -4.64241 0
M  V30 3415 N 341.441 0.965919 1.2453 0
M  V30 3416 C 342.404 0.499547 2.2369 0
M  V30 3417 C 343.404 -0.40294 1.5567 0
M  V30 3418 O 344.594 -0.19865 1.73064 0
M  V30 3419 C 341.726 -0.276792 3.39774 0
M  V30 3420 H 342.919 1.37613 2.66463 0
M  V30 3421 H 340.472 0.750324 1.37112 0
M  V30 3422 H 341.207 -1.17055 3.02438 0
M  V30 3423 H 340.992 0.370826 3.90343 0
M  V30 3424 H 342.482 -0.592175 4.1338 0
M  V30 3425 N 342.919 -1.39368 0.735821 0
M  V30 3426 C 343.866 -2.30599 0.0963825 0
M  V30 3427 C 344.836 -1.49257 -0.728794 0
M  V30 3428 O 346.021 -1.77941 -0.688588 0
M  V30 3429 C 343.161 -3.35596 -0.804305 0
M  V30 3430 C 342.274 -4.31987 0.0335761 0
M  V30 3431 C 341.409 -5.24053 -0.868461 0
M  V30 3432 C 340.448 -6.12095 -0.0258776 0
M  V30 3433 N 339.585 -6.96514 -0.883893 0
M  V30 3434 H 344.425 -2.8471 0.880002 0
M  V30 3435 H 341.962 -1.40188 0.445619 0
M  V30 3436 H 343.92 -3.95062 -1.34096 0
M  V30 3437 H 342.55 -2.82938 -1.55389 0
M  V30 3438 H 341.602 -3.74133 0.68766 0
M  V30 3439 H 342.914 -4.94074 0.685036 0
M  V30 3440 H 342.068 -5.88549 -1.47293 0
M  V30 3441 H 340.807 -4.62289 -1.5537 0
M  V30 3442 H 339.812 -5.4661 0.591386 0
M  V30 3443 H 341.037 -6.75923 0.656156 0
M  V30 3444 H 338.983 -6.37318 -1.55441 0
M  V30 3445 H 338.9 -7.55448 -0.288931 0
M  V30 3446 H 340.168 -7.65439 -1.4739 0
M  V30 3447 N 344.397 -0.483516 -1.5 0
M  V30 3448 C 345.307 0.309172 -2.32554 0
M  V30 3449 C 346.323 0.984159 -1.43493 0
M  V30 3450 O 347.499 0.969399 -1.76535 0
M  V30 3451 C 344.564 1.36979 -3.18493 0
M  V30 3452 C 343.625 0.710095 -4.23387 0
M  V30 3453 C 342.858 1.72018 -5.05218 0
M  V30 3454 O 343.081 2.94813 -4.88305 0
M  V30 3455 O 342.015 1.28515 -5.8802 0
M  V30 3456 H 345.841 -0.366064 -3.01486 0
M  V30 3457 H 343.426 -0.24514 -1.47375 0
M  V30 3458 H 345.308 1.98385 -3.71781 0
M  V30 3459 H 343.983 2.02828 -2.52275 0
M  V30 3460 H 342.89 0.0567539 -3.74057 0
M  V30 3461 H 344.223 0.0943557 -4.9211 0
M  V30 3462 N 345.875 1.56104 -0.216619 0
M  V30 3463 C 347.122 1.98172 0.416416 0
M  V30 3464 C 347.45 1.10413 1.60122 0
M  V30 3465 O 346.705 0.147967 1.9514 0
M  V30 3466 C 347.004 3.45923 0.898464 0
M  V30 3467 C 346.67 4.50559 -0.175288 0
M  V30 3468 C 345.332 4.78897 -0.470271 0
M  V30 3469 C 347.684 5.1334 -0.901728 0
M  V30 3470 C 345.012 5.67299 -1.4963 0
M  V30 3471 C 347.364 6.02853 -1.91705 0
M  V30 3472 C 346.028 6.29537 -2.21901 0
M  V30 3473 H 345.298 0.725164 0.152377 0
M  V30 3474 H 347.945 1.88839 -0.318103 0
M  V30 3475 H 346.25 3.52434 1.71165 0
M  V30 3476 H 347.947 3.75841 1.39803 0
M  V30 3477 H 344.537 4.28551 0.0647806 0
M  V30 3478 H 348.721 4.91521 -0.687072 0
M  V30 3479 H 343.977 5.86239 -1.73592 0
M  V30 3480 H 348.151 6.50552 -2.48505 0
M  V30 3481 H 345.778 6.97835 -3.01548 0
M  V30 3482 N 347.353 -0.0568162 1.57498 0
M  V30 3483 C 348.601 -0.751617 1.87604 0
M  V30 3484 C 348.922 -1.77351 0.81066 0
M  V30 3485 O 348.192 -1.95254 -0.159018 0
M  V30 3486 H 346.772 -0.280583 0.692302 0
M  V30 3487 H 349.434 -0.0293483 1.94878 0
M  V30 3488 H 348.53 -1.25852 2.856 0
M  V30 3489 N 348.832 -1.54138 -0.328536 0
M  V30 3490 C 349.795 -1.82462 -1.38709 0
M  V30 3491 C 350.795 -0.696229 -1.44946 0
M  V30 3492 O 351.985 -0.964535 -1.4506 0
M  V30 3493 C 349.117 -1.98018 -2.77492 0
M  V30 3494 H 350.31 -2.77037 -1.14851 0
M  V30 3495 H 347.863 -1.45779 -0.563751 0
M  V30 3496 H 348.598 -1.05637 -3.06613 0
M  V30 3497 H 348.383 -2.80124 -2.74359 0
M  V30 3498 H 349.873 -2.21396 -3.54081 0
M  V30 3499 N 350.31 0.590341 -1.46126 0
M  V30 3500 C 351.538 1.37504 -1.54597 0
M  V30 3501 C 351.953 1.87897 -0.184447 0
M  V30 3502 O 351.31 1.63192 0.816984 0
M  V30 3503 C 351.361 2.56779 -2.54454 0
M  V30 3504 O 351.082 2.08476 -3.85317 0
M  V30 3505 C 352.583 3.49427 -2.72792 0
M  V30 3506 H 349.803 0.420325 -0.523037 0
M  V30 3507 H 352.347 0.718383 -1.91467 0
M  V30 3508 H 350.502 3.1845 -2.20609 0
M  V30 3509 H 350.916 2.86097 -4.396 0
M  V30 3510 H 352.39 4.29619 -3.466 0
M  V30 3511 H 352.867 4.00876 -1.79429 0
M  V30 3512 H 353.473 2.93598 -3.07702 0
M  V30 3513 N 351.788 1.33704 0.83433 0
M  V30 3514 C 352.698 1.26382 1.97648 0
M  V30 3515 C 353.714 0.173548 1.73132 0
M  V30 3516 O 354.89 0.397962 1.97429 0
M  V30 3517 C 351.955 1.00769 3.31733 0
M  V30 3518 C 351.016 2.1884 3.69334 0
M  V30 3519 C 350.249 1.9444 4.9702 0
M  V30 3520 O 350.472 0.896961 5.63303 0
M  V30 3521 O 349.406 2.81093 5.32231 0
M  V30 3522 H 353.232 2.22444 2.06767 0
M  V30 3523 H 350.817 1.13795 0.968037 0
M  V30 3524 H 352.699 0.882186 4.12062 0
M  V30 3525 H 351.374 0.0773783 3.23608 0
M  V30 3526 H 350.281 2.36946 2.89495 0
M  V30 3527 H 351.614 3.10221 3.82131 0
M  V30 3528 N 353.266 -1.05314 1.17247 0
M  V30 3529 C 354.506 -1.79869 0.970898 0
M  V30 3530 C 354.87 -1.85594 -0.491808 0
M  V30 3531 O 356.071 -2.56229 -0.812409 0
M  V30 3532 C 354.342 -3.19937 1.59295 0
M  V30 3533 S 355.901 -4.10986 1.53741 0
M  V30 3534 H 352.719 -0.61949 0.348931 0
M  V30 3535 H 355.321 -1.26368 1.49169 0
M  V30 3536 H 354.025 -3.13372 2.65003 0
M  V30 3537 H 353.556 -3.78515 1.07191 0
M  V30 3538 H 355.571 -4.93203 0.544537 0
M  V30 3539 N 354.744 -0.972509 -1.24016 0
M  V30 3540 C 355.993 -0.632603 -1.91523 0
M  V30 3541 C 356.306 0.836641 -1.76804 0
M  V30 3542 O 357.512 1.28728 -2.39043 0
M  V30 3543 C 355.968 -1.08082 -3.43287 0
M  V30 3544 C 355.576 -2.57386 -3.66683 0
M  V30 3545 C 357.32 -0.814288 -4.16617 0
M  V30 3546 C 355.227 -2.95915 -5.12043 0
M  V30 3547 H 354.157 -0.232898 -0.717129 0
M  V30 3548 H 356.808 -1.17936 -1.40582 0
M  V30 3549 H 355.19 -0.462339 -3.93292 0
M  V30 3550 H 356.364 -3.24405 -3.27258 0
M  V30 3551 H 354.679 -2.81701 -3.06649 0
M  V30 3552 H 357.276 -1.0781 -5.23718 0
M  V30 3553 H 357.619 0.24955 -4.15551 0
M  V30 3554 H 358.152 -1.39397 -3.72577 0
M  V30 3555 H 354.891 -4.0139 -5.18234 0
M  V30 3556 H 354.411 -2.33584 -5.52448 0
M  V30 3557 H 356.09 -2.86086 -5.80314 0
M  V30 3558 N 356.222 1.38976 -0.743202 0
M  V30 3559 C 357.17 2.32394 -0.0978389 0
M  V30 3560 C 358.164 1.53486 0.716824 0
M  V30 3561 O 359.37 1.69092 0.617088 0
M  V30 3562 H 355.745 0.75189 -0.0128402 0
M  V30 3563 H 357.716 2.84441 -0.901981 0
M  V30 3564 C 356.465 3.38629 0.789036 0
M  V30 3565 H 355.788 3.99432 0.171559 0
M  V30 3566 H 357.228 4.06426 1.20807 0
M  V30 3567 C 355.687 2.76347 1.92702 0
M  V30 3568 O 356.217 2.64836 3.02034 0
M  V30 3569 N 354.423 2.34311 1.71891 0
M  V30 3570 H 353.97 2.43873 0.829675 0
M  V30 3571 H 353.928 1.9298 2.48205 0
M  V30 3572 N 357.7 0.491464 1.49741 0
M  V30 3573 C 359.111 0.0413169 1.86654 0
M  V30 3574 C 359.462 -1.36985 1.40462 0
M  V30 3575 O 358.587 -2.01917 0.778354 0
M  V30 3576 C 359.182 0.0682023 3.38731 0
M  V30 3577 C 357.741 -0.32656 3.74981 0
M  V30 3578 C 356.888 0.444888 2.73708 0
M  V30 3579 H 359.839 0.704733 1.42194 0
M  V30 3580 H 359.86 -0.729322 3.73445 0
M  V30 3581 H 359.372 1.09539 3.72321 0
M  V30 3582 H 357.473 -1.35734 3.46997 0
M  V30 3583 H 357.586 -0.013741 4.79098 0
M  V30 3584 H 355.95 -0.104062 2.54487 0
M  V30 3585 H 356.733 1.47197 3.10142 0
M  V30 3586 N 359.178 -1.55987 0.224894 0
M  V30 3587 C 360.11 -2.17722 -0.716224 0
M  V30 3588 C 361.123 -1.14723 -1.15509 0
M  V30 3589 O 362.312 -1.41688 -1.08567 0
M  V30 3590 C 359.412 -2.74873 -1.98238 0
M  V30 3591 C 358.585 -4.03074 -1.69853 0
M  V30 3592 C 357.644 -4.44757 -2.81208 0
M  V30 3593 O 356.67 -5.11587 -2.49534 0
M  V30 3594 N 357.872 -4.10716 -4.10235 0
M  V30 3595 H 360.637 -2.99109 -0.188123 0
M  V30 3596 H 358.198 -1.6184 0.0440123 0
M  V30 3597 H 360.19 -2.99727 -2.7193 0
M  V30 3598 H 358.76 -1.9777 -2.42086 0
M  V30 3599 H 357.98 -3.86041 -0.797875 0
M  V30 3600 H 359.268 -4.86701 -1.48324 0
M  V30 3601 H 358.666 -3.57019 -4.38809 0
M  V30 3602 H 357.223 -4.40455 -4.80461 0
M  V30 3603 N 360.656 0.0484629 -1.57525 0
M  V30 3604 C 361.933 0.777447 -1.79486 0
M  V30 3605 C 362.313 1.94597 -0.818251 0
M  V30 3606 O 361.661 2.28047 0.143767 0
M  V30 3607 C 361.871 1.22864 -3.26658 0
M  V30 3608 C 363.219 1.65251 -3.91123 0
M  V30 3609 O 364.243 1.32372 -3.3069 0
M  V30 3610 O 363.102 2.26207 -4.97486 0
M  V30 3611 H 360.196 0.374357 -0.737419 0
M  V30 3612 H 362.742 0.0267359 -1.69679 0
M  V30 3613 H 361.514 0.393589 -3.89316 0
M  V30 3614 H 361.137 2.03996 -3.41279 0
M  V30 3615 N 362.134 1.5431 0.320358 0
M  V30 3616 C 363.381 1.72668 1.05792 0
M  V30 3617 C 363.709 0.502084 1.87908 0
M  V30 3618 O 362.964 -0.516149 1.88771 0
M  V30 3619 C 363.263 2.95639 2.00828 0
M  V30 3620 C 362.929 4.30265 1.34843 0
M  V30 3621 C 361.591 4.66865 1.16578 0
M  V30 3622 C 363.943 5.13801 0.875095 0
M  V30 3623 C 361.271 5.84597 0.496336 0
M  V30 3624 C 363.623 6.32219 0.219463 0
M  V30 3625 C 362.287 6.67495 0.0246915 0
M  V30 3626 H 361.557 0.631837 0.387121 0
M  V30 3627 H 364.204 1.88552 0.334735 0
M  V30 3628 H 362.509 2.74456 2.79609 0
M  V30 3629 H 364.206 3.07038 2.57932 0
M  V30 3630 H 360.796 4.01472 1.50061 0
M  V30 3631 H 364.98 4.86039 1.00398 0
M  V30 3632 H 360.236 6.10486 0.334264 0
M  V30 3633 H 364.41 6.96227 -0.155291 0
M  V30 3634 H 362.037 7.5858 -0.496065 0
M  V30 3635 N 363.613 -0.582584 1.46437 0
M  V30 3636 C 364.838 -1.37168 1.55563 0
M  V30 3637 C 365.263 -1.87061 0.19743 0
M  V30 3638 O 364.621 -1.61572 -0.822451 0
M  V30 3639 C 364.669 -2.53511 2.56446 0
M  V30 3640 O 363.773 -3.54953 2.09958 0
M  V30 3641 H 363.114 -0.408494 0.523477 0
M  V30 3642 H 365.644 -0.706646 1.9201 0
M  V30 3643 H 365.654 -3.00426 2.76058 0
M  V30 3644 H 364.329 -2.16549 3.55076 0
M  V30 3645 H 362.906 -3.14516 2.00334 0
M  V30 3646 N 365.091 -1.34144 -0.827227 0
M  V30 3647 C 366.038 -1.25364 -1.93785 0
M  V30 3648 C 367.008 -0.129774 -1.65592 0
M  V30 3649 O 368.193 -0.310024 -1.88264 0
M  V30 3650 C 365.333 -1.01064 -3.2997 0
M  V30 3651 C 364.446 -2.22185 -3.70484 0
M  V30 3652 C 363.581 -1.91203 -4.95595 0
M  V30 3653 C 362.62 -3.08491 -5.28677 0
M  V30 3654 N 361.757 -2.77421 -6.44967 0
M  V30 3655 H 366.597 -2.20347 -2.00627 0
M  V30 3656 H 364.134 -1.09558 -0.981608 0
M  V30 3657 H 366.092 -0.850139 -4.08446 0
M  V30 3658 H 364.722 -0.0975026 -3.22653 0
M  V30 3659 H 363.774 -2.4917 -2.87434 0
M  V30 3660 H 365.086 -3.0983 -3.90905 0
M  V30 3661 H 364.24 -1.71864 -5.81848 0
M  V30 3662 H 362.979 -1.00812 -4.77167 0
M  V30 3663 H 361.984 -3.28431 -4.40923 0
M  V30 3664 H 363.209 -3.99655 -5.49047 0
M  V30 3665 H 361.155 -1.89601 -6.28003 0
M  V30 3666 H 361.072 -3.58598 -6.6554 0
M  V30 3667 H 362.34 -2.61577 -7.34301 0
M  V30 3668 N 366.569 1.04691 -1.17803 0
M  V30 3669 C 367.98 1.59238 -0.974689 0
M  V30 3670 C 368.331 1.90306 0.477292 0
M  V30 3671 O 367.456 1.68846 1.35352 0
M  V30 3672 C 368.051 2.89318 -1.76296 0
M  V30 3673 C 366.61 3.40506 -1.60414 0
M  V30 3674 C 365.757 2.14172 -1.76141 0
M  V30 3675 H 368.708 0.874395 -1.32439 0
M  V30 3676 H 368.729 3.5944 -1.24833 0
M  V30 3677 H 368.241 2.66675 -2.81968 0
M  V30 3678 H 366.342 3.68175 -0.572519 0
M  V30 3679 H 366.455 4.14753 -2.39827 0
M  V30 3680 H 364.819 2.25176 -1.19028 0
M  V30 3681 H 365.602 1.93992 -2.83235 0
M  V30 3682 N 368.047 0.979072 1.23499 0
M  V30 3683 C 369.296 0.642751 1.91185 0
M  V30 3684 C 369.609 -0.827253 1.77245 0
M  V30 3685 O 370.815 -1.27458 2.39722 0
M  V30 3686 C 369.271 1.09901 3.42709 0
M  V30 3687 C 368.879 2.59327 3.65313 0
M  V30 3688 C 370.623 0.836371 4.16179 0
M  V30 3689 C 368.53 2.98627 5.10467 0
M  V30 3690 H 367.46 0.236698 0.715884 0
M  V30 3691 H 370.111 1.1868 1.39955 0
M  V30 3692 H 368.493 0.48319 3.93041 0
M  V30 3693 H 369.667 3.26136 3.25533 0
M  V30 3694 H 367.982 2.83323 3.05151 0
M  V30 3695 H 370.579 1.10586 5.23139 0
M  V30 3696 H 370.922 -0.227509 4.15678 0
M  V30 3697 H 371.455 1.41371 3.71832 0
M  V30 3698 H 368.194 4.04133 5.16098 0
M  V30 3699 H 367.714 2.3651 5.51201 0
M  V30 3700 H 369.393 2.89159 5.78788 0
M  V30 3701 N 369.525 -1.3858 0.750561 0
M  V30 3702 C 370.457 -2.29057 0.0810714 0
M  V30 3703 C 371.47 -1.47596 -0.686973 0
M  V30 3704 O 372.659 -1.70495 -0.528563 0
M  V30 3705 C 369.759 -3.26475 -0.909247 0
M  V30 3706 C 368.932 -4.36945 -0.199478 0
M  V30 3707 C 367.991 -5.14572 -1.10011 0
M  V30 3708 O 367.017 -5.66321 -0.57177 0
M  V30 3709 N 368.219 -5.27262 -2.42849 0
M  V30 3710 H 370.984 -2.87153 0.858087 0
M  V30 3711 H 368.545 -1.50328 0.60109 0
M  V30 3712 H 370.537 -3.75285 -1.51471 0
M  V30 3713 H 369.107 -2.69298 -1.58736 0
M  V30 3714 H 368.327 -3.8981 0.586664 0
M  V30 3715 H 369.615 -5.07963 0.291783 0
M  V30 3716 H 369.013 -4.86763 -2.88233 0
M  V30 3717 H 367.57 -5.79456 -2.98453 0
M  V30 3718 N 371.003 -0.499398 -1.49478 0
M  V30 3719 C 371.913 0.284489 -2.32869 0
M  V30 3720 C 372.929 0.968885 -1.44529 0
M  V30 3721 O 374.105 0.95062 -1.77553 0
M  V30 3722 C 371.17 1.33594 -3.19928 0
M  V30 3723 C 370.231 0.665149 -4.24116 0
M  V30 3724 C 369.464 1.6665 -5.07014 0
M  V30 3725 O 369.687 2.89618 -4.91404 0
M  V30 3726 O 368.621 1.22271 -5.8935 0
M  V30 3727 H 372.447 -0.39802 -3.01081 0
M  V30 3728 H 370.032 -0.260758 -1.47107 0
M  V30 3729 H 371.914 1.94431 -3.73864 0
M  V30 3730 H 370.589 2.0014 -2.54412 0
M  V30 3731 H 369.496 0.0170769 -3.74096 0
M  V30 3732 H 370.829 0.0421555 -4.92182 0
M  V30 3733 N 372.481 1.55866 -0.233164 0
M  V30 3734 C 373.727 1.98897 0.395959 0
M  V30 3735 C 374.06 1.12091 1.58585 0
M  V30 3736 O 373.335 0.181182 1.93654 0
M  V30 3737 C 373.618 3.50658 0.819224 0
M  V30 3738 C 373.471 4.48233 -0.375109 0
M  V30 3739 C 374.79 4.07135 1.67121 0
M  V30 3740 H 371.909 0.723102 0.142451 0
M  V30 3741 H 374.551 1.87082 -0.331725 0
M  V30 3742 H 372.701 3.60857 1.43925 0
M  V30 3743 H 374.373 4.50031 -1.01341 0
M  V30 3744 H 372.616 4.21624 -1.02058 0
M  V30 3745 H 373.287 5.51988 -0.0358328 0
M  V30 3746 H 375.763 3.99952 1.14795 0
M  V30 3747 H 374.639 5.13615 1.93625 0
M  V30 3748 H 374.9 3.54736 2.63846 0
M  V30 3749 N 373.959 -0.0401083 1.57549 0
M  V30 3750 C 374.889 -1.04384 2.08869 0
M  V30 3751 C 375.87 -1.38407 0.988817 0
M  V30 3752 O 377.055 -1.47483 1.26342 0
M  V30 3753 C 374.185 -2.34808 2.55895 0
M  V30 3754 C 373.139 -2.15057 3.70047 0
M  V30 3755 C 372.465 -3.51145 4.03239 0
M  V30 3756 C 373.765 -1.54576 4.98902 0
M  V30 3757 H 375.459 -0.616666 2.92981 0
M  V30 3758 H 373.005 -0.295184 1.40942 0
M  V30 3759 H 374.958 -3.05346 2.90417 0
M  V30 3760 H 373.682 -2.79565 1.68853 0
M  V30 3761 H 372.341 -1.46954 3.35857 0
M  V30 3762 H 371.989 -3.93529 3.13279 0
M  V30 3763 H 371.689 -3.38758 4.80122 0
M  V30 3764 H 373.213 -4.23062 4.40285 0
M  V30 3765 H 374.627 -2.15017 5.31451 0
M  V30 3766 H 373.024 -1.52796 5.80322 0
M  V30 3767 H 374.094 -0.51039 4.82206 0
M  V30 3768 N 375.437 -1.54477 -0.31217 0
M  V30 3769 C 376.686 -1.72438 -1.04633 0
M  V30 3770 C 376.999 -0.511163 -1.88803 0
M  V30 3771 O 378.205 -0.572341 -2.65399 0
M  V30 3772 C 376.661 -3.05043 -1.9099 0
M  V30 3773 C 376.269 -4.33806 -1.11877 0
M  V30 3774 C 378.013 -3.32364 -2.64073 0
M  V30 3775 C 375.92 -5.57467 -1.97445 0
M  V30 3776 H 374.85 -0.642647 -0.394361 0
M  V30 3777 H 377.501 -1.80966 -0.303929 0
M  V30 3778 H 375.883 -2.90451 -2.69173 0
M  V30 3779 H 377.057 -4.59199 -0.383843 0
M  V30 3780 H 375.372 -4.13336 -0.504252 0
M  V30 3781 H 377.969 -4.21951 -3.28423 0
M  V30 3782 H 378.312 -2.50745 -3.32314 0
M  V30 3783 H 378.845 -3.47875 -1.92944 0
M  V30 3784 H 375.584 -6.41722 -1.33692 0
M  V30 3785 H 375.104 -5.36277 -2.6864 0
M  V30 3786 H 376.783 -5.94303 -2.5576 0
M  V30 3787 N 376.915 0.57481 -1.46744 0
M  V30 3788 C 377.825 1.711 -1.60505 0
M  V30 3789 C 378.841 1.67008 -0.488307 0
M  V30 3790 O 380.017 1.86774 -0.753495 0
M  V30 3791 C 377.082 3.07608 -1.59932 0
M  V30 3792 C 376.143 3.22904 -2.82898 0
M  V30 3793 C 375.376 4.529 -2.82343 0
M  V30 3794 O 375.599 5.37278 -1.91542 0
M  V30 3795 O 374.533 4.71611 -3.73987 0
M  V30 3796 H 378.359 1.62436 -2.56609 0
M  V30 3797 H 375.944 0.742779 -1.29627 0
M  V30 3798 H 377.826 3.88877 -1.62336 0
M  V30 3799 H 376.501 3.16692 -0.669898 0
M  V30 3800 H 375.408 2.41099 -2.86046 0
M  V30 3801 H 376.741 3.18715 -3.75076 0
M  V30 3802 N 378.394 1.34581 0.820102 0
M  V30 3803 C 379.327 1.20735 1.93644 0
M  V30 3804 C 380.305 0.0983343 1.62302 0
M  V30 3805 O 381.489 0.263997 1.86642 0
M  V30 3806 C 378.616 0.856037 3.27704 0
M  V30 3807 C 377.662 1.97521 3.78005 0
M  V30 3808 S 378.495 3.58906 3.97425 0
M  V30 3809 C 379.651 3.25822 5.34407 0
M  V30 3810 H 379.884 2.15231 2.05093 0
M  V30 3811 H 377.417 1.1964 0.97599 0
M  V30 3812 H 379.375 0.660133 4.05157 0
M  V30 3813 H 378.036 -0.0706253 3.14021 0
M  V30 3814 H 377.229 1.68321 4.75062 0
M  V30 3815 H 376.831 2.12875 3.07507 0
M  V30 3816 H 379.123 2.77812 6.17922 0
M  V30 3817 H 380.066 4.22029 5.68592 0
M  V30 3818 H 380.474 2.61932 5.00052 0
M  V30 3819 N 379.872 -1.04064 1.18357 0
M  V30 3820 C 381.1 -1.80916 1.00384 0
M  V30 3821 C 381.515 -1.83414 -0.447738 0
M  V30 3822 O 380.872 -1.26962 -1.31099 0
M  V30 3823 C 380.923 -3.26516 1.55144 0
M  V30 3824 O 380.644 -3.2424 2.94618 0
M  V30 3825 C 382.145 -4.20013 1.41789 0
M  V30 3826 H 379.365 -0.569728 0.354474 0
M  V30 3827 H 381.909 -1.31151 1.56906 0
M  V30 3828 H 380.064 -3.73512 1.02798 0
M  V30 3829 H 380.478 -4.15452 3.20156 0
M  V30 3830 H 381.952 -5.20111 1.84901 0
M  V30 3831 H 382.429 -4.37667 0.36661 0
M  V30 3832 H 383.035 -3.78881 1.93207 0
M  V30 3833 N 381.35 -0.985608 -1.22978 0
M  V30 3834 C 382.627 -0.573599 -1.87001 0
M  V30 3835 C 383.007 0.949213 -1.88555 0
M  V30 3836 O 382.355 1.82811 -1.37086 0
M  V30 3837 C 382.565 -1.18564 -3.28243 0
M  V30 3838 C 383.913 -1.28163 -4.04796 0
M  V30 3839 O 384.937 -1.13949 -3.37482 0
M  V30 3840 O 383.796 -1.50832 -5.25273 0
M  V30 3841 H 380.89 -0.193868 -0.803955 0
M  V30 3842 H 383.436 -1.08102 -1.30813 0
M  V30 3843 H 382.208 -2.22758 -3.21706 0
M  V30 3844 H 381.831 -0.663363 -3.92027 0
M  V30 3845 N 382.828 1.3818 -0.7579 0
M  V30 3846 C 384.076 1.99624 -0.315361 0
M  V30 3847 C 384.397 1.60464 1.10799 0
M  V30 3848 O 383.667 0.863507 1.75842 0
M  V30 3849 H 382.247 0.73831 -0.113611 0
M  V30 3850 H 384.909 1.68878 -0.972952 0
M  V30 3851 H 384.005 3.09754 -0.381931 0
M  V30 3852 N 384.306 0.507319 1.49211 0
M  V30 3853 C 385.554 -0.0348839 2.0207 0
M  V30 3854 C 385.875 -1.36898 1.38866 0
M  V30 3855 O 385.145 -1.88133 0.546151 0
M  V30 3856 H 383.725 -0.0158812 0.746831 0
M  V30 3857 H 386.387 0.665998 1.83168 0
M  V30 3858 H 385.483 -0.159917 3.1169 0
M  V30 3859 N 385.784 -1.5574 0.241426 0
M  V30 3860 C 387.03 -1.99104 -0.385406 0
M  V30 3861 C 387.363 -1.1293 -1.57988 0
M  V30 3862 O 386.638 -0.191449 -1.93555 0
M  V30 3863 C 386.921 -3.51087 -0.800616 0
M  V30 3864 C 386.774 -4.48028 0.398874 0
M  V30 3865 C 388.093 -4.08015 -1.64959 0
M  V30 3866 H 385.212 -0.723848 -0.138614 0
M  V30 3867 H 387.854 -1.86903 0.341642 0
M  V30 3868 H 386.004 -3.61615 -1.4201 0
M  V30 3869 H 387.676 -4.49487 1.03726 0
M  V30 3870 H 385.919 -4.21077 1.04293 0
M  V30 3871 H 386.59 -5.51962 0.0651056 0
M  V30 3872 H 389.066 -4.00555 -1.12672 0
M  V30 3873 H 387.942 -5.14635 -1.90898 0
M  V30 3874 H 388.203 -3.56131 -2.61961 0
M  V30 3875 N 387.262 0.0317525 -1.57568 0
M  V30 3876 C 388.539 0.758366 -1.803 0
M  V30 3877 C 388.919 1.93718 -0.838845 0
M  V30 3878 O 388.267 2.28187 0.119571 0
M  V30 3879 C 388.477 1.19392 -3.27943 0
M  V30 3880 C 389.825 1.61094 -3.92854 0
M  V30 3881 O 390.849 1.28857 -3.32076 0
M  V30 3882 O 389.708 2.20918 -4.99858 0
M  V30 3883 H 386.802 0.366514 -0.741348 0
M  V30 3884 H 389.348 0.00873765 -1.69698 0
M  V30 3885 H 388.12 0.352275 -3.89711 0
M  V30 3886 H 387.743 2.00365 -3.43424 0
M  V30 3887 N 388.74 1.54641 0.303973 0
M  V30 3888 C 389.97 1.77511 1.05705 0
M  V30 3889 C 390.378 0.533228 1.81531 0
M  V30 3890 O 389.721 -0.506423 1.76582 0
M  V30 3891 C 389.783 2.92779 2.08617 0
M  V30 3892 C 389.447 4.30977 1.52013 0
M  V30 3893 C 390.444 5.11115 0.9517 0
M  V30 3894 C 388.129 4.77571 1.55665 0
M  V30 3895 C 390.123 6.35966 0.427327 0
M  V30 3896 C 387.81 6.02384 1.02841 0
M  V30 3897 C 388.808 6.81417 0.464713 0
M  V30 3898 O 388.496 8.03881 -0.0555283 0
M  V30 3899 H 388.228 0.59579 0.319391 0
M  V30 3900 H 390.782 2.02401 0.349712 0
M  V30 3901 H 389.012 2.63506 2.83022 0
M  V30 3902 H 390.701 3.03252 2.69802 0
M  V30 3903 H 391.467 4.76264 0.916407 0
M  V30 3904 H 387.346 4.16085 1.9848 0
M  V30 3905 H 390.89 6.97599 -0.0133062 0
M  V30 3906 H 386.787 6.36723 1.06084 0
M  V30 3907 H 387.555 8.18479 0.0580522 0
M  V30 3908 N 390.218 -0.567019 1.47046 0
M  V30 3909 C 391.443 -1.3551 1.57009 0
M  V30 3910 C 391.868 -1.86841 0.217259 0
M  V30 3911 O 391.226 -1.62435 -0.805268 0
M  V30 3912 C 391.274 -2.50777 2.5912 0
M  V30 3913 O 390.378 -3.52706 2.13711 0
M  V30 3914 H 389.719 -0.402919 0.52778 0
M  V30 3915 H 392.249 -0.686241 1.92748 0
M  V30 3916 H 392.259 -2.97481 2.79229 0
M  V30 3917 H 390.934 -2.12771 3.57353 0
M  V30 3918 H 389.511 -3.12374 2.03659 0
M  V30 3919 N 391.696 -1.35014 -0.812953 0
M  V30 3920 C 392.943 -1.27931 -1.56971 0
M  V30 3921 C 393.271 0.148034 -1.93936 0
M  V30 3922 O 392.526 1.11175 -1.61054 0
M  V30 3923 C 392.825 -2.12524 -2.87347 0
M  V30 3924 C 392.491 -3.61401 -2.6963 0
M  V30 3925 C 391.153 -4.01983 -2.64506 0
M  V30 3926 C 393.505 -4.55894 -2.52607 0
M  V30 3927 C 390.833 -5.35235 -2.40293 0
M  V30 3928 C 393.185 -5.89336 -2.29925 0
M  V30 3929 C 391.849 -6.2907 -2.23219 0
M  V30 3930 H 391.119 -0.468131 -0.574399 0
M  V30 3931 H 393.766 -1.66851 -0.939836 0
M  V30 3932 H 392.071 -1.66463 -3.54679 0
M  V30 3933 H 393.768 -2.04383 -3.45005 0
M  V30 3934 H 390.358 -3.29193 -2.74463 0
M  V30 3935 H 394.542 -4.25431 -2.55583 0
M  V30 3936 H 389.798 -5.65028 -2.33566 0
M  V30 3937 H 393.972 -6.62139 -2.15743 0
M  V30 3938 H 391.599 -7.32256 -2.04219 0
M  V30 3939 N 393.175 1.03435 -1.18907 0
M  V30 3940 C 394.085 2.15075 -0.937015 0
M  V30 3941 C 395.101 1.73706 0.101085 0
M  V30 3942 O 396.277 2.01232 -0.0822948 0
M  V30 3943 C 393.342 3.43458 -0.473057 0
M  V30 3944 C 392.403 3.99172 -1.57989 0
M  V30 3945 C 391.636 5.21427 -1.13797 0
M  V30 3946 O 391.859 5.704 0.000725941 0
M  V30 3947 O 390.793 5.69837 -1.9383 0
M  V30 3948 H 394.619 2.39198 -1.87131 0
M  V30 3949 H 392.204 1.13506 -0.971427 0
M  V30 3950 H 394.086 4.20811 -0.222702 0
M  V30 3951 H 392.761 3.20793 0.432869 0
M  V30 3952 H 391.668 3.23178 -1.88433 0
M  V30 3953 H 393.001 4.2619 -2.46217 0
M  V30 3954 N 394.653 0.992116 1.22453 0
M  V30 3955 C 395.893 0.675727 1.92907 0
M  V30 3956 C 396.257 -0.777762 1.75542 0
M  V30 3957 O 397.458 -1.20553 2.40251 0
M  V30 3958 C 395.729 1.0696 3.4102 0
M  V30 3959 S 397.288 0.871456 4.30059 0
M  V30 3960 H 394.106 0.247089 0.666684 0
M  V30 3961 H 396.708 1.27423 1.48269 0
M  V30 3962 H 395.412 2.12383 3.51172 0
M  V30 3963 H 394.943 0.462858 3.90668 0
M  V30 3964 H 396.958 -0.238436 4.95627 0
M  V30 3965 N 396.131 -1.37776 0.765217 0
M  V30 3966 C 397.38 -1.99092 0.323307 0
M  V30 3967 C 397.693 -1.61434 -1.10446 0
M  V30 3968 O 398.899 -2.15805 -1.64743 0
M  V30 3969 C 397.355 -3.56019 0.527098 0
M  V30 3970 C 396.963 -4.0262 1.96471 0
M  V30 3971 C 398.707 -4.2424 0.148483 0
M  V30 3972 C 396.614 -5.52233 2.11644 0
M  V30 3973 H 395.544 -0.744846 0.117137 0
M  V30 3974 H 398.195 -1.57391 0.943417 0
M  V30 3975 H 396.577 -3.95667 -0.162372 0
M  V30 3976 H 397.751 -3.74234 2.68859 0
M  V30 3977 H 396.066 -3.47161 2.29931 0
M  V30 3978 H 398.663 -5.34159 0.240456 0
M  V30 3979 H 399.006 -4.06446 -0.900422 0
M  V30 3980 H 399.539 -3.89872 0.79025 0
M  V30 3981 H 396.278 -5.74945 3.1483 0
M  V30 3982 H 395.798 -5.82324 1.4373 0
M  V30 3983 H 397.477 -6.18106 1.91193 0
M  V30 3984 N 397.609 -0.515225 -1.4894 0
M  V30 3985 C 398.857 0.0241671 -2.02086 0
M  V30 3986 C 399.178 1.3616 -1.3959 0
M  V30 3987 O 398.448 1.87841 -0.556121 0
M  V30 3988 H 397.028 0.0119203 -0.746905 0
M  V30 3989 H 399.69 -0.675702 -1.82812 0
M  V30 3990 H 398.786 0.143385 -3.1177 0
M  V30 3991 N 399.087 1.5561 -0.249682 0
M  V30 3992 C 400.035 2.22894 0.664906 0
M  V30 3993 C 401.029 1.21743 1.17792 0
M  V30 3994 O 402.235 1.39748 1.13449 0
M  V30 3995 H 398.61 0.715022 0.232912 0
M  V30 3996 H 400.581 2.98307 0.0742998 0
M  V30 3997 C 399.33 2.94424 1.84959 0
M  V30 3998 H 398.653 3.72031 1.46399 0
M  V30 3999 H 400.093 3.44862 2.4667 0
M  V30 4000 C 398.552 1.98454 2.72245 0
M  V30 4001 O 399.082 1.51939 3.71857 0
M  V30 4002 N 397.288 1.65496 2.38871 0
M  V30 4003 H 396.835 2.03517 1.57919 0
M  V30 4004 H 396.793 1.0155 2.97548 0
M  V30 4005 N 400.565 -0.0233959 1.57583 0
M  V30 4006 C 401.811 -0.714119 1.89811 0
M  V30 4007 C 402.144 -1.74702 0.848113 0
M  V30 4008 O 401.419 -1.94023 -0.136135 0
M  V30 4009 C 401.702 -1.37853 3.32669 0
M  V30 4010 C 401.555 -0.358764 4.48367 0
M  V30 4011 C 402.874 -2.31101 3.7454 0
M  V30 4012 H 399.993 -0.25814 0.690314 0
M  V30 4013 H 402.635 0.0230927 1.89986 0
M  V30 4014 H 400.785 -2.00689 3.3265 0
M  V30 4015 H 402.457 0.268115 4.6052 0
M  V30 4016 H 400.7 0.321387 4.32608 0
M  V30 4017 H 401.371 -0.862242 5.45224 0
M  V30 4018 H 403.847 -1.78304 3.75961 0
M  V30 4019 H 402.723 -2.74567 4.75294 0
M  V30 4020 H 402.984 -3.18018 3.0711 0
M  V30 4021 N 402.043 -1.548 -0.295768 0
M  V30 4022 C 402.99 -1.86113 -1.36494 0
M  V30 4023 C 403.96 -0.7105 -1.50137 0
M  V30 4024 O 405.145 -0.959626 -1.64912 0
M  V30 4025 C 402.285 -2.11861 -2.72413 0
M  V30 4026 C 401.398 -3.39471 -2.67177 0
M  V30 4027 C 400.533 -3.55035 -3.95125 0
M  V30 4028 C 399.572 -4.76418 -3.84308 0
M  V30 4029 N 398.709 -4.8876 -5.04042 0
M  V30 4030 H 403.549 -2.77314 -1.09091 0
M  V30 4031 H 401.086 -1.37315 -0.52753 0
M  V30 4032 H 403.044 -2.24786 -3.51464 0
M  V30 4033 H 401.674 -1.2392 -2.98066 0
M  V30 4034 H 400.726 -3.35139 -1.79962 0
M  V30 4035 H 402.038 -4.28646 -2.55076 0
M  V30 4036 H 401.192 -3.67653 -4.82614 0
M  V30 4037 H 399.931 -2.64002 -4.10066 0
M  V30 4038 H 398.936 -4.63827 -2.95202 0
M  V30 4039 H 400.161 -5.68863 -3.70906 0
M  V30 4040 H 398.107 -4.00652 -5.19436 0
M  V30 4041 H 398.024 -5.71945 -4.94384 0
M  V30 4042 H 399.292 -5.0574 -5.93167 0
M  V30 4043 N 403.521 0.559213 -1.47345 0
M  V30 4044 C 404.767 1.31843 -1.54095 0
M  V30 4045 C 405.1 1.93149 -0.201726 0
M  V30 4046 O 404.375 1.77759 0.789428 0
M  V30 4047 C 404.658 2.43006 -2.65744 0
M  V30 4048 C 404.511 1.86581 -4.09277 0
M  V30 4049 C 405.83 3.44943 -2.73318 0
M  V30 4050 H 402.949 0.478012 -0.560957 0
M  V30 4051 H 405.591 0.625977 -1.79392 0
M  V30 4052 H 403.741 3.02072 -2.44305 0
M  V30 4053 H 405.413 1.31792 -4.42073 0
M  V30 4054 H 403.656 1.17268 -4.17649 0
M  V30 4055 H 404.327 2.66933 -4.83168 0
M  V30 4056 H 406.803 2.95793 -2.92653 0
M  V30 4057 H 405.679 4.20153 -3.53218 0
M  V30 4058 H 405.94 4.03665 -1.80296 0
M  V30 4059 N 404.999 1.35443 0.805782 0
M  V30 4060 C 405.932 1.22783 1.92353 0
M  V30 4061 C 406.91 0.115543 1.62189 0
M  V30 4062 O 408.094 0.283778 1.86352 0
M  V30 4063 C 405.221 0.890746 3.26777 0
M  V30 4064 C 404.267 2.01519 3.75889 0
M  V30 4065 S 405.1 3.63101 3.93596 0
M  V30 4066 C 406.256 3.31472 5.30921 0
M  V30 4067 H 406.489 2.17394 2.02798 0
M  V30 4068 H 404.022 1.20669 0.963245 0
M  V30 4069 H 405.98 0.703068 4.04434 0
M  V30 4070 H 404.641 -0.0373152 3.14078 0
M  V30 4071 H 403.834 1.7335 4.7325 0
M  V30 4072 H 403.436 2.16124 3.05231 0
M  V30 4073 H 405.728 2.8435 6.1494 0
M  V30 4074 H 406.671 4.28036 5.64084 0
M  V30 4075 H 407.079 2.67221 4.97246 0
M  V30 4076 N 406.477 -1.02803 1.19454 0
M  V30 4077 C 407.893 -1.28473 0.946937 0
M  V30 4078 C 408.093 -1.97881 -0.380202 0
M  V30 4079 O 407.149 -2.26719 -1.11151 0
M  V30 4080 C 408.462 -2.13099 2.12154 0
M  V30 4081 C 410.01 -2.26404 2.16126 0
M  V30 4082 C 410.485 -3.14402 3.33039 0
M  V30 4083 N 411.976 -3.21991 3.32981 0
M  V30 4084 C 412.711 -3.90272 4.20089 0
M  V30 4085 N 412.207 -4.60777 5.17355 0
M  V30 4086 N 414 -3.8668 4.07964 0
M  V30 4087 H 406.151 -0.561665 2.04839 0
M  V30 4088 H 408.414 -0.310438 0.89573 0
M  V30 4089 H 408.12 -1.69422 3.08203 0
M  V30 4090 H 407.994 -3.13813 2.09287 0
M  V30 4091 H 410.381 -2.69311 1.20647 0
M  V30 4092 H 410.462 -1.25237 2.23045 0
M  V30 4093 H 410.106 -2.72204 4.28798 0
M  V30 4094 H 410.036 -4.1563 3.23356 0
M  V30 4095 H 412.527 -2.71778 2.62574 0
M  V30 4096 H 412.84 -5.10513 5.80169 0
M  V30 4097 H 411.185 -4.5964 5.21302 0
M  V30 4098 H 414.376 -3.30739 3.31254 0
M  V30 4099 H 414.549 -4.39621 4.76064 0
M  V30 4100 N 407.956 -0.998596 -1.21925 0
M  V30 4101 C 408.919 -0.558679 -2.22287 0
M  V30 4102 C 409.919 0.361525 -1.56683 0
M  V30 4103 O 411.109 0.152695 -1.73529 0
M  V30 4104 C 408.241 0.18661 -3.40389 0
M  V30 4105 H 409.434 -1.4463 -2.62721 0
M  V30 4106 H 406.987 -0.786413 -1.35075 0
M  V30 4107 H 407.722 1.08996 -3.05435 0
M  V30 4108 H 407.507 -0.474188 -3.89222 0
M  V30 4109 H 408.997 0.482367 -4.14805 0
M  V30 4110 N 409.434 1.37368 -0.772513 0
M  V30 4111 C 410.397 2.28601 -0.165541 0
M  V30 4112 C 411.397 1.48062 0.627238 0
M  V30 4113 O 412.587 1.68268 0.450715 0
M  V30 4114 C 409.719 3.32023 0.772897 0
M  V30 4115 H 410.912 2.83787 -0.969787 0
M  V30 4116 H 408.465 1.46647 -0.540775 0
M  V30 4117 H 409.2 2.81962 1.60212 0
M  V30 4118 H 408.985 3.91555 0.206585 0
M  V30 4119 H 410.475 4.00197 1.19298 0
M  V30 4120 N 410.912 0.523116 1.48665 0
M  V30 4121 C 411.842 -0.23231 2.32342 0
M  V30 4122 C 412.823 -0.941637 1.41659 0
M  V30 4123 O 414.008 -0.928751 1.70552 0
M  V30 4124 C 411.138 -1.28387 3.22698 0
M  V30 4125 C 410.092 -0.693098 4.22351 0
M  V30 4126 C 409.418 -1.8468 5.01794 0
M  V30 4127 C 410.718 0.33063 5.21252 0
M  V30 4128 H 412.412 0.466192 2.95748 0
M  V30 4129 H 409.958 0.225643 1.42221 0
M  V30 4130 H 411.911 -1.82024 3.80059 0
M  V30 4131 H 410.635 -2.01186 2.57278 0
M  V30 4132 H 409.294 -0.178299 3.66166 0
M  V30 4133 H 408.942 -2.56301 4.32804 0
M  V30 4134 H 408.642 -1.45747 5.69238 0
M  V30 4135 H 410.166 -2.38709 5.62006 0
M  V30 4136 H 411.58 -0.118407 5.73178 0
M  V30 4137 H 409.977 0.636974 5.9671 0
M  V30 4138 H 411.047 1.23883 4.68808 0
M  V30 4139 N 412.39 -1.55475 0.257931 0
M  V30 4140 C 413.3 -2.2549 -0.647425 0
M  V30 4141 C 414.316 -1.2748 -1.18427 0
M  V30 4142 O 415.492 -1.6038 -1.2182 0
M  V30 4143 C 412.557 -2.94916 -1.82278 0
M  V30 4144 C 411.618 -4.08363 -1.32432 0
M  V30 4145 C 410.851 -4.74469 -2.44366 0
M  V30 4146 O 411.074 -4.39701 -3.63344 0
M  V30 4147 O 410.008 -5.62763 -2.13497 0
M  V30 4148 H 413.834 -3.03593 -0.0807707 0
M  V30 4149 H 411.419 -1.49377 0.0259962 0
M  V30 4150 H 413.301 -3.38606 -2.50846 0
M  V30 4151 H 411.976 -2.19744 -2.37685 0
M  V30 4152 H 410.883 -3.69166 -0.605605 0
M  V30 4153 H 412.216 -4.85385 -0.816211 0
M  V30 4154 N 413.868 0.0150385 -1.57593 0
M  V30 4155 C 414.831 0.995996 -2.06428 0
M  V30 4156 C 415.831 1.2818 -0.970903 0
M  V30 4157 O 417.021 1.22949 -1.23406 0
M  V30 4158 C 414.153 2.32506 -2.49307 0
M  V30 4159 H 415.346 0.573873 -2.94358 0
M  V30 4160 H 412.899 0.262186 -1.54085 0
M  V30 4161 H 413.634 2.79438 -1.64575 0
M  V30 4162 H 413.419 2.13087 -3.29145 0
M  V30 4163 H 414.909 3.02906 -2.87468 0
M  V30 4164 N 415.346 1.54954 0.287554 0
M  V30 4165 C 416.586 1.76617 1.02887 0
M  V30 4166 C 416.95 0.547759 1.84021 0
M  V30 4167 O 418.151 0.642365 2.61012 0
M  V30 4168 C 416.422 3.02717 1.89993 0
M  V30 4169 S 417.981 3.45438 2.70588 0
M  V30 4170 H 414.799 0.6207 0.346775 0
M  V30 4171 H 417.401 1.93172 0.30082 0
M  V30 4172 H 416.105 3.89503 1.29287 0
M  V30 4173 H 415.636 2.88787 2.67144 0
M  V30 4174 H 417.651 3.03566 3.92508 0
M  V30 4175 N 416.824 -0.551391 1.4764 0
M  V30 4176 C 417.774 -1.65362 1.56969 0
M  V30 4177 C 418.758 -1.55098 0.428189 0
M  V30 4178 O 419.95 -1.63481 0.678441 0
M  V30 4179 C 417.079 -3.04129 1.59249 0
M  V30 4180 C 416.165 -3.19576 2.78804 0
M  V30 4181 N 416.556 -3.05067 4.03445 0
M  V30 4182 C 414.854 -3.50588 2.75688 0
M  V30 4183 C 415.555 -3.2336 4.83543 0
M  V30 4184 N 414.531 -3.4996 4.15968 0
M  V30 4185 H 418.333 -1.52722 2.51104 0
M  V30 4186 H 415.847 -0.756303 1.43714 0
M  V30 4187 H 417.844 -3.83278 1.64024 0
M  V30 4188 H 416.504 -3.17877 0.662148 0
M  V30 4189 H 417.515 -2.82273 4.34215 0
M  V30 4190 H 414.192 -3.70827 1.91817 0
M  V30 4191 H 415.582 -3.17061 5.92387 0
M  V30 4192 N 418.302 -1.35869 -0.798587 0
M  V30 4193 C 419.249 -1.29446 -1.91082 0
M  V30 4194 C 420.219 -0.16487 -1.6528 0
M  V30 4195 O 421.404 -0.349888 -1.87564 0
M  V30 4196 C 418.544 -1.0804 -3.27752 0
M  V30 4197 C 417.657 -2.29993 -3.65687 0
M  V30 4198 C 416.792 -2.01673 -4.91428 0
M  V30 4199 C 415.831 -3.19636 -5.22015 0
M  V30 4200 N 414.968 -2.91039 -6.38937 0
M  V30 4201 H 419.808 -2.24553 -1.95907 0
M  V30 4202 H 417.345 -1.11615 -0.958148 0
M  V30 4203 H 419.303 -0.936586 -4.06551 0
M  V30 4204 H 417.933 -0.16592 -3.22373 0
M  V30 4205 H 416.985 -2.55211 -2.82085 0
M  V30 4206 H 418.297 -3.18052 -3.84245 0
M  V30 4207 H 417.451 -1.84168 -5.78072 0
M  V30 4208 H 416.19 -1.10911 -4.74921 0
M  V30 4209 H 415.195 -3.37709 -4.33858 0
M  V30 4210 H 416.42 -4.11211 -5.40447 0
M  V30 4211 H 414.366 -2.0288 -6.2384 0
M  V30 4212 H 414.283 -3.72635 -6.57784 0
M  V30 4213 H 415.551 -2.77093 -7.28587 0
M  V30 4214 N 419.78 1.02168 -1.19998 0
M  V30 4215 C 421.028 1.75338 -1.00504 0
M  V30 4216 C 421.349 1.89387 0.464506 0
M  V30 4217 O 420.619 1.43268 1.33608 0
M  V30 4218 H 419.199 0.649564 -0.368885 0
M  V30 4219 H 421.861 1.23205 -1.51018 0
M  V30 4220 H 420.957 2.75892 -1.45912 0
M  V30 4221 N 421.258 1.00505 1.21394 0
M  V30 4222 C 422.504 0.698477 1.91031 0
M  V30 4223 C 422.859 -0.762448 1.76648 0
M  V30 4224 O 422.152 -1.54554 1.13241 0
M  V30 4225 C 422.346 1.0546 3.41486 0
M  V30 4226 C 422.175 2.5486 3.70508 0
M  V30 4227 C 420.945 3.21461 3.8986 0
M  V30 4228 C 423.143 3.53019 3.74008 0
M  V30 4229 N 421.125 4.60211 4.06299 0
M  V30 4230 C 422.496 4.77279 3.95733 0
M  V30 4231 C 424.551 3.47154 3.56915 0
M  V30 4232 C 423.254 5.96388 4.02137 0
M  V30 4233 C 425.28 4.65652 3.64585 0
M  V30 4234 C 424.642 5.88717 3.86771 0
M  V30 4235 H 420.741 0.30707 0.719189 0
M  V30 4236 H 423.325 1.28753 1.46051 0
M  V30 4237 H 421.496 0.494007 3.85246 0
M  V30 4238 H 423.228 0.702765 3.98552 0
M  V30 4239 H 419.983 2.71906 3.87768 0
M  V30 4240 H 420.407 5.32216 4.1842 0
M  V30 4241 H 425.049 2.53015 3.38738 0
M  V30 4242 H 422.767 6.90919 4.19114 0
M  V30 4243 H 426.353 4.62717 3.52681 0
M  V30 4244 H 425.233 6.78877 3.92549 0
M  V30 4245 N 422.737 -1.36956 0.779787 0
M  V30 4246 C 423.985 -1.99097 0.347079 0
M  V30 4247 C 424.306 -1.62206 -1.08232 0
M  V30 4248 O 423.576 -0.891373 -1.74446 0
M  V30 4249 H 422.156 -0.736409 0.125342 0
M  V30 4250 H 424.818 -1.67308 0.999696 0
M  V30 4251 H 423.914 -3.09107 0.431162 0
M  V30 4252 N 424.215 -0.530993 -1.48385 0
M  V30 4253 C 425.461 0.00274135 -2.028 0
M  V30 4254 C 425.794 1.33838 -1.40716 0
M  V30 4255 O 425.069 1.86465 -0.553277 0
M  V30 4256 C 425.352 0.123676 -3.59888 0
M  V30 4257 C 425.205 -1.2372 -4.3245 0
M  V30 4258 C 426.524 0.849967 -4.31814 0
M  V30 4259 H 423.643 -0.000477758 -0.737 0
M  V30 4260 H 426.285 -0.688217 -1.77098 0
M  V30 4261 H 424.435 0.712157 -3.81917 0
M  V30 4262 H 426.107 -1.86687 -4.21836 0
M  V30 4263 H 424.35 -1.81882 -3.93829 0
M  V30 4264 H 425.021 -1.10557 -5.40815 0
M  V30 4265 H 427.497 0.350572 -4.14621 0
M  V30 4266 H 426.373 0.903486 -5.41413 0
M  V30 4267 H 426.634 1.90047 -3.99167 0
M  V30 4268 N 425.693 1.55336 -0.266172 0
M  V30 4269 C 426.918 2.04258 0.359661 0
M  V30 4270 C 427.343 1.14359 1.49344 0
M  V30 4271 O 426.701 0.140369 1.80756 0
M  V30 4272 C 426.749 3.50997 0.826635 0
M  V30 4273 O 425.853 3.64204 1.93466 0
M  V30 4274 H 425.194 0.659668 0.075727 0
M  V30 4275 H 427.724 2.00694 -0.39786 0
M  V30 4276 H 427.734 3.9219 1.12477 0
M  V30 4277 H 426.409 4.159 -0.00293032 0
M  V30 4278 H 424.986 3.34913 1.63974 0
M  V30 4279 N 427.171 -0.0066808 1.57599 0
M  V30 4280 C 428.417 -0.693947 1.90558 0
M  V30 4281 C 428.75 -1.73792 0.866594 0
M  V30 4282 O 428.025 -1.94156 -0.115548 0
M  V30 4283 C 428.308 -1.34317 3.34112 0
M  V30 4284 C 428.161 -0.311189 4.48722 0
M  V30 4285 C 429.48 -2.27116 3.7697 0
M  V30 4286 H 426.599 -0.250803 0.693013 0
M  V30 4287 H 429.241 0.043242 1.89951 0
M  V30 4288 H 427.391 -1.9715 3.3476 0
M  V30 4289 H 429.063 0.316944 4.6021 0
M  V30 4290 H 427.306 0.367253 4.32243 0
M  V30 4291 H 427.977 -0.804366 5.46108 0
M  V30 4292 H 430.453 -1.74306 3.77831 0
M  V30 4293 H 429.329 -2.69511 4.78179 0
M  V30 4294 H 429.59 -3.14743 3.10466 0
M  V30 4295 N 428.649 -1.55105 -0.279332 0
M  V30 4296 C 429.895 -1.75672 -1.01327 0
M  V30 4297 C 430.228 -0.552739 -1.86168 0
M  V30 4298 O 429.503 0.449827 -1.89227 0
M  V30 4299 C 429.786 -3.05825 -1.90114 0
M  V30 4300 C 429.639 -4.36565 -1.08309 0
M  V30 4301 C 430.958 -3.31975 -2.8893 0
M  V30 4302 H 428.077 -0.639149 -0.366957 0
M  V30 4303 H 430.719 -1.87833 -0.286154 0
M  V30 4304 H 428.869 -2.95588 -2.52111 0
M  V30 4305 H 430.541 -4.58751 -0.484314 0
M  V30 4306 H 428.784 -4.32076 -0.386362 0
M  V30 4307 H 429.455 -5.23946 -1.73737 0
M  V30 4308 H 431.931 -3.41963 -2.37067 0
M  V30 4309 H 430.807 -4.2432 -3.48201 0
M  V30 4310 H 431.068 -2.51309 -3.63725 0
M  V30 4311 N 430.127 0.543554 -1.4793 0
M  V30 4312 C 431.373 1.30201 -1.55485 0
M  V30 4313 C 431.706 1.92925 -0.222201 0
M  V30 4314 O 430.981 1.78586 0.77053 0
M  V30 4315 C 431.264 2.40174 -2.68307 0
M  V30 4316 C 431.117 1.8223 -4.11233 0
M  V30 4317 C 432.436 3.42024 -2.76961 0
M  V30 4318 H 429.555 0.472036 -0.565996 0
M  V30 4319 H 432.197 0.606914 -1.80046 0
M  V30 4320 H 430.347 2.99463 -2.47495 0
M  V30 4321 H 432.019 1.27096 -4.43446 0
M  V30 4322 H 430.262 1.12832 -4.18869 0
M  V30 4323 H 430.933 2.61793 -4.85972 0
M  V30 4324 H 433.409 2.92672 -2.95774 0
M  V30 4325 H 432.285 4.16383 -3.57654 0
M  V30 4326 H 432.546 4.0173 -1.84568 0
M  V30 4327 N 431.605 1.3629 0.791371 0
M  V30 4328 C 432.853 1.30154 1.5461 0
M  V30 4329 C 433.174 -0.119409 1.94634 0
M  V30 4330 O 432.444 -1.05924 1.64794 0
M  V30 4331 H 431.024 0.478784 0.573389 0
M  V30 4332 H 433.686 1.70565 0.94306 0
M  V30 4333 H 432.782 1.92762 2.45457 0
M  V30 4334 N 433.083 -1.0153 1.20538 0
M  V30 4335 C 434.329 -1.75408 1.01783 0
M  V30 4336 C 434.662 -1.88943 -0.448814 0
M  V30 4337 O 433.937 -1.4162 -1.33319 0
M  V30 4338 C 434.22 -3.17255 1.70356 0
M  V30 4339 C 434.073 -3.11508 3.24473 0
M  V30 4340 C 435.392 -4.15955 1.43769 0
M  V30 4341 H 432.511 -0.636713 0.371167 0
M  V30 4342 H 435.153 -1.18436 1.4857 0
M  V30 4343 H 433.303 -3.65898 1.30578 0
M  V30 4344 H 434.975 -2.70658 3.73553 0
M  V30 4345 H 433.218 -2.4887 3.55311 0
M  V30 4346 H 433.889 -4.11784 3.67611 0
M  V30 4347 H 436.365 -3.75973 1.7828 0
M  V30 4348 H 435.241 -5.13368 1.94279 0
M  V30 4349 H 435.502 -4.40586 0.365564 0
M  V30 4350 N 434.561 -1.01147 -1.20859 0
M  V30 4351 C 435.524 -0.582224 -2.21682 0
M  V30 4352 C 436.524 0.344887 -1.57058 0
M  V30 4353 O 437.714 0.134281 -1.73682 0
M  V30 4354 C 434.846 0.150496 -3.40568 0
M  V30 4355 H 436.039 -1.47408 -2.61172 0
M  V30 4356 H 433.592 -0.800695 -1.34233 0
M  V30 4357 H 434.327 1.0575 -3.06574 0
M  V30 4358 H 434.112 -0.515444 -3.88697 0
M  V30 4359 H 435.602 0.438344 -4.15293 0
M  V30 4360 N 436.039 1.36541 -0.78704 0
M  V30 4361 C 437.002 2.28413 -0.189778 0
M  V30 4362 C 438.002 1.48719 0.611499 0
M  V30 4363 O 439.192 1.68737 0.432842 0
M  V30 4364 C 436.324 3.32824 0.737638 0
M  V30 4365 H 437.517 2.82743 -0.999831 0
M  V30 4366 H 435.07 1.46065 -0.556298 0
M  V30 4367 H 435.805 2.83646 1.57212 0
M  V30 4368 H 435.59 3.91752 0.165044 0
M  V30 4369 H 437.08 4.0144 1.15047 0
M  V30 4370 N 437.518 0.538854 1.48102 0
M  V30 4371 C 438.743 0.0102694 2.07397 0
M  V30 4372 C 439.168 -1.26562 1.39153 0
M  V30 4373 O 438.526 -1.75357 0.460387 0
M  V30 4374 C 438.574 -0.187602 3.60112 0
M  V30 4375 O 437.678 -1.25432 3.92862 0
M  V30 4376 H 437.019 0.0430975 0.6626 0
M  V30 4377 H 439.549 0.749301 1.90385 0
M  V30 4378 H 439.559 -0.407517 4.0596 0
M  V30 4379 H 438.234 0.744386 4.09184 0
M  V30 4380 H 436.811 -1.01636 3.58782 0
M  V30 4381 N 438.996 -1.55193 0.274407 0
M  V30 4382 C 440.244 -1.99187 -0.341902 0
M  V30 4383 C 440.565 -1.16422 -1.56431 0
M  V30 4384 O 439.835 -0.253573 -1.94252 0
M  V30 4385 H 438.415 -0.735721 -0.129317 0
M  V30 4386 H 441.077 -1.91168 0.379578 0
M  V30 4387 H 440.173 -3.05629 -0.632253 0
M  V30 4388 N 440.474 -0.00167713 -1.576 0
M  V30 4389 C 441.384 1.00548 -2.1196 0
M  V30 4390 C 442.4 1.3758 -1.06526 0
M  V30 4391 O 443.576 1.46278 -1.38436 0
M  V30 4392 C 440.641 2.27809 -2.6135 0
M  V30 4393 C 439.702 1.97074 -3.81393 0
M  V30 4394 C 438.935 3.18267 -4.28417 0
M  V30 4395 O 439.158 4.30009 -3.74765 0
M  V30 4396 O 438.092 3.02167 -5.20556 0
M  V30 4397 H 441.918 0.573373 -2.98238 0
M  V30 4398 H 439.503 0.217255 -1.47812 0
M  V30 4399 H 441.385 3.02568 -2.93309 0
M  V30 4400 H 440.06 2.70254 -1.78169 0
M  V30 4401 H 438.967 1.19785 -3.54404 0
M  V30 4402 H 440.3 1.59464 -4.65652 0
M  V30 4403 N 441.952 1.55251 0.271103 0
M  V30 4404 C 442.862 1.9136 1.35714 0
M  V30 4405 C 443.878 0.811075 1.5394 0
M  V30 4406 O 445.054 1.11031 1.6803 0
M  V30 4407 C 442.119 2.1798 2.69603 0
M  V30 4408 C 441.18 3.4153 2.60107 0
M  V30 4409 C 440.413 3.66871 3.8761 0
M  V30 4410 O 440.636 2.94689 4.8838 0
M  V30 4411 O 439.57 4.60405 3.87699 0
M  V30 4412 H 443.396 2.83815 1.08088 0
M  V30 4413 H 440.981 1.41821 0.469792 0
M  V30 4414 H 442.863 2.36518 3.48765 0
M  V30 4415 H 441.538 1.28708 2.97012 0
M  V30 4416 H 440.445 3.28325 1.79314 0
M  V30 4417 H 441.778 4.31027 2.37647 0
M  V30 4418 N 443.43 -0.535701 1.48216 0
M  V30 4419 C 444.679 -1.28828 1.55197 0
M  V30 4420 C 444.992 -1.94263 0.228278 0
M  V30 4421 O 446.198 -2.70927 0.176278 0
M  V30 4422 C 444.654 -2.33727 2.73678 0
M  V30 4423 C 444.262 -1.74386 4.12666 0
M  V30 4424 C 446.006 -3.1003 2.89968 0
M  V30 4425 C 443.913 -2.77192 5.22416 0
M  V30 4426 H 442.843 -0.484484 0.577747 0
M  V30 4427 H 445.494 -0.56646 1.74538 0
M  V30 4428 H 443.876 -3.08919 2.4776 0
M  V30 4429 H 445.05 -1.05421 4.48579 0
M  V30 4430 H 443.365 -1.10595 4.01445 0
M  V30 4431 H 445.962 -3.86842 3.6913 0
M  V30 4432 H 446.305 -3.65542 1.9921 0
M  V30 4433 H 446.838 -2.41952 3.15759 0
M  V30 4434 H 443.577 -2.26507 6.15122 0
M  V30 4435 H 443.097 -3.44502 4.90998 0
M  V30 4436 H 444.776 -3.40285 5.50286 0
M  V30 4437 N 444.908 -1.36708 -0.784132 0
M  V30 4438 C 445.871 -1.31307 -1.87859 0
M  V30 4439 C 446.871 -0.219654 -1.59293 0
M  V30 4440 O 448.061 -0.47476 -1.67606 0
M  V30 4441 C 445.193 -1.03679 -3.24751 0
M  V30 4442 H 446.386 -2.28647 -1.94064 0
M  V30 4443 H 443.939 -1.21558 -0.98252 0
M  V30 4444 H 444.674 -0.0681936 -3.24228 0
M  V30 4445 H 444.459 -1.82811 -3.46876 0
M  V30 4446 H 445.949 -1.02518 -4.04821 0
M  V30 4447 N 446.386 1.0089 -1.21074 0
M  V30 4448 C 447.614 1.78191 -1.05145 0
M  V30 4449 C 448.029 1.84537 0.398952 0
M  V30 4450 O 447.386 1.30393 1.27687 0
M  V30 4451 C 447.437 3.22288 -1.63746 0
M  V30 4452 O 447.158 3.16315 -3.03111 0
M  V30 4453 C 448.659 4.16106 -1.52875 0
M  V30 4454 H 445.879 0.560129 -0.369454 0
M  V30 4455 H 448.423 1.26945 -1.60328 0
M  V30 4456 H 446.578 3.70655 -1.12664 0
M  V30 4457 H 446.992 4.06817 -3.31059 0
M  V30 4458 H 448.466 5.15026 -1.98626 0
M  V30 4459 H 448.943 4.36541 -0.482521 0
M  V30 4460 H 449.549 3.73625 -2.03185 0
M  V30 4461 N 447.864 1.01787 1.20321 0
M  V30 4462 C 449.28 0.732951 1.41774 0
M  V30 4463 C 449.48 -0.686883 1.89431 0
M  V30 4464 O 448.536 -1.45446 2.06402 0
M  V30 4465 C 449.849 1.75973 2.43832 0
M  V30 4466 C 451.397 1.77802 2.57596 0
M  V30 4467 C 451.872 2.7941 3.62897 0
M  V30 4468 N 453.363 2.78157 3.70382 0
M  V30 4469 C 454.098 3.53434 4.51521 0
M  V30 4470 N 453.594 4.38392 5.36455 0
M  V30 4471 N 455.387 3.42026 4.46066 0
M  V30 4472 H 447.538 1.93447 0.877035 0
M  V30 4473 H 449.801 0.835712 0.447536 0
M  V30 4474 H 449.507 2.77699 2.15815 0
M  V30 4475 H 449.381 1.57292 3.4284 0
M  V30 4476 H 451.768 0.767602 2.84942 0
M  V30 4477 H 451.849 2.00557 1.58779 0
M  V30 4478 H 451.493 3.80616 3.36295 0
M  V30 4479 H 451.423 2.53916 4.61339 0
M  V30 4480 H 453.914 2.16531 3.09714 0
M  V30 4481 H 454.227 4.92596 5.95457 0
M  V30 4482 H 452.572 4.4247 5.35953 0
M  V30 4483 H 455.763 2.75075 3.78749 0
M  V30 4484 H 455.936 4.00946 5.09064 0
M  V30 4485 N 449.342 -1.36122 0.79427 0
M  V30 4486 C 450.753 -1.81646 0.431446 0
M  V30 4487 C 451.104 -1.66043 -1.04518 0
M  V30 4488 O 450.229 -1.1841 -1.8113 0
M  V30 4489 C 450.824 -3.29785 0.776341 0
M  V30 4490 C 449.383 -3.73501 0.466282 0
M  V30 4491 C 448.53 -2.58313 1.00844 0
M  V30 4492 H 451.481 -1.24274 0.986995 0
M  V30 4493 H 451.502 -3.80437 0.0692413 0
M  V30 4494 H 451.014 -3.4111 1.8511 0
M  V30 4495 H 449.115 -3.67733 -0.600245 0
M  V30 4496 H 449.228 -4.68754 0.990288 0
M  V30 4497 H 447.592 -2.5102 0.431406 0
M  V30 4498 H 448.375 -2.72421 2.08906 0
M  V30 4499 N 450.82 -0.546701 -1.47814 0
M  V30 4500 C 452.067 -0.0187407 -2.02491 0
M  V30 4501 C 452.395 1.32685 -1.42215 0
M  V30 4502 O 451.65 1.87413 -0.563454 0
M  V30 4503 C 451.949 0.134869 -3.57145 0
M  V30 4504 C 451.615 -1.13849 -4.3629 0
M  V30 4505 C 450.277 -1.48743 -4.57634 0
M  V30 4506 C 452.629 -1.98277 -4.82012 0
M  V30 4507 C 449.957 -2.67932 -5.21948 0
M  V30 4508 C 452.309 -3.16659 -5.4764 0
M  V30 4509 C 450.973 -3.51879 -5.67219 0
M  V30 4510 H 450.243 -0.0068577 -0.740968 0
M  V30 4511 H 452.89 -0.716097 -1.77607 0
M  V30 4512 H 451.195 0.915118 -3.80963 0
M  V30 4513 H 452.892 0.558556 -3.97091 0
M  V30 4514 H 449.482 -0.856767 -4.19949 0
M  V30 4515 H 453.666 -1.72628 -4.6531 0
M  V30 4516 H 448.922 -2.95401 -5.35302 0
M  V30 4517 H 453.096 -3.82374 -5.82033 0
M  V30 4518 H 450.723 -4.44331 -6.16825 0
M  V30 4519 N 452.299 1.55045 -0.282633 0
M  V30 4520 C 453.231 2.2023 0.634924 0
M  V30 4521 C 454.244 1.18931 1.11172 0
M  V30 4522 O 455.433 1.4562 1.03233 0
M  V30 4523 C 452.533 2.82041 1.87899 0
M  V30 4524 C 451.706 4.091 1.54776 0
M  V30 4525 C 450.765 4.54887 2.64507 0
M  V30 4526 O 449.791 5.20496 2.30375 0
M  V30 4527 N 450.993 4.25659 3.94709 0
M  V30 4528 H 453.758 2.99601 0.0769811 0
M  V30 4529 H 451.319 1.61565 -0.104048 0
M  V30 4530 H 453.311 3.09613 2.60619 0
M  V30 4531 H 451.881 2.06618 2.3458 0
M  V30 4532 H 451.101 3.88736 0.654049 0
M  V30 4533 H 452.389 4.9187 1.30158 0
M  V30 4534 H 451.787 3.7306 4.25256 0
M  V30 4535 H 450.344 4.57984 4.63782 0
M  V30 4536 N 453.777 0.010035 1.57597 0
M  V30 4537 C 454.707 -0.976857 2.12084 0
M  V30 4538 C 455.688 -1.35191 1.03235 0
M  V30 4539 O 456.873 -1.43389 1.3097 0
M  V30 4540 C 454.003 -2.26548 2.63236 0
M  V30 4541 C 452.957 -2.03175 3.76701 0
M  V30 4542 C 452.283 -3.38138 4.14206 0
M  V30 4543 C 453.583 -1.38625 5.03568 0
M  V30 4544 H 455.277 -0.523145 2.94794 0
M  V30 4545 H 452.823 -0.250195 1.4181 0
M  V30 4546 H 454.776 -2.95952 2.99984 0
M  V30 4547 H 453.5 -2.74051 1.77661 0
M  V30 4548 H 452.159 -1.36195 3.40362 0
M  V30 4549 H 451.807 -3.83363 3.25641 0
M  V30 4550 H 451.507 -3.23312 4.90656 0
M  V30 4551 H 453.031 -4.08841 4.53521 0
M  V30 4552 H 454.445 -1.98 5.38023 0
M  V30 4553 H 452.842 -1.34256 5.84889 0
M  V30 4554 H 453.912 -0.356722 4.83586 0
M  V30 4555 N 455.255 -1.55392 -0.262866 0
M  V30 4556 C 456.501 -1.76737 -0.99458 0
M  V30 4557 C 456.834 -0.572453 -1.85571 0
M  V30 4558 O 456.109 0.429732 -1.89693 0
M  V30 4559 C 456.392 -3.07824 -1.8686 0
M  V30 4560 C 456.245 -4.3769 -1.03672 0
M  V30 4561 C 457.564 -3.35021 -2.85393 0
M  V30 4562 H 454.683 -0.643005 -0.360157 0
M  V30 4563 H 457.325 -1.88126 -0.266216 0
M  V30 4564 H 455.475 -2.98245 -2.48962 0
M  V30 4565 H 457.147 -4.59238 -0.43563 0
M  V30 4566 H 455.39 -4.32461 -0.340513 0
M  V30 4567 H 456.061 -5.25759 -1.6817 0
M  V30 4568 H 458.537 -3.44458 -2.33426 0
M  V30 4569 H 457.413 -4.27989 -3.43681 0
M  V30 4570 H 457.674 -2.55153 -3.61039 0
M  V30 4571 N 456.733 0.527833 -1.48498 0
M  V30 4572 C 457.961 1.30823 -1.6029 0
M  V30 4573 C 458.376 1.86945 -0.263974 0
M  V30 4574 O 457.733 1.6651 0.747034 0
M  V30 4575 C 457.784 2.45756 -2.65116 0
M  V30 4576 O 457.505 1.91946 -3.93813 0
M  V30 4577 C 459.006 3.37543 -2.87367 0
M  V30 4578 H 456.226 0.397763 -0.540394 0
M  V30 4579 H 458.77 0.636529 -1.94341 0
M  V30 4580 H 456.925 3.08806 -2.33917 0
M  V30 4581 H 457.339 2.67195 -4.51339 0
M  V30 4582 H 458.813 4.14532 -3.6451 0
M  V30 4583 H 459.29 3.92905 -1.9627 0
M  V30 4584 H 459.896 2.80283 -3.19878 0
M  V30 4585 N 458.211 1.37122 0.776871 0
M  V30 4586 C 459.459 1.31787 1.53221 0
M  V30 4587 C 459.78 -0.0987589 1.9475 0
M  V30 4588 O 459.05 -1.0417 1.65908 0
M  V30 4589 H 457.63 0.484839 0.568278 0
M  V30 4590 H 460.292 1.71556 0.924917 0
M  V30 4591 H 459.388 1.95355 2.43398 0
M  V30 4592 N 459.689 -1.00246 1.21608 0
M  V30 4593 C 461.105 -1.26435 0.973975 0
M  V30 4594 C 461.305 -1.98642 -0.338143 0
M  V30 4595 O 460.361 -2.29026 -1.06317 0
M  V30 4596 C 461.674 -2.08551 2.16626 0
M  V30 4597 C 463.222 -2.21769 2.20879 0
M  V30 4598 C 463.697 -3.07267 3.39633 0
M  V30 4599 N 465.188 -3.14855 3.39736 0
M  V30 4600 C 465.923 -3.81274 4.28273 0
M  V30 4601 N 465.419 -4.497 5.27012 0
M  V30 4602 N 467.212 -3.7794 4.16074 0
M  V30 4603 H 459.363 -0.518089 2.05984 0
M  V30 4604 H 461.626 -0.291368 0.902113 0
M  V30 4605 H 461.332 -1.62847 3.11727 0
M  V30 4606 H 461.206 -3.09303 2.15897 0
M  V30 4607 H 463.593 -2.66691 1.26332 0
M  V30 4608 H 463.674 -1.20478 2.25652 0
M  V30 4609 H 463.318 -2.63047 4.34475 0
M  V30 4610 H 463.248 -4.08678 3.321 0
M  V30 4611 H 465.739 -2.66147 2.6828 0
M  V30 4612 H 466.052 -4.98092 5.90867 0
M  V30 4613 H 464.397 -4.48479 5.30935 0
M  V30 4614 H 467.588 -3.23638 3.38195 0
M  V30 4615 H 467.761 -4.29424 4.85282 0
M  V30 4616 N 461.167 -1.02423 -1.1978 0
M  V30 4617 C 462.395 -0.737456 -1.93311 0
M  V30 4618 C 462.81 0.703023 -1.75223 0
M  V30 4619 O 462.167 1.47761 -1.07112 0
M  V30 4620 C 462.218 -1.0733 -3.45199 0
M  V30 4621 O 461.939 -2.4572 -3.62702 0
M  V30 4622 C 463.44 -0.80866 -4.35862 0
M  V30 4623 H 460.66 -0.2702 -0.614193 0
M  V30 4624 H 463.204 -1.36747 -1.52054 0
M  V30 4625 H 461.359 -0.488545 -3.84307 0
M  V30 4626 H 461.773 -2.58081 -4.56612 0
M  V30 4627 H 463.247 -1.09365 -5.41057 0
M  V30 4628 H 463.724 0.257025 -4.38447 0
M  V30 4629 H 464.33 -1.37592 -4.02428 0
M  V30 4630 N 462.645 1.35699 -0.801477 0
M  V30 4631 C 463.891 1.99643 -0.389135 0
M  V30 4632 C 464.246 1.62447 1.03095 0
M  V30 4633 O 463.539 0.875064 1.7045 0
M  V30 4634 C 463.733 3.53828 -0.504041 0
M  V30 4635 C 463.562 4.06 -1.93375 0
M  V30 4636 C 462.332 4.35592 -2.561 0
M  V30 4637 C 464.53 4.24905 -2.89759 0
M  V30 4638 N 462.512 4.73663 -3.90534 0
M  V30 4639 C 463.883 4.65914 -4.09052 0
M  V30 4640 C 465.938 4.07101 -2.86658 0
M  V30 4641 C 464.641 4.90984 -5.25669 0
M  V30 4642 C 466.667 4.33324 -4.02472 0
M  V30 4643 C 466.029 4.74601 -5.20512 0
M  V30 4644 H 462.128 0.758552 -0.19006 0
M  V30 4645 H 464.712 1.64493 -1.04164 0
M  V30 4646 H 462.883 3.88219 0.118437 0
M  V30 4647 H 464.615 4.04645 -0.0667794 0
M  V30 4648 H 461.37 4.25728 -2.07492 0
M  V30 4649 H 461.794 4.96965 -4.59734 0
M  V30 4650 H 466.436 3.74335 -1.96552 0
M  V30 4651 H 464.154 5.22626 -6.1635 0
M  V30 4652 H 467.74 4.21107 -4.01447 0
M  V30 4653 H 466.62 4.94497 -6.08639 0
M  V30 4654 N 464.123 0.554532 1.47522 0
M  V30 4655 C 465.07 -0.19466 2.29978 0
M  V30 4656 C 466.04 -0.910882 1.38896 0
M  V30 4657 O 467.225 -0.907102 1.67858 0
M  V30 4658 C 464.365 -1.22035 3.22802 0
M  V30 4659 C 463.478 -0.510474 4.28973 0
M  V30 4660 C 462.613 -1.52123 5.08952 0
M  V30 4661 C 461.652 -0.796173 6.069 0
M  V30 4662 N 460.789 -1.75363 6.79847 0
M  V30 4663 H 465.629 0.51461 2.93523 0
M  V30 4664 H 463.166 0.265607 1.44682 0
M  V30 4665 H 465.124 -1.8276 3.7504 0
M  V30 4666 H 463.754 -1.89769 2.61127 0
M  V30 4667 H 462.806 0.211234 3.79813 0
M  V30 4668 H 464.118 0.0576503 4.98767 0
M  V30 4669 H 463.272 -2.20207 5.65326 0
M  V30 4670 H 462.011 -2.12327 4.39054 0
M  V30 4671 H 461.016 -0.101388 5.49707 0
M  V30 4672 H 462.241 -0.199911 6.78806 0
M  V30 4673 H 460.187 -2.3443 6.12682 0
M  V30 4674 H 460.104 -1.23759 7.45801 0
M  V30 4675 H 461.372 -2.4257 7.40797 0
M  V30 4676 N 465.601 -1.54893 0.290851 0
M  V30 4677 C 466.849 -1.99538 -0.320756 0
M  V30 4678 C 467.17 -1.18075 -1.55188 0
M  V30 4679 O 466.44 -0.274162 -1.93972 0
M  V30 4680 H 465.02 -0.737052 -0.121507 0
M  V30 4681 H 467.682 -1.90755 0.399832 0
M  V30 4682 H 466.778 -3.06282 -0.599802 0
M  V30 4683 N 467.08 -0.0183926 -1.57589 0
M  V30 4684 C 468.308 0.673046 -1.95647 0
M  V30 4685 C 468.723 1.66275 -0.894312 0
M  V30 4686 O 468.08 1.82072 0.124975 0
M  V30 4687 C 468.131 1.38884 -3.33756 0
M  V30 4688 O 467.852 0.438806 -4.35897 0
M  V30 4689 C 469.353 2.1731 -3.86383 0
M  V30 4690 H 466.573 0.186292 -0.644621 0
M  V30 4691 H 469.117 -0.0749748 -2.04363 0
M  V30 4692 H 467.272 2.08835 -3.26293 0
M  V30 4693 H 467.686 0.945869 -5.15901 0
M  V30 4694 H 469.16 2.62863 -4.85394 0
M  V30 4695 H 469.637 3.00764 -3.20059 0
M  V30 4696 H 470.243 1.52339 -3.97081 0
M  V30 4697 N 468.558 1.5553 0.254621 0
M  V30 4698 C 469.521 1.88872 1.29846 0
M  V30 4699 C 470.521 0.764591 1.41459 0
M  V30 4700 O 471.711 1.03265 1.40293 0
M  V30 4701 C 468.843 2.11032 2.67728 0
M  V30 4702 H 470.036 2.82201 1.01502 0
M  V30 4703 H 467.589 1.48303 0.493556 0
M  V30 4704 H 468.324 1.20146 3.01223 0
M  V30 4705 H 468.109 2.92895 2.60682 0
M  V30 4706 H 469.599 2.38038 3.43115 0
M  V30 4707 N 470.036 -0.519951 1.48776 0
M  V30 4708 C 471.283 -1.27522 1.57303 0
M  V30 4709 C 471.611 -1.92869 0.251328 0
M  V30 4710 O 470.866 -1.80372 -0.759243 0
M  V30 4711 C 471.165 -2.37864 2.6675 0
M  V30 4712 C 470.831 -1.90103 4.08867 0
M  V30 4713 C 469.493 -1.76795 4.47546 0
M  V30 4714 C 471.845 -1.54133 4.97888 0
M  V30 4715 C 469.173 -1.25868 5.73039 0
M  V30 4716 C 471.525 -1.04665 6.23881 0
M  V30 4717 C 470.189 -0.899823 6.61407 0
M  V30 4718 H 469.459 -0.466636 0.575614 0
M  V30 4719 H 472.106 -0.579109 1.82534 0
M  V30 4720 H 470.411 -3.13186 2.35418 0
M  V30 4721 H 472.108 -2.95969 2.70561 0
M  V30 4722 H 468.698 -2.01414 3.78326 0
M  V30 4723 H 472.882 -1.6327 4.68675 0
M  V30 4724 H 468.138 -1.13196 6.0083 0
M  V30 4725 H 472.312 -0.759074 6.92251 0
M  V30 4726 H 469.939 -0.503011 7.58534 0
M  V30 4727 N 471.514 -1.37532 -0.769588 0
M  V30 4728 C 472.762 -1.32597 -1.5252 0
M  V30 4729 C 473.083 0.0884294 -1.94799 0
M  V30 4730 O 472.353 1.03289 -1.66458 0
M  V30 4731 H 470.933 -0.487846 -0.565699 0
M  V30 4732 H 473.595 -1.72044 -0.915806 0
M  V30 4733 H 472.691 -1.96643 -2.42359 0
M  V30 4734 N 472.992 0.995999 -1.22138 0
M  V30 4735 C 474.24 1.73167 -1.042 0
M  V30 4736 C 474.561 1.90329 0.42423 0
M  V30 4737 O 473.831 1.4607 1.30539 0
M  V30 4738 H 472.411 0.641593 -0.38258 0
M  V30 4739 H 475.073 1.19974 -1.53598 0
M  V30 4740 H 474.169 2.72734 -1.51731 0
M  V30 4741 N 474.47 1.03057 1.19235 0
M  V30 4742 C 475.716 0.738841 1.89506 0
M  V30 4743 C 476.071 -0.724807 1.78225 0
M  V30 4744 O 475.364 -1.52118 1.16494 0
M  V30 4745 C 475.558 1.1268 3.39172 0
M  V30 4746 C 475.387 2.62662 3.65019 0
M  V30 4747 C 474.157 3.29658 3.82954 0
M  V30 4748 C 476.355 3.60873 3.66436 0
M  V30 4749 N 474.337 4.68726 3.96446 0
M  V30 4750 C 475.708 4.85566 3.8552 0
M  V30 4751 C 477.763 3.54647 3.49471 0
M  V30 4752 C 476.466 6.04783 3.89397 0
M  V30 4753 C 478.492 4.73281 3.54625 0
M  V30 4754 C 477.854 5.96789 3.74196 0
M  V30 4755 H 473.953 0.322256 0.712513 0
M  V30 4756 H 476.537 1.31822 1.43287 0
M  V30 4757 H 474.708 0.575612 3.84111 0
M  V30 4758 H 476.44 0.787145 3.96971 0
M  V30 4759 H 473.195 2.8007 3.81913 0
M  V30 4760 H 473.619 5.40971 4.07037 0
M  V30 4761 H 478.261 2.60143 3.33295 0
M  V30 4762 H 475.979 6.99654 4.04364 0
M  V30 4763 H 479.565 4.70094 3.42787 0
M  V30 4764 H 478.445 6.87051 3.78061 0
M  V30 4765 N 475.948 -1.35272 0.808662 0
M  V30 4766 C 476.895 -2.29764 0.218482 0
M  V30 4767 C 477.865 -1.52911 -0.648652 0
M  V30 4768 O 479.05 -1.81341 -0.593297 0
M  V30 4769 C 476.19 -3.39388 -0.625282 0
M  V30 4770 C 475.303 -4.31202 0.262516 0
M  V30 4771 C 474.438 -5.27919 -0.589451 0
M  V30 4772 C 473.477 -6.11371 0.298617 0
M  V30 4773 N 472.614 -7.0022 -0.513443 0
M  V30 4774 H 477.454 -2.79645 1.02968 0
M  V30 4775 H 474.991 -1.37629 0.519303 0
M  V30 4776 H 476.949 -4.01615 -1.12966 0
M  V30 4777 H 475.579 -2.90777 -1.40173 0
M  V30 4778 H 474.631 -3.69962 0.885013 0
M  V30 4779 H 475.943 -4.89748 0.945971 0
M  V30 4780 H 475.097 -5.95529 -1.15888 0
M  V30 4781 H 473.836 -4.69875 -1.30647 0
M  V30 4782 H 472.841 -5.42707 0.880301 0
M  V30 4783 H 474.066 -6.71494 1.01352 0
M  V30 4784 H 472.012 -6.44662 -1.21439 0
M  V30 4785 H 471.929 -7.55917 0.111922 0
M  V30 4786 H 473.197 -7.72175 -1.06608 0
M  V30 4787 N 477.426 -0.562348 -1.47226 0
M  V30 4788 C 478.651 -0.0432632 -2.07355 0
M  V30 4789 C 479.076 1.24332 -1.41149 0
M  V30 4790 O 478.434 1.74603 -0.488226 0
M  V30 4791 C 478.482 0.130288 -3.60365 0
M  V30 4792 O 477.586 1.19166 -3.94808 0
M  V30 4793 H 476.927 -0.0536334 -0.66183 0
M  V30 4794 H 479.457 -0.779495 -1.89169 0
M  V30 4795 H 479.467 0.342881 -4.06557 0
M  V30 4796 H 478.142 -0.809389 -4.07948 0
M  V30 4797 H 476.719 0.959153 -3.60354 0
M  V30 4798 N 478.904 1.54736 -0.299062 0
M  V30 4799 C 480.15 2.00397 0.311244 0
M  V30 4800 C 480.483 1.18716 1.53688 0
M  V30 4801 O 479.758 0.263154 1.92712 0
M  V30 4802 C 480.041 3.53817 0.669761 0
M  V30 4803 C 479.894 4.46239 -0.564882 0
M  V30 4804 C 481.213 4.13856 1.49702 0
M  V30 4805 H 478.332 0.728493 0.111653 0
M  V30 4806 H 480.974 1.85506 -0.410774 0
M  V30 4807 H 479.124 3.66637 1.28491 0
M  V30 4808 H 480.796 4.45328 -1.20337 0
M  V30 4809 H 479.039 4.16916 -1.19849 0
M  V30 4810 H 479.71 5.5134 -0.269918 0
M  V30 4811 H 482.186 4.04461 0.977284 0
M  V30 4812 H 481.062 5.21365 1.71666 0
M  V30 4813 H 481.323 3.65608 2.48563 0
M  V30 4814 N 480.382 0.0267497 1.57577 0
M  V30 4815 C 481.292 -0.971633 2.13533 0
M  V30 4816 C 482.308 -1.35868 1.08701 0
M  V30 4817 O 483.484 -1.44058 1.40746 0
M  V30 4818 C 480.549 -2.23622 2.64941 0
M  V30 4819 C 479.61 -1.90982 3.8448 0
M  V30 4820 C 478.843 -3.11411 4.33427 0
M  V30 4821 O 479.066 -4.23992 3.81558 0
M  V30 4822 O 478 -2.93848 5.25297 0
M  V30 4823 H 481.826 -0.525853 2.99113 0
M  V30 4824 H 479.411 -0.193712 1.48139 0
M  V30 4825 H 481.293 -2.97864 2.98086 0
M  V30 4826 H 479.968 -2.67386 1.82446 0
M  V30 4827 H 478.875 -1.14132 3.56265 0
M  V30 4828 H 480.208 -1.52036 4.6813 0
M  V30 4829 N 481.861 -1.55662 -0.24637 0
M  V30 4830 C 483.086 -1.81914 -0.996093 0
M  V30 4831 C 483.511 -0.603875 -1.78143 0
M  V30 4832 O 482.869 0.447091 -1.75701 0
M  V30 4833 C 482.917 -3.05908 -1.90925 0
M  V30 4834 O 482.021 -2.82861 -3.00105 0
M  V30 4835 H 481.362 -0.600481 -0.283406 0
M  V30 4836 H 483.892 -2.02848 -0.267199 0
M  V30 4837 H 483.902 -3.35356 -2.3238 0
M  V30 4838 H 482.577 -3.93999 -1.33183 0
M  V30 4839 H 481.154 -2.64583 -2.62775 0
M  V30 4840 N 483.339 0.512053 -1.4905 0
M  V30 4841 C 484.585 1.26874 -1.58212 0
M  V30 4842 C 484.918 1.9241 -0.263073 0
M  V30 4843 O 484.193 1.80181 0.732476 0
M  V30 4844 C 484.476 2.34428 -2.73341 0
M  V30 4845 C 484.329 1.73466 -4.15006 0
M  V30 4846 C 485.648 3.36073 -2.84154 0
M  V30 4847 H 482.767 0.459924 -0.575881 0
M  V30 4848 H 485.409 0.568587 -1.81293 0
M  V30 4849 H 483.559 2.94146 -2.53792 0
M  V30 4850 H 485.231 1.17661 -4.46042 0
M  V30 4851 H 483.474 1.03921 -4.21168 0
M  V30 4852 H 484.145 2.51426 -4.91415 0
M  V30 4853 H 486.621 2.86332 -3.01916 0
M  V30 4854 H 485.497 4.08703 -3.66406 0
M  V30 4855 H 485.758 3.97725 -1.93048 0
M  V30 4856 N 484.817 1.37938 0.762283 0
M  V30 4857 C 486.228 1.30094 1.33912 0
M  V30 4858 C 486.579 -0.0472026 1.96143 0
M  V30 4859 O 485.704 -0.94917 1.94473 0
M  V30 4860 C 486.299 2.35592 2.43478 0
M  V30 4861 C 484.858 2.31353 2.96905 0
M  V30 4862 C 484.005 2.18919 1.70205 0
M  V30 4863 H 486.956 1.48423 0.561816 0
M  V30 4864 H 486.977 2.00806 3.23199 0
M  V30 4865 H 486.489 3.33701 1.98155 0
M  V30 4866 H 484.59 1.36799 3.46579 0
M  V30 4867 H 484.703 3.25147 3.51875 0
M  V30 4868 H 483.067 1.65624 1.93496 0
M  V30 4869 H 483.85 3.18956 1.26973 0
M  V30 4870 N 486.295 -0.989507 1.22664 0
M  V30 4871 C 487.242 -2.08024 0.999733 0
M  V30 4872 C 488.212 -1.65909 -0.0797047 0
M  V30 4873 O 489.397 -1.90669 0.0705715 0
M  V30 4874 C 486.537 -3.40067 0.587234 0
M  V30 4875 C 485.65 -3.95505 1.73781 0
M  V30 4876 C 484.785 -5.15722 1.27297 0
M  V30 4877 C 483.824 -5.63305 2.39488 0
M  V30 4878 N 482.961 -6.74758 1.94026 0
M  V30 4879 H 487.801 -2.26768 1.9334 0
M  V30 4880 H 485.338 -1.11171 0.963297 0
M  V30 4881 H 487.296 -4.15899 0.329227 0
M  V30 4882 H 485.926 -3.21314 -0.309426 0
M  V30 4883 H 484.978 -3.16513 2.11006 0
M  V30 4884 H 486.29 -4.26797 2.58158 0
M  V30 4885 H 485.444 -5.98854 0.972546 0
M  V30 4886 H 484.183 -4.86061 0.399445 0
M  V30 4887 H 483.188 -4.78759 2.70315 0
M  V30 4888 H 484.413 -5.94988 3.27362 0
M  V30 4889 H 482.359 -6.46874 1.09041 0
M  V30 4890 H 482.276 -7.05386 2.71968 0
M  V30 4891 H 483.544 -7.61387 1.67062 0
M  V30 4892 N 487.773 -1.03688 -1.18687 0
M  V30 4893 C 488.703 -0.645407 -2.24403 0
M  V30 4894 C 489.684 0.349511 -1.66471 0
M  V30 4895 O 490.869 0.230453 -1.92828 0
M  V30 4896 C 487.999 -0.00365337 -3.473 0
M  V30 4897 C 486.953 -0.921705 -4.17958 0
M  V30 4898 C 486.279 -0.144629 -5.34504 0
M  V30 4899 C 487.579 -2.23909 -4.71871 0
M  V30 4900 H 489.273 -1.52917 -2.57404 0
M  V30 4901 H 486.819 -0.736711 -1.23728 0
M  V30 4902 H 488.772 0.281908 -4.20456 0
M  V30 4903 H 487.496 0.914963 -3.13522 0
M  V30 4904 H 486.155 -1.19159 -3.46694 0
M  V30 4905 H 485.803 0.776274 -4.96974 0
M  V30 4906 H 485.503 -0.756206 -5.82714 0
M  V30 4907 H 487.027 0.134004 -6.10453 0
M  V30 4908 H 488.441 -2.0145 -5.36741 0
M  V30 4909 H 486.838 -2.8033 -5.30599 0
M  V30 4910 H 487.908 -2.88822 -3.895 0
M  V30 4911 N 489.251 1.34841 -0.815825 0
M  V30 4912 C 490.497 1.98793 -0.401129 0
M  V30 4913 C 490.83 1.64548 1.03139 0
M  V30 4914 O 490.105 0.913487 1.71714 0
M  V30 4915 C 490.388 3.55143 -0.595409 0
M  V30 4916 C 490.241 3.99155 -2.07352 0
M  V30 4917 C 491.56 4.40092 -0.0268823 0
M  V30 4918 H 488.679 0.722146 -0.14722 0
M  V30 4919 H 491.321 1.59847 -1.02707 0
M  V30 4920 H 489.471 3.8845 -0.0625779 0
M  V30 4921 H 491.143 3.76216 -2.66945 0
M  V30 4922 H 489.386 3.49726 -2.56659 0
M  V30 4923 H 490.057 5.07971 -2.1603 0
M  V30 4924 H 492.533 4.13298 -0.482042 0
M  V30 4925 H 491.409 5.48562 -0.19267 0
M  V30 4926 H 491.67 4.29016 1.06759 0
M  V30 4927 N 490.729 0.570148 1.46925 0
M  V30 4928 C 491.954 0.0542592 2.07329 0
M  V30 4929 C 492.379 -1.23582 1.41806 0
M  V30 4930 O 491.737 -1.74341 0.497479 0
M  V30 4931 C 491.785 -0.111175 3.60429 0
M  V30 4932 O 490.889 -1.17071 3.95434 0
M  V30 4933 H 490.23 0.0571425 0.661537 0
M  V30 4934 H 492.76 0.789516 1.88753 0
M  V30 4935 H 492.77 -0.321315 4.06733 0
M  V30 4936 H 491.445 0.831012 4.07513 0
M  V30 4937 H 490.022 -0.940029 3.60857 0
M  V30 4938 N 492.207 -1.54576 0.307264 0
M  V30 4939 C 493.117 -2.27435 -0.57536 0
M  V30 4940 C 494.133 -1.31183 -1.14311 0
M  V30 4941 O 495.309 -1.64175 -1.16656 0
M  V30 4942 C 492.374 -3.00566 -1.72803 0
M  V30 4943 C 491.435 -4.12369 -1.19373 0
M  V30 4944 C 490.668 -4.82003 -2.29147 0
M  V30 4945 O 490.891 -4.51038 -3.49171 0
M  V30 4946 O 489.825 -5.69271 -1.95485 0
M  V30 4947 H 493.651 -3.03696 0.0158558 0
M  V30 4948 H 491.236 -1.49219 0.0735064 0
M  V30 4949 H 493.118 -3.46416 -2.39946 0
M  V30 4950 H 491.793 -2.27195 -2.30574 0
M  V30 4951 H 490.7 -3.70905 -0.487851 0
M  V30 4952 H 492.033 -4.87736 -0.661376 0
M  V30 4953 N 493.685 -0.035106 -1.57561 0
M  V30 4954 C 494.915 0.651312 -1.96065 0
M  V30 4955 C 495.323 1.6585 -0.910514 0
M  V30 4956 O 494.666 1.83336 0.11552 0
M  V30 4957 C 494.728 1.40897 -3.30739 0
M  V30 4958 C 494.392 0.559436 -4.53563 0
M  V30 4959 C 495.389 -0.16778 -5.19629 0
M  V30 4960 C 493.074 0.495079 -4.99854 0
M  V30 4961 C 495.068 -0.947963 -6.30311 0
M  V30 4962 C 492.755 -0.288804 -6.10417 0
M  V30 4963 C 493.753 -1.00903 -6.75505 0
M  V30 4964 O 493.441 -1.78005 -7.83945 0
M  V30 4965 H 493.173 0.184036 -0.650467 0
M  V30 4966 H 495.727 -0.0929677 -2.05189 0
M  V30 4967 H 493.957 2.19852 -3.18123 0
M  V30 4968 H 495.646 1.98407 -3.54104 0
M  V30 4969 H 496.412 -0.12743 -4.84833 0
M  V30 4970 H 492.291 1.04524 -4.48994 0
M  V30 4971 H 495.835 -1.51064 -6.81047 0
M  V30 4972 H 491.732 -0.33085 -6.44652 0
M  V30 4973 H 492.5 -1.70046 -8.00641 0
M  V30 4974 N 495.163 1.55791 0.238111 0
M  V30 4975 C 496.096 1.86036 1.32158 0
M  V30 4976 C 497.074 0.716216 1.45976 0
M  V30 4977 O 498.258 0.962882 1.62052 0
M  V30 4978 C 495.385 2.05281 2.69402 0
M  V30 4979 C 494.431 3.27939 2.72687 0
M  V30 4980 S 495.264 4.84342 2.28413 0
M  V30 4981 C 496.42 5.06604 3.67565 0
M  V30 4982 H 496.653 2.77644 1.06306 0
M  V30 4983 H 494.186 1.48012 0.439537 0
M  V30 4984 H 496.144 2.17053 3.48423 0
M  V30 4985 H 494.805 1.14499 2.92487 0
M  V30 4986 H 493.998 3.38398 3.73501 0
M  V30 4987 H 493.6 3.14938 2.01717 0
M  V30 4988 H 495.892 4.94486 4.6313 0
M  V30 4989 H 496.835 6.08554 3.62033 0
M  V30 4990 H 497.243 4.34409 3.60485 0
M  V30 4991 N 496.642 -0.504142 1.49319 0
M  V30 4992 C 497.867 -1.28729 1.62615 0
M  V30 4993 C 498.292 -1.85752 0.296309 0
M  V30 4994 O 497.65 -1.65704 -0.735649 0
M  V30 4995 C 497.698 -2.39561 2.69524 0
M  V30 4996 O 496.802 -3.43324 2.28478 0
M  V30 4997 H 496.143 -0.380172 0.544395 0
M  V30 4998 H 498.673 -0.603872 1.95485 0
M  V30 4999 H 498.683 -2.8537 2.91595 0
M  V30 5000 H 497.358 -1.97423 3.66056 0
M  V30 5001 H 495.935 -3.03455 2.16725 0
M  V30 5002 N 498.12 -1.38341 -0.754957 0
M  V30 5003 C 499.067 -1.3546 -1.86867 0
M  V30 5004 C 500.037 -0.217369 -1.64672 0
M  V30 5005 O 501.222 -0.409383 -1.86356 0
M  V30 5006 C 498.362 -1.18413 -3.24149 0
M  V30 5007 C 497.475 -2.41511 -3.58185 0
M  V30 5008 C 496.61 -2.17205 -4.84763 0
M  V30 5009 C 495.649 -3.36081 -5.11582 0
M  V30 5010 N 494.786 -3.11219 -6.29354 0
M  V30 5011 H 499.626 -2.30672 -1.88664 0
M  V30 5012 H 497.163 -1.14607 -0.922154 0
M  V30 5013 H 499.121 -1.06545 -4.03366 0
M  V30 5014 H 497.751 -0.268397 -3.21682 0
M  V30 5015 H 496.803 -2.64056 -2.73822 0
M  V30 5016 H 498.115 -3.30115 -3.73932 0
M  V30 5017 H 497.269 -2.02465 -5.7192 0
M  V30 5018 H 496.008 -1.25964 -4.71152 0
M  V30 5019 H 495.013 -3.51341 -4.22894 0
M  V30 5020 H 496.238 -4.28196 -5.27091 0
M  V30 5021 H 494.184 -2.22624 -6.17069 0
M  V30 5022 H 494.101 -3.93373 -6.45596 0
M  V30 5023 H 495.369 -3.00132 -7.19403 0
M  V30 5024 N 499.598 0.982988 -1.23187 0
M  V30 5025 C 500.545 2.07491 -1.01075 0
M  V30 5026 C 501.515 1.65949 0.070905 0
M  V30 5027 O 502.7 1.90629 -0.0806822 0
M  V30 5028 C 499.84 3.39751 -0.605261 0
M  V30 5029 C 498.953 3.94578 -1.75876 0
M  V30 5030 C 498.088 5.15039 -1.3003 0
M  V30 5031 C 497.127 5.62027 -2.42472 0
M  V30 5032 N 496.264 6.73719 -1.97602 0
M  V30 5033 H 501.104 2.25739 -1.9454 0
M  V30 5034 H 498.641 1.10659 -0.969179 0
M  V30 5035 H 500.599 4.15719 -0.351279 0
M  V30 5036 H 499.229 3.21473 0.292382 0
M  V30 5037 H 498.281 3.1539 -2.12681 0
M  V30 5038 H 499.593 4.25422 -2.60418 0
M  V30 5039 H 498.747 5.9833 -1.00429 0
M  V30 5040 H 497.486 4.85843 -0.425216 0
M  V30 5041 H 496.491 4.77318 -2.7285 0
M  V30 5042 H 497.716 5.93244 -3.30512 0
M  V30 5043 H 495.662 6.46287 -1.1247 0
M  V30 5044 H 495.579 7.03934 -2.75705 0
M  V30 5045 H 496.847 7.6049 -1.71098 0
M  V30 5046 N 501.076 1.04316 1.18135 0
M  V30 5047 C 502.325 0.74319 1.87509 0
M  V30 5048 C 502.638 -0.732136 1.81381 0
M  V30 5049 O 503.844 -1.14572 2.46141 0
M  V30 5050 C 502.3 1.27913 3.36402 0
M  V30 5051 C 501.908 2.78326 3.51053 0
M  V30 5052 C 503.652 1.0558 4.11161 0
M  V30 5053 C 501.559 3.25266 4.93919 0
M  V30 5054 H 500.489 0.274313 0.702331 0
M  V30 5055 H 503.14 1.25931 1.33467 0
M  V30 5056 H 501.522 0.690853 3.89927 0
M  V30 5057 H 502.696 3.42933 3.07788 0
M  V30 5058 H 501.011 2.991 2.89704 0
M  V30 5059 H 503.608 1.38161 5.16542 0
M  V30 5060 H 503.951 -0.00684729 4.16299 0
M  V30 5061 H 504.484 1.60882 3.63816 0
M  V30 5062 H 501.223 4.30922 4.9395 0
M  V30 5063 H 500.743 2.65396 5.3789 0
M  V30 5064 H 502.422 3.19433 5.62647 0
M  V30 5065 N 502.554 -1.34406 0.822964 0
M  V30 5066 C 503.501 -2.29519 0.24284 0
M  V30 5067 C 504.471 -1.5359 -0.632397 0
M  V30 5068 O 505.656 -1.8196 -0.57403 0
M  V30 5069 C 502.796 -3.40032 -0.58925 0
M  V30 5070 C 501.909 -4.30899 0.308236 0
M  V30 5071 C 501.044 -5.28515 -0.533425 0
M  V30 5072 C 500.083 -6.1102 0.363444 0
M  V30 5073 N 499.22 -7.00725 -0.439147 0
M  V30 5074 H 504.06 -2.78537 1.05929 0
M  V30 5075 H 501.597 -1.3707 0.533872 0
M  V30 5076 H 503.555 -4.0279 -1.087 0
M  V30 5077 H 502.185 -2.92248 -1.37081 0
M  V30 5078 H 501.237 -3.69002 0.924203 0
M  V30 5079 H 502.549 -4.88717 0.997862 0
M  V30 5080 H 501.703 -5.96725 -1.09565 0
M  V30 5081 H 500.442 -4.71235 -1.25656 0
M  V30 5082 H 499.447 -5.41743 0.937812 0
M  V30 5083 H 500.672 -6.70381 1.08469 0
M  V30 5084 H 498.618 -6.45913 -1.14595 0
M  V30 5085 H 498.535 -7.55756 0.19209 0
M  V30 5086 H 499.803 -7.73263 -0.984124 0
M  V30 5087 N 504.032 -0.577932 -1.46621 0
M  V30 5088 C 505.278 -0.0617793 -2.02706 0
M  V30 5089 C 505.611 1.29294 -1.44903 0
M  V30 5090 O 504.886 1.8461 -0.61232 0
M  V30 5091 C 505.169 0.00911824 -3.60099 0
M  V30 5092 C 505.022 -1.37416 -4.28295 0
M  V30 5093 C 506.341 0.712159 -4.343 0
M  V30 5094 H 503.46 -0.0239246 -0.736612 0
M  V30 5095 H 506.102 -0.744211 -1.74818 0
M  V30 5096 H 504.252 0.590292 -3.83989 0
M  V30 5097 H 505.924 -2.00013 -4.15683 0
M  V30 5098 H 504.167 -1.94319 -3.87843 0
M  V30 5099 H 504.838 -1.27707 -5.37024 0
M  V30 5100 H 507.314 0.218486 -4.15526 0
M  V30 5101 H 506.19 0.730782 -5.44014 0
M  V30 5102 H 506.451 1.77251 -4.05012 0
M  V30 5103 N 505.51 1.54411 -0.315457 0
M  V30 5104 C 506.787 1.92562 0.343398 0
M  V30 5105 C 507.167 1.24423 1.70535 0
M  V30 5106 O 506.515 0.385051 2.25232 0
M  V30 5107 C 506.725 3.46168 0.443687 0
M  V30 5108 C 508.073 4.18659 0.707783 0
M  V30 5109 O 509.097 3.52281 0.52693 0
M  V30 5110 O 507.956 5.36198 1.05612 0
M  V30 5111 H 505.05 0.80379 0.194552 0
M  V30 5112 H 507.596 1.65738 -0.364577 0
M  V30 5113 H 506.368 3.8792 -0.513172 0
M  V30 5114 H 505.991 3.79073 1.19956 0
M  V30 5115 N 506.988 0.0434614 1.5754 0
M  V30 5116 C 507.898 -0.94893 2.14552 0
M  V30 5117 C 508.914 -1.34707 1.10136 0
M  V30 5118 O 510.09 -1.42557 1.42266 0
M  V30 5119 C 507.155 -2.208 2.67298 0
M  V30 5120 C 506.216 -1.86893 3.86484 0
M  V30 5121 C 505.449 -3.06797 4.36705 0
M  V30 5122 O 505.672 -4.19921 3.86034 0
M  V30 5123 O 504.606 -2.8826 5.28384 0
M  V30 5124 H 508.432 -0.494099 2.99654 0
M  V30 5125 H 506.017 -0.177989 1.48336 0
M  V30 5126 H 507.899 -2.94686 3.01228 0
M  V30 5127 H 506.574 -2.65436 1.85272 0
M  V30 5128 H 505.481 -1.10347 3.57455 0
M  V30 5129 H 506.814 -1.47062 4.69716 0
M  V30 5130 N 508.466 -1.55915 -0.229846 0
M  V30 5131 C 509.713 -1.78542 -0.955452 0
M  V30 5132 C 510.041 -0.610785 -1.84661 0
M  V30 5133 O 509.296 0.405213 -1.91459 0
M  V30 5134 C 509.595 -3.06845 -1.8325 0
M  V30 5135 C 509.261 -4.37395 -1.09528 0
M  V30 5136 C 507.923 -4.72868 -0.891598 0
M  V30 5137 C 510.275 -5.18029 -0.574046 0
M  V30 5138 C 507.603 -5.86496 -0.154655 0
M  V30 5139 C 509.955 -6.32423 0.149513 0
M  V30 5140 C 508.619 -6.66504 0.364519 0
M  V30 5141 H 507.889 -0.653333 -0.349625 0
M  V30 5142 H 510.536 -1.90183 -0.224235 0
M  V30 5143 H 508.841 -2.90291 -2.63132 0
M  V30 5144 H 510.538 -3.21553 -2.39592 0
M  V30 5145 H 507.128 -4.09538 -1.26399 0
M  V30 5146 H 511.312 -4.91066 -0.718899 0
M  V30 5147 H 506.568 -6.11396 0.0222356 0
M  V30 5148 H 510.742 -6.94137 0.560947 0
M  V30 5149 H 508.369 -7.54397 0.937495 0
M  V30 5150 N 509.944 0.496216 -1.49584 0
M  V30 5151 C 511.19 1.25189 -1.59548 0
M  V30 5152 C 511.523 1.9212 -0.283466 0
M  V30 5153 O 510.798 1.80947 0.713324 0
M  V30 5154 C 511.081 2.31516 -2.75812 0
M  V30 5155 C 510.934 1.69054 -4.16822 0
M  V30 5156 C 512.253 3.3304 -2.87702 0
M  V30 5157 H 509.372 0.45379 -0.580727 0
M  V30 5158 H 512.014 0.549327 -1.81886 0
M  V30 5159 H 510.164 2.91438 -2.56897 0
M  V30 5160 H 511.836 1.12923 -4.47265 0
M  V30 5161 H 510.079 0.994485 -4.22247 0
M  V30 5162 H 510.75 2.462 -4.94054 0
M  V30 5163 H 513.226 2.83114 -3.04936 0
M  V30 5164 H 512.102 4.04794 -3.7072 0
M  V30 5165 H 512.363 3.95655 -1.97255 0
M  V30 5166 N 511.423 1.38739 0.74761 0
M  V30 5167 C 512.651 1.38521 1.53686 0
M  V30 5168 C 513.066 -0.0235129 1.88785 0
M  V30 5169 O 512.423 -0.991662 1.53207 0
M  V30 5170 C 512.474 2.24641 2.83229 0
M  V30 5171 O 512.195 3.60026 2.49625 0
M  V30 5172 C 513.696 2.32669 3.77333 0
M  V30 5173 H 510.916 0.473589 0.475347 0
M  V30 5174 H 513.46 1.82395 0.924786 0
M  V30 5175 H 511.615 1.84213 3.40799 0
M  V30 5176 H 512.029 4.05435 3.3275 0
M  V30 5177 H 513.503 2.97201 4.65162 0
M  V30 5178 H 513.98 1.3421 4.18192 0
M  V30 5179 H 514.586 2.73512 3.25685 0
M  V30 5180 N 512.901 -0.976442 1.23707 0
M  V30 5181 C 513.851 -2.0544 0.988851 0
M  V30 5182 C 514.835 -1.60762 -0.0665901 0
M  V30 5183 O 516.027 -1.76396 0.14604 0
M  V30 5184 C 513.156 -3.38258 0.586223 0
M  V30 5185 C 512.242 -3.89523 1.67728 0
M  V30 5186 N 512.633 -4.13823 2.90834 0
M  V30 5187 C 510.931 -4.18097 1.55277 0
M  V30 5188 C 511.632 -4.55731 3.61502 0
M  V30 5189 N 510.608 -4.60394 2.8903 0
M  V30 5190 H 514.41 -2.22191 1.92376 0
M  V30 5191 H 511.924 -1.15954 1.13704 0
M  V30 5192 H 513.921 -4.15075 0.389658 0
M  V30 5193 H 512.581 -3.22898 -0.341594 0
M  V30 5194 H 513.592 -4.01529 3.271 0
M  V30 5195 H 510.269 -4.11719 0.692351 0
M  V30 5196 H 511.659 -4.83018 4.67059 0
M  V30 5197 N 514.379 -1.04941 -1.1758 0
M  V30 5198 C 515.327 -0.64204 -2.23563 0
M  V30 5199 C 516.321 0.335453 -1.66045 0
M  V30 5200 O 517.527 0.20179 -1.78865 0
M  V30 5201 H 513.902 -0.18944 -0.727748 0
M  V30 5202 H 515.873 -1.54609 -2.55223 0
M  V30 5203 C 514.622 -0.0301051 -3.47687 0
M  V30 5204 H 513.945 -0.773339 -3.92249 0
M  V30 5205 H 515.385 0.217592 -4.23441 0
M  V30 5206 C 513.844 1.2225 -3.13937 0
M  V30 5207 O 514.374 2.3122 -3.28482 0
M  V30 5208 N 512.58 1.11917 -2.68185 0
M  V30 5209 H 512.127 0.232403 -2.5655 0
M  V30 5210 H 512.085 1.95814 -2.45976 0
M  V30 5211 N 515.857 1.33968 -0.830081 0
M  V30 5212 C 516.787 2.31911 -0.271911 0
M  V30 5213 C 517.768 1.58571 0.61556 0
M  V30 5214 O 518.953 1.86514 0.540946 0
M  V30 5215 C 516.083 3.42737 0.561146 0
M  V30 5216 C 515.037 4.27383 -0.229789 0
M  V30 5217 C 514.363 5.29742 0.726463 0
M  V30 5218 C 515.663 5.02 -1.44197 0
M  V30 5219 H 517.357 2.78844 -1.09025 0
M  V30 5220 H 514.903 1.34061 -0.52571 0
M  V30 5221 H 516.856 4.10276 0.961867 0
M  V30 5222 H 515.58 2.94471 1.41261 0
M  V30 5223 H 514.239 3.61456 -0.611964 0
M  V30 5224 H 513.887 4.77736 1.57408 0
M  V30 5225 H 513.587 5.87255 0.20142 0
M  V30 5226 H 515.111 6.00149 1.12489 0
M  V30 5227 H 516.525 5.62355 -1.11488 0
M  V30 5228 H 514.922 5.69122 -1.90317 0
M  V30 5229 H 515.992 4.31281 -2.2164 0
M  V30 5230 N 517.335 0.585699 1.46312 0
M  V30 5231 C 518.56 0.0762461 2.0726 0
M  V30 5232 C 518.985 -1.22071 1.43109 0
M  V30 5233 O 518.343 -1.73804 0.515942 0
M  V30 5234 C 518.391 -0.0729404 3.60526 0
M  V30 5235 O 517.495 -1.1287 3.96654 0
M  V30 5236 H 516.836 0.0641558 0.660893 0
M  V30 5237 H 519.366 0.809492 1.87905 0
M  V30 5238 H 519.376 -0.278158 4.07051 0
M  V30 5239 H 518.051 0.874188 4.06609 0
M  V30 5240 H 516.628 -0.901703 3.61834 0
M  V30 5241 N 518.813 -1.54241 0.323641 0
M  V30 5242 C 520.06 -2.0057 -0.27891 0
M  V30 5243 C 520.388 -1.21181 -1.52136 0
M  V30 5244 O 519.643 -0.282043 -1.93657 0
M  V30 5245 C 519.942 -3.5129 -0.658031 0
M  V30 5246 C 519.608 -4.48281 0.485252 0
M  V30 5247 C 518.27 -4.74519 0.799055 0
M  V30 5248 C 520.622 -5.05909 1.25322 0
M  V30 5249 C 517.95 -5.55643 1.88354 0
M  V30 5250 C 520.302 -5.88215 2.32779 0
M  V30 5251 C 518.966 -6.12755 2.64741 0
M  V30 5252 H 518.236 -0.733938 -0.10206 0
M  V30 5253 H 520.883 -1.862 0.447435 0
M  V30 5254 H 519.188 -3.63388 -1.4648 0
M  V30 5255 H 520.885 -3.84578 -1.1358 0
M  V30 5256 H 517.475 -4.27979 0.230593 0
M  V30 5257 H 521.659 -4.8562 1.02404 0
M  V30 5258 H 516.915 -5.72888 2.13564 0
M  V30 5259 H 521.089 -6.31888 2.92729 0
M  V30 5260 H 518.716 -6.75404 3.48904 0
M  V30 5261 N 520.291 -0.0518155 -1.57515 0
M  V30 5262 C 521.568 0.661727 -1.84067 0
M  V30 5263 C 521.948 1.88999 -0.940351 0
M  V30 5264 O 521.296 2.285 -0.00155404 0
M  V30 5265 C 521.506 1.01841 -3.3381 0
M  V30 5266 C 522.854 1.40043 -4.00841 0
M  V30 5267 O 523.878 1.11073 -3.38439 0
M  V30 5268 O 522.737 1.94111 -5.10865 0
M  V30 5269 H 519.831 0.326702 -0.759733 0
M  V30 5270 H 522.377 -0.0812277 -1.69505 0
M  V30 5271 H 521.149 0.145202 -3.91031 0
M  V30 5272 H 520.772 1.81879 -3.53562 0
M  V30 5273 N 521.769 1.56035 0.221574 0
M  V30 5274 C 522.679 1.95581 1.29558 0
M  V30 5275 C 523.695 0.859639 1.51282 0
M  V30 5276 O 524.871 1.16321 1.64413 0
M  V30 5277 C 521.936 2.26447 2.62531 0
M  V30 5278 C 520.997 3.49632 2.4911 0
M  V30 5279 C 520.23 3.79017 3.75742 0
M  V30 5280 O 520.453 3.10077 4.78757 0
M  V30 5281 O 519.387 4.72507 3.72855 0
M  V30 5282 H 523.213 2.8711 0.990035 0
M  V30 5283 H 520.798 1.43244 0.424434 0
M  V30 5284 H 522.68 2.47494 3.41064 0
M  V30 5285 H 521.355 1.38092 2.92766 0
M  V30 5286 H 520.262 3.33864 1.68777 0
M  V30 5287 H 521.595 4.3837 2.23814 0
M  V30 5288 N 523.247 -0.488276 1.49845 0
M  V30 5289 C 524.496 -1.23826 1.59217 0
M  V30 5290 C 524.809 -1.93439 0.289966 0
M  V30 5291 O 526.015 -2.70229 0.262382 0
M  V30 5292 C 524.471 -2.24902 2.80976 0
M  V30 5293 C 524.079 -1.6117 4.18005 0
M  V30 5294 C 525.823 -3.00648 2.99685 0
M  V30 5295 C 523.73 -2.60431 5.3097 0
M  V30 5296 H 522.66 -0.465858 0.592868 0
M  V30 5297 H 525.311 -0.510645 1.76252 0
M  V30 5298 H 523.693 -3.0088 2.57463 0
M  V30 5299 H 524.867 -0.910968 4.51706 0
M  V30 5300 H 523.182 -0.97767 4.0476 0
M  V30 5301 H 525.779 -3.74903 3.81251 0
M  V30 5302 H 526.122 -3.5902 2.10738 0
M  V30 5303 H 526.655 -2.31784 3.23297 0
M  V30 5304 H 523.394 -2.06823 6.22017 0
M  V30 5305 H 522.914 -3.28707 5.01709 0
M  V30 5306 H 524.593 -3.22606 5.60834 0
M  V30 5307 N 524.725 -1.39134 -0.740242 0
M  V30 5308 C 525.673 -1.3757 -1.87556 0
M  V30 5309 C 526.667 -0.259593 -1.67399 0
M  V30 5310 O 527.873 -0.429349 -1.74804 0
M  V30 5311 H 524.248 -0.42947 -0.6173 0
M  V30 5312 H 526.219 -2.33345 -1.85991 0
M  V30 5313 C 524.968 -1.23087 -3.25184 0
M  V30 5314 H 524.291 -2.08237 -3.41288 0
M  V30 5315 H 525.731 -1.26049 -4.0483 0
M  V30 5316 C 524.19 0.0611471 -3.36845 0
M  V30 5317 O 524.72 1.03328 -3.88183 0
M  V30 5318 N 522.926 0.122454 -2.90342 0
M  V30 5319 H 522.473 -0.669329 -2.48752 0
M  V30 5320 H 522.431 0.986463 -2.98523 0
M  V30 5321 N 526.204 0.969867 -1.24223 0
M  V30 5322 C 527.151 2.06407 -1.0327 0
M  V30 5323 C 528.121 1.66014 0.0533 0
M  V30 5324 O 529.306 1.90533 -0.100896 0
M  V30 5325 C 526.446 3.3909 -0.641262 0
M  V30 5326 C 525.559 3.9269 -1.80051 0
M  V30 5327 C 524.694 5.13631 -1.35486 0
M  V30 5328 C 523.733 5.59423 -2.48419 0
M  V30 5329 N 522.87 6.71586 -2.04737 0
M  V30 5330 H 527.71 2.23663 -1.96923 0
M  V30 5331 H 525.247 1.09624 -0.980862 0
M  V30 5332 H 527.205 4.15323 -0.395351 0
M  V30 5333 H 525.835 3.21765 0.258269 0
M  V30 5334 H 524.887 3.13116 -2.16014 0
M  V30 5335 H 526.199 4.22636 -2.64916 0
M  V30 5336 H 525.353 5.97231 -1.0677 0
M  V30 5337 H 524.092 4.85364 -0.476722 0
M  V30 5338 H 523.097 4.74398 -2.77897 0
M  V30 5339 H 524.322 5.89705 -3.36786 0
M  V30 5340 H 522.268 6.45058 -1.19318 0
M  V30 5341 H 522.185 7.0097 -2.83156 0
M  V30 5342 H 523.453 7.58633 -1.79154 0
M  V30 5343 N 527.682 1.05563 1.17022 0
M  V30 5344 C 528.645 0.664098 2.19368 0
M  V30 5345 C 529.645 -0.286358 1.5823 0
M  V30 5346 O 530.835 -0.069728 1.7406 0
M  V30 5347 C 527.967 -0.0239932 3.40892 0
M  V30 5348 H 529.16 1.57 2.55521 0
M  V30 5349 H 526.713 0.849964 1.31169 0
M  V30 5350 H 527.448 -0.942988 3.10287 0
M  V30 5351 H 527.233 0.659351 3.86516 0
M  V30 5352 H 528.723 -0.283909 4.16634 0
M  V30 5353 N 529.16 -1.33526 0.837174 0
M  V30 5354 C 530.407 -1.97837 0.432064 0
M  V30 5355 C 530.735 -1.66324 -1.00829 0
M  V30 5356 O 529.99 -0.93448 -1.71948 0
M  V30 5357 C 530.289 -3.52367 0.597675 0
M  V30 5358 C 529.955 -4.03826 2.00587 0
M  V30 5359 C 528.617 -4.1759 2.39106 0
M  V30 5360 C 530.969 -4.31333 2.92576 0
M  V30 5361 C 528.297 -4.56195 3.68921 0
M  V30 5362 C 530.649 -4.7139 4.2187 0
M  V30 5363 C 529.313 -4.8336 4.60347 0
M  V30 5364 H 528.583 -0.723937 0.158104 0
M  V30 5365 H 531.23 -1.5923 1.06387 0
M  V30 5366 H 529.535 -3.91624 -0.117452 0
M  V30 5367 H 531.232 -4.00126 0.26454 0
M  V30 5368 H 527.822 -3.93586 1.69671 0
M  V30 5369 H 532.006 -4.20224 2.64056 0
M  V30 5370 H 527.262 -4.63655 3.9854 0
M  V30 5371 H 531.436 -4.91631 4.93226 0
M  V30 5372 H 529.063 -5.1303 5.60985 0
M  V30 5373 N 530.638 -0.59345 -1.46 0
M  V30 5374 C 531.548 0.135817 -2.34207 0
M  V30 5375 C 532.564 0.875008 -1.50398 0
M  V30 5376 O 533.74 0.835778 -1.83239 0
M  V30 5377 C 530.805 1.12977 -3.27776 0
M  V30 5378 C 529.866 0.394081 -4.27487 0
M  V30 5379 C 529.099 1.34068 -5.16586 0
M  V30 5380 O 529.322 2.5778 -5.08828 0
M  V30 5381 O 528.256 0.845426 -5.95933 0
M  V30 5382 H 532.082 -0.588691 -2.9794 0
M  V30 5383 H 529.667 -0.353784 -1.45151 0
M  V30 5384 H 531.549 1.70261 -3.85473 0
M  V30 5385 H 530.224 1.83556 -2.66625 0
M  V30 5386 H 529.131 -0.220869 -3.73447 0
M  V30 5387 H 530.464 -0.270939 -4.91454 0
M  V30 5388 N 532.116 1.54067 -0.331816 0
M  V30 5389 C 533.046 2.27569 0.522932 0
M  V30 5390 C 534.027 1.28679 1.11247 0
M  V30 5391 O 535.212 1.57504 1.13605 0
M  V30 5392 C 532.342 3.0397 1.67987 0
M  V30 5393 C 531.296 4.10267 1.21924 0
M  V30 5394 C 530.622 4.74555 2.46377 0
M  V30 5395 C 531.922 5.21268 0.32815 0
M  V30 5396 H 533.616 2.99264 -0.0901977 0
M  V30 5397 H 531.162 1.4393 -0.044821 0
M  V30 5398 H 533.115 3.54123 2.28418 0
M  V30 5399 H 531.839 2.29906 2.31971 0
M  V30 5400 H 530.498 3.61009 0.637809 0
M  V30 5401 H 530.146 3.97098 3.08743 0
M  V30 5402 H 529.846 5.46363 2.16243 0
M  V30 5403 H 531.37 5.27487 3.07555 0
M  V30 5404 H 532.784 5.67128 0.838978 0
M  V30 5405 H 531.181 5.99982 0.119228 0
M  V30 5406 H 532.251 4.80673 -0.638839 0
M  V30 5407 N 533.594 0.0601682 1.57485 0
M  V30 5408 C 534.527 -0.94676 2.07634 0
M  V30 5409 C 535.505 -1.29837 0.978826 0
M  V30 5410 O 536.689 -1.40969 1.2514 0
M  V30 5411 C 533.816 -2.25822 2.52433 0
M  V30 5412 C 532.862 -2.05901 3.73507 0
M  V30 5413 S 533.695 -1.32907 5.18745 0
M  V30 5414 C 534.851 -2.65356 5.66866 0
M  V30 5415 H 535.084 -0.520003 2.92717 0
M  V30 5416 H 532.617 -0.152319 1.53647 0
M  V30 5417 H 534.575 -3.01201 2.78905 0
M  V30 5418 H 533.236 -2.65624 1.67639 0
M  V30 5419 H 532.429 -3.02929 4.02803 0
M  V30 5420 H 532.031 -1.38659 3.47347 0
M  V30 5421 H 534.323 -3.61492 5.73001 0
M  V30 5422 H 535.266 -2.40685 6.6594 0
M  V30 5423 H 535.674 -2.72028 4.94632 0
M  V30 5424 N 535.072 -1.5615 -0.213296 0
M  V30 5425 C 536.022 -1.89485 -1.26804 0
M  V30 5426 C 537.006 -0.758713 -1.41889 0
M  V30 5427 O 538.198 -1.02127 -1.44565 0
M  V30 5428 C 535.327 -2.22219 -2.61675 0
M  V30 5429 C 534.413 -3.42245 -2.50458 0
M  V30 5430 N 534.804 -4.60645 -2.089 0
M  V30 5431 C 533.102 -3.46023 -2.81397 0
M  V30 5432 C 533.803 -5.42805 -2.09135 0
M  V30 5433 N 532.779 -4.82732 -2.49941 0
M  V30 5434 H 536.581 -2.78537 -0.937771 0
M  V30 5435 H 534.095 -1.56826 -0.421824 0
M  V30 5436 H 536.092 -2.44278 -3.37837 0
M  V30 5437 H 534.752 -1.34484 -2.95541 0
M  V30 5438 H 535.763 -4.85651 -1.79899 0
M  V30 5439 H 532.44 -2.68654 -3.1958 0
M  V30 5440 H 533.83 -6.47601 -1.79059 0
M  V30 5441 N 536.55 0.480323 -1.50102 0
M  V30 5442 C 537.775 1.26126 -1.64642 0
M  V30 5443 C 538.2 1.85257 -0.325823 0
M  V30 5444 O 537.558 1.66854 0.709194 0
M  V30 5445 C 537.606 2.35243 -2.73301 0
M  V30 5446 O 536.71 3.39646 -2.33911 0
M  V30 5447 H 536.051 0.371463 -0.550374 0
M  V30 5448 H 538.581 0.572696 -1.96421 0
M  V30 5449 H 538.591 2.80695 -2.96098 0
M  V30 5450 H 537.266 1.91574 -3.6915 0
M  V30 5451 H 535.843 2.99969 -2.21525 0
M  V30 5452 N 538.028 1.39524 0.732853 0
M  V30 5453 C 539.276 1.36594 1.48951 0
M  V30 5454 C 539.597 -0.0367507 1.94965 0
M  V30 5455 O 538.867 -0.988391 1.69138 0
M  V30 5456 H 537.447 0.502673 0.552566 0
M  V30 5457 H 540.109 1.74411 0.869869 0
M  V30 5458 H 539.205 2.03 2.3706 0
M  V30 5459 N 539.506 -0.963266 1.24736 0
M  V30 5460 C 540.453 -2.05857 1.04363 0
M  V30 5461 C 541.423 -1.6604 -0.0444951 0
M  V30 5462 O 542.608 -1.90477 0.110999 0
M  V30 5463 C 539.748 -3.38745 0.659235 0
M  V30 5464 C 538.861 -3.9173 1.82131 0
M  V30 5465 C 537.996 -5.12906 1.38208 0
M  V30 5466 C 537.035 -5.58098 2.51382 0
M  V30 5467 N 536.172 -6.7049 2.08295 0
M  V30 5468 H 541.012 -2.22616 1.98107 0
M  V30 5469 H 538.549 -1.09103 0.986661 0
M  V30 5470 H 540.507 -4.15107 0.417371 0
M  V30 5471 H 539.137 -3.21898 -0.241201 0
M  V30 5472 H 538.189 -3.11966 2.17672 0
M  V30 5473 H 539.501 -4.21225 2.67153 0
M  V30 5474 H 538.655 -5.96657 1.09935 0
M  V30 5475 H 537.394 -4.85105 0.502456 0
M  V30 5476 H 536.399 -4.72917 2.80409 0
M  V30 5477 H 537.624 -5.87911 3.39909 0
M  V30 5478 H 535.57 -6.44416 1.22737 0
M  V30 5479 H 535.487 -6.99458 2.86869 0
M  V30 5480 H 536.755 -7.57672 1.83175 0
M  V30 5481 N 540.985 -1.06182 -1.16461 0
M  V30 5482 C 542.21 -0.798599 -1.91408 0
M  V30 5483 C 542.635 0.640987 -1.76842 0
M  V30 5484 O 541.993 1.44652 -1.09296 0
M  V30 5485 C 542.041 -1.19665 -3.40165 0
M  V30 5486 O 541.145 -0.334768 -4.11039 0
M  V30 5487 H 540.486 -0.291961 -0.596368 0
M  V30 5488 H 543.016 -1.41732 -1.47557 0
M  V30 5489 H 543.026 -1.16772 -3.90933 0
M  V30 5490 H 541.701 -2.24526 -3.50087 0
M  V30 5491 H 540.278 -0.425168 -3.70468 0
M  V30 5492 N 542.463 1.3308 -0.844243 0
M  V30 5493 C 543.712 1.96868 -0.438833 0
M  V30 5494 C 544.025 1.67599 1.00846 0
M  V30 5495 O 545.231 2.25043 1.51881 0
M  V30 5496 C 543.687 3.5234 -0.73377 0
M  V30 5497 C 543.295 3.90481 -2.1961 0
M  V30 5498 C 545.039 4.22653 -0.395574 0
M  V30 5499 C 542.946 5.38954 -2.43481 0
M  V30 5500 H 541.876 0.736749 -0.160364 0
M  V30 5501 H 544.527 1.51623 -1.03358 0
M  V30 5502 H 542.909 3.95941 -0.068589 0
M  V30 5503 H 544.083 3.57922 -2.90221 0
M  V30 5504 H 542.398 3.33165 -2.4978 0
M  V30 5505 H 544.995 5.31848 -0.551477 0
M  V30 5506 H 545.338 4.11004 0.661921 0
M  V30 5507 H 545.871 3.84601 -1.01621 0
M  V30 5508 H 542.61 5.55612 -3.47816 0
M  V30 5509 H 542.13 5.72954 -1.77437 0
M  V30 5510 H 543.809 6.05907 -2.26905 0
M  V30 5511 N 543.941 0.601185 1.45683 0
M  V30 5512 C 545.357 0.264315 1.57396 0
M  V30 5513 C 545.557 -1.23324 1.59353 0
M  V30 5514 O 544.613 -2.01594 1.52039 0
M  V30 5515 C 545.926 0.929839 2.85962 0
M  V30 5516 C 547.474 0.905156 2.99626 0
M  V30 5517 C 547.949 1.55057 4.30954 0
M  V30 5518 N 549.44 1.51576 4.37697 0
M  V30 5519 C 550.175 1.98436 5.37969 0
M  V30 5520 N 549.671 2.53352 6.44813 0
M  V30 5521 N 551.464 1.89242 5.29286 0
M  V30 5522 H 543.615 1.57363 1.42656 0
M  V30 5523 H 545.878 0.658831 0.681649 0
M  V30 5524 H 545.584 1.98404 2.90394 0
M  V30 5525 H 545.458 0.449224 3.74515 0
M  V30 5526 H 547.845 -0.14048 2.94765 0
M  V30 5527 H 547.926 1.42397 2.12501 0
M  V30 5528 H 547.57 2.5955 4.36573 0
M  V30 5529 H 547.5 1.00682 5.16886 0
M  V30 5530 H 549.991 1.11452 3.61091 0
M  V30 5531 H 550.304 2.86918 7.17564 0
M  V30 5532 H 548.649 2.57388 6.45582 0
M  V30 5533 H 551.84 1.46083 4.44722 0
M  V30 5534 H 552.013 2.26075 6.07284 0
M  V30 5535 N 545.419 -1.53889 0.339982 0
M  V30 5536 C 546.647 -2.05271 -0.259114 0
M  V30 5537 C 547.062 -1.21517 -1.44496 0
M  V30 5538 O 546.419 -0.24966 -1.80784 0
M  V30 5539 C 546.47 -3.55092 -0.677634 0
M  V30 5540 O 546.191 -4.35667 0.461051 0
M  V30 5541 C 547.692 -4.22631 -1.33782 0
M  V30 5542 H 544.912 -0.669085 -0.0506566 0
M  V30 5543 H 547.456 -1.9852 0.490935 0
M  V30 5544 H 545.611 -3.62077 -1.37763 0
M  V30 5545 H 546.025 -5.24343 0.128144 0
M  V30 5546 H 547.499 -5.28861 -1.58145 0
M  V30 5547 H 547.976 -3.74758 -2.29027 0
M  V30 5548 H 548.582 -4.19829 -0.679957 0
M  V30 5549 N 546.897 -0.0685191 -1.57451 0
M  V30 5550 C 548.143 0.602239 -1.93652 0
M  V30 5551 C 548.476 1.6946 -0.948526 0
M  V30 5552 O 547.751 1.94487 0.022782 0
M  V30 5553 C 548.034 1.18223 -3.4014 0
M  V30 5554 C 547.887 0.0967431 -4.49696 0
M  V30 5555 C 549.206 2.08872 -3.87377 0
M  V30 5556 H 546.325 0.217453 -0.70419 0
M  V30 5557 H 548.967 -0.133821 -1.89528 0
M  V30 5558 H 547.117 1.80953 -3.43785 0
M  V30 5559 H 548.789 -0.536155 -4.58174 0
M  V30 5560 H 547.032 -0.573063 -4.29998 0
M  V30 5561 H 547.703 0.542894 -5.49324 0
M  V30 5562 H 550.179 1.56081 -3.85717 0
M  V30 5563 H 549.055 2.46389 -4.90493 0
M  V30 5564 H 549.316 2.99572 -3.25129 0
M  V30 5565 N 548.375 1.56261 0.205012 0
M  V30 5566 C 549.621 1.80306 0.9283 0
M  V30 5567 C 549.954 0.640932 1.83319 0
M  V30 5568 O 549.229 -0.359032 1.91158 0
M  V30 5569 C 549.512 3.14547 1.75306 0
M  V30 5570 C 549.365 4.41236 0.873562 0
M  V30 5571 C 550.684 3.45382 2.72762 0
M  V30 5572 H 547.803 0.655929 0.336044 0
M  V30 5573 H 550.445 1.88984 0.196211 0
M  V30 5574 H 548.595 3.0728 2.37721 0
M  V30 5575 H 550.267 4.60539 0.264887 0
M  V30 5576 H 548.51 4.33427 0.179773 0
M  V30 5577 H 549.181 5.31639 1.48541 0
M  V30 5578 H 551.657 3.52884 2.20481 0
M  V30 5579 H 550.533 4.40449 3.2756 0
M  V30 5580 H 550.794 2.68377 3.51321 0
M  V30 5581 N 549.853 -0.472356 1.50355 0
M  V30 5582 C 550.8 -1.57051 1.69126 0
M  V30 5583 C 551.77 -1.5733 0.532574 0
M  V30 5584 O 552.955 -1.7488 0.762994 0
M  V30 5585 C 550.095 -2.95033 1.79024 0
M  V30 5586 C 549.208 -3.04552 3.06386 0
M  V30 5587 C 548.343 -4.33441 3.07087 0
M  V30 5588 C 547.382 -4.36697 4.28908 0
M  V30 5589 N 546.519 -5.57056 4.27356 0
M  V30 5590 H 551.359 -1.40351 2.62879 0
M  V30 5591 H 548.896 -0.682403 1.30314 0
M  V30 5592 H 550.854 -3.75048 1.82744 0
M  V30 5593 H 549.484 -3.10371 0.887109 0
M  V30 5594 H 548.536 -2.17419 3.12143 0
M  V30 5595 H 549.848 -3.02818 3.96362 0
M  V30 5596 H 549.002 -5.21801 3.09529 0
M  V30 5597 H 547.741 -4.37782 2.14939 0
M  V30 5598 H 546.746 -3.46734 4.2668 0
M  V30 5599 H 547.971 -4.34049 5.22282 0
M  V30 5600 H 545.917 -5.62184 3.3806 0
M  V30 5601 H 545.834 -5.57058 5.111 0
M  V30 5602 H 547.102 -6.47545 4.33942 0
M  V30 5603 N 551.331 -1.39911 -0.725443 0
M  V30 5604 C 552.58 -1.36963 -1.48068 0
M  V30 5605 C 552.893 0.0284478 -1.95579 0
M  V30 5606 O 554.099 0.180535 -2.70899 0
M  V30 5607 C 552.555 -2.40664 -2.67598 0
M  V30 5608 C 552.163 -3.86234 -2.26997 0
M  V30 5609 C 553.907 -2.46807 -3.45379 0
M  V30 5610 C 551.814 -4.81554 -3.43307 0
M  V30 5611 H 550.744 -0.509223 -0.556065 0
M  V30 5612 H 553.395 -1.65602 -0.790454 0
M  V30 5613 H 551.777 -2.05109 -3.38742 0
M  V30 5614 H 552.951 -4.3088 -1.63337 0
M  V30 5615 H 551.266 -3.83475 -1.62284 0
M  V30 5616 H 553.863 -3.15213 -4.31909 0
M  V30 5617 H 554.206 -1.49552 -3.8851 0
M  V30 5618 H 554.739 -2.81303 -2.81271 0
M  V30 5619 H 551.478 -5.80106 -3.05217 0
M  V30 5620 H 550.998 -4.4158 -4.05915 0
M  V30 5621 H 552.677 -5.0091 -4.0951 0
M  V30 5622 O 552.848 0.866802 -1.36267 0
M  V30 5623 H 553.539 1.50585 -1.21835 0
M  V30 END ATOM
M  V30 BEGIN BOND
M  V30 END BOND
M  V30 END CTAB
M  END
$$$$
