drugbank_target|P08238 Heat shock protein HSP 90-beta (DB02424; DB02754; DB03758; DB05134; DB06070; DB07594; DB07877; DB08045; DB08153; DB08292; DB08293; DB08346; DB08464; DB08465; DB09221)
 OpenBabel12092120013D

  0  0  0     0  0            999 V3000
M  V30 BEGIN CTAB
M  V30 COUNTS 11658 11751 0 0 0
M  V30 BEGIN ATOM
M  V30 1 H -0.908 1.98254 -0.117106 0
M  V30 2 N 0 1.576 0 0
M  V30 3 C 0.933 2.03868 1.02534 0
M  V30 4 C 1.911 0.928543 1.3348 0
M  V30 5 O 3.095 1.19667 1.45644 0
M  V30 6 C 0.222 2.43627 2.35294 0
M  V30 7 C -0.732 3.65373 2.2001 0
M  V30 8 S 0.101 5.13292 1.52614 0
M  V30 9 C 1.257 5.56322 2.86805 0
M  V30 10 H 1.49 2.90518 0.631377 0
M  V30 11 H -0.977 1.52953 0.210867 0
M  V30 12 H 0.981 2.67203 3.11629 0
M  V30 13 H -0.358 1.57376 2.7183 0
M  V30 14 H -1.165 3.90944 3.18086 0
M  V30 15 H -1.563 3.418 1.51819 0
M  V30 16 H 0.729 5.58782 3.83104 0
M  V30 17 H 1.672 6.56266 2.65933 0
M  V30 18 H 2.08 4.83886 2.90714 0
M  V30 19 N 1.4781 -0.272755 1.55222 0
M  V30 20 C 2.8891 -0.84378 1.66545 0
M  V30 21 C 3.2401 -1.87035 0.592641 0
M  V30 22 O 2.3651 -2.14761 -0.265818 0
M  V30 23 C 2.9601 -1.53723 3.01918 0
M  V30 24 C 1.5191 -2.05628 3.15268 0
M  V30 25 C 0.6661 -0.898424 2.62343 0
M  V30 26 H 3.6171 -0.0490998 1.58624 0
M  V30 27 H 3.6381 -2.40421 2.94921 0
M  V30 28 H 3.1501 -0.78983 3.79978 0
M  V30 29 H 1.2511 -2.83329 2.41983 0
M  V30 30 H 1.3641 -2.27142 4.21833 0
M  V30 31 H -0.2719 -1.29186 2.19506 0
M  V30 32 H 0.5111 -0.164528 3.42906 0
M  V30 33 N 2.9562 -1.48159 -0.537278 0
M  V30 34 C 3.8662 -1.64807 -1.6696 0
M  V30 35 C 4.8822 -0.530651 -1.65711 0
M  V30 36 O 6.0582 -0.800784 -1.84796 0
M  V30 37 C 3.1232 -1.67708 -3.03438 0
M  V30 38 C 2.1842 -2.91025 -3.156 0
M  V30 39 C 1.4172 -2.93778 -4.45567 0
M  V30 40 O 1.6402 -2.05153 -5.3223 0
M  V30 41 O 0.5742 -3.85868 -4.61941 0
M  V30 42 H 4.4002 -2.6066 -1.55853 0
M  V30 43 H 1.9852 -1.31475 -0.709549 0
M  V30 44 H 3.8672 -1.7218 -3.84619 0
M  V30 45 H 2.5422 -0.750278 -3.14885 0
M  V30 46 H 1.4492 -2.92089 -2.33741 0
M  V30 47 H 2.7822 -3.83065 -3.09066 0
M  V30 48 N 4.4343 0.785586 -1.36625 0
M  V30 49 C 5.3443 1.92964 -1.33425 0
M  V30 50 C 6.3603 1.72394 -0.235851 0
M  V30 51 O 7.5363 1.95866 -0.468878 0
M  V30 52 C 4.6013 3.27884 -1.12662 0
M  V30 53 C 3.6623 3.61204 -2.32013 0
M  V30 54 C 2.8953 4.89687 -2.12231 0
M  V30 55 O 3.1183 5.59704 -1.09945 0
M  V30 56 O 2.0523 5.21752 -3.00098 0
M  V30 57 H 5.8783 1.98613 -2.29753 0
M  V30 58 H 3.4633 0.926384 -1.17211 0
M  V30 59 H 5.3453 4.08614 -1.03016 0
M  V30 60 H 4.0203 3.23118 -0.193991 0
M  V30 61 H 2.9273 2.80765 -2.47228 0
M  V30 62 H 4.2603 3.70698 -3.23796 0
M  V30 63 N 5.9124 1.20967 1.01018 0
M  V30 64 C 7.1584 1.02526 1.74975 0
M  V30 65 C 7.4914 -0.4408 1.89131 0
M  V30 66 O 6.7664 -1.32718 1.42184 0
M  V30 67 C 7.0494 1.71699 3.1653 0
M  V30 68 C 6.9024 3.25791 3.10129 0
M  V30 69 C 8.2214 1.45531 4.15342 0
M  V30 70 H 5.3404 0.373863 0.635134 0
M  V30 71 H 7.9824 1.49071 1.17805 0
M  V30 72 H 6.1324 1.32128 3.65341 0
M  V30 73 H 7.8044 3.74697 2.69072 0
M  V30 74 H 6.0474 3.56363 2.47362 0
M  V30 75 H 6.7184 3.69353 4.10222 0
M  V30 76 H 9.1944 1.79872 3.75213 0
M  V30 77 H 8.0704 1.96453 5.1254 0
M  V30 78 H 8.3314 0.384237 4.40427 0
M  V30 79 N 7.3905 -1.2043 1.01659 0
M  V30 80 C 8.3405 -2.21076 0.557623 0
M  V30 81 C 9.3245 -1.56176 -0.387029 0
M  V30 82 O 10.5165 -1.7575 -0.209996 0
M  V30 83 C 7.6455 -3.43146 -0.102707 0
M  V30 84 C 6.7315 -4.15213 0.863652 0
M  V30 85 N 7.1225 -4.63662 2.02117 0
M  V30 86 C 5.4205 -4.40716 0.684472 0
M  V30 87 C 6.1215 -5.18868 2.62966 0
M  V30 88 N 5.0975 -5.0893 1.91027 0
M  V30 89 H 8.8995 -2.56201 1.44008 0
M  V30 90 H 6.4135 -1.36366 0.881931 0
M  V30 91 H 8.4105 -4.14475 -0.449054 0
M  V30 92 H 7.0705 -3.09526 -0.981003 0
M  V30 93 H 8.0815 -4.58877 2.40109 0
M  V30 94 H 4.7585 -4.17245 -0.14577 0
M  V30 95 H 6.1485 -5.6673 3.60924 0
M  V30 96 N 8.8686 -0.792821 -1.36206 0
M  V30 97 C 9.8186 -0.166598 -2.27391 0
M  V30 98 C 10.8026 0.651479 -1.47121 0
M  V30 99 O 11.9946 0.510994 -1.69463 0
M  V30 100 C 9.1236 0.695033 -3.36191 0
M  V30 101 C 8.2096 -0.132019 -4.23894 0
M  V30 102 N 8.6006 -1.18822 -4.91645 0
M  V30 103 C 6.8986 0.0885952 -4.45912 0
M  V30 104 C 7.5996 -1.69198 -5.56549 0
M  V30 105 N 6.5756 -1.00065 -5.34311 0
M  V30 106 H 10.3776 -0.974947 -2.77258 0
M  V30 107 H 7.8916 -0.632616 -1.49572 0
M  V30 108 H 9.8886 1.1596 -4.00448 0
M  V30 109 H 8.5486 1.50189 -2.87877 0
M  V30 110 H 9.5596 -1.57069 -4.93507 0
M  V30 111 H 6.2366 0.865688 -4.08426 0
M  V30 112 H 7.6266 -2.57395 -6.20643 0
M  V30 113 N 10.3467 1.47872 -0.545128 0
M  V30 114 C 11.5947 2.02093 -0.016553 0
M  V30 115 C 11.9157 1.42305 1.3332 0
M  V30 116 O 11.1857 0.593853 1.86682 0
M  V30 117 H 9.7657 0.746993 -0.00313038 0
M  V30 118 H 12.4277 1.81414 -0.712397 0
M  V30 119 H 11.5237 3.11996 0.0805422 0
M  V30 120 N 11.8248 0.280983 1.55075 0
M  V30 121 C 12.7348 -0.61388 2.26426 0
M  V30 122 C 13.7508 -1.16521 1.29224 0
M  V30 123 O 14.9268 -1.19426 1.62171 0
M  V30 124 C 11.9918 -1.7788 2.9759 0
M  V30 125 C 11.0528 -1.26355 4.10284 0
M  V30 126 C 10.2858 -2.37295 4.78045 0
M  V30 127 O 10.5088 -3.56777 4.45047 0
M  V30 128 O 9.4428 -2.05119 5.65871 0
M  V30 129 H 13.2688 -0.0356932 3.03679 0
M  V30 130 H 10.8538 0.0481686 1.49322 0
M  V30 131 H 12.7358 -2.45791 3.42293 0
M  V30 132 H 11.4108 -2.34397 2.23249 0
M  V30 133 H 10.3178 -0.550735 3.70024 0
M  V30 134 H 11.6508 -0.744065 4.86543 0
M  V30 135 N 13.3029 -1.57598 0.00835791 0
M  V30 136 C 14.2129 -2.12385 -0.996487 0
M  V30 137 C 15.2289 -1.07108 -1.37127 0
M  V30 138 O 16.4049 -1.39055 -1.4569 0
M  V30 139 C 13.4699 -2.62314 -2.26699 0
M  V30 140 C 12.5309 -3.82225 -1.95456 0
M  V30 141 C 11.7639 -4.29763 -3.16449 0
M  V30 142 O 11.9869 -3.76584 -4.28416 0
M  V30 143 O 10.9209 -5.21832 -2.99958 0
M  V30 144 H 14.7469 -2.98479 -0.560725 0
M  V30 145 H 12.3319 -1.47903 -0.210987 0
M  V30 146 H 14.2139 -2.94589 -3.01322 0
M  V30 147 H 12.8889 -1.79313 -2.69497 0
M  V30 148 H 11.7959 -3.54909 -1.18282 0
M  V30 149 H 13.1289 -4.66324 -1.57489 0
M  V30 150 N 14.781 0.264519 -1.55364 0
M  V30 151 C 15.691 1.34902 -1.91934 0
M  V30 152 C 16.707 1.53595 -0.817593 0
M  V30 153 O 17.883 1.67558 -1.11742 0
M  V30 154 C 14.948 2.68676 -2.19121 0
M  V30 155 C 14.009 2.58657 -3.4263 0
M  V30 156 C 13.242 3.86051 -3.68511 0
M  V30 157 O 13.465 4.87126 -2.96757 0
M  V30 158 O 12.399 3.85744 -4.62045 0
M  V30 159 H 16.225 1.06883 -2.8427 0
M  V30 160 H 13.81 0.463775 -1.42019 0
M  V30 161 H 15.692 3.47759 -2.37995 0
M  V30 162 H 14.367 2.96463 -1.29966 0
M  V30 163 H 13.274 1.7792 -3.29082 0
M  V30 164 H 14.607 2.35818 -4.32031 0
M  V30 165 N 16.2591 1.48442 0.529413 0
M  V30 166 C 17.5051 1.5672 1.28711 0
M  V30 167 C 17.8381 0.2406 1.92704 0
M  V30 168 O 17.1131 -0.753454 1.79313 0
M  V30 169 C 17.3961 2.70587 2.37603 0
M  V30 170 C 17.2491 4.12953 1.78297 0
M  V30 171 C 18.5681 2.80212 3.39366 0
M  V30 172 H 15.6871 0.570474 0.466613 0
M  V30 173 H 18.3291 1.80617 0.589706 0
M  V30 174 H 16.4791 2.50342 2.97088 0
M  V30 175 H 18.1511 4.44639 1.22858 0
M  V30 176 H 16.3941 4.19927 1.0883 0
M  V30 177 H 17.0651 4.88448 2.57144 0
M  V30 178 H 19.5411 2.98553 2.89836 0
M  V30 179 H 18.4171 3.61611 4.12951 0
M  V30 180 H 18.6781 1.88393 3.99951 0
M  V30 181 N 17.7372 -0.778329 1.37039 0
M  V30 182 C 18.6472 -1.92253 1.34446 0
M  V30 183 C 19.6632 -1.72267 0.244991 0
M  V30 184 O 20.8392 -1.95615 0.479258 0
M  V30 185 C 17.9042 -3.27282 1.144 0
M  V30 186 C 16.9652 -3.59969 2.33925 0
M  V30 187 C 16.1982 -4.88555 2.14825 0
M  V30 188 O 16.4212 -5.59113 1.12912 0
M  V30 189 O 15.3552 -5.20153 3.02861 0
M  V30 190 H 19.1812 -1.97392 2.30803 0
M  V30 191 H 16.7662 -0.920154 1.17701 0
M  V30 192 H 18.6482 -4.08062 1.05182 0
M  V30 193 H 17.3232 -3.23011 0.211124 0
M  V30 194 H 16.2302 -2.7945 2.48714 0
M  V30 195 H 17.5632 -3.68976 3.25757 0
M  V30 196 N 19.2153 -1.21501 -1.00376 0
M  V30 197 C 20.4433 -1.059 -1.77744 0
M  V30 198 C 20.8583 0.391125 -1.84704 0
M  V30 199 O 20.2153 1.27133 -1.30933 0
M  V30 200 C 20.2663 -1.65111 -3.21591 0
M  V30 201 O 19.9873 -3.0445 -3.15027 0
M  V30 202 C 21.4883 -1.54637 -4.15454 0
M  V30 203 H 18.7083 -0.371825 -0.558558 0
M  V30 204 H 21.2523 -1.60865 -1.26264 0
M  V30 205 H 19.4073 -1.14235 -3.70175 0
M  V30 206 H 19.8213 -3.3278 -4.0541 0
M  V30 207 H 21.2953 -2.00808 -5.14179 0
M  V30 208 H 21.7723 -0.501022 -4.36333 0
M  V30 209 H 22.3783 -2.04767 -3.72761 0
M  V30 210 N 20.6934 1.19889 -1.02296 0
M  V30 211 C 21.9404 1.8942 -0.715972 0
M  V30 212 C 22.2684 1.79251 0.754944 0
M  V30 213 O 21.5234 1.17526 1.56481 0
M  V30 214 C 21.8224 3.39883 -1.10518 0
M  V30 215 C 21.4884 3.70254 -2.57337 0
M  V30 216 C 20.1504 3.78254 -2.97452 0
M  V30 217 C 22.5024 3.84052 -3.52354 0
M  V30 218 C 19.8304 3.97514 -4.31509 0
M  V30 219 C 22.1824 4.04824 -4.86108 0
M  V30 220 C 20.8464 4.11054 -5.25919 0
M  V30 221 H 20.1164 0.693138 -0.261993 0
M  V30 222 H 22.7634 1.42012 -1.28472 0
M  V30 223 H 21.0684 3.8915 -0.454953 0
M  V30 224 H 22.7654 3.9199 -0.845261 0
M  V30 225 H 19.3554 3.64632 -2.25258 0
M  V30 226 H 23.5394 3.77221 -3.22518 0
M  V30 227 H 18.7954 4.00574 -4.61898 0
M  V30 228 H 22.9694 4.14442 -5.59653 0
M  V30 229 H 20.5964 4.2573 -6.29808 0
M  V30 230 N 22.1715 0.800033 1.35784 0
M  V30 231 C 23.1345 0.211565 2.28221 0
M  V30 232 C 24.1345 -0.59728 1.49296 0
M  V30 233 O 25.3245 -0.416721 1.69142 0
M  V30 234 C 22.4565 -0.705846 3.33513 0
M  V30 235 H 23.6495 1.02677 2.81776 0
M  V30 236 H 21.2025 0.570211 1.45528 0
M  V30 237 H 21.9375 -1.54498 2.85133 0
M  V30 238 H 21.7225 -0.127655 3.91892 0
M  V30 239 H 23.2125 -1.11211 4.02519 0
M  V30 240 N 23.6496 -1.47581 0.552962 0
M  V30 241 C 24.8966 -2.02482 0.0273243 0
M  V30 242 C 25.2246 -1.42776 -1.32081 0
M  V30 243 O 24.4796 -0.571393 -1.87173 0
M  V30 244 C 24.7786 -3.57199 -0.119728 0
M  V30 245 C 24.4446 -4.35804 1.15697 0
M  V30 246 C 23.1066 -4.57 1.50681 0
M  V30 247 C 25.4586 -4.81167 2.00319 0
M  V30 248 C 22.7866 -5.20807 2.70142 0
M  V30 249 C 25.1386 -5.46293 3.18978 0
M  V30 250 C 23.8026 -5.65722 3.54281 0
M  V30 251 H 23.0726 -0.740933 0.00999866 0
M  V30 252 H 25.7196 -1.77302 0.72362 0
M  V30 253 H 24.0246 -3.81348 -0.89896 0
M  V30 254 H 25.7216 -3.97324 -0.541718 0
M  V30 255 H 22.3116 -4.19582 0.874561 0
M  V30 256 H 26.4956 -4.64574 1.74599 0
M  V30 257 H 21.7516 -5.34045 2.97668 0
M  V30 258 H 25.9256 -5.80407 3.84838 0
M  V30 259 H 23.5526 -6.14936 4.46942 0
M  V30 260 N 25.1277 -0.289203 -1.54924 0
M  V30 261 C 26.0597 0.625583 -2.20497 0
M  V30 262 C 27.0727 1.10667 -1.19402 0
M  V30 263 O 28.2617 1.02615 -1.46056 0
M  V30 264 C 25.3617 1.86702 -2.82835 0
M  V30 265 C 24.5347 1.5304 -4.09753 0
M  V30 266 C 23.5937 2.62576 -4.56005 0
M  V30 267 O 22.6197 2.28167 -5.21468 0
M  V30 268 N 23.8217 3.92901 -4.27328 0
M  V30 269 H 26.5867 0.0642801 -2.99631 0
M  V30 270 H 24.1477 -0.110896 -1.6152 0
M  V30 271 H 26.1397 2.59304 -3.10715 0
M  V30 272 H 24.7097 2.33702 -2.07611 0
M  V30 273 H 23.9297 0.637564 -3.8901 0
M  V30 274 H 25.2177 1.28072 -4.92418 0
M  V30 275 H 24.6157 4.23671 -3.74859 0
M  V30 276 H 23.1727 4.61837 -4.59946 0
M  V30 277 N 26.6058 1.57591 -0.0167156 0
M  V30 278 C 27.5688 2.08393 0.954204 0
M  V30 279 C 28.5688 0.996531 1.26198 0
M  V30 280 O 29.7588 1.25858 1.20438 0
M  V30 281 C 26.8908 2.5394 2.27436 0
M  V30 282 H 28.0838 2.95455 0.514451 0
M  V30 283 H 25.6368 1.54582 0.231089 0
M  V30 284 H 26.3718 1.70171 2.76066 0
M  V30 285 H 26.1568 3.33371 2.06412 0
M  V30 286 H 27.6468 2.93512 2.97053 0
M  V30 287 N 28.0839 -0.256276 1.55502 0
M  V30 288 C 28.9939 -1.33882 1.92647 0
M  V30 289 C 30.0099 -1.53159 0.825727 0
M  V30 290 O 31.1859 -1.66963 1.12629 0
M  V30 291 C 28.2509 -2.6751 2.20543 0
M  V30 292 C 27.3119 -2.56836 3.43997 0
M  V30 293 C 26.5449 -3.84092 3.70553 0
M  V30 294 O 26.7679 -4.85545 2.99336 0
M  V30 295 O 25.7019 -3.83288 4.64084 0
M  V30 296 H 29.5279 -1.05374 2.84833 0
M  V30 297 H 27.1129 -0.456237 1.42263 0
M  V30 298 H 28.9949 -3.46492 2.39835 0
M  V30 299 H 27.6699 -2.9577 1.31536 0
M  V30 300 H 26.5769 -1.76172 3.30021 0
M  V30 301 H 27.9099 -2.33523 4.33275 0
M  V30 302 N 29.562 -1.4872 -0.521534 0
M  V30 303 C 30.811 -1.56419 -1.27341 0
M  V30 304 C 31.124 -0.246805 -1.94037 0
M  V30 305 O 32.33 -0.202122 -2.70747 0
M  V30 306 C 30.786 -2.75896 -2.31105 0
M  V30 307 C 30.394 -4.14311 -1.70441 0
M  V30 308 C 32.138 -2.92913 -3.07249 0
M  V30 309 C 30.045 -5.25038 -2.72194 0
M  V30 310 H 28.975 -0.582344 -0.478949 0
M  V30 311 H 31.626 -1.75071 -0.549779 0
M  V30 312 H 30.008 -2.50697 -3.06541 0
M  V30 313 H 31.182 -4.49564 -1.01136 0
M  V30 314 H 29.497 -4.02482 -1.06759 0
M  V30 315 H 32.094 -3.72805 -3.83302 0
M  V30 316 H 32.437 -2.02689 -3.63625 0
M  V30 317 H 32.97 -3.18054 -2.38928 0
M  V30 318 H 29.709 -6.17255 -2.20627 0
M  V30 319 H 29.229 -4.94263 -3.39801 0
M  V30 320 H 30.908 -5.53508 -3.35019 0
M  V30 321 N 31.0401 0.771051 -1.3745 0
M  V30 322 C 32.0031 1.86598 -1.33093 0
M  V30 323 C 33.0031 1.59076 -0.234845 0
M  V30 324 O 34.1931 1.67145 -0.490732 0
M  V30 325 C 31.3251 3.23747 -1.06773 0
M  V30 326 H 32.5181 1.91873 -2.30488 0
M  V30 327 H 30.0711 0.970876 -1.2249 0
M  V30 328 H 30.8061 3.24148 -0.099129 0
M  V30 329 H 30.5911 3.45115 -1.86112 0
M  V30 330 H 32.0811 4.03824 -1.06377 0
M  V30 331 N 32.5182 1.22032 0.997298 0
M  V30 332 C 33.4502 0.944263 2.08845 0
M  V30 333 C 34.4632 -0.0754663 1.62625 0
M  V30 334 O 35.6522 0.157994 1.77799 0
M  V30 335 C 32.7522 0.397723 3.36558 0
M  V30 336 C 31.9252 1.47362 4.11829 0
M  V30 337 C 30.9842 0.934951 5.17827 0
M  V30 338 O 30.0102 1.62016 5.45655 0
M  V30 339 N 31.2122 -0.245895 5.79979 0
M  V30 340 H 33.9772 1.88363 2.33109 0
M  V30 341 H 31.5382 1.12661 1.16272 0
M  V30 342 H 33.5302 0.0227771 4.04694 0
M  V30 343 H 32.1002 -0.446646 3.09393 0
M  V30 344 H 31.3202 2.02208 3.38386 0
M  V30 345 H 32.6082 2.19764 4.58891 0
M  V30 346 H 32.0062 -0.819475 5.59733 0
M  V30 347 H 30.5632 -0.562272 6.4937 0
M  V30 348 N 33.9963 -1.19345 1.0293 0
M  V30 349 C 34.9263 -2.2481 0.631105 0
M  V30 350 C 35.9073 -1.66245 -0.360104 0
M  V30 351 O 37.0923 -1.92677 -0.242726 0
M  V30 352 C 34.2223 -3.47295 -0.0184607 0
M  V30 353 C 33.1763 -4.18536 0.895073 0
M  V30 354 C 32.5023 -5.34586 0.110592 0
M  V30 355 C 33.8023 -4.73287 2.209 0
M  V30 356 H 35.4963 -2.58372 1.51275 0
M  V30 357 H 33.0423 -1.24194 0.728818 0
M  V30 358 H 34.9953 -4.20268 -0.308675 0
M  V30 359 H 33.7193 -3.12933 -0.934907 0
M  V30 360 H 32.3783 -3.47446 1.16949 0
M  V30 361 H 32.0263 -4.96469 -0.807902 0
M  V30 362 H 31.7263 -5.83183 0.719087 0
M  V30 363 H 33.2503 -6.10355 -0.172871 0
M  V30 364 H 34.6643 -5.38013 1.98028 0
M  V30 365 H 33.0613 -5.32373 2.76946 0
M  V30 366 H 34.1313 -3.91331 2.86336 0
M  V30 367 N 35.4744 -0.807222 -1.35358 0
M  V30 368 C 36.4074 -0.163572 -2.27613 0
M  V30 369 C 37.3854 0.670817 -1.48118 0
M  V30 370 O 38.5694 0.63796 -1.77376 0
M  V30 371 C 35.6964 0.773015 -3.29761 0
M  V30 372 C 34.7424 0.0181653 -4.26496 0
M  V30 373 S 35.5754 -1.31831 -5.19019 0
M  V30 374 C 36.7314 -0.38619 -6.24707 0
M  V30 375 H 36.9644 -0.945757 -2.81856 0
M  V30 376 H 34.4974 -0.602315 -1.42167 0
M  V30 377 H 36.4554 1.30788 -3.89108 0
M  V30 378 H 35.1164 1.52859 -2.74396 0
M  V30 379 H 34.3094 0.729534 -4.98692 0
M  V30 380 H 33.9114 -0.446761 -3.71322 0
M  V30 381 H 36.2034 0.428295 -6.76145 0
M  V30 382 H 37.1464 -1.07736 -6.99856 0
M  V30 383 H 37.5544 0.018398 -5.64497 0
M  V30 384 N 36.9525 1.47285 -0.560781 0
M  V30 385 C 38.1775 2.07359 -0.0410566 0
M  V30 386 C 38.6025 1.41017 1.24483 0
M  V30 387 O 37.9605 0.486368 1.74654 0
M  V30 388 C 38.0085 3.6035 0.134123 0
M  V30 389 O 37.1125 3.94681 1.19587 0
M  V30 390 H 36.4535 0.661887 -0.0529291 0
M  V30 391 H 38.9835 1.89252 -0.777482 0
M  V30 392 H 38.9935 4.0652 0.347207 0
M  V30 393 H 37.6685 4.08034 -0.805047 0
M  V30 394 H 36.2455 3.60251 0.962987 0
M  V30 395 N 38.4306 0.297415 1.54768 0
M  V30 396 C 39.3606 -0.573494 2.26348 0
M  V30 397 C 40.3416 -1.14085 1.26169 0
M  V30 398 O 41.5266 -1.17086 1.54934 0
M  V30 399 C 38.6566 -1.74716 3.00153 0
M  V30 400 C 37.6106 -1.31032 4.07449 0
M  V30 401 C 36.9366 -2.56887 4.68949 0
M  V30 402 C 38.2366 -0.444183 5.20408 0
M  V30 403 H 39.9306 0.0235131 2.99391 0
M  V30 404 H 37.4766 0.0127488 1.43994 0
M  V30 405 H 39.4296 -2.3625 3.48947 0
M  V30 406 H 38.1536 -2.37035 2.24682 0
M  V30 407 H 36.8126 -0.718066 3.59499 0
M  V30 408 H 36.4606 -3.17512 3.90122 0
M  V30 409 H 36.1606 -2.2836 5.41411 0
M  V30 410 H 37.6846 -3.19229 5.20505 0
M  V30 411 H 39.0986 -0.9651 5.65118 0
M  V30 412 H 37.4956 -0.252846 5.99567 0
M  V30 413 H 38.5656 0.531609 4.81977 0
M  V30 414 N 39.9087 -1.5758 0.0250728 0
M  V30 415 C 41.1577 -1.90811 -0.653767 0
M  V30 416 C 41.4707 -0.90273 -1.73523 0
M  V30 417 O 42.6767 -1.12614 -2.47043 0
M  V30 418 C 41.1327 -3.38804 -1.21409 0
M  V30 419 C 40.7407 -4.47692 -0.166126 0
M  V30 420 C 42.4847 -3.81108 -1.86967 0
M  V30 421 C 40.3917 -5.86779 -0.737856 0
M  V30 422 H 39.3217 -0.712063 -0.247956 0
M  V30 423 H 41.9727 -1.83281 0.0897137 0
M  V30 424 H 40.3547 -3.41252 -2.00905 0
M  V30 425 H 41.5287 -4.56797 0.606079 0
M  V30 426 H 39.8437 -4.14565 0.390466 0
M  V30 427 H 42.4407 -4.82375 -2.30692 0
M  V30 428 H 42.7837 -3.15953 -2.71071 0
M  V30 429 H 43.3167 -3.81065 -1.14167 0
M  V30 430 H 40.0557 -6.55468 0.0649577 0
M  V30 431 H 39.5757 -5.81288 -1.47864 0
M  V30 432 H 41.2547 -6.35223 -1.22884 0
M  V30 433 N 41.3868 0.248026 -1.55636 0
M  V30 434 C 42.6358 0.974134 -1.76617 0
M  V30 435 C 42.9488 1.86528 -0.588796 0
M  V30 436 O 44.1548 2.62805 -0.681594 0
M  V30 437 C 42.6108 1.78213 -3.12679 0
M  V30 438 C 42.2188 0.93843 -4.38061 0
M  V30 439 C 43.9628 2.50104 -3.42999 0
M  V30 440 C 41.8698 1.74225 -5.65155 0
M  V30 441 H 40.7998 0.36745 -0.658405 0
M  V30 442 H 43.4508 0.22884 -1.82067 0
M  V30 443 H 41.8328 2.56933 -3.01333 0
M  V30 444 H 43.0068 0.193635 -4.60393 0
M  V30 445 H 41.3218 0.332905 -4.15067 0
M  V30 446 H 43.9188 3.10694 -4.3517 0
M  V30 447 H 44.2618 3.21662 -2.64271 0
M  V30 448 H 44.7948 1.78395 -3.55556 0
M  V30 449 H 41.5338 1.07043 -6.46701 0
M  V30 450 H 41.0538 2.46235 -5.46926 0
M  V30 451 H 42.7328 2.30967 -6.0437 0
M  V30 452 N 42.8649 1.48995 0.513639 0
M  V30 453 C 43.8129 1.65199 1.63744 0
M  V30 454 C 44.8069 0.51809 1.61283 0
M  V30 455 O 46.0129 0.697335 1.65943 0
M  V30 456 H 42.3879 0.52069 0.542574 0
M  V30 457 H 44.3589 2.59552 1.47226 0
M  V30 458 C 43.1079 1.72409 3.01945 0
M  V30 459 H 42.4309 2.59029 3.04539 0
M  V30 460 H 43.8709 1.87785 3.80148 0
M  V30 461 C 42.3299 0.46618 3.33659 0
M  V30 462 O 42.8599 -0.413744 3.99564 0
M  V30 463 N 41.0659 0.332931 2.88687 0
M  V30 464 H 40.6129 1.04996 2.35231 0
M  V30 465 H 40.5709 -0.507665 3.10274 0
M  V30 466 N 44.343 -0.763751 1.37857 0
M  V30 467 C 45.571 -1.55293 1.36718 0
M  V30 468 C 45.986 -1.88745 -0.0455434 0
M  V30 469 O 45.343 -1.52039 -1.00947 0
M  V30 470 C 45.394 -2.85831 2.2132 0
M  V30 471 O 45.115 -2.5381 3.57089 0
M  V30 472 C 46.616 -3.80023 2.28249 0
M  V30 473 H 43.836 -0.480841 0.468009 0
M  V30 474 H 46.38 -0.946009 1.81303 0
M  V30 475 H 44.535 -3.42926 1.80223 0
M  V30 476 H 44.949 -3.37459 4.01524 0
M  V30 477 H 46.423 -4.68599 2.91752 0
M  V30 478 H 46.9 -4.1973 1.2932 0
M  V30 479 H 47.506 -3.28855 2.69693 0
M  V30 480 N 45.8211 -1.22559 -0.990812 0
M  V30 481 C 47.0681 -1.05141 -1.73065 0
M  V30 482 C 47.3961 0.413191 -1.9006 0
M  V30 483 O 46.6511 1.32257 -1.44245 0
M  V30 484 C 46.9501 -1.71011 -3.13831 0
M  V30 485 C 46.6161 -3.20911 -3.16745 0
M  V30 486 C 45.2781 -3.61812 -3.17247 0
M  V30 487 C 47.6301 -4.16846 -3.12872 0
M  V30 488 C 44.9581 -4.97127 -3.1158 0
M  V30 489 C 47.3101 -5.5214 -3.08746 0
M  V30 490 C 45.9741 -5.92419 -3.07565 0
M  V30 491 H 45.2441 -0.384738 -0.633291 0
M  V30 492 H 47.8911 -1.5235 -1.16025 0
M  V30 493 H 46.1961 -1.16133 -3.74193 0
M  V30 494 H 47.8931 -1.55023 -3.69823 0
M  V30 495 H 44.4831 -2.88344 -3.17105 0
M  V30 496 H 48.6671 -3.86263 -3.11632 0
M  V30 497 H 43.9231 -5.27562 -3.09012 0
M  V30 498 H 48.0971 -6.26201 -3.04705 0
M  V30 499 H 45.7241 -6.97236 -3.02929 0
M  V30 500 N 47.2992 1.18797 -1.03562 0
M  V30 501 C 48.5292 1.92319 -0.754773 0
M  V30 502 C 48.9372 1.7612 0.691248 0
M  V30 503 O 48.2802 1.08491 1.48241 0
M  V30 504 C 48.3422 3.44284 -1.03484 0
M  V30 505 C 48.0062 3.84258 -2.47376 0
M  V30 506 C 49.0032 3.88459 -3.45537 0
M  V30 507 C 46.6882 4.15701 -2.81954 0
M  V30 508 C 48.6822 4.23545 -4.76328 0
M  V30 509 C 46.3692 4.50458 -4.12954 0
M  V30 510 C 47.3672 4.54356 -5.09951 0
M  V30 511 O 47.0552 4.88305 -6.38603 0
M  V30 512 H 46.7872 0.617527 -0.275021 0
M  V30 513 H 49.3412 1.51683 -1.38497 0
M  V30 514 H 47.5712 3.85135 -0.347513 0
M  V30 515 H 49.2602 3.99049 -0.7426 0
M  V30 516 H 50.0262 3.6431 -3.20162 0
M  V30 517 H 45.9052 4.11847 -2.0713 0
M  V30 518 H 49.4492 4.26502 -5.52035 0
M  V30 519 H 45.3462 4.74067 -4.38099 0
M  V30 520 H 46.1142 5.06227 -6.43177 0
M  V30 521 N 48.7773 0.814389 1.34928 0
M  V30 522 C 50.0023 0.410097 2.03305 0
M  V30 523 C 50.4273 -0.973464 1.60951 0
M  V30 524 O 49.7853 -1.63185 0.789964 0
M  V30 525 C 49.8333 0.51049 3.56968 0
M  V30 526 O 48.9373 -0.473035 4.09678 0
M  V30 527 H 48.2783 0.170088 0.641846 0
M  V30 528 H 50.8083 1.10244 1.72358 0
M  V30 529 H 50.8183 0.383135 4.06197 0
M  V30 530 H 49.4933 1.51963 3.87144 0
M  V30 531 H 48.0703 -0.305272 3.71648 0
M  V30 532 N 50.2554 -1.46986 0.568584 0
M  V30 533 C 51.2034 -2.31858 -0.185649 0
M  V30 534 C 52.1974 -1.43624 -0.898249 0
M  V30 535 O 53.4034 -1.60327 -0.818242 0
M  V30 536 H 49.7784 -0.747866 -0.0787399 0
M  V30 537 H 51.7494 -2.93303 0.549191 0
M  V30 538 C 50.4984 -3.26513 -1.19519 0
M  V30 539 H 49.8214 -3.94377 -0.656285 0
M  V30 540 H 51.2614 -3.88707 -1.6936 0
M  V30 541 C 49.7204 -2.50847 -2.24894 0
M  V30 542 O 50.2504 -2.26119 -3.32014 0
M  V30 543 N 48.4564 -2.11656 -1.99124 0
M  V30 544 H 48.0034 -2.31966 -1.12024 0
M  V30 545 H 47.9614 -1.61347 -2.69842 0
M  V30 546 N 51.7335 -0.305618 -1.54608 0
M  V30 547 C 52.6805 0.568421 -2.23691 0
M  V30 548 C 53.6505 1.12592 -1.22116 0
M  V30 549 O 54.8355 1.16959 -1.50749 0
M  V30 550 C 51.9755 1.7322 -2.98477 0
M  V30 551 C 51.0885 1.20566 -4.14835 0
M  V30 552 C 50.2235 2.33368 -4.77193 0
M  V30 553 C 49.2625 1.7787 -5.85686 0
M  V30 554 N 48.3995 2.84263 -6.4198 0
M  V30 555 H 53.2395 -0.0272867 -2.97988 0
M  V30 556 H 50.7765 -0.0252363 -1.47078 0
M  V30 557 H 52.7345 2.41675 -3.40072 0
M  V30 558 H 51.3645 2.29947 -2.26548 0
M  V30 559 H 50.4165 0.413223 -3.78149 0
M  V30 560 H 51.7285 0.759417 -4.92985 0
M  V30 561 H 50.8825 3.09761 -5.21664 0
M  V30 562 H 49.6215 2.8132 -3.98385 0
M  V30 563 H 48.6265 0.99968 -5.40635 0
M  V30 564 H 49.8515 1.30816 -6.66381 0
M  V30 565 H 47.7975 3.31541 -5.66053 0
M  V30 566 H 47.7145 2.44149 -7.15491 0
M  V30 567 H 48.9825 3.6054 -6.91109 0
M  V30 568 N 53.2116 1.57565 -0.0334293 0
M  V30 569 C 54.1216 2.13943 0.962572 0
M  V30 570 C 55.1376 1.09276 1.35406 0
M  V30 571 O 56.3136 1.41355 1.4346 0
M  V30 572 C 53.3786 2.65887 2.22497 0
M  V30 573 C 52.4396 3.85286 1.8935 0
M  V30 574 C 51.6726 4.34743 3.09571 0
M  V30 575 O 51.8956 3.83352 4.22371 0
M  V30 576 O 50.8296 5.26538 2.91618 0
M  V30 577 H 54.6556 2.99333 0.513169 0
M  V30 578 H 52.2406 1.4822 0.18743 0
M  V30 579 H 54.1226 2.99346 2.96598 0
M  V30 580 H 52.7976 1.83578 2.6661 0
M  V30 581 H 51.7046 3.56746 1.1262 0
M  V30 582 H 53.0376 4.68771 1.5005 0
M  V30 583 N 54.6897 -0.239769 1.55765 0
M  V30 584 C 55.9387 -0.964754 1.77131 0
M  V30 585 C 56.2517 -1.86213 0.59868 0
M  V30 586 O 57.4577 -2.6244 0.695522 0
M  V30 587 C 55.9137 -1.76552 3.1362 0
M  V30 588 C 55.5217 -0.915185 4.38553 0
M  V30 589 C 57.2657 -2.48281 3.44321 0
M  V30 590 C 55.1727 -1.71225 5.66071 0
M  V30 591 H 54.1027 -0.363953 0.660344 0
M  V30 592 H 56.7537 -0.219181 1.82186 0
M  V30 593 H 55.1357 -2.55331 3.02691 0
M  V30 594 H 56.3097 -0.169217 4.60489 0
M  V30 595 H 54.6247 -0.310889 4.15238 0
M  V30 596 H 57.2217 -3.08382 4.36812 0
M  V30 597 H 57.5647 -3.20256 2.65973 0
M  V30 598 H 58.0977 -1.76507 3.56497 0
M  V30 599 H 54.8367 -1.03612 6.4726 0
M  V30 600 H 54.3567 -2.43331 5.48224 0
M  V30 601 H 56.0357 -2.27758 6.05587 0
M  V30 602 N 56.1678 -1.49265 -0.50573 0
M  V30 603 C 57.4148 -1.58513 -1.26015 0
M  V30 604 C 57.7428 -0.26972 -1.92621 0
M  V30 605 O 56.9978 0.741997 -1.81088 0
M  V30 606 C 57.2968 -2.69008 -2.35308 0
M  V30 607 C 56.9628 -4.10662 -1.86192 0
M  V30 608 C 55.6248 -4.49212 -1.72516 0
M  V30 609 C 57.9768 -4.99336 -1.49375 0
M  V30 610 C 55.3048 -5.74214 -1.20394 0
M  V30 611 C 57.6568 -6.24852 -0.987072 0
M  V30 612 C 56.3208 -6.62236 -0.836669 0
M  V30 613 H 55.5908 -0.580041 -0.461122 0
M  V30 614 H 58.2378 -1.83078 -0.561665 0
M  V30 615 H 56.5428 -2.38396 -3.10926 0
M  V30 616 H 58.2398 -2.73373 -2.93374 0
M  V30 617 H 54.8298 -3.8023 -1.97795 0
M  V30 618 H 59.0138 -4.70212 -1.5879 0
M  V30 619 H 54.2698 -6.01883 -1.07458 0
M  V30 620 H 58.4438 -6.92944 -0.692983 0
M  V30 621 H 56.0708 -7.58979 -0.430607 0
M  V30 622 N 57.6459 0.756429 -1.3826 0
M  V30 623 C 58.5759 1.88374 -1.37976 0
M  V30 624 C 59.5569 1.68311 -0.246082 0
M  V30 625 O 60.7419 1.88944 -0.44874 0
M  V30 626 C 57.8719 3.25864 -1.20125 0
M  V30 627 C 56.8259 3.60523 -2.30666 0
M  V30 628 C 56.1519 4.9672 -1.97923 0
M  V30 629 C 57.4519 3.65692 -3.72916 0
M  V30 630 H 59.1459 1.88869 -2.32312 0
M  V30 631 H 56.6919 0.907272 -1.11824 0
M  V30 632 H 58.6449 4.0438 -1.18552 0
M  V30 633 H 57.3689 3.25841 -0.222498 0
M  V30 634 H 56.0279 2.84324 -2.3142 0
M  V30 635 H 55.6759 4.93253 -0.985393 0
M  V30 636 H 55.3759 5.20878 -2.71955 0
M  V30 637 H 56.8999 5.77618 -1.97964 0
M  V30 638 H 58.3139 4.34328 -3.74208 0
M  V30 639 H 56.7109 4.01358 -4.4613 0
M  V30 640 H 57.7809 2.65987 -4.05436 0
M  V30 641 N 59.124 1.23083 0.984299 0
M  V30 642 C 60.54 0.992637 1.24975 0
M  V30 643 C 60.74 -0.308618 1.99123 0
M  V30 644 O 59.796 -1.02905 2.30579 0
M  V30 645 C 61.109 2.19698 2.05312 0
M  V30 646 C 62.657 2.24147 2.18465 0
M  V30 647 C 63.132 3.44157 3.02192 0
M  V30 648 N 64.623 3.44372 3.09777 0
M  V30 649 C 65.358 4.33886 3.74874 0
M  V30 650 N 64.854 5.3363 4.41827 0
M  V30 651 N 66.647 4.21639 3.71721 0
M  V30 652 H 58.798 2.06731 0.487453 0
M  V30 653 H 61.061 0.906339 0.277944 0
M  V30 654 H 60.767 3.1411 1.58201 0
M  V30 655 H 60.641 2.20465 3.06064 0
M  V30 656 H 63.028 1.30277 2.64786 0
M  V30 657 H 63.109 2.27415 1.17115 0
M  V30 658 H 62.753 4.38332 2.56568 0
M  V30 659 H 62.683 3.3813 4.03702 0
M  V30 660 H 65.174 2.72201 2.62135 0
M  V30 661 H 65.487 5.98196 4.89266 0
M  V30 662 H 63.832 5.37534 4.40548 0
M  V30 663 H 67.023 3.42962 3.18582 0
M  V30 664 H 67.196 4.91604 4.22173 0
M  V30 665 N 60.6021 -1.18246 1.0419 0
M  V30 666 C 61.5121 -2.25574 0.644476 0
M  V30 667 C 62.5281 -1.70845 -0.329826 0
M  V30 668 O 63.7041 -2.00554 -0.184443 0
M  V30 669 C 60.7691 -3.46697 0.014877 0
M  V30 670 C 59.8301 -4.16554 1.03834 0
M  V30 671 C 59.0631 -5.31894 0.438692 0
M  V30 672 O 59.2861 -5.65385 -0.754752 0
M  V30 673 O 58.2201 -5.90459 1.168 0
M  V30 674 H 62.0461 -2.61836 1.53869 0
M  V30 675 H 59.6311 -1.25352 0.812854 0
M  V30 676 H 61.5131 -4.20062 -0.335538 0
M  V30 677 H 60.1881 -3.12255 -0.853138 0
M  V30 678 H 59.0951 -3.45251 1.44057 0
M  V30 679 H 60.4281 -4.54998 1.87716 0
M  V30 680 N 62.0802 -0.821533 -1.34494 0
M  V30 681 C 63.0102 -0.257138 -2.3208 0
M  V30 682 C 63.9912 0.625645 -1.58176 0
M  V30 683 O 65.1762 0.552811 -1.86166 0
M  V30 684 C 62.3062 0.582958 -3.42372 0
M  V30 685 C 61.2602 -0.202571 -4.2752 0
M  V30 686 C 60.5862 0.760179 -5.29269 0
M  V30 687 C 61.8862 -1.40998 -5.02908 0
M  V30 688 H 63.5802 -1.07247 -2.79532 0
M  V30 689 H 61.1262 -0.517163 -1.34393 0
M  V30 690 H 63.0792 0.987972 -4.09655 0
M  V30 691 H 61.8032 1.43133 -2.93565 0
M  V30 692 H 60.4622 -0.588936 -3.61838 0
M  V30 693 H 60.1102 1.60447 -4.76724 0
M  V30 694 H 59.8102 0.238809 -5.87115 0
M  V30 695 H 61.3342 1.16308 -5.9942 0
M  V30 696 H 62.7482 -1.07905 -5.63054 0
M  V30 697 H 61.1452 -1.86689 -5.70322 0
M  V30 698 H 62.2152 -2.1889 -4.32684 0
M  V30 699 N 63.5583 1.46682 -0.576371 0
M  V30 700 C 64.8073 2.01619 -0.0572825 0
M  V30 701 C 65.1203 1.45417 1.30818 0
M  V30 702 O 66.3263 1.92133 1.91825 0
M  V30 703 C 64.7823 3.59863 -0.0518371 0
M  V30 704 C 64.3903 4.25059 -1.41523 0
M  V30 705 C 66.1343 4.2248 0.413639 0
M  V30 706 C 64.0413 5.75364 -1.36785 0
M  V30 707 H 62.9713 0.753794 -0.0176448 0
M  V30 708 H 65.6223 1.68481 -0.727076 0
M  V30 709 H 64.0043 3.90048 0.683994 0
M  V30 710 H 65.1783 4.06491 -2.17029 0
M  V30 711 H 63.4933 3.7451 -1.8202 0
M  V30 712 H 66.0903 5.3265 0.467779 0
M  V30 713 H 66.4333 3.90976 1.42982 0
M  V30 714 H 66.9663 3.96897 -0.267929 0
M  V30 715 H 63.7053 6.11518 -2.36063 0
M  V30 716 H 63.2253 5.96214 -0.654895 0
M  V30 717 H 64.9043 6.37955 -1.07805 0
M  V30 718 N 65.0364 0.313813 1.54444 0
M  V30 719 C 66.2614 -0.296681 2.05267 0
M  V30 720 C 66.6864 -1.45757 1.18897 0
M  V30 721 O 66.0444 -1.80239 0.195886 0
M  V30 722 C 66.0924 -0.71831 3.53373 0
M  V30 723 O 65.1964 -1.82175 3.69981 0
M  V30 724 H 64.5374 -0.0554061 0.661684 0
M  V30 725 H 67.0674 0.459387 1.99376 0
M  V30 726 H 67.0774 -1.00364 3.95463 0
M  V30 727 H 65.7524 0.130821 4.15694 0
M  V30 728 H 64.3294 -1.53598 3.39797 0
M  V30 729 N 66.5145 -1.57545 0.0417849 0
M  V30 730 C 67.4625 -2.12148 -0.953723 0
M  V30 731 C 68.4565 -1.05104 -1.32852 0
M  V30 732 O 69.6625 -1.23524 -1.30927 0
M  V30 733 H 66.0375 -0.677957 -0.325389 0
M  V30 734 H 68.0085 -2.94707 -0.467991 0
M  V30 735 C 66.7575 -2.6739 -2.22257 0
M  V30 736 H 66.0805 -3.49413 -1.94295 0
M  V30 737 H 67.5205 -3.09227 -2.90094 0
M  V30 738 C 65.9795 -1.60723 -2.96091 0
M  V30 739 O 66.5095 -1.01449 -3.88679 0
M  V30 740 N 64.7155 -1.32466 -2.58652 0
M  V30 741 H 64.2625 -1.80856 -1.83437 0
M  V30 742 H 64.2205 -0.61325 -3.08361 0
M  V30 743 N 67.9926 0.231505 -1.5589 0
M  V30 744 C 68.9556 1.27028 -1.90779 0
M  V30 745 C 69.9556 1.40308 -0.785507 0
M  V30 746 O 71.1456 1.38744 -1.05336 0
M  V30 747 C 68.2776 2.64566 -2.14983 0
M  V30 748 H 69.4706 0.973017 -2.83677 0
M  V30 749 H 67.0236 0.471486 -1.49019 0
M  V30 750 H 67.7586 2.99406 -1.24604 0
M  V30 751 H 67.5436 2.56305 -2.96732 0
M  V30 752 H 69.0336 3.39543 -2.43105 0
M  V30 753 N 69.4707 1.49531 0.497807 0
M  V30 754 C 70.6957 1.63159 1.28039 0
M  V30 755 C 71.1207 0.30418 1.85624 0
M  V30 756 O 70.4787 -0.728618 1.66015 0
M  V30 757 C 70.5267 2.70537 2.38416 0
M  V30 758 O 69.6307 2.29931 3.42353 0
M  V30 759 H 68.9717 0.546001 0.377861 0
M  V30 760 H 71.5017 1.9574 0.59558 0
M  V30 761 H 71.5117 2.92802 2.84132 0
M  V30 762 H 70.1867 3.6689 1.95869 0
M  V30 763 H 68.7637 2.18009 3.02533 0
M  V30 764 N 70.9488 -0.749086 1.3866 0
M  V30 765 C 72.2258 -1.4992 1.25632 0
M  V30 766 C 72.6058 -2.10633 -0.140317 0
M  V30 767 O 71.9538 -1.97437 -1.15025 0
M  V30 768 C 72.1638 -2.56195 2.36992 0
M  V30 769 C 73.5118 -3.22972 2.75634 0
M  V30 770 O 74.5358 -2.66502 2.36337 0
M  V30 771 O 73.3948 -4.25122 3.43415 0
M  V30 772 H 70.4888 -0.665067 0.491544 0
M  V30 773 H 73.0348 -0.784113 1.50498 0
M  V30 774 H 71.8068 -2.09612 3.30422 0
M  V30 775 H 71.4298 -3.35279 2.13714 0
M  V30 776 N 72.4269 -1.23603 -0.977757 0
M  V30 777 C 73.3899 -1.02069 -2.05218 0
M  V30 778 C 74.3899 0.0184305 -1.60789 0
M  V30 779 O 75.5799 -0.221569 -1.72785 0
M  V30 780 C 72.7119 -0.544926 -3.36517 0
M  V30 781 H 73.9049 -1.9742 -2.25755 0
M  V30 782 H 71.4579 -1.05684 -1.15155 0
M  V30 783 H 72.1929 0.412241 -3.21669 0
M  V30 784 H 71.9779 -1.2948 -3.70105 0
M  V30 785 H 73.4679 -0.414985 -4.15533 0
M  V30 786 N 73.905 1.17692 -1.04816 0
M  V30 787 C 74.835 2.23777 -0.666791 0
M  V30 788 C 75.816 1.66796 0.33361 0
M  V30 789 O 77.001 1.93039 0.212042 0
M  V30 790 C 74.131 3.47281 -0.0367933 0
M  V30 791 C 73.085 4.17059 -0.961546 0
M  V30 792 C 72.411 5.34342 -0.195626 0
M  V30 793 C 73.711 4.69713 -2.28402 0
M  V30 794 H 75.405 2.55933 -1.55367 0
M  V30 795 H 72.951 1.23019 -0.748484 0
M  V30 796 H 74.904 4.20706 0.241775 0
M  V30 797 H 73.628 3.14381 0.885004 0
M  V30 798 H 72.287 3.45541 -1.22462 0
M  V30 799 H 71.935 4.97692 0.728816 0
M  V30 800 H 71.635 5.81966 -0.811775 0
M  V30 801 H 73.159 6.10553 0.0757473 0
M  V30 802 H 74.573 5.34794 -2.06563 0
M  V30 803 H 72.97 5.279 -2.8538 0
M  V30 804 H 74.04 3.86726 -2.92525 0
M  V30 805 N 75.3831 0.828654 1.34056 0
M  V30 806 C 76.6601 0.341809 1.9259 0
M  V30 807 C 77.0401 -1.17158 1.75605 0
M  V30 808 O 76.3881 -1.98132 1.13824 0
M  V30 809 C 76.5981 0.777453 3.4023 0
M  V30 810 C 77.9461 0.779579 4.17382 0
M  V30 811 O 78.9701 0.7204 3.48839 0
M  V30 812 O 77.8291 0.857996 5.39723 0
M  V30 813 H 74.9231 0.0946085 0.821571 0
M  V30 814 H 77.4691 0.913827 1.42994 0
M  V30 815 H 76.2411 1.8196 3.46419 0
M  V30 816 H 75.8641 0.181444 3.97186 0
M  V30 817 N 76.8612 -1.46375 0.584142 0
M  V30 818 C 77.8082 -2.30323 -0.148286 0
M  V30 819 C 78.7782 -1.40703 -0.882713 0
M  V30 820 O 79.9632 -1.69651 -0.873099 0
M  V30 821 C 77.1032 -3.25196 -1.15507 0
M  V30 822 C 76.2162 -4.29915 -0.423943 0
M  V30 823 C 75.3512 -5.11914 -1.41838 0
M  V30 824 C 74.3902 -6.08381 -0.673736 0
M  V30 825 N 73.5272 -6.83242 -1.6163 0
M  V30 826 H 78.3672 -2.92427 0.573644 0
M  V30 827 H 75.9042 -1.44118 0.294703 0
M  V30 828 H 77.8622 -3.78646 -1.75166 0
M  V30 829 H 76.4922 -2.64898 -1.8447 0
M  V30 830 H 75.5442 -3.7931 0.287714 0
M  V30 831 H 76.8562 -4.98549 0.158128 0
M  V30 832 H 76.0102 -5.69648 -2.08773 0
M  V30 833 H 74.7492 -4.43243 -2.03438 0
M  V30 834 H 73.7542 -5.49799 0.00938483 0
M  V30 835 H 74.9792 -6.79071 -0.0631082 0
M  V30 836 H 72.9252 -6.1728 -2.22038 0
M  V30 837 H 72.8422 -7.48144 -1.08707 0
M  V30 838 H 74.1102 -7.45534 -2.27596 0
M  V30 839 N 78.3393 -0.321999 -1.54275 0
M  V30 840 C 79.5883 0.281931 -1.9972 0
M  V30 841 C 79.9013 1.53369 -1.21397 0
M  V30 842 O 81.1073 2.21352 -1.57211 0
M  V30 843 C 79.5633 0.5529 -3.55628 0
M  V30 844 C 79.1713 -0.681721 -4.42783 0
M  V30 845 C 80.9153 1.11687 -4.09544 0
M  V30 846 C 78.8223 -0.382742 -5.9016 0
M  V30 847 H 77.7523 0.109124 -0.746062 0
M  V30 848 H 80.4033 -0.43398 -1.78294 0
M  V30 849 H 78.7853 1.32896 -3.73035 0
M  V30 850 H 79.9593 -1.45723 -4.37151 0
M  V30 851 H 78.2743 -1.1658 -3.99748 0
M  V30 852 H 80.8713 1.35515 -5.17242 0
M  V30 853 H 81.2143 2.06575 -3.61431 0
M  V30 854 H 81.7473 0.402032 -3.95763 0
M  V30 855 H 78.4863 -1.30076 -6.42464 0
M  V30 856 H 78.0063 0.355094 -5.98748 0
M  V30 857 H 79.6853 0.00800157 -6.47 0
M  V30 858 N 79.8174 1.5752 -0.0501392 0
M  V30 859 C 81.2334 1.56631 0.306402 0
M  V30 860 C 81.4334 1.0577 1.71508 0
M  V30 861 O 80.4894 0.713837 2.422 0
M  V30 862 C 81.8024 3.00393 0.135811 0
M  V30 863 C 83.3504 3.12315 0.206993 0
M  V30 864 C 83.8254 4.57954 0.064944 0
M  V30 865 N 85.3164 4.63041 0.121254 0
M  V30 866 C 86.0514 5.73389 0.0354381 0
M  V30 867 N 85.5474 6.92724 -0.102666 0
M  V30 868 N 87.3404 5.62026 0.090946 0
M  V30 869 H 79.4914 1.88903 -0.971046 0
M  V30 870 H 81.7544 0.869876 -0.376855 0
M  V30 871 H 81.4604 3.41635 -0.835384 0
M  V30 872 H 81.3344 3.66373 0.897275 0
M  V30 873 H 83.7214 2.70973 1.16866 0
M  V30 874 H 83.8024 2.49016 -0.585208 0
M  V30 875 H 83.4464 4.99981 -0.893394 0
M  V30 876 H 83.3764 5.19258 0.876277 0
M  V30 877 H 85.8674 3.77216 0.227284 0
M  V30 878 H 86.1804 7.72633 -0.160882 0
M  V30 879 H 84.5254 6.94864 -0.137737 0
M  V30 880 H 87.7164 4.67684 0.197388 0
M  V30 881 H 87.8894 6.47997 0.0206089 0
M  V30 882 N 81.2955 -0.223234 1.56011 0
M  V30 883 C 82.5255 -0.963413 1.82762 0
M  V30 884 C 82.9335 -1.78516 0.626804 0
M  V30 885 O 82.2765 -1.78974 -0.414014 0
M  V30 886 C 82.3385 -1.93126 3.0322 0
M  V30 887 C 82.0025 -1.2942 4.38291 0
M  V30 888 C 82.9995 -0.684916 5.15369 0
M  V30 889 C 80.6845 -1.30647 4.85012 0
M  V30 890 C 82.6785 -0.0963971 6.37327 0
M  V30 891 C 80.3655 -0.71411 6.06913 0
M  V30 892 C 81.3635 -0.110123 6.82911 0
M  V30 893 O 81.0515 0.47303 8.02507 0
M  V30 894 H 80.7835 -0.288011 0.611576 0
M  V30 895 H 83.3375 -0.244103 2.03944 0
M  V30 896 H 81.5675 -2.68952 2.77852 0
M  V30 897 H 83.2565 -2.53685 3.16857 0
M  V30 898 H 84.0225 -0.667774 4.80381 0
M  V30 899 H 79.9015 -1.76598 4.25833 0
M  V30 900 H 83.4455 0.375657 6.96588 0
M  V30 901 H 79.3425 -0.728659 6.41374 0
M  V30 902 H 80.1105 0.367186 8.17676 0
M  V30 903 N 82.7736 -1.49793 -0.48987 0
M  V30 904 C 83.6836 -1.70036 -1.61632 0
M  V30 905 C 84.6996 -0.583102 -1.63939 0
M  V30 906 O 85.8756 -0.859169 -1.82154 0
M  V30 907 C 82.9406 -1.77277 -2.97949 0
M  V30 908 C 82.0016 -3.00918 -3.06181 0
M  V30 909 C 81.2346 -3.07804 -4.35996 0
M  V30 910 O 81.4576 -2.21982 -5.25433 0
M  V30 911 O 80.3916 -4.00369 -4.49431 0
M  V30 912 H 84.2176 -2.65486 -1.47482 0
M  V30 913 H 81.8026 -1.33666 -0.667362 0
M  V30 914 H 83.6846 -1.84329 -3.78947 0
M  V30 915 H 82.3596 -0.850076 -3.12339 0
M  V30 916 H 81.2666 -2.99377 -2.2433 0
M  V30 917 H 82.5996 -3.92704 -2.96723 0
M  V30 918 N 84.2517 0.741722 -1.39055 0
M  V30 919 C 85.4767 1.53607 -1.39354 0
M  V30 920 C 85.9017 1.88096 0.0116905 0
M  V30 921 O 85.2597 1.5143 0.996924 0
M  V30 922 C 85.3077 2.80441 -2.26682 0
M  V30 923 O 84.4117 3.76088 -1.69208 0
M  V30 924 H 83.7527 0.464142 -0.474835 0
M  V30 925 H 86.2827 0.915665 -1.82967 0
M  V30 926 H 86.2927 3.29246 -2.40959 0
M  V30 927 H 84.9677 2.5467 -3.2881 0
M  V30 928 H 83.5447 3.34833 -1.64138 0
M  V30 929 N 85.7298 1.2412 0.971189 0
M  V30 930 C 86.6598 1.05508 2.08304 0
M  V30 931 C 87.6408 -0.0308864 1.70072 0
M  V30 932 O 88.8258 0.135521 1.93727 0
M  V30 933 C 85.9558 0.655365 3.4106 0
M  V30 934 C 84.9098 1.68971 3.93234 0
M  V30 935 C 84.2358 1.14516 5.22293 0
M  V30 936 C 85.5358 3.08487 4.21465 0
M  V30 937 H 87.2298 1.98507 2.24132 0
M  V30 938 H 84.7758 0.955821 1.07704 0
M  V30 939 H 86.7288 0.51217 4.18276 0
M  V30 940 H 85.4528 -0.31032 3.25122 0
M  V30 941 H 84.1118 1.82106 3.18171 0
M  V30 942 H 83.7598 0.170189 5.02712 0
M  V30 943 H 83.4598 1.83635 5.58168 0
M  V30 944 H 84.9838 1.01401 6.02121 0
M  V30 945 H 86.3978 2.98601 4.89398 0
M  V30 946 H 84.7948 3.74926 4.68562 0
M  V30 947 H 85.8648 3.56787 3.28376 0
M  V30 948 N 87.2079 -1.17134 1.05439 0
M  V30 949 C 88.4359 -1.91372 0.786414 0
M  V30 950 C 88.8509 -1.76955 -0.658202 0
M  V30 951 O 88.2079 -1.10838 -1.44987 0
M  V30 952 C 88.2589 -3.42356 1.1608 0
M  V30 953 O 87.9799 -3.56332 2.54871 0
M  V30 954 C 89.4809 -4.33663 0.919322 0
M  V30 955 H 86.7009 -0.607118 0.285743 0
M  V30 956 H 89.2449 -1.48525 1.40572 0
M  V30 957 H 87.3999 -3.82939 0.586191 0
M  V30 958 H 87.8139 -4.49896 2.69618 0
M  V30 959 H 89.2879 -5.38099 1.231 0
M  V30 960 H 89.7649 -4.38959 -0.145359 0
M  V30 961 H 90.3709 -3.98796 1.47789 0
M  V30 962 N 88.686 -0.835752 -1.33615 0
M  V30 963 C 89.963 -0.352017 -1.92406 0
M  V30 964 C 90.343 1.16225 -1.76224 0
M  V30 965 O 89.691 1.97526 -1.14873 0
M  V30 966 C 89.901 -0.795485 -3.39813 0
M  V30 967 C 91.249 -0.801703 -4.16963 0
M  V30 968 O 92.273 -0.738889 -3.48452 0
M  V30 969 O 91.132 -0.886607 -5.3926 0
M  V30 970 H 88.226 -0.0989641 -0.821057 0
M  V30 971 H 90.772 -0.921397 -1.42507 0
M  V30 972 H 89.544 -1.83795 -3.45449 0
M  V30 973 H 89.167 -0.202505 -3.97084 0
M  V30 974 N 90.1641 1.46063 -0.591896 0
M  V30 975 C 91.5751 1.85944 -0.167822 0
M  V30 976 C 91.9261 1.49429 1.27143 0
M  V30 977 O 91.0511 0.913515 1.96173 0
M  V30 978 C 91.6461 3.37489 -0.297794 0
M  V30 979 C 90.2051 3.76332 0.0714732 0
M  V30 980 C 89.3521 2.7006 -0.629509 0
M  V30 981 H 92.3031 1.37087 -0.799555 0
M  V30 982 H 92.3241 3.77532 0.474349 0
M  V30 983 H 91.8361 3.64034 -1.3454 0
M  V30 984 H 89.9371 3.55405 1.11886 0
M  V30 985 H 90.0501 4.78088 -0.311245 0
M  V30 986 H 88.4141 2.54607 -0.0687867 0
M  V30 987 H 89.1971 2.99444 -1.67894 0
M  V30 988 N 91.6422 0.330177 1.54103 0
M  V30 989 C 92.8672 -0.274893 2.0557 0
M  V30 990 C 93.2922 -1.44487 1.20437 0
M  V30 991 O 92.6502 -1.80021 0.214991 0
M  V30 992 C 92.6982 -0.68079 3.54115 0
M  V30 993 O 91.8022 -1.7824 3.71893 0
M  V30 994 H 91.1432 -0.0483849 0.662235 0
M  V30 995 H 93.6732 0.480508 1.98878 0
M  V30 996 H 93.6832 -0.961635 3.96505 0
M  V30 997 H 92.3582 0.174903 4.15532 0
M  V30 998 H 90.9352 -1.49985 3.41407 0
M  V30 999 N 93.1203 -1.57491 0.0584922 0
M  V30 1000 C 94.0673 -2.11958 -0.913376 0
M  V30 1001 C 95.0373 -1.02875 -1.30407 0
M  V30 1002 O 96.2223 -1.30464 -1.39226 0
M  V30 1003 C 93.3623 -2.67497 -2.18035 0
M  V30 1004 C 92.4753 -3.90691 -1.84349 0
M  V30 1005 C 91.6103 -4.3452 -3.05559 0
M  V30 1006 C 90.6493 -5.50395 -2.67827 0
M  V30 1007 N 89.7863 -5.89244 -3.81754 0
M  V30 1008 H 94.6263 -2.94704 -0.442017 0
M  V30 1009 H 92.1633 -1.45643 -0.206545 0
M  V30 1010 H 94.1213 -2.978 -2.92183 0
M  V30 1011 H 92.7513 -1.87537 -2.62735 0
M  V30 1012 H 91.8033 -3.66934 -1.00319 0
M  V30 1013 H 93.1153 -4.7489 -1.5258 0
M  V30 1014 H 92.2693 -4.66414 -3.87998 0
M  V30 1015 H 91.0083 -3.49147 -3.40511 0
M  V30 1016 H 90.0133 -5.18165 -1.83806 0
M  V30 1017 H 91.2383 -6.3749 -2.34059 0
M  V30 1018 H 89.1843 -5.06823 -4.16493 0
M  V30 1019 H 89.1013 -6.68151 -3.53708 0
M  V30 1020 H 90.3693 -6.25756 -4.64811 0
M  V30 1021 N 94.5984 0.214957 -1.56127 0
M  V30 1022 C 95.5284 1.2695 -1.95974 0
M  V30 1023 C 96.5094 1.48539 -0.828868 0
M  V30 1024 O 97.6944 1.60611 -1.09168 0
M  V30 1025 C 94.8244 2.61794 -2.28214 0
M  V30 1026 C 93.7784 2.54851 -3.43853 0
M  V30 1027 C 93.1044 3.93785 -3.61715 0
M  V30 1028 C 94.4044 2.09065 -4.78632 0
M  V30 1029 H 96.0984 0.93846 -2.84312 0
M  V30 1030 H 93.6444 0.449996 -1.36788 0
M  V30 1031 H 95.5974 3.35731 -2.54682 0
M  V30 1032 H 94.3214 2.96599 -1.36736 0
M  V30 1033 H 92.9804 1.8337 -3.17444 0
M  V30 1034 H 92.6284 4.25908 -2.67602 0
M  V30 1035 H 92.3284 3.90019 -4.39498 0
M  V30 1036 H 93.8524 4.69374 -3.90539 0
M  V30 1037 H 95.2664 2.7275 -5.04262 0
M  V30 1038 H 93.6634 2.16346 -5.59745 0
M  V30 1039 H 94.7334 1.04315 -4.73547 0
M  V30 1040 N 96.0765 1.50051 0.48192 0
M  V30 1041 C 97.3535 1.51009 1.2432 0
M  V30 1042 C 97.7335 0.248587 2.09631 0
M  V30 1043 O 97.0815 -0.768409 2.15192 0
M  V30 1044 C 97.2915 2.79981 2.08355 0
M  V30 1045 C 98.6395 3.3022 2.66908 0
M  V30 1046 O 99.6635 2.81228 2.18607 0
M  V30 1047 O 98.5225 4.15595 3.54884 0
M  V30 1048 H 95.6165 0.605239 0.563573 0
M  V30 1049 H 98.1625 1.62332 0.494627 0
M  V30 1050 H 96.9345 3.63275 1.45419 0
M  V30 1051 H 96.5575 2.7161 2.90368 0
M  V30 1052 N 97.5546 -0.734337 1.39446 0
M  V30 1053 C 98.7796 -1.52866 1.40167 0
M  V30 1054 C 99.2046 -1.881 -0.00171513 0
M  V30 1055 O 98.5626 -1.51957 -0.988879 0
M  V30 1056 C 98.6106 -2.79235 2.28167 0
M  V30 1057 O 97.7146 -3.75185 1.71201 0
M  V30 1058 H 97.0556 -0.461618 0.477289 0
M  V30 1059 H 99.5856 -0.905949 1.8345 0
M  V30 1060 H 99.5956 -3.27963 2.42702 0
M  V30 1061 H 98.2706 -2.52923 3.30156 0
M  V30 1062 H 96.8476 -3.33958 1.65912 0
M  V30 1063 N 99.0327 -1.24633 -0.964593 0
M  V30 1064 C 100.281 -1.08573 -1.70459 0
M  V30 1065 C 100.602 0.375655 -1.91347 0
M  V30 1066 O 99.8717 1.26779 -1.49345 0
M  V30 1067 H 98.4517 -0.398784 -0.631649 0
M  V30 1068 H 101.114 -1.56601 -1.16026 0
M  V30 1069 H 100.21 -1.58623 -2.68785 0
M  V30 1070 N 100.511 1.16574 -1.06058 0
M  V30 1071 C 101.458 2.20883 -0.669263 0
M  V30 1072 C 102.428 1.62729 0.332918 0
M  V30 1073 O 103.613 1.895 0.222346 0
M  V30 1074 C 100.753 3.45049 -0.0593572 0
M  V30 1075 C 99.8658 4.17458 -1.11143 0
M  V30 1076 C 99.0008 5.29135 -0.467916 0
M  V30 1077 C 98.0398 5.93343 -1.50369 0
M  V30 1078 N 97.1768 6.96516 -0.883706 0
M  V30 1079 H 102.017 2.53709 -1.5632 0
M  V30 1080 H 99.5538 1.24616 -0.781625 0
M  V30 1081 H 101.512 4.16033 0.311771 0
M  V30 1082 H 100.142 3.12781 0.797992 0
M  V30 1083 H 99.1938 3.45101 -1.60029 0
M  V30 1084 H 100.506 4.61307 -1.89731 0
M  V30 1085 H 99.6598 6.06684 -0.0436871 0
M  V30 1086 H 98.3988 4.86443 0.349864 0
M  V30 1087 H 97.4038 5.14517 -1.93784 0
M  V30 1088 H 98.6288 6.38114 -2.32352 0
M  V30 1089 H 96.5748 6.55943 -0.086595 0
M  V30 1090 H 96.4918 7.38723 -1.607 0
M  V30 1091 H 97.7598 7.77993 -0.484543 0
M  V30 1092 N 101.989 0.842826 1.3317 0
M  V30 1093 C 102.899 0.281444 2.32906 0
M  V30 1094 C 103.915 -0.594587 1.63526 0
M  V30 1095 O 105.091 -0.49777 1.95152 0
M  V30 1096 C 102.156 -0.530929 3.42611 0
M  V30 1097 C 101.217 0.369843 4.27704 0
M  V30 1098 C 100.45 -0.403853 5.3217 0
M  V30 1099 O 100.673 -1.63513 5.46461 0
M  V30 1100 O 99.6069 0.224199 6.01482 0
M  V30 1101 H 103.433 1.10744 2.82789 0
M  V30 1102 H 101.018 0.60545 1.36582 0
M  V30 1103 H 102.9 -0.992437 4.09547 0
M  V30 1104 H 101.575 -1.33392 2.94938 0
M  V30 1105 H 100.482 0.879275 3.6362 0
M  V30 1106 H 101.815 1.13771 4.78871 0
M  V30 1107 N 103.467 -1.45747 0.599634 0
M  V30 1108 C 104.397 -2.33235 -0.111306 0
M  V30 1109 C 105.378 -1.46359 -0.866781 0
M  V30 1110 O 106.563 -1.75146 -0.838904 0
M  V30 1111 C 103.693 -3.28932 -1.11451 0
M  V30 1112 C 102.647 -4.25381 -0.472772 0
M  V30 1113 C 101.973 -5.1071 -1.58365 0
M  V30 1114 C 103.273 -5.18831 0.600948 0
M  V30 1115 H 104.967 -2.92927 0.61919 0
M  V30 1116 H 102.513 -1.40857 0.299215 0
M  V30 1117 H 104.466 -3.89002 -1.62036 0
M  V30 1118 H 103.19 -2.67381 -1.8755 0
M  V30 1119 H 101.849 -3.66598 0.0121472 0
M  V30 1120 H 101.497 -4.45533 -2.33473 0
M  V30 1121 H 101.197 -5.7604 -1.15982 0
M  V30 1122 H 102.721 -5.73647 -2.09194 0
M  V30 1123 H 104.135 -5.73019 0.179491 0
M  V30 1124 H 102.532 -5.92595 0.946076 0
M  V30 1125 H 103.602 -4.6174 1.48068 0
M  V30 1126 N 104.945 -0.338344 -1.53925 0
M  V30 1127 C 105.892 0.520845 -2.24846 0
M  V30 1128 C 106.862 1.09976 -1.24477 0
M  V30 1129 O 108.047 1.13735 -1.53196 0
M  V30 1130 C 105.187 1.6685 -3.02084 0
M  V30 1131 C 104.3 1.11739 -4.17299 0
M  V30 1132 C 103.435 2.23193 -4.82036 0
M  V30 1133 C 102.474 1.65407 -5.89328 0
M  V30 1134 N 101.611 2.70582 -6.47866 0
M  V30 1135 H 106.451 -0.0904881 -2.97863 0
M  V30 1136 H 103.988 -0.0564282 -1.46992 0
M  V30 1137 H 105.946 2.34407 -3.45122 0
M  V30 1138 H 104.576 2.2509 -2.31375 0
M  V30 1139 H 103.628 0.332919 -3.7894 0
M  V30 1140 H 104.94 0.654677 -4.94485 0
M  V30 1141 H 104.094 2.98626 -5.28117 0
M  V30 1142 H 102.833 2.72807 -4.04262 0
M  V30 1143 H 101.838 0.884779 -5.42634 0
M  V30 1144 H 103.063 1.16652 -6.69006 0
M  V30 1145 H 101.009 3.1946 -5.72959 0
M  V30 1146 H 100.926 2.28917 -7.20509 0
M  V30 1147 H 102.194 3.45799 -6.98601 0
M  V30 1148 N 106.423 1.57458 -0.0668435 0
M  V30 1149 C 107.672 1.92477 0.602947 0
M  V30 1150 C 107.985 0.948419 1.71068 0
M  V30 1151 O 109.191 1.19124 2.43971 0
M  V30 1152 C 107.647 3.41903 1.12383 0
M  V30 1153 C 107.255 4.47975 0.04737 0
M  V30 1154 C 108.999 3.85931 1.76797 0
M  V30 1155 C 106.906 5.88529 0.582022 0
M  V30 1156 H 105.836 0.718387 0.22899 0
M  V30 1157 H 108.487 1.82978 -0.138276 0
M  V30 1158 H 106.869 3.46459 1.91787 0
M  V30 1159 H 108.043 4.55029 -0.726978 0
M  V30 1160 H 106.358 4.13384 -0.500243 0
M  V30 1161 H 108.955 4.88322 2.17821 0
M  V30 1162 H 109.298 3.23029 2.62599 0
M  V30 1163 H 109.831 3.83958 1.04024 0
M  V30 1164 H 106.57 6.55065 -0.238721 0
M  V30 1165 H 106.09 5.85004 1.324 0
M  V30 1166 H 107.769 6.38258 1.05999 0
M  V30 1167 N 107.901 -0.206675 1.56239 0
M  V30 1168 C 109.178 -0.954051 1.70755 0
M  V30 1169 C 109.558 -2.01841 0.618353 0
M  V30 1170 O 108.906 -2.25444 -0.372434 0
M  V30 1171 C 109.116 -1.551 3.12642 0
M  V30 1172 C 110.464 -2.03757 3.72516 0
M  V30 1173 O 111.488 -1.64965 3.15698 0
M  V30 1174 O 110.347 -2.75103 4.72208 0
M  V30 1175 H 107.441 -0.446636 0.696021 0
M  V30 1176 H 109.987 -0.197283 1.68549 0
M  V30 1177 H 108.759 -0.783212 3.83382 0
M  V30 1178 H 108.382 -2.37291 3.19028 0
M  V30 1179 N 109.379 -1.50304 -0.473955 0
M  V30 1180 C 110.628 -1.60392 -1.22301 0
M  V30 1181 C 110.941 -0.308411 -1.93153 0
M  V30 1182 O 112.147 -0.288156 -2.69966 0
M  V30 1183 C 110.603 -2.83109 -2.2221 0
M  V30 1184 C 110.211 -4.19524 -1.57173 0
M  V30 1185 C 111.955 -3.0254 -2.97775 0
M  V30 1186 C 109.862 -5.33431 -2.55353 0
M  V30 1187 H 108.792 -0.597286 -0.460179 0
M  V30 1188 H 111.443 -1.76731 -0.493803 0
M  V30 1189 H 109.825 -2.60322 -2.9841 0
M  V30 1190 H 110.999 -4.52554 -0.867824 0
M  V30 1191 H 109.314 -4.05674 -0.939002 0
M  V30 1192 H 111.911 -3.84811 -3.71248 0
M  V30 1193 H 112.254 -2.14154 -3.56992 0
M  V30 1194 H 112.787 -3.25494 -2.28688 0
M  V30 1195 H 109.526 -6.23962 -2.00878 0
M  V30 1196 H 109.046 -5.04823 -3.23904 0
M  V30 1197 H 110.725 -5.63887 -3.17239 0
M  V30 1198 N 110.857 0.726932 -1.39834 0
M  V30 1199 C 112.106 1.48214 -1.36805 0
M  V30 1200 C 112.419 1.95576 0.0305291 0
M  V30 1201 O 113.625 2.7088 0.183417 0
M  V30 1202 C 112.081 2.67854 -2.40379 0
M  V30 1203 C 111.689 2.27408 -3.85992 0
M  V30 1204 C 113.433 3.45641 -2.46439 0
M  V30 1205 C 111.34 3.43819 -4.81189 0
M  V30 1206 H 110.27 0.556606 -0.508631 0
M  V30 1207 H 112.921 0.792216 -1.65518 0
M  V30 1208 H 111.303 3.3896 -2.04749 0
M  V30 1209 H 112.477 1.63795 -4.30706 0
M  V30 1210 H 110.792 1.62692 -3.83302 0
M  V30 1211 H 113.389 4.32244 -3.14753 0
M  V30 1212 H 113.732 3.88669 -1.49139 0
M  V30 1213 H 114.265 2.8157 -2.81004 0
M  V30 1214 H 111.004 3.05834 -5.79781 0
M  V30 1215 H 110.524 4.06385 -4.41148 0
M  V30 1216 H 112.203 4.10043 -5.00474 0
M  V30 1217 N 112.336 1.25143 0.95797 0
M  V30 1218 C 113.747 1.08851 1.51685 0
M  V30 1219 C 114.098 -0.33687 1.93286 0
M  V30 1220 O 113.223 -1.22644 1.7829 0
M  V30 1221 C 113.818 1.96978 2.75654 0
M  V30 1222 C 112.377 1.84881 3.27866 0
M  V30 1223 C 111.524 1.91329 2.0072 0
M  V30 1224 H 114.475 1.38478 0.77522 0
M  V30 1225 H 114.496 1.5078 3.4935 0
M  V30 1226 H 114.008 3.00712 2.45345 0
M  V30 1227 H 112.109 0.840182 3.63004 0
M  V30 1228 H 112.222 2.6951 3.96107 0
M  V30 1229 H 110.586 1.35174 2.15871 0
M  V30 1230 H 111.369 2.96661 1.72764 0
M  V30 1231 N 113.814 -1.1601 1.06675 0
M  V30 1232 C 114.762 -2.22586 0.675157 0
M  V30 1233 C 115.756 -1.66525 -0.310766 0
M  V30 1234 O 116.962 -1.79145 -0.175215 0
M  V30 1235 H 113.337 -0.724855 0.200223 0
M  V30 1236 H 115.308 -2.52899 1.58381 0
M  V30 1237 C 114.057 -3.47604 0.0817162 0
M  V30 1238 H 113.38 -3.91058 0.831484 0
M  V30 1239 H 114.82 -4.23718 -0.154708 0
M  V30 1240 C 113.279 -3.15718 -1.17576 0
M  V30 1241 O 113.809 -3.31878 -2.26318 0
M  V30 1242 N 112.015 -2.69816 -1.07923 0
M  V30 1243 H 111.562 -2.56866 -0.194293 0
M  V30 1244 H 111.52 -2.48855 -1.92141 0
M  V30 1245 N 115.292 -0.849877 -1.32721 0
M  V30 1246 C 116.703 -0.506188 -1.79707 0
M  V30 1247 C 117.054 0.975627 -1.70223 0
M  V30 1248 O 116.179 1.76078 -1.25799 0
M  V30 1249 C 116.774 -0.912044 -3.26293 0
M  V30 1250 C 115.333 -0.620326 -3.71253 0
M  V30 1251 C 114.48 -1.11439 -2.53922 0
M  V30 1252 H 117.431 -1.03754 -1.20087 0
M  V30 1253 H 117.452 -0.226493 -3.79825 0
M  V30 1254 H 116.964 -1.99057 -3.33164 0
M  V30 1255 H 115.065 0.447674 -3.69901 0
M  V30 1256 H 115.178 -1.18327 -4.64258 0
M  V30 1257 H 113.542 -0.534834 -2.49021 0
M  V30 1258 H 114.325 -2.19992 -2.6355 0
M  V30 1259 N 116.77 1.45427 -0.607355 0
M  V30 1260 C 117.702 2.2871 0.149752 0
M  V30 1261 C 118.715 1.39937 0.831958 0
M  V30 1262 O 119.904 1.64313 0.697385 0
M  V30 1263 C 117.004 3.15673 1.23304 0
M  V30 1264 C 116.177 4.32722 0.637996 0
M  V30 1265 C 115.236 5.00895 1.61215 0
M  V30 1266 O 114.262 5.57697 1.13854 0
M  V30 1267 N 115.464 5.00159 2.94655 0
M  V30 1268 H 118.229 2.94328 -0.564882 0
M  V30 1269 H 115.79 1.55612 -0.446823 0
M  V30 1270 H 117.782 3.58144 1.88454 0
M  V30 1271 H 116.352 2.51965 1.8502 0
M  V30 1272 H 115.572 3.93734 -0.191572 0
M  V30 1273 H 116.86 5.08321 0.220665 0
M  V30 1274 H 116.258 4.553 3.35735 0
M  V30 1275 H 114.815 5.46495 3.55228 0
M  V30 1276 N 118.248 0.346503 1.53744 0
M  V30 1277 C 119.158 -0.517293 2.28826 0
M  V30 1278 C 120.174 -1.10935 1.3405 0
M  V30 1279 O 121.35 -1.1244 1.6709 0
M  V30 1280 C 118.415 -1.65098 3.04866 0
M  V30 1281 C 117.476 -1.0884 4.15274 0
M  V30 1282 C 116.709 -2.16806 4.87679 0
M  V30 1283 O 116.932 -3.3758 4.59778 0
M  V30 1284 O 115.866 -1.80934 5.74061 0
M  V30 1285 H 119.692 0.0931396 3.03557 0
M  V30 1286 H 117.277 0.111458 1.48984 0
M  V30 1287 H 119.159 -2.31053 3.5241 0
M  V30 1288 H 117.834 -2.24717 2.32989 0
M  V30 1289 H 116.741 -0.3933 3.72027 0
M  V30 1290 H 118.074 -0.537036 4.89261 0
M  V30 1291 N 119.726 -1.57421 0.075193 0
M  V30 1292 C 121.142 -1.57099 -0.281444 0
M  V30 1293 C 121.342 -1.08486 -1.69803 0
M  V30 1294 O 120.398 -0.752279 -2.41033 0
M  V30 1295 C 121.711 -3.00571 -0.0880041 0
M  V30 1296 C 123.259 -3.12605 -0.157281 0
M  V30 1297 C 123.734 -4.57999 0.0079207 0
M  V30 1298 N 125.225 -4.63176 -0.0475725 0
M  V30 1299 C 125.96 -5.73373 0.0557876 0
M  V30 1300 N 125.456 -6.92473 0.21286 0
M  V30 1301 N 127.249 -5.621 -0.00152098 0
M  V30 1302 H 119.4 -1.87335 1.00098 0
M  V30 1303 H 121.663 -0.86377 0.390646 0
M  V30 1304 H 121.369 -3.40262 0.889629 0
M  V30 1305 H 121.243 -3.67754 -0.838875 0
M  V30 1306 H 123.63 -2.72798 -1.1254 0
M  V30 1307 H 123.711 -2.48053 0.62475 0
M  V30 1308 H 123.355 -4.98496 0.972824 0
M  V30 1309 H 123.285 -5.20586 -0.793556 0
M  V30 1310 H 125.776 -3.7753 -0.167244 0
M  V30 1311 H 126.089 -7.72279 0.283781 0
M  V30 1312 H 124.434 -6.94556 0.248267 0
M  V30 1313 H 127.625 -4.67938 -0.122958 0
M  V30 1314 H 127.798 -6.47948 0.0824844 0
M  V30 1315 N 121.204 0.198386 -1.56346 0
M  V30 1316 C 122.432 0.935572 -1.84539 0
M  V30 1317 C 122.847 1.76989 -0.657281 0
M  V30 1318 O 122.204 1.78626 0.374043 0
M  V30 1319 C 122.255 1.8344 -3.11499 0
M  V30 1320 O 121.976 1.03377 -4.25728 0
M  V30 1321 C 123.477 2.68355 -3.52846 0
M  V30 1322 H 120.697 0.273126 -0.612897 0
M  V30 1323 H 123.241 0.20663 -2.03453 0
M  V30 1324 H 121.396 2.51701 -2.94492 0
M  V30 1325 H 121.81 1.64599 -4.98003 0
M  V30 1326 H 123.284 3.27085 -4.44657 0
M  V30 1327 H 123.761 3.41901 -2.75681 0
M  V30 1328 H 124.367 2.05471 -3.72373 0
M  V30 1329 N 122.682 1.50554 0.465978 0
M  V30 1330 C 123.612 1.72722 1.57128 0
M  V30 1331 C 124.593 0.576294 1.6004 0
M  V30 1332 O 125.778 0.81598 1.76225 0
M  V30 1333 C 122.908 1.82605 2.95419 0
M  V30 1334 C 121.862 2.97835 3.07373 0
M  V30 1335 C 121.188 2.92867 4.47363 0
M  V30 1336 C 122.488 4.38265 2.84114 0
M  V30 1337 H 124.182 2.65267 1.38829 0
M  V30 1338 H 121.728 1.2765 0.666441 0
M  V30 1339 H 123.681 1.96698 3.72677 0
M  V30 1340 H 122.405 0.866858 3.14886 0
M  V30 1341 H 121.064 2.83401 2.3255 0
M  V30 1342 H 120.712 1.94783 4.63755 0
M  V30 1343 H 120.412 3.70227 4.56296 0
M  V30 1344 H 121.936 3.09015 5.26633 0
M  V30 1345 H 123.35 4.53198 3.51118 0
M  V30 1346 H 121.747 5.17115 3.04487 0
M  V30 1347 H 122.817 4.50281 1.7993 0
M  V30 1348 N 124.16 -0.719506 1.40217 0
M  V30 1349 C 125.388 -1.50864 1.41589 0
M  V30 1350 C 125.803 -1.88794 0.0145275 0
M  V30 1351 O 125.16 -1.55174 -0.960594 0
M  V30 1352 C 125.211 -2.78646 2.30302 0
M  V30 1353 O 124.932 -2.42321 3.64983 0
M  V30 1354 C 126.433 -3.72569 2.40224 0
M  V30 1355 H 123.653 -0.465709 0.48307 0
M  V30 1356 H 126.197 -0.88785 1.84221 0
M  V30 1357 H 124.352 -3.37019 1.91042 0
M  V30 1358 H 124.766 -3.24514 4.12057 0
M  V30 1359 H 126.24 -4.5908 3.06512 0
M  V30 1360 H 126.717 -4.15403 1.42608 0
M  V30 1361 H 127.323 -3.20109 2.80019 0
M  V30 1362 N 125.638 -1.25649 -0.95132 0
M  V30 1363 C 126.568 -1.08808 -2.06599 0
M  V30 1364 C 127.549 0.00382547 -1.701 0
M  V30 1365 O 128.734 -0.166325 -1.93486 0
M  V30 1366 C 125.864 -0.709542 -3.39975 0
M  V30 1367 C 124.818 -1.75206 -3.90496 0
M  V30 1368 C 124.144 -1.22811 -5.20405 0
M  V30 1369 C 125.444 -3.15153 -4.16504 0
M  V30 1370 H 127.138 -2.02048 -2.20946 0
M  V30 1371 H 124.684 -0.972835 -1.06169 0
M  V30 1372 H 126.637 -0.578649 -4.17408 0
M  V30 1373 H 125.361 0.258556 -3.25575 0
M  V30 1374 H 124.02 -1.87145 -3.15234 0
M  V30 1375 H 123.668 -0.250145 -5.02378 0
M  V30 1376 H 123.368 -1.92492 -5.55176 0
M  V30 1377 H 124.892 -1.10968 -6.00432 0
M  V30 1378 H 126.306 -3.06349 -4.84586 0
M  V30 1379 H 124.703 -3.82333 -4.62538 0
M  V30 1380 H 125.773 -3.61966 -3.22658 0
M  V30 1381 N 127.117 1.15442 -1.07289 0
M  V30 1382 C 128.363 1.86489 -0.796846 0
M  V30 1383 C 128.696 1.82078 0.675371 0
M  V30 1384 O 127.971 1.24346 1.4956 0
M  V30 1385 C 128.254 3.35626 -1.30489 0
M  V30 1386 C 128.107 3.48673 -2.84161 0
M  V30 1387 C 129.426 4.30357 -0.920907 0
M  V30 1388 H 126.545 0.677144 -0.290939 0
M  V30 1389 H 129.187 1.35633 -1.33056 0
M  V30 1390 H 127.337 3.79068 -0.850883 0
M  V30 1391 H 129.009 3.14099 -3.37846 0
M  V30 1392 H 127.252 2.90253 -3.22391 0
M  V30 1393 H 127.923 4.53453 -3.14777 0
M  V30 1394 H 130.399 3.94871 -1.3121 0
M  V30 1395 H 129.275 5.33193 -1.30372 0
M  V30 1396 H 129.536 4.4176 0.173226 0
M  V30 1397 N 128.595 0.856903 1.32268 0
M  V30 1398 C 129.872 0.382583 1.91822 0
M  V30 1399 C 130.252 -1.13407 1.78051 0
M  V30 1400 O 129.6 -1.95673 1.18001 0
M  V30 1401 C 129.81 0.849446 3.38505 0
M  V30 1402 C 131.158 0.867936 4.15634 0
M  V30 1403 O 132.182 0.794232 3.47232 0
M  V30 1404 O 131.041 0.972286 5.37781 0
M  V30 1405 H 128.135 0.112014 0.819379 0
M  V30 1406 H 130.681 0.943952 1.41024 0
M  V30 1407 H 129.453 1.89267 3.42482 0
M  V30 1408 H 129.076 0.265652 3.96712 0
M  V30 1409 N 130.073 -1.45103 0.615059 0
M  V30 1410 C 131.301 -2.06553 0.11977 0
M  V30 1411 C 131.716 -1.45842 -1.19898 0
M  V30 1412 O 131.073 -0.575325 -1.73194 0
M  V30 1413 C 131.124 -3.61495 -0.018364 0
M  V30 1414 O 130.845 -4.19942 1.24822 0
M  V30 1415 C 132.346 -4.39947 -0.544237 0
M  V30 1416 H 129.566 -0.667096 0.0722739 0
M  V30 1417 H 132.11 -1.8623 0.84491 0
M  V30 1418 H 130.265 -3.81135 -0.693865 0
M  V30 1419 H 130.679 -5.13204 1.0827 0
M  V30 1420 H 132.153 -5.48838 -0.589953 0
M  V30 1421 H 132.63 -4.10255 -1.56805 0
M  V30 1422 H 133.236 -4.25188 0.0974703 0
M  V30 1423 N 131.551 -0.354651 -1.53558 0
M  V30 1424 C 132.799 0.237972 -2.00694 0
M  V30 1425 C 133.12 1.50173 -1.24391 0
M  V30 1426 O 132.39 1.92673 -0.354135 0
M  V30 1427 H 130.97 0.0909256 -0.741446 0
M  V30 1428 H 133.632 -0.478368 -1.88938 0
M  V30 1429 H 132.728 0.47264 -3.085 0
M  V30 1430 N 133.029 1.57378 -0.0835403 0
M  V30 1431 C 134.278 1.93106 0.582498 0
M  V30 1432 C 134.591 0.96651 1.70053 0
M  V30 1433 O 135.797 1.21705 2.42693 0
M  V30 1434 C 134.253 3.43076 1.08751 0
M  V30 1435 C 133.861 4.48 -0.000146404 0
M  V30 1436 C 135.605 3.87785 1.72694 0
M  V30 1437 C 133.512 5.89113 0.519568 0
M  V30 1438 H 132.442 0.720775 0.221358 0
M  V30 1439 H 135.093 1.82821 -0.157675 0
M  V30 1440 H 133.475 3.48474 1.88101 0
M  V30 1441 H 134.649 4.54233 -0.775199 0
M  V30 1442 H 132.964 4.1283 -0.54406 0
M  V30 1443 H 135.561 4.90604 2.1263 0
M  V30 1444 H 135.904 3.25796 2.59158 0
M  V30 1445 H 136.437 3.8504 0.999457 0
M  V30 1446 H 133.176 6.54775 -0.308186 0
M  V30 1447 H 132.696 5.86376 1.26188 0
M  V30 1448 H 134.375 6.39346 0.992237 0
M  V30 1449 N 134.507 -0.190092 1.56449 0
M  V30 1450 C 135.755 -0.907908 1.80559 0
M  V30 1451 C 136.076 -1.83583 0.657438 0
M  V30 1452 O 135.346 -1.93203 -0.323924 0
M  V30 1453 H 133.926 -0.338247 0.666032 0
M  V30 1454 H 136.588 -0.194403 1.93928 0
M  V30 1455 H 135.684 -1.49604 2.73907 0
M  V30 1456 N 135.985 -1.50799 -0.457987 0
M  V30 1457 C 136.918 -1.65273 -1.57353 0
M  V30 1458 C 137.896 -0.500578 -1.54703 0
M  V30 1459 O 139.08 -0.721781 -1.74134 0
M  V30 1460 C 136.207 -1.64737 -2.95938 0
M  V30 1461 C 135.253 -2.8567 -3.16693 0
M  V30 1462 S 136.086 -4.46791 -2.95191 0
M  V30 1463 C 137.242 -4.48968 -4.36095 0
M  V30 1464 H 137.475 -2.59633 -1.44838 0
M  V30 1465 H 135.008 -1.40225 -0.64625 0
M  V30 1466 H 136.966 -1.65112 -3.7583 0
M  V30 1467 H 135.627 -0.715899 -3.05833 0
M  V30 1468 H 134.82 -2.81637 -4.17967 0
M  V30 1469 H 134.422 -2.8293 -2.44594 0
M  V30 1470 H 136.714 -4.23337 -5.28954 0
M  V30 1471 H 137.657 -5.50664 -4.45168 0
M  V30 1472 H 138.065 -3.78522 -4.18786 0
M  V30 1473 N 137.463 0.71206 -1.40597 0
M  V30 1474 C 138.691 1.50111 -1.42388 0
M  V30 1475 C 139.106 1.88784 -0.0245395 0
M  V30 1476 O 138.463 1.55681 0.952351 0
M  V30 1477 C 138.514 2.7742 -2.31776 0
M  V30 1478 O 138.235 2.40382 -3.66262 0
M  V30 1479 C 139.736 3.7129 -2.42196 0
M  V30 1480 H 136.956 0.46314 -0.485533 0
M  V30 1481 H 139.5 0.878068 -1.8469 0
M  V30 1482 H 137.655 3.36001 -1.92827 0
M  V30 1483 H 138.069 3.22324 -4.13772 0
M  V30 1484 H 139.543 4.57448 -3.08943 0
M  V30 1485 H 140.02 4.14641 -1.44809 0
M  V30 1486 H 140.626 3.18619 -2.81712 0
M  V30 1487 N 138.941 1.26152 0.944643 0
M  V30 1488 C 139.888 1.07408 2.04285 0
M  V30 1489 C 140.858 -0.0198413 1.66088 0
M  V30 1490 O 142.043 0.139264 1.90291 0
M  V30 1491 C 139.183 0.70945 3.37729 0
M  V30 1492 C 138.296 1.87926 3.88983 0
M  V30 1493 C 137.431 1.45807 5.10797 0
M  V30 1494 C 136.47 2.5964 5.54305 0
M  V30 1495 N 135.607 2.18226 6.67324 0
M  V30 1496 H 140.447 2.01389 2.1965 0
M  V30 1497 H 137.984 1.00275 1.07626 0
M  V30 1498 H 139.942 0.478948 4.14442 0
M  V30 1499 H 138.572 -0.193389 3.2222 0
M  V30 1500 H 137.624 2.22279 3.08701 0
M  V30 1501 H 138.936 2.73377 4.17213 0
M  V30 1502 H 138.09 1.18781 5.94959 0
M  V30 1503 H 136.829 0.574414 4.84305 0
M  V30 1504 H 135.834 2.87399 4.68702 0
M  V30 1505 H 137.059 3.48599 5.828 0
M  V30 1506 H 135.005 1.3229 6.42523 0
M  V30 1507 H 134.922 2.97221 6.95123 0
M  V30 1508 H 136.19 1.94403 7.54869 0
M  V30 1509 N 140.419 -1.14872 1.07899 0
M  V30 1510 C 141.382 -2.17986 0.708161 0
M  V30 1511 C 142.382 -1.58775 -0.25442 0
M  V30 1512 O 143.572 -1.74166 -0.034645 0
M  V30 1513 C 140.704 -3.40871 0.0446929 0
M  V30 1514 H 141.897 -2.52306 1.62116 0
M  V30 1515 H 139.45 -1.2943 0.876218 0
M  V30 1516 H 140.185 -3.12124 -0.880281 0
M  V30 1517 H 139.97 -3.8511 0.737091 0
M  V30 1518 H 141.46 -4.17121 -0.19991 0
M  V30 1519 N 141.898 -0.863906 -1.31812 0
M  V30 1520 C 143.175 -0.39275 -1.91616 0
M  V30 1521 C 143.555 1.12461 -1.7865 0
M  V30 1522 O 142.903 1.95045 -1.19037 0
M  V30 1523 C 143.113 -0.867385 -3.38049 0
M  V30 1524 C 144.461 -0.889966 -4.15168 0
M  V30 1525 O 145.485 -0.812635 -3.46806 0
M  V30 1526 O 144.344 -1.00079 -5.37258 0
M  V30 1527 H 141.438 -0.116358 -0.818773 0
M  V30 1528 H 143.984 -0.951418 -1.40521 0
M  V30 1529 H 142.756 -1.91081 -3.41473 0
M  V30 1530 H 142.379 -0.286687 -3.96565 0
M  V30 1531 N 143.376 1.44774 -0.622745 0
M  V30 1532 C 144.306 2.33382 0.0741861 0
M  V30 1533 C 145.287 1.47719 0.843387 0
M  V30 1534 O 146.472 1.76458 0.810934 0
M  V30 1535 C 143.602 3.30663 1.06204 0
M  V30 1536 C 142.556 4.26079 0.405037 0
M  V30 1537 C 141.882 5.13165 1.5022 0
M  V30 1538 C 143.182 5.1781 -0.683414 0
M  V30 1539 H 144.876 2.91905 -0.665713 0
M  V30 1540 H 142.422 1.40363 -0.321587 0
M  V30 1541 H 144.375 3.9153 1.55827 0
M  V30 1542 H 143.099 2.70331 1.83272 0
M  V30 1543 H 141.758 3.66532 -0.0704683 0
M  V30 1544 H 141.406 4.49191 2.26355 0
M  V30 1545 H 141.106 5.77812 1.06803 0
M  V30 1546 H 142.63 5.76902 2.00041 0
M  V30 1547 H 144.044 5.72661 -0.270631 0
M  V30 1548 H 142.441 5.91015 -1.04023 0
M  V30 1549 H 143.511 4.59326 -1.55395 0
M  V30 1550 N 144.854 0.36279 1.53368 0
M  V30 1551 C 146.103 -0.22888 2.00397 0
M  V30 1552 C 146.416 -1.50096 1.25421 0
M  V30 1553 O 147.622 -2.17106 1.63025 0
M  V30 1554 C 146.078 -0.458417 3.56969 0
M  V30 1555 C 145.686 0.798877 4.4082 0
M  V30 1556 C 147.43 -1.00789 4.12361 0
M  V30 1557 C 145.337 0.539078 5.88938 0
M  V30 1558 H 144.267 -0.089305 0.748693 0
M  V30 1559 H 146.918 0.481099 1.77081 0
M  V30 1560 H 145.3 -1.22959 3.76427 0
M  V30 1561 H 146.474 1.57262 4.33134 0
M  V30 1562 H 144.789 1.27137 3.96516 0
M  V30 1563 H 147.386 -1.21754 5.20653 0
M  V30 1564 H 147.729 -1.9692 3.66781 0
M  V30 1565 H 148.262 -0.296961 3.9669 0
M  V30 1566 H 145.001 1.47064 6.3879 0
M  V30 1567 H 144.521 -0.196222 5.99479 0
M  V30 1568 H 146.2 0.163542 6.46793 0
M  V30 1569 N 146.332 -1.57332 0.0918853 0
M  V30 1570 C 147.28 -2.15075 -0.885747 0
M  V30 1571 C 148.274 -1.09277 -1.29441 0
M  V30 1572 O 149.48 -1.27627 -1.26931 0
M  V30 1573 H 145.855 -0.687966 -0.303656 0
M  V30 1574 H 147.826 -2.96047 -0.373995 0
M  V30 1575 C 146.575 -2.74325 -2.13638 0
M  V30 1576 H 145.898 -3.55418 -1.8308 0
M  V30 1577 H 147.338 -3.183 -2.80109 0
M  V30 1578 C 145.797 -1.70062 -2.90827 0
M  V30 1579 O 146.327 -1.13763 -3.85254 0
M  V30 1580 N 144.533 -1.40628 -2.54307 0
M  V30 1581 H 144.08 -1.866 -1.7759 0
M  V30 1582 H 144.038 -0.711043 -3.06254 0
M  V30 1583 N 147.81 0.181792 -1.56548 0
M  V30 1584 C 148.758 1.24461 -1.965 0
M  V30 1585 C 149.752 1.464 -0.852261 0
M  V30 1586 O 150.958 1.47103 -1.03733 0
M  V30 1587 H 147.333 0.418138 -0.625031 0
M  V30 1588 H 149.304 0.880714 -2.85107 0
M  V30 1589 C 148.053 2.57891 -2.33212 0
M  V30 1590 H 147.376 2.41829 -3.18369 0
M  V30 1591 H 148.816 3.3097 -2.65019 0
M  V30 1592 C 147.275 3.15871 -1.17163 0
M  V30 1593 O 147.805 3.9913 -0.453708 0
M  V30 1594 N 146.011 2.74808 -0.944936 0
M  V30 1595 H 145.558 2.07205 -1.53049 0
M  V30 1596 H 145.516 3.13939 -0.170286 0
M  V30 1597 N 149.288 1.51039 0.449983 0
M  V30 1598 C 150.218 1.74379 1.55288 0
M  V30 1599 C 151.199 0.593236 1.5942 0
M  V30 1600 O 152.384 0.834625 1.7535 0
M  V30 1601 C 149.514 1.85728 2.93466 0
M  V30 1602 C 148.468 3.01078 3.04197 0
M  V30 1603 C 147.794 2.97595 4.44231 0
M  V30 1604 C 149.094 4.41254 2.7945 0
M  V30 1605 H 150.788 2.66725 1.36008 0
M  V30 1606 H 148.334 1.2835 0.652864 0
M  V30 1607 H 150.287 2.0064 3.70569 0
M  V30 1608 H 149.011 0.900207 3.13949 0
M  V30 1609 H 147.67 2.85851 2.29531 0
M  V30 1610 H 147.318 1.99691 4.61663 0
M  V30 1611 H 147.018 3.75046 4.52343 0
M  V30 1612 H 148.542 3.14583 5.23326 0
M  V30 1613 H 149.956 4.56897 3.46292 0
M  V30 1614 H 148.353 5.20315 2.98985 0
M  V30 1615 H 149.423 4.52164 1.75144 0
M  V30 1616 N 150.766 -0.704594 1.40972 0
M  V30 1617 C 152.014 -1.46169 1.39568 0
M  V30 1618 C 152.335 -1.95 0.00253745 0
M  V30 1619 O 151.605 -1.71095 -0.954114 0
M  V30 1620 H 150.185 -0.542326 0.513704 0
M  V30 1621 H 152.847 -0.834553 1.76128 0
M  V30 1622 H 151.943 -2.32922 2.07735 0
M  V30 1623 N 152.244 -1.26651 -0.937939 0
M  V30 1624 C 153.472 -1.15173 -1.7188 0
M  V30 1625 C 153.887 0.292668 -1.86518 0
M  V30 1626 O 153.244 1.20014 -1.37488 0
M  V30 1627 C 153.295 -1.81925 -3.12387 0
M  V30 1628 O 153.016 -3.2072 -2.98446 0
M  V30 1629 C 154.517 -1.76442 -4.06673 0
M  V30 1630 H 151.737 -0.400911 -0.538063 0
M  V30 1631 H 154.281 -1.67332 -1.1756 0
M  V30 1632 H 152.436 -1.33696 -3.63599 0
M  V30 1633 H 152.85 -3.53802 -3.872 0
M  V30 1634 H 154.324 -2.27781 -5.02812 0
M  V30 1635 H 154.801 -0.731608 -4.33064 0
M  V30 1636 H 155.407 -2.24238 -3.61382 0
M  V30 1637 N 153.722 1.14298 -1.08507 0
M  V30 1638 C 154.971 1.84708 -0.810305 0
M  V30 1639 C 155.284 1.83903 0.666271 0
M  V30 1640 O 156.49 2.50112 1.05624 0
M  V30 1641 C 154.946 3.31572 -1.39957 0
M  V30 1642 C 154.554 3.40791 -2.90801 0
M  V30 1643 C 156.298 4.07087 -1.20334 0
M  V30 1644 C 154.205 4.81872 -3.4286 0
M  V30 1645 H 153.135 0.691985 -0.299454 0
M  V30 1646 H 155.786 1.28841 -1.30661 0
M  V30 1647 H 154.168 3.87183 -0.830976 0
M  V30 1648 H 155.342 2.95225 -3.53806 0
M  V30 1649 H 153.657 2.78732 -3.0935 0
M  V30 1650 H 156.254 5.11225 -1.56693 0
M  V30 1651 H 156.597 4.16054 -0.143237 0
M  V30 1652 H 157.13 3.57779 -1.73893 0
M  V30 1653 H 153.869 4.78094 -4.48449 0
M  V30 1654 H 153.389 5.27972 -2.84615 0
M  V30 1655 H 155.068 5.50765 -3.39509 0
M  V30 1656 N 155.201 0.870884 1.31352 0
M  V30 1657 C 156.164 0.332243 2.26779 0
M  V30 1658 C 157.164 -0.517302 1.52252 0
M  V30 1659 O 158.354 -0.326477 1.71113 0
M  V30 1660 C 155.486 -0.528066 3.36785 0
M  V30 1661 H 156.679 1.17469 2.75937 0
M  V30 1662 H 154.232 0.64655 1.423 0
M  V30 1663 H 154.967 -1.39167 2.92922 0
M  V30 1664 H 154.752 0.0802582 3.92018 0
M  V30 1665 H 156.242 -0.897179 4.07849 0
M  V30 1666 N 156.679 -1.44442 0.630414 0
M  V30 1667 C 157.626 -2.30678 -0.0749355 0
M  V30 1668 C 158.596 -1.4344 -0.837502 0
M  V30 1669 O 159.781 -1.72343 -0.818684 0
M  V30 1670 C 156.921 -3.28706 -1.05103 0
M  V30 1671 C 156.034 -4.31046 -0.286954 0
M  V30 1672 C 155.169 -5.16167 -1.2548 0
M  V30 1673 C 154.208 -6.10216 -0.479843 0
M  V30 1674 N 153.345 -6.88039 -1.39811 0
M  V30 1675 H 158.185 -2.90454 0.666386 0
M  V30 1676 H 155.722 -1.43107 0.340404 0
M  V30 1677 H 157.68 -3.84027 -1.63031 0
M  V30 1678 H 156.31 -2.70632 -1.75949 0
M  V30 1679 H 155.362 -3.78203 0.408243 0
M  V30 1680 H 156.674 -4.97794 0.316657 0
M  V30 1681 H 155.828 -5.76002 -1.90544 0
M  V30 1682 H 154.567 -4.49491 -1.89233 0
M  V30 1683 H 153.572 -5.49491 0.184295 0
M  V30 1684 H 154.797 -6.78928 0.152965 0
M  V30 1685 H 152.743 -6.24032 -2.02287 0
M  V30 1686 H 152.66 -7.51223 -0.848508 0
M  V30 1687 H 153.928 -7.52397 -2.03762 0
M  V30 1688 N 158.157 -0.370918 -1.53173 0
M  V30 1689 C 159.382 0.220293 -2.06227 0
M  V30 1690 C 159.807 1.41243 -1.24225 0
M  V30 1691 O 159.165 1.79387 -0.262645 0
M  V30 1692 C 159.213 0.586663 -3.55796 0
M  V30 1693 O 158.317 1.68317 -3.76488 0
M  V30 1694 H 157.658 0.0308099 -0.663285 0
M  V30 1695 H 160.188 -0.533068 -1.97534 0
M  V30 1696 H 160.198 0.85617 -3.98916 0
M  V30 1697 H 158.873 -0.285013 -4.14922 0
M  V30 1698 H 157.45 1.40881 -3.45264 0
M  V30 1699 N 159.635 1.57281 -0.100228 0
M  V30 1700 C 160.883 1.94153 0.561157 0
M  V30 1701 C 161.204 0.983157 1.68401 0
M  V30 1702 O 160.474 0.0361132 1.95867 0
M  V30 1703 H 159.054 0.716791 0.210283 0
M  V30 1704 H 161.716 1.94202 -0.164765 0
M  V30 1705 H 160.812 2.96709 0.968008 0
M  V30 1706 N 161.113 -0.173488 1.56642 0
M  V30 1707 C 162.341 -0.906095 1.86004 0
M  V30 1708 C 162.756 -1.75921 0.685355 0
M  V30 1709 O 162.113 -1.79198 -0.345578 0
M  V30 1710 C 162.164 -1.78462 3.14378 0
M  V30 1711 O 161.885 -0.965914 4.27319 0
M  V30 1712 C 163.386 -2.62707 3.57071 0
M  V30 1713 H 160.606 -0.263341 0.617165 0
M  V30 1714 H 163.15 -0.174236 2.03756 0
M  V30 1715 H 161.305 -2.46984 2.98459 0
M  V30 1716 H 161.719 -1.56655 5.00559 0
M  V30 1717 H 163.193 -3.19969 4.49804 0
M  V30 1718 H 163.67 -3.37472 2.81086 0
M  V30 1719 H 164.276 -1.99521 3.75595 0
M  V30 1720 N 162.591 -1.51276 -0.441967 0
M  V30 1721 C 163.538 -1.72256 -1.53612 0
M  V30 1722 C 164.508 -0.564164 -1.56225 0
M  V30 1723 O 165.693 -0.798074 -1.73307 0
M  V30 1724 C 162.833 -1.84932 -2.91366 0
M  V30 1725 C 161.946 -3.12459 -2.98317 0
M  V30 1726 C 161.081 -3.15758 -4.27166 0
M  V30 1727 C 160.12 -4.37619 -4.27967 0
M  V30 1728 N 159.257 -4.38493 -5.48333 0
M  V30 1729 H 164.097 -2.65654 -1.35026 0
M  V30 1730 H 161.634 -1.31662 -0.656009 0
M  V30 1731 H 163.592 -1.90263 -3.7129 0
M  V30 1732 H 162.222 -0.949461 -3.08521 0
M  V30 1733 H 161.274 -3.1646 -2.11086 0
M  V30 1734 H 162.586 -4.02382 -2.94771 0
M  V30 1735 H 161.74 -3.19979 -5.15459 0
M  V30 1736 H 160.479 -2.23715 -4.33362 0
M  V30 1737 H 159.484 -4.33579 -3.38067 0
M  V30 1738 H 160.709 -5.30921 -4.23438 0
M  V30 1739 H 158.655 -3.49318 -5.55259 0
M  V30 1740 H 158.572 -5.22219 -5.46647 0
M  V30 1741 H 159.84 -4.469 -6.38671 0
M  V30 1742 N 164.069 0.697108 -1.41344 0
M  V30 1743 C 165.032 1.79281 -1.42797 0
M  V30 1744 C 166.032 1.57607 -0.318837 0
M  V30 1745 O 167.222 1.64309 -0.578642 0
M  V30 1746 C 164.354 3.17632 -1.23785 0
M  V30 1747 H 165.547 1.79385 -2.40335 0
M  V30 1748 H 163.1 0.904582 -1.27464 0
M  V30 1749 H 163.835 3.23167 -0.270814 0
M  V30 1750 H 163.62 3.34765 -2.04144 0
M  V30 1751 H 165.11 3.97617 -1.27633 0
M  V30 1752 N 165.547 1.27147 0.931209 0
M  V30 1753 C 166.794 1.13278 1.67852 0
M  V30 1754 C 167.122 -0.32204 1.91815 0
M  V30 1755 O 166.377 -1.25224 1.50391 0
M  V30 1756 C 166.676 1.8579 3.05314 0
M  V30 1757 C 166.342 3.35657 3.01073 0
M  V30 1758 C 165.004 3.76536 2.99623 0
M  V30 1759 C 167.356 4.31299 2.92627 0
M  V30 1760 C 164.684 5.11426 2.87506 0
M  V30 1761 C 167.036 5.66242 2.82051 0
M  V30 1762 C 165.7 6.06418 2.7895 0
M  V30 1763 H 164.97 0.414515 0.614214 0
M  V30 1764 H 167.617 1.57712 1.08624 0
M  V30 1765 H 165.922 1.33854 3.68226 0
M  V30 1766 H 167.619 1.72491 3.62005 0
M  V30 1767 H 164.209 3.03146 3.02986 0
M  V30 1768 H 168.393 4.00692 2.92848 0
M  V30 1769 H 163.649 5.41705 2.83489 0
M  V30 1770 H 167.823 6.40026 2.74481 0
M  V30 1771 H 165.45 7.10895 2.69318 0
M  V30 1772 N 167.025 -1.13721 1.09112 0
M  V30 1773 C 167.958 -2.18094 0.67158 0
M  V30 1774 C 168.936 -1.59414 -0.320299 0
M  V30 1775 O 170.12 -1.87183 -0.222444 0
M  V30 1776 C 167.247 -3.38698 -0.0111189 0
M  V30 1777 C 166.293 -4.15966 0.942055 0
M  V30 1778 S 167.126 -4.7604 2.45246 0
M  V30 1779 C 168.282 -5.99994 1.78208 0
M  V30 1780 H 168.515 -2.53344 1.55577 0
M  V30 1781 H 166.048 -1.24967 0.906789 0
M  V30 1782 H 168.006 -4.08559 -0.398716 0
M  V30 1783 H 166.667 -3.01756 -0.871905 0
M  V30 1784 H 165.86 -5.02318 0.411396 0
M  V30 1785 H 165.462 -3.51745 1.2709 0
M  V30 1786 H 167.754 -6.68441 1.10424 0
M  V30 1787 H 168.697 -6.57662 2.62463 0
M  V30 1788 H 169.105 -5.50432 1.25238 0
M  V30 1789 N 168.503 -0.877838 -1.30888 0
M  V30 1790 C 169.413 -0.343096 -2.32078 0
M  V30 1791 C 170.429 0.551022 -1.65045 0
M  V30 1792 O 171.605 0.445854 -1.96403 0
M  V30 1793 C 168.67 0.439905 -3.43898 0
M  V30 1794 C 167.731 -0.483111 -4.26573 0
M  V30 1795 C 166.964 0.262616 -5.33053 0
M  V30 1796 O 167.187 1.48967 -5.50604 0
M  V30 1797 O 166.121 -0.383593 -6.00676 0
M  V30 1798 H 169.947 -1.18203 -2.79753 0
M  V30 1799 H 167.532 -0.64145 -1.34929 0
M  V30 1800 H 169.414 0.883504 -4.12034 0
M  V30 1801 H 168.089 1.25526 -2.98371 0
M  V30 1802 H 166.996 -0.975374 -3.61161 0
M  V30 1803 H 168.329 -1.26427 -4.75686 0
M  V30 1804 N 169.982 1.44106 -0.638065 0
M  V30 1805 C 170.945 2.29138 0.0531013 0
M  V30 1806 C 171.945 1.41409 0.765506 0
M  V30 1807 O 173.135 1.63206 0.609046 0
M  V30 1808 C 170.267 3.23144 1.08584 0
M  V30 1809 H 171.46 2.91739 -0.694883 0
M  V30 1810 H 169.013 1.51134 -0.398538 0
M  V30 1811 H 169.748 2.65408 1.86357 0
M  V30 1812 H 169.533 3.87804 0.578852 0
M  V30 1813 H 171.023 3.87004 1.56899 0
M  V30 1814 N 171.46 0.379036 1.52974 0
M  V30 1815 C 172.39 -0.452706 2.29069 0
M  V30 1816 C 173.371 -1.07237 1.32039 0
M  V30 1817 O 174.556 -1.08708 1.60923 0
M  V30 1818 C 171.686 -1.5856 3.08992 0
M  V30 1819 C 170.64 -1.0925 4.13822 0
M  V30 1820 C 169.966 -2.31668 4.81907 0
M  V30 1821 C 171.266 -0.167702 5.22031 0
M  V30 1822 H 172.96 0.182181 2.98845 0
M  V30 1823 H 170.506 0.0890592 1.43724 0
M  V30 1824 H 172.459 -2.1742 3.6098 0
M  V30 1825 H 171.183 -2.24792 2.36931 0
M  V30 1826 H 169.842 -0.526494 3.628 0
M  V30 1827 H 169.49 -2.96386 4.06404 0
M  V30 1828 H 169.19 -1.9934 5.52754 0
M  V30 1829 H 170.714 -2.91189 5.36695 0
M  V30 1830 H 172.128 -0.664186 5.6944 0
M  V30 1831 H 170.525 0.0653265 6.00064 0
M  V30 1832 H 171.595 0.786347 4.78482 0
M  V30 1833 N 172.938 -1.57226 0.108567 0
M  V30 1834 C 173.87 -2.11809 -0.875752 0
M  V30 1835 C 174.883 -1.05839 -1.23701 0
M  V30 1836 O 176.072 -1.33245 -1.18778 0
M  V30 1837 C 173.172 -2.59411 -2.18081 0
M  V30 1838 C 172.345 -3.89364 -1.99284 0
M  V30 1839 C 171.404 -4.22672 -3.13424 0
M  V30 1840 O 170.43 -4.91668 -2.86795 0
M  V30 1841 N 171.632 -3.79154 -4.3957 0
M  V30 1842 H 174.397 -2.9689 -0.409477 0
M  V30 1843 H 171.958 -1.61721 -0.076158 0
M  V30 1844 H 173.95 -2.7873 -2.93414 0
M  V30 1845 H 172.52 -1.79268 -2.5609 0
M  V30 1846 H 171.74 -3.79059 -1.08203 0
M  V30 1847 H 173.028 -4.74358 -1.84017 0
M  V30 1848 H 172.426 -3.23486 -4.64083 0
M  V30 1849 H 170.983 -4.03602 -5.11809 0
M  V30 1850 N 174.416 0.165178 -1.56732 0
M  V30 1851 C 175.379 1.18822 -1.95995 0
M  V30 1852 C 176.379 1.3685 -0.84431 0
M  V30 1853 O 177.569 1.34152 -1.11126 0
M  V30 1854 C 174.701 2.5521 -2.26011 0
M  V30 1855 H 175.894 0.851825 -2.87548 0
M  V30 1856 H 173.447 0.407857 -1.50885 0
M  V30 1857 H 174.182 2.93852 -1.37191 0
M  V30 1858 H 173.967 2.43489 -3.07336 0
M  V30 1859 H 175.457 3.28927 -2.57288 0
M  V30 1860 N 175.894 1.51508 0.433938 0
M  V30 1861 C 177.142 1.6402 1.18075 0
M  V30 1862 C 177.463 0.360328 1.91642 0
M  V30 1863 O 176.733 -0.623945 1.85698 0
M  V30 1864 H 175.313 0.6045 0.43885 0
M  V30 1865 H 177.975 1.88452 0.497178 0
M  V30 1866 H 177.071 2.46949 1.90847 0
M  V30 1867 N 177.372 -0.689602 1.41712 0
M  V30 1868 C 178.335 -1.78521 1.43746 0
M  V30 1869 C 179.335 -1.57436 0.327191 0
M  V30 1870 O 180.525 -1.64 0.587348 0
M  V30 1871 C 177.657 -3.16971 1.25467 0
M  V30 1872 H 178.85 -1.78108 2.41283 0
M  V30 1873 H 176.403 -0.89781 1.27942 0
M  V30 1874 H 177.138 -3.23019 0.287948 0
M  V30 1875 H 176.923 -3.33678 2.05917 0
M  V30 1876 H 178.413 -3.96935 1.2974 0
M  V30 1877 N 178.85 -1.27639 -0.924453 0
M  V30 1878 C 180.127 -1.04887 -1.651 0
M  V30 1879 C 180.507 0.415327 -2.06974 0
M  V30 1880 O 179.855 1.39923 -1.80648 0
M  V30 1881 C 180.065 -2.01348 -2.85061 0
M  V30 1882 C 181.413 -2.30899 -3.56329 0
M  V30 1883 O 182.437 -1.99348 -2.95193 0
M  V30 1884 O 181.296 -2.84699 -4.66485 0
M  V30 1885 H 178.39 -0.400083 -0.723784 0
M  V30 1886 H 180.936 -1.38916 -0.974703 0
M  V30 1887 H 179.708 -3.0008 -2.51133 0
M  V30 1888 H 179.331 -1.679 -3.6041 0
M  V30 1889 N 180.328 1.1314 -1.09713 0
M  V30 1890 C 181.577 1.83838 -0.829851 0
M  V30 1891 C 181.89 1.84599 0.646728 0
M  V30 1892 O 183.096 2.51218 1.02965 0
M  V30 1893 C 181.552 3.30069 -1.43466 0
M  V30 1894 C 181.16 3.37688 -2.94399 0
M  V30 1895 C 182.904 4.05788 -1.24645 0
M  V30 1896 C 180.811 4.78209 -3.47952 0
M  V30 1897 H 179.741 0.68877 -0.306777 0
M  V30 1898 H 182.392 1.27448 -1.3202 0
M  V30 1899 H 180.774 3.8628 -0.871996 0
M  V30 1900 H 181.948 2.91456 -3.56918 0
M  V30 1901 H 180.263 2.75436 -3.12289 0
M  V30 1902 H 182.86 5.09535 -1.62107 0
M  V30 1903 H 183.203 4.15878 -0.187357 0
M  V30 1904 H 183.736 3.55915 -1.77678 0
M  V30 1905 H 180.475 4.73311 -4.53495 0
M  V30 1906 H 179.995 5.24924 -2.90198 0
M  V30 1907 H 181.674 5.47133 -3.45332 0
M  V30 1908 N 181.806 0.884767 1.30421 0
M  V30 1909 C 183.031 0.517288 2.00845 0
M  V30 1910 C 183.456 -0.886779 1.65885 0
M  V30 1911 O 182.814 -1.58768 0.875354 0
M  V30 1912 C 182.862 0.698994 3.5376 0
M  V30 1913 O 181.966 -0.255208 4.1161 0
M  V30 1914 H 181.307 0.203872 0.631927 0
M  V30 1915 H 183.837 1.19225 1.66272 0
M  V30 1916 H 183.847 0.597912 4.03595 0
M  V30 1917 H 182.522 1.72271 3.78544 0
M  V30 1918 H 181.099 -0.10784 3.72744 0
M  V30 1919 N 183.284 -1.43765 0.645699 0
M  V30 1920 C 184.217 -2.2798 -0.100072 0
M  V30 1921 C 185.195 -1.39391 -0.837194 0
M  V30 1922 O 186.379 -1.68833 -0.838306 0
M  V30 1923 C 183.506 -3.18643 -1.14823 0
M  V30 1924 C 182.552 -4.2344 -0.510009 0
M  V30 1925 S 183.385 -5.30761 0.710824 0
M  V30 1926 C 184.541 -6.24992 -0.33699 0
M  V30 1927 H 184.774 -2.90884 0.614322 0
M  V30 1928 H 182.307 -1.48166 0.434304 0
M  V30 1929 H 184.265 -3.71424 -1.74799 0
M  V30 1930 H 182.926 -2.54932 -1.8349 0
M  V30 1931 H 182.119 -4.86948 -1.29991 0
M  V30 1932 H 181.721 -3.73997 0.0154577 0
M  V30 1933 H 184.013 -6.66691 -1.20537 0
M  V30 1934 H 184.956 -7.07612 0.262879 0
M  V30 1935 H 185.364 -5.60517 -0.669425 0
M  V30 1936 N 184.763 -0.387143 -1.52771 0
M  V30 1937 C 186.012 0.19697 -2.00736 0
M  V30 1938 C 186.325 1.48082 -1.27793 0
M  V30 1939 O 187.531 2.14485 -1.66458 0
M  V30 1940 C 185.987 0.401568 -3.57653 0
M  V30 1941 C 185.595 -0.868907 -4.39493 0
M  V30 1942 C 187.339 0.942164 -4.13912 0
M  V30 1943 C 185.246 -0.632705 -5.88006 0
M  V30 1944 H 184.176 0.0773827 -0.750019 0
M  V30 1945 H 186.827 -0.50921 -1.76293 0
M  V30 1946 H 185.209 1.16954 -3.78335 0
M  V30 1947 H 186.383 -1.64133 -4.30577 0
M  V30 1948 H 184.698 -1.33429 -3.94443 0
M  V30 1949 H 187.295 1.13455 -5.22525 0
M  V30 1950 H 187.638 1.9106 -3.69867 0
M  V30 1951 H 188.171 0.233814 -3.97112 0
M  V30 1952 H 184.91 -1.57208 -6.36369 0
M  V30 1953 H 184.43 0.100825 -5.99715 0
M  V30 1954 H 186.109 -0.26642 -6.46451 0
M  V30 1955 N 186.241 1.57166 -0.116904 0
M  V30 1956 C 187.489 1.94737 0.540533 0
M  V30 1957 C 187.81 1.00096 1.67349 0
M  V30 1958 O 187.08 0.0568854 1.95817 0
M  V30 1959 H 185.66 0.718981 0.202669 0
M  V30 1960 H 188.322 1.94017 -0.185353 0
M  V30 1961 H 187.418 2.97719 0.936483 0
M  V30 1962 N 187.719 -0.156864 1.56817 0
M  V30 1963 C 188.651 -1.21883 1.94106 0
M  V30 1964 C 189.664 -1.3971 0.835754 0
M  V30 1965 O 190.853 -1.39457 1.11418 0
M  V30 1966 C 187.953 -2.58527 2.19127 0
M  V30 1967 C 187.126 -2.61809 3.50393 0
M  V30 1968 C 186.185 -3.7992 3.64071 0
M  V30 1969 O 185.211 -3.65249 4.36557 0
M  V30 1970 N 186.413 -4.96973 2.99997 0
M  V30 1971 H 189.178 -0.901974 2.85805 0
M  V30 1972 H 186.739 -0.346513 1.58148 0
M  V30 1973 H 188.731 -3.36034 2.25529 0
M  V30 1974 H 187.301 -2.82545 1.33742 0
M  V30 1975 H 186.521 -1.7029 3.5552 0
M  V30 1976 H 187.809 -2.61024 4.36742 0
M  V30 1977 H 187.207 -5.11794 2.41004 0
M  V30 1978 H 185.764 -5.7229 3.11974 0
M  V30 1979 N 189.197 -1.51736 -0.425897 0
M  V30 1980 C 190.444 -1.6497 -1.17436 0
M  V30 1981 C 190.772 -0.371445 -1.9092 0
M  V30 1982 O 190.027 0.644963 -1.84767 0
M  V30 1983 C 190.326 -2.81103 -2.20717 0
M  V30 1984 C 189.992 -4.19954 -1.64162 0
M  V30 1985 C 188.654 -4.57725 -1.48462 0
M  V30 1986 C 191.006 -5.06552 -1.22696 0
M  V30 1987 C 188.334 -5.79789 -0.897873 0
M  V30 1988 C 190.686 -6.29205 -0.654464 0
M  V30 1989 C 189.35 -6.6574 -0.484456 0
M  V30 1990 H 188.62 -0.603668 -0.429727 0
M  V30 1991 H 191.267 -1.85798 -0.463829 0
M  V30 1992 H 189.572 -2.54542 -2.97852 0
M  V30 1993 H 191.269 -2.8854 -2.78471 0
M  V30 1994 H 187.859 -3.90181 -1.77361 0
M  V30 1995 H 192.043 -4.77968 -1.33642 0
M  V30 1996 H 187.299 -6.06733 -0.75402 0
M  V30 1997 H 191.473 -6.95643 -0.324694 0
M  V30 1998 H 189.1 -7.60195 -0.0276833 0
M  V30 1999 N 190.675 0.682077 -1.42076 0
M  V30 2000 C 191.923 1.4393 -1.41876 0
M  V30 2001 C 192.244 1.94971 -0.0335599 0
M  V30 2002 O 191.514 1.72591 0.926773 0
M  V30 2003 H 190.094 0.534085 -0.522267 0
M  V30 2004 H 192.756 0.806427 -1.77434 0
M  V30 2005 H 191.852 2.29588 -2.11414 0
M  V30 2006 N 192.153 1.28127 0.917671 0
M  V30 2007 C 193.399 1.15223 1.66888 0
M  V30 2008 C 193.732 -0.299293 1.9188 0
M  V30 2009 O 193.007 -1.21805 1.51637 0
M  V30 2010 C 193.29 1.94706 3.02922 0
M  V30 2011 C 193.143 3.47898 2.85109 0
M  V30 2012 C 194.462 1.75939 4.03402 0
M  V30 2013 H 191.581 0.419946 0.605652 0
M  V30 2014 H 194.223 1.57398 1.06423 0
M  V30 2015 H 192.373 1.58864 3.54534 0
M  V30 2016 H 194.045 3.93624 2.40537 0
M  V30 2017 H 192.288 3.7373 2.20246 0
M  V30 2018 H 192.959 3.98765 3.81694 0
M  V30 2019 H 195.435 2.07209 3.60837 0
M  V30 2020 H 194.311 2.33931 4.96556 0
M  V30 2021 H 194.572 0.709877 4.36364 0
M  V30 2022 N 193.631 -1.12557 1.10312 0
M  V30 2023 C 194.879 -1.83675 0.843091 0
M  V30 2024 C 195.2 -1.84435 -0.633131 0
M  V30 2025 O 194.47 -1.30657 -1.45964 0
M  V30 2026 H 193.05 -0.680138 0.308904 0
M  V30 2027 H 195.712 -1.36301 1.39313 0
M  V30 2028 H 194.808 -2.87908 1.2048 0
M  V30 2029 N 195.109 -0.891671 -1.2995 0
M  V30 2030 C 196.356 -0.513501 -1.95881 0
M  V30 2031 C 196.684 0.938655 -1.70351 0
M  V30 2032 O 195.939 1.67936 -1.00478 0
M  V30 2033 C 196.238 -0.742868 -3.49594 0
M  V30 2034 C 195.904 -2.17114 -3.95186 0
M  V30 2035 C 194.566 -2.56169 -4.07346 0
M  V30 2036 C 196.918 -3.10162 -4.18866 0
M  V30 2037 C 194.246 -3.87469 -4.4055 0
M  V30 2038 C 196.598 -4.41001 -4.53542 0
M  V30 2039 C 195.262 -4.79941 -4.63911 0
M  V30 2040 H 194.532 -0.187903 -0.71678 0
M  V30 2041 H 197.179 -1.1288 -1.54694 0
M  V30 2042 H 195.484 -0.044586 -3.91775 0
M  V30 2043 H 197.181 -0.429767 -3.9869 0
M  V30 2044 H 193.771 -1.85801 -3.86233 0
M  V30 2045 H 197.955 -2.81206 -4.08946 0
M  V30 2046 H 193.211 -4.17371 -4.46779 0
M  V30 2047 H 197.385 -5.13133 -4.70815 0
M  V30 2048 H 195.012 -5.81719 -4.89395 0
M  V30 2049 N 196.587 1.43421 -0.653314 0
M  V30 2050 C 197.817 2.05864 -0.174238 0
M  V30 2051 C 198.225 1.49052 1.16534 0
M  V30 2052 O 197.568 0.616481 1.73047 0
M  V30 2053 C 197.63 3.59499 -0.00875873 0
M  V30 2054 C 197.294 4.38893 -1.27364 0
M  V30 2055 C 198.291 4.70947 -2.20239 0
M  V30 2056 C 195.976 4.789 -1.51525 0
M  V30 2057 C 197.97 5.41916 -3.35568 0
M  V30 2058 C 195.657 5.49614 -2.67147 0
M  V30 2059 C 196.655 5.81044 -3.58994 0
M  V30 2060 O 196.343 6.50313 -4.72597 0
M  V30 2061 H 196.075 0.670345 -0.0872549 0
M  V30 2062 H 198.629 1.84913 -0.894226 0
M  V30 2063 H 196.859 3.79025 0.7666 0
M  V30 2064 H 198.548 4.0364 0.427687 0
M  V30 2065 H 199.314 4.40558 -2.02815 0
M  V30 2066 H 195.193 4.53843 -0.809158 0
M  V30 2067 H 198.737 5.66365 -4.07279 0
M  V30 2068 H 194.634 5.79419 -2.84505 0
M  V30 2069 H 195.402 6.68795 -4.71864 0
M  V30 2070 N 198.065 0.39524 1.52563 0
M  V30 2071 C 199.29 -0.187456 2.06551 0
M  V30 2072 C 199.715 -1.39249 1.26457 0
M  V30 2073 O 199.073 -1.78947 0.291151 0
M  V30 2074 C 199.121 -0.529985 3.56684 0
M  V30 2075 O 198.225 -1.62307 3.79118 0
M  V30 2076 H 197.566 -0.0202537 0.663691 0
M  V30 2077 H 200.096 0.564426 1.96661 0
M  V30 2078 H 200.106 -0.792598 4.00227 0
M  V30 2079 H 198.781 0.350987 4.14416 0
M  V30 2080 H 197.358 -1.3537 3.47461 0
M  V30 2081 N 199.544 -1.57102 0.125237 0
M  V30 2082 C 200.507 -2.14471 -0.80838 0
M  V30 2083 C 201.507 -1.0811 -1.19033 0
M  V30 2084 O 202.697 -1.33856 -1.11482 0
M  V30 2085 C 199.829 -2.69005 -2.09402 0
M  V30 2086 H 201.022 -2.98297 -0.309696 0
M  V30 2087 H 198.575 -1.55807 -0.124051 0
M  V30 2088 H 199.31 -1.88785 -2.63687 0
M  V30 2089 H 199.095 -3.46799 -1.82957 0
M  V30 2090 H 200.585 -3.13278 -2.76128 0
M  V30 2091 N 201.022 0.148545 -1.56898 0
M  V30 2092 C 202.252 0.875118 -1.8715 0
M  V30 2093 C 202.66 1.75322 -0.711262 0
M  V30 2094 O 202.003 1.80745 0.328151 0
M  V30 2095 C 202.065 1.7844 -3.12089 0
M  V30 2096 C 201.729 1.08361 -4.43967 0
M  V30 2097 C 202.726 0.438247 -5.1805 0
M  V30 2098 C 200.411 1.07358 -4.90693 0
M  V30 2099 C 202.405 -0.20779 -6.37061 0
M  V30 2100 C 200.092 0.42373 -6.09629 0
M  V30 2101 C 201.09 -0.215829 -6.82659 0
M  V30 2102 O 200.778 -0.855378 -7.99336 0
M  V30 2103 H 200.51 0.258504 -0.624621 0
M  V30 2104 H 203.064 0.14652 -2.04877 0
M  V30 2105 H 201.294 2.55389 -2.90367 0
M  V30 2106 H 202.983 2.38279 -3.286 0
M  V30 2107 H 203.749 0.437817 -4.8302 0
M  V30 2108 H 199.628 1.5608 -4.33774 0
M  V30 2109 H 203.172 -0.70758 -6.94002 0
M  V30 2110 H 199.069 0.421822 -6.4412 0
M  V30 2111 H 199.837 -0.756892 -8.14993 0
M  V30 2112 N 202.5 1.5196 0.417844 0
M  V30 2113 C 203.43 1.77634 1.51554 0
M  V30 2114 C 204.411 0.626918 1.58126 0
M  V30 2115 O 205.596 0.871632 1.7354 0
M  V30 2116 C 202.726 1.91911 2.8946 0
M  V30 2117 C 201.68 3.07463 2.97743 0
M  V30 2118 C 201.006 3.06951 4.37819 0
M  V30 2119 C 202.306 4.47082 2.70027 0
M  V30 2120 H 204 2.6955 1.3032 0
M  V30 2121 H 201.546 1.29706 0.625492 0
M  V30 2122 H 203.499 2.08455 3.6623 0
M  V30 2123 H 202.223 0.966598 3.11969 0
M  V30 2124 H 200.882 2.90656 2.23416 0
M  V30 2125 H 200.53 2.09438 4.57323 0
M  V30 2126 H 200.23 3.84556 4.44286 0
M  V30 2127 H 201.754 3.25613 5.16535 0
M  V30 2128 H 203.168 4.6414 3.36522 0
M  V30 2129 H 201.565 5.2654 2.87881 0
M  V30 2130 H 202.635 4.55777 1.65514 0
M  V30 2131 N 203.978 -0.674533 1.42435 0
M  V30 2132 C 205.224 -1.43671 1.43131 0
M  V30 2133 C 205.557 -1.94142 0.0476021 0
M  V30 2134 O 204.832 -1.70924 -0.928188 0
M  V30 2135 C 205.115 -2.63355 2.45594 0
M  V30 2136 C 204.968 -2.18514 3.93156 0
M  V30 2137 C 206.287 -3.65571 2.45043 0
M  V30 2138 H 203.406 -0.521077 0.521198 0
M  V30 2139 H 206.048 -0.766551 1.7385 0
M  V30 2140 H 204.198 -3.2053 2.19528 0
M  V30 2141 H 205.87 -1.66504 4.30202 0
M  V30 2142 H 204.113 -1.50086 4.07009 0
M  V30 2143 H 204.784 -3.04484 4.60428 0
M  V30 2144 H 207.26 -3.18113 2.68223 0
M  V30 2145 H 206.136 -4.46893 3.18713 0
M  V30 2146 H 206.397 -4.16716 1.47649 0
M  V30 2147 N 205.456 -1.28612 -0.910864 0
M  V30 2148 C 206.419 -1.12803 -1.9952 0
M  V30 2149 C 207.419 -0.0668264 -1.60661 0
M  V30 2150 O 208.609 -0.312847 -1.71368 0
M  V30 2151 C 205.741 -0.72254 -3.33155 0
M  V30 2152 H 206.934 -2.09109 -2.14973 0
M  V30 2153 H 204.487 -1.11639 -1.09391 0
M  V30 2154 H 205.222 0.241152 -3.23402 0
M  V30 2155 H 205.007 -1.48916 -3.62721 0
M  V30 2156 H 206.497 -0.634666 -4.12749 0
M  V30 2157 N 206.934 1.1197 -1.10907 0
M  V30 2158 C 207.844 2.21433 -0.774896 0
M  V30 2159 C 208.86 1.72478 0.229657 0
M  V30 2160 O 210.036 2.01288 0.0672008 0
M  V30 2161 C 207.101 3.4602 -0.216986 0
M  V30 2162 C 206.162 4.09791 -1.27944 0
M  V30 2163 C 205.395 5.28431 -0.748055 0
M  V30 2164 O 205.618 5.68823 0.423833 0
M  V30 2165 O 204.552 5.82644 -1.51027 0
M  V30 2166 H 208.378 2.5242 -1.68873 0
M  V30 2167 H 205.963 1.20399 -0.884555 0
M  V30 2168 H 207.845 4.21304 0.090059 0
M  V30 2169 H 206.52 3.16698 0.669633 0
M  V30 2170 H 205.427 3.36265 -1.63941 0
M  V30 2171 H 206.76 4.4328 -2.13925 0
M  V30 2172 N 208.412 0.89855 1.29475 0
M  V30 2173 C 209.359 0.373819 2.27753 0
M  V30 2174 C 210.329 -0.543444 1.56958 0
M  V30 2175 O 211.514 -0.468934 1.84948 0
M  V30 2176 C 208.654 -0.393648 3.42848 0
M  V30 2177 C 207.767 0.554379 4.28428 0
M  V30 2178 C 206.902 -0.230026 5.30702 0
M  V30 2179 C 205.941 0.712599 6.07938 0
M  V30 2180 N 205.078 -0.0373283 7.0209 0
M  V30 2181 H 209.918 1.21699 2.72017 0
M  V30 2182 H 207.455 0.611456 1.33789 0
M  V30 2183 H 209.413 -0.85466 4.08352 0
M  V30 2184 H 208.043 -1.20128 2.99615 0
M  V30 2185 H 207.095 1.13391 3.63107 0
M  V30 2186 H 208.407 1.27597 4.82204 0
M  V30 2187 H 207.561 -0.752288 6.02018 0
M  V30 2188 H 206.3 -0.984758 4.77654 0
M  V30 2189 H 205.305 1.24637 5.35486 0
M  V30 2190 H 206.53 1.46664 6.63074 0
M  V30 2191 H 204.476 -0.774348 6.51414 0
M  V30 2192 H 204.393 0.624374 7.53417 0
M  V30 2193 H 205.661 -0.539891 7.77628 0
M  V30 2194 N 209.89 -1.43072 0.660911 0
M  V30 2195 C 211.136 -2.0202 0.177708 0
M  V30 2196 C 211.469 -1.52066 -1.20787 0
M  V30 2197 O 210.744 -0.716987 -1.80802 0
M  V30 2198 C 211.027 -3.59561 0.197019 0
M  V30 2199 C 210.88 -4.19727 1.61706 0
M  V30 2200 C 212.199 -4.37664 -0.462396 0
M  V30 2201 H 209.318 -0.734034 0.0660494 0
M  V30 2202 H 211.96 -1.70272 0.843058 0
M  V30 2203 H 210.11 -3.86739 -0.369527 0
M  V30 2204 H 211.782 -4.03553 2.23479 0
M  V30 2205 H 210.025 -3.76084 2.16201 0
M  V30 2206 H 210.696 -5.28834 1.58237 0
M  V30 2207 H 213.172 -4.16095 0.0197215 0
M  V30 2208 H 212.048 -5.47305 -0.418188 0
M  V30 2209 H 212.309 -4.14493 -1.53778 0
M  V30 2210 N 211.368 -0.403325 -1.52352 0
M  V30 2211 C 212.614 0.174605 -2.02047 0
M  V30 2212 C 212.947 1.45282 -1.28867 0
M  V30 2213 O 212.222 1.90483 -0.393257 0
M  V30 2214 C 212.505 0.428238 -3.57545 0
M  V30 2215 C 212.358 -0.866248 -4.4138 0
M  V30 2216 C 213.677 1.21287 -4.23057 0
M  V30 2217 H 210.796 0.0619851 -0.734389 0
M  V30 2218 H 213.438 -0.53565 -1.82293 0
M  V30 2219 H 211.588 1.03327 -3.74507 0
M  V30 2220 H 213.26 -1.50265 -4.3614 0
M  V30 2221 H 211.503 -1.47851 -4.07827 0
M  V30 2222 H 212.174 -0.643249 -5.48239 0
M  V30 2223 H 214.65 0.700703 -4.10158 0
M  V30 2224 H 213.526 1.35909 -5.31808 0
M  V30 2225 H 213.787 2.23193 -3.81625 0
M  V30 2226 N 212.846 1.57033 -0.133567 0
M  V30 2227 C 214.092 1.95976 0.521649 0
M  V30 2228 C 214.425 1.01779 1.65393 0
M  V30 2229 O 213.7 0.0576581 1.94415 0
M  V30 2230 C 213.983 3.44738 1.04057 0
M  V30 2231 C 213.836 4.49711 -0.0892897 0
M  V30 2232 C 215.155 3.95682 1.92675 0
M  V30 2233 H 212.274 0.712579 0.188149 0
M  V30 2234 H 214.916 1.88813 -0.212076 0
M  V30 2235 H 213.066 3.50973 1.66583 0
M  V30 2236 H 214.738 4.55565 -0.725152 0
M  V30 2237 H 212.981 4.27261 -0.750378 0
M  V30 2238 H 213.652 5.51099 0.315284 0
M  V30 2239 H 216.128 3.91841 1.39998 0
M  V30 2240 H 215.004 5.00262 2.25897 0
M  V30 2241 H 215.265 3.37239 2.85872 0
M  V30 2242 N 214.325 -0.140222 1.56975 0
M  V30 2243 C 215.574 -0.850152 1.82908 0
M  V30 2244 C 215.887 -1.82028 0.715892 0
M  V30 2245 O 217.093 -2.57485 0.861016 0
M  V30 2246 C 215.549 -1.5625 3.24213 0
M  V30 2247 C 215.157 -0.63443 4.43485 0
M  V30 2248 C 216.901 -2.25881 3.59413 0
M  V30 2249 C 214.808 -1.34879 5.75814 0
M  V30 2250 H 213.738 -0.321221 0.682153 0
M  V30 2251 H 216.389 -0.102874 1.83211 0
M  V30 2252 H 214.771 -2.35565 3.18316 0
M  V30 2253 H 215.945 0.12398 4.60633 0
M  V30 2254 H 214.26 -0.0461836 4.16374 0
M  V30 2255 H 216.857 -2.79978 4.5554 0
M  V30 2256 H 217.2 -3.02693 2.85802 0
M  V30 2257 H 217.733 -1.53477 3.67001 0
M  V30 2258 H 214.472 -0.622385 6.52539 0
M  V30 2259 H 213.992 -2.07974 5.6259 0
M  V30 2260 H 215.671 -1.88784 6.18845 0
M  V30 2261 N 215.803 -1.52179 -0.40978 0
M  V30 2262 C 217.031 -1.70054 -1.17853 0
M  V30 2263 C 217.446 -0.409735 -1.843 0
M  V30 2264 O 216.803 0.614183 -1.71855 0
M  V30 2265 C 216.854 -2.83568 -2.24213 0
M  V30 2266 O 216.575 -4.0765 -1.60478 0
M  V30 2267 C 218.076 -3.12947 -3.13973 0
M  V30 2268 H 215.296 -0.569917 -0.354169 0
M  V30 2269 H 217.84 -1.98734 -0.482198 0
M  V30 2270 H 215.995 -2.57409 -2.89516 0
M  V30 2271 H 216.409 -4.70899 -2.30986 0
M  V30 2272 H 217.883 -3.95889 -3.84677 0
M  V30 2273 H 218.36 -2.26472 -3.76307 0
M  V30 2274 H 218.966 -3.40868 -2.5434 0
M  V30 2275 N 217.281 0.66697 -1.42791 0
M  V30 2276 C 218.228 1.7803 -1.4688 0
M  V30 2277 C 219.198 1.6299 -0.319919 0
M  V30 2278 O 220.383 1.83432 -0.525118 0
M  V30 2279 C 217.523 3.1611 -1.38451 0
M  V30 2280 C 216.636 3.42381 -2.63437 0
M  V30 2281 C 215.771 4.70232 -2.47094 0
M  V30 2282 C 214.81 4.89564 -3.67415 0
M  V30 2283 N 213.947 6.08661 -3.49966 0
M  V30 2284 H 218.787 1.7387 -2.42019 0
M  V30 2285 H 216.324 0.84868 -1.20149 0
M  V30 2286 H 218.282 3.95914 -1.31561 0
M  V30 2287 H 216.912 3.19374 -0.469033 0
M  V30 2288 H 215.964 2.56774 -2.80662 0
M  V30 2289 H 217.276 3.52557 -3.52853 0
M  V30 2290 H 216.43 5.5814 -2.37834 0
M  V30 2291 H 215.169 4.62353 -1.5518 0
M  V30 2292 H 214.174 4.00096 -3.77099 0
M  V30 2293 H 215.399 4.99282 -4.6032 0
M  V30 2294 H 213.345 6.0194 -2.60776 0
M  V30 2295 H 213.262 6.19733 -4.32975 0
M  V30 2296 H 214.53 6.99226 -3.44532 0
M  V30 2297 N 218.759 1.29093 0.90403 0
M  V30 2298 C 219.709 1.10482 1.99443 0
M  V30 2299 C 220.693 0.0255401 1.6088 0
M  V30 2300 O 221.885 0.24677 1.75271 0
M  V30 2301 C 219.014 0.778882 3.34348 0
M  V30 2302 C 218.1 1.89749 3.79284 0
M  V30 2303 N 218.491 3.14045 3.96497 0
M  V30 2304 C 216.789 1.78955 4.08523 0
M  V30 2305 C 217.49 3.86996 4.34292 0
M  V30 2306 N 216.466 3.14909 4.43095 0
M  V30 2307 H 220.268 2.04778 2.10815 0
M  V30 2308 H 217.782 1.20155 1.09255 0
M  V30 2309 H 219.779 0.62661 4.12164 0
M  V30 2310 H 218.439 -0.156205 3.24324 0
M  V30 2311 H 219.45 3.49548 3.82148 0
M  V30 2312 H 216.127 0.926886 4.07081 0
M  V30 2313 H 217.517 4.93941 4.55491 0
M  V30 2314 N 220.237 -1.11381 1.11499 0
M  V30 2315 C 221.185 -2.19522 0.768956 0
M  V30 2316 C 222.179 -1.67693 -0.239857 0
M  V30 2317 O 223.385 -1.79727 -0.0990755 0
M  V30 2318 H 219.76 -0.715711 0.230786 0
M  V30 2319 H 221.731 -2.45954 1.68964 0
M  V30 2320 C 220.48 -3.46945 0.229073 0
M  V30 2321 H 219.803 -3.8718 0.996596 0
M  V30 2322 H 221.243 -4.23993 0.0251441 0
M  V30 2323 C 219.702 -3.2042 -1.04079 0
M  V30 2324 O 220.232 -3.41178 -2.12038 0
M  V30 2325 N 218.438 -2.74151 -0.963823 0
M  V30 2326 H 217.985 -2.57459 -0.0851722 0
M  V30 2327 H 217.943 -2.56781 -1.81414 0
M  V30 2328 N 221.715 -0.905404 -1.28997 0
M  V30 2329 C 222.992 -0.453513 -1.9027 0
M  V30 2330 C 223.372 1.06721 -1.82137 0
M  V30 2331 O 222.72 1.91159 -1.25182 0
M  V30 2332 C 222.93 -0.974494 -3.35119 0
M  V30 2333 C 224.278 -1.0216 -4.12127 0
M  V30 2334 O 225.302 -0.922557 -3.44046 0
M  V30 2335 O 224.161 -1.17121 -5.33802 0
M  V30 2336 H 221.255 -0.142347 -0.814657 0
M  V30 2337 H 223.801 -0.995642 -1.37423 0
M  V30 2338 H 222.573 -2.01848 -3.35221 0
M  V30 2339 H 222.196 -0.412706 -3.95452 0
M  V30 2340 N 223.193 1.4272 -0.668489 0
M  V30 2341 C 224.47 1.95248 -0.117373 0
M  V30 2342 C 224.85 1.60919 1.36632 0
M  V30 2343 O 224.198 0.902095 2.09939 0
M  V30 2344 C 224.408 3.46927 -0.379806 0
M  V30 2345 C 225.756 4.23588 -0.292923 0
M  V30 2346 O 226.78 3.5482 -0.313204 0
M  V30 2347 O 225.639 5.46017 -0.229697 0
M  V30 2348 H 222.733 0.827 0.00079152 0
M  V30 2349 H 225.279 1.52581 -0.742783 0
M  V30 2350 H 224.051 3.65096 -1.40786 0
M  V30 2351 H 223.674 3.96627 0.277923 0
M  V30 2352 N 224.671 0.411399 1.52136 0
M  V30 2353 C 225.581 -0.419774 2.30814 0
M  V30 2354 C 226.597 -1.0515 1.38634 0
M  V30 2355 O 227.773 -1.05252 1.71709 0
M  V30 2356 C 224.838 -1.52019 3.11594 0
M  V30 2357 C 223.899 -0.91129 4.19516 0
M  V30 2358 C 223.132 -1.95927 4.96436 0
M  V30 2359 O 223.355 -3.17775 4.73683 0
M  V30 2360 O 222.289 -1.56423 5.81219 0
M  V30 2361 H 226.115 0.221805 3.02889 0
M  V30 2362 H 223.7 0.174547 1.48377 0
M  V30 2363 H 225.582 -2.15898 3.61892 0
M  V30 2364 H 224.257 -2.14633 2.42311 0
M  V30 2365 H 223.164 -0.235157 3.7336 0
M  V30 2366 H 224.497 -0.32904 4.91099 0
M  V30 2367 N 226.149 -1.5696 0.141893 0
M  V30 2368 C 227.081 -2.13619 -0.830627 0
M  V30 2369 C 228.094 -1.08439 -1.21428 0
M  V30 2370 O 229.283 -1.35734 -1.15925 0
M  V30 2371 C 226.383 -2.63978 -2.12529 0
M  V30 2372 C 225.556 -3.93504 -1.9098 0
M  V30 2373 C 224.615 -4.29225 -3.04388 0
M  V30 2374 O 223.641 -4.97641 -2.76302 0
M  V30 2375 N 224.843 -3.88393 -4.31429 0
M  V30 2376 H 227.608 -2.97691 -0.34641 0
M  V30 2377 H 225.169 -1.61846 -0.0418375 0
M  V30 2378 H 227.161 -2.84891 -2.87436 0
M  V30 2379 H 225.731 -1.84659 -2.52229 0
M  V30 2380 H 224.951 -3.81269 -1.00139 0
M  V30 2381 H 226.239 -4.78154 -1.73914 0
M  V30 2382 H 225.637 -3.33257 -4.57117 0
M  V30 2383 H 224.194 -4.14368 -5.03133 0
M  V30 2384 N 227.627 0.131896 -1.57047 0
M  V30 2385 C 228.857 0.855219 -1.88068 0
M  V30 2386 C 229.265 1.74557 -0.729817 0
M  V30 2387 O 228.608 1.81083 0.308962 0
M  V30 2388 C 228.67 1.75119 -3.13964 0
M  V30 2389 C 228.334 1.03646 -4.45091 0
M  V30 2390 C 229.331 0.383276 -5.18485 0
M  V30 2391 C 227.016 1.02148 -4.91804 0
M  V30 2392 C 229.01 -0.275347 -6.36805 0
M  V30 2393 C 226.697 0.359047 -6.10044 0
M  V30 2394 C 227.695 -0.288222 -6.82392 0
M  V30 2395 O 227.383 -0.94011 -7.98384 0
M  V30 2396 H 227.115 0.251864 -0.627328 0
M  V30 2397 H 229.669 0.124782 -2.05021 0
M  V30 2398 H 227.899 2.52295 -2.9306 0
M  V30 2399 H 229.588 2.3478 -3.31109 0
M  V30 2400 H 230.354 0.386562 -4.83457 0
M  V30 2401 H 226.233 1.5147 -4.35405 0
M  V30 2402 H 229.777 -0.781148 -6.93213 0
M  V30 2403 H 225.674 0.35348 -6.44531 0
M  V30 2404 H 226.442 -0.84329 -8.14144 0
M  V30 2405 N 229.106 1.52395 0.401703 0
M  V30 2406 C 230.069 1.75636 1.47257 0
M  V30 2407 C 231.069 0.62628 1.48103 0
M  V30 2408 O 232.259 0.894227 1.49497 0
M  V30 2409 C 229.391 1.84553 2.86624 0
M  V30 2410 H 230.584 2.71241 1.27938 0
M  V30 2411 H 228.137 1.42923 0.632662 0
M  V30 2412 H 228.872 0.908882 3.11303 0
M  V30 2413 H 228.657 2.66715 2.87412 0
M  V30 2414 H 230.147 2.04251 3.64241 0
M  V30 2415 N 230.584 -0.659388 1.43143 0
M  V30 2416 C 231.83 -1.41984 1.45644 0
M  V30 2417 C 232.185 -1.92245 0.0771718 0
M  V30 2418 O 231.478 -1.68976 -0.903205 0
M  V30 2419 C 231.672 -2.62206 2.42864 0
M  V30 2420 C 231.501 -2.23711 3.90107 0
M  V30 2421 C 230.271 -2.12332 4.58523 0
M  V30 2422 C 232.469 -1.84384 4.80112 0
M  V30 2423 N 230.451 -1.67102 5.9072 0
M  V30 2424 C 231.822 -1.5019 6.01534 0
M  V30 2425 C 233.877 -1.71512 4.67427 0
M  V30 2426 C 232.58 -1.04414 7.11681 0
M  V30 2427 C 234.606 -1.27142 5.77572 0
M  V30 2428 C 233.968 -0.938808 6.98116 0
M  V30 2429 H 230.067 -0.515448 0.588079 0
M  V30 2430 H 232.651 -0.759409 1.79279 0
M  V30 2431 H 230.822 -3.25917 2.11265 0
M  V30 2432 H 232.554 -3.28877 2.35843 0
M  V30 2433 H 229.309 -2.31893 4.12944 0
M  V30 2434 H 229.733 -1.46866 6.60878 0
M  V30 2435 H 234.375 -1.95868 3.74694 0
M  V30 2436 H 232.093 -0.788061 8.04248 0
M  V30 2437 H 235.679 -1.17681 5.69774 0
M  V30 2438 H 234.559 -0.6007 7.81896 0
M  V30 2439 N 232.062 -1.29571 -0.897171 0
M  V30 2440 C 232.972 -1.16808 -2.03453 0
M  V30 2441 C 233.988 -0.0907471 -1.73763 0
M  V30 2442 O 235.164 -0.303312 -1.99103 0
M  V30 2443 C 232.229 -0.848264 -3.36163 0
M  V30 2444 C 231.29 -2.0097 -3.79354 0
M  V30 2445 C 230.523 -1.70505 -5.05731 0
M  V30 2446 O 230.746 -0.62718 -5.66941 0
M  V30 2447 O 229.68 -2.5538 -5.45036 0
M  V30 2448 H 233.506 -2.12325 -2.17144 0
M  V30 2449 H 231.091 -1.09047 -1.02123 0
M  V30 2450 H 232.973 -0.684581 -4.15802 0
M  V30 2451 H 231.648 0.0771071 -3.23608 0
M  V30 2452 H 230.555 -2.22863 -3.00471 0
M  V30 2453 H 231.888 -2.91636 -3.96496 0
M  V30 2454 N 233.54 1.10788 -1.12088 0
M  V30 2455 C 234.765 1.87002 -0.896949 0
M  V30 2456 C 235.19 1.79933 0.548261 0
M  V30 2457 O 234.548 1.16662 1.38779 0
M  V30 2458 C 234.596 3.3349 -1.37174 0
M  V30 2459 O 233.7 4.08745 -0.547831 0
M  V30 2460 H 233.041 0.580397 -0.322545 0
M  V30 2461 H 235.571 1.39996 -1.49206 0
M  V30 2462 H 235.581 3.84339 -1.36922 0
M  V30 2463 H 234.256 3.37951 -2.42408 0
M  V30 2464 H 232.833 3.6776 -0.617034 0
M  V30 2465 N 235.018 0.912232 1.28515 0
M  V30 2466 C 236.243 0.559774 1.99703 0
M  V30 2467 C 236.668 -0.851393 1.67729 0
M  V30 2468 O 236.026 -1.56875 0.908834 0
M  V30 2469 C 236.074 0.773874 3.52198 0
M  V30 2470 O 235.178 -0.167842 4.12058 0
M  V30 2471 H 234.519 0.21723 0.627461 0
M  V30 2472 H 237.049 1.22725 1.63706 0
M  V30 2473 H 237.059 0.683386 4.02236 0
M  V30 2474 H 235.734 1.80261 3.74805 0
M  V30 2475 H 234.311 -0.0287509 3.72889 0
M  V30 2476 N 236.496 -1.42363 0.676048 0
M  V30 2477 C 237.459 -2.29199 0.00766941 0
M  V30 2478 C 238.459 -1.43389 -0.727745 0
M  V30 2479 O 239.649 -1.64764 -0.56556 0
M  V30 2480 C 236.781 -3.2591 -0.999785 0
M  V30 2481 H 237.974 -2.89794 0.771988 0
M  V30 2482 H 235.527 -1.50024 0.438468 0
M  V30 2483 H 236.262 -2.70256 -1.79255 0
M  V30 2484 H 236.047 -3.89202 -0.475829 0
M  V30 2485 H 237.537 -3.91028 -1.46583 0
M  V30 2486 N 237.974 -0.419461 -1.51915 0
M  V30 2487 C 239.222 0.152637 -2.01523 0
M  V30 2488 C 239.543 1.44762 -1.30649 0
M  V30 2489 O 238.813 1.90997 -0.435535 0
M  V30 2490 H 237.393 0.0593966 -0.744635 0
M  V30 2491 H 240.055 -0.558073 -1.86739 0
M  V30 2492 H 239.151 0.341369 -3.10227 0
M  V30 2493 N 239.452 1.56882 -0.150215 0
M  V30 2494 C 240.7 1.9584 0.499105 0
M  V30 2495 C 241.021 1.03623 1.65188 0
M  V30 2496 O 240.291 0.0984084 1.95653 0
M  V30 2497 H 238.871 0.723119 0.187373 0
M  V30 2498 H 241.533 1.9358 -0.226466 0
M  V30 2499 H 240.629 2.99638 0.873122 0
M  V30 2500 N 240.93 -0.123565 1.57115 0
M  V30 2501 C 242.155 -0.850398 1.89164 0
M  V30 2502 C 242.58 -1.7286 0.741688 0
M  V30 2503 O 241.938 -1.78665 -0.307958 0
M  V30 2504 C 241.986 -1.66353 3.19936 0
M  V30 2505 O 241.09 -2.77004 3.0552 0
M  V30 2506 H 240.431 -0.235454 0.620852 0
M  V30 2507 H 242.961 -0.107335 2.04318 0
M  V30 2508 H 242.971 -2.05372 3.52543 0
M  V30 2509 H 241.646 -1.01881 4.03228 0
M  V30 2510 H 240.223 -2.41221 2.84371 0
M  V30 2511 N 242.408 -1.52605 -0.393616 0
M  V30 2512 C 243.655 -1.67424 -1.1391 0
M  V30 2513 C 243.983 -0.411859 -1.90089 0
M  V30 2514 O 243.238 0.605626 -1.86093 0
M  V30 2515 C 243.537 -2.85721 -2.14705 0
M  V30 2516 C 243.203 -4.23342 -1.55218 0
M  V30 2517 C 241.865 -4.60771 -1.3872 0
M  V30 2518 C 244.217 -5.09041 -1.11924 0
M  V30 2519 C 241.545 -5.81563 -0.774689 0
M  V30 2520 C 243.897 -6.30452 -0.520853 0
M  V30 2521 C 242.561 -6.66617 -0.343134 0
M  V30 2522 H 241.831 -0.612648 -0.416826 0
M  V30 2523 H 244.478 -1.8674 -0.424315 0
M  V30 2524 H 242.783 -2.60803 -2.92385 0
M  V30 2525 H 244.48 -2.94382 -2.72288 0
M  V30 2526 H 241.07 -3.93855 -1.69045 0
M  V30 2527 H 245.254 -4.80695 -1.23473 0
M  V30 2528 H 240.51 -6.08196 -0.625154 0
M  V30 2529 H 244.684 -6.96175 -0.177065 0
M  V30 2530 H 242.311 -7.60083 0.133571 0
M  V30 2531 N 243.887 0.651787 -1.4349 0
M  V30 2532 C 245.115 1.43937 -1.48626 0
M  V30 2533 C 245.53 1.8851 -0.104587 0
M  V30 2534 O 244.887 1.5958 0.885464 0
M  V30 2535 C 244.938 2.6734 -2.43334 0
M  V30 2536 O 244.659 2.24631 -3.76128 0
M  V30 2537 C 246.16 3.60683 -2.57726 0
M  V30 2538 H 243.38 0.44213 -0.504739 0
M  V30 2539 H 245.924 0.798944 -1.88248 0
M  V30 2540 H 244.079 3.2752 -2.06904 0
M  V30 2541 H 244.493 3.04485 -4.2707 0
M  V30 2542 H 245.967 4.43933 -3.28067 0
M  V30 2543 H 246.444 4.08126 -1.62265 0
M  V30 2544 H 247.05 3.06384 -2.94973 0
M  V30 2545 N 245.365 1.30045 0.890287 0
M  V30 2546 C 246.611 1.18737 1.64406 0
M  V30 2547 C 246.944 -0.258525 1.92472 0
M  V30 2548 O 246.219 -1.18562 1.54186 0
M  V30 2549 C 246.502 2.01087 2.98724 0
M  V30 2550 C 246.355 3.53867 2.77665 0
M  V30 2551 C 247.674 1.84457 3.9958 0
M  V30 2552 H 244.793 0.432698 0.596608 0
M  V30 2553 H 247.435 1.5962 1.0306 0
M  V30 2554 H 245.585 1.66349 3.51084 0
M  V30 2555 H 247.257 3.98637 2.32133 0
M  V30 2556 H 245.5 3.78318 2.12269 0
M  V30 2557 H 246.171 4.06772 3.7315 0
M  V30 2558 H 248.647 2.14817 3.56361 0
M  V30 2559 H 247.523 2.44411 4.91482 0
M  V30 2560 H 247.784 0.802276 4.3476 0
M  V30 2561 N 246.843 -1.10192 1.12674 0
M  V30 2562 C 248.259 -1.34235 0.863317 0
M  V30 2563 C 248.459 -1.95062 -0.505277 0
M  V30 2564 O 247.515 -2.19192 -1.25345 0
M  V30 2565 C 248.828 -2.2616 1.98172 0
M  V30 2566 C 250.376 -2.3969 2.0129 0
M  V30 2567 C 250.851 -3.34946 3.1237 0
M  V30 2568 N 252.342 -3.42515 3.11829 0
M  V30 2569 C 253.077 -4.16199 3.94419 0
M  V30 2570 N 252.573 -4.92747 4.87004 0
M  V30 2571 N 254.366 -4.11843 3.82547 0
M  V30 2572 H 246.517 -0.690798 2.00853 0
M  V30 2573 H 248.78 -0.366774 0.874174 0
M  V30 2574 H 248.486 -1.8868 2.96804 0
M  V30 2575 H 248.36 -3.26488 1.88906 0
M  V30 2576 H 250.747 -2.76438 1.03276 0
M  V30 2577 H 250.828 -1.39169 2.14629 0
M  V30 2578 H 250.472 -2.98923 4.10619 0
M  V30 2579 H 250.402 -4.35353 2.96269 0
M  V30 2580 H 252.893 -2.87926 2.44759 0
M  V30 2581 H 253.206 -5.46376 5.46528 0
M  V30 2582 H 251.551 -4.91862 4.91016 0
M  V30 2583 H 254.742 -3.51136 3.0955 0
M  V30 2584 H 254.915 -4.69007 4.47142 0
M  V30 2585 N 248.321 -0.919034 -1.28029 0
M  V30 2586 C 249.284 -0.416182 -2.2539 0
M  V30 2587 C 250.284 0.460438 -1.54067 0
M  V30 2588 O 251.474 0.262744 -1.72207 0
M  V30 2589 C 248.606 0.402707 -3.38513 0
M  V30 2590 H 249.799 -1.27629 -2.71387 0
M  V30 2591 H 247.352 -0.698919 -1.39803 0
M  V30 2592 H 248.087 1.282 -2.97885 0
M  V30 2593 H 247.872 -0.225698 -3.9145 0
M  V30 2594 H 249.362 0.745191 -4.10897 0
M  V30 2595 N 249.799 1.42003 -0.683588 0
M  V30 2596 C 251.076 1.95112 -0.138075 0
M  V30 2597 C 251.456 1.62359 1.34918 0
M  V30 2598 O 250.804 0.924311 2.08971 0
M  V30 2599 C 251.014 3.46505 -0.416581 0
M  V30 2600 C 252.362 4.23254 -0.337834 0
M  V30 2601 O 253.386 3.54468 -0.35082 0
M  V30 2602 O 252.245 5.45743 -0.287596 0
M  V30 2603 H 249.339 0.826961 -0.00797996 0
M  V30 2604 H 251.885 1.51784 -0.758924 0
M  V30 2605 H 250.657 3.63582 -1.4465 0
M  V30 2606 H 250.28 3.969 0.235839 0
M  V30 2607 N 251.277 0.427512 1.51691 0
M  V30 2608 C 252.227 -0.406604 2.24345 0
M  V30 2609 C 253.211 -0.998276 1.26187 0
M  V30 2610 O 254.403 -0.918045 1.51331 0
M  V30 2611 C 251.532 -1.51266 3.08177 0
M  V30 2612 C 250.618 -0.930868 4.13758 0
M  V30 2613 N 251.009 -0.0773552 5.05741 0
M  V30 2614 C 249.307 -1.19948 4.29568 0
M  V30 2615 C 250.008 0.248344 5.8117 0
M  V30 2616 N 248.984 -0.365535 5.4237 0
M  V30 2617 H 252.786 0.251581 2.92821 0
M  V30 2618 H 250.3 0.239003 1.60632 0
M  V30 2619 H 252.297 -2.123 3.58796 0
M  V30 2620 H 250.957 -2.17328 2.41244 0
M  V30 2621 H 251.968 0.288351 5.17097 0
M  V30 2622 H 248.645 -1.85832 3.73862 0
M  V30 2623 H 250.035 0.942286 6.6526 0
M  V30 2624 N 252.755 -1.56801 0.158532 0
M  V30 2625 C 254.003 -1.96102 -0.488712 0
M  V30 2626 C 254.324 -1.04498 -1.64636 0
M  V30 2627 O 253.594 -0.108783 -1.95598 0
M  V30 2628 H 252.174 -0.724102 -0.183535 0
M  V30 2629 H 254.836 -1.93457 0.236728 0
M  V30 2630 H 253.932 -3.00097 -0.857219 0
M  V30 2631 N 254.233 0.115231 -1.57178 0
M  V30 2632 C 255.143 1.15994 -2.03918 0
M  V30 2633 C 256.159 1.45103 -0.960268 0
M  V30 2634 O 257.335 1.56144 -1.27204 0
M  V30 2635 C 254.4 2.46568 -2.43732 0
M  V30 2636 C 253.461 2.24822 -3.65723 0
M  V30 2637 C 252.694 3.4917 -4.03629 0
M  V30 2638 O 252.917 4.56623 -3.41835 0
M  V30 2639 O 251.851 3.39949 -4.96708 0
M  V30 2640 H 255.677 0.793019 -2.93164 0
M  V30 2641 H 253.262 0.3263 -1.45793 0
M  V30 2642 H 255.144 3.23492 -2.70057 0
M  V30 2643 H 253.819 2.82726 -1.57631 0
M  V30 2644 H 252.726 1.45744 -3.44542 0
M  V30 2645 H 254.059 1.93566 -4.52541 0
M  V30 2646 N 255.711 1.52812 0.385517 0
M  V30 2647 C 257.122 1.5993 0.963293 0
M  V30 2648 C 257.473 0.454302 1.90868 0
M  V30 2649 O 256.598 -0.422132 2.12243 0
M  V30 2650 C 257.193 2.89871 1.75387 0
M  V30 2651 C 255.752 2.99389 2.28129 0
M  V30 2652 C 254.899 2.55071 1.08783 0
M  V30 2653 H 257.85 1.5784 0.164948 0
M  V30 2654 H 257.871 2.76553 2.61341 0
M  V30 2655 H 257.383 3.73186 1.06554 0
M  V30 2656 H 255.484 2.20619 3.00263 0
M  V30 2657 H 255.597 4.04096 2.57377 0
M  V30 2658 H 253.961 2.09473 1.4489 0
M  V30 2659 H 254.744 3.40785 0.414807 0
M  V30 2660 N 257.189 -0.644168 1.43834 0
M  V30 2661 C 258.438 -1.39985 1.45214 0
M  V30 2662 C 258.751 -1.95421 0.0835494 0
M  V30 2663 O 259.957 -2.71488 -0.0251748 0
M  V30 2664 C 258.413 -2.53384 2.55587 0
M  V30 2665 C 258.021 -2.04517 3.98594 0
M  V30 2666 C 259.765 -3.30685 2.66172 0
M  V30 2667 C 257.672 -3.1518 5.00416 0
M  V30 2668 H 256.602 -0.526005 0.540218 0
M  V30 2669 H 259.253 -0.694367 1.69855 0
M  V30 2670 H 257.635 -3.26446 2.24163 0
M  V30 2671 H 258.809 -1.38405 4.39523 0
M  V30 2672 H 257.124 -1.40068 3.92135 0
M  V30 2673 H 259.721 -4.13158 3.39418 0
M  V30 2674 H 260.064 -3.79312 1.71546 0
M  V30 2675 H 260.597 -2.64708 2.96942 0
M  V30 2676 H 257.336 -2.71511 5.96625 0
M  V30 2677 H 256.856 -3.79974 4.64091 0
M  V30 2678 H 258.535 -3.80166 5.23529 0
M  V30 2679 N 258.668 -1.30515 -0.883378 0
M  V30 2680 C 259.916 -1.19194 -1.63209 0
M  V30 2681 C 260.237 0.253205 -1.93349 0
M  V30 2682 O 259.507 1.17025 -1.57105 0
M  V30 2683 H 258.087 -0.438148 -0.605009 0
M  V30 2684 H 260.749 -1.63663 -1.05832 0
M  V30 2685 H 259.845 -1.75396 -2.58153 0
M  V30 2686 N 260.146 1.09593 -1.13257 0
M  V30 2687 C 261.562 1.33775 -0.870423 0
M  V30 2688 C 261.762 1.95327 0.494926 0
M  V30 2689 O 260.818 2.19853 1.2418 0
M  V30 2690 C 262.131 2.25106 -1.99369 0
M  V30 2691 C 263.679 2.3862 -2.02558 0
M  V30 2692 C 264.154 3.33285 -3.14142 0
M  V30 2693 N 265.645 3.40857 -3.13641 0
M  V30 2694 C 266.38 4.14101 -3.96621 0
M  V30 2695 N 265.876 4.90157 -4.8961 0
M  V30 2696 N 267.669 4.09808 -3.84726 0
M  V30 2697 H 259.82 0.680136 -2.01216 0
M  V30 2698 H 262.083 0.362133 -0.876107 0
M  V30 2699 H 261.789 1.87103 -2.97801 0
M  V30 2700 H 261.663 3.25481 -1.90635 0
M  V30 2701 H 264.05 2.75887 -1.0474 0
M  V30 2702 H 264.131 1.38028 -2.15364 0
M  V30 2703 H 263.775 2.96741 -4.12198 0
M  V30 2704 H 263.705 4.33776 -2.98574 0
M  V30 2705 H 266.196 2.86624 -2.46282 0
M  V30 2706 H 266.509 5.4347 -5.49418 0
M  V30 2707 H 264.854 4.89251 -4.93617 0
M  V30 2708 H 268.045 3.4949 -3.11408 0
M  V30 2709 H 268.218 4.66629 -4.49623 0
M  V30 2710 N 261.624 0.925811 1.2754 0
M  V30 2711 C 262.872 0.564138 1.94067 0
M  V30 2712 C 263.193 -0.897188 1.73134 0
M  V30 2713 O 262.463 -1.63573 1.07799 0
M  V30 2714 H 261.043 0.205645 0.718136 0
M  V30 2715 H 263.705 1.1778 1.55287 0
M  V30 2716 H 262.801 0.76881 3.02483 0
M  V30 2717 N 263.102 -1.41638 0.69111 0
M  V30 2718 C 264.33 -2.05628 0.22909 0
M  V30 2719 C 264.745 -1.51992 -1.11999 0
M  V30 2720 O 264.102 -0.666322 -1.69901 0
M  V30 2721 C 264.153 -3.61084 0.173283 0
M  V30 2722 O 263.874 -4.12735 1.46907 0
M  V30 2723 C 265.375 -4.42213 -0.310266 0
M  V30 2724 H 262.595 -0.662327 0.107534 0
M  V30 2725 H 265.139 -1.81489 0.942438 0
M  V30 2726 H 263.294 -3.84278 -0.490858 0
M  V30 2727 H 263.708 -5.06743 1.35322 0
M  V30 2728 H 265.182 -5.51194 -0.298196 0
M  V30 2729 H 265.659 -4.1799 -1.34838 0
M  V30 2730 H 266.265 -4.24074 0.322716 0
M  V30 2731 N 264.58 -0.43555 -1.51462 0
M  V30 2732 C 265.527 0.376797 -2.27703 0
M  V30 2733 C 266.497 1.01838 -1.31219 0
M  V30 2734 O 267.682 1.03762 -1.60119 0
M  V30 2735 C 264.822 1.47301 -3.12084 0
M  V30 2736 C 263.935 0.849744 -4.2356 0
M  V30 2737 C 263.07 1.92086 -4.95254 0
M  V30 2738 C 262.109 1.27593 -5.98654 0
M  V30 2739 N 261.246 2.28833 -6.63762 0
M  V30 2740 H 266.086 -0.279734 -2.96684 0
M  V30 2741 H 263.623 -0.149795 -1.46335 0
M  V30 2742 H 265.581 2.11984 -3.59331 0
M  V30 2743 H 264.211 2.0992 -2.45221 0
M  V30 2744 H 263.263 0.0912529 -3.80291 0
M  V30 2745 H 264.575 0.338878 -4.97648 0
M  V30 2746 H 263.729 2.64435 -5.46039 0
M  V30 2747 H 262.468 2.46545 -4.20793 0
M  V30 2748 H 261.473 0.537893 -5.47162 0
M  V30 2749 H 262.698 0.738693 -6.7507 0
M  V30 2750 H 260.644 2.82375 -5.92115 0
M  V30 2751 H 260.561 1.82632 -7.33608 0
M  V30 2752 H 261.829 3.00671 -7.19178 0
M  V30 2753 N 266.058 1.56714 -0.166846 0
M  V30 2754 C 267.304 1.97039 0.479962 0
M  V30 2755 C 267.637 1.05264 1.63197 0
M  V30 2756 O 266.912 0.0988833 1.94248 0
M  V30 2757 C 267.195 3.46867 0.967212 0
M  V30 2758 C 267.048 4.49421 -0.18466 0
M  V30 2759 C 268.367 3.9968 1.84238 0
M  V30 2760 H 265.486 0.71641 0.172992 0
M  V30 2761 H 268.128 1.8832 -0.252079 0
M  V30 2762 H 266.278 3.54428 1.59101 0
M  V30 2763 H 267.95 4.53924 -0.821621 0
M  V30 2764 H 266.193 4.25573 -0.840837 0
M  V30 2765 H 266.864 5.51644 0.198317 0
M  V30 2766 H 269.34 3.94723 1.31655 0
M  V30 2767 H 268.216 5.04941 2.15234 0
M  V30 2768 H 268.477 3.43226 2.78654 0
M  V30 2769 N 267.536 -0.106894 1.57237 0
M  V30 2770 C 268.785 -0.811163 1.8467 0
M  V30 2771 C 269.098 -1.80469 0.754342 0
M  V30 2772 O 270.304 -2.55601 0.915439 0
M  V30 2773 C 268.76 -1.49337 3.27454 0
M  V30 2774 C 268.368 -0.540217 4.44731 0
M  V30 2775 C 270.112 -2.18206 3.64124 0
M  V30 2776 C 268.019 -1.22634 5.78545 0
M  V30 2777 H 266.949 -0.306679 0.688813 0
M  V30 2778 H 269.6 -0.0639887 1.83388 0
M  V30 2779 H 267.982 -2.2876 3.23241 0
M  V30 2780 H 269.156 0.221659 4.60267 0
M  V30 2781 H 267.471 0.042146 4.16379 0
M  V30 2782 H 270.068 -2.70253 4.61376 0
M  V30 2783 H 270.411 -2.96562 2.92158 0
M  V30 2784 H 270.944 -1.45658 3.70174 0
M  V30 2785 H 267.683 -0.483832 6.53712 0
M  V30 2786 H 267.203 -1.95993 5.66874 0
M  V30 2787 H 268.882 -1.75615 6.2271 0
M  V30 2788 N 269.014 -1.53014 -0.377408 0
M  V30 2789 C 269.944 -1.81589 -1.46791 0
M  V30 2790 C 270.925 -0.668622 -1.56408 0
M  V30 2791 O 272.11 -0.917337 -1.71168 0
M  V30 2792 C 269.24 -1.99519 -2.8427 0
M  V30 2793 C 268.194 -3.15249 -2.89486 0
M  V30 2794 C 267.52 -3.18451 -4.29527 0
M  V30 2795 C 268.82 -4.54084 -2.58079 0
M  V30 2796 H 270.514 -2.7291 -1.23127 0
M  V30 2797 H 268.06 -1.31319 -0.590883 0
M  V30 2798 H 270.013 -2.18092 -3.60575 0
M  V30 2799 H 268.737 -1.04897 -3.09296 0
M  V30 2800 H 267.396 -2.96477 -2.15631 0
M  V30 2801 H 267.044 -2.2149 -4.5161 0
M  V30 2802 H 266.744 -3.962 -4.33934 0
M  V30 2803 H 268.268 -3.39193 -5.07721 0
M  V30 2804 H 269.682 -4.72899 -3.24098 0
M  V30 2805 H 268.079 -5.33987 -2.7382 0
M  V30 2806 H 269.149 -4.60006 -1.53372 0
M  V30 2807 N 270.492 0.636531 -1.44174 0
M  V30 2808 C 271.442 1.74233 -1.47061 0
M  V30 2809 C 272.426 1.57331 -0.337034 0
M  V30 2810 O 273.618 1.67159 -0.581973 0
M  V30 2811 C 270.747 3.12897 -1.41246 0
M  V30 2812 C 269.833 3.35288 -2.59698 0
M  V30 2813 N 270.224 3.2807 -3.84972 0
M  V30 2814 C 268.522 3.66065 -2.54778 0
M  V30 2815 C 269.223 3.51001 -4.63867 0
M  V30 2816 N 268.199 3.73616 -3.94857 0
M  V30 2817 H 272.001 1.67103 -2.41773 0
M  V30 2818 H 269.515 0.838806 -1.3906 0
M  V30 2819 H 271.512 3.92189 -1.41398 0
M  V30 2820 H 270.172 3.21197 -0.47569 0
M  V30 2821 H 271.183 3.07109 -4.17019 0
M  V30 2822 H 267.86 3.81379 -1.6987 0
M  V30 2823 H 269.25 3.51059 -5.72894 0
M  V30 2824 N 271.97 1.30982 0.876444 0
M  V30 2825 C 272.9 1.20668 1.99903 0
M  V30 2826 C 273.881 0.095354 1.69833 0
M  V30 2827 O 275.066 0.27885 1.92188 0
M  V30 2828 C 272.196 0.90655 3.3526 0
M  V30 2829 C 271.15 1.97675 3.79617 0
M  V30 2830 C 270.476 1.52943 5.1236 0
M  V30 2831 C 271.776 3.389 3.97422 0
M  V30 2832 H 273.47 2.14586 2.0879 0
M  V30 2833 H 271.016 1.03308 1.00317 0
M  V30 2834 H 272.969 0.821025 4.13324 0
M  V30 2835 H 271.693 -0.0682969 3.26529 0
M  V30 2836 H 270.352 2.05205 3.03787 0
M  V30 2837 H 270 0.54262 5.00065 0
M  V30 2838 H 269.7 2.24532 5.43009 0
M  V30 2839 H 271.224 1.45786 5.92941 0
M  V30 2840 H 272.638 3.34081 4.659 0
M  V30 2841 H 271.035 4.0865 4.3946 0
M  V30 2842 H 272.105 3.80163 3.01006 0
M  V30 2843 N 273.449 -1.08991 1.13837 0
M  V30 2844 C 274.396 -2.15748 0.819835 0
M  V30 2845 C 275.366 -1.64636 -0.220026 0
M  V30 2846 O 276.551 -1.90582 -0.0912757 0
M  V30 2847 C 273.691 -3.4382 0.296913 0
M  V30 2848 C 272.804 -4.0881 1.39636 0
M  V30 2849 C 271.939 -5.24655 0.831314 0
M  V30 2850 C 270.978 -5.81575 1.90886 0
M  V30 2851 N 270.115 -6.88774 1.36142 0
M  V30 2852 H 274.955 -2.42338 1.73426 0
M  V30 2853 H 272.492 -1.18935 0.865613 0
M  V30 2854 H 274.45 -4.17193 -0.0244339 0
M  V30 2855 H 273.08 -3.17535 -0.580628 0
M  V30 2856 H 272.132 -3.33258 1.83422 0
M  V30 2857 H 273.444 -4.47141 2.21058 0
M  V30 2858 H 272.598 -6.04942 0.461515 0
M  V30 2859 H 271.337 -4.87698 -0.013932 0
M  V30 2860 H 270.342 -4.99946 2.28767 0
M  V30 2861 H 271.567 -6.20592 2.75758 0
M  V30 2862 H 269.513 -6.53788 0.538254 0
M  V30 2863 H 269.43 -7.25898 2.11208 0
M  V30 2864 H 270.698 -7.72806 1.01933 0
M  V30 2865 N 274.927 -0.932562 -1.27047 0
M  V30 2866 C 275.837 -0.441219 -2.30414 0
M  V30 2867 C 276.853 0.480525 -1.67233 0
M  V30 2868 O 278.029 0.362151 -1.98117 0
M  V30 2869 C 275.094 0.293651 -3.45454 0
M  V30 2870 C 274.155 -0.663601 -4.2414 0
M  V30 2871 C 273.388 0.0362932 -5.33688 0
M  V30 2872 O 273.611 1.2548 -5.56427 0
M  V30 2873 O 272.545 -0.638015 -5.98509 0
M  V30 2874 H 276.371 -1.29962 -2.74488 0
M  V30 2875 H 273.956 -0.6981 -1.32087 0
M  V30 2876 H 275.838 0.707951 -4.15411 0
M  V30 2877 H 274.513 1.12758 -3.03426 0
M  V30 2878 H 273.42 -1.12768 -3.56699 0
M  V30 2879 H 274.753 -1.46489 -4.69896 0
M  V30 2880 N 276.405 1.4127 -0.698611 0
M  V30 2881 C 277.682 1.94955 -0.158762 0
M  V30 2882 C 278.062 1.63781 1.33188 0
M  V30 2883 O 277.41 0.946423 2.07979 0
M  V30 2884 C 277.62 3.46044 -0.453309 0
M  V30 2885 C 278.968 4.22872 -0.382707 0
M  V30 2886 O 279.992 3.54076 -0.388396 0
M  V30 2887 O 278.851 5.45407 -0.345463 0
M  V30 2888 H 275.945 0.82683 -0.0167505 0
M  V30 2889 H 278.491 1.50971 -0.77498 0
M  V30 2890 H 277.263 3.62028 -1.48498 0
M  V30 2891 H 276.886 3.97128 0.19373 0
M  V30 2892 N 277.883 0.443576 1.51229 0
M  V30 2893 C 278.815 -0.400608 2.25672 0
M  V30 2894 C 279.828 -0.980945 1.29928 0
M  V30 2895 O 281.017 -0.874024 1.55638 0
M  V30 2896 C 278.117 -1.57304 3.00181 0
M  V30 2897 C 277.29 -1.11046 4.23069 0
M  V30 2898 C 276.349 -2.15374 4.80105 0
M  V30 2899 O 275.375 -1.74554 5.41774 0
M  V30 2900 N 276.577 -3.47922 4.64683 0
M  V30 2901 H 279.342 0.23745 2.98758 0
M  V30 2902 H 276.903 0.272809 1.59585 0
M  V30 2903 H 278.895 -2.26733 3.35223 0
M  V30 2904 H 277.465 -2.11632 2.30066 0
M  V30 2905 H 276.685 -0.243019 3.9345 0
M  V30 2906 H 277.973 -0.778888 5.02803 0
M  V30 2907 H 277.371 -3.83815 4.15575 0
M  V30 2908 H 275.928 -4.13228 5.0407 0
M  V30 2909 N 279.361 -1.56624 0.175154 0
M  V30 2910 C 280.589 -2.01374 -0.474971 0
M  V30 2911 C 281.004 -1.05537 -1.56548 0
M  V30 2912 O 280.361 -0.0568668 -1.82411 0
M  V30 2913 C 280.412 -3.45923 -1.04975 0
M  V30 2914 O 280.133 -4.381 -0.00276605 0
M  V30 2915 C 281.634 -4.06093 -1.77773 0
M  V30 2916 H 278.854 -0.659962 -0.121206 0
M  V30 2917 H 281.398 -2.02601 0.27801 0
M  V30 2918 H 279.553 -3.45458 -1.75321 0
M  V30 2919 H 279.967 -5.22753 -0.427681 0
M  V30 2920 H 281.441 -5.09147 -2.13245 0
M  V30 2921 H 281.918 -3.48405 -2.67414 0
M  V30 2922 H 282.524 -4.10272 -1.12059 0
M  V30 2923 N 280.839 0.0985539 -1.57292 0
M  V30 2924 C 281.749 1.13824 -2.05137 0
M  V30 2925 C 282.765 1.44076 -0.975604 0
M  V30 2926 O 283.941 1.54786 -1.28853 0
M  V30 2927 C 281.006 2.43969 -2.46333 0
M  V30 2928 C 280.067 2.2093 -3.68087 0
M  V30 2929 C 279.3 3.44869 -4.0731 0
M  V30 2930 O 279.523 4.52972 -3.46659 0
M  V30 2931 O 278.457 3.34661 -5.00285 0
M  V30 2932 H 282.283 0.761881 -2.93988 0
M  V30 2933 H 279.868 0.310818 -1.46131 0
M  V30 2934 H 281.75 3.20609 -2.73473 0
M  V30 2935 H 280.425 2.81038 -1.60621 0
M  V30 2936 H 279.332 1.42081 -3.46069 0
M  V30 2937 H 280.665 1.88755 -4.54568 0
M  V30 2938 N 282.317 1.53212 0.369288 0
M  V30 2939 C 283.547 1.72868 1.13139 0
M  V30 2940 C 283.955 0.455754 1.83629 0
M  V30 2941 O 283.298 -0.580861 1.74275 0
M  V30 2942 C 283.36 2.83667 2.20847 0
M  V30 2943 C 283.024 4.24142 1.70155 0
M  V30 2944 C 284.021 5.06619 1.16763 0
M  V30 2945 C 281.706 4.70539 1.7578 0
M  V30 2946 C 283.7 6.33581 0.696678 0
M  V30 2947 C 281.387 5.97481 1.28297 0
M  V30 2948 C 282.385 6.78833 0.753307 0
M  V30 2949 O 282.073 8.03393 0.285475 0
M  V30 2950 H 281.805 0.581707 0.344373 0
M  V30 2951 H 284.359 2.00736 0.435243 0
M  V30 2952 H 282.589 2.51265 2.93944 0
M  V30 2953 H 284.278 2.91536 2.82421 0
M  V30 2954 H 285.044 4.71948 1.11758 0
M  V30 2955 H 280.923 4.07293 2.15949 0
M  V30 2956 H 284.467 6.97027 0.282581 0
M  V30 2957 H 280.364 6.31651 1.32994 0
M  V30 2958 H 281.132 8.17497 0.405145 0
M  V30 2959 N 283.795 -0.628877 1.44509 0
M  V30 2960 C 284.725 -1.75187 1.54376 0
M  V30 2961 C 285.706 -1.65411 0.396618 0
M  V30 2962 O 286.891 -1.84137 0.617031 0
M  V30 2963 C 284.021 -3.13725 1.48976 0
M  V30 2964 C 282.975 -3.38291 2.62189 0
M  V30 2965 C 282.301 -4.76883 2.41841 0
M  V30 2966 C 283.601 -3.30632 4.04326 0
M  V30 2967 H 285.295 -1.67187 2.48373 0
M  V30 2968 H 282.841 -0.802909 1.19538 0
M  V30 2969 H 284.794 -3.92064 1.54478 0
M  V30 2970 H 283.518 -3.22515 0.514961 0
M  V30 2971 H 282.177 -2.62334 2.56079 0
M  V30 2972 H 281.825 -4.82378 1.42548 0
M  V30 2973 H 281.525 -4.94278 3.17747 0
M  V30 2974 H 283.049 -5.57449 2.49165 0
M  V30 2975 H 284.463 -3.98873 4.11793 0
M  V30 2976 H 282.86 -3.59561 4.80454 0
M  V30 2977 H 283.93 -2.28404 4.27738 0
M  V30 2978 N 285.273 -1.31445 -0.869486 0
M  V30 2979 C 286.183 -1.21097 -2.0093 0
M  V30 2980 C 287.199 -0.127584 -1.73532 0
M  V30 2981 O 288.375 -0.345477 -1.98415 0
M  V30 2982 C 285.44 -0.919378 -3.34288 0
M  V30 2983 C 284.501 -2.08971 -3.75006 0
M  V30 2984 C 283.734 -1.81194 -5.02001 0
M  V30 2985 O 283.957 -0.747296 -5.65484 0
M  V30 2986 O 282.891 -2.66883 -5.39497 0
M  V30 2987 H 286.717 -2.16883 -2.12592 0
M  V30 2988 H 284.302 -1.11189 -0.997868 0
M  V30 2989 H 286.184 -0.772625 -4.14257 0
M  V30 2990 H 284.859 0.00844772 -3.23699 0
M  V30 2991 H 283.766 -2.29187 -2.95676 0
M  V30 2992 H 285.099 -2.9998 -3.90221 0
M  V30 2993 N 286.751 1.08385 -1.14413 0
M  V30 2994 C 287.661 2.18856 -0.844951 0
M  V30 2995 C 288.677 1.73121 0.174668 0
M  V30 2996 O 289.853 2.014 0.00312857 0
M  V30 2997 C 286.918 3.45155 -0.32696 0
M  V30 2998 C 285.979 4.05513 -1.40916 0
M  V30 2999 C 285.212 5.25784 -0.915793 0
M  V30 3000 O 285.435 5.69884 0.242651 0
M  V30 3001 O 284.369 5.77545 -1.69487 0
M  V30 3002 H 288.195 2.46919 -1.76818 0
M  V30 3003 H 285.78 1.17524 -0.922411 0
M  V30 3004 H 287.662 4.21377 -0.0440211 0
M  V30 3005 H 286.337 3.18668 0.568539 0
M  V30 3006 H 285.244 3.30879 -1.74556 0
M  V30 3007 H 286.577 4.3625 -2.27919 0
M  V30 3008 N 288.23 0.939286 1.26551 0
M  V30 3009 C 289.646 0.641304 1.46149 0
M  V30 3010 C 289.846 -0.805964 1.84679 0
M  V30 3011 O 288.902 -1.58278 1.96734 0
M  V30 3012 C 290.215 1.6011 2.54529 0
M  V30 3013 C 291.763 1.6106 2.68382 0
M  V30 3014 C 292.238 2.55765 3.79932 0
M  V30 3015 N 293.729 2.5404 3.87322 0
M  V30 3016 C 294.464 3.24004 4.73085 0
M  V30 3017 N 293.96 4.03388 5.63249 0
M  V30 3018 N 295.753 3.12965 4.66914 0
M  V30 3019 H 287.904 1.87478 0.998285 0
M  V30 3020 H 290.167 0.805559 0.499779 0
M  V30 3021 H 289.873 2.63412 2.33039 0
M  V30 3022 H 289.747 1.35171 3.52149 0
M  V30 3023 H 292.134 0.584835 2.89247 0
M  V30 3024 H 292.215 1.90053 1.71212 0
M  V30 3025 H 291.859 3.58458 3.5982 0
M  V30 3026 H 291.789 2.24063 4.76554 0
M  V30 3027 H 294.28 1.96396 3.22858 0
M  V30 3028 H 294.593 4.5373 6.25579 0
M  V30 3029 H 292.938 4.07489 5.63008 0
M  V30 3030 H 296.129 2.50432 3.95476 0
M  V30 3031 H 296.302 3.67759 5.33533 0
M  V30 3032 N 289.708 -1.40897 0.706093 0
M  V30 3033 C 291.124 -1.55042 0.37869 0
M  V30 3034 C 291.324 -1.67944 -1.11342 0
M  V30 3035 O 290.38 -1.66372 -1.89938 0
M  V30 3036 C 291.693 -2.78398 1.13643 0
M  V30 3037 C 293.241 -2.92206 1.12181 0
M  V30 3038 C 293.716 -4.18463 1.86152 0
M  V30 3039 N 295.207 -4.25443 1.83173 0
M  V30 3040 C 295.942 -5.2202 2.37239 0
M  V30 3041 N 295.438 -6.24563 2.99821 0
M  V30 3042 N 297.231 -5.14033 2.27435 0
M  V30 3043 H 289.382 -1.30769 1.67372 0
M  V30 3044 H 291.645 -0.631653 0.706907 0
M  V30 3045 H 291.351 -2.7511 2.19106 0
M  V30 3046 H 291.225 -3.70228 0.721853 0
M  V30 3047 H 293.612 -2.95004 0.0754171 0
M  V30 3048 H 293.693 -2.01521 1.57554 0
M  V30 3049 H 293.337 -4.16427 2.90776 0
M  V30 3050 H 293.267 -5.08141 1.38206 0
M  V30 3051 H 295.758 -3.51976 1.37556 0
M  V30 3052 H 296.071 -6.94665 3.38616 0
M  V30 3053 H 294.416 -6.25035 3.03902 0
M  V30 3054 H 297.607 -4.3285 1.78208 0
M  V30 3055 H 297.78 -5.89129 2.69873 0
M  V30 3056 N 291.186 -0.45159 -1.50991 0
M  V30 3057 C 292.432 0.110237 -2.025 0
M  V30 3058 C 292.765 1.41109 -1.33424 0
M  V30 3059 O 292.04 1.89135 -0.453659 0
M  V30 3060 C 292.323 0.314271 -3.58726 0
M  V30 3061 C 292.176 -1.00623 -4.38401 0
M  V30 3062 C 293.495 1.07767 -4.26702 0
M  V30 3063 H 290.614 0.0385897 -0.735989 0
M  V30 3064 H 293.256 -0.593374 -1.80497 0
M  V30 3065 H 291.406 0.913601 -3.77605 0
M  V30 3066 H 293.078 -1.64064 -4.31139 0
M  V30 3067 H 291.321 -1.6075 -4.02917 0
M  V30 3068 H 291.992 -0.817341 -5.45915 0
M  V30 3069 H 294.468 0.56986 -4.12179 0
M  V30 3070 H 293.344 1.18921 -5.35863 0
M  V30 3071 H 293.605 2.10939 -3.88532 0
M  V30 3072 N 292.664 1.56529 -0.183458 0
M  V30 3073 C 293.611 2.18546 0.742055 0
M  V30 3074 C 294.581 1.12912 1.2182 0
M  V30 3075 O 295.766 1.41115 1.28418 0
M  V30 3076 C 292.906 2.83977 1.96089 0
M  V30 3077 C 292.019 4.04105 1.52719 0
M  V30 3078 C 291.154 4.57427 2.70063 0
M  V30 3079 C 290.193 5.69938 2.23243 0
M  V30 3080 N 289.33 6.17717 3.33722 0
M  V30 3081 H 294.17 2.97284 0.206432 0
M  V30 3082 H 291.707 1.46823 0.0901571 0
M  V30 3083 H 293.665 3.20077 2.67594 0
M  V30 3084 H 292.295 2.07822 2.47002 0
M  V30 3085 H 291.347 3.73745 0.708436 0
M  V30 3086 H 292.659 4.85513 1.1436 0
M  V30 3087 H 291.813 4.95772 3.49708 0
M  V30 3088 H 290.552 3.75101 3.11689 0
M  V30 3089 H 289.557 5.31133 1.42048 0
M  V30 3090 H 290.782 6.54073 1.82661 0
M  V30 3091 H 288.728 5.38317 3.74902 0
M  V30 3092 H 288.645 6.94146 2.99495 0
M  V30 3093 H 289.913 6.60713 4.13616 0
M  V30 3094 N 294.142 -0.090211 1.57342 0
M  V30 3095 C 295.052 -1.12735 2.05738 0
M  V30 3096 C 296.068 -1.43557 0.983231 0
M  V30 3097 O 297.244 -1.54101 1.29672 0
M  V30 3098 C 294.309 -2.42659 2.47624 0
M  V30 3099 C 293.37 -2.18975 3.69254 0
M  V30 3100 C 292.603 -3.42704 4.09133 0
M  V30 3101 O 292.826 -4.51127 3.49057 0
M  V30 3102 O 291.76 -3.32003 5.02053 0
M  V30 3103 H 295.586 -0.746279 2.94388 0
M  V30 3104 H 293.171 -0.303064 1.46294 0
M  V30 3105 H 295.053 -3.19155 2.7517 0
M  V30 3106 H 293.728 -2.80182 1.62109 0
M  V30 3107 H 292.635 -1.40244 3.46818 0
M  V30 3108 H 293.968 -1.86342 4.55563 0
M  V30 3109 N 295.62 -1.53406 -0.361157 0
M  V30 3110 C 296.866 -1.70054 -1.10496 0
M  V30 3111 C 297.199 -0.453278 -1.88836 0
M  V30 3112 O 296.474 0.5495 -1.86576 0
M  V30 3113 C 296.757 -2.95317 -2.06058 0
M  V30 3114 C 296.61 -4.3021 -1.31298 0
M  V30 3115 C 297.929 -3.16193 -3.06121 0
M  V30 3116 H 295.048 -0.618799 -0.400321 0
M  V30 3117 H 297.69 -1.86052 -0.385318 0
M  V30 3118 H 295.84 -2.81809 -2.67425 0
M  V30 3119 H 297.512 -4.55538 -0.726807 0
M  V30 3120 H 295.755 -4.29421 -0.614853 0
M  V30 3121 H 296.426 -5.14 -2.01265 0
M  V30 3122 H 298.902 -3.28916 -2.5486 0
M  V30 3123 H 297.778 -4.05266 -3.70204 0
M  V30 3124 H 298.039 -2.31676 -3.76535 0
M  V30 3125 N 297.098 0.621204 -1.44841 0
M  V30 3126 C 298.344 1.3826 -1.48365 0
M  V30 3127 C 298.677 1.93831 -0.119624 0
M  V30 3128 O 297.952 1.74251 0.864111 0
M  V30 3129 C 298.235 2.54058 -2.55199 0
M  V30 3130 C 298.088 2.03772 -4.00995 0
M  V30 3131 C 299.407 3.56225 -2.58442 0
M  V30 3132 H 296.526 0.501374 -0.540179 0
M  V30 3133 H 299.168 0.7015 -1.76576 0
M  V30 3134 H 297.318 3.12162 -2.31274 0
M  V30 3135 H 298.99 1.50423 -4.36086 0
M  V30 3136 H 297.233 1.34876 -4.12299 0
M  V30 3137 H 297.904 2.87185 -4.71411 0
M  V30 3138 H 300.38 3.07939 -2.79844 0
M  V30 3139 H 299.256 4.34756 -3.3508 0
M  V30 3140 H 299.517 4.10949 -1.63013 0
M  V30 3141 N 298.576 1.31904 0.862503 0
M  V30 3142 C 299.523 1.20182 1.9704 0
M  V30 3143 C 300.493 0.0858247 1.65878 0
M  V30 3144 O 301.678 0.26 1.8902 0
M  V30 3145 C 298.818 0.922797 3.32533 0
M  V30 3146 C 297.931 2.12284 3.76244 0
M  V30 3147 C 297.066 1.77996 5.00491 0
M  V30 3148 C 296.105 2.94366 5.36671 0
M  V30 3149 N 295.242 2.60223 6.52095 0
M  V30 3150 H 300.082 2.14951 2.06398 0
M  V30 3151 H 297.619 1.06917 1.01031 0
M  V30 3152 H 299.577 0.741548 4.10557 0
M  V30 3153 H 298.207 0.0119227 3.22798 0
M  V30 3154 H 297.259 2.41461 2.9394 0
M  V30 3155 H 298.571 2.99357 3.98982 0
M  V30 3156 H 297.725 1.56377 5.862 0
M  V30 3157 H 296.464 0.881252 4.79672 0
M  V30 3158 H 295.469 3.16625 4.49476 0
M  V30 3159 H 296.694 3.84957 5.59451 0
M  V30 3160 H 294.64 1.72884 6.32809 0
M  V30 3161 H 294.557 3.40827 6.74814 0
M  V30 3162 H 295.825 2.42016 7.40978 0
M  V30 3163 N 300.054 -1.07777 1.14986 0
M  V30 3164 C 301.001 -2.14867 0.842672 0
M  V30 3165 C 301.971 -1.6486 -0.202552 0
M  V30 3166 O 303.156 -1.90668 -0.0710568 0
M  V30 3167 C 300.296 -3.43486 0.333363 0
M  V30 3168 C 299.409 -4.07306 1.43965 0
M  V30 3169 C 298.544 -5.23744 0.886914 0
M  V30 3170 C 297.583 -5.79517 1.97043 0
M  V30 3171 N 296.72 -6.87291 1.4344 0
M  V30 3172 H 301.56 -2.40485 1.75986 0
M  V30 3173 H 299.097 -1.1801 0.878179 0
M  V30 3174 H 301.055 -4.17195 0.0198163 0
M  V30 3175 H 299.685 -3.18133 -0.546916 0
M  V30 3176 H 298.737 -3.31293 1.86946 0
M  V30 3177 H 300.049 -4.44771 2.25788 0
M  V30 3178 H 299.203 -6.04419 0.525651 0
M  V30 3179 H 297.942 -4.87685 0.0377957 0
M  V30 3180 H 296.947 -4.97491 2.34057 0
M  V30 3181 H 298.172 -6.17632 2.82325 0
M  V30 3182 H 296.118 -6.5318 0.607567 0
M  V30 3183 H 296.035 -7.23617 2.18895 0
M  V30 3184 H 297.303 -7.71682 1.10124 0
M  V30 3185 N 301.532 -0.945985 -1.26051 0
M  V30 3186 C 302.482 -0.430164 -2.23905 0
M  V30 3187 C 303.466 0.47579 -1.53704 0
M  V30 3188 O 304.658 0.310252 -1.7426 0
M  V30 3189 C 301.787 0.298957 -3.41996 0
M  V30 3190 C 300.873 -0.624566 -4.19476 0
M  V30 3191 N 301.264 -1.75245 -4.74471 0
M  V30 3192 C 299.562 -0.431082 -4.43912 0
M  V30 3193 C 300.263 -2.32834 -5.3307 0
M  V30 3194 N 299.239 -1.61583 -5.1903 0
M  V30 3195 H 303.041 -1.29107 -2.64024 0
M  V30 3196 H 300.555 -0.802428 -1.41191 0
M  V30 3197 H 302.552 0.685565 -4.11225 0
M  V30 3198 H 301.212 1.15657 -3.03403 0
M  V30 3199 H 302.223 -2.13449 -4.71868 0
M  V30 3200 H 298.9 0.384364 -4.15727 0
M  V30 3201 H 300.29 -3.27893 -5.86461 0
M  V30 3202 N 303.011 1.40521 -0.713556 0
M  V30 3203 C 304.236 2.05759 -0.26035 0
M  V30 3204 C 304.661 1.53403 1.08854 0
M  V30 3205 O 304.019 0.668535 1.68524 0
M  V30 3206 C 304.067 3.59745 -0.248122 0
M  V30 3207 O 303.171 4.05123 0.77131 0
M  V30 3208 H 302.512 0.652564 -0.122703 0
M  V30 3209 H 305.042 1.79958 -0.973467 0
M  V30 3210 H 305.052 4.07911 -0.0851129 0
M  V30 3211 H 303.727 3.97218 -1.2325 0
M  V30 3212 H 302.304 3.68422 0.57619 0
M  V30 3213 N 304.489 0.459591 1.5075 0
M  V30 3214 C 305.421 -0.37665 2.26084 0
M  V30 3215 C 306.434 -0.967109 1.30961 0
M  V30 3216 O 307.623 -0.857468 1.56556 0
M  V30 3217 C 304.723 -1.54112 3.01832 0
M  V30 3218 C 303.896 -1.06553 4.24223 0
M  V30 3219 C 302.955 -2.1027 4.82362 0
M  V30 3220 O 301.981 -1.68798 5.43595 0
M  V30 3221 N 303.183 -3.42974 4.68347 0
M  V30 3222 H 305.948 0.269124 2.98489 0
M  V30 3223 H 303.509 0.28972 1.59287 0
M  V30 3224 H 305.501 -2.23165 3.37608 0
M  V30 3225 H 304.071 -2.0918 2.32298 0
M  V30 3226 H 303.291 -0.201274 3.93686 0
M  V30 3227 H 304.579 -0.725516 5.03601 0
M  V30 3228 H 303.977 -3.79385 4.19623 0
M  V30 3229 H 302.534 -4.07858 5.08424 0
M  V30 3230 N 305.967 -1.56429 0.191757 0
M  V30 3231 C 307.214 -1.97485 -0.447891 0
M  V30 3232 C 307.542 -1.07852 -1.61859 0
M  V30 3233 O 306.797 -0.116903 -1.95351 0
M  V30 3234 C 307.096 -3.44449 -0.953384 0
M  V30 3235 C 306.762 -4.50781 0.103586 0
M  V30 3236 C 305.424 -4.79584 0.394023 0
M  V30 3237 C 307.776 -5.1471 0.819946 0
M  V30 3238 C 305.104 -5.69607 1.40585 0
M  V30 3239 C 307.456 -6.05827 1.8209 0
M  V30 3240 C 306.12 -6.32987 2.11857 0
M  V30 3241 H 305.39 -0.722648 -0.163895 0
M  V30 3242 H 308.037 -1.89322 0.28802 0
M  V30 3243 H 306.342 -3.49666 -1.76751 0
M  V30 3244 H 308.039 -3.73569 -1.45765 0
M  V30 3245 H 304.629 -4.28394 -0.132951 0
M  V30 3246 H 308.813 -4.92552 0.608789 0
M  V30 3247 H 304.069 -5.88926 1.64243 0
M  V30 3248 H 308.243 -6.54424 2.38123 0
M  V30 3249 H 305.87 -7.02544 2.90407 0
M  V30 3250 N 307.445 0.0818655 -1.57387 0
M  V30 3251 C 308.694 0.781681 -1.85937 0
M  V30 3252 C 309.007 1.79246 -0.782957 0
M  V30 3253 O 310.213 2.54112 -0.955987 0
M  V30 3254 C 308.669 1.44109 -3.29789 0
M  V30 3255 C 308.277 0.469396 -4.45534 0
M  V30 3256 C 310.021 2.12386 -3.67549 0
M  V30 3257 C 307.928 1.13415 -5.80423 0
M  V30 3258 H 306.858 0.295682 -0.693605 0
M  V30 3259 H 309.509 0.0348051 -1.83467 0
M  V30 3260 H 307.891 2.23588 -3.2684 0
M  V30 3261 H 309.065 -0.294856 -4.59856 0
M  V30 3262 H 307.38 -0.108383 -4.16259 0
M  V30 3263 H 309.977 2.62878 -4.65617 0
M  V30 3264 H 310.32 2.91877 -2.96839 0
M  V30 3265 H 310.853 1.39751 -3.72444 0
M  V30 3266 H 307.592 0.379771 -6.54399 0
M  V30 3267 H 307.112 1.8695 -5.69921 0
M  V30 3268 H 308.791 1.65686 -6.25426 0
M  V30 3269 N 308.923 1.53595 0.353017 0
M  V30 3270 C 310.171 1.70049 1.09215 0
M  V30 3271 C 310.492 0.461406 1.89463 0
M  V30 3272 O 309.762 -0.524633 1.88744 0
M  V30 3273 H 308.342 0.626912 0.40619 0
M  V30 3274 H 311.004 1.90822 0.396585 0
M  V30 3275 H 310.1 2.56718 1.77488 0
M  V30 3276 N 310.401 -0.613514 1.45168 0
M  V30 3277 C 311.631 -1.39743 1.52169 0
M  V30 3278 C 312.039 -1.88596 0.151086 0
M  V30 3279 O 311.382 -1.6251 -0.856521 0
M  V30 3280 C 311.444 -2.64035 2.43979 0
M  V30 3281 C 311.108 -2.36861 3.90827 0
M  V30 3282 C 312.105 -1.97591 4.80889 0
M  V30 3283 C 309.79 -2.49956 4.35692 0
M  V30 3284 C 311.784 -1.71768 6.1382 0
M  V30 3285 C 309.471 -2.23747 5.68665 0
M  V30 3286 C 310.469 -1.84714 6.57548 0
M  V30 3287 O 310.157 -1.58809 7.88058 0
M  V30 3288 H 309.889 -0.434382 0.517966 0
M  V30 3289 H 312.443 -0.75587 1.90986 0
M  V30 3290 H 310.673 -3.3089 2.00122 0
M  V30 3291 H 312.362 -3.26069 2.41731 0
M  V30 3292 H 313.128 -1.87015 4.47493 0
M  V30 3293 H 309.007 -2.79305 3.66756 0
M  V30 3294 H 312.551 -1.41227 6.83155 0
M  V30 3295 H 308.448 -2.33938 6.01617 0
M  V30 3296 H 309.216 -1.7291 8.00028 0
M  V30 3297 N 311.879 -1.3236 -0.855495 0
M  V30 3298 C 313.29 -1.2056 -1.42556 0
M  V30 3299 C 313.641 0.182209 -1.95352 0
M  V30 3300 O 312.766 1.08088 -1.87472 0
M  V30 3301 C 313.361 -2.1826 -2.59129 0
M  V30 3302 C 311.92 -2.10351 -3.12137 0
M  V30 3303 C 311.067 -2.06674 -1.84882 0
M  V30 3304 H 314.018 -1.442 -0.662727 0
M  V30 3305 H 314.039 -1.78064 -3.36264 0
M  V30 3306 H 313.551 -3.19257 -2.20673 0
M  V30 3307 H 311.652 -1.12599 -3.55179 0
M  V30 3308 H 311.765 -3.00135 -3.73438 0
M  V30 3309 H 310.129 -1.51901 -2.04446 0
M  V30 3310 H 310.912 -3.09451 -1.48643 0
M  V30 3311 N 313.357 1.07166 -1.15556 0
M  V30 3312 C 314.606 1.79181 -0.926132 0
M  V30 3313 C 314.919 1.87768 0.547967 0
M  V30 3314 O 316.125 2.56323 0.895036 0
M  V30 3315 C 314.581 3.22 -1.60761 0
M  V30 3316 C 314.189 3.21607 -3.11886 0
M  V30 3317 C 315.933 3.9861 -1.4598 0
M  V30 3318 C 313.84 4.59092 -3.72812 0
M  V30 3319 H 312.77 0.67154 -0.342856 0
M  V30 3320 H 315.421 1.2027 -1.3859 0
M  V30 3321 H 313.803 3.81115 -1.07553 0
M  V30 3322 H 314.977 2.72127 -3.71865 0
M  V30 3323 H 313.292 2.58495 -3.2645 0
M  V30 3324 H 315.889 5.00225 -1.88888 0
M  V30 3325 H 316.232 4.143 -0.407541 0
M  V30 3326 H 316.765 3.45996 -1.96295 0
M  V30 3327 H 313.504 4.48606 -4.77946 0
M  V30 3328 H 313.024 5.08803 -3.17616 0
M  V30 3329 H 314.703 5.28059 -3.73848 0
M  V30 3330 N 314.835 0.952656 1.25548 0
M  V30 3331 C 316.063 0.623496 1.97282 0
M  V30 3332 C 316.478 -0.803987 1.70826 0
M  V30 3333 O 315.835 -1.53755 0.983147 0
M  V30 3334 C 315.886 0.870209 3.5087 0
M  V30 3335 O 315.607 2.24156 3.76412 0
M  V30 3336 C 317.108 0.553164 4.39835 0
M  V30 3337 H 314.328 0.233931 0.628902 0
M  V30 3338 H 316.872 1.27649 1.59768 0
M  V30 3339 H 315.027 0.263652 3.86502 0
M  V30 3340 H 315.441 2.31021 4.70882 0
M  V30 3341 H 316.915 0.776342 5.46513 0
M  V30 3342 H 317.392 -0.512215 4.36203 0
M  V30 3343 H 317.998 1.13896 4.09766 0
M  V30 3344 N 316.313 -1.40141 0.720998 0
M  V30 3345 C 317.243 -2.33339 0.0867621 0
M  V30 3346 C 318.224 -1.53178 -0.739622 0
M  V30 3347 O 319.409 -1.81625 -0.687449 0
M  V30 3348 C 316.539 -3.37194 -0.831728 0
M  V30 3349 C 315.493 -4.27857 -0.110558 0
M  V30 3350 C 314.819 -5.22294 -1.14513 0
M  V30 3351 C 316.119 -5.11872 1.0385 0
M  V30 3352 H 317.813 -2.86626 0.865219 0
M  V30 3353 H 315.359 -1.37814 0.417516 0
M  V30 3354 H 317.312 -4.01335 -1.28485 0
M  V30 3355 H 316.036 -2.82314 -1.64214 0
M  V30 3356 H 314.695 -3.65176 0.322797 0
M  V30 3357 H 314.343 -4.63717 -1.94874 0
M  V30 3358 H 314.043 -5.83797 -0.667446 0
M  V30 3359 H 315.567 -5.89312 -1.59824 0
M  V30 3360 H 316.981 -5.69436 0.664482 0
M  V30 3361 H 315.378 -5.82445 1.4449 0
M  V30 3362 H 316.448 -4.4753 1.86668 0
M  V30 3363 N 317.792 -0.46758 -1.50504 0
M  V30 3364 C 319.022 0.086288 -2.0642 0
M  V30 3365 C 319.43 1.34369 -1.33197 0
M  V30 3366 O 318.773 1.79431 -0.393747 0
M  V30 3367 C 318.835 0.443846 -3.5675 0
M  V30 3368 C 318.499 -0.711035 -4.51435 0
M  V30 3369 C 319.496 -1.59205 -4.94924 0
M  V30 3370 C 317.181 -0.900363 -4.94165 0
M  V30 3371 C 319.175 -2.64683 -5.79846 0
M  V30 3372 C 316.862 -1.95837 -5.7887 0
M  V30 3373 C 317.86 -2.82997 -6.21612 0
M  V30 3374 O 317.548 -3.86977 -7.0463 0
M  V30 3375 H 317.28 -0.00217814 -0.675996 0
M  V30 3376 H 319.834 -0.654346 -1.94698 0
M  V30 3377 H 318.064 1.23762 -3.6636 0
M  V30 3378 H 319.753 0.932386 -3.95046 0
M  V30 3379 H 320.519 -1.45745 -4.62583 0
M  V30 3380 H 316.398 -0.231427 -4.60419 0
M  V30 3381 H 319.942 -3.32745 -6.13128 0
M  V30 3382 H 315.839 -2.09305 -6.10624 0
M  V30 3383 H 316.607 -3.83923 -7.22873 0
M  V30 3384 N 319.27 1.56325 -0.20005 0
M  V30 3385 C 320.2 2.22318 0.713916 0
M  V30 3386 C 321.181 1.18788 1.21752 0
M  V30 3387 O 322.366 1.47309 1.26545 0
M  V30 3388 C 319.496 2.88639 1.93144 0
M  V30 3389 C 318.45 3.98457 1.56255 0
M  V30 3390 C 317.776 4.51967 2.85709 0
M  V30 3391 C 319.076 5.16612 0.768747 0
M  V30 3392 H 320.77 2.98952 0.163755 0
M  V30 3393 H 318.316 1.43792 0.0773219 0
M  V30 3394 H 320.269 3.33491 2.57608 0
M  V30 3395 H 318.993 2.09419 2.50621 0
M  V30 3396 H 317.652 3.54305 0.941471 0
M  V30 3397 H 317.3 3.69503 3.41287 0
M  V30 3398 H 317 5.26071 2.6177 0
M  V30 3399 H 318.524 4.99523 3.51154 0
M  V30 3400 H 319.938 5.57977 1.3166 0
M  V30 3401 H 318.335 5.96812 0.627286 0
M  V30 3402 H 319.405 4.84358 -0.229168 0
M  V30 3403 N 320.748 -0.0735177 1.57428 0
M  V30 3404 C 321.658 -1.10547 2.06922 0
M  V30 3405 C 322.674 -1.42506 0.998402 0
M  V30 3406 O 323.85 -1.52717 1.31299 0
M  V30 3407 C 320.915 -2.40019 2.50184 0
M  V30 3408 C 319.976 -2.15046 3.71556 0
M  V30 3409 C 319.209 -3.38345 4.12745 0
M  V30 3410 O 319.432 -4.47399 3.53822 0
M  V30 3411 O 318.366 -3.2666 5.05546 0
M  V30 3412 H 322.192 -0.715013 2.95163 0
M  V30 3413 H 319.777 -0.287531 1.46607 0
M  V30 3414 H 321.659 -3.16218 2.78539 0
M  V30 3415 H 320.334 -2.78447 1.65072 0
M  V30 3416 H 319.241 -1.36558 3.48285 0
M  V30 3417 H 320.574 -1.81499 4.57514 0
M  V30 3418 N 322.226 -1.5378 -0.344866 0
M  V30 3419 C 323.173 -1.81676 -1.42346 0
M  V30 3420 C 324.143 -0.662376 -1.52321 0
M  V30 3421 O 325.328 -0.906675 -1.67881 0
M  V30 3422 C 322.468 -2.03087 -2.79015 0
M  V30 3423 C 321.581 -3.30799 -2.77842 0
M  V30 3424 C 320.716 -3.42285 -4.0622 0
M  V30 3425 C 319.755 -4.6395 -3.9927 0
M  V30 3426 N 318.892 -4.72477 -5.19336 0
M  V30 3427 H 323.732 -2.73703 -1.17858 0
M  V30 3428 H 321.269 -1.35568 -0.570949 0
M  V30 3429 H 323.227 -2.1349 -3.58438 0
M  V30 3430 H 321.857 -1.14375 -3.01858 0
M  V30 3431 H 320.909 -3.29244 -1.90533 0
M  V30 3432 H 322.221 -4.20314 -2.68584 0
M  V30 3433 H 321.375 -3.52113 -4.94066 0
M  V30 3434 H 320.114 -2.50823 -4.18258 0
M  V30 3435 H 319.119 -4.54201 -3.09809 0
M  V30 3436 H 320.344 -5.56775 -3.88817 0
M  V30 3437 H 318.29 -3.83924 -5.3192 0
M  V30 3438 H 318.207 -5.55927 -5.12329 0
M  V30 3439 H 319.475 -4.86613 -6.08957 0
M  V30 3440 N 323.704 0.605807 -1.45491 0
M  V30 3441 C 324.614 1.74466 -1.56839 0
M  V30 3442 C 325.63 1.68006 -0.452772 0
M  V30 3443 O 326.806 1.8833 -0.713708 0
M  V30 3444 C 323.871 3.10931 -1.53371 0
M  V30 3445 C 322.932 3.28832 -2.75986 0
M  V30 3446 C 322.165 4.58787 -2.72673 0
M  V30 3447 O 322.388 5.4122 -1.80102 0
M  V30 3448 O 321.322 4.79438 -3.63899 0
M  V30 3449 H 325.148 1.67843 -2.53106 0
M  V30 3450 H 322.733 0.770108 -1.28022 0
M  V30 3451 H 324.615 3.92233 -1.54051 0
M  V30 3452 H 323.29 3.18042 -0.602572 0
M  V30 3453 H 322.197 2.47112 -2.80867 0
M  V30 3454 H 323.53 3.26599 -3.68231 0
M  V30 3455 N 325.182 1.32811 0.848464 0
M  V30 3456 C 326.598 1.11937 1.13764 0
M  V30 3457 C 326.798 -0.0960789 2.01271 0
M  V30 3458 O 325.854 -0.779165 2.40178 0
M  V30 3459 C 327.167 2.402 1.809 0
M  V30 3460 C 328.715 2.46016 1.93508 0
M  V30 3461 C 329.19 3.74215 2.64059 0
M  V30 3462 N 330.681 3.75232 2.71579 0
M  V30 3463 C 331.416 4.71134 3.26833 0
M  V30 3464 N 330.912 5.77406 3.8285 0
M  V30 3465 N 332.705 4.58623 3.24995 0
M  V30 3466 H 324.856 2.1073 0.265855 0
M  V30 3467 H 327.119 0.930671 0.180431 0
M  V30 3468 H 326.825 3.29093 1.24058 0
M  V30 3469 H 326.699 2.51628 2.81004 0
M  V30 3470 H 329.086 1.57577 2.49506 0
M  V30 3471 H 329.167 2.38536 0.923811 0
M  V30 3472 H 328.811 4.63031 2.08722 0
M  V30 3473 H 328.741 3.78968 3.65637 0
M  V30 3474 H 331.232 2.98423 2.31845 0
M  V30 3475 H 331.545 6.46632 4.23187 0
M  V30 3476 H 329.89 5.81152 3.81165 0
M  V30 3477 H 333.081 3.74762 2.80484 0
M  V30 3478 H 333.254 5.33535 3.67756 0
M  V30 3479 N 326.66 -1.06551 1.16123 0
M  V30 3480 C 327.57 -2.17484 0.879662 0
M  V30 3481 C 328.586 -1.73377 -0.147104 0
M  V30 3482 O 329.762 -2.01379 0.0289128 0
M  V30 3483 C 326.827 -3.44591 0.381829 0
M  V30 3484 C 325.888 -4.0322 1.4735 0
M  V30 3485 C 325.121 -5.24261 0.999324 0
M  V30 3486 O 325.344 -5.70198 -0.151957 0
M  V30 3487 O 324.278 -5.74775 1.78653 0
M  V30 3488 H 328.104 -2.44075 1.80724 0
M  V30 3489 H 325.689 -1.16042 0.940992 0
M  V30 3490 H 327.571 -4.21254 0.111053 0
M  V30 3491 H 326.246 -3.19532 -0.51777 0
M  V30 3492 H 325.153 -3.2806 1.79798 0
M  V30 3493 H 326.486 -4.32568 2.34831 0
M  V30 3494 N 328.138 -0.959301 -1.25041 0
M  V30 3495 C 329.085 -0.482057 -2.2571 0
M  V30 3496 C 330.055 0.467939 -1.59372 0
M  V30 3497 O 331.24 0.380159 -1.86974 0
M  V30 3498 C 328.38 0.229623 -3.44335 0
M  V30 3499 C 327.493 -0.758156 -4.25295 0
M  V30 3500 C 326.628 -0.0234403 -5.31195 0
M  V30 3501 C 325.667 -1.00184 -6.03846 0
M  V30 3502 N 324.804 -0.29769 -7.01469 0
M  V30 3503 H 329.644 -1.34538 -2.65901 0
M  V30 3504 H 327.181 -0.674592 -1.3072 0
M  V30 3505 H 329.139 0.658856 -4.11965 0
M  V30 3506 H 327.769 1.05696 -3.05005 0
M  V30 3507 H 326.821 -1.30586 -3.57284 0
M  V30 3508 H 328.133 -1.50458 -4.75567 0
M  V30 3509 H 327.287 0.464201 -6.04922 0
M  V30 3510 H 326.026 0.755741 -4.81809 0
M  V30 3511 H 325.031 -1.50044 -5.2893 0
M  V30 3512 H 326.256 -1.78133 -6.55321 0
M  V30 3513 H 324.202 0.462668 -6.54366 0
M  V30 3514 H 324.119 -0.983128 -7.4958 0
M  V30 3515 H 325.387 0.16826 -7.79318 0
M  V30 3516 N 329.616 1.39756 -0.72842 0
M  V30 3517 C 330.526 2.34444 -0.0855374 0
M  V30 3518 C 331.542 1.57976 0.729356 0
M  V30 3519 O 332.718 1.90301 0.659346 0
M  V30 3520 C 329.783 3.36965 0.815798 0
M  V30 3521 C 328.844 4.29299 -0.0105996 0
M  V30 3522 C 328.077 5.26923 0.84781 0
M  V30 3523 O 328.3 5.30859 2.08673 0
M  V30 3524 O 327.234 6.01249 0.279969 0
M  V30 3525 H 331.06 2.91065 -0.866892 0
M  V30 3526 H 328.645 1.4117 -0.48902 0
M  V30 3527 H 330.527 3.99804 1.33171 0
M  V30 3528 H 329.202 2.82739 1.57608 0
M  V30 3529 H 328.109 3.69703 -0.571877 0
M  V30 3530 H 329.442 4.86712 -0.73295 0
M  V30 3531 N 331.094 0.475555 1.50254 0
M  V30 3532 C 332.343 -0.0795996 2.01543 0
M  V30 3533 C 332.656 -1.4038 1.36209 0
M  V30 3534 O 333.862 -2.04415 1.7868 0
M  V30 3535 C 332.318 -0.192363 3.59386 0
M  V30 3536 C 331.926 1.12367 4.33679 0
M  V30 3537 C 333.67 -0.699238 4.18701 0
M  V30 3538 C 331.577 0.974453 5.83317 0
M  V30 3539 H 330.507 -0.0335228 0.753254 0
M  V30 3540 H 333.158 0.611128 1.73025 0
M  V30 3541 H 331.54 -0.946974 3.84511 0
M  V30 3542 H 332.714 1.88958 4.20276 0
M  V30 3543 H 331.029 1.562 3.85993 0
M  V30 3544 H 333.626 -0.827978 5.28251 0
M  V30 3545 H 333.969 -1.69171 3.80377 0
M  V30 3546 H 334.502 -0.00188807 3.978 0
M  V30 3547 H 331.241 1.94042 6.26121 0
M  V30 3548 H 330.761 0.248998 5.99283 0
M  V30 3549 H 332.44 0.642867 6.43798 0
M  V30 3550 N 332.573 -1.56217 0.208337 0
M  V30 3551 C 333.798 -2.02782 -0.435222 0
M  V30 3552 C 334.223 -1.08738 -1.53485 0
M  V30 3553 O 333.581 -0.0731855 -1.81152 0
M  V30 3554 C 333.629 -3.47687 -0.956335 0
M  V30 3555 O 332.733 -3.56773 -2.06849 0
M  V30 3556 H 332.074 -0.656403 -0.100158 0
M  V30 3557 H 334.604 -2.02033 0.3231 0
M  V30 3558 H 334.614 -3.87745 -1.26955 0
M  V30 3559 H 333.289 -4.15624 -0.15143 0
M  V30 3560 H 331.866 -3.28597 -1.76292 0
M  V30 3561 N 334.051 0.0651679 -1.57465 0
M  V30 3562 C 335.328 0.79644 -1.78651 0
M  V30 3563 C 335.708 1.95454 -0.797566 0
M  V30 3564 O 335.056 2.27882 0.167946 0
M  V30 3565 C 335.266 1.26322 -3.25337 0
M  V30 3566 C 336.614 1.6939 -3.89348 0
M  V30 3567 O 337.638 1.35872 -3.29268 0
M  V30 3568 O 336.497 2.31471 -4.95059 0
M  V30 3569 H 333.591 0.382157 -0.733407 0
M  V30 3570 H 336.137 0.0447311 -1.69641 0
M  V30 3571 H 334.909 0.434859 -3.88876 0
M  V30 3572 H 334.532 2.07604 -3.39096 0
M  V30 3573 N 335.529 1.53961 0.336706 0
M  V30 3574 C 336.806 1.62171 1.09361 0
M  V30 3575 C 337.186 0.447263 2.06307 0
M  V30 3576 O 336.534 -0.559802 2.21537 0
M  V30 3577 C 336.744 2.98565 1.80721 0
M  V30 3578 C 338.092 3.54157 2.34218 0
M  V30 3579 O 339.116 3.00784 1.90807 0
M  V30 3580 O 337.975 4.47528 3.13657 0
M  V30 3581 H 335.069 0.6562 0.503319 0
M  V30 3582 H 337.615 1.66307 0.33765 0
M  V30 3583 H 336.387 3.75482 1.10132 0
M  V30 3584 H 336.01 2.9805 2.63158 0
M  V30 3585 N 337.007 -0.598083 1.45811 0
M  V30 3586 C 337.917 -1.73632 1.57763 0
M  V30 3587 C 338.933 -1.67763 0.461676 0
M  V30 3588 O 340.109 -1.87949 0.723685 0
M  V30 3589 C 337.174 -3.10114 1.55018 0
M  V30 3590 C 336.235 -3.27364 2.77726 0
M  V30 3591 C 335.468 -4.57334 2.75102 0
M  V30 3592 O 335.691 -5.40258 1.8297 0
M  V30 3593 O 334.625 -4.77502 3.66437 0
M  V30 3594 H 338.451 -1.66498 2.53992 0
M  V30 3595 H 336.036 -0.763308 1.28429 0
M  V30 3596 H 337.918 -3.9141 1.56129 0
M  V30 3597 H 336.593 -3.17718 0.619431 0
M  V30 3598 H 335.5 -2.45619 2.82174 0
M  V30 3599 H 336.833 -3.24641 3.69958 0
M  V30 3600 N 338.485 -1.33259 -0.841409 0
M  V30 3601 C 339.448 -1.23221 -1.9326 0
M  V30 3602 C 340.448 -0.151895 -1.60081 0
M  V30 3603 O 341.638 -0.403246 -1.69468 0
M  V30 3604 C 338.77 -0.898123 -3.28856 0
M  V30 3605 H 339.963 -2.2021 -2.03587 0
M  V30 3606 H 337.516 -1.17281 -1.03319 0
M  V30 3607 H 338.251 0.0693841 -3.24226 0
M  V30 3608 H 338.036 -1.67934 -3.54317 0
M  V30 3609 H 339.526 -0.852563 -4.08805 0
M  V30 3610 N 339.963 1.05934 -1.16686 0
M  V30 3611 C 340.873 2.17014 -0.891183 0
M  V30 3612 C 341.889 1.73453 0.137907 0
M  V30 3613 O 343.065 2.01361 -0.039592 0
M  V30 3614 C 340.13 3.44384 -0.400099 0
M  V30 3615 C 339.191 4.02433 -1.49486 0
M  V30 3616 C 338.424 5.23723 -1.02711 0
M  V30 3617 O 338.647 5.7027 0.121716 0
M  V30 3618 O 337.581 5.7382 -1.81699 0
M  V30 3619 H 341.407 2.43113 -1.82015 0
M  V30 3620 H 338.992 1.15541 -0.947132 0
M  V30 3621 H 340.874 4.21189 -0.133392 0
M  V30 3622 H 339.549 3.19802 0.500817 0
M  V30 3623 H 338.456 3.27102 -1.81535 0
M  V30 3624 H 339.789 4.31317 -2.37121 0
M  V30 3625 N 341.441 0.965919 1.2453 0
M  V30 3626 C 342.351 0.502154 2.29163 0
M  V30 3627 C 343.367 -0.436017 1.68448 0
M  V30 3628 O 344.543 -0.309497 1.99008 0
M  V30 3629 C 341.608 -0.201956 3.46111 0
M  V30 3630 C 340.669 0.775821 4.22232 0
M  V30 3631 C 339.902 0.105217 5.33596 0
M  V30 3632 O 340.125 -1.10683 5.59558 0
M  V30 3633 O 339.059 0.796475 5.96607 0
M  V30 3634 H 342.885 1.37194 2.70946 0
M  V30 3635 H 340.47 0.732875 1.30189 0
M  V30 3636 H 342.352 -0.597564 4.17142 0
M  V30 3637 H 341.027 -1.04673 3.06309 0
M  V30 3638 H 339.934 1.22185 3.53584 0
M  V30 3639 H 341.267 1.58896 4.65846 0
M  V30 3640 N 342.919 -1.39368 0.735821 0
M  V30 3641 C 343.829 -2.34395 0.0979693 0
M  V30 3642 C 344.845 -1.58361 -0.720968 0
M  V30 3643 O 346.021 -1.90648 -0.649245 0
M  V30 3644 C 343.086 -3.37393 -0.797916 0
M  V30 3645 C 342.147 -4.29287 0.0333662 0
M  V30 3646 C 341.38 -5.27365 -0.819854 0
M  V30 3647 O 341.603 -5.31959 -2.05855 0
M  V30 3648 O 340.537 -6.01389 -0.248079 0
M  V30 3649 H 344.363 -2.90601 0.882315 0
M  V30 3650 H 341.948 -1.40909 0.4965 0
M  V30 3651 H 343.83 -4.00505 -1.31048 0
M  V30 3652 H 342.505 -2.83571 -1.56106 0
M  V30 3653 H 341.412 -3.69395 0.591475 0
M  V30 3654 H 342.745 -4.86317 0.758752 0
M  V30 3655 N 344.397 -0.483516 -1.5 0
M  V30 3656 C 345.344 0.304164 -2.28787 0
M  V30 3657 C 346.314 0.976114 -1.34392 0
M  V30 3658 O 347.499 0.986156 -1.63339 0
M  V30 3659 C 344.639 1.37298 -3.16612 0
M  V30 3660 C 343.752 0.714561 -4.26049 0
M  V30 3661 C 342.887 1.76232 -5.01114 0
M  V30 3662 C 341.926 1.08483 -6.0241 0
M  V30 3663 N 341.063 2.076 -6.70706 0
M  V30 3664 H 345.903 -0.373981 -2.95644 0
M  V30 3665 H 343.44 -0.196275 -1.45785 0
M  V30 3666 H 345.398 2.00445 -3.65893 0
M  V30 3667 H 344.028 2.02012 -2.51776 0
M  V30 3668 H 343.08 -0.0297798 -3.80388 0
M  V30 3669 H 344.392 0.180383 -4.98474 0
M  V30 3670 H 343.546 2.46929 -5.54176 0
M  V30 3671 H 342.285 2.33033 -4.28424 0
M  V30 3672 H 341.29 0.363545 -5.48597 0
M  V30 3673 H 342.515 0.523551 -6.77079 0
M  V30 3674 H 340.461 2.63394 -6.00799 0
M  V30 3675 H 340.378 1.59201 -7.39047 0
M  V30 3676 H 341.646 2.77639 -7.2838 0
M  V30 3677 N 345.875 1.56104 -0.216619 0
M  V30 3678 C 347.123 1.97781 0.415593 0
M  V30 3679 C 347.444 1.10536 1.60645 0
M  V30 3680 O 346.714 0.181303 1.95059 0
M  V30 3681 H 345.294 0.730415 0.156534 0
M  V30 3682 H 347.956 1.92445 -0.308366 0
M  V30 3683 H 347.052 3.03072 0.74525 0
M  V30 3684 N 347.353 -0.0568162 1.57498 0
M  V30 3685 C 348.263 -1.08346 2.08083 0
M  V30 3686 C 349.279 -1.41439 1.01346 0
M  V30 3687 O 350.455 -1.51316 1.32912 0
M  V30 3688 C 347.52 -2.37352 2.52715 0
M  V30 3689 C 346.581 -2.11093 3.73816 0
M  V30 3690 C 345.814 -3.33949 4.1631 0
M  V30 3691 O 346.037 -4.43622 3.58547 0
M  V30 3692 O 344.971 -3.21279 5.08983 0
M  V30 3693 H 348.797 -0.683667 2.95905 0
M  V30 3694 H 346.382 -0.271965 1.46904 0
M  V30 3695 H 348.264 -3.13246 2.81877 0
M  V30 3696 H 346.939 -2.76681 1.68016 0
M  V30 3697 H 345.846 -1.32856 3.49714 0
M  V30 3698 H 347.179 -1.76637 4.59413 0
M  V30 3699 N 348.832 -1.54138 -0.328536 0
M  V30 3700 C 349.779 -1.83176 -1.40411 0
M  V30 3701 C 350.749 -0.678494 -1.5161 0
M  V30 3702 O 351.934 -0.92443 -1.6691 0
M  V30 3703 C 349.074 -2.06035 -2.76846 0
M  V30 3704 C 348.187 -3.33727 -2.74318 0
M  V30 3705 C 347.322 -3.46574 -4.02567 0
M  V30 3706 C 346.361 -4.68159 -3.94327 0
M  V30 3707 N 345.498 -4.77959 -5.14296 0
M  V30 3708 H 350.338 -2.74938 -1.14948 0
M  V30 3709 H 347.875 -1.36166 -0.556538 0
M  V30 3710 H 349.833 -2.1728 -3.56153 0
M  V30 3711 H 348.463 -1.1757 -3.00628 0
M  V30 3712 H 347.515 -3.31246 -1.8703 0
M  V30 3713 H 348.827 -4.23139 -2.64111 0
M  V30 3714 H 347.981 -3.57333 -4.90304 0
M  V30 3715 H 346.72 -2.55245 -4.15574 0
M  V30 3716 H 345.725 -4.57461 -3.04974 0
M  V30 3717 H 346.95 -5.60868 -3.82889 0
M  V30 3718 H 344.896 -3.89544 -5.27818 0
M  V30 3719 H 344.813 -5.6133 -5.06404 0
M  V30 3720 H 346.081 -4.93044 -6.03761 0
M  V30 3721 N 350.31 0.590341 -1.46126 0
M  V30 3722 C 351.22 1.72793 -1.58681 0
M  V30 3723 C 352.236 1.67516 -0.470566 0
M  V30 3724 O 353.412 1.87562 -0.733642 0
M  V30 3725 C 350.477 3.09287 -1.5666 0
M  V30 3726 C 349.538 3.25886 -2.79458 0
M  V30 3727 C 348.771 4.55869 -2.77524 0
M  V30 3728 O 348.994 5.3928 -1.85832 0
M  V30 3729 O 347.928 4.75552 -3.68964 0
M  V30 3730 H 351.754 1.65149 -2.54872 0
M  V30 3731 H 349.339 0.756486 -1.28832 0
M  V30 3732 H 351.221 3.90577 -1.58202 0
M  V30 3733 H 349.896 3.17385 -0.636271 0
M  V30 3734 H 348.803 2.44119 -2.83472 0
M  V30 3735 H 350.136 3.22675 -3.71674 0
M  V30 3736 N 351.788 1.33704 0.83433 0
M  V30 3737 C 352.698 1.26382 1.97648 0
M  V30 3738 C 353.714 0.173548 1.73132 0
M  V30 3739 O 354.89 0.397962 1.97429 0
M  V30 3740 C 351.955 1.00769 3.31733 0
M  V30 3741 C 351.016 2.1884 3.69334 0
M  V30 3742 C 350.249 1.9444 4.9702 0
M  V30 3743 O 350.472 0.896961 5.63303 0
M  V30 3744 O 349.406 2.81093 5.32231 0
M  V30 3745 H 353.232 2.22444 2.06767 0
M  V30 3746 H 350.817 1.13795 0.968037 0
M  V30 3747 H 352.699 0.882186 4.12062 0
M  V30 3748 H 351.374 0.0773783 3.23608 0
M  V30 3749 H 350.281 2.36946 2.89495 0
M  V30 3750 H 351.614 3.10221 3.82131 0
M  V30 3751 N 353.266 -1.05314 1.17247 0
M  V30 3752 C 354.176 -2.16538 0.90268 0
M  V30 3753 C 355.192 -1.73523 -0.128707 0
M  V30 3754 O 356.368 -2.01337 0.0502701 0
M  V30 3755 C 353.433 -3.44167 0.418356 0
M  V30 3756 C 352.494 -4.01635 1.51618 0
M  V30 3757 C 351.727 -5.23171 1.05487 0
M  V30 3758 O 351.95 -5.70327 -0.0914715 0
M  V30 3759 O 350.884 -5.72848 1.8474 0
M  V30 3760 H 354.71 -2.42145 1.83302 0
M  V30 3761 H 352.295 -1.15037 0.953246 0
M  V30 3762 H 354.177 -4.21112 0.155726 0
M  V30 3763 H 352.852 -3.20063 -0.48385 0
M  V30 3764 H 351.759 -3.26135 1.83268 0
M  V30 3765 H 353.092 -4.30053 2.39405 0
M  V30 3766 N 354.744 -0.972509 -1.24016 0
M  V30 3767 C 356.021 -0.553733 -1.87598 0
M  V30 3768 C 356.401 0.969158 -1.87538 0
M  V30 3769 O 355.749 1.84255 -1.35139 0
M  V30 3770 C 355.959 -1.15076 -3.29482 0
M  V30 3771 C 357.307 -1.23862 -4.06132 0
M  V30 3772 O 358.331 -1.10363 -3.38672 0
M  V30 3773 O 357.19 -1.45252 -5.26844 0
M  V30 3774 H 354.284 -0.185331 -0.805966 0
M  V30 3775 H 356.83 -1.06709 -1.31952 0
M  V30 3776 H 355.602 -2.19333 -3.2405 0
M  V30 3777 H 355.225 -0.621746 -3.92709 0
M  V30 3778 N 356.222 1.38976 -0.743202 0
M  V30 3779 C 357.169 2.30544 -0.10861 0
M  V30 3780 C 358.139 1.49642 0.720869 0
M  V30 3781 O 359.324 1.78304 0.679142 0
M  V30 3782 C 356.464 3.36018 0.786496 0
M  V30 3783 C 355.577 4.31963 -0.0564849 0
M  V30 3784 C 354.712 5.24506 0.840657 0
M  V30 3785 C 353.751 6.121 -0.00658363 0
M  V30 3786 N 352.888 6.96973 0.846943 0
M  V30 3787 H 357.728 2.8424 -0.895088 0
M  V30 3788 H 355.265 1.3995 -0.453048 0
M  V30 3789 H 357.223 3.95768 1.31999 0
M  V30 3790 H 355.853 2.83758 1.53887 0
M  V30 3791 H 354.905 3.73763 -0.707492 0
M  V30 3792 H 356.217 4.93703 -0.711229 0
M  V30 3793 H 355.371 5.89322 1.4417 0
M  V30 3794 H 354.11 4.63107 1.52916 0
M  V30 3795 H 353.115 5.46289 -0.620366 0
M  V30 3796 H 354.34 6.75565 -0.691992 0
M  V30 3797 H 352.286 6.38133 1.52059 0
M  V30 3798 H 352.203 7.5559 0.248864 0
M  V30 3799 H 353.471 7.6621 1.43328 0
M  V30 3800 N 357.7 0.491464 1.49741 0
M  V30 3801 C 358.977 -0.118984 1.95238 0
M  V30 3802 C 359.357 -1.55044 1.43264 0
M  V30 3803 O 358.705 -2.19287 0.642287 0
M  V30 3804 C 358.915 -0.0414187 3.48975 0
M  V30 3805 C 360.263 -0.220133 4.24029 0
M  V30 3806 O 361.287 -0.117055 3.56008 0
M  V30 3807 O 360.146 -0.430567 5.44801 0
M  V30 3808 H 357.24 -0.100536 0.820866 0
M  V30 3809 H 359.786 0.553322 1.60426 0
M  V30 3810 H 358.558 0.957214 3.79412 0
M  V30 3811 H 358.181 -0.754292 3.9038 0
M  V30 3812 N 359.178 -1.55987 0.224894 0
M  V30 3813 C 360.455 -1.90232 -0.455083 0
M  V30 3814 C 360.835 -1.14269 -1.77499 0
M  V30 3815 O 360.183 -0.253079 -2.27094 0
M  V30 3816 C 360.393 -3.42993 -0.644758 0
M  V30 3817 C 361.741 -4.13821 -0.950669 0
M  V30 3818 O 362.765 -3.4861 -0.731423 0
M  V30 3819 O 361.624 -5.29128 -1.36695 0
M  V30 3820 H 358.718 -0.79108 -0.241084 0
M  V30 3821 H 361.264 -1.67581 0.267327 0
M  V30 3822 H 360.036 -3.90252 0.28613 0
M  V30 3823 H 359.659 -3.71434 -1.41853 0
M  V30 3824 N 360.656 0.0484629 -1.57525 0
M  V30 3825 C 361.566 1.07241 -2.08654 0
M  V30 3826 C 362.582 1.409 -1.02095 0
M  V30 3827 O 363.758 1.50609 -1.33712 0
M  V30 3828 C 360.823 2.36008 -2.5397 0
M  V30 3829 C 359.884 2.09108 -3.7493 0
M  V30 3830 C 359.117 3.31736 -4.18075 0
M  V30 3831 O 359.34 4.41714 -3.60895 0
M  V30 3832 O 358.274 3.18576 -5.10679 0
M  V30 3833 H 362.1 0.667965 -2.96263 0
M  V30 3834 H 359.685 0.26417 -1.47046 0
M  V30 3835 H 361.567 3.11747 -2.83535 0
M  V30 3836 H 360.242 2.75786 -1.69481 0
M  V30 3837 H 359.149 1.31 -3.50414 0
M  V30 3838 H 360.482 1.74198 -4.60343 0
M  V30 3839 N 362.134 1.5431 0.320358 0
M  V30 3840 C 363.044 1.86946 1.41734 0
M  V30 3841 C 364.06 0.761689 1.56443 0
M  V30 3842 O 365.236 1.05629 1.71477 0
M  V30 3843 C 362.301 2.09293 2.76401 0
M  V30 3844 C 361.362 3.33082 2.70841 0
M  V30 3845 C 360.595 3.54353 3.99086 0
M  V30 3846 O 360.818 2.79002 4.97508 0
M  V30 3847 O 359.752 4.47838 4.0215 0
M  V30 3848 H 363.578 2.80232 1.17062 0
M  V30 3849 H 361.163 1.40255 0.514673 0
M  V30 3850 H 363.045 2.25303 3.56113 0
M  V30 3851 H 361.72 1.19194 3.00956 0
M  V30 3852 H 360.627 3.22454 1.89668 0
M  V30 3853 H 361.96 4.23249 2.5124 0
M  V30 3854 N 363.613 -0.582584 1.46437 0
M  V30 3855 C 364.56 -1.69164 1.5701 0
M  V30 3856 C 365.53 -1.60847 0.414403 0
M  V30 3857 O 366.715 -1.80058 0.631171 0
M  V30 3858 C 363.855 -3.075 1.56646 0
M  V30 3859 C 362.968 -3.2644 2.82951 0
M  V30 3860 C 362.103 -4.55026 2.7409 0
M  V30 3861 C 361.142 -4.6731 3.95333 0
M  V30 3862 N 360.279 -5.87221 3.84858 0
M  V30 3863 H 365.119 -1.59464 2.51744 0
M  V30 3864 H 362.656 -0.777186 1.24893 0
M  V30 3865 H 364.614 -3.8757 1.5442 0
M  V30 3866 H 363.244 -3.16096 0.654439 0
M  V30 3867 H 362.296 -2.39974 2.95155 0
M  V30 3868 H 363.608 -3.31385 3.72808 0
M  V30 3869 H 362.762 -5.43324 2.6997 0
M  V30 3870 H 361.501 -4.52519 1.81873 0
M  V30 3871 H 360.506 -3.77429 3.99784 0
M  V30 3872 H 361.731 -4.71595 4.88646 0
M  V30 3873 H 359.677 -5.85712 2.95427 0
M  V30 3874 H 359.594 -5.93435 4.6837 0
M  V30 3875 H 360.862 -6.7795 3.84713 0
M  V30 3876 N 365.091 -1.34144 -0.827227 0
M  V30 3877 C 366.502 -1.23557 -1.39966 0
M  V30 3878 C 366.853 0.140731 -1.95695 0
M  V30 3879 O 365.978 1.04087 -1.89723 0
M  V30 3880 C 366.573 -2.23708 -2.54441 0
M  V30 3881 C 365.132 -2.16924 -3.07605 0
M  V30 3882 C 364.279 -2.10549 -1.80456 0
M  V30 3883 H 367.23 -1.45573 -0.631991 0
M  V30 3884 H 367.251 -1.85157 -3.32411 0
M  V30 3885 H 366.763 -3.23866 -2.13851 0
M  V30 3886 H 364.864 -1.20107 -3.52711 0
M  V30 3887 H 364.977 -3.07988 -3.66988 0
M  V30 3888 H 363.341 -1.56203 -2.01178 0
M  V30 3889 H 364.124 -3.12535 -1.42046 0
M  V30 3890 N 366.569 1.04691 -1.17803 0
M  V30 3891 C 367.516 2.12557 -0.899343 0
M  V30 3892 C 368.486 1.65339 0.158771 0
M  V30 3893 O 369.671 1.90789 0.0204797 0
M  V30 3894 C 366.811 3.42481 -0.424315 0
M  V30 3895 C 365.924 4.03346 -1.54713 0
M  V30 3896 C 365.059 5.21208 -1.02546 0
M  V30 3897 C 364.098 5.74089 -2.12339 0
M  V30 3898 N 363.235 6.83247 -1.61612 0
M  V30 3899 H 368.075 2.35734 -1.823 0
M  V30 3900 H 365.612 1.1564 -0.909159 0
M  V30 3901 H 367.57 4.16996 -0.130421 0
M  V30 3902 H 366.2 3.19471 0.462377 0
M  V30 3903 H 365.252 3.2622 -1.95664 0
M  V30 3904 H 366.564 4.38628 -2.37501 0
M  V30 3905 H 365.718 6.02812 -0.685718 0
M  V30 3906 H 364.457 4.87414 -0.167084 0
M  V30 3907 H 363.462 4.91111 -2.47165 0
M  V30 3908 H 364.687 6.0993 -2.98601 0
M  V30 3909 H 362.633 6.5134 -0.780533 0
M  V30 3910 H 362.55 7.17559 -2.38003 0
M  V30 3911 H 363.818 7.68491 -1.30545 0
M  V30 3912 N 368.047 0.979072 1.23499 0
M  V30 3913 C 369.296 0.642751 1.91185 0
M  V30 3914 C 369.609 -0.827253 1.77245 0
M  V30 3915 O 370.815 -1.27458 2.39722 0
M  V30 3916 C 369.271 1.09901 3.42709 0
M  V30 3917 C 368.879 2.59327 3.65313 0
M  V30 3918 C 370.623 0.836371 4.16179 0
M  V30 3919 C 368.53 2.98627 5.10467 0
M  V30 3920 H 367.46 0.236698 0.715884 0
M  V30 3921 H 370.111 1.1868 1.39955 0
M  V30 3922 H 368.493 0.48319 3.93041 0
M  V30 3923 H 369.667 3.26136 3.25533 0
M  V30 3924 H 367.982 2.83323 3.05151 0
M  V30 3925 H 370.579 1.10586 5.23139 0
M  V30 3926 H 370.922 -0.227509 4.15678 0
M  V30 3927 H 371.455 1.41371 3.71832 0
M  V30 3928 H 368.194 4.04133 5.16098 0
M  V30 3929 H 367.714 2.3651 5.51201 0
M  V30 3930 H 369.393 2.89159 5.78788 0
M  V30 3931 N 369.525 -1.3858 0.750561 0
M  V30 3932 C 370.435 -2.34278 0.122825 0
M  V30 3933 C 371.451 -1.59116 -0.704131 0
M  V30 3934 O 372.627 -1.91326 -0.628987 0
M  V30 3935 C 369.692 -3.38221 -0.762086 0
M  V30 3936 C 368.753 -4.29227 0.078896 0
M  V30 3937 C 367.986 -5.28205 -0.763874 0
M  V30 3938 O 368.209 -5.34112 -2.00201 0
M  V30 3939 O 367.143 -6.01618 -0.18428 0
M  V30 3940 H 370.969 -2.89649 0.913088 0
M  V30 3941 H 368.554 -1.40374 0.511417 0
M  V30 3942 H 370.436 -4.01872 -1.26793 0
M  V30 3943 H 369.111 -2.85211 -1.5309 0
M  V30 3944 H 368.018 -3.68747 0.630621 0
M  V30 3945 H 369.351 -4.85484 0.810289 0
M  V30 3946 N 371.003 -0.499398 -1.49478 0
M  V30 3947 C 372.28 0.108629 -1.95298 0
M  V30 3948 C 372.66 1.54282 -1.44084 0
M  V30 3949 O 372.008 2.18944 -0.653908 0
M  V30 3950 C 372.218 0.0229111 -3.48992 0
M  V30 3951 C 373.566 0.197643 -4.2414 0
M  V30 3952 O 374.59 0.0981735 -3.56065 0
M  V30 3953 O 373.449 0.401669 -5.45022 0
M  V30 3954 H 370.543 0.096181 -0.821388 0
M  V30 3955 H 373.089 -0.561822 -1.6013 0
M  V30 3956 H 371.861 -0.977321 -3.78899 0
M  V30 3957 H 371.484 0.733579 -3.90774 0
M  V30 3958 N 372.481 1.55866 -0.233164 0
M  V30 3959 C 373.727 1.98897 0.395959 0
M  V30 3960 C 374.06 1.12091 1.58585 0
M  V30 3961 O 373.335 0.181182 1.93654 0
M  V30 3962 C 373.618 3.50658 0.819224 0
M  V30 3963 C 373.471 4.48233 -0.375109 0
M  V30 3964 C 374.79 4.07135 1.67121 0
M  V30 3965 H 371.909 0.723102 0.142451 0
M  V30 3966 H 374.551 1.87082 -0.331725 0
M  V30 3967 H 372.701 3.60857 1.43925 0
M  V30 3968 H 374.373 4.50031 -1.01341 0
M  V30 3969 H 372.616 4.21624 -1.02058 0
M  V30 3970 H 373.287 5.51988 -0.0358328 0
M  V30 3971 H 375.763 3.99952 1.14795 0
M  V30 3972 H 374.639 5.13615 1.93625 0
M  V30 3973 H 374.9 3.54736 2.63846 0
M  V30 3974 N 373.959 -0.0401083 1.57549 0
M  V30 3975 C 375.207 -0.731677 1.8839 0
M  V30 3976 C 375.528 -1.76481 0.829425 0
M  V30 3977 O 374.798 -1.95411 -0.1383 0
M  V30 3978 H 373.378 -0.273225 0.695239 0
M  V30 3979 H 376.04 -0.00867725 1.94898 0
M  V30 3980 H 375.136 -1.22816 2.86919 0
M  V30 3981 N 375.437 -1.54477 -0.31217 0
M  V30 3982 C 376.662 -1.77526 -1.07235 0
M  V30 3983 C 377.087 -0.527775 -1.80544 0
M  V30 3984 O 376.445 0.52121 -1.73646 0
M  V30 3985 C 376.493 -2.97535 -2.03728 0
M  V30 3986 O 375.597 -2.69878 -3.11833 0
M  V30 3987 H 374.938 -0.58792 -0.30862 0
M  V30 3988 H 377.468 -2.01532 -0.352993 0
M  V30 3989 H 377.478 -3.25198 -2.46395 0
M  V30 3990 H 376.153 -3.87996 -1.49774 0
M  V30 3991 H 374.73 -2.53199 -2.7376 0
M  V30 3992 N 376.915 0.57481 -1.46744 0
M  V30 3993 C 378.192 1.3352 -1.4294 0
M  V30 3994 C 378.572 2.10775 -0.117009 0
M  V30 3995 O 377.92 2.09966 0.901474 0
M  V30 3996 C 378.13 2.25456 -2.66403 0
M  V30 3997 C 379.478 2.87035 -3.12883 0
M  V30 3998 O 380.502 2.35766 -2.67007 0
M  V30 3999 O 379.361 3.80179 -3.92589 0
M  V30 4000 H 376.455 0.600318 -0.568812 0
M  V30 4001 H 379.001 0.595171 -1.58921 0
M  V30 4002 H 377.773 1.67851 -3.53471 0
M  V30 4003 H 377.396 3.06785 -2.52921 0
M  V30 4004 N 378.394 1.34581 0.820102 0
M  V30 4005 C 379.304 1.28471 1.96297 0
M  V30 4006 C 380.32 0.191902 1.72939 0
M  V30 4007 O 381.496 0.418879 1.96996 0
M  V30 4008 C 378.561 1.04281 3.30645 0
M  V30 4009 C 377.622 2.22745 3.66992 0
M  V30 4010 C 376.855 1.997 4.9493 0
M  V30 4011 O 377.078 0.956656 5.6232 0
M  V30 4012 O 376.012 2.86723 5.2922 0
M  V30 4013 H 379.838 2.24624 2.04396 0
M  V30 4014 H 377.423 1.14816 0.955913 0
M  V30 4015 H 379.305 0.925841 4.11104 0
M  V30 4016 H 377.98 0.111697 3.23507 0
M  V30 4017 H 376.887 2.40003 2.86966 0
M  V30 4018 H 378.22 3.14257 3.78819 0
M  V30 4019 N 379.872 -1.04064 1.18357 0
M  V30 4020 C 380.782 -2.15569 0.925596 0
M  V30 4021 C 381.798 -1.7365 -0.110295 0
M  V30 4022 O 382.974 -2.01273 0.0716218 0
M  V30 4023 C 380.039 -3.43704 0.454836 0
M  V30 4024 C 379.1 -4.00004 1.55869 0
M  V30 4025 C 378.333 -5.22023 1.1103 0
M  V30 4026 O 378.556 -5.70392 -0.0309756 0
M  V30 4027 O 377.49 -5.70856 1.90805 0
M  V30 4028 H 381.316 -2.40187 1.8586 0
M  V30 4029 H 378.901 -1.1402 0.965394 0
M  V30 4030 H 380.783 -4.20923 0.200382 0
M  V30 4031 H 379.458 -3.20559 -0.449876 0
M  V30 4032 H 378.365 -3.24172 1.86716 0
M  V30 4033 H 379.698 -4.2749 2.43953 0
M  V30 4034 N 381.35 -0.985608 -1.22978 0
M  V30 4035 C 382.627 -0.573599 -1.87001 0
M  V30 4036 C 383.007 0.949213 -1.88555 0
M  V30 4037 O 382.355 1.82811 -1.37086 0
M  V30 4038 C 382.565 -1.18564 -3.28243 0
M  V30 4039 C 383.913 -1.28163 -4.04796 0
M  V30 4040 O 384.937 -1.13949 -3.37482 0
M  V30 4041 O 383.796 -1.50832 -5.25273 0
M  V30 4042 H 380.89 -0.193868 -0.803955 0
M  V30 4043 H 383.436 -1.08102 -1.30813 0
M  V30 4044 H 382.208 -2.22758 -3.21706 0
M  V30 4045 H 381.831 -0.663363 -3.92027 0
M  V30 4046 N 382.828 1.3818 -0.7579 0
M  V30 4047 C 384.105 1.94106 -0.241306 0
M  V30 4048 C 384.485 1.69282 1.26122 0
M  V30 4049 O 383.833 1.03378 2.03777 0
M  V30 4050 C 384.043 3.43809 -0.59967 0
M  V30 4051 C 385.391 4.20868 -0.561717 0
M  V30 4052 O 386.415 3.5211 -0.538222 0
M  V30 4053 O 385.274 5.43451 -0.576478 0
M  V30 4054 H 382.368 0.825376 -0.0518042 0
M  V30 4055 H 384.914 1.47548 -0.838315 0
M  V30 4056 H 383.686 3.55403 -1.6372 0
M  V30 4057 H 383.309 3.97592 0.0251197 0
M  V30 4058 N 384.306 0.507319 1.49211 0
M  V30 4059 C 385.531 -0.033725 2.07373 0
M  V30 4060 C 385.956 -1.29485 1.36437 0
M  V30 4061 O 385.314 -1.76294 0.423087 0
M  V30 4062 C 385.362 -0.263945 3.59633 0
M  V30 4063 O 384.466 -1.33737 3.90113 0
M  V30 4064 H 383.807 0.0290331 0.663365 0
M  V30 4065 H 386.337 0.708749 1.91932 0
M  V30 4066 H 386.347 -0.493536 4.05004 0
M  V30 4067 H 385.022 0.657424 4.10671 0
M  V30 4068 H 383.599 -1.09224 3.56545 0
M  V30 4069 N 385.784 -1.5574 0.241426 0
M  V30 4070 C 387.032 -1.98417 -0.384075 0
M  V30 4071 C 387.353 -1.13078 -1.58866 0
M  V30 4072 O 386.623 -0.212312 -1.94746 0
M  V30 4073 H 385.203 -0.732813 -0.144894 0
M  V30 4074 H 387.865 -1.9193 0.338943 0
M  V30 4075 H 386.961 -3.04219 -0.696939 0
M  V30 4076 N 387.262 0.0317525 -1.57568 0
M  V30 4077 C 388.209 1.0332 -2.06382 0
M  V30 4078 C 389.179 1.36082 -0.952414 0
M  V30 4079 O 390.364 1.46466 -1.2228 0
M  V30 4080 C 387.504 2.32989 -2.54578 0
M  V30 4081 C 386.617 2.0641 -3.79498 0
M  V30 4082 C 385.752 3.2993 -4.16317 0
M  V30 4083 C 384.791 2.98893 -5.34162 0
M  V30 4084 N 383.928 4.14857 -5.66426 0
M  V30 4085 H 388.768 0.609982 -2.9169 0
M  V30 4086 H 386.305 0.289573 -1.44222 0
M  V30 4087 H 388.263 3.0875 -2.80587 0
M  V30 4088 H 386.893 2.73039 -1.7219 0
M  V30 4089 H 385.945 1.21158 -3.6059 0
M  V30 4090 H 387.257 1.79513 -4.65378 0
M  V30 4091 H 386.411 4.1406 -4.4344 0
M  V30 4092 H 385.15 3.59938 -3.29083 0
M  V30 4093 H 384.155 2.13164 -5.06795 0
M  V30 4094 H 385.38 2.70165 -6.23047 0
M  V30 4095 H 383.326 4.44821 -4.82151 0
M  V30 4096 H 383.243 3.91374 -6.4681 0
M  V30 4097 H 384.511 4.99868 -5.98124 0
M  V30 4098 N 388.74 1.54641 0.303973 0
M  V30 4099 C 390.017 1.64455 1.05896 0
M  V30 4100 C 390.397 0.490923 2.05312 0
M  V30 4101 O 389.745 -0.512685 2.22674 0
M  V30 4102 C 389.955 3.02331 1.74347 0
M  V30 4103 C 391.303 3.59045 2.26653 0
M  V30 4104 O 392.327 3.04764 1.84384 0
M  V30 4105 O 391.186 4.54081 3.04093 0
M  V30 4106 H 388.28 0.666729 0.489287 0
M  V30 4107 H 390.826 1.66986 0.302298 0
M  V30 4108 H 389.598 3.77734 1.02142 0
M  V30 4109 H 389.221 3.03565 2.56777 0
M  V30 4110 N 390.218 -0.567019 1.47046 0
M  V30 4111 C 391.165 -1.67489 1.58796 0
M  V30 4112 C 392.135 -1.60399 0.43144 0
M  V30 4113 O 393.32 -1.79378 0.650233 0
M  V30 4114 C 390.46 -3.05821 1.59899 0
M  V30 4115 C 389.573 -3.2342 2.86397 0
M  V30 4116 C 388.708 -4.52093 2.789 0
M  V30 4117 C 387.747 -4.6309 4.00267 0
M  V30 4118 N 386.884 -5.83106 3.91064 0
M  V30 4119 H 391.724 -1.56785 2.53422 0
M  V30 4120 H 389.261 -0.763896 1.2571 0
M  V30 4121 H 391.219 -3.8591 1.58522 0
M  V30 4122 H 389.849 -3.15384 0.687929 0
M  V30 4123 H 388.901 -2.3683 2.97684 0
M  V30 4124 H 390.213 -3.27412 3.76301 0
M  V30 4125 H 389.367 -5.4043 2.75718 0
M  V30 4126 H 388.106 -4.50565 1.86662 0
M  V30 4127 H 387.111 -3.73168 4.03765 0
M  V30 4128 H 388.336 -4.66386 4.93621 0
M  V30 4129 H 386.282 -5.82546 3.01623 0
M  V30 4130 H 386.199 -5.88434 4.74638 0
M  V30 4131 H 387.467 -6.73831 3.91882 0
M  V30 4132 N 391.696 -1.35014 -0.812953 0
M  V30 4133 C 392.643 -1.27412 -1.92444 0
M  V30 4134 C 393.613 -0.14733 -1.65445 0
M  V30 4135 O 394.798 -0.329974 -1.87925 0
M  V30 4136 C 391.938 -1.04558 -3.28879 0
M  V30 4137 C 391.051 -2.26101 -3.68106 0
M  V30 4138 C 390.186 -1.96449 -4.9354 0
M  V30 4139 C 389.225 -3.14081 -5.25376 0
M  V30 4140 N 388.362 -2.84246 -6.41988 0
M  V30 4141 H 393.202 -2.22463 -1.98278 0
M  V30 4142 H 390.739 -1.10593 -0.969933 0
M  V30 4143 H 392.697 -0.893413 -4.07522 0
M  V30 4144 H 391.327 -0.131719 -3.22531 0
M  V30 4145 H 390.379 -2.52204 -2.84775 0
M  V30 4146 H 391.691 -3.13959 -3.87597 0
M  V30 4147 H 390.845 -1.78026 -5.79993 0
M  V30 4148 H 389.584 -1.05867 -4.76071 0
M  V30 4149 H 388.589 -3.33089 -4.37415 0
M  V30 4150 H 389.814 -4.05455 -5.44778 0
M  V30 4151 H 387.76 -1.96252 -6.25956 0
M  V30 4152 H 387.677 -3.65637 -6.61699 0
M  V30 4153 H 388.945 -2.6935 -7.31485 0
M  V30 4154 N 393.175 1.03435 -1.18907 0
M  V30 4155 C 394.122 2.11591 -0.921837 0
M  V30 4156 C 395.092 1.65499 0.141226 0
M  V30 4157 O 396.277 1.908 0.000242829 0
M  V30 4158 C 393.417 3.42012 -0.460616 0
M  V30 4159 C 392.53 4.01682 -1.58982 0
M  V30 4160 C 391.665 5.20091 -1.08069 0
M  V30 4161 C 390.704 5.71805 -2.18416 0
M  V30 4162 N 389.841 6.81494 -1.68849 0
M  V30 4163 H 394.681 2.33787 -1.8479 0
M  V30 4164 H 392.218 1.1467 -0.921373 0
M  V30 4165 H 394.176 4.16834 -0.174642 0
M  V30 4166 H 392.806 3.19944 0.428467 0
M  V30 4167 H 391.858 3.24127 -1.99113 0
M  V30 4168 H 393.17 4.36084 -2.4214 0
M  V30 4169 H 392.324 6.02051 -0.749615 0
M  V30 4170 H 391.063 4.87209 -0.218771 0
M  V30 4171 H 390.068 4.88461 -2.5236 0
M  V30 4172 H 391.293 6.06728 -3.05054 0
M  V30 4173 H 389.239 6.50475 -0.849572 0
M  V30 4174 H 389.156 7.14994 -2.45601 0
M  V30 4175 H 390.424 7.67063 -1.38689 0
M  V30 4176 N 394.653 0.992116 1.22453 0
M  V30 4177 C 395.6 0.541731 2.24352 0
M  V30 4178 C 396.57 -0.425519 1.60557 0
M  V30 4179 O 397.755 -0.330453 1.87917 0
M  V30 4180 C 394.895 -0.138248 3.44823 0
M  V30 4181 C 394.008 0.870649 4.23136 0
M  V30 4182 C 393.143 0.164269 5.30946 0
M  V30 4183 C 392.182 1.16159 6.00977 0
M  V30 4184 N 391.319 0.483568 7.00433 0
M  V30 4185 H 396.159 1.41541 2.62241 0
M  V30 4186 H 393.696 0.709013 1.28885 0
M  V30 4187 H 395.654 -0.5494 4.13567 0
M  V30 4188 H 394.284 -0.975721 3.077 0
M  V30 4189 H 393.336 1.40013 3.53696 0
M  V30 4190 H 394.648 1.63014 4.7141 0
M  V30 4191 H 393.802 -0.303653 6.0594 0
M  V30 4192 H 392.541 -0.627733 4.83643 0
M  V30 4193 H 391.546 1.64015 5.24766 0
M  V30 4194 H 392.771 1.95445 6.50368 0
M  V30 4195 H 390.717 -0.289012 6.55363 0
M  V30 4196 H 390.634 1.18152 7.4671 0
M  V30 4197 H 391.902 0.0384219 7.79491 0
M  V30 4198 N 396.131 -1.37776 0.765217 0
M  V30 4199 C 397.359 -2.04124 0.337767 0
M  V30 4200 C 397.774 -1.57715 -1.03785 0
M  V30 4201 O 397.131 -0.755447 -1.6613 0
M  V30 4202 C 397.182 -3.59658 0.364442 0
M  V30 4203 O 396.903 -4.04367 1.68579 0
M  V30 4204 C 398.404 -4.43236 -0.0754221 0
M  V30 4205 H 395.624 -0.655696 0.142491 0
M  V30 4206 H 398.168 -1.76238 1.03732 0
M  V30 4207 H 396.323 -3.86339 -0.286471 0
M  V30 4208 H 396.737 -4.98857 1.61993 0
M  V30 4209 H 398.211 -5.52 -0.00560067 0
M  V30 4210 H 398.688 -4.2455 -1.12491 0
M  V30 4211 H 399.294 -4.21767 0.547055 0
M  V30 4212 N 397.609 -0.515225 -1.4894 0
M  V30 4213 C 398.556 0.255567 -2.29381 0
M  V30 4214 C 399.526 0.947387 -1.36432 0
M  V30 4215 O 400.711 0.951288 -1.65394 0
M  V30 4216 C 397.851 1.30551 -3.19453 0
M  V30 4217 C 396.964 0.624029 -4.27469 0
M  V30 4218 C 396.099 1.65563 -5.0474 0
M  V30 4219 C 395.138 0.956802 -6.04576 0
M  V30 4220 N 394.275 1.93326 -6.74959 0
M  V30 4221 H 399.115 -0.436607 -2.94784 0
M  V30 4222 H 396.652 -0.227154 -1.45336 0
M  V30 4223 H 398.61 1.92639 -3.70062 0
M  V30 4224 H 397.24 1.96626 -2.56004 0
M  V30 4225 H 396.292 -0.110459 -3.8024 0
M  V30 4226 H 397.604 0.0746092 -4.98744 0
M  V30 4227 H 396.758 2.35119 -5.59289 0
M  V30 4228 H 395.497 2.23893 -4.3327 0
M  V30 4229 H 394.502 0.247097 -5.49244 0
M  V30 4230 H 395.727 0.379814 -6.78037 0
M  V30 4231 H 393.673 2.50591 -6.06251 0
M  V30 4232 H 393.59 1.43489 -7.42258 0
M  V30 4233 H 394.858 2.62126 -7.34105 0
M  V30 4234 N 399.087 1.5561 -0.249682 0
M  V30 4235 C 400.034 2.21496 0.648694 0
M  V30 4236 C 401.004 1.17977 1.16921 0
M  V30 4237 O 402.189 1.46434 1.22318 0
M  V30 4238 C 399.329 2.92039 1.83868 0
M  V30 4239 C 398.442 4.10219 1.35442 0
M  V30 4240 C 397.577 4.6847 2.50419 0
M  V30 4241 C 396.616 5.78893 1.98869 0
M  V30 4242 N 395.753 6.31315 3.07223 0
M  V30 4243 H 400.593 2.97892 0.0801582 0
M  V30 4244 H 398.13 1.47074 0.0278031 0
M  V30 4245 H 400.088 3.31138 2.53778 0
M  V30 4246 H 398.718 2.18111 2.37965 0
M  V30 4247 H 397.77 3.76413 0.54928 0
M  V30 4248 H 399.082 4.89927 0.936649 0
M  V30 4249 H 398.236 5.10158 3.28366 0
M  V30 4250 H 396.975 3.87984 2.95499 0
M  V30 4251 H 395.98 5.3668 1.19393 0
M  V30 4252 H 397.205 6.61232 1.54755 0
M  V30 4253 H 395.151 5.53733 3.51732 0
M  V30 4254 H 395.068 7.06224 2.69784 0
M  V30 4255 H 396.336 6.77662 3.8522 0
M  V30 4256 N 400.565 -0.0233959 1.57583 0
M  V30 4257 C 401.814 -0.712133 1.8871 0
M  V30 4258 C 402.127 -1.76217 0.848944 0
M  V30 4259 O 403.333 -2.50389 1.04964 0
M  V30 4260 C 401.789 -1.3177 3.3491 0
M  V30 4261 C 401.397 -0.303715 4.46969 0
M  V30 4262 C 403.141 -1.98598 3.75179 0
M  V30 4263 C 401.048 -0.917945 5.84233 0
M  V30 4264 H 399.978 -0.269735 0.704101 0
M  V30 4265 H 402.629 0.0333114 1.8347 0
M  V30 4266 H 401.011 -2.11304 3.34913 0
M  V30 4267 H 402.185 0.465325 4.58445 0
M  V30 4268 H 400.5 0.2628 4.1557 0
M  V30 4269 H 403.097 -2.45416 4.75053 0
M  V30 4270 H 403.44 -2.80659 3.07468 0
M  V30 4271 H 403.973 -1.25831 3.77374 0
M  V30 4272 H 400.712 -0.136633 6.55358 0
M  V30 4273 H 400.232 -1.65669 5.76467 0
M  V30 4274 H 401.911 -1.4236 6.31144 0
M  V30 4275 N 402.043 -1.548 -0.295768 0
M  V30 4276 C 402.99 -1.86113 -1.36494 0
M  V30 4277 C 403.96 -0.7105 -1.50137 0
M  V30 4278 O 405.145 -0.959626 -1.64912 0
M  V30 4279 C 402.285 -2.11861 -2.72413 0
M  V30 4280 C 401.398 -3.39471 -2.67177 0
M  V30 4281 C 400.533 -3.55035 -3.95125 0
M  V30 4282 C 399.572 -4.76418 -3.84308 0
M  V30 4283 N 398.709 -4.8876 -5.04042 0
M  V30 4284 H 403.549 -2.77314 -1.09091 0
M  V30 4285 H 401.086 -1.37315 -0.52753 0
M  V30 4286 H 403.044 -2.24786 -3.51464 0
M  V30 4287 H 401.674 -1.2392 -2.98066 0
M  V30 4288 H 400.726 -3.35139 -1.79962 0
M  V30 4289 H 402.038 -4.28646 -2.55076 0
M  V30 4290 H 401.192 -3.67653 -4.82614 0
M  V30 4291 H 399.931 -2.64002 -4.10066 0
M  V30 4292 H 398.936 -4.63827 -2.95202 0
M  V30 4293 H 400.161 -5.68863 -3.70906 0
M  V30 4294 H 398.107 -4.00652 -5.19436 0
M  V30 4295 H 398.024 -5.71945 -4.94384 0
M  V30 4296 H 399.292 -5.0574 -5.93167 0
M  V30 4297 N 403.521 0.559213 -1.47345 0
M  V30 4298 C 404.431 1.69388 -1.62311 0
M  V30 4299 C 405.447 1.6648 -0.505993 0
M  V30 4300 O 406.623 1.85964 -0.773262 0
M  V30 4301 C 403.688 3.05894 -1.63185 0
M  V30 4302 C 402.749 3.19885 -2.86307 0
M  V30 4303 C 401.982 4.49879 -2.87131 0
M  V30 4304 O 402.205 5.35217 -1.97229 0
M  V30 4305 O 401.139 4.67618 -3.78968 0
M  V30 4306 H 404.965 1.59706 -2.58317 0
M  V30 4307 H 402.55 0.728989 -1.30407 0
M  V30 4308 H 404.432 3.87133 -1.66451 0
M  V30 4309 H 403.107 3.15964 -0.70345 0
M  V30 4310 H 402.014 2.38052 -2.88587 0
M  V30 4311 H 403.347 3.14718 -3.78435 0
M  V30 4312 N 404.999 1.35443 0.805782 0
M  V30 4313 C 405.946 1.28431 1.91766 0
M  V30 4314 C 406.916 0.156102 1.65365 0
M  V30 4315 O 408.101 0.339936 1.87747 0
M  V30 4316 C 405.241 1.06301 3.2832 0
M  V30 4317 C 404.354 2.2805 3.66902 0
M  V30 4318 C 403.489 1.99064 4.92491 0
M  V30 4319 C 402.528 3.16863 5.23703 0
M  V30 4320 N 401.665 2.87647 6.40471 0
M  V30 4321 H 406.505 2.23511 1.97096 0
M  V30 4322 H 404.042 1.11105 0.964054 0
M  V30 4323 H 406 0.915012 4.07042 0
M  V30 4324 H 404.63 0.148822 3.22457 0
M  V30 4325 H 403.682 2.53711 2.83434 0
M  V30 4326 H 404.994 3.1601 3.85927 0
M  V30 4327 H 404.148 1.81099 5.7904 0
M  V30 4328 H 402.887 1.0839 4.75503 0
M  V30 4329 H 401.892 3.35404 4.35642 0
M  V30 4330 H 403.117 4.08339 5.4262 0
M  V30 4331 H 401.063 1.99568 6.24907 0
M  V30 4332 H 400.98 3.69141 6.59751 0
M  V30 4333 H 402.248 2.73226 7.30047 0
M  V30 4334 N 406.477 -1.02803 1.19454 0
M  V30 4335 C 407.707 -1.79581 1.02149 0
M  V30 4336 C 408.115 -1.84182 -0.432851 0
M  V30 4337 O 407.458 -1.28534 -1.31243 0
M  V30 4338 C 407.52 -3.25993 1.51554 0
M  V30 4339 C 407.184 -3.45025 2.99678 0
M  V30 4340 C 408.181 -3.35175 3.97434 0
M  V30 4341 C 405.866 -3.71212 3.38389 0
M  V30 4342 C 407.86 -3.51238 5.31893 0
M  V30 4343 C 405.547 -3.8692 4.73008 0
M  V30 4344 C 406.545 -3.76936 5.69569 0
M  V30 4345 O 406.233 -3.92179 7.01748 0
M  V30 4346 H 405.965 -0.571962 0.360327 0
M  V30 4347 H 408.519 -1.30367 1.58725 0
M  V30 4348 H 406.749 -3.76235 0.893543 0
M  V30 4349 H 408.438 -3.84368 1.30444 0
M  V30 4350 H 409.204 -3.14895 3.68872 0
M  V30 4351 H 405.083 -3.78075 2.6378 0
M  V30 4352 H 408.627 -3.43362 6.07247 0
M  V30 4353 H 404.524 -4.06699 5.01265 0
M  V30 4354 H 405.292 -4.09265 7.08833 0
M  V30 4355 N 407.956 -0.998596 -1.21925 0
M  V30 4356 C 409.205 -0.673085 -1.90138 0
M  V30 4357 C 409.518 0.79895 -1.78539 0
M  V30 4358 O 410.724 1.23628 -2.4172 0
M  V30 4359 C 409.18 -1.15339 -3.40918 0
M  V30 4360 C 408.788 -2.65106 -3.61141 0
M  V30 4361 C 410.532 -0.902476 -4.14796 0
M  V30 4362 C 408.439 -3.0671 -5.05651 0
M  V30 4363 H 407.369 -0.248057 -0.712028 0
M  V30 4364 H 410.02 -1.20891 -1.38049 0
M  V30 4365 H 408.402 -0.545658 -3.92223 0
M  V30 4366 H 409.576 -3.31274 -3.20304 0
M  V30 4367 H 407.891 -2.88142 -3.00605 0
M  V30 4368 H 410.488 -1.18895 -5.21314 0
M  V30 4369 H 410.831 0.161349 -4.15987 0
M  V30 4370 H 411.364 -1.47269 -3.69536 0
M  V30 4371 H 408.103 -4.12292 -5.09603 0
M  V30 4372 H 407.623 -2.45249 -5.47369 0
M  V30 4373 H 409.302 -2.9833 -5.74115 0
M  V30 4374 N 409.434 1.37368 -0.772513 0
M  V30 4375 C 410.711 1.93839 -0.26188 0
M  V30 4376 C 411.091 1.7061 1.24319 0
M  V30 4377 O 410.439 1.05534 2.02669 0
M  V30 4378 C 410.649 3.43154 -0.636102 0
M  V30 4379 C 411.997 4.20249 -0.606324 0
M  V30 4380 O 413.021 3.5152 -0.575538 0
M  V30 4381 O 411.88 5.42809 -0.634086 0
M  V30 4382 H 408.974 0.82478 -0.0605555 0
M  V30 4383 H 411.52 1.4665 -0.853917 0
M  V30 4384 H 410.292 3.53647 -1.6748 0
M  V30 4385 H 409.915 3.97596 -0.0170516 0
M  V30 4386 N 410.912 0.523116 1.48665 0
M  V30 4387 C 411.844 -0.280421 2.27478 0
M  V30 4388 C 412.857 -0.910694 1.34945 0
M  V30 4389 O 414.046 -0.790295 1.60052 0
M  V30 4390 C 411.146 -1.41171 3.08097 0
M  V30 4391 C 410.319 -0.884642 4.28361 0
M  V30 4392 C 409.378 -1.89622 4.90846 0
M  V30 4393 O 408.404 -1.4559 5.50265 0
M  V30 4394 N 409.606 -3.22801 4.82472 0
M  V30 4395 H 412.371 0.395481 2.97079 0
M  V30 4396 H 409.932 0.357018 1.57915 0
M  V30 4397 H 411.924 -2.08645 3.4677 0
M  V30 4398 H 410.494 -1.99139 2.40961 0
M  V30 4399 H 409.714 -0.0341177 3.94185 0
M  V30 4400 H 411.002 -0.511268 5.06225 0
M  V30 4401 H 410.4 -3.61246 4.35336 0
M  V30 4402 H 408.957 -3.85927 5.25265 0
M  V30 4403 N 412.39 -1.55475 0.257931 0
M  V30 4404 C 413.3 -2.2549 -0.647425 0
M  V30 4405 C 414.316 -1.2748 -1.18427 0
M  V30 4406 O 415.492 -1.6038 -1.2182 0
M  V30 4407 C 412.557 -2.94916 -1.82278 0
M  V30 4408 C 411.618 -4.08363 -1.32432 0
M  V30 4409 C 410.851 -4.74469 -2.44366 0
M  V30 4410 O 411.074 -4.39701 -3.63344 0
M  V30 4411 O 410.008 -5.62763 -2.13497 0
M  V30 4412 H 413.834 -3.03593 -0.0807707 0
M  V30 4413 H 411.419 -1.49377 0.0259962 0
M  V30 4414 H 413.301 -3.38606 -2.50846 0
M  V30 4415 H 411.976 -2.19744 -2.37685 0
M  V30 4416 H 410.883 -3.69166 -0.605605 0
M  V30 4417 H 412.216 -4.85385 -0.816211 0
M  V30 4418 N 413.868 0.0150385 -1.57593 0
M  V30 4419 C 414.778 1.02791 -2.10882 0
M  V30 4420 C 415.794 1.38702 -1.0506 0
M  V30 4421 O 416.97 1.47739 -1.36877 0
M  V30 4422 C 414.035 2.30568 -2.58919 0
M  V30 4423 C 413.096 2.01108 -3.79281 0
M  V30 4424 C 412.329 3.22794 -4.25018 0
M  V30 4425 O 412.552 4.33959 -3.70183 0
M  V30 4426 O 411.486 3.07672 -5.17322 0
M  V30 4427 H 415.312 0.604973 -2.97613 0
M  V30 4428 H 412.897 0.23292 -1.47573 0
M  V30 4429 H 414.779 3.05662 -2.90084 0
M  V30 4430 H 413.454 2.72129 -1.75293 0
M  V30 4431 H 412.361 1.23537 -3.53114 0
M  V30 4432 H 413.694 1.64394 -4.63935 0
M  V30 4433 N 415.346 1.54954 0.287554 0
M  V30 4434 C 416.276 1.89839 1.35954 0
M  V30 4435 C 417.257 0.758675 1.52244 0
M  V30 4436 O 418.442 1.01557 1.65529 0
M  V30 4437 C 415.572 2.15753 2.72154 0
M  V30 4438 C 414.526 3.3159 2.70614 0
M  V30 4439 C 413.852 3.42952 4.10229 0
M  V30 4440 C 415.152 4.68359 2.31165 0
M  V30 4441 H 416.846 2.79625 1.07007 0
M  V30 4442 H 414.392 1.3454 0.513316 0
M  V30 4443 H 416.345 2.38743 3.47246 0
M  V30 4444 H 415.069 1.22752 3.02654 0
M  V30 4445 H 413.728 3.08545 1.97979 0
M  V30 4446 H 413.376 2.47443 4.37928 0
M  V30 4447 H 413.076 4.20826 4.10097 0
M  V30 4448 H 414.6 3.68218 4.87081 0
M  V30 4449 H 416.014 4.9099 2.95976 0
M  V30 4450 H 414.411 5.49044 2.42221 0
M  V30 4451 H 415.481 4.68165 1.26291 0
M  V30 4452 N 416.824 -0.551391 1.4764 0
M  V30 4453 C 417.772 -1.67896 1.60978 0
M  V30 4454 C 418.766 -1.62549 0.476877 0
M  V30 4455 O 419.972 -1.67664 0.654878 0
M  V30 4456 H 416.347 -0.555649 0.506713 0
M  V30 4457 H 418.318 -1.53784 2.55721 0
M  V30 4458 C 417.067 -3.06234 1.64669 0
M  V30 4459 H 416.39 -3.11033 2.51194 0
M  V30 4460 H 417.83 -3.84804 1.7805 0
M  V30 4461 C 416.289 -3.34737 0.381115 0
M  V30 4462 O 416.819 -3.98381 -0.515297 0
M  V30 4463 N 415.025 -2.8944 0.259354 0
M  V30 4464 H 414.572 -2.37827 0.98976 0
M  V30 4465 H 414.53 -3.08882 -0.586464 0
M  V30 4466 N 418.302 -1.35869 -0.798587 0
M  V30 4467 C 419.249 -1.29446 -1.91082 0
M  V30 4468 C 420.219 -0.16487 -1.6528 0
M  V30 4469 O 421.404 -0.349888 -1.87564 0
M  V30 4470 C 418.544 -1.0804 -3.27752 0
M  V30 4471 C 417.657 -2.29993 -3.65687 0
M  V30 4472 C 416.792 -2.01673 -4.91428 0
M  V30 4473 C 415.831 -3.19636 -5.22015 0
M  V30 4474 N 414.968 -2.91039 -6.38937 0
M  V30 4475 H 419.808 -2.24553 -1.95907 0
M  V30 4476 H 417.345 -1.11615 -0.958148 0
M  V30 4477 H 419.303 -0.936586 -4.06551 0
M  V30 4478 H 417.933 -0.16592 -3.22373 0
M  V30 4479 H 416.985 -2.55211 -2.82085 0
M  V30 4480 H 418.297 -3.18052 -3.84245 0
M  V30 4481 H 417.451 -1.84168 -5.78072 0
M  V30 4482 H 416.19 -1.10911 -4.74921 0
M  V30 4483 H 415.195 -3.37709 -4.33858 0
M  V30 4484 H 416.42 -4.11211 -5.40447 0
M  V30 4485 H 414.366 -2.0288 -6.2384 0
M  V30 4486 H 414.283 -3.72635 -6.57784 0
M  V30 4487 H 415.551 -2.77093 -7.28587 0
M  V30 4488 N 419.78 1.02168 -1.19998 0
M  V30 4489 C 421.008 1.79296 -1.03249 0
M  V30 4490 C 421.423 1.84103 0.418502 0
M  V30 4491 O 420.78 1.29031 1.29063 0
M  V30 4492 C 420.831 3.24007 -1.60319 0
M  V30 4493 O 420.552 3.19512 -2.99739 0
M  V30 4494 C 422.053 4.17704 -1.48453 0
M  V30 4495 H 419.273 0.564016 -0.363493 0
M  V30 4496 H 421.817 1.28639 -1.58973 0
M  V30 4497 H 419.972 3.7183 -1.08727 0
M  V30 4498 H 420.386 4.10306 -3.26725 0
M  V30 4499 H 421.86 5.17104 -1.93153 0
M  V30 4500 H 422.337 4.37029 -0.436193 0
M  V30 4501 H 422.943 3.7576 -1.99211 0
M  V30 4502 N 421.258 1.00505 1.21394 0
M  V30 4503 C 422.205 0.565496 2.23765 0
M  V30 4504 C 423.175 -0.408466 1.60999 0
M  V30 4505 O 424.36 -0.310503 1.88257 0
M  V30 4506 C 421.5 -0.101667 3.4495 0
M  V30 4507 C 420.613 0.915479 4.22188 0
M  V30 4508 C 419.748 0.220574 5.30742 0
M  V30 4509 C 418.787 1.22527 5.99711 0
M  V30 4510 N 417.924 0.557831 6.9988 0
M  V30 4511 H 422.764 1.44314 2.60725 0
M  V30 4512 H 420.301 0.722643 1.28126 0
M  V30 4513 H 422.259 -0.505504 4.14126 0
M  V30 4514 H 420.889 -0.94303 3.08718 0
M  V30 4515 H 419.941 1.43756 3.52191 0
M  V30 4516 H 421.253 1.68005 4.69655 0
M  V30 4517 H 420.407 -0.239368 6.06228 0
M  V30 4518 H 419.146 -0.576401 4.84282 0
M  V30 4519 H 418.151 1.69571 5.22997 0
M  V30 4520 H 419.376 2.02332 6.48258 0
M  V30 4521 H 417.322 -0.219486 6.55633 0
M  V30 4522 H 417.239 1.26065 7.45415 0
M  V30 4523 H 418.507 0.121095 7.79406 0
M  V30 4524 N 422.737 -1.36956 0.779787 0
M  V30 4525 C 424.148 -1.82094 0.412156 0
M  V30 4526 C 424.499 -1.64926 -1.06273 0
M  V30 4527 O 423.624 -1.16483 -1.82375 0
M  V30 4528 C 424.219 -3.3059 0.741319 0
M  V30 4529 C 422.778 -3.73974 0.426641 0
M  V30 4530 C 421.925 -2.59368 0.980987 0
M  V30 4531 H 424.876 -1.25314 0.973758 0
M  V30 4532 H 424.897 -3.80489 0.028887 0
M  V30 4533 H 424.409 -3.43054 1.81482 0
M  V30 4534 H 422.51 -3.67076 -0.639215 0
M  V30 4535 H 422.623 -4.69778 0.940515 0
M  V30 4536 H 420.987 -2.51463 0.404757 0
M  V30 4537 H 421.77 -2.74621 2.06005 0
M  V30 4538 N 424.215 -0.530993 -1.48385 0
M  V30 4539 C 425.464 0.00474348 -2.01699 0
M  V30 4540 C 425.777 1.35227 -1.41325 0
M  V30 4541 O 426.983 1.97643 -1.86144 0
M  V30 4542 C 425.439 0.0588473 -3.59852 0
M  V30 4543 C 425.047 -1.28385 -4.2921 0
M  V30 4544 C 426.791 0.543358 -4.21008 0
M  V30 4545 C 424.698 -1.19028 -5.79298 0
M  V30 4546 H 423.628 0.00554317 -0.75398 0
M  V30 4547 H 426.279 -0.674924 -1.70637 0
M  V30 4548 H 424.661 0.803612 -3.8776 0
M  V30 4549 H 425.835 -2.04426 -4.12973 0
M  V30 4550 H 424.15 -1.70418 -3.7993 0
M  V30 4551 H 426.747 0.631351 -5.3096 0
M  V30 4552 H 427.09 1.54937 -3.86394 0
M  V30 4553 H 427.623 -0.145754 -3.97533 0
M  V30 4554 H 424.362 -2.17147 -6.18488 0
M  V30 4555 H 423.882 -0.471246 -5.97946 0
M  V30 4556 H 425.561 -0.881365 -6.40969 0
M  V30 4557 N 425.693 1.55336 -0.266172 0
M  V30 4558 C 426.939 2.00423 0.346714 0
M  V30 4559 C 427.294 1.15132 1.54151 0
M  V30 4560 O 426.587 0.211289 1.90431 0
M  V30 4561 C 426.781 3.48606 0.787957 0
M  V30 4562 C 426.61 4.48236 -0.362535 0
M  V30 4563 C 425.38 4.98211 -0.843445 0
M  V30 4564 C 427.578 5.00199 -1.19603 0
M  V30 4565 N 425.56 5.81625 -1.96434 0
M  V30 4566 C 426.931 5.80973 -2.16497 0
M  V30 4567 C 428.986 4.82458 -1.2304 0
M  V30 4568 C 427.689 6.45896 -3.1656 0
M  V30 4569 C 429.715 5.48174 -2.21944 0
M  V30 4570 C 429.077 6.28751 -3.17571 0
M  V30 4571 H 425.176 0.776535 0.0922914 0
M  V30 4572 H 427.76 1.90792 -0.388154 0
M  V30 4573 H 425.931 3.58597 1.49207 0
M  V30 4574 H 427.663 3.80538 1.37742 0
M  V30 4575 H 424.418 4.71696 -0.424271 0
M  V30 4576 H 424.842 6.28025 -2.52813 0
M  V30 4577 H 429.484 4.19774 -0.504903 0
M  V30 4578 H 427.202 7.07734 -3.90048 0
M  V30 4579 H 430.788 5.36392 -2.25333 0
M  V30 4580 H 429.668 6.78703 -3.92851 0
M  V30 4581 N 427.171 -0.0066808 1.57599 0
M  V30 4582 C 428.399 -0.704087 1.94551 0
M  V30 4583 C 428.814 -1.67677 0.867746 0
M  V30 4584 O 428.171 -1.8185 -0.153925 0
M  V30 4585 C 428.222 -1.44177 3.31505 0
M  V30 4586 O 427.943 -0.508097 4.35144 0
M  V30 4587 C 429.444 -2.23429 3.82876 0
M  V30 4588 H 426.664 -0.196523 0.641576 0
M  V30 4589 H 429.208 0.042453 2.04456 0
M  V30 4590 H 427.363 -2.13999 3.22929 0
M  V30 4591 H 427.777 -1.02782 5.14331 0
M  V30 4592 H 429.251 -2.70552 4.8115 0
M  V30 4593 H 429.728 -3.05818 3.15233 0
M  V30 4594 H 430.334 -1.58636 3.94607 0
M  V30 4595 N 428.649 -1.55105 -0.279332 0
M  V30 4596 C 430.065 -1.46803 -0.626187 0
M  V30 4597 C 430.265 -0.676939 -1.89789 0
M  V30 4598 O 429.321 -0.19326 -2.51759 0
M  V30 4599 C 430.634 -2.90962 -0.759034 0
M  V30 4600 C 432.182 -3.01138 -0.853504 0
M  V30 4601 C 432.657 -4.46539 -1.01818 0
M  V30 4602 N 434.148 -4.50341 -1.08386 0
M  V30 4603 C 434.883 -5.60053 -1.22996 0
M  V30 4604 N 434.379 -6.79645 -1.34366 0
M  V30 4605 N 436.172 -5.47783 -1.26056 0
M  V30 4606 H 428.323 -2.04996 0.555921 0
M  V30 4607 H 430.586 -0.929325 0.187239 0
M  V30 4608 H 430.292 -3.51544 0.104852 0
M  V30 4609 H 430.166 -3.39619 -1.64131 0
M  V30 4610 H 432.553 -2.40658 -1.70786 0
M  V30 4611 H 432.634 -2.55745 0.0532466 0
M  V30 4612 H 432.278 -5.0762 -0.168504 0
M  V30 4613 H 432.208 -4.89583 -1.93948 0
M  V30 4614 H 434.699 -3.64191 -1.00864 0
M  V30 4615 H 435.012 -7.59012 -1.4533 0
M  V30 4616 H 433.357 -6.82469 -1.31382 0
M  V30 4617 H 436.548 -4.53294 -1.168 0
M  V30 4618 H 436.721 -6.33331 -1.37098 0
M  V30 4619 N 430.127 0.543554 -1.4793 0
M  V30 4620 C 431.075 1.67039 -1.61866 0
M  V30 4621 C 432.069 1.62294 -0.48549 0
M  V30 4622 O 433.275 1.67315 -0.66376 0
M  V30 4623 H 429.65 0.552954 -0.509652 0
M  V30 4624 H 431.621 1.52426 -2.56533 0
M  V30 4625 C 430.37 3.05357 -1.6629 0
M  V30 4626 H 429.693 3.09696 -2.5284 0
M  V30 4627 H 431.133 3.83855 -1.80088 0
M  V30 4628 C 429.592 3.34531 -0.398861 0
M  V30 4629 O 430.122 3.98649 0.494162 0
M  V30 4630 N 428.328 2.89299 -0.2747 0
M  V30 4631 H 427.875 2.37298 -1.00236 0
M  V30 4632 H 427.833 3.09188 0.570075 0
M  V30 4633 N 431.605 1.3629 0.791371 0
M  V30 4634 C 433.016 1.27225 1.36641 0
M  V30 4635 C 433.367 -0.0887968 1.95999 0
M  V30 4636 O 432.492 -0.990207 1.92416 0
M  V30 4637 C 433.087 2.30375 2.48421 0
M  V30 4638 C 431.646 2.25004 3.01746 0
M  V30 4639 C 430.793 2.15259 1.7481 0
M  V30 4640 H 433.744 1.47198 0.593173 0
M  V30 4641 H 433.765 1.93905 3.27385 0
M  V30 4642 H 433.277 3.29422 2.05189 0
M  V30 4643 H 431.378 1.29417 3.49403 0
M  V30 4644 H 431.491 3.1761 3.58693 0
M  V30 4645 H 429.855 1.61482 1.96966 0
M  V30 4646 H 430.638 3.16191 1.33709 0
M  V30 4647 N 433.083 -1.0153 1.20538 0
M  V30 4648 C 434.36 -1.72327 0.925343 0
M  V30 4649 C 434.74 -2.03383 -0.565547 0
M  V30 4650 O 434.088 -1.69934 -1.52757 0
M  V30 4651 C 434.298 -2.9902 1.79967 0
M  V30 4652 C 435.646 -3.72258 2.04228 0
M  V30 4653 O 436.67 -3.08979 1.77231 0
M  V30 4654 O 435.529 -4.86053 2.4983 0
M  V30 4655 H 432.623 -0.751099 0.346092 0
M  V30 4656 H 435.169 -1.07366 1.31417 0
M  V30 4657 H 433.941 -2.72402 2.80915 0
M  V30 4658 H 433.564 -3.71721 1.41099 0
M  V30 4659 N 434.561 -1.01147 -1.20859 0
M  V30 4660 C 435.838 -0.613136 -1.85742 0
M  V30 4661 C 436.218 0.909004 -1.90526 0
M  V30 4662 O 435.566 1.79862 -1.40932 0
M  V30 4663 C 435.776 -1.255 -3.25654 0
M  V30 4664 C 437.124 -1.3672 -4.01986 0
M  V30 4665 O 438.148 -1.21082 -3.34989 0
M  V30 4666 O 437.007 -1.6194 -5.21956 0
M  V30 4667 H 434.101 -0.210878 -0.799662 0
M  V30 4668 H 436.647 -1.10853 -1.2849 0
M  V30 4669 H 435.419 -2.29532 -3.16908 0
M  V30 4670 H 435.042 -0.746369 -3.90532 0
M  V30 4671 N 436.039 1.36541 -0.78704 0
M  V30 4672 C 437.288 1.98552 -0.35494 0
M  V30 4673 C 437.601 1.63171 1.07864 0
M  V30 4674 O 438.807 2.18399 1.61289 0
M  V30 4675 C 437.263 3.55136 -0.583671 0
M  V30 4676 C 436.871 3.99444 -2.02851 0
M  V30 4677 C 438.615 4.2395 -0.215957 0
M  V30 4678 C 436.522 5.48796 -2.20403 0
M  V30 4679 H 435.452 0.742888 -0.128972 0
M  V30 4680 H 438.103 1.5587 -0.968337 0
M  V30 4681 H 436.485 3.95875 0.0994046 0
M  V30 4682 H 437.659 3.6991 -2.74779 0
M  V30 4683 H 435.974 3.43459 -2.35425 0
M  V30 4684 H 438.571 5.33709 -0.325405 0
M  V30 4685 H 438.914 4.07827 0.835646 0
M  V30 4686 H 439.447 3.88565 -0.852175 0
M  V30 4687 H 436.186 5.69864 -3.23937 0
M  V30 4688 H 435.706 5.79964 -1.52977 0
M  V30 4689 H 437.385 6.14986 -2.01002 0
M  V30 4690 N 437.518 0.538854 1.48102 0
M  V30 4691 C 438.746 0.0123136 2.06896 0
M  V30 4692 C 439.161 -1.27312 1.39417 0
M  V30 4693 O 438.518 -1.75949 0.484582 0
M  V30 4694 C 438.569 -0.206118 3.60912 0
M  V30 4695 O 438.29 1.0284 4.25859 0
M  V30 4696 C 439.791 -0.772033 4.36526 0
M  V30 4697 H 437.011 0.0375239 0.66995 0
M  V30 4698 H 439.555 0.747032 1.90367 0
M  V30 4699 H 437.71 -0.89091 3.77017 0
M  V30 4700 H 438.124 0.814654 5.18135 0
M  V30 4701 H 439.598 -0.874251 5.45033 0
M  V30 4702 H 440.075 -1.77904 4.01555 0
M  V30 4703 H 440.681 -0.123526 4.25121 0
M  V30 4704 N 438.996 -1.55193 0.274407 0
M  V30 4705 C 439.928 -2.1989 -0.646595 0
M  V30 4706 C 440.941 -1.1834 -1.11801 0
M  V30 4707 O 442.13 -1.4507 -1.04004 0
M  V30 4708 C 439.23 -2.8104 -1.89393 0
M  V30 4709 C 438.403 -4.08274 -1.56943 0
M  V30 4710 C 437.462 -4.53478 -2.66916 0
M  V30 4711 O 436.488 -5.19267 -2.33132 0
M  V30 4712 N 437.69 -4.2356 -3.9696 0
M  V30 4713 H 440.455 -2.99556 -0.0928686 0
M  V30 4714 H 438.016 -1.61618 0.0954783 0
M  V30 4715 H 440.008 -3.08226 -2.62257 0
M  V30 4716 H 438.578 -2.05372 -2.35672 0
M  V30 4717 H 437.798 -3.88384 -0.674655 0
M  V30 4718 H 439.086 -4.91173 -1.32764 0
M  V30 4719 H 438.484 -3.70799 -4.27229 0
M  V30 4720 H 437.041 -4.55518 -4.66205 0
M  V30 4721 N 440.474 -0.00167713 -1.576 0
M  V30 4722 C 441.384 1.00548 -2.1196 0
M  V30 4723 C 442.4 1.3758 -1.06526 0
M  V30 4724 O 443.576 1.46278 -1.38436 0
M  V30 4725 C 440.641 2.27809 -2.6135 0
M  V30 4726 C 439.702 1.97074 -3.81393 0
M  V30 4727 C 438.935 3.18267 -4.28417 0
M  V30 4728 O 439.158 4.30009 -3.74765 0
M  V30 4729 O 438.092 3.02167 -5.20556 0
M  V30 4730 H 441.918 0.573373 -2.98238 0
M  V30 4731 H 439.503 0.217255 -1.47812 0
M  V30 4732 H 441.385 3.02568 -2.93309 0
M  V30 4733 H 440.06 2.70254 -1.78169 0
M  V30 4734 H 438.967 1.19785 -3.54404 0
M  V30 4735 H 440.3 1.59464 -4.65652 0
M  V30 4736 N 441.952 1.55251 0.271103 0
M  V30 4737 C 442.862 1.9136 1.35714 0
M  V30 4738 C 443.878 0.811075 1.5394 0
M  V30 4739 O 445.054 1.11031 1.6803 0
M  V30 4740 C 442.119 2.1798 2.69603 0
M  V30 4741 C 441.18 3.4153 2.60107 0
M  V30 4742 C 440.413 3.66871 3.8761 0
M  V30 4743 O 440.636 2.94689 4.8838 0
M  V30 4744 O 439.57 4.60405 3.87699 0
M  V30 4745 H 443.396 2.83815 1.08088 0
M  V30 4746 H 440.981 1.41821 0.469792 0
M  V30 4747 H 442.863 2.36518 3.48765 0
M  V30 4748 H 441.538 1.28708 2.97012 0
M  V30 4749 H 440.445 3.28325 1.79314 0
M  V30 4750 H 441.778 4.31027 2.37647 0
M  V30 4751 N 443.43 -0.535701 1.48216 0
M  V30 4752 C 444.66 -1.3148 1.59363 0
M  V30 4753 C 445.068 -1.8753 0.250844 0
M  V30 4754 O 444.411 -1.66821 -0.769174 0
M  V30 4755 C 444.473 -2.50731 2.57632 0
M  V30 4756 C 444.137 -2.15811 4.02833 0
M  V30 4757 C 445.134 -1.71822 4.90686 0
M  V30 4758 C 442.819 -2.26509 4.48329 0
M  V30 4759 C 444.813 -1.3899 6.22062 0
M  V30 4760 C 442.5 -1.93289 5.79726 0
M  V30 4761 C 443.498 -1.49599 6.66415 0
M  V30 4762 O 443.186 -1.16812 7.95368 0
M  V30 4763 H 442.918 -0.406315 0.540263 0
M  V30 4764 H 445.472 -0.653569 1.94725 0
M  V30 4765 H 443.702 -3.19817 2.1738 0
M  V30 4766 H 445.391 -3.12797 2.58675 0
M  V30 4767 H 446.157 -1.63031 4.56778 0
M  V30 4768 H 442.036 -2.59471 3.81045 0
M  V30 4769 H 445.58 -1.04816 6.89681 0
M  V30 4770 H 441.477 -2.01718 6.13172 0
M  V30 4771 H 442.245 -1.30259 8.08069 0
M  V30 4772 N 444.908 -1.36708 -0.784132 0
M  V30 4773 C 446.156 -1.30972 -1.53918 0
M  V30 4774 C 446.477 0.109086 -1.94695 0
M  V30 4775 O 445.747 1.05048 -1.65353 0
M  V30 4776 H 444.327 -0.481819 -0.570841 0
M  V30 4777 H 446.989 -1.71063 -0.934002 0
M  V30 4778 H 446.085 -1.94061 -2.44431 0
M  V30 4779 N 446.386 1.0089 -1.21074 0
M  V30 4780 C 447.296 2.13039 -0.982425 0
M  V30 4781 C 448.312 1.73881 0.0642161 0
M  V30 4782 O 449.488 2.01012 -0.12496 0
M  V30 4783 C 446.553 3.42377 -0.545803 0
M  V30 4784 C 445.614 3.95731 -1.6642 0
M  V30 4785 C 444.847 5.18896 -1.24832 0
M  V30 4786 O 445.07 5.70273 -0.120265 0
M  V30 4787 O 444.004 5.65597 -2.05873 0
M  V30 4788 H 447.83 2.35175 -1.92163 0
M  V30 4789 H 445.415 1.1142 -0.995285 0
M  V30 4790 H 447.297 4.20244 -0.311912 0
M  V30 4791 H 445.972 3.21639 0.364727 0
M  V30 4792 H 444.879 3.19108 -1.95246 0
M  V30 4793 H 446.212 4.20872 -2.55201 0
M  V30 4794 N 447.864 1.01787 1.20321 0
M  V30 4795 C 449.111 0.707936 1.89722 0
M  V30 4796 C 449.439 -0.762535 1.78929 0
M  V30 4797 O 448.694 -1.56977 1.16861 0
M  V30 4798 C 448.993 1.09076 3.40349 0
M  V30 4799 C 448.659 2.55765 3.71342 0
M  V30 4800 C 447.321 2.95845 3.79511 0
M  V30 4801 C 449.673 3.50723 3.85542 0
M  V30 4802 C 447.001 4.2982 3.99339 0
M  V30 4803 C 449.353 4.84387 4.06881 0
M  V30 4804 C 448.017 5.24172 4.1328 0
M  V30 4805 H 447.287 0.259052 0.694243 0
M  V30 4806 H 449.934 1.27868 1.42555 0
M  V30 4807 H 448.239 0.438453 3.89339 0
M  V30 4808 H 449.936 0.828636 3.92345 0
M  V30 4809 H 446.526 2.2371 3.65584 0
M  V30 4810 H 450.71 3.20916 3.78585 0
M  V30 4811 H 445.966 4.60196 4.02529 0
M  V30 4812 H 450.14 5.57891 4.1681 0
M  V30 4813 H 447.767 6.27997 4.28396 0
M  V30 4814 N 449.342 -1.36122 0.79427 0
M  V30 4815 C 450.572 -2.03067 0.380437 0
M  V30 4816 C 450.98 -1.60018 -1.00949 0
M  V30 4817 O 450.323 -0.787425 -1.65968 0
M  V30 4818 C 450.385 -3.57587 0.37034 0
M  V30 4819 C 450.049 -4.23855 1.70867 0
M  V30 4820 C 451.046 -4.46404 2.66496 0
M  V30 4821 C 448.731 -4.61229 1.9893 0
M  V30 4822 C 450.725 -5.05412 3.88378 0
M  V30 4823 C 448.412 -5.19953 3.21079 0
M  V30 4824 C 449.41 -5.41985 4.15621 0
M  V30 4825 O 449.098 -5.99475 5.35616 0
M  V30 4826 H 448.83 -0.658168 0.154243 0
M  V30 4827 H 451.384 -1.7498 1.0757 0
M  V30 4828 H 449.614 -3.84814 -0.381444 0
M  V30 4829 H 451.303 -4.05895 -0.0194894 0
M  V30 4830 H 452.069 -4.17921 2.46103 0
M  V30 4831 H 447.948 -4.43402 1.26158 0
M  V30 4832 H 451.492 -5.22524 4.62185 0
M  V30 4833 H 447.389 -5.47862 3.41347 0
M  V30 4834 H 448.157 -6.17937 5.36745 0
M  V30 4835 N 450.82 -0.546701 -1.47814 0
M  V30 4836 C 451.767 0.206854 -2.29871 0
M  V30 4837 C 452.737 0.918235 -1.38411 0
M  V30 4838 O 453.922 0.915991 -1.67375 0
M  V30 4839 C 451.062 1.23746 -3.22151 0
M  V30 4840 C 450.175 0.533216 -4.28697 0
M  V30 4841 C 449.31 1.5482 -5.08138 0
M  V30 4842 C 448.349 0.828347 -6.06469 0
M  V30 4843 N 447.486 1.78966 -6.78908 0
M  V30 4844 H 452.326 -0.499037 -2.93792 0
M  V30 4845 H 449.863 -0.25793 -1.44821 0
M  V30 4846 H 451.821 1.84746 -3.74065 0
M  V30 4847 H 450.451 1.91151 -2.60117 0
M  V30 4848 H 449.503 -0.191089 -3.7992 0
M  V30 4849 H 450.815 -0.0311987 -4.9879 0
M  V30 4850 H 449.969 2.23202 -5.6415 0
M  V30 4851 H 448.708 2.14652 -4.37922 0
M  V30 4852 H 447.713 0.130539 -5.49645 0
M  V30 4853 H 448.938 0.235907 -6.7869 0
M  V30 4854 H 446.884 2.37675 -6.1143 0
M  V30 4855 H 446.801 1.27712 -7.45135 0
M  V30 4856 H 448.069 2.46496 -7.395 0
M  V30 4857 N 452.299 1.55045 -0.282633 0
M  V30 4858 C 453.524 2.04628 0.337977 0
M  V30 4859 C 453.949 1.15937 1.48123 0
M  V30 4860 O 453.307 0.159532 1.80597 0
M  V30 4861 C 453.355 3.51854 0.78936 0
M  V30 4862 O 452.459 3.66236 1.89592 0
M  V30 4863 H 451.8 0.660434 0.0687261 0
M  V30 4864 H 454.33 2.00261 -0.419124 0
M  V30 4865 H 454.34 3.93361 1.08311 0
M  V30 4866 H 453.015 4.15873 -0.0470419 0
M  V30 4867 H 451.592 3.36633 1.60413 0
M  V30 4868 N 453.777 0.010035 1.57597 0
M  V30 4869 C 454.707 -0.976857 2.12084 0
M  V30 4870 C 455.688 -1.35191 1.03235 0
M  V30 4871 O 456.873 -1.43389 1.3097 0
M  V30 4872 C 454.003 -2.26548 2.63236 0
M  V30 4873 C 452.957 -2.03175 3.76701 0
M  V30 4874 C 452.283 -3.38138 4.14206 0
M  V30 4875 C 453.583 -1.38625 5.03568 0
M  V30 4876 H 455.277 -0.523145 2.94794 0
M  V30 4877 H 452.823 -0.250195 1.4181 0
M  V30 4878 H 454.776 -2.95952 2.99984 0
M  V30 4879 H 453.5 -2.74051 1.77661 0
M  V30 4880 H 452.159 -1.36195 3.40362 0
M  V30 4881 H 451.807 -3.83363 3.25641 0
M  V30 4882 H 451.507 -3.23312 4.90656 0
M  V30 4883 H 453.031 -4.08841 4.53521 0
M  V30 4884 H 454.445 -1.98 5.38023 0
M  V30 4885 H 452.842 -1.34256 5.84889 0
M  V30 4886 H 453.912 -0.356722 4.83586 0
M  V30 4887 N 455.255 -1.55392 -0.262866 0
M  V30 4888 C 456.483 -1.80513 -1.01108 0
M  V30 4889 C 456.898 -0.583533 -1.79556 0
M  V30 4890 O 456.255 0.447585 -1.76926 0
M  V30 4891 C 456.306 -3.03648 -1.96164 0
M  V30 4892 O 456.027 -4.2109 -1.20893 0
M  V30 4893 C 457.528 -3.41448 -2.82715 0
M  V30 4894 H 454.748 -0.601079 -0.298236 0
M  V30 4895 H 457.292 -2.02425 -0.290582 0
M  V30 4896 H 455.447 -2.83832 -2.63663 0
M  V30 4897 H 455.861 -4.90771 -1.85051 0
M  V30 4898 H 457.335 -4.30751 -3.45192 0
M  V30 4899 H 457.812 -2.61308 -3.53008 0
M  V30 4900 H 458.418 -3.63559 -2.20693 0
M  V30 4901 N 456.733 0.527833 -1.48498 0
M  V30 4902 C 457.681 1.65313 -1.63628 0
M  V30 4903 C 458.675 1.6177 -0.502676 0
M  V30 4904 O 459.881 1.66601 -0.681469 0
M  V30 4905 H 456.256 0.547518 -0.515488 0
M  V30 4906 H 458.227 1.49696 -2.58135 0
M  V30 4907 C 456.976 3.03576 -1.6952 0
M  V30 4908 H 456.299 3.06997 -2.56111 0
M  V30 4909 H 457.739 3.81923 -1.84149 0
M  V30 4910 C 456.198 3.34089 -0.43432 0
M  V30 4911 O 456.728 3.99151 0.451852 0
M  V30 4912 N 454.934 2.88991 -0.305368 0
M  V30 4913 H 454.481 2.36222 -1.02747 0
M  V30 4914 H 454.439 3.09776 0.537249 0
M  V30 4915 N 458.211 1.37122 0.776871 0
M  V30 4916 C 459.488 1.22586 1.52421 0
M  V30 4917 C 459.868 -0.182726 2.10308 0
M  V30 4918 O 459.216 -1.18979 1.9508 0
M  V30 4919 C 459.426 2.31782 2.60918 0
M  V30 4920 C 460.774 2.69071 3.2846 0
M  V30 4921 O 461.798 2.3092 2.71209 0
M  V30 4922 O 460.657 3.3478 4.31954 0
M  V30 4923 H 457.751 0.478045 0.674835 0
M  V30 4924 H 460.297 1.48888 0.814275 0
M  V30 4925 H 459.069 3.26131 2.16227 0
M  V30 4926 H 458.692 2.06916 3.39517 0
M  V30 4927 N 459.689 -1.00246 1.21608 0
M  V30 4928 C 460.935 -1.74417 1.04643 0
M  V30 4929 C 461.29 -1.87862 -0.415387 0
M  V30 4930 O 460.583 -1.40373 -1.30407 0
M  V30 4931 C 460.777 -3.15448 1.68009 0
M  V30 4932 C 460.606 -3.15755 3.20201 0
M  V30 4933 C 459.376 -3.2219 3.89258 0
M  V30 4934 C 461.574 -3.00668 4.17257 0
M  V30 4935 N 459.556 -3.1215 5.28617 0
M  V30 4936 C 460.927 -2.98553 5.43384 0
M  V30 4937 C 462.982 -2.84989 4.08272 0
M  V30 4938 C 461.685 -2.82364 6.61561 0
M  V30 4939 C 463.711 -2.70158 5.26088 0
M  V30 4940 C 463.073 -2.68721 6.51128 0
M  V30 4941 H 459.172 -0.648317 0.437274 0
M  V30 4942 H 461.756 -1.19129 1.54001 0
M  V30 4943 H 459.927 -3.69001 1.21215 0
M  V30 4944 H 461.659 -3.78128 1.44226 0
M  V30 4945 H 458.414 -3.29488 3.40198 0
M  V30 4946 H 458.838 -3.10465 6.01615 0
M  V30 4947 H 463.48 -2.84904 3.12393 0
M  V30 4948 H 461.198 -2.81196 7.57598 0
M  V30 4949 H 464.784 -2.59022 5.20959 0
M  V30 4950 H 463.664 -2.57382 7.40759 0
M  V30 4951 N 461.167 -1.02423 -1.1978 0
M  V30 4952 C 462.077 -0.610919 -2.26506 0
M  V30 4953 C 463.093 0.355152 -1.70337 0
M  V30 4954 O 464.269 0.214195 -2.00258 0
M  V30 4955 C 461.334 0.0365921 -3.46681 0
M  V30 4956 C 460.395 -0.976389 -4.18049 0
M  V30 4957 C 459.628 -0.359683 -5.32487 0
M  V30 4958 O 459.851 0.838601 -5.64202 0
M  V30 4959 O 458.785 -1.08022 -5.92127 0
M  V30 4960 H 462.611 -1.49965 -2.64091 0
M  V30 4961 H 460.196 -0.794156 -1.26545 0
M  V30 4962 H 462.078 0.39786 -4.19518 0
M  V30 4963 H 460.753 0.899398 -3.10954 0
M  V30 4964 H 459.66 -1.38916 -3.47352 0
M  V30 4965 H 460.993 -1.80941 -4.57735 0
M  V30 4966 N 462.645 1.35699 -0.801477 0
M  V30 4967 C 463.922 1.9324 -0.302937 0
M  V30 4968 C 464.302 1.73209 1.20672 0
M  V30 4969 O 463.65 1.09809 2.00385 0
M  V30 4970 C 463.86 3.41728 -0.708747 0
M  V30 4971 C 465.208 4.18868 -0.695328 0
M  V30 4972 O 466.232 3.5022 -0.649971 0
M  V30 4973 O 465.091 5.41342 -0.749081 0
M  V30 4974 H 462.185 0.82331 -0.0780367 0
M  V30 4975 H 464.731 1.44806 -0.884832 0
M  V30 4976 H 463.503 3.50015 -1.74944 0
M  V30 4977 H 463.126 3.97471 -0.101384 0
M  V30 4978 N 464.123 0.554532 1.47522 0
M  V30 4979 C 465.073 -0.215008 2.26984 0
M  V30 4980 C 466.057 -0.88774 1.34194 0
M  V30 4981 O 467.249 -0.786489 1.58567 0
M  V30 4982 C 464.378 -1.24604 3.19889 0
M  V30 4983 C 463.464 -0.576857 4.20159 0
M  V30 4984 N 463.855 0.351541 5.04577 0
M  V30 4985 C 462.153 -0.831104 4.38188 0
M  V30 4986 C 462.854 0.739995 5.76974 0
M  V30 4987 N 461.83 0.0954407 5.43516 0
M  V30 4988 H 465.632 0.498843 2.89636 0
M  V30 4989 H 463.146 0.374279 1.58028 0
M  V30 4990 H 465.143 -1.81128 3.75498 0
M  V30 4991 H 463.803 -1.96101 2.58794 0
M  V30 4992 H 464.814 0.725556 5.12792 0
M  V30 4993 H 461.491 -1.53479 3.88266 0
M  V30 4994 H 462.881 1.50271 6.5488 0
M  V30 4995 N 465.601 -1.54893 0.290851 0
M  V30 4996 C 466.531 -2.26103 -0.583084 0
M  V30 4997 C 467.512 -1.25684 -1.14619 0
M  V30 4998 O 468.697 -1.54436 -1.17741 0
M  V30 4999 C 465.827 -2.99409 -1.75987 0
M  V30 5000 C 464.781 -4.0689 -1.32758 0
M  V30 5001 C 464.107 -4.67856 -2.58872 0
M  V30 5002 C 465.407 -5.20215 -0.46624 0
M  V30 5003 H 467.101 -2.99398 0.0108214 0
M  V30 5004 H 464.647 -1.43998 0.00664468 0
M  V30 5005 H 466.6 -3.47943 -2.37727 0
M  V30 5006 H 465.324 -2.23675 -2.37985 0
M  V30 5007 H 463.983 -3.59191 -0.733299 0
M  V30 5008 H 463.631 -3.88772 -3.19163 0
M  V30 5009 H 463.331 -5.40438 -2.30653 0
M  V30 5010 H 464.855 -5.19147 -3.21433 0
M  V30 5011 H 466.269 -5.64704 -0.989047 0
M  V30 5012 H 464.666 -5.99455 -0.27826 0
M  V30 5013 H 465.736 -4.82198 0.511173 0
M  V30 5014 N 467.08 -0.0183926 -1.57589 0
M  V30 5015 C 468.043 0.951986 -2.08494 0
M  V30 5016 C 469.043 1.26092 -0.997874 0
M  V30 5017 O 470.233 1.20304 -1.25987 0
M  V30 5018 C 467.365 2.27165 -2.54182 0
M  V30 5019 H 468.558 0.511307 -2.95509 0
M  V30 5020 H 466.111 0.229444 -1.54607 0
M  V30 5021 H 466.846 2.75884 -1.70465 0
M  V30 5022 H 466.631 2.06057 -3.33591 0
M  V30 5023 H 468.121 2.9674 -2.93828 0
M  V30 5024 N 468.558 1.5553 0.254621 0
M  V30 5025 C 469.804 1.77262 0.985193 0
M  V30 5026 C 470.137 0.582286 1.85265 0
M  V30 5027 O 469.412 -0.419666 1.89919 0
M  V30 5028 C 469.695 3.0881 1.85225 0
M  V30 5029 C 469.548 4.38233 1.0135 0
M  V30 5030 C 470.867 3.3653 2.83612 0
M  V30 5031 H 467.986 0.644906 0.356742 0
M  V30 5032 H 470.628 1.88264 0.256236 0
M  V30 5033 H 468.778 2.99562 2.47376 0
M  V30 5034 H 470.45 4.59463 0.411269 0
M  V30 5035 H 468.693 4.32636 0.317574 0
M  V30 5036 H 469.364 5.26644 1.65379 0
M  V30 5037 H 471.84 3.45691 2.31596 0
M  V30 5038 H 470.716 4.29805 3.41407 0
M  V30 5039 H 470.977 2.57064 3.59681 0
M  V30 5040 N 470.036 -0.519951 1.48776 0
M  V30 5041 C 470.983 -1.62352 1.64044 0
M  V30 5042 C 471.953 -1.58945 0.482251 0
M  V30 5043 O 473.138 -1.77219 0.706971 0
M  V30 5044 C 470.278 -3.00579 1.69547 0
M  V30 5045 C 469.391 -3.14145 2.96541 0
M  V30 5046 C 468.526 -4.42991 2.93142 0
M  V30 5047 C 467.565 -4.50122 4.14797 0
M  V30 5048 N 466.702 -5.7037 4.09418 0
M  V30 5049 H 471.542 -1.48643 2.58281 0
M  V30 5050 H 469.079 -0.723516 1.28077 0
M  V30 5051 H 471.037 -3.80671 1.70719 0
M  V30 5052 H 469.667 -3.13036 0.787918 0
M  V30 5053 H 468.719 -2.27239 3.05068 0
M  V30 5054 H 470.031 -3.15275 3.86527 0
M  V30 5055 H 469.185 -5.31385 2.92772 0
M  V30 5056 H 467.924 -4.44398 2.00902 0
M  V30 5057 H 466.929 -3.60133 4.15433 0
M  V30 5058 H 468.154 -4.50445 5.08208 0
M  V30 5059 H 466.1 -5.72655 3.20004 0
M  V30 5060 H 466.017 -5.73036 4.93119 0
M  V30 5061 H 467.285 -6.61023 4.13121 0
M  V30 5062 N 471.514 -1.37532 -0.769588 0
M  V30 5063 C 472.464 -1.29984 -1.87318 0
M  V30 5064 C 473.448 -0.187242 -1.59807 0
M  V30 5065 O 474.64 -0.421827 -1.719 0
M  V30 5066 C 471.769 -1.11126 -3.24817 0
M  V30 5067 C 470.855 -2.26939 -3.58273 0
M  V30 5068 N 471.246 -3.52336 -3.62895 0
M  V30 5069 C 469.544 -2.19141 -3.8845 0
M  V30 5070 C 470.245 -4.28719 -3.9316 0
M  V30 5071 N 469.221 -3.57884 -4.0917 0
M  V30 5072 H 473.023 -2.24946 -1.89147 0
M  V30 5073 H 470.537 -1.30535 -0.966143 0
M  V30 5074 H 472.534 -1.03803 -4.0377 0
M  V30 5075 H 471.194 -0.17083 -3.2425 0
M  V30 5076 H 472.205 -3.86216 -3.45048 0
M  V30 5077 H 468.882 -1.33167 -3.95693 0
M  V30 5078 H 470.272 -5.37254 -4.03494 0
M  V30 5079 N 472.992 0.995999 -1.22138 0
M  V30 5080 C 474.239 1.7351 -1.04406 0
M  V30 5081 C 474.567 1.89884 0.421244 0
M  V30 5082 O 473.822 1.43683 1.32867 0
M  V30 5083 C 474.121 3.14553 -1.6968 0
M  V30 5084 C 473.787 3.18102 -3.19565 0
M  V30 5085 C 472.449 3.18778 -3.60464 0
M  V30 5086 C 474.801 3.14636 -4.15516 0
M  V30 5087 C 472.129 3.13684 -4.95801 0
M  V30 5088 C 474.481 3.11084 -5.50826 0
M  V30 5089 C 473.145 3.10074 -5.91109 0
M  V30 5090 H 472.415 0.634916 -0.38205 0
M  V30 5091 H 475.062 1.1667 -1.51857 0
M  V30 5092 H 473.367 3.74682 -1.14546 0
M  V30 5093 H 475.064 3.70477 -1.53454 0
M  V30 5094 H 471.654 3.18324 -2.86998 0
M  V30 5095 H 475.838 3.13266 -3.84939 0
M  V30 5096 H 471.094 3.11245 -5.26247 0
M  V30 5097 H 475.268 3.07357 -6.24904 0
M  V30 5098 H 472.895 3.05882 -6.95946 0
M  V30 5099 N 474.47 1.03057 1.19235 0
M  V30 5100 C 475.695 0.74757 1.93458 0
M  V30 5101 C 476.12 -0.687648 1.7508 0
M  V30 5102 O 475.478 -1.47499 1.05422 0
M  V30 5103 C 475.526 1.10604 3.43219 0
M  V30 5104 O 474.63 0.225671 4.11782 0
M  V30 5105 H 473.971 0.276047 0.603899 0
M  V30 5106 H 476.501 1.3777 1.51263 0
M  V30 5107 H 476.511 1.06366 3.93891 0
M  V30 5108 H 475.186 2.15165 3.55917 0
M  V30 5109 H 473.763 0.326795 3.71465 0
M  V30 5110 N 475.948 -1.35272 0.808662 0
M  V30 5111 C 477.194 -1.99003 0.390581 0
M  V30 5112 C 477.527 -1.63999 -1.0401 0
M  V30 5113 O 476.802 -0.904368 -1.72196 0
M  V30 5114 C 477.085 -3.55454 0.576566 0
M  V30 5115 C 476.938 -4.00249 2.05233 0
M  V30 5116 C 478.257 -4.401 0.00354277 0
M  V30 5117 H 475.376 -0.722917 0.143388 0
M  V30 5118 H 478.018 -1.6039 1.01858 0
M  V30 5119 H 476.168 -3.88477 0.0419766 0
M  V30 5120 H 477.84 -3.77626 2.64946 0
M  V30 5121 H 476.083 -3.51082 2.54801 0
M  V30 5122 H 476.754 -5.0911 2.13333 0
M  V30 5123 H 479.23 -4.13548 0.460117 0
M  V30 5124 H 478.106 -5.48656 0.163575 0
M  V30 5125 H 478.367 -4.28444 -1.09032 0
M  V30 5126 N 477.426 -0.562348 -1.47226 0
M  V30 5127 C 478.336 0.185466 -2.33866 0
M  V30 5128 C 479.352 0.906713 -1.48508 0
M  V30 5129 O 480.528 0.874458 -1.81425 0
M  V30 5130 C 477.593 1.19904 -3.25306 0
M  V30 5131 C 476.654 0.484669 -4.26555 0
M  V30 5132 C 475.887 1.44996 -5.13626 0
M  V30 5133 O 476.11 2.68515 -5.03245 0
M  V30 5134 O 475.044 0.971642 -5.94006 0
M  V30 5135 H 478.87 -0.525361 -2.99121 0
M  V30 5136 H 476.455 -0.322916 -1.45868 0
M  V30 5137 H 478.337 1.78399 -3.81774 0
M  V30 5138 H 477.012 1.8917 -2.62672 0
M  V30 5139 H 475.919 -0.141605 -3.73832 0
M  V30 5140 H 477.252 -0.166634 -4.91918 0
M  V30 5141 N 478.904 1.54736 -0.299062 0
M  V30 5142 C 480.152 1.99706 0.31017 0
M  V30 5143 C 480.473 1.18896 1.54559 0
M  V30 5144 O 479.743 0.284445 1.93824 0
M  V30 5145 H 478.323 0.737686 0.117596 0
M  V30 5146 H 480.985 1.9054 -0.409943 0
M  V30 5147 H 480.081 3.06596 0.58355 0
M  V30 5148 N 480.382 0.0267497 1.57577 0
M  V30 5149 C 481.314 -0.984594 2.06974 0
M  V30 5150 C 482.327 -1.29032 0.992705 0
M  V30 5151 O 483.516 -1.25539 1.26895 0
M  V30 5152 C 480.616 -2.31262 2.47732 0
M  V30 5153 C 479.789 -2.1924 3.78487 0
M  V30 5154 C 478.848 -3.34956 4.05821 0
M  V30 5155 O 477.874 -3.11948 4.76106 0
M  V30 5156 N 479.076 -4.58672 3.55809 0
M  V30 5157 H 481.841 -0.563143 2.94362 0
M  V30 5158 H 479.402 -0.160061 1.61107 0
M  V30 5159 H 481.394 -3.07496 2.63112 0
M  V30 5160 H 479.964 -2.65056 1.65723 0
M  V30 5161 H 479.184 -1.27747 3.72927 0
M  V30 5162 H 480.472 -2.08409 4.64158 0
M  V30 5163 H 479.87 -4.8026 2.98942 0
M  V30 5164 H 478.427 -5.32083 3.76472 0
M  V30 5165 N 481.861 -1.55662 -0.24637 0
M  V30 5166 C 482.791 -1.93377 -1.30873 0
M  V30 5167 C 483.772 -0.798773 -1.50179 0
M  V30 5168 O 484.957 -1.0591 -1.62778 0
M  V30 5169 C 482.087 -2.22893 -2.66338 0
M  V30 5170 C 481.041 -3.38649 -2.61727 0
M  V30 5171 C 480.367 -3.53708 -4.00992 0
M  V30 5172 C 481.667 -4.74323 -2.18666 0
M  V30 5173 H 483.361 -2.82363 -0.995552 0
M  V30 5174 H 480.907 -1.35854 -0.477464 0
M  V30 5175 H 482.86 -2.47866 -3.40794 0
M  V30 5176 H 481.584 -1.30733 -2.99293 0
M  V30 5177 H 480.243 -3.13685 -1.89729 0
M  V30 5178 H 479.891 -2.58967 -4.31214 0
M  V30 5179 H 479.591 -4.31551 -3.98795 0
M  V30 5180 H 481.115 -3.81003 -4.77147 0
M  V30 5181 H 482.529 -4.98665 -2.82854 0
M  V30 5182 H 480.926 -5.55273 -2.27579 0
M  V30 5183 H 481.996 -4.71349 -1.13834 0
M  V30 5184 N 483.339 0.512053 -1.4905 0
M  V30 5185 C 484.249 1.64139 -1.67617 0
M  V30 5186 C 485.265 1.64786 -0.558701 0
M  V30 5187 O 486.441 1.8341 -0.832034 0
M  V30 5188 C 483.506 3.00548 -1.72835 0
M  V30 5189 C 482.567 3.10615 -2.96339 0
M  V30 5190 C 481.8 4.40517 -3.01298 0
M  V30 5191 O 482.023 5.28671 -2.14157 0
M  V30 5192 O 480.957 4.55325 -3.93653 0
M  V30 5193 H 484.783 1.51407 -2.63267 0
M  V30 5194 H 482.368 0.687131 -1.32661 0
M  V30 5195 H 484.25 3.81641 -1.78683 0
M  V30 5196 H 482.925 3.13566 -0.803616 0
M  V30 5197 H 481.832 2.2875 -2.96014 0
M  V30 5198 H 483.165 3.0252 -3.88256 0
M  V30 5199 N 484.817 1.37938 0.762283 0
M  V30 5200 C 486.064 1.33668 1.52115 0
M  V30 5201 C 486.392 -0.0759538 1.94352 0
M  V30 5202 O 485.647 -1.05121 1.6507 0
M  V30 5203 C 485.946 2.23042 2.79261 0
M  V30 5204 C 485.612 3.71159 2.56031 0
M  V30 5205 C 484.274 4.11523 2.49404 0
M  V30 5206 C 486.626 4.64955 2.35513 0
M  V30 5207 C 483.954 5.43784 2.20263 0
M  V30 5208 C 486.306 5.97464 2.07894 0
M  V30 5209 C 484.97 6.36922 1.99718 0
M  V30 5210 H 484.24 0.489127 0.556629 0
M  V30 5211 H 486.887 1.70224 0.877262 0
M  V30 5212 H 485.192 1.79512 3.48256 0
M  V30 5213 H 486.889 2.17047 3.37182 0
M  V30 5214 H 483.479 3.39153 2.62056 0
M  V30 5215 H 487.663 4.34623 2.39617 0
M  V30 5216 H 482.919 5.73307 2.12435 0
M  V30 5217 H 487.093 6.6969 1.91019 0
M  V30 5218 H 484.72 7.39331 1.76902 0
M  V30 5219 N 486.295 -0.989507 1.22664 0
M  V30 5220 C 487.711 -1.25395 0.987331 0
M  V30 5221 C 487.911 -1.9899 -0.317056 0
M  V30 5222 O 486.967 -2.30141 -1.03882 0
M  V30 5223 C 488.28 -2.06242 2.18826 0
M  V30 5224 C 489.828 -2.19413 2.23219 0
M  V30 5225 C 490.303 -3.03648 3.42873 0
M  V30 5226 N 491.794 -3.11234 3.43056 0
M  V30 5227 C 492.529 -3.7671 4.32293 0
M  V30 5228 N 492.025 -4.44085 5.31752 0
M  V30 5229 N 493.818 -3.73505 4.2006 0
M  V30 5230 H 485.969 -0.496212 2.06522 0
M  V30 5231 H 488.232 -0.281784 0.905153 0
M  V30 5232 H 487.938 -1.59531 3.13437 0
M  V30 5233 H 487.812 -3.06996 2.19165 0
M  V30 5234 H 490.199 -2.65336 1.29154 0
M  V30 5235 H 490.28 -1.18078 2.26917 0
M  V30 5236 H 489.924 -2.58424 4.37241 0
M  V30 5237 H 489.854 -4.05132 3.36416 0
M  V30 5238 H 492.345 -2.63287 2.71088 0
M  V30 5239 H 492.658 -4.91797 5.96117 0
M  V30 5240 H 491.003 -4.42822 5.35662 0
M  V30 5241 H 494.194 -3.20033 3.41609 0
M  V30 5242 H 494.367 -4.24253 4.8981 0
M  V30 5243 N 487.773 -1.03688 -1.18687 0
M  V30 5244 C 488.736 -0.629115 -2.20397 0
M  V30 5245 C 489.736 0.311495 -1.57754 0
M  V30 5246 O 490.926 0.0974107 -1.73927 0
M  V30 5247 C 488.058 0.0782231 -3.4081 0
M  V30 5248 H 489.251 -1.52915 -2.57987 0
M  V30 5249 H 486.804 -0.828988 -1.32505 0
M  V30 5250 H 487.539 0.992233 -3.08748 0
M  V30 5251 H 487.324 -0.597776 -3.87517 0
M  V30 5252 H 488.814 0.350156 -4.16129 0
M  V30 5253 N 489.251 1.34841 -0.815825 0
M  V30 5254 C 490.181 2.32187 -0.247298 0
M  V30 5255 C 491.162 1.5791 0.632344 0
M  V30 5256 O 492.347 1.8593 0.560698 0
M  V30 5257 C 489.477 3.42122 0.597466 0
M  V30 5258 C 488.431 4.27602 -0.184446 0
M  V30 5259 C 487.757 5.28942 0.782609 0
M  V30 5260 C 489.057 5.03502 -1.38865 0
M  V30 5261 H 490.751 2.79985 -1.06061 0
M  V30 5262 H 488.297 1.34611 -0.511461 0
M  V30 5263 H 490.25 4.09232 1.00533 0
M  V30 5264 H 488.974 2.92956 1.44376 0
M  V30 5265 H 487.633 3.62085 -0.573592 0
M  V30 5266 H 487.281 4.7604 1.62466 0
M  V30 5267 H 486.981 5.87008 0.263695 0
M  V30 5268 H 488.505 5.98922 1.18848 0
M  V30 5269 H 489.919 5.63506 -1.05518 0
M  V30 5270 H 488.316 5.71108 -1.8427 0
M  V30 5271 H 489.386 4.33608 -2.17054 0
M  V30 5272 N 490.729 0.570148 1.46925 0
M  V30 5273 C 491.659 -0.158274 2.32963 0
M  V30 5274 C 492.64 -0.896093 1.44583 0
M  V30 5275 O 493.825 -0.874022 1.7342 0
M  V30 5276 C 490.955 -1.18055 3.26619 0
M  V30 5277 C 489.909 -0.558379 4.24342 0
M  V30 5278 C 489.235 -1.68623 5.07415 0
M  V30 5279 C 490.535 0.496295 5.19937 0
M  V30 5280 H 492.229 0.560046 2.94115 0
M  V30 5281 H 489.775 0.270775 1.41431 0
M  V30 5282 H 491.728 -1.69841 3.85658 0
M  V30 5283 H 490.452 -1.92899 2.63548 0
M  V30 5284 H 489.111 -0.0617157 3.66548 0
M  V30 5285 H 488.759 -2.42402 4.40738 0
M  V30 5286 H 488.459 -1.27564 5.73586 0
M  V30 5287 H 489.983 -2.20709 5.69315 0
M  V30 5288 H 491.397 0.0640052 5.73264 0
M  V30 5289 H 489.794 0.82649 5.94381 0
M  V30 5290 H 490.864 1.38735 4.6463 0
M  V30 5291 N 492.207 -1.54576 0.307264 0
M  V30 5292 C 493.454 -2.00263 -0.300167 0
M  V30 5293 C 493.782 -1.19561 -1.53413 0
M  V30 5294 O 493.037 -0.261487 -1.93945 0
M  V30 5295 C 493.336 -3.50572 -0.695253 0
M  V30 5296 C 493.002 -4.48771 0.437679 0
M  V30 5297 C 491.664 -4.7534 0.748681 0
M  V30 5298 C 494.016 -5.0721 1.19949 0
M  V30 5299 C 491.344 -5.5761 1.8245 0
M  V30 5300 C 493.696 -5.90651 2.26527 0
M  V30 5301 C 492.36 -6.15528 2.58227 0
M  V30 5302 H 491.63 -0.732814 -0.109839 0
M  V30 5303 H 494.277 -1.86664 0.427661 0
M  V30 5304 H 492.582 -3.61814 -1.50326 0
M  V30 5305 H 494.279 -3.83352 -1.17653 0
M  V30 5306 H 490.869 -4.282 0.185187 0
M  V30 5307 H 495.053 -4.86679 0.972474 0
M  V30 5308 H 490.309 -5.75121 2.07476 0
M  V30 5309 H 494.483 -6.34957 2.86011 0
M  V30 5310 H 492.11 -6.79066 3.4172 0
M  V30 5311 N 493.685 -0.035106 -1.57561 0
M  V30 5312 C 494.934 0.641604 -1.91223 0
M  V30 5313 C 495.247 1.72944 -0.913761 0
M  V30 5314 O 496.453 2.46321 -1.14185 0
M  V30 5315 C 494.909 1.19249 -3.3957 0
M  V30 5316 C 494.517 0.137616 -4.47789 0
M  V30 5317 C 496.261 1.84537 -3.82291 0
M  V30 5318 C 494.168 0.700478 -5.87237 0
M  V30 5319 H 493.098 0.243417 -0.713627 0
M  V30 5320 H 495.749 -0.101382 -1.8322 0
M  V30 5321 H 494.131 1.98728 -3.42525 0
M  V30 5322 H 495.305 -0.635153 -4.56402 0
M  V30 5323 H 493.62 -0.416855 -4.14308 0
M  V30 5324 H 496.217 2.27616 -4.83834 0
M  V30 5325 H 496.56 2.69054 -3.17672 0
M  V30 5326 H 497.093 1.11739 -3.81784 0
M  V30 5327 H 493.832 -0.106693 -6.55413 0
M  V30 5328 H 493.352 1.4416 -5.82218 0
M  V30 5329 H 495.031 1.18837 -6.35993 0
M  V30 5330 N 495.163 1.55791 0.238111 0
M  V30 5331 C 496.574 1.68383 0.806472 0
M  V30 5332 C 496.925 0.634157 1.85669 0
M  V30 5333 O 496.05 -0.217913 2.153 0
M  V30 5334 C 496.645 3.05268 1.46959 0
M  V30 5335 C 495.204 3.1977 1.98555 0
M  V30 5336 C 494.351 2.64279 0.839763 0
M  V30 5337 H 497.302 1.58694 0.0137535 0
M  V30 5338 H 497.323 3.00203 2.33792 0
M  V30 5339 H 496.835 3.81643 0.704993 0
M  V30 5340 H 494.936 2.48234 2.77868 0
M  V30 5341 H 495.049 4.26788 2.17689 0
M  V30 5342 H 493.413 2.22329 1.24265 0
M  V30 5343 H 494.196 3.43187 0.0881032 0
M  V30 5344 N 496.642 -0.504142 1.49319 0
M  V30 5345 C 498.058 -0.835039 1.36012 0
M  V30 5346 C 498.258 -1.97674 0.390808 0
M  V30 5347 O 497.314 -2.51867 -0.178655 0
M  V30 5348 C 498.627 -1.17821 2.76656 0
M  V30 5349 C 500.175 -1.2866 2.85334 0
M  V30 5350 C 500.65 -1.66307 4.26739 0
M  V30 5351 N 502.141 -1.73362 4.29534 0
M  V30 5352 C 502.876 -2.0393 5.35911 0
M  V30 5353 N 502.372 -2.32744 6.52535 0
M  V30 5354 N 504.165 -2.05155 5.23324 0
M  V30 5355 H 496.316 0.248764 2.10938 0
M  V30 5356 H 498.579 0.0486962 0.946748 0
M  V30 5357 H 498.285 -0.412682 3.4927 0
M  V30 5358 H 498.159 -2.12239 3.11825 0
M  V30 5359 H 500.546 -2.04285 2.1296 0
M  V30 5360 H 500.627 -0.323004 2.53752 0
M  V30 5361 H 500.271 -0.91234 4.99639 0
M  V30 5362 H 500.201 -2.63761 4.55782 0
M  V30 5363 H 502.692 -1.53268 3.45424 0
M  V30 5364 H 503.005 -2.55248 7.2943 0
M  V30 5365 H 501.35 -2.30207 6.55767 0
M  V30 5366 H 504.541 -1.82119 4.3122 0
M  V30 5367 H 504.714 -2.28644 6.06322 0
M  V30 5368 N 498.12 -1.38341 -0.754957 0
M  V30 5369 C 499.536 -1.19508 -1.05783 0
M  V30 5370 C 499.736 -0.0428005 -2.01455 0
M  V30 5371 O 498.792 0.611861 -2.44975 0
M  V30 5372 C 500.105 -2.52091 -1.63923 0
M  V30 5373 C 501.653 -2.58762 -1.76101 0
M  V30 5374 C 502.128 -3.91517 -2.37652 0
M  V30 5375 N 503.619 -3.93049 -2.45085 0
M  V30 5376 C 504.354 -4.9253 -2.93602 0
M  V30 5377 N 503.85 -6.02408 -3.42165 0
M  V30 5378 N 505.643 -4.79921 -2.92629 0
M  V30 5379 H 497.794 -2.1206 -0.120056 0
M  V30 5380 H 500.057 -0.94089 -0.11589 0
M  V30 5381 H 499.763 -3.36858 -1.01093 0
M  V30 5382 H 499.637 -2.70388 -2.63003 0
M  V30 5383 H 502.024 -1.74391 -2.38058 0
M  V30 5384 H 502.105 -2.44333 -0.757294 0
M  V30 5385 H 501.749 -4.76309 -1.76329 0
M  V30 5386 H 501.679 -4.03256 -3.38662 0
M  V30 5387 H 504.17 -3.13685 -2.10736 0
M  V30 5388 H 504.483 -6.74248 -3.77637 0
M  V30 5389 H 502.828 -6.0603 -3.40225 0
M  V30 5390 H 506.019 -3.93194 -2.54001 0
M  V30 5391 H 506.192 -5.57601 -3.30128 0
M  V30 5392 N 499.598 0.982988 -1.23187 0
M  V30 5393 C 500.561 2.05649 -1.01198 0
M  V30 5394 C 501.561 1.6078 0.0252464 0
M  V30 5395 O 502.751 1.72878 -0.214243 0
M  V30 5396 C 499.883 3.36744 -0.530656 0
M  V30 5397 H 501.076 2.2659 -1.96461 0
M  V30 5398 H 498.629 1.15602 -1.05195 0
M  V30 5399 H 499.364 3.21492 0.425873 0
M  V30 5400 H 499.149 3.7065 -1.2791 0
M  V30 5401 H 500.639 4.15705 -0.397366 0
M  V30 5402 N 501.076 1.04316 1.18135 0
M  V30 5403 C 502.487 0.775505 1.69832 0
M  V30 5404 C 502.838 -0.703348 1.8316 0
M  V30 5405 O 501.963 -1.54729 1.51287 0
M  V30 5406 C 502.558 1.40112 3.0847 0
M  V30 5407 C 501.117 1.18172 3.57368 0
M  V30 5408 C 500.264 1.49022 2.33854 0
M  V30 5409 H 503.215 1.20925 1.02775 0
M  V30 5410 H 503.236 0.805672 3.71873 0
M  V30 5411 H 502.748 2.47744 2.98738 0
M  V30 5412 H 500.849 0.124258 3.72393 0
M  V30 5413 H 500.962 1.8805 4.40652 0
M  V30 5414 H 499.326 0.909995 2.37889 0
M  V30 5415 H 500.109 2.57768 2.26738 0
M  V30 5416 N 502.554 -1.34406 0.822964 0
M  V30 5417 C 503.801 -1.98284 0.411057 0
M  V30 5418 C 504.129 -1.65245 -1.02588 0
M  V30 5419 O 503.384 -0.91619 -1.72929 0
M  V30 5420 C 503.683 -3.52981 0.560268 0
M  V30 5421 C 503.349 -4.05931 1.96293 0
M  V30 5422 C 502.011 -4.20103 2.34664 0
M  V30 5423 C 504.363 -4.34412 2.87985 0
M  V30 5424 C 501.691 -4.60082 3.64062 0
M  V30 5425 C 504.043 -4.75838 4.16847 0
M  V30 5426 C 502.707 -4.88215 4.55195 0
M  V30 5427 H 501.977 -0.725573 0.150416 0
M  V30 5428 H 504.624 -1.60349 1.04692 0
M  V30 5429 H 502.929 -3.91477 -0.158982 0
M  V30 5430 H 504.626 -4.00385 0.222087 0
M  V30 5431 H 501.216 -3.95363 1.65487 0
M  V30 5432 H 505.4 -4.23001 2.59584 0
M  V30 5433 H 500.656 -4.67856 3.93599 0
M  V30 5434 H 504.83 -4.96834 4.87984 0
M  V30 5435 H 502.457 -5.18952 5.55512 0
M  V30 5436 N 504.032 -0.577932 -1.46621 0
M  V30 5437 C 505.309 0.00495287 -1.95599 0
M  V30 5438 C 505.689 1.46428 -1.5206 0
M  V30 5439 O 505.037 2.1517 -0.769046 0
M  V30 5440 C 505.247 -0.162114 -3.48623 0
M  V30 5441 C 506.595 -0.0274623 -4.24591 0
M  V30 5442 O 507.619 -0.0907067 -3.56084 0
M  V30 5443 O 506.478 0.1122 -5.46385 0
M  V30 5444 H 503.572 0.0525057 -0.825332 0
M  V30 5445 H 506.118 -0.645914 -1.56927 0
M  V30 5446 H 504.89 -1.17679 -3.73185 0
M  V30 5447 H 504.513 0.525407 -3.94113 0
M  V30 5448 N 505.51 1.54411 -0.315457 0
M  V30 5449 C 506.44 2.27002 0.547039 0
M  V30 5450 C 507.421 1.27492 1.12605 0
M  V30 5451 O 508.606 1.5629 1.15269 0
M  V30 5452 C 505.736 3.02171 1.71201 0
M  V30 5453 C 504.69 4.0895 1.26268 0
M  V30 5454 C 504.016 4.71915 2.51396 0
M  V30 5455 C 505.316 5.20891 0.383419 0
M  V30 5456 H 507.01 2.99343 -0.0584517 0
M  V30 5457 H 504.556 1.4397 -0.0295527 0
M  V30 5458 H 506.509 3.51681 2.32161 0
M  V30 5459 H 505.233 2.27433 2.34397 0
M  V30 5460 H 503.892 3.60312 0.676062 0
M  V30 5461 H 503.54 3.93801 3.12937 0
M  V30 5462 H 503.24 5.44039 2.22026 0
M  V30 5463 H 504.764 5.24195 3.13133 0
M  V30 5464 H 506.178 5.66206 0.899082 0
M  V30 5465 H 504.575 5.99821 0.182857 0
M  V30 5466 H 505.645 4.81324 -0.587821 0
M  V30 5467 N 506.988 0.0434614 1.5754 0
M  V30 5468 C 508.235 -0.632035 1.92384 0
M  V30 5469 C 508.563 -1.71304 0.921157 0
M  V30 5470 O 507.818 -1.95583 -0.067744 0
M  V30 5471 C 508.117 -1.2738 3.3393 0
M  V30 5472 C 507.783 -0.321757 4.49751 0
M  V30 5473 C 506.445 -0.0597611 4.81163 0
M  V30 5474 C 508.797 0.331158 5.20147 0
M  V30 5475 C 506.125 0.862715 5.80322 0
M  V30 5476 C 508.477 1.24178 6.20292 0
M  V30 5477 C 507.141 1.51252 6.50138 0
M  V30 5478 H 506.411 -0.231278 0.703983 0
M  V30 5479 H 509.058 0.108294 1.91194 0
M  V30 5480 H 507.363 -2.08921 3.3145 0
M  V30 5481 H 509.06 -1.80326 3.58167 0
M  V30 5482 H 505.65 -0.53614 4.25233 0
M  V30 5483 H 509.834 0.141826 4.96097 0
M  V30 5484 H 505.09 1.08003 6.01785 0
M  V30 5485 H 509.264 1.75381 6.73954 0
M  V30 5486 H 506.891 2.22897 7.26788 0
M  V30 5487 N 508.466 -1.55915 -0.229846 0
M  V30 5488 C 509.376 -1.94891 -1.30593 0
M  V30 5489 C 510.392 -0.851604 -1.51736 0
M  V30 5490 O 511.568 -1.15447 -1.65027 0
M  V30 5491 C 508.633 -2.25052 -2.63728 0
M  V30 5492 C 507.694 -3.48306 -2.5096 0
M  V30 5493 C 506.927 -3.77019 -3.77747 0
M  V30 5494 O 507.15 -3.07534 -4.80395 0
M  V30 5495 O 506.084 -4.70523 -3.75356 0
M  V30 5496 H 509.91 -2.86581 -1.00525 0
M  V30 5497 H 507.495 -1.43017 -0.432025 0
M  V30 5498 H 509.377 -2.45682 -3.42372 0
M  V30 5499 H 508.052 -1.36538 -2.93495 0
M  V30 5500 H 506.959 -3.32964 -1.70546 0
M  V30 5501 H 508.292 -4.37177 -2.26136 0
M  V30 5502 N 509.944 0.496216 -1.49584 0
M  V30 5503 C 510.892 1.61805 -1.67098 0
M  V30 5504 C 511.886 1.60667 -0.536877 0
M  V30 5505 O 513.092 1.65118 -0.716654 0
M  V30 5506 H 509.467 0.53646 -0.526986 0
M  V30 5507 H 511.438 1.44187 -2.61252 0
M  V30 5508 C 510.187 2.99912 -1.75921 0
M  V30 5509 H 509.51 3.01496 -2.62565 0
M  V30 5510 H 510.95 3.77931 -1.92209 0
M  V30 5511 C 509.409 3.33092 -0.505088 0
M  V30 5512 O 509.939 4.00019 0.367085 0
M  V30 5513 N 508.145 2.88278 -0.366599 0
M  V30 5514 H 507.692 2.33989 -1.07735 0
M  V30 5515 H 507.65 3.10846 0.47142 0
M  V30 5516 N 511.423 1.38739 0.74761 0
M  V30 5517 C 512.37 1.36449 1.86146 0
M  V30 5518 C 513.34 0.226098 1.64554 0
M  V30 5519 O 514.525 0.41926 1.86137 0
M  V30 5520 C 511.665 1.2013 3.23516 0
M  V30 5521 C 510.778 2.43407 3.56899 0
M  V30 5522 C 509.913 2.19773 4.83605 0
M  V30 5523 C 508.952 3.3879 5.09792 0
M  V30 5524 N 508.089 3.14553 6.27695 0
M  V30 5525 H 512.929 2.3167 1.87438 0
M  V30 5526 H 510.466 1.15094 0.916063 0
M  V30 5527 H 512.424 1.08683 4.02795 0
M  V30 5528 H 511.054 0.285453 3.21535 0
M  V30 5529 H 510.106 2.65504 2.72418 0
M  V30 5530 H 511.418 3.32094 3.72176 0
M  V30 5531 H 510.572 2.05496 5.70838 0
M  V30 5532 H 509.311 1.28461 4.70478 0
M  V30 5533 H 508.316 3.53579 4.21025 0
M  V30 5534 H 509.541 4.30986 5.24812 0
M  V30 5535 H 507.487 2.25893 6.1588 0
M  V30 5536 H 507.404 3.96791 6.435 0
M  V30 5537 H 508.672 3.03943 7.17801 0
M  V30 5538 N 512.901 -0.976442 1.23707 0
M  V30 5539 C 513.848 -2.06952 1.02174 0
M  V30 5540 C 514.818 -1.65984 -0.0621034 0
M  V30 5541 O 516.003 -1.90584 0.0907906 0
M  V30 5542 C 513.143 -3.39425 0.62327 0
M  V30 5543 C 512.256 -3.9364 1.77966 0
M  V30 5544 C 511.391 -5.14343 1.3276 0
M  V30 5545 C 510.43 -5.60733 2.45449 0
M  V30 5546 N 509.567 -6.72662 2.01172 0
M  V30 5547 H 514.407 -2.24704 1.95734 0
M  V30 5548 H 511.944 -1.10143 0.975034 0
M  V30 5549 H 513.902 -4.15526 0.37332 0
M  V30 5550 H 512.532 -3.21624 -0.275329 0
M  V30 5551 H 511.584 -3.14258 2.14351 0
M  V30 5552 H 512.896 -4.24035 2.62671 0
M  V30 5553 H 512.05 -5.97789 1.03601 0
M  V30 5554 H 510.789 -4.8561 0.450975 0
M  V30 5555 H 509.794 -4.75865 2.75378 0
M  V30 5556 H 511.019 -5.91483 3.33654 0
M  V30 5557 H 508.965 -6.45681 1.15895 0
M  V30 5558 H 508.882 -7.02462 2.79434 0
M  V30 5559 H 510.15 -7.59572 1.75129 0
M  V30 5560 N 514.379 -1.04941 -1.1758 0
M  V30 5561 C 515.326 -0.648155 -2.21512 0
M  V30 5562 C 516.296 0.348431 -1.62404 0
M  V30 5563 O 517.481 0.240419 -1.89279 0
M  V30 5564 C 514.621 -0.0264291 -3.4509 0
M  V30 5565 C 513.734 -1.07154 -4.185 0
M  V30 5566 C 512.869 -0.417403 -5.29558 0
M  V30 5567 C 511.908 -1.447 -5.94751 0
M  V30 5568 N 511.045 -0.817203 -6.97328 0
M  V30 5569 H 515.885 -1.53891 -2.55189 0
M  V30 5570 H 513.422 -0.769699 -1.25356 0
M  V30 5571 H 515.38 0.351456 -4.15717 0
M  V30 5572 H 514.01 0.827802 -3.12005 0
M  V30 5573 H 513.062 -1.56728 -3.46613 0
M  V30 5574 H 514.374 -1.8532 -4.63096 0
M  V30 5575 H 513.528 0.0142061 -6.06698 0
M  V30 5576 H 512.267 0.396265 -4.86087 0
M  V30 5577 H 511.272 -1.88865 -5.16343 0
M  V30 5578 H 512.497 -2.26252 -6.40302 0
M  V30 5579 H 510.443 -0.0239995 -6.55996 0
M  V30 5580 H 510.36 -1.53644 -7.40223 0
M  V30 5581 H 511.628 -0.410283 -7.7842 0
M  V30 5582 N 515.857 1.33968 -0.830081 0
M  V30 5583 C 516.804 2.29387 -0.255008 0
M  V30 5584 C 517.774 1.53923 0.624243 0
M  V30 5585 O 518.959 1.82262 0.564372 0
M  V30 5586 C 516.099 3.4034 0.571209 0
M  V30 5587 C 515.212 4.30729 -0.331083 0
M  V30 5588 C 514.347 5.2879 0.505389 0
M  V30 5589 C 513.386 6.10819 -0.395843 0
M  V30 5590 N 512.523 7.00948 0.401979 0
M  V30 5591 H 517.363 2.77972 -1.07404 0
M  V30 5592 H 514.9 1.36785 -0.541133 0
M  V30 5593 H 516.858 4.03361 1.06562 0
M  V30 5594 H 515.488 2.9297 1.35529 0
M  V30 5595 H 514.54 3.68507 -0.943759 0
M  V30 5596 H 515.852 4.88181 -1.02377 0
M  V30 5597 H 515.006 5.97297 1.06399 0
M  V30 5598 H 513.745 4.71894 1.23155 0
M  V30 5599 H 512.75 5.41238 -0.966529 0
M  V30 5600 H 513.975 6.69797 -1.12023 0
M  V30 5601 H 511.921 6.46512 1.11168 0
M  V30 5602 H 511.838 7.55643 -0.232167 0
M  V30 5603 H 513.106 7.73774 0.943102 0
M  V30 5604 N 517.335 0.585699 1.46312 0
M  V30 5605 C 518.283 -0.158577 2.32059 0
M  V30 5606 C 519.277 -0.881427 1.44662 0
M  V30 5607 O 520.483 -0.799476 1.61271 0
M  V30 5608 H 516.858 -0.0700066 0.748734 0
M  V30 5609 H 518.829 0.583383 2.92642 0
M  V30 5610 C 517.578 -1.15701 3.27885 0
M  V30 5611 H 516.901 -0.610215 3.95116 0
M  V30 5612 H 518.341 -1.64812 3.90657 0
M  V30 5613 C 516.8 -2.21951 2.53455 0
M  V30 5614 O 517.33 -3.29352 2.29978 0
M  V30 5615 N 515.536 -1.9664 2.13965 0
M  V30 5616 H 515.083 -1.09309 2.33258 0
M  V30 5617 H 515.041 -2.6794 1.64485 0
M  V30 5618 N 518.813 -1.54241 0.323641 0
M  V30 5619 C 519.761 -2.25813 -0.557804 0
M  V30 5620 C 520.755 -1.27225 -1.11849 0
M  V30 5621 O 521.961 -1.45001 -1.06652 0
M  V30 5622 H 518.336 -0.72532 -0.198532 0
M  V30 5623 H 520.307 -2.98322 0.0681112 0
M  V30 5624 C 519.056 -3.02913 -1.70701 0
M  V30 5625 H 518.379 -3.78593 -1.28482 0
M  V30 5626 H 519.819 -3.56238 -2.29935 0
M  V30 5627 C 518.278 -2.11217 -2.62467 0
M  V30 5628 O 518.808 -1.69508 -3.64184 0
M  V30 5629 N 517.014 -1.76704 -2.30703 0
M  V30 5630 H 516.561 -2.1082 -1.48029 0
M  V30 5631 H 516.519 -1.15631 -2.92364 0
M  V30 5632 N 520.291 -0.0518155 -1.57515 0
M  V30 5633 C 521.54 0.621286 -1.91893 0
M  V30 5634 C 521.853 1.71966 -0.932052 0
M  V30 5635 O 523.059 2.45096 -1.16791 0
M  V30 5636 C 521.515 1.15641 -3.40816 0
M  V30 5637 C 521.123 0.0901146 -4.47909 0
M  V30 5638 C 522.867 1.80472 -3.84227 0
M  V30 5639 C 520.774 0.638154 -5.87947 0
M  V30 5640 H 519.704 0.235835 -0.716169 0
M  V30 5641 H 522.355 -0.120809 -1.83102 0
M  V30 5642 H 520.737 1.95084 -3.44613 0
M  V30 5643 H 521.911 -0.683525 -4.55702 0
M  V30 5644 H 520.226 -0.460774 -4.13843 0
M  V30 5645 H 522.823 2.22471 -4.86221 0
M  V30 5646 H 523.166 2.65669 -3.20508 0
M  V30 5647 H 523.699 1.07683 -3.82948 0
M  V30 5648 H 520.438 -0.176202 -6.55263 0
M  V30 5649 H 519.958 1.37976 -5.83714 0
M  V30 5650 H 521.637 1.12085 -6.37217 0
M  V30 5651 N 521.769 1.56035 0.221574 0
M  V30 5652 C 522.716 1.92413 1.27459 0
M  V30 5653 C 523.686 0.781323 1.46576 0
M  V30 5654 O 524.871 1.03721 1.60145 0
M  V30 5655 C 522.011 2.24617 2.61995 0
M  V30 5656 C 521.124 3.51831 2.50677 0
M  V30 5657 C 520.259 3.73482 3.77736 0
M  V30 5658 C 519.298 4.94211 3.6114 0
M  V30 5659 N 518.435 5.12252 4.80148 0
M  V30 5660 H 523.275 2.82203 0.957355 0
M  V30 5661 H 520.812 1.39676 0.461415 0
M  V30 5662 H 522.77 2.41298 3.40339 0
M  V30 5663 H 521.4 1.38 2.91815 0
M  V30 5664 H 520.452 3.43343 1.63767 0
M  V30 5665 H 521.764 4.40328 2.34334 0
M  V30 5666 H 520.918 3.9026 4.64523 0
M  V30 5667 H 519.657 2.83266 3.97003 0
M  V30 5668 H 518.662 4.77384 2.72736 0
M  V30 5669 H 519.887 5.85912 3.43343 0
M  V30 5670 H 517.833 4.24978 4.99729 0
M  V30 5671 H 517.75 5.94881 4.66532 0
M  V30 5672 H 519.018 5.33465 5.68362 0
M  V30 5673 N 523.247 -0.488276 1.49845 0
M  V30 5674 C 524.177 -1.59675 1.70371 0
M  V30 5675 C 525.158 -1.60878 0.552473 0
M  V30 5676 O 526.343 -1.77417 0.78973 0
M  V30 5677 C 523.473 -2.98098 1.782 0
M  V30 5678 C 522.427 -3.11761 2.93239 0
M  V30 5679 C 521.753 -4.51661 2.86193 0
M  V30 5680 C 523.053 -2.90589 4.33999 0
M  V30 5681 H 524.747 -1.42752 2.63177 0
M  V30 5682 H 522.293 -0.685317 1.26647 0
M  V30 5683 H 524.246 -3.75555 1.91144 0
M  V30 5684 H 522.97 -3.16138 0.820018 0
M  V30 5685 H 521.629 -2.36732 2.79917 0
M  V30 5686 H 521.277 -4.66595 1.87877 0
M  V30 5687 H 520.977 -4.61742 3.63412 0
M  V30 5688 H 522.501 -5.31162 3.01163 0
M  V30 5689 H 523.915 -3.57807 4.47936 0
M  V30 5690 H 522.312 -3.1213 5.12538 0
M  V30 5691 H 523.382 -1.86595 4.4756 0
M  V30 5692 N 524.725 -1.39134 -0.740242 0
M  V30 5693 C 525.955 -1.39132 -1.52728 0
M  V30 5694 C 526.363 0.0173133 -1.89192 0
M  V30 5695 O 525.706 0.997715 -1.54244 0
M  V30 5696 C 525.768 -2.1952 -2.84695 0
M  V30 5697 C 525.432 -3.68203 -2.70695 0
M  V30 5698 C 526.429 -4.61401 -2.39593 0
M  V30 5699 C 524.114 -4.11724 -2.8773 0
M  V30 5700 C 526.108 -5.96102 -2.25701 0
M  V30 5701 C 523.795 -5.46503 -2.73456 0
M  V30 5702 C 524.793 -6.38506 -2.42486 0
M  V30 5703 O 524.481 -7.70803 -2.28295 0
M  V30 5704 H 524.213 -0.477263 -0.478744 0
M  V30 5705 H 526.767 -1.83504 -0.922799 0
M  V30 5706 H 524.997 -1.69888 -3.47383 0
M  V30 5707 H 526.686 -2.1176 -3.46284 0
M  V30 5708 H 527.452 -4.29079 -2.26088 0
M  V30 5709 H 523.331 -3.4045 -3.10829 0
M  V30 5710 H 526.875 -6.6788 -2.0145 0
M  V30 5711 H 522.772 -5.78417 -2.86538 0
M  V30 5712 H 523.54 -7.8147 -2.43405 0
M  V30 5713 N 526.204 0.969867 -1.24223 0
M  V30 5714 C 527.45 1.7151 -1.08223 0
M  V30 5715 C 527.783 1.90478 0.37838 0
M  V30 5716 O 527.058 1.4647 1.27971 0
M  V30 5717 C 527.341 3.10714 -1.82013 0
M  V30 5718 C 527.194 2.9925 -3.35811 0
M  V30 5719 C 528.513 4.10332 -1.59108 0
M  V30 5720 H 525.632 0.622499 -0.394543 0
M  V30 5721 H 528.274 1.1284 -1.52863 0
M  V30 5722 H 526.424 3.608 -1.44068 0
M  V30 5723 H 528.096 2.56608 -3.83341 0
M  V30 5724 H 526.339 2.35512 -3.64303 0
M  V30 5725 H 527.01 3.97857 -3.82641 0
M  V30 5726 H 529.486 3.69097 -1.92111 0
M  V30 5727 H 528.362 5.05804 -2.13198 0
M  V30 5728 H 528.623 4.38926 -0.528832 0
M  V30 5729 N 527.682 1.05563 1.17022 0
M  V30 5730 C 529.098 0.777684 1.39371 0
M  V30 5731 C 529.298 -0.626269 1.91521 0
M  V30 5732 O 528.354 -1.38806 2.10924 0
M  V30 5733 C 529.667 1.83642 2.3811 0
M  V30 5734 C 531.215 1.85907 2.51809 0
M  V30 5735 C 531.69 2.90813 3.53824 0
M  V30 5736 N 533.181 2.898 3.61345 0
M  V30 5737 C 533.916 3.6762 4.40049 0
M  V30 5738 N 533.412 4.55237 5.22237 0
M  V30 5739 N 535.205 3.56044 4.34959 0
M  V30 5740 H 527.356 1.9614 0.815047 0
M  V30 5741 H 529.619 0.849527 0.420722 0
M  V30 5742 H 529.325 2.84425 2.06871 0
M  V30 5743 H 529.199 1.6812 3.37662 0
M  V30 5744 H 531.586 0.857865 2.82356 0
M  V30 5745 H 531.667 2.05506 1.52318 0
M  V30 5746 H 531.311 3.91122 3.24015 0
M  V30 5747 H 531.241 2.68465 4.53028 0
M  V30 5748 H 533.732 2.26274 3.02669 0
M  V30 5749 H 534.045 5.11291 5.79484 0
M  V30 5750 H 532.39 4.59296 5.21605 0
M  V30 5751 H 535.581 2.86986 3.69806 0
M  V30 5752 H 535.754 4.16938 4.96051 0
M  V30 5753 N 529.16 -1.33526 0.837174 0
M  V30 5754 C 530.576 -1.50727 0.524743 0
M  V30 5755 C 530.776 -1.77792 -0.948279 0
M  V30 5756 O 529.832 -1.83719 -1.73216 0
M  V30 5757 C 531.145 -2.66299 1.39661 0
M  V30 5758 C 532.693 -2.80183 1.39521 0
M  V30 5759 C 533.168 -3.98815 2.25189 0
M  V30 5760 N 534.659 -4.06047 2.2289 0
M  V30 5761 C 535.394 -4.97032 2.85915 0
M  V30 5762 N 534.89 -5.93143 3.57985 0
M  V30 5763 N 536.683 -4.90015 2.75394 0
M  V30 5764 H 528.834 -1.1422 1.79074 0
M  V30 5765 H 531.097 -0.561399 0.763894 0
M  V30 5766 H 530.803 -2.52974 2.4433 0
M  V30 5767 H 530.677 -3.61663 1.07145 0
M  V30 5768 H 533.064 -2.92942 0.356253 0
M  V30 5769 H 533.145 -1.85586 1.76044 0
M  V30 5770 H 532.789 -3.86817 3.29143 0
M  V30 5771 H 532.719 -4.92654 1.86009 0
M  V30 5772 H 535.21 -3.37262 1.70478 0
M  V30 5773 H 535.523 -6.59227 4.03286 0
M  V30 5774 H 533.868 -5.93223 3.62093 0
M  V30 5775 H 537.059 -4.13894 2.18654 0
M  V30 5776 H 537.232 -5.60724 3.24796 0
M  V30 5777 N 530.638 -0.59345 -1.46 0
M  V30 5778 C 531.884 -0.0832754 -2.02629 0
M  V30 5779 C 532.217 1.27749 -1.46266 0
M  V30 5780 O 531.492 1.8395 -0.631866 0
M  V30 5781 C 531.775 -0.0290756 -3.60088 0
M  V30 5782 C 531.628 -1.41951 -4.26814 0
M  V30 5783 C 532.947 0.666055 -4.35031 0
M  V30 5784 H 530.066 -0.031736 -0.736316 0
M  V30 5785 H 532.708 -0.762711 -1.74019 0
M  V30 5786 H 530.858 0.549532 -3.84594 0
M  V30 5787 H 532.53 -2.04411 -4.13538 0
M  V30 5788 H 530.773 -1.98422 -3.8576 0
M  V30 5789 H 531.444 -1.33395 -5.3564 0
M  V30 5790 H 533.92 0.174401 -4.15734 0
M  V30 5791 H 532.796 0.673041 -5.44758 0
M  V30 5792 H 533.057 1.72946 -4.06869 0
M  V30 5793 N 532.116 1.54067 -0.331816 0
M  V30 5794 C 533.363 2.00715 0.268269 0
M  V30 5795 C 533.691 1.21986 1.51491 0
M  V30 5796 O 532.946 0.292309 1.93505 0
M  V30 5797 C 533.245 3.51634 0.639392 0
M  V30 5798 C 532.911 4.48018 -0.509019 0
M  V30 5799 C 531.573 4.74089 -0.824209 0
M  V30 5800 C 533.925 5.05237 -1.28003 0
M  V30 5801 C 531.253 5.54637 -1.91298 0
M  V30 5802 C 533.605 5.86972 -2.35895 0
M  V30 5803 C 532.269 6.11342 -2.67987 0
M  V30 5804 H 531.539 0.734469 0.0981667 0
M  V30 5805 H 534.186 1.8596 -0.457304 0
M  V30 5806 H 532.491 3.6416 1.44551 0
M  V30 5807 H 534.188 3.85175 1.11539 0
M  V30 5808 H 530.778 4.27851 -0.253287 0
M  V30 5809 H 534.962 4.8507 -1.04978 0
M  V30 5810 H 530.218 5.71747 -2.16599 0
M  V30 5811 H 534.392 6.30327 -2.96076 0
M  V30 5812 H 532.019 6.73544 -3.5248 0
M  V30 5813 N 533.594 0.0601682 1.57485 0
M  V30 5814 C 534.843 -0.611101 1.9222 0
M  V30 5815 C 535.156 -1.71469 0.941159 0
M  V30 5816 O 536.362 -2.44473 1.18089 0
M  V30 5817 C 534.818 -1.13832 3.41424 0
M  V30 5818 C 534.426 -0.0663596 4.47951 0
M  V30 5819 C 536.17 -1.78432 3.85178 0
M  V30 5820 C 534.077 -0.606965 5.88277 0
M  V30 5821 H 533.007 -0.232033 0.71741 0
M  V30 5822 H 535.658 0.130518 1.83035 0
M  V30 5823 H 534.04 -1.93254 3.45643 0
M  V30 5824 H 535.214 0.707682 4.55333 0
M  V30 5825 H 533.529 0.482715 4.13593 0
M  V30 5826 H 536.126 -2.1989 4.87394 0
M  V30 5827 H 536.469 -2.63966 3.21913 0
M  V30 5828 H 537.002 -1.05651 3.83514 0
M  V30 5829 H 533.741 0.21095 6.5516 0
M  V30 5830 H 533.261 -1.34879 5.84438 0
M  V30 5831 H 534.94 -1.08704 6.37803 0
M  V30 5832 N 535.072 -1.5615 -0.213296 0
M  V30 5833 C 536.005 -1.88115 -1.29182 0
M  V30 5834 C 536.983 -0.739348 -1.44819 0
M  V30 5835 O 538.167 -0.988541 -1.605 0
M  V30 5836 C 535.294 -2.09541 -2.66102 0
M  V30 5837 C 534.34 -3.32236 -2.67436 0
M  V30 5838 S 535.173 -4.87915 -2.20679 0
M  V30 5839 C 536.329 -5.12387 -3.59458 0
M  V30 5840 H 536.562 -2.793 -1.01876 0
M  V30 5841 H 534.095 -1.48692 -0.415934 0
M  V30 5842 H 536.053 -2.22568 -3.44925 0
M  V30 5843 H 534.714 -1.19138 -2.90628 0
M  V30 5844 H 533.907 -3.44297 -3.6807 0
M  V30 5845 H 533.509 -3.18108 -1.96681 0
M  V30 5846 H 535.801 -5.01791 -4.55205 0
M  V30 5847 H 536.744 -6.14236 -3.52306 0
M  V30 5848 H 537.152 -4.40089 -3.53528 0
M  V30 5849 N 536.55 0.480323 -1.50102 0
M  V30 5850 C 537.827 1.24159 -1.51142 0
M  V30 5851 C 538.207 2.09605 -0.250818 0
M  V30 5852 O 537.555 2.15274 0.766118 0
M  V30 5853 C 537.765 2.08057 -2.80202 0
M  V30 5854 C 539.113 2.66556 -3.30504 0
M  V30 5855 O 540.137 2.18308 -2.81461 0
M  V30 5856 O 538.996 3.54442 -4.15973 0
M  V30 5857 H 536.09 0.562928 -0.605839 0
M  V30 5858 H 538.636 0.492899 -1.62384 0
M  V30 5859 H 537.408 1.45032 -3.6343 0
M  V30 5860 H 537.031 2.90079 -2.71919 0
M  V30 5861 N 538.028 1.39524 0.732853 0
M  V30 5862 C 539.253 1.40329 1.52717 0
M  V30 5863 C 539.678 0.000286574 1.881 0
M  V30 5864 O 539.036 -0.987262 1.52062 0
M  V30 5865 C 539.084 2.28464 2.78992 0
M  V30 5866 O 538.188 1.716 3.75003 0
M  V30 5867 H 537.529 0.47778 0.461109 0
M  V30 5868 H 540.059 1.83546 0.903996 0
M  V30 5869 H 540.069 2.43051 3.27705 0
M  V30 5870 H 538.744 3.30425 2.52572 0
M  V30 5871 H 537.321 1.66267 3.33781 0
M  V30 5872 N 539.506 -0.963266 1.24736 0
M  V30 5873 C 540.746 -1.72172 1.10165 0
M  V30 5874 C 541.11 -1.88731 -0.352784 0
M  V30 5875 O 542.311 -2.61549 -0.620107 0
M  V30 5876 C 540.582 -3.0724 1.82589 0
M  V30 5877 S 542.141 -3.98449 1.83803 0
M  V30 5878 H 538.959 -0.591901 0.393922 0
M  V30 5879 H 541.561 -1.14955 1.58132 0
M  V30 5880 H 540.265 -2.92851 2.87518 0
M  V30 5881 H 539.796 -3.69521 1.34973 0
M  V30 5882 H 541.811 -4.87805 0.908883 0
M  V30 5883 N 540.985 -1.06182 -1.16461 0
M  V30 5884 C 542.262 -0.691364 -1.82974 0
M  V30 5885 C 542.642 0.827377 -1.9421 0
M  V30 5886 O 541.99 1.73723 -1.48434 0
M  V30 5887 C 542.2 -1.39199 -3.20038 0
M  V30 5888 C 543.548 -1.53647 -3.95825 0
M  V30 5889 O 544.572 -1.35181 -3.29552 0
M  V30 5890 O 543.431 -1.83932 -5.14618 0
M  V30 5891 H 540.525 -0.244605 -0.789998 0
M  V30 5892 H 543.071 -1.16203 -1.23673 0
M  V30 5893 H 541.843 -2.42766 -3.06888 0
M  V30 5894 H 541.466 -0.911335 -3.87015 0
M  V30 5895 N 542.463 1.3308 -0.844243 0
M  V30 5896 C 543.373 2.32876 -0.283922 0
M  V30 5897 C 544.389 1.63589 0.592846 0
M  V30 5898 O 545.565 1.95205 0.495693 0
M  V30 5899 C 542.63 3.42667 0.527283 0
M  V30 5900 C 541.691 4.27664 -0.374394 0
M  V30 5901 C 540.924 5.32212 0.39819 0
M  V30 5902 O 541.147 5.46635 1.62932 0
M  V30 5903 O 540.081 6.01458 -0.2306 0
M  V30 5904 H 543.907 2.82671 -1.11045 0
M  V30 5905 H 541.492 1.36518 -0.606903 0
M  V30 5906 H 543.374 4.09652 0.988078 0
M  V30 5907 H 542.049 2.95079 1.33078 0
M  V30 5908 H 540.956 3.63526 -0.883144 0
M  V30 5909 H 542.289 4.78749 -1.1428 0
M  V30 5910 N 543.941 0.601185 1.45683 0
M  V30 5911 C 544.871 -0.108824 2.33246 0
M  V30 5912 C 545.852 -0.865223 1.46451 0
M  V30 5913 O 547.037 -0.83704 1.75235 0
M  V30 5914 C 544.167 -1.11101 3.2905 0
M  V30 5915 C 543.121 -0.468244 4.25431 0
M  V30 5916 C 542.447 -1.57822 5.10878 0
M  V30 5917 C 543.747 0.606469 5.18767 0
M  V30 5918 H 545.441 0.622306 2.92861 0
M  V30 5919 H 542.987 0.300714 1.40825 0
M  V30 5920 H 544.94 -1.61622 3.89174 0
M  V30 5921 H 543.664 -1.87265 2.67581 0
M  V30 5922 H 542.323 0.0160484 3.66596 0
M  V30 5923 H 541.971 -2.32998 4.45781 0
M  V30 5924 H 541.671 -1.15369 5.76163 0
M  V30 5925 H 543.195 -2.08583 5.73869 0
M  V30 5926 H 544.609 0.185589 5.73 0
M  V30 5927 H 543.006 0.952381 5.92494 0
M  V30 5928 H 544.076 1.48559 4.61582 0
M  V30 5929 N 545.419 -1.53889 0.339982 0
M  V30 5930 C 546.668 -2.00035 -0.258604 0
M  V30 5931 C 546.981 -1.23179 -1.51942 0
M  V30 5932 O 548.187 -1.59784 -2.19503 0
M  V30 5933 C 546.643 -3.56249 -0.511359 0
M  V30 5934 C 546.251 -4.41957 0.733349 0
M  V30 5935 C 547.995 -4.1082 -1.069 0
M  V30 5936 C 545.902 -5.89673 0.451591 0
M  V30 5937 H 544.832 -0.747284 -0.10041 0
M  V30 5938 H 547.483 -1.77776 0.454758 0
M  V30 5939 H 545.865 -3.7456 -1.28533 0
M  V30 5940 H 547.039 -4.35421 1.50815 0
M  V30 5941 H 545.354 -3.9836 1.21237 0
M  V30 5942 H 547.951 -5.18789 -1.2947 0
M  V30 5943 H 548.294 -3.63817 -2.02343 0
M  V30 5944 H 548.827 -3.96205 -0.355817 0
M  V30 5945 H 545.566 -6.40903 1.37565 0
M  V30 5946 H 545.086 -5.99122 -0.285193 0
M  V30 5947 H 546.765 -6.46965 0.0675067 0
M  V30 5948 N 546.897 -0.0685191 -1.57451 0
M  V30 5949 C 548.308 0.464634 -1.80826 0
M  V30 5950 C 548.659 1.69847 -0.982169 0
M  V30 5951 O 547.784 2.15439 -0.203734 0
M  V30 5952 C 548.379 0.849721 -3.27971 0
M  V30 5953 C 546.938 1.32776 -3.52204 0
M  V30 5954 C 546.085 0.311332 -2.75547 0
M  V30 5955 H 549.036 -0.294248 -1.55948 0
M  V30 5956 H 549.057 1.71138 -3.39841 0
M  V30 5957 H 548.569 -0.0484736 -3.8807 0
M  V30 5958 H 546.67 2.24456 -2.97406 0
M  V30 5959 H 546.783 1.30794 -4.60901 0
M  V30 5960 H 545.147 0.787915 -2.42206 0
M  V30 5961 H 545.93 -0.579078 -3.38381 0
M  V30 5962 N 548.375 1.56261 0.205012 0
M  V30 5963 C 549.285 1.96944 1.27476 0
M  V30 5964 C 550.301 0.875636 1.50362 0
M  V30 5965 O 551.477 1.18058 1.6317 0
M  V30 5966 C 548.542 2.29219 2.60115 0
M  V30 5967 C 547.603 3.52255 2.45387 0
M  V30 5968 C 546.836 3.8298 3.71701 0
M  V30 5969 O 547.059 3.15138 4.75441 0
M  V30 5970 O 545.993 4.76435 3.67823 0
M  V30 5971 H 549.819 2.88144 0.959527 0
M  V30 5972 H 547.404 1.43686 0.409217 0
M  V30 5973 H 549.286 2.51098 3.3842 0
M  V30 5974 H 547.961 1.4119 2.91285 0
M  V30 5975 H 546.868 3.35635 1.65227 0
M  V30 5976 H 548.201 4.40719 2.19152 0
M  V30 5977 N 549.853 -0.472356 1.50355 0
M  V30 5978 C 551.083 -1.24603 1.64796 0
M  V30 5979 C 551.491 -1.86297 0.330156 0
M  V30 5980 O 550.834 -1.69934 -0.697728 0
M  V30 5981 C 550.896 -2.39578 2.68035 0
M  V30 5982 C 550.56 -1.98531 4.11624 0
M  V30 5983 C 551.557 -1.50856 4.97532 0
M  V30 5984 C 549.242 -2.0729 4.57532 0
M  V30 5985 C 551.236 -1.12481 6.27397 0
M  V30 5986 C 548.923 -1.68527 5.87403 0
M  V30 5987 C 549.921 -1.212 6.7216 0
M  V30 5988 O 549.609 -0.829728 7.99607 0
M  V30 5989 H 549.341 -0.383035 0.55701 0
M  V30 5990 H 551.895 -0.570392 1.97321 0
M  V30 5991 H 550.125 -3.10309 2.30749 0
M  V30 5992 H 551.814 -3.01544 2.71709 0
M  V30 5993 H 552.58 -1.43511 4.63281 0
M  V30 5994 H 548.459 -2.43076 3.91708 0
M  V30 5995 H 552.003 -0.754698 6.93506 0
M  V30 5996 H 547.9 -1.7553 6.21176 0
M  V30 5997 H 548.668 -0.958689 8.12866 0
M  V30 5998 N 551.331 -1.39911 -0.725443 0
M  V30 5999 C 552.261 -1.42138 -1.85254 0
M  V30 6000 C 553.242 -0.283513 -1.67721 0
M  V30 6001 O 554.427 -0.490717 -1.87898 0
M  V30 6002 C 551.557 -1.27354 -3.23107 0
M  V30 6003 C 550.511 -2.3864 -3.55296 0
M  V30 6004 C 549.837 -2.08939 -4.92188 0
M  V30 6005 C 551.137 -3.8097 -3.57295 0
M  V30 6006 H 552.831 -2.36461 -1.83648 0
M  V30 6007 H 550.377 -1.13817 -0.882138 0
M  V30 6008 H 552.33 -1.2753 -4.01639 0
M  V30 6009 H 551.054 -0.295025 -3.25265 0
M  V30 6010 H 549.713 -2.37696 -2.79099 0
M  V30 6011 H 549.361 -1.09502 -4.90936 0
M  V30 6012 H 549.061 -2.83491 -5.14691 0
M  V30 6013 H 550.585 -2.10781 -5.73065 0
M  V30 6014 H 551.999 -3.8379 -4.25885 0
M  V30 6015 H 550.396 -4.5496 -3.9132 0
M  V30 6016 H 551.466 -4.11261 -2.5689 0
M  V30 6017 N 552.809 0.956637 -1.25245 0
M  V30 6018 C 553.757 2.0743 -1.0524 0
M  V30 6019 C 554.751 1.69392 0.0160725 0
M  V30 6020 O 555.957 1.7946 -0.139382 0
M  V30 6021 H 552.332 0.678921 -0.323373 0
M  V30 6022 H 554.303 2.2146 -1.99995 0
M  V30 6023 C 553.052 3.40872 -0.685702 0
M  V30 6024 H 552.375 3.70607 -1.49968 0
M  V30 6025 H 553.815 4.19939 -0.585415 0
M  V30 6026 C 552.274 3.31367 0.608082 0
M  V30 6027 O 552.804 3.66214 1.65076 0
M  V30 6028 N 551.01 2.84486 0.592955 0
M  V30 6029 H 550.557 2.56326 -0.25592 0
M  V30 6030 H 550.515 2.78509 1.45877 0
M  V30 6031 N 554.287 1.06798 1.15896 0
M  V30 6032 C 555.534 0.787767 1.86549 0
M  V30 6033 C 555.862 -0.685959 1.82002 0
M  V30 6034 O 555.117 -1.5188 1.23414 0
M  V30 6035 C 555.416 1.23414 3.35416 0
M  V30 6036 C 555.082 2.71285 3.6016 0
M  V30 6037 C 553.744 3.11676 3.66622 0
M  V30 6038 C 556.096 3.6676 3.7032 0
M  V30 6039 C 553.424 4.4637 3.8075 0
M  V30 6040 C 555.776 5.01209 3.8597 0
M  V30 6041 C 554.44 5.41229 3.90676 0
M  V30 6042 H 553.71 0.288264 0.682631 0
M  V30 6043 H 556.357 1.338 1.37003 0
M  V30 6044 H 554.662 0.60319 3.87129 0
M  V30 6045 H 556.359 0.994298 3.88477 0
M  V30 6046 H 552.949 2.39015 3.55767 0
M  V30 6047 H 557.133 3.36685 3.64633 0
M  V30 6048 H 552.389 4.76855 3.82648 0
M  V30 6049 H 556.563 5.75067 3.92773 0
M  V30 6050 H 554.19 6.45602 4.01375 0
M  V30 6051 N 555.766 -1.3263 0.851289 0
M  V30 6052 C 557.015 -1.96633 0.449267 0
M  V30 6053 C 557.328 -1.68131 -0.999562 0
M  V30 6054 O 558.534 -2.25845 -1.50685 0
M  V30 6055 C 556.99 -3.51946 0.752446 0
M  V30 6056 C 556.598 -3.89311 2.21678 0
M  V30 6057 C 558.342 -4.22437 0.417983 0
M  V30 6058 C 556.249 -5.37655 2.46336 0
M  V30 6059 H 555.179 -0.735888 0.164269 0
M  V30 6060 H 557.83 -1.51073 1.0416 0
M  V30 6061 H 556.212 -3.95899 0.0895858 0
M  V30 6062 H 557.386 -3.56378 2.92115 0
M  V30 6063 H 555.701 -3.31836 2.51543 0
M  V30 6064 H 558.298 -5.31549 0.579674 0
M  V30 6065 H 558.641 -4.11349 -0.640115 0
M  V30 6066 H 559.174 -3.84057 1.03659 0
M  V30 6067 H 555.913 -5.5376 3.50757 0
M  V30 6068 H 555.433 -5.72005 1.80473 0
M  V30 6069 H 557.112 -6.04695 2.30115 0
M  V30 6070 N 557.244 -0.608902 -1.45362 0
M  V30 6071 C 558.66 -0.272659 -1.57254 0
M  V30 6072 C 558.86 1.22477 -1.60005 0
M  V30 6073 O 557.916 2.00785 -1.53106 0
M  V30 6074 C 559.229 -0.944991 -2.85465 0
M  V30 6075 C 560.777 -0.921033 -2.99142 0
M  V30 6076 C 561.252 -1.5734 -4.30126 0
M  V30 6077 N 562.743 -1.53895 -4.36887 0
M  V30 6078 C 563.478 -2.01286 -5.36909 0
M  V30 6079 N 562.974 -2.56768 -6.43461 0
M  V30 6080 N 564.767 -1.92046 -5.28275 0
M  V30 6081 H 556.918 -1.58117 -1.4182 0
M  V30 6082 H 559.181 -0.662437 -0.678146 0
M  V30 6083 H 558.887 -1.99941 -2.89338 0
M  V30 6084 H 558.761 -0.469079 -3.74272 0
M  V30 6085 H 561.148 0.124846 -2.94836 0
M  V30 6086 H 561.229 -1.43522 -2.11743 0
M  V30 6087 H 560.873 -2.61862 -4.35191 0
M  V30 6088 H 560.803 -1.03422 -5.16344 0
M  V30 6089 H 563.294 -1.13366 -3.60495 0
M  V30 6090 H 563.607 -2.9072 -7.16032 0
M  V30 6091 H 561.952 -2.60808 -6.44208 0
M  V30 6092 H 565.143 -1.48439 -4.43941 0
M  V30 6093 H 565.316 -2.29293 -6.06077 0
M  V30 6094 N 558.722 1.53707 -0.348139 0
M  V30 6095 C 559.97 2.00591 0.246478 0
M  V30 6096 C 560.291 1.23753 1.50699 0
M  V30 6097 O 559.561 0.345964 1.92821 0
M  V30 6098 H 558.141 0.741053 0.0940679 0
M  V30 6099 H 560.803 1.89139 -0.470354 0
M  V30 6100 H 559.899 3.08297 0.485714 0
M  V30 6101 N 560.2 0.0768682 1.57412 0
M  V30 6102 C 561.446 -0.591961 1.93968 0
M  V30 6103 C 561.779 -1.68954 0.9575 0
M  V30 6104 O 561.054 -1.94496 -0.0124675 0
M  V30 6105 C 561.337 -1.16418 3.40762 0
M  V30 6106 C 561.19 -0.0728933 4.49741 0
M  V30 6107 C 562.509 -2.06814 3.88479 0
M  V30 6108 H 559.628 -0.213716 0.705333 0
M  V30 6109 H 562.27 0.14387 1.89455 0
M  V30 6110 H 560.42 -1.79128 3.4474 0
M  V30 6111 H 562.092 0.560446 4.57883 0
M  V30 6112 H 560.335 0.595859 4.29688 0
M  V30 6113 H 561.006 -0.513755 5.49604 0
M  V30 6114 H 563.482 -1.54033 3.8654 0
M  V30 6115 H 562.358 -2.43785 4.91793 0
M  V30 6116 H 562.619 -2.97844 3.26713 0
M  V30 6117 N 561.678 -1.56367 -0.196722 0
M  V30 6118 C 562.924 -1.80796 -0.918725 0
M  V30 6119 C 563.257 -0.650645 -1.82976 0
M  V30 6120 O 562.532 0.348889 -1.91345 0
M  V30 6121 C 562.815 -3.15472 -1.73636 0
M  V30 6122 C 562.668 -4.41693 -0.85015 0
M  V30 6123 C 563.987 -3.46824 -2.70927 0
M  V30 6124 H 561.106 -0.657702 -0.332561 0
M  V30 6125 H 563.748 -1.89086 -0.186186 0
M  V30 6126 H 561.898 -3.08536 -2.36088 0
M  V30 6127 H 563.57 -4.60673 -0.240459 0
M  V30 6128 H 561.813 -4.33517 -0.156785 0
M  V30 6129 H 562.484 -5.32419 -1.45719 0
M  V30 6130 H 564.96 -3.54049 -2.18607 0
M  V30 6131 H 563.836 -4.4218 -3.25219 0
M  V30 6132 H 564.097 -2.70236 -3.49893 0
M  V30 6133 N 563.156 0.464375 -1.50603 0
M  V30 6134 C 564.433 1.22549 -1.5245 0
M  V30 6135 C 564.813 2.09327 -0.273035 0
M  V30 6136 O 564.161 2.16074 0.743242 0
M  V30 6137 C 564.371 2.05074 -2.82393 0
M  V30 6138 C 565.719 2.63036 -3.33313 0
M  V30 6139 O 566.743 2.1531 -2.8376 0
M  V30 6140 O 565.602 3.5001 -4.19709 0
M  V30 6141 H 562.696 0.556471 -0.611775 0
M  V30 6142 H 565.242 0.475648 -1.62898 0
M  V30 6143 H 564.014 1.41169 -3.64948 0
M  V30 6144 H 563.637 2.87179 -2.7498 0
M  V30 6145 N 564.634 1.40294 0.718013 0
M  V30 6146 C 565.859 1.41941 1.5122 0
M  V30 6147 C 566.284 0.0202371 1.88089 0
M  V30 6148 O 565.642 -0.971078 1.53101 0
M  V30 6149 C 565.69 2.3141 2.76554 0
M  V30 6150 O 564.794 1.75567 3.73162 0
M  V30 6151 H 564.135 0.482644 0.456016 0
M  V30 6152 H 566.665 1.84494 0.884478 0
M  V30 6153 H 566.675 2.46513 3.25108 0
M  V30 6154 H 565.35 3.33085 2.49053 0
M  V30 6155 H 563.927 1.69798 3.31999 0
M  V30 6156 N 566.112 -0.949982 1.2575 0
M  V30 6157 C 567.022 -2.08109 1.08295 0
M  V30 6158 C 568.038 -1.7399 0.0188181 0
M  V30 6159 O 569.214 -2.00187 0.220724 0
M  V30 6160 C 566.279 -3.39383 0.708534 0
M  V30 6161 C 565.34 -3.8734 1.85111 0
M  V30 6162 C 564.573 -5.12349 1.49447 0
M  V30 6163 O 564.796 -5.6905 0.392212 0
M  V30 6164 O 563.73 -5.5513 2.32624 0
M  V30 6165 H 567.556 -2.25738 2.03165 0
M  V30 6166 H 565.141 -1.06545 1.04731 0
M  V30 6167 H 567.023 -4.18277 0.512061 0
M  V30 6168 H 565.698 -3.23013 -0.210854 0
M  V30 6169 H 564.605 -3.09429 2.10248 0
M  V30 6170 H 565.938 -4.08216 2.74991 0
M  V30 6171 N 567.59 -1.07411 -1.15328 0
M  V30 6172 C 568.867 -0.710732 -1.82231 0
M  V30 6173 C 569.247 0.806732 -1.95077 0
M  V30 6174 O 568.595 1.72139 -1.50268 0
M  V30 6175 C 568.805 -1.42586 -3.18544 0
M  V30 6176 C 570.153 -1.57836 -3.94174 0
M  V30 6177 O 571.177 -1.38669 -3.281 0
M  V30 6178 O 570.036 -1.8938 -5.12638 0
M  V30 6179 H 567.13 -0.25297 -0.78736 0
M  V30 6180 H 569.676 -1.17508 -1.22434 0
M  V30 6181 H 568.448 -2.46008 -3.04296 0
M  V30 6182 H 568.071 -0.952332 -3.86026 0
M  V30 6183 N 569.068 1.32177 -0.85831 0
M  V30 6184 C 569.998 2.31282 -0.321041 0
M  V30 6185 C 570.979 1.59841 0.581786 0
M  V30 6186 O 572.164 1.87619 0.501262 0
M  V30 6187 C 569.294 3.4385 0.48832 0
M  V30 6188 C 568.248 4.26799 -0.320391 0
M  V30 6189 C 567.574 5.31164 0.613934 0
M  V30 6190 C 568.874 4.98829 -1.54813 0
M  V30 6191 H 570.568 2.76469 -1.14915 0
M  V30 6192 H 568.114 1.32916 -0.554028 0
M  V30 6193 H 570.067 4.12224 0.874626 0
M  V30 6194 H 568.791 2.97401 1.34983 0
M  V30 6195 H 567.45 3.60077 -0.688497 0
M  V30 6196 H 567.098 4.80967 1.47239 0
M  V30 6197 H 566.798 5.8755 0.0768097 0
M  V30 6198 H 568.322 6.024 0.997336 0
M  V30 6199 H 569.736 5.59864 -1.23392 0
M  V30 6200 H 568.133 5.64957 -2.02346 0
M  V30 6201 H 569.203 4.26483 -2.30739 0
M  V30 6202 N 570.547 0.616602 1.45037 0
M  V30 6203 C 571.958 0.199359 1.85633 0
M  V30 6204 C 572.309 -1.24588 1.51566 0
M  V30 6205 O 571.434 -1.94594 0.94668 0
M  V30 6206 C 572.029 0.355033 3.36935 0
M  V30 6207 C 570.588 -0.00758748 3.76399 0
M  V30 6208 C 569.735 0.675256 2.68953 0
M  V30 6209 H 572.686 0.822708 1.3571 0
M  V30 6210 H 572.707 -0.410201 3.78282 0
M  V30 6211 H 572.219 1.40699 3.61698 0
M  V30 6212 H 570.32 -1.05837 3.57252 0
M  V30 6213 H 570.433 0.392346 4.77491 0
M  V30 6214 H 568.797 0.111992 2.54454 0
M  V30 6215 H 569.58 1.72952 2.96551 0
M  V30 6216 N 572.025 -1.5352 0.356285 0
M  V30 6217 C 572.955 -2.28372 -0.486661 0
M  V30 6218 C 573.936 -1.30432 -1.09185 0
M  V30 6219 O 575.121 -1.59291 -1.11085 0
M  V30 6220 C 572.251 -3.06604 -1.63129 0
M  V30 6221 C 571.205 -4.12154 -1.15381 0
M  V30 6222 C 570.531 -4.78415 -2.38796 0
M  V30 6223 C 571.831 -5.21724 -0.245179 0
M  V30 6224 H 573.525 -2.99083 0.137797 0
M  V30 6225 H 571.071 -1.43841 0.0677134 0
M  V30 6226 H 573.024 -3.57712 -2.22755 0
M  V30 6227 H 571.748 -2.33568 -2.28284 0
M  V30 6228 H 570.407 -3.61978 -0.580294 0
M  V30 6229 H 570.055 -4.01959 -3.02387 0
M  V30 6230 H 569.755 -5.49734 -2.07524 0
M  V30 6231 H 571.279 -5.32313 -2.99125 0
M  V30 6232 H 572.693 -5.68391 -0.748646 0
M  V30 6233 H 571.09 -6.00095 -0.0237608 0
M  V30 6234 H 572.16 -4.79596 0.715229 0
M  V30 6235 N 573.503 -0.0852151 -1.57369 0
M  V30 6236 C 574.451 0.894856 -2.14698 0
M  V30 6237 C 575.445 1.29903 -1.08727 0
M  V30 6238 O 576.651 1.27471 -1.27088 0
M  V30 6239 H 573.026 0.306569 -0.686673 0
M  V30 6240 H 574.997 0.386542 -2.95886 0
M  V30 6241 C 573.746 2.14798 -2.73417 0
M  V30 6242 H 573.069 1.84585 -3.54638 0
M  V30 6243 H 574.509 2.81456 -3.1711 0
M  V30 6244 C 572.968 2.91546 -1.68828 0
M  V30 6245 O 573.498 3.85733 -1.12129 0
M  V30 6246 N 571.704 2.54901 -1.39549 0
M  V30 6247 H 571.251 1.7838 -1.85845 0
M  V30 6248 H 571.209 3.06553 -0.698054 0
M  V30 6249 N 574.981 1.5647 0.188427 0
M  V30 6250 C 576.23 1.80207 0.905995 0
M  V30 6251 C 576.543 0.659579 1.84144 0
M  V30 6252 O 577.749 0.781431 2.60011 0
M  V30 6253 C 576.205 3.19255 1.66145 0
M  V30 6254 C 575.813 4.41324 0.770504 0
M  V30 6255 C 577.557 3.52298 2.36826 0
M  V30 6256 C 575.464 5.71394 1.52521 0
M  V30 6257 H 574.394 0.671953 0.342045 0
M  V30 6258 H 577.045 1.82808 0.159164 0
M  V30 6259 H 575.427 3.10922 2.45242 0
M  V30 6260 H 576.601 4.60797 0.0177261 0
M  V30 6261 H 574.916 4.16035 0.174199 0
M  V30 6262 H 577.513 4.46715 2.93854 0
M  V30 6263 H 577.856 2.76359 3.11338 0
M  V30 6264 H 578.389 3.62108 1.6469 0
M  V30 6265 H 575.128 6.50316 0.82275 0
M  V30 6266 H 574.648 5.55928 2.25175 0
M  V30 6267 H 576.327 6.12747 2.07725 0
M  V30 6268 N 576.459 -0.456382 1.50847 0
M  V30 6269 C 577.684 -1.2349 1.66628 0
M  V30 6270 C 578.109 -1.84715 0.355254 0
M  V30 6271 O 577.467 -1.67961 -0.682559 0
M  V30 6272 C 577.515 -2.30865 2.77009 0
M  V30 6273 O 576.619 -3.35882 2.39285 0
M  V30 6274 H 575.96 -0.36266 0.556214 0
M  V30 6275 H 578.49 -0.541374 1.97308 0
M  V30 6276 H 578.5 -2.75949 3.00526 0
M  V30 6277 H 577.175 -1.85677 3.72152 0
M  V30 6278 H 575.752 -2.96406 2.26269 0
M  V30 6279 N 577.937 -1.40673 -0.710563 0
M  V30 6280 C 579.353 -1.22813 -1.01928 0
M  V30 6281 C 579.553 -0.10687 -2.01216 0
M  V30 6282 O 578.609 0.533614 -2.46797 0
M  V30 6283 C 579.922 -2.57178 -1.5582 0
M  V30 6284 C 581.47 -2.64233 -1.67779 0
M  V30 6285 C 581.945 -3.98879 -2.25076 0
M  V30 6286 N 583.436 -4.00647 -2.32456 0
M  V30 6287 C 584.171 -5.01621 -2.77784 0
M  V30 6288 N 583.667 -6.12989 -3.22826 0
M  V30 6289 N 585.46 -4.88988 -2.77213 0
M  V30 6290 H 577.611 -2.12335 -0.05253 0
M  V30 6291 H 579.874 -0.9441 -0.085898 0
M  V30 6292 H 579.58 -3.39903 -0.903249 0
M  V30 6293 H 579.454 -2.78618 -2.54267 0
M  V30 6294 H 581.841 -1.81876 -2.3239 0
M  V30 6295 H 581.922 -2.46619 -0.679178 0
M  V30 6296 H 581.566 -4.81678 -1.61086 0
M  V30 6297 H 581.496 -4.13826 -3.25661 0
M  V30 6298 H 583.987 -3.20231 -2.0065 0
M  V30 6299 H 584.3 -6.85921 -3.55995 0
M  V30 6300 H 582.645 -6.16547 -3.20773 0
M  V30 6301 H 585.836 -4.01075 -2.41363 0
M  V30 6302 H 586.009 -5.67822 -3.12221 0
M  V30 6303 N 579.415 0.9433 -1.26252 0
M  V30 6304 C 580.325 2.07532 -1.09397 0
M  V30 6305 C 581.341 1.73977 -0.0280449 0
M  V30 6306 O 582.517 2.00067 -0.231337 0
M  V30 6307 C 579.582 3.39002 -0.726523 0
M  V30 6308 C 578.643 3.86353 -1.87163 0
M  V30 6309 C 577.876 5.11549 -1.52162 0
M  V30 6310 O 578.099 5.68834 -0.422385 0
M  V30 6311 O 577.033 5.53889 -2.35565 0
M  V30 6312 H 580.859 2.24658 -2.04359 0
M  V30 6313 H 578.444 1.05988 -1.05295 0
M  V30 6314 H 580.326 4.18 -0.534236 0
M  V30 6315 H 579.001 3.2312 0.193721 0
M  V30 6316 H 577.908 3.0831 -2.11886 0
M  V30 6317 H 579.241 4.06752 -2.77152 0
M  V30 6318 N 580.893 1.08022 1.14757 0
M  V30 6319 C 581.826 0.650738 2.18725 0
M  V30 6320 C 582.804 -0.335496 1.59101 0
M  V30 6321 O 583.988 -0.240295 1.86962 0
M  V30 6322 C 581.115 -0.0434377 3.38672 0
M  V30 6323 C 580.161 0.90232 4.16846 0
M  V30 6324 S 580.994 2.40693 4.78359 0
M  V30 6325 C 582.15 1.72475 6.01667 0
M  V30 6326 H 582.383 1.53152 2.54817 0
M  V30 6327 H 579.916 0.894823 1.25826 0
M  V30 6328 H 581.874 -0.437684 4.0816 0
M  V30 6329 H 580.535 -0.900659 3.0091 0
M  V30 6330 H 579.728 0.363445 5.02688 0
M  V30 6331 H 579.33 1.23728 3.52941 0
M  V30 6332 H 581.622 1.0404 6.69464 0
M  V30 6333 H 582.565 2.56175 6.60136 0
M  V30 6334 H 582.973 1.19979 5.51602 0
M  V30 6335 N 582.371 -1.3172 0.865308 0
M  V30 6336 C 583.301 -2.31109 0.333302 0
M  V30 6337 C 584.282 -1.60148 -0.573301 0
M  V30 6338 O 585.467 -1.87882 -0.491305 0
M  V30 6339 C 582.597 -3.44104 -0.470078 0
M  V30 6340 C 581.551 -4.26623 0.343021 0
M  V30 6341 C 580.877 -5.31482 -0.585756 0
M  V30 6342 C 582.177 -4.98001 1.57456 0
M  V30 6343 H 583.871 -2.75855 1.1638 0
M  V30 6344 H 581.417 -1.3262 0.561069 0
M  V30 6345 H 583.37 -4.12682 -0.852752 0
M  V30 6346 H 582.094 -2.98112 -1.33404 0
M  V30 6347 H 580.753 -3.59707 0.707583 0
M  V30 6348 H 580.401 -4.81741 -1.44686 0
M  V30 6349 H 580.101 -5.87582 -0.0456494 0
M  V30 6350 H 581.625 -6.0292 -0.965375 0
M  V30 6351 H 583.039 -5.59201 1.26359 0
M  V30 6352 H 581.436 -5.63876 2.05339 0
M  V30 6353 H 582.506 -4.25253 2.32997 0
M  V30 6354 N 583.85 -0.624285 -1.44708 0
M  V30 6355 C 584.782 0.12305 -2.28869 0
M  V30 6356 C 585.795 0.81557 -1.40898 0
M  V30 6357 O 586.984 0.678162 -1.65116 0
M  V30 6358 C 584.084 1.19612 -3.1709 0
M  V30 6359 C 583.257 0.587452 -4.33437 0
M  V30 6360 C 582.316 1.55358 -5.02743 0
M  V30 6361 O 581.341 1.07338 -5.58988 0
M  V30 6362 N 582.543 2.88798 -5.03563 0
M  V30 6363 H 585.308 -0.599193 -2.93649 0
M  V30 6364 H 582.87 -0.464954 -1.5508 0
M  V30 6365 H 584.861 1.84261 -3.60319 0
M  V30 6366 H 583.432 1.82067 -2.54107 0
M  V30 6367 H 582.652 -0.237509 -3.93484 0
M  V30 6368 H 583.94 0.161326 -5.08544 0
M  V30 6369 H 583.338 3.30399 -4.59188 0
M  V30 6370 H 581.894 3.48826 -5.50603 0
M  V30 6371 N 585.328 1.53329 -0.364422 0
M  V30 6372 C 586.26 2.23286 0.517293 0
M  V30 6373 C 587.273 1.24657 1.04711 0
M  V30 6374 O 588.462 1.50887 0.95369 0
M  V30 6375 C 585.562 2.91604 1.72685 0
M  V30 6376 C 584.735 4.1673 1.32873 0
M  V30 6377 C 583.794 4.68269 2.40022 0
M  V30 6378 O 582.82 5.31976 2.02461 0
M  V30 6379 N 584.022 4.45983 3.7159 0
M  V30 6380 H 586.787 2.99588 -0.0819391 0
M  V30 6381 H 584.348 1.60787 -0.189544 0
M  V30 6382 H 586.34 3.22992 2.4384 0
M  V30 6383 H 584.91 2.18763 2.23297 0
M  V30 6384 H 584.13 3.91657 0.447069 0
M  V30 6385 H 585.418 4.98078 1.03902 0
M  V30 6386 H 584.816 3.95077 4.04883 0
M  V30 6387 H 583.373 4.81924 4.38854 0
M  V30 6388 N 586.806 0.0935595 1.57322 0
M  V30 6389 C 588.031 -0.582324 1.99057 0
M  V30 6390 C 588.456 -1.61025 0.972242 0
M  V30 6391 O 587.814 -1.81202 -0.0594622 0
M  V30 6392 C 587.862 -1.20799 3.39765 0
M  V30 6393 O 586.966 -2.32382 3.40694 0
M  V30 6394 H 586.307 -0.147884 0.647323 0
M  V30 6395 H 588.837 0.174516 2.03854 0
M  V30 6396 H 588.847 -1.54966 3.77425 0
M  V30 6397 H 587.522 -0.454914 4.13405 0
M  V30 6398 H 586.099 -1.99845 3.14827 0
M  V30 6399 N 588.284 -1.56567 -0.180126 0
M  V30 6400 C 589.231 -1.95725 -1.22313 0
M  V30 6401 C 590.201 -0.819911 -1.44453 0
M  V30 6402 O 591.386 -1.07931 -1.57339 0
M  V30 6403 C 588.526 -2.31484 -2.55947 0
M  V30 6404 C 587.639 -3.58354 -2.4126 0
M  V30 6405 C 586.774 -3.83366 -3.67701 0
M  V30 6406 C 585.813 -5.03612 -3.47909 0
M  V30 6407 N 584.95 -5.24802 -4.66398 0
M  V30 6408 H 589.79 -2.84642 -0.882198 0
M  V30 6409 H 587.327 -1.4085 -0.42422 0
M  V30 6410 H 589.285 -2.50237 -3.33822 0
M  V30 6411 H 587.915 -1.45689 -2.88053 0
M  V30 6412 H 586.967 -3.47565 -1.54606 0
M  V30 6413 H 588.279 -4.46386 -2.22577 0
M  V30 6414 H 587.433 -4.02439 -4.54013 0
M  V30 6415 H 586.172 -2.93692 -3.89353 0
M  V30 6416 H 585.177 -4.84447 -2.59983 0
M  V30 6417 H 586.402 -5.94809 -3.27688 0
M  V30 6418 H 584.348 -4.38079 -4.88286 0
M  V30 6419 H 584.265 -6.07041 -4.50596 0
M  V30 6420 H 585.533 -5.48346 -5.54019 0
M  V30 6421 N 589.762 0.448376 -1.51087 0
M  V30 6422 C 591.011 1.19561 -1.62444 0
M  V30 6423 C 591.324 1.92602 -0.341151 0
M  V30 6424 O 592.53 2.69439 -0.333936 0
M  V30 6425 C 590.986 2.17373 -2.8684 0
M  V30 6426 C 590.594 1.5003 -4.22131 0
M  V30 6427 C 592.338 2.92597 -3.0755 0
M  V30 6428 C 590.245 2.46262 -5.37689 0
M  V30 6429 H 589.175 0.449975 -0.605011 0
M  V30 6430 H 591.826 0.463735 -1.77544 0
M  V30 6431 H 590.208 2.93948 -2.65349 0
M  V30 6432 H 591.382 0.790886 -4.53962 0
M  V30 6433 H 589.697 0.870011 -4.0721 0
M  V30 6434 H 592.294 3.64663 -3.91056 0
M  V30 6435 H 592.637 3.53306 -2.20183 0
M  V30 6436 H 593.17 2.23131 -3.29329 0
M  V30 6437 H 589.909 1.90258 -6.27281 0
M  V30 6438 H 589.429 3.15289 -5.10248 0
M  V30 6439 H 591.108 3.07623 -5.6919 0
M  V30 6440 N 591.24 1.41047 0.703093 0
M  V30 6441 C 592.17 1.45067 1.82969 0
M  V30 6442 C 593.151 0.31016 1.67248 0
M  V30 6443 O 594.336 0.520548 1.87093 0
M  V30 6444 C 591.466 1.32478 3.2104 0
M  V30 6445 C 590.42 2.44262 3.51454 0
M  V30 6446 C 589.746 2.16742 4.88801 0
M  V30 6447 C 591.046 3.86606 3.51189 0
M  V30 6448 H 592.74 2.39353 1.79863 0
M  V30 6449 H 590.286 1.15206 0.863919 0
M  V30 6450 H 592.239 1.33904 3.99559 0
M  V30 6451 H 590.963 0.346735 3.24754 0
M  V30 6452 H 589.622 2.42107 2.75282 0
M  V30 6453 H 589.27 1.17299 4.89132 0
M  V30 6454 H 588.97 2.91643 5.10116 0
M  V30 6455 H 590.494 2.19872 5.69639 0
M  V30 6456 H 591.908 3.90517 4.19725 0
M  V30 6457 H 590.305 4.61128 3.84033 0
M  V30 6458 H 591.375 4.15296 2.50315 0
M  V30 6459 N 592.718 -0.936591 1.26751 0
M  V30 6460 C 593.665 -2.03597 1.08706 0
M  V30 6461 C 594.635 -1.66097 -0.00926542 0
M  V30 6462 O 595.82 -1.90199 0.151377 0
M  V30 6463 C 592.96 -3.3727 0.73094 0
M  V30 6464 C 592.073 -3.87778 1.90399 0
M  V30 6465 C 591.208 -5.09859 1.49056 0
M  V30 6466 C 590.247 -5.5264 2.63164 0
M  V30 6467 N 589.384 -6.65921 2.22471 0
M  V30 6468 H 594.224 -2.18364 2.02784 0
M  V30 6469 H 591.761 -1.06985 1.00958 0
M  V30 6470 H 593.719 -4.14128 0.505328 0
M  V30 6471 H 592.349 -3.22337 -0.172868 0
M  V30 6472 H 591.401 -3.07279 2.2424 0
M  V30 6473 H 592.713 -4.15464 2.76028 0
M  V30 6474 H 591.867 -5.9419 1.22567 0
M  V30 6475 H 590.606 -4.8393 0.60524 0
M  V30 6476 H 589.611 -4.66863 2.90377 0
M  V30 6477 H 590.836 -5.80568 3.52303 0
M  V30 6478 H 588.782 -6.41667 1.36379 0
M  V30 6479 H 588.699 -6.93216 3.01641 0
M  V30 6480 H 589.967 -7.53616 1.99205 0
M  V30 6481 N 594.196 -1.08629 -1.14182 0
M  V30 6482 C 595.442 -0.818556 -1.85546 0
M  V30 6483 C 595.775 0.654076 -1.82854 0
M  V30 6484 O 595.05 1.48099 -1.26083 0
M  V30 6485 C 595.333 -1.34397 -3.3408 0
M  V30 6486 C 595.186 -2.8821 -3.45333 0
M  V30 6487 C 596.505 -0.971069 -4.29253 0
M  V30 6488 H 593.624 -0.298821 -0.673702 0
M  V30 6489 H 596.266 -1.34629 -1.34071 0
M  V30 6490 H 594.416 -0.895064 -3.78049 0
M  V30 6491 H 596.088 -3.41488 -3.10134 0
M  V30 6492 H 594.331 -3.25756 -2.86471 0
M  V30 6493 H 595.002 -3.20047 -4.49749 0
M  V30 6494 H 597.478 -1.35809 -3.93313 0
M  V30 6495 H 596.354 -1.36586 -5.31635 0
M  V30 6496 H 596.615 0.121659 -4.41933 0
M  V30 6497 N 595.674 1.31259 -0.872281 0
M  V30 6498 C 596.923 1.95893 -0.480493 0
M  V30 6499 C 597.236 1.697 0.972688 0
M  V30 6500 O 598.442 2.28214 1.47073 0
M  V30 6501 C 596.898 3.50705 -0.808342 0
M  V30 6502 C 596.506 3.85735 -2.27844 0
M  V30 6503 C 598.25 4.21719 -0.485136 0
M  V30 6504 C 596.157 5.33668 -2.54858 0
M  V30 6505 H 595.087 0.733182 -0.175955 0
M  V30 6506 H 597.738 1.49396 -1.0655 0
M  V30 6507 H 596.12 3.95706 -0.152558 0
M  V30 6508 H 597.294 3.51686 -2.97748 0
M  V30 6509 H 595.609 3.27792 -2.56791 0
M  V30 6510 H 598.206 5.30559 -0.664166 0
M  V30 6511 H 598.549 4.12316 0.574592 0
M  V30 6512 H 599.082 3.82359 -1.09756 0
M  V30 6513 H 595.821 5.48109 -3.59523 0
M  V30 6514 H 595.341 5.69061 -1.8955 0
M  V30 6515 H 597.02 6.00958 -2.39706 0
M  V30 6516 N 597.152 0.631951 1.44375 0
M  V30 6517 C 598.568 0.297642 1.568 0
M  V30 6518 C 598.768 -1.19916 1.61934 0
M  V30 6519 O 597.824 -1.98324 1.56281 0
M  V30 6520 C 599.137 0.990286 2.83926 0
M  V30 6521 C 600.685 0.968507 2.97639 0
M  V30 6522 C 601.16 1.64163 4.27568 0
M  V30 6523 N 602.651 1.60826 4.34384 0
M  V30 6524 C 603.386 2.09802 5.33639 0
M  V30 6525 N 602.882 2.66973 6.39294 0
M  V30 6526 N 604.675 2.00426 5.25153 0
M  V30 6527 H 596.826 1.60353 1.39286 0
M  V30 6528 H 599.089 0.673142 0.667521 0
M  V30 6529 H 598.795 2.04519 2.8612 0
M  V30 6530 H 598.669 0.528563 3.73478 0
M  V30 6531 H 601.056 -0.0779247 2.94997 0
M  V30 6532 H 601.137 1.46873 2.09433 0
M  V30 6533 H 600.781 2.68752 4.3097 0
M  V30 6534 H 600.711 1.11624 5.14634 0
M  V30 6535 H 603.202 1.19087 3.58646 0
M  V30 6536 H 603.515 3.02074 7.11316 0
M  V30 6537 H 601.86 2.71024 6.39977 0
M  V30 6538 H 605.051 1.55483 4.41523 0
M  V30 6539 H 605.224 2.38906 6.02352 0
M  V30 6540 N 598.631 -1.53133 0.372548 0
M  V30 6541 C 599.578 -2.25951 -0.470631 0
M  V30 6542 C 600.548 -1.26895 -1.07176 0
M  V30 6543 O 601.733 -1.55691 -1.10294 0
M  V30 6544 C 598.873 -3.05726 -1.6008 0
M  V30 6545 C 597.986 -4.19684 -1.02416 0
M  V30 6546 C 597.121 -4.86888 -2.124 0
M  V30 6547 C 596.16 -5.92866 -1.52238 0
M  V30 6548 N 595.297 -6.53732 -2.56084 0
M  V30 6549 H 600.137 -2.97587 0.156816 0
M  V30 6550 H 597.674 -1.4683 0.0891571 0
M  V30 6551 H 599.632 -3.50258 -2.26661 0
M  V30 6552 H 598.262 -2.36331 -2.1988 0
M  V30 6553 H 597.314 -3.79588 -0.248426 0
M  V30 6554 H 598.626 -4.95821 -0.544366 0
M  V30 6555 H 597.78 -5.34638 -2.86787 0
M  V30 6556 H 596.519 -4.10239 -2.63734 0
M  V30 6557 H 595.524 -5.4447 -0.763685 0
M  V30 6558 H 596.749 -6.71439 -1.0172 0
M  V30 6559 H 594.695 -5.79932 -3.06618 0
M  V30 6560 H 594.612 -7.25429 -2.12811 0
M  V30 6561 H 595.88 -7.0613 -3.30152 0
M  V30 6562 N 600.109 -0.101901 -1.5727 0
M  V30 6563 C 601.057 0.872034 -2.15635 0
M  V30 6564 C 602.051 1.28742 -1.10099 0
M  V30 6565 O 603.257 1.26116 -1.28432 0
M  V30 6566 H 599.632 0.299269 -0.689886 0
M  V30 6567 H 601.603 0.355137 -2.96279 0
M  V30 6568 C 600.352 2.11886 -2.7568 0
M  V30 6569 H 599.675 1.80813 -3.56576 0
M  V30 6570 H 601.115 2.78077 -3.20077 0
M  V30 6571 C 599.574 2.89739 -1.7191 0
M  V30 6572 O 600.104 3.84522 -1.16213 0
M  V30 6573 N 598.31 2.53407 -1.42245 0
M  V30 6574 H 597.857 1.76398 -1.87727 0
M  V30 6575 H 597.815 3.05795 -0.730529 0
M  V30 6576 N 601.587 1.56661 0.17182 0
M  V30 6577 C 602.836 1.81158 0.886831 0
M  V30 6578 C 603.149 0.679072 1.83434 0
M  V30 6579 O 604.355 0.808964 2.59168 0
M  V30 6580 C 602.811 3.20999 1.6275 0
M  V30 6581 C 602.419 4.42117 0.723652 0
M  V30 6582 C 604.163 3.5479 2.33076 0
M  V30 6583 C 602.07 5.7298 1.46452 0
M  V30 6584 H 601 0.675543 0.334899 0
M  V30 6585 H 603.651 1.82967 0.139765 0
M  V30 6586 H 602.033 3.13506 2.4193 0
M  V30 6587 H 603.207 4.60789 -0.0311485 0
M  V30 6588 H 601.522 4.16197 0.130063 0
M  V30 6589 H 604.119 4.49806 2.89099 0
M  V30 6590 H 604.462 2.79646 3.08389 0
M  V30 6591 H 604.995 3.63834 1.6084 0
M  V30 6592 H 601.734 6.51152 0.753729 0
M  V30 6593 H 601.254 5.58285 2.19266 0
M  V30 6594 H 602.933 6.14916 2.01214 0
M  V30 6595 N 603.065 -0.440357 1.51323 0
M  V30 6596 C 604.311 -1.19181 1.64085 0
M  V30 6597 C 604.644 -1.90936 0.354575 0
M  V30 6598 O 603.919 -1.8347 -0.645675 0
M  V30 6599 C 604.202 -2.2112 2.84215 0
M  V30 6600 C 604.055 -1.53468 4.22809 0
M  V30 6601 C 605.374 -3.22133 2.99864 0
M  V30 6602 H 602.493 -0.431924 0.597169 0
M  V30 6603 H 605.135 -0.481443 1.83799 0
M  V30 6604 H 603.285 -2.81703 2.67537 0
M  V30 6605 H 604.957 -0.962455 4.51148 0
M  V30 6606 H 603.2 -0.837086 4.25647 0
M  V30 6607 H 603.871 -2.27694 5.02852 0
M  V30 6608 H 606.347 -2.71601 3.15233 0
M  V30 6609 H 605.223 -3.90756 3.85488 0
M  V30 6610 H 605.484 -3.88061 2.11804 0
M  V30 6611 N 604.543 -1.41418 -0.695603 0
M  V30 6612 C 605.49 -1.43264 -1.80954 0
M  V30 6613 C 606.46 -0.287016 -1.63601 0
M  V30 6614 O 607.645 -0.488054 -1.84452 0
M  V30 6615 C 604.785 -1.32054 -3.18835 0
M  V30 6616 C 603.898 -2.56485 -3.4762 0
M  V30 6617 C 603.033 -2.3757 -4.75115 0
M  V30 6618 C 602.072 -3.57477 -4.96867 0
M  V30 6619 N 601.209 -3.37632 -6.15588 0
M  V30 6620 H 606.049 -2.38467 -1.78711 0
M  V30 6621 H 603.586 -1.18415 -0.872715 0
M  V30 6622 H 605.544 -1.23558 -3.98484 0
M  V30 6623 H 604.174 -0.404592 -3.20254 0
M  V30 6624 H 603.226 -2.75432 -2.62376 0
M  V30 6625 H 604.538 -3.45678 -3.59594 0
M  V30 6626 H 603.692 -2.2654 -5.62818 0
M  V30 6627 H 602.431 -1.45834 -4.65386 0
M  V30 6628 H 601.436 -3.68961 -4.07612 0
M  V30 6629 H 602.661 -4.50167 -5.08455 0
M  V30 6630 H 600.607 -2.48596 -6.07072 0
M  V30 6631 H 600.524 -4.20401 -6.2833 0
M  V30 6632 H 601.792 -3.30375 -7.06026 0
M  V30 6633 N 606.021 0.929856 -1.27246 0
M  V30 6634 C 606.968 2.03017 -1.09785 0
M  V30 6635 C 607.938 1.661 0.000456744 0
M  V30 6636 O 609.123 1.90116 -0.161462 0
M  V30 6637 C 606.263 3.36878 -0.748816 0
M  V30 6638 C 605.376 3.86763 -1.92453 0
M  V30 6639 C 604.511 5.09061 -1.51758 0
M  V30 6640 C 603.55 5.51237 -2.66091 0
M  V30 6641 N 602.687 6.64732 -2.25999 0
M  V30 6642 H 607.527 2.17285 -2.03939 0
M  V30 6643 H 605.064 1.06448 -1.01524 0
M  V30 6644 H 607.022 4.13855 -0.527283 0
M  V30 6645 H 605.652 3.22424 0.155771 0
M  V30 6646 H 604.704 3.06086 -2.25867 0
M  V30 6647 H 606.016 4.13994 -2.78227 0
M  V30 6648 H 605.17 5.93532 -1.25716 0
M  V30 6649 H 603.909 4.83602 -0.630896 0
M  V30 6650 H 602.914 4.65316 -2.92849 0
M  V30 6651 H 604.139 5.78692 -3.55377 0
M  V30 6652 H 602.085 6.40935 -1.3978 0
M  V30 6653 H 602.002 6.91607 -3.05313 0
M  V30 6654 H 603.27 7.52549 -2.03199 0
M  V30 6655 N 607.499 1.09233 1.13605 0
M  V30 6656 C 608.739 0.836786 1.86487 0
M  V30 6657 C 609.103 -0.626191 1.81502 0
M  V30 6658 O 610.304 -0.99758 2.49603 0
M  V30 6659 C 608.575 1.35476 3.30728 0
M  V30 6660 S 610.134 1.2328 4.21126 0
M  V30 6661 H 606.952 0.302702 0.643345 0
M  V30 6662 H 609.554 1.3953 1.36936 0
M  V30 6663 H 608.258 2.41381 3.31909 0
M  V30 6664 H 607.789 0.792286 3.85339 0
M  V30 6665 H 609.804 0.182468 4.95864 0
M  V30 6666 N 608.977 -1.30795 0.87923 0
M  V30 6667 C 609.907 -2.30742 0.357796 0
M  V30 6668 C 610.888 -1.60747 -0.556283 0
M  V30 6669 O 612.073 -1.88393 -0.47135 0
M  V30 6670 C 609.203 -3.44583 -0.433555 0
M  V30 6671 C 608.157 -4.26235 0.388251 0
M  V30 6672 C 607.483 -5.32073 -0.529352 0
M  V30 6673 C 608.783 -4.96303 1.62729 0
M  V30 6674 H 610.477 -2.74605 1.19299 0
M  V30 6675 H 608.023 -1.32017 0.575104 0
M  V30 6676 H 609.976 -4.13563 -0.808934 0
M  V30 6677 H 608.7 -2.99511 -1.30234 0
M  V30 6678 H 607.359 -3.58936 0.745695 0
M  V30 6679 H 607.007 -4.83249 -1.39569 0
M  V30 6680 H 606.707 -5.87598 0.0166741 0
M  V30 6681 H 608.231 -6.0391 -0.901373 0
M  V30 6682 H 609.645 -5.5783 1.32283 0
M  V30 6683 H 608.042 -5.61666 2.11309 0
M  V30 6684 H 609.112 -4.22758 2.37494 0
M  V30 6685 N 610.455 -0.639598 -1.44038 0
M  V30 6686 C 611.365 0.0612377 -2.3452 0
M  V30 6687 C 612.381 0.826717 -1.53106 0
M  V30 6688 O 613.557 0.777059 -1.85806 0
M  V30 6689 C 610.622 1.02492 -3.31204 0
M  V30 6690 C 609.683 0.25788 -4.28525 0
M  V30 6691 C 608.916 1.17566 -5.2059 0
M  V30 6692 O 609.139 2.41461 -5.16771 0
M  V30 6693 O 608.073 0.655407 -5.98321 0
M  V30 6694 H 611.899 -0.68318 -2.95916 0
M  V30 6695 H 609.484 -0.399784 -1.43952 0
M  V30 6696 H 611.366 1.57911 -3.90694 0
M  V30 6697 H 610.041 1.7498 -2.7233 0
M  V30 6698 H 608.948 -0.339566 -3.72556 0
M  V30 6699 H 610.281 -0.427154 -4.90343 0
M  V30 6700 N 611.933 1.52934 -0.380664 0
M  V30 6701 C 612.863 2.29118 0.450268 0
M  V30 6702 C 613.844 1.32153 1.07096 0
M  V30 6703 O 615.029 1.61038 1.08537 0
M  V30 6704 C 612.159 3.09161 1.58231 0
M  V30 6705 C 611.113 4.13938 1.0881 0
M  V30 6706 C 610.439 4.82153 2.31155 0
M  V30 6707 C 611.739 5.22048 0.162146 0
M  V30 6708 H 613.433 2.98826 -0.185361 0
M  V30 6709 H 610.979 1.43715 -0.0905886 0
M  V30 6710 H 612.932 3.61211 2.17036 0
M  V30 6711 H 611.656 2.3717 2.2454 0
M  V30 6712 H 610.315 3.62855 0.522633 0
M  V30 6713 H 609.963 4.06719 2.95953 0
M  V30 6714 H 609.663 5.52966 1.98752 0
M  V30 6715 H 611.187 5.37004 2.90618 0
M  V30 6716 H 612.601 5.6951 0.658126 0
M  V30 6717 H 610.998 6.00057 -0.0717122 0
M  V30 6718 H 612.068 4.78398 -0.791438 0
M  V30 6719 N 613.412 0.11024 1.57214 0
M  V30 6720 C 614.659 -0.54987 1.94891 0
M  V30 6721 C 614.987 -1.67243 0.992984 0
M  V30 6722 O 614.242 -1.95694 0.0152703 0
M  V30 6723 C 614.541 -1.13102 3.39032 0
M  V30 6724 C 614.207 -0.130713 4.5071 0
M  V30 6725 C 612.869 0.14437 4.80983 0
M  V30 6726 C 615.221 0.551472 5.18274 0
M  V30 6727 C 612.549 1.10807 5.76141 0
M  V30 6728 C 614.901 1.50375 6.14467 0
M  V30 6729 C 613.565 1.78691 6.43138 0
M  V30 6730 H 612.835 -0.201212 0.713158 0
M  V30 6731 H 615.482 0.189288 1.90562 0
M  V30 6732 H 613.787 -1.94675 3.40013 0
M  V30 6733 H 615.484 -1.64973 3.65493 0
M  V30 6734 H 612.074 -0.355301 4.27125 0
M  V30 6735 H 616.258 0.35211 4.95049 0
M  V30 6736 H 611.514 1.3343 5.96663 0
M  V30 6737 H 615.688 2.03808 6.65909 0
M  V30 6738 H 613.315 2.53522 7.1668 0
M  V30 6739 N 614.89 -1.56749 -0.16351 0
M  V30 6740 C 616.115 -1.86938 -0.898264 0
M  V30 6741 C 616.54 -0.697456 -1.74692 0
M  V30 6742 O 615.898 0.353327 -1.77824 0
M  V30 6743 C 615.946 -3.15599 -1.74441 0
M  V30 6744 O 615.05 -2.98371 -2.8469 0
M  V30 6745 H 614.391 -0.614659 -0.251178 0
M  V30 6746 H 616.921 -2.03979 -0.159298 0
M  V30 6747 H 616.931 -3.47202 -2.14277 0
M  V30 6748 H 615.606 -4.00505 -1.1211 0
M  V30 6749 H 614.183 -2.7814 -2.4838 0
M  V30 6750 N 616.368 0.432326 -1.51554 0
M  V30 6751 C 617.278 1.55023 -1.76082 0
M  V30 6752 C 618.294 1.61593 -0.645265 0
M  V30 6753 O 619.47 1.78742 -0.928086 0
M  V30 6754 C 616.535 2.90964 -1.88523 0
M  V30 6755 C 615.596 2.9447 -3.12388 0
M  V30 6756 C 614.829 4.23926 -3.24225 0
M  V30 6757 O 615.052 5.16576 -2.4188 0
M  V30 6758 O 613.986 4.33818 -4.17235 0
M  V30 6759 H 617.812 1.37238 -2.70923 0
M  V30 6760 H 615.397 0.615845 -1.36117 0
M  V30 6761 H 617.279 3.71633 -1.98662 0
M  V30 6762 H 615.954 3.08865 -0.9687 0
M  V30 6763 H 614.861 2.12737 -3.07723 0
M  V30 6764 H 616.194 2.81514 -4.03746 0
M  V30 6765 N 617.846 1.41785 0.688094 0
M  V30 6766 C 618.776 1.47 1.8142 0
M  V30 6767 C 619.757 0.327881 1.6691 0
M  V30 6768 O 620.942 0.540362 1.86531 0
M  V30 6769 C 618.072 1.35876 3.19617 0
M  V30 6770 C 617.026 2.47976 3.48844 0
M  V30 6771 C 616.352 2.21915 4.86475 0
M  V30 6772 C 617.652 3.90309 3.47068 0
M  V30 6773 H 619.346 2.41247 1.77314 0
M  V30 6774 H 616.892 1.16116 0.851651 0
M  V30 6775 H 618.845 1.38134 3.98117 0
M  V30 6776 H 617.569 0.38116 3.24368 0
M  V30 6777 H 616.228 2.45013 2.72698 0
M  V30 6778 H 615.876 1.2248 4.8786 0
M  V30 6779 H 615.576 2.97037 5.06994 0
M  V30 6780 H 617.1 2.25901 5.67275 0
M  V30 6781 H 618.514 3.94947 4.1556 0
M  V30 6782 H 616.911 4.65175 3.7912 0
M  V30 6783 H 617.981 4.17927 2.45896 0
M  V30 6784 N 619.324 -0.923095 1.27737 0
M  V30 6785 C 620.287 -2.00587 1.10894 0
M  V30 6786 C 621.287 -1.60718 0.0514927 0
M  V30 6787 O 622.477 -1.71658 0.296481 0
M  V30 6788 C 619.609 -3.33829 0.690717 0
M  V30 6789 H 620.802 -2.16959 2.07048 0
M  V30 6790 H 618.355 -1.10451 1.1059 0
M  V30 6791 H 619.09 -3.23157 -0.272 0
M  V30 6792 H 618.875 -3.64125 1.45448 0
M  V30 6793 H 620.365 -4.13336 0.595252 0
M  V30 6794 N 620.802 -1.09834 -1.13024 0
M  V30 6795 C 621.712 -0.753731 -2.22162 0
M  V30 6796 C 622.728 0.246105 -1.72251 0
M  V30 6797 O 623.904 0.0864051 -2.01215 0
M  V30 6798 C 620.969 -0.183958 -3.46212 0
M  V30 6799 C 620.03 -1.24028 -4.10993 0
M  V30 6800 C 619.263 -0.697597 -5.29121 0
M  V30 6801 O 619.486 0.478092 -5.68393 0
M  V30 6802 O 618.42 -1.4546 -5.84059 0
M  V30 6803 H 622.246 -1.66456 -2.5402 0
M  V30 6804 H 619.831 -0.873026 -1.21238 0
M  V30 6805 H 621.713 0.130257 -4.21199 0
M  V30 6806 H 620.388 0.699823 -3.16045 0
M  V30 6807 H 619.295 -1.60725 -3.37814 0
M  V30 6808 H 620.628 -2.09685 -4.45301 0
M  V30 6809 N 622.28 1.30327 -0.886154 0
M  V30 6810 C 623.557 1.90922 -0.425217 0
M  V30 6811 C 623.937 1.80533 1.09413 0
M  V30 6812 O 623.285 1.2233 1.92996 0
M  V30 6813 C 623.495 3.36529 -0.924638 0
M  V30 6814 C 624.843 4.13598 -0.960305 0
M  V30 6815 O 625.867 3.45377 -0.871382 0
M  V30 6816 O 624.726 5.35482 -1.09184 0
M  V30 6817 H 621.82 0.81668 -0.130238 0
M  V30 6818 H 624.366 1.38886 -0.975132 0
M  V30 6819 H 623.138 3.38181 -1.96849 0
M  V30 6820 H 622.761 3.96021 -0.353955 0
M  V30 6821 N 623.758 0.647228 1.43697 0
M  V30 6822 C 624.705 -0.0480092 2.3075 0
M  V30 6823 C 625.675 -0.820705 1.44408 0
M  V30 6824 O 626.86 -0.798515 1.73287 0
M  V30 6825 C 624 -1.01259 3.2991 0
M  V30 6826 C 623.113 -0.236629 4.31351 0
M  V30 6827 C 622.248 -1.19447 5.17596 0
M  V30 6828 C 621.287 -0.408595 6.10735 0
M  V30 6829 N 620.424 -1.31772 6.89623 0
M  V30 6830 H 625.264 0.700238 2.89656 0
M  V30 6831 H 622.801 0.357082 1.427 0
M  V30 6832 H 624.759 -1.58538 3.85903 0
M  V30 6833 H 623.389 -1.72778 2.72667 0
M  V30 6834 H 622.441 0.452353 3.77701 0
M  V30 6835 H 623.753 0.374731 4.9739 0
M  V30 6836 H 622.907 -1.83809 5.78186 0
M  V30 6837 H 621.646 -1.83975 4.51669 0
M  V30 6838 H 620.651 0.24841 5.49239 0
M  V30 6839 H 621.876 0.232188 6.78703 0
M  V30 6840 H 619.822 -1.94991 6.2635 0
M  V30 6841 H 619.739 -0.760779 7.52162 0
M  V30 6842 H 621.007 -1.94967 7.54724 0
M  V30 6843 N 625.236 -1.5273 0.388769 0
M  V30 6844 C 626.146 -2.30165 -0.453993 0
M  V30 6845 C 627.162 -1.37058 -1.07197 0
M  V30 6846 O 628.338 -1.70127 -1.0779 0
M  V30 6847 C 625.403 -3.09303 -1.56628 0
M  V30 6848 C 624.464 -4.18117 -0.973467 0
M  V30 6849 C 623.697 -4.93472 -2.03275 0
M  V30 6850 O 623.92 -4.68913 -3.24772 0
M  V30 6851 O 622.854 -5.78833 -1.65034 0
M  V30 6852 H 626.68 -3.03185 0.176816 0
M  V30 6853 H 624.265 -1.4862 0.152501 0
M  V30 6854 H 626.147 -3.58648 -2.21246 0
M  V30 6855 H 624.822 -2.39098 -2.18206 0
M  V30 6856 H 623.729 -3.7297 -0.290556 0
M  V30 6857 H 625.062 -4.90556 -0.401908 0
M  V30 6858 N 626.714 -0.118576 -1.57153 0
M  V30 6859 C 627.662 0.849114 -2.16547 0
M  V30 6860 C 628.656 1.27567 -1.11458 0
M  V30 6861 O 629.862 1.24746 -1.29763 0
M  V30 6862 H 626.237 0.291935 -0.693021 0
M  V30 6863 H 628.208 0.323693 -2.96639 0
M  V30 6864 C 626.957 2.08951 -2.77912 0
M  V30 6865 H 626.28 1.77021 -3.58474 0
M  V30 6866 H 627.72 2.74666 -3.23008 0
M  V30 6867 C 626.179 2.87899 -1.74974 0
M  V30 6868 O 626.709 3.83268 -1.20285 0
M  V30 6869 N 624.915 2.51884 -1.44924 0
M  V30 6870 H 624.462 1.74397 -1.89587 0
M  V30 6871 H 624.42 3.05003 -0.762921 0
M  V30 6872 N 628.193 1.56834 0.155195 0
M  V30 6873 C 629.423 1.86778 0.883044 0
M  V30 6874 C 629.831 0.703824 1.75622 0
M  V30 6875 O 629.174 -0.33581 1.80605 0
M  V30 6876 C 629.236 3.1133 1.79761 0
M  V30 6877 C 628.9 4.43504 1.10242 0
M  V30 6878 C 629.897 5.17859 0.460204 0
M  V30 6879 C 627.582 4.90233 1.09437 0
M  V30 6880 C 629.576 6.37144 -0.180782 0
M  V30 6881 C 627.263 6.09444 0.449569 0
M  V30 6882 C 628.261 6.82744 -0.186888 0
M  V30 6883 O 627.949 7.99692 -0.821486 0
M  V30 6884 H 627.681 0.62352 0.261149 0
M  V30 6885 H 630.235 2.04813 0.155204 0
M  V30 6886 H 628.465 2.89282 2.56618 0
M  V30 6887 H 630.154 3.27587 2.39669 0
M  V30 6888 H 630.92 4.8283 0.458289 0
M  V30 6889 H 626.799 4.33109 1.57917 0
M  V30 6890 H 630.343 6.94296 -0.678154 0
M  V30 6891 H 626.24 6.43936 0.449123 0
M  V30 6892 H 627.008 8.15306 -0.722337 0
M  V30 6893 N 629.671 -0.424282 1.51781 0
M  V30 6894 C 630.618 -1.51591 1.74037 0
M  V30 6895 C 631.588 -1.55556 0.582358 0
M  V30 6896 O 632.773 -1.72364 0.818245 0
M  V30 6897 C 629.913 -2.89188 1.8832 0
M  V30 6898 C 629.026 -2.9465 3.1592 0
M  V30 6899 C 628.161 -4.23452 3.20721 0
M  V30 6900 C 627.2 -4.22831 4.42584 0
M  V30 6901 N 626.337 -5.43178 4.44862 0
M  V30 6902 H 631.177 -1.31917 2.67212 0
M  V30 6903 H 628.714 -0.640599 1.32419 0
M  V30 6904 H 630.672 -3.69044 1.94583 0
M  V30 6905 H 629.302 -3.07392 0.985402 0
M  V30 6906 H 628.354 -2.07378 3.18902 0
M  V30 6907 H 629.666 -2.90055 4.05795 0
M  V30 6908 H 628.82 -5.1169 3.25973 0
M  V30 6909 H 627.559 -4.30722 2.28757 0
M  V30 6910 H 626.564 -3.32984 4.37495 0
M  V30 6911 H 627.789 -4.17213 5.35826 0
M  V30 6912 H 625.735 -5.51145 3.55775 0
M  V30 6913 H 625.652 -5.40515 5.28563 0
M  V30 6914 H 626.92 -6.33412 4.54324 0
M  V30 6915 N 631.149 -1.42148 -0.680565 0
M  V30 6916 C 632.096 -1.45175 -1.79424 0
M  V30 6917 C 633.066 -0.304352 -1.63288 0
M  V30 6918 O 634.251 -0.507591 -1.83924 0
M  V30 6919 C 631.391 -1.35429 -3.17416 0
M  V30 6920 C 630.504 -2.60158 -3.4488 0
M  V30 6921 C 629.639 -2.42596 -4.72568 0
M  V30 6922 C 628.678 -3.62727 -4.93047 0
M  V30 6923 N 627.815 -3.44143 -6.11973 0
M  V30 6924 H 632.655 -2.40349 -1.76172 0
M  V30 6925 H 630.192 -1.19334 -0.860107 0
M  V30 6926 H 632.15 -1.27777 -3.97151 0
M  V30 6927 H 630.78 -0.438536 -3.19807 0
M  V30 6928 H 629.832 -2.78199 -2.5944 0
M  V30 6929 H 631.144 -3.49473 -3.55908 0
M  V30 6930 H 630.298 -2.32497 -5.60384 0
M  V30 6931 H 629.037 -1.50761 -4.63813 0
M  V30 6932 H 628.042 -3.73264 -4.03676 0
M  V30 6933 H 629.267 -4.55534 -5.03652 0
M  V30 6934 H 627.213 -2.5502 -6.04401 0
M  V30 6935 H 627.13 -4.27041 -6.23836 0
M  V30 6936 H 628.398 -3.37845 -7.02482 0
M  V30 6937 N 632.627 0.916307 -1.28225 0
M  V30 6938 C 633.874 1.66518 -1.1523 0
M  V30 6939 C 634.202 1.92178 0.299632 0
M  V30 6940 O 633.457 1.51842 1.2346 0
M  V30 6941 C 633.756 3.03125 -1.8934 0
M  V30 6942 C 633.422 2.97135 -3.39148 0
M  V30 6943 C 632.084 2.95208 -3.80007 0
M  V30 6944 C 634.436 2.87574 -4.34685 0
M  V30 6945 C 631.764 2.81518 -5.14747 0
M  V30 6946 C 634.116 2.75424 -5.69495 0
M  V30 6947 C 632.78 2.71854 -6.09632 0
M  V30 6948 H 632.05 0.609334 -0.421655 0
M  V30 6949 H 634.697 1.06776 -1.58969 0
M  V30 6950 H 633.002 3.66639 -1.38143 0
M  V30 6951 H 634.699 3.59968 -1.76704 0
M  V30 6952 H 631.289 2.99428 -3.06661 0
M  V30 6953 H 635.473 2.88152 -4.04082 0
M  V30 6954 H 630.729 2.77148 -5.44976 0
M  V30 6955 H 634.903 2.66993 -6.43185 0
M  V30 6956 H 632.53 2.61003 -7.1399 0
M  V30 6957 N 634.105 1.10431 1.1244 0
M  V30 6958 C 635.335 0.867612 1.87499 0
M  V30 6959 C 635.743 -0.585475 1.79913 0
M  V30 6960 O 635.086 -1.41539 1.171 0
M  V30 6961 C 635.148 1.2374 3.37533 0
M  V30 6962 C 634.812 2.69751 3.68895 0
M  V30 6963 C 635.809 3.67988 3.67261 0
M  V30 6964 C 633.494 3.06135 3.98229 0
M  V30 6965 C 635.488 5.00632 3.9452 0
M  V30 6966 C 633.175 4.38967 4.25149 0
M  V30 6967 C 634.173 5.36025 4.23281 0
M  V30 6968 O 633.861 6.66465 4.49533 0
M  V30 6969 H 633.593 0.311196 0.600111 0
M  V30 6970 H 636.147 1.47257 1.43194 0
M  V30 6971 H 634.377 0.575537 3.82393 0
M  V30 6972 H 636.066 0.978187 3.93937 0
M  V30 6973 H 636.832 3.41224 3.44661 0
M  V30 6974 H 632.711 2.31214 3.98825 0
M  V30 6975 H 636.255 5.7638 3.92978 0
M  V30 6976 H 632.152 4.6547 4.47223 0
M  V30 6977 H 632.92 6.72095 4.67152 0
M  V30 6978 N 635.583 -1.29855 0.893053 0
M  V30 6979 C 636.493 -2.31661 0.370157 0
M  V30 6980 C 637.509 -1.65677 -0.531723 0
M  V30 6981 O 638.685 -1.9691 -0.422902 0
M  V30 6982 C 635.75 -3.44388 -0.399741 0
M  V30 6983 C 634.811 -4.2598 0.532861 0
M  V30 6984 C 634.044 -5.33324 -0.200388 0
M  V30 6985 O 634.267 -5.52305 -1.42531 0
M  V30 6986 O 633.201 -6.00188 0.453668 0
M  V30 6987 H 637.027 -2.78354 1.2146 0
M  V30 6988 H 634.612 -1.34171 0.657153 0
M  V30 6989 H 636.494 -4.13037 -0.835358 0
M  V30 6990 H 635.169 -2.99815 -1.22035 0
M  V30 6991 H 634.076 -3.59998 1.01746 0
M  V30 6992 H 635.409 -4.74178 1.3197 0
M  V30 6993 N 637.061 -0.65484 -1.43351 0
M  V30 6994 C 638.024 0.0263562 -2.29185 0
M  V30 6995 C 639.024 0.748951 -1.42293 0
M  V30 6996 O 640.214 0.589957 -1.63906 0
M  V30 6997 C 637.346 1.04806 -3.2439 0
M  V30 6998 H 638.539 -0.728883 -2.90908 0
M  V30 6999 H 636.092 -0.416149 -1.50658 0
M  V30 7000 H 636.827 1.83247 -2.67565 0
M  V30 7001 H 636.612 0.533554 -3.88453 0
M  V30 7002 H 638.102 1.52372 -3.88809 0
M  V30 7003 N 638.539 1.52521 -0.396863 0
M  V30 7004 C 639.786 2.01672 0.182898 0
M  V30 7005 C 640.114 1.28302 1.46181 0
M  V30 7006 O 639.369 0.374118 1.92091 0
M  V30 7007 C 639.668 3.5403 0.489677 0
M  V30 7008 C 639.334 4.45456 -0.698581 0
M  V30 7009 C 637.996 4.70166 -1.02454 0
M  V30 7010 C 640.348 4.99354 -1.49316 0
M  V30 7011 C 637.676 5.46024 -2.1465 0
M  V30 7012 C 640.028 5.76439 -2.60579 0
M  V30 7013 C 638.692 5.99426 -2.93675 0
M  V30 7014 H 637.962 0.737971 0.066927 0
M  V30 7015 H 640.609 1.83853 -0.535764 0
M  V30 7016 H 638.914 3.69963 1.28976 0
M  V30 7017 H 640.611 3.8956 0.951018 0
M  V30 7018 H 637.201 4.26392 -0.434525 0
M  V30 7019 H 641.385 4.80182 -1.25457 0
M  V30 7020 H 636.641 5.62046 -2.40654 0
M  V30 7021 H 640.815 6.17202 -3.22544 0
M  V30 7022 H 638.442 6.57988 -3.80731 0
M  V30 7023 N 640.017 0.126909 1.57088 0
M  V30 7024 C 641.242 -0.53997 2.00248 0
M  V30 7025 C 641.667 -1.58927 1.00618 0
M  V30 7026 O 641.025 -1.81288 -0.0210131 0
M  V30 7027 C 641.073 -1.13565 3.4225 0
M  V30 7028 O 640.177 -2.25103 3.45547 0
M  V30 7029 H 639.518 -0.13412 0.650314 0
M  V30 7030 H 642.048 0.217718 2.03438 0
M  V30 7031 H 642.058 -1.46925 3.80627 0
M  V30 7032 H 640.733 -0.367122 4.14277 0
M  V30 7033 H 639.31 -1.93123 3.18995 0
M  V30 7034 N 641.495 -1.56914 -0.146875 0
M  V30 7035 C 642.442 -1.98275 -1.18134 0
M  V30 7036 C 643.412 -0.850367 -1.42681 0
M  V30 7037 O 644.597 -1.11244 -1.55014 0
M  V30 7038 C 641.737 -2.36861 -2.5098 0
M  V30 7039 C 640.85 -3.63391 -2.33605 0
M  V30 7040 C 639.985 -3.91079 -3.59486 0
M  V30 7041 C 639.024 -5.10879 -3.37149 0
M  V30 7042 N 638.161 -5.34577 -4.55161 0
M  V30 7043 H 643.001 -2.8645 -0.821622 0
M  V30 7044 H 640.538 -1.41718 -0.394248 0
M  V30 7045 H 642.496 -2.57262 -3.28439 0
M  V30 7046 H 641.126 -1.51766 -2.84898 0
M  V30 7047 H 640.178 -3.50766 -1.47199 0
M  V30 7048 H 641.49 -4.51007 -2.13059 0
M  V30 7049 H 640.644 -4.11979 -4.45374 0
M  V30 7050 H 639.383 -3.01885 -3.83036 0
M  V30 7051 H 638.388 -4.89853 -2.49649 0
M  V30 7052 H 639.613 -6.01626 -3.14997 0
M  V30 7053 H 637.559 -4.48337 -4.78884 0
M  V30 7054 H 637.476 -6.16463 -4.37618 0
M  V30 7055 H 638.744 -5.59975 -5.42263 0
M  V30 7056 N 642.974 0.416227 -1.52004 0
M  V30 7057 C 643.922 1.5272 -1.7544 0
M  V30 7058 C 644.916 1.57596 -0.621289 0
M  V30 7059 O 646.122 1.61087 -0.803172 0
M  V30 7060 H 642.497 0.507772 -0.554682 0
M  V30 7061 H 644.468 1.30136 -2.68528 0
M  V30 7062 C 643.217 2.90165 -1.91571 0
M  V30 7063 H 642.54 2.87154 -2.78178 0
M  V30 7064 H 643.98 3.67211 -2.11972 0
M  V30 7065 C 642.439 3.29947 -0.680942 0
M  V30 7066 O 642.969 4.01403 0.154527 0
M  V30 7067 N 641.175 2.8593 -0.518894 0
M  V30 7068 H 640.722 2.2795 -1.19986 0
M  V30 7069 H 640.68 3.12907 0.305985 0
M  V30 7070 N 644.452 1.42507 0.673017 0
M  V30 7071 C 645.382 1.48916 1.79851 0
M  V30 7072 C 646.363 0.345566 1.66553 0
M  V30 7073 O 647.548 0.560116 1.85947 0
M  V30 7074 C 644.678 1.39258 3.18158 0
M  V30 7075 C 643.632 2.51662 3.46194 0
M  V30 7076 C 642.958 2.27062 4.84094 0
M  V30 7077 C 644.258 3.93968 3.42909 0
M  V30 7078 H 645.952 2.43114 1.74745 0
M  V30 7079 H 643.498 1.17013 0.839288 0
M  V30 7080 H 645.451 1.42349 3.96629 0
M  V30 7081 H 644.175 0.415542 3.23946 0
M  V30 7082 H 642.834 2.47891 2.70084 0
M  V30 7083 H 642.482 1.27648 4.86534 0
M  V30 7084 H 642.182 3.02398 5.03815 0
M  V30 7085 H 643.706 2.31905 5.64847 0
M  V30 7086 H 645.12 3.99332 4.11347 0
M  V30 7087 H 643.517 4.6917 3.74165 0
M  V30 7088 H 644.587 4.20512 2.41449 0
M  V30 7089 N 645.93 -0.909495 1.28709 0
M  V30 7090 C 646.877 -2.01245 1.13 0
M  V30 7091 C 647.847 -1.6608 0.0259684 0
M  V30 7092 O 649.032 -1.89835 0.191687 0
M  V30 7093 C 646.172 -3.35644 0.802315 0
M  V30 7094 C 645.285 -3.83653 1.98582 0
M  V30 7095 C 644.42 -5.06582 1.59837 0
M  V30 7096 C 643.459 -5.46934 2.74827 0
M  V30 7097 N 642.596 -6.61053 2.36546 0
M  V30 7098 H 647.436 -2.14013 2.0737 0
M  V30 7099 H 644.973 -1.0482 1.03205 0
M  V30 7100 H 646.931 -4.12963 0.593057 0
M  V30 7101 H 645.561 -3.22631 -0.104457 0
M  V30 7102 H 644.613 -3.02454 2.30708 0
M  V30 7103 H 645.925 -4.09515 2.84779 0
M  V30 7104 H 645.079 -5.91457 1.35143 0
M  V30 7105 H 643.818 -4.82537 0.707753 0
M  V30 7106 H 642.823 -4.60599 3.00215 0
M  V30 7107 H 644.048 -5.72965 3.64538 0
M  V30 7108 H 641.994 -6.3863 1.49959 0
M  V30 7109 H 641.911 -6.86662 3.16277 0
M  V30 7110 H 643.179 -7.49221 2.15146 0
M  V30 7111 N 647.408 -1.11026 -1.11852 0
M  V30 7112 C 648.338 -0.786812 -2.19844 0
M  V30 7113 C 649.319 0.242935 -1.68356 0
M  V30 7114 O 650.504 0.107355 -1.93903 0
M  V30 7115 C 647.634 -0.224516 -3.46574 0
M  V30 7116 C 646.588 -1.18564 -4.1125 0
M  V30 7117 C 645.914 -0.484261 -5.32503 0
M  V30 7118 C 647.214 -2.53465 -4.56676 0
M  V30 7119 H 648.908 -1.68978 -2.47158 0
M  V30 7120 H 646.454 -0.813906 -1.18792 0
M  V30 7121 H 648.407 0.0139435 -4.21398 0
M  V30 7122 H 647.131 0.713722 -3.18706 0
M  V30 7123 H 645.79 -1.40966 -3.38414 0
M  V30 7124 H 645.438 0.458646 -5.00905 0
M  V30 7125 H 645.138 -1.12526 -5.76725 0
M  V30 7126 H 646.662 -0.254492 -6.10069 0
M  V30 7127 H 648.076 -2.35177 -5.22843 0
M  V30 7128 H 646.473 -3.13507 -5.11697 0
M  V30 7129 H 647.543 -3.13008 -3.70343 0
M  V30 7130 N 648.886 1.2938 -0.899927 0
M  V30 7131 C 650.134 1.95164 -0.524924 0
M  V30 7132 C 650.455 1.71292 0.931888 0
M  V30 7133 O 649.725 1.04481 1.65712 0
M  V30 7134 H 648.305 0.722133 -0.191135 0
M  V30 7135 H 650.967 1.57628 -1.14627 0
M  V30 7136 H 650.063 3.0397 -0.707711 0
M  V30 7137 N 650.364 0.662433 1.43002 0
M  V30 7138 C 651.613 0.176873 2.00923 0
M  V30 7139 C 651.926 -1.21954 1.52927 0
M  V30 7140 O 653.132 -1.80081 2.03182 0
M  V30 7141 C 651.588 0.265379 3.5892 0
M  V30 7142 C 651.196 1.66507 4.15908 0
M  V30 7143 C 652.94 -0.162103 4.2419 0
M  V30 7144 C 650.847 1.707 5.66229 0
M  V30 7145 H 649.777 0.0623627 0.751417 0
M  V30 7146 H 652.428 0.825813 1.63868 0
M  V30 7147 H 650.81 -0.451235 3.93421 0
M  V30 7148 H 651.984 2.40777 3.92891 0
M  V30 7149 H 650.299 2.03932 3.63044 0
M  V30 7150 H 652.896 -0.150745 5.34487 0
M  V30 7151 H 653.239 -1.19519 3.98774 0
M  V30 7152 H 653.772 0.503075 3.94606 0
M  V30 7153 H 650.511 2.7195 5.96426 0
M  V30 7154 H 650.031 1.00768 5.91275 0
M  V30 7155 H 651.71 1.45487 6.3043 0
M  V30 7156 N 651.842 -1.52309 0.404946 0
M  V30 7157 C 652.792 -2.23717 -0.439864 0
M  V30 7158 C 653.776 -1.24692 -1.0169 0
M  V30 7159 O 654.968 -1.49951 -0.940409 0
M  V30 7160 C 652.097 -3.05898 -1.55825 0
M  V30 7161 C 651.183 -4.12331 -0.992188 0
M  V30 7162 N 651.574 -5.0557 -0.152424 0
M  V30 7163 C 649.872 -4.2774 -1.26312 0
M  V30 7164 C 650.573 -5.81474 0.162041 0
M  V30 7165 N 649.549 -5.41767 -0.44601 0
M  V30 7166 H 653.351 -2.93162 0.208084 0
M  V30 7167 H 650.865 -1.60969 0.215131 0
M  V30 7168 H 652.862 -3.55605 -2.17603 0
M  V30 7169 H 651.522 -2.37991 -2.20886 0
M  V30 7170 H 652.533 -5.17468 0.211556 0
M  V30 7171 H 649.21 -3.71062 -1.91362 0
M  V30 7172 H 650.6 -6.66585 0.843423 0
M  V30 7173 N 653.32 -0.135238 -1.57019 0
M  V30 7174 C 654.23 0.822226 -2.19719 0
M  V30 7175 C 655.246 1.28057 -1.17802 0
M  V30 7176 O 656.422 1.3402 -1.50335 0
M  V30 7177 C 653.487 2.0484 -2.79717 0
M  V30 7178 C 652.548 1.64042 -3.96723 0
M  V30 7179 C 651.781 2.80814 -4.53849 0
M  V30 7180 O 652.004 3.967 -4.0986 0
M  V30 7181 O 650.938 2.56963 -5.44292 0
M  V30 7182 H 654.764 0.318552 -3.02025 0
M  V30 7183 H 652.349 0.0912021 -1.49121 0
M  V30 7184 H 654.231 2.76622 -3.17897 0
M  V30 7185 H 652.906 2.54182 -2.00432 0
M  V30 7186 H 651.813 0.893182 -3.63281 0
M  V30 7187 H 653.146 1.19426 -4.77492 0
M  V30 7188 N 654.798 1.5699 0.138552 0
M  V30 7189 C 656.075 1.74741 0.87891 0
M  V30 7190 C 656.455 0.705522 1.98961 0
M  V30 7191 O 655.803 -0.274066 2.2685 0
M  V30 7192 C 656.013 3.1909 1.4136 0
M  V30 7193 C 657.361 3.81023 1.87368 0
M  V30 7194 O 658.385 3.22571 1.51084 0
M  V30 7195 O 657.244 4.83722 2.54312 0
M  V30 7196 H 654.338 0.714781 0.415953 0
M  V30 7197 H 656.884 1.69248 0.123817 0
M  V30 7198 H 655.656 3.86424 0.61579 0
M  V30 7199 H 655.279 3.29043 2.23196 0
M  V30 7200 N 656.276 -0.40816 1.52223 0
M  V30 7201 C 657.501 -1.18127 1.70472 0
M  V30 7202 C 657.926 -1.83491 0.41384 0
M  V30 7203 O 657.284 -1.70047 -0.628778 0
M  V30 7204 C 657.332 -2.21935 2.84213 0
M  V30 7205 O 656.436 -3.28099 2.4985 0
M  V30 7206 H 655.777 -0.344781 0.56747 0
M  V30 7207 H 658.307 -0.478328 1.9893 0
M  V30 7208 H 658.317 -2.66248 3.09153 0
M  V30 7209 H 656.992 -1.73744 3.7787 0
M  V30 7210 H 655.569 -2.89058 2.35584 0
M  V30 7211 N 657.755 -1.42862 -0.66545 0
M  V30 7212 C 658.983 -1.47246 -1.45349 0
M  V30 7213 C 659.398 -0.0865944 -1.88601 0
M  V30 7214 O 658.755 0.900652 -1.58728 0
M  V30 7215 C 658.806 -2.40772 -2.6965 0
M  V30 7216 O 658.527 -3.73968 -2.2821 0
M  V30 7217 C 660.028 -2.54272 -3.63126 0
M  V30 7218 H 657.248 -0.500497 -0.446927 0
M  V30 7219 H 659.792 -1.87477 -0.816871 0
M  V30 7220 H 657.947 -2.0377 -3.29479 0
M  V30 7221 H 658.361 -4.24146 -3.08546 0
M  V30 7222 H 659.835 -3.23815 -4.47043 0
M  V30 7223 H 660.312 -1.58364 -4.09656 0
M  V30 7224 H 660.918 -2.92036 -3.09185 0
M  V30 7225 N 659.233 0.902656 -1.29189 0
M  V30 7226 C 660.181 2.0278 -1.13943 0
M  V30 7227 C 661.175 1.69308 -0.055787 0
M  V30 7228 O 662.381 1.78707 -0.215371 0
M  V30 7229 H 658.756 0.664595 -0.351877 0
M  V30 7230 H 660.727 2.12778 -2.09208 0
M  V30 7231 C 659.476 3.37657 -0.82966 0
M  V30 7232 H 658.799 3.63913 -1.65551 0
M  V30 7233 H 660.239 4.17078 -0.762998 0
M  V30 7234 C 658.698 3.33648 0.466991 0
M  V30 7235 O 659.228 3.72886 1.49395 0
M  V30 7236 N 657.434 2.86745 0.471761 0
M  V30 7237 H 656.981 2.55009 -0.364406 0
M  V30 7238 H 656.939 2.84446 1.33933 0
M  V30 7239 N 660.711 1.11618 1.11262 0
M  V30 7240 C 662.127 0.850468 1.35053 0
M  V30 7241 C 662.327 -0.523868 1.94571 0
M  V30 7242 O 661.383 -1.2743 2.17986 0
M  V30 7243 C 662.696 1.96005 2.28041 0
M  V30 7244 C 664.244 1.98993 2.416 0
M  V30 7245 C 664.719 3.0916 3.37911 0
M  V30 7246 N 666.21 3.08547 3.45475 0
M  V30 7247 C 666.945 3.9043 4.19943 0
M  V30 7248 N 666.441 4.8228 4.97371 0
M  V30 7249 N 668.234 3.786 4.15474 0
M  V30 7250 H 660.385 2.00184 0.709932 0
M  V30 7251 H 662.648 0.870635 0.375099 0
M  V30 7252 H 662.354 2.9499 1.91503 0
M  V30 7253 H 662.228 1.85782 3.28275 0
M  V30 7254 H 664.615 1.00633 2.77411 0
M  V30 7255 H 664.696 2.13292 1.4121 0
M  V30 7256 H 664.34 4.07748 3.02827 0
M  V30 7257 H 664.27 2.92102 4.3816 0
M  V30 7258 H 666.761 2.42 2.90249 0
M  V30 7259 H 667.074 5.41289 5.51567 0
M  V30 7260 H 665.419 4.863 4.96525 0
M  V30 7261 H 668.61 3.06185 3.54074 0
M  V30 7262 H 668.783 4.42647 4.73253 0
M  V30 7263 N 662.189 -1.289 0.906776 0
M  V30 7264 C 663.605 -1.47733 0.603902 0
M  V30 7265 C 663.805 -1.82568 -0.852702 0
M  V30 7266 O 662.861 -1.92642 -1.63234 0
M  V30 7267 C 664.174 -2.58522 1.53581 0
M  V30 7268 C 665.722 -2.72394 1.54177 0
M  V30 7269 C 666.197 -3.86318 2.46013 0
M  V30 7270 N 667.688 -3.93661 2.441 0
M  V30 7271 C 668.423 -4.81177 3.11859 0
M  V30 7272 N 667.919 -5.73333 3.88923 0
M  V30 7273 N 669.712 -4.74728 3.00981 0
M  V30 7274 H 661.863 -1.04567 1.84877 0
M  V30 7275 H 664.126 -0.520118 0.792579 0
M  V30 7276 H 663.832 -2.39667 2.57396 0
M  V30 7277 H 663.706 -3.55475 1.26165 0
M  V30 7278 H 666.093 -2.90641 0.511034 0
M  V30 7279 H 666.174 -1.75993 1.85634 0
M  V30 7280 H 665.818 -3.68826 3.49185 0
M  V30 7281 H 665.748 -4.82102 2.11862 0
M  V30 7282 H 668.239 -3.27751 1.88115 0
M  V30 7283 H 668.552 -6.36923 4.37663 0
M  V30 7284 H 666.897 -5.73196 3.93029 0
M  V30 7285 H 670.088 -4.01722 2.40286 0
M  V30 7286 H 670.261 -5.42719 3.54062 0
M  V30 7287 N 663.667 -0.670007 -1.42649 0
M  V30 7288 C 665.083 -0.33911 -1.55956 0
M  V30 7289 C 665.283 1.1558 -1.65056 0
M  V30 7290 O 664.339 1.94111 -1.61485 0
M  V30 7291 C 665.652 -1.06522 -2.812 0
M  V30 7292 C 667.2 -1.04708 -2.94966 0
M  V30 7293 C 667.675 -1.75442 -4.23065 0
M  V30 7294 N 669.166 -1.72286 -4.29967 0
M  V30 7295 C 669.901 -2.23877 -5.27889 0
M  V30 7296 N 669.397 -2.83829 -6.31991 0
M  V30 7297 N 671.19 -2.14279 -5.19654 0
M  V30 7298 H 663.341 -1.6399 -1.34986 0
M  V30 7299 H 665.604 -0.690603 -0.649439 0
M  V30 7300 H 665.31 -2.12033 -2.80597 0
M  V30 7301 H 665.184 -0.627398 -3.71946 0
M  V30 7302 H 667.571 -0.000315966 -2.951 0
M  V30 7303 H 667.652 -1.52374 -2.05465 0
M  V30 7304 H 667.296 -2.80084 -4.23693 0
M  V30 7305 H 667.226 -1.25229 -5.11493 0
M  V30 7306 H 669.717 -1.28554 -3.55362 0
M  V30 7307 H 670.03 -3.20827 -7.03057 0
M  V30 7308 H 668.375 -2.87896 -6.32567 0
M  V30 7309 H 671.566 -1.67135 -4.37245 0
M  V30 7310 H 671.739 -2.54792 -5.95806 0
M  V30 7311 N 665.145 1.52092 -0.413018 0
M  V30 7312 C 666.075 2.30021 0.401567 0
M  V30 7313 C 667.056 1.34395 1.04269 0
M  V30 7314 O 668.241 1.63304 1.05097 0
M  V30 7315 C 665.371 3.12447 1.51638 0
M  V30 7316 C 664.325 4.16153 1.00005 0
M  V30 7317 C 663.651 4.86948 2.20875 0
M  V30 7318 C 664.951 5.22275 0.0513757 0
M  V30 7319 H 666.645 2.98365 -0.248704 0
M  V30 7320 H 664.191 1.4349 -0.121052 0
M  V30 7321 H 666.144 3.65733 2.09326 0
M  V30 7322 H 664.868 2.41879 2.19458 0
M  V30 7323 H 663.527 3.63882 0.445549 0
M  V30 7324 H 663.175 4.12905 2.8726 0
M  V30 7325 H 662.875 5.57057 1.86978 0
M  V30 7326 H 664.399 5.43048 2.79162 0
M  V30 7327 H 665.813 5.70778 0.537176 0
M  V30 7328 H 664.21 5.9977 -0.198977 0
M  V30 7329 H 665.28 4.76611 -0.892736 0
M  V30 7330 N 666.623 0.143563 1.56945 0
M  V30 7331 C 667.848 -0.518701 2.00809 0
M  V30 7332 C 668.273 -1.5785 1.02298 0
M  V30 7333 O 667.631 -1.813 -0.0017839 0
M  V30 7334 C 667.679 -1.09929 3.43436 0
M  V30 7335 O 666.783 -2.21425 3.47915 0
M  V30 7336 H 666.124 -0.127215 0.6517 0
M  V30 7337 H 668.654 0.239283 2.03196 0
M  V30 7338 H 668.664 -1.4288 3.82164 0
M  V30 7339 H 667.339 -0.323162 4.14643 0
M  V30 7340 H 665.916 -1.89728 3.21026 0
M  V30 7341 N 668.101 -1.57061 -0.130224 0
M  V30 7342 C 669.011 -2.02802 -1.17934 0
M  V30 7343 C 670.027 -0.946378 -1.46013 0
M  V30 7344 O 671.203 -1.25708 -1.57351 0
M  V30 7345 C 668.268 -2.41368 -2.48882 0
M  V30 7346 C 667.329 -3.63561 -2.28301 0
M  V30 7347 C 666.562 -4.00279 -3.53005 0
M  V30 7348 O 666.785 -3.37463 -4.59864 0
M  V30 7349 O 665.719 -4.93441 -3.44673 0
M  V30 7350 H 669.545 -2.92394 -0.820958 0
M  V30 7351 H 667.13 -1.45475 -0.340197 0
M  V30 7352 H 669.012 -2.66958 -3.26054 0
M  V30 7353 H 667.687 -1.54926 -2.84217 0
M  V30 7354 H 666.594 -3.43136 -1.49025 0
M  V30 7355 H 667.927 -4.50673 -1.97875 0
M  V30 7356 N 669.579 0.400081 -1.52437 0
M  V30 7357 C 670.509 1.4947 -1.7939 0
M  V30 7358 C 671.49 1.57383 -0.645329 0
M  V30 7359 O 672.675 1.72511 -0.891826 0
M  V30 7360 C 669.805 2.87201 -1.95276 0
M  V30 7361 C 668.759 2.94134 -3.10917 0
M  V30 7362 C 668.085 4.34207 -3.1204 0
M  V30 7363 C 669.385 2.64791 -4.50203 0
M  V30 7364 H 671.079 1.27165 -2.71052 0
M  V30 7365 H 668.625 0.610312 -1.30427 0
M  V30 7366 H 670.578 3.63772 -2.12715 0
M  V30 7367 H 669.302 3.10819 -1.00294 0
M  V30 7368 H 667.961 2.20009 -2.93243 0
M  V30 7369 H 667.609 4.54848 -2.14761 0
M  V30 7370 H 667.309 4.39768 -3.89715 0
M  V30 7371 H 668.833 5.127 -3.31619 0
M  V30 7372 H 670.247 3.31083 -4.68035 0
M  V30 7373 H 668.644 2.81717 -5.29864 0
M  V30 7374 H 669.714 1.60184 -4.57678 0
M  V30 7375 N 671.057 1.43213 0.657864 0
M  V30 7376 C 671.987 1.50815 1.78262 0
M  V30 7377 C 672.968 0.363211 1.66177 0
M  V30 7378 O 674.153 0.579806 1.85343 0
M  V30 7379 C 671.283 1.42625 3.16663 0
M  V30 7380 C 670.237 2.5532 3.43505 0
M  V30 7381 C 669.563 2.32184 4.81658 0
M  V30 7382 C 670.863 3.97583 3.38711 0
M  V30 7383 H 672.557 2.44954 1.72157 0
M  V30 7384 H 670.103 1.17896 0.82683 0
M  V30 7385 H 672.056 1.46548 3.95097 0
M  V30 7386 H 670.78 0.449877 3.23487 0
M  V30 7387 H 669.439 2.50742 2.6744 0
M  V30 7388 H 669.087 1.32801 4.85153 0
M  V30 7389 H 668.787 3.07724 5.00579 0
M  V30 7390 H 670.311 2.37883 5.62356 0
M  V30 7391 H 671.725 4.03673 4.07089 0
M  V30 7392 H 670.122 4.73112 3.69168 0
M  V30 7393 H 671.192 4.23049 2.36976 0
M  V30 7394 N 672.536 -0.895792 1.29666 0
M  V30 7395 C 673.952 -1.17726 1.07763 0
M  V30 7396 C 674.152 -2.00794 -0.168576 0
M  V30 7397 O 673.208 -2.37213 -0.865244 0
M  V30 7398 C 674.521 -1.89441 2.33522 0
M  V30 7399 C 676.069 -2.02251 2.3888 0
M  V30 7400 C 676.544 -2.77378 3.64452 0
M  V30 7401 N 678.035 -2.8493 3.65198 0
M  V30 7402 C 678.77 -3.43606 4.59045 0
M  V30 7403 N 678.266 -4.03417 5.63228 0
M  V30 7404 N 680.059 -3.41317 4.46608 0
M  V30 7405 H 672.21 -0.341652 2.09634 0
M  V30 7406 H 674.473 -0.213865 0.923561 0
M  V30 7407 H 674.179 -1.35842 3.24407 0
M  V30 7408 H 674.053 -2.89893 2.41334 0
M  V30 7409 H 676.44 -2.55025 1.4848 0
M  V30 7410 H 676.521 -1.0092 2.3505 0
M  V30 7411 H 676.165 -2.25279 4.55205 0
M  V30 7412 H 676.095 -3.79062 3.65541 0
M  V30 7413 H 678.586 -2.42453 2.89871 0
M  V30 7414 H 678.899 -4.46224 6.30955 0
M  V30 7415 H 677.244 -4.01868 5.67033 0
M  V30 7416 H 680.435 -2.93812 3.64407 0
M  V30 7417 H 680.608 -3.86751 5.1993 0
M  V30 7418 N 674.014 -1.12206 -1.10668 0
M  V30 7419 C 675.244 -0.897332 -1.86095 0
M  V30 7420 C 675.652 0.556778 -1.80822 0
M  V30 7421 O 674.995 1.39658 -1.19337 0
M  V30 7422 C 675.057 -1.29095 -3.35522 0
M  V30 7423 C 674.721 -2.75586 -3.64556 0
M  V30 7424 C 675.718 -3.73785 -3.6136 0
M  V30 7425 C 673.403 -3.12432 -3.93309 0
M  V30 7426 C 675.397 -5.06845 -3.86506 0
M  V30 7427 C 673.084 -4.45675 -4.18111 0
M  V30 7428 C 674.082 -5.42691 -4.147 0
M  V30 7429 O 673.77 -6.73532 -4.38873 0
M  V30 7430 H 673.502 -0.320704 -0.595084 0
M  V30 7431 H 676.056 -1.49517 -1.40833 0
M  V30 7432 H 674.286 -0.636299 -3.81429 0
M  V30 7433 H 675.975 -1.04073 -3.92331 0
M  V30 7434 H 676.741 -3.46664 -3.39189 0
M  V30 7435 H 672.62 -2.3753 -3.95096 0
M  V30 7436 H 676.164 -5.82559 -3.83758 0
M  V30 7437 H 672.061 -4.72526 -4.39761 0
M  V30 7438 H 672.829 -6.79442 -4.564 0
M  V30 7439 N 675.492 1.28418 -0.913599 0
M  V30 7440 C 676.442 2.24928 -0.373042 0
M  V30 7441 C 677.426 1.52444 0.514753 0
M  V30 7442 O 678.618 1.73414 0.3545 0
M  V30 7443 C 675.747 3.41124 0.385896 0
M  V30 7444 C 674.833 4.20929 -0.51761 0
M  V30 7445 N 675.224 4.78777 -1.63113 0
M  V30 7446 C 673.522 4.44865 -0.317969 0
M  V30 7447 C 674.223 5.38822 -2.19193 0
M  V30 7448 N 673.199 5.22974 -1.48321 0
M  V30 7449 H 677.001 2.67224 -1.22346 0
M  V30 7450 H 674.515 1.43187 -0.766236 0
M  V30 7451 H 676.512 4.09347 0.789997 0
M  V30 7452 H 675.172 3.00362 1.23341 0
M  V30 7453 H 676.183 4.77148 -2.01372 0
M  V30 7454 H 672.86 4.14614 0.49004 0
M  V30 7455 H 674.25 5.94615 -3.12861 0
M  V30 7456 N 676.97 0.677563 1.42291 0
M  V30 7457 C 678.198 0.209459 2.05837 0
M  V30 7458 C 678.613 -1.13444 1.50917 0
M  V30 7459 O 677.97 -1.70529 0.65008 0
M  V30 7460 C 678.021 0.138819 3.61233 0
M  V30 7461 O 677.742 1.42962 4.14118 0
M  V30 7462 C 679.243 -0.352449 4.41897 0
M  V30 7463 H 676.463 0.101209 0.663323 0
M  V30 7464 H 679.007 0.925077 1.8238 0
M  V30 7465 H 677.162 -0.527505 3.83792 0
M  V30 7466 H 677.576 1.3048 5.08011 0
M  V30 7467 H 679.05 -0.350778 5.50884 0
M  V30 7468 H 679.527 -1.3882 4.16684 0
M  V30 7469 H 680.133 0.282236 4.24362 0
M  V30 7470 N 678.448 -1.51871 0.421078 0
M  V30 7471 C 679.673 -2.0684 -0.152371 0
M  V30 7472 C 680.098 -1.28802 -1.37083 0
M  V30 7473 O 679.456 -0.321482 -1.78427 0
M  V30 7474 C 679.504 -3.57532 -0.469368 0
M  V30 7475 O 678.608 -3.81818 -1.55848 0
M  V30 7476 H 677.949 -0.663939 -0.00898586 0
M  V30 7477 H 680.479 -1.95674 0.597724 0
M  V30 7478 H 680.489 -4.01515 -0.724553 0
M  V30 7479 H 679.164 -4.13761 0.421276 0
M  V30 7480 H 677.741 -3.49709 -1.29453 0
M  V30 7481 N 679.926 -0.151884 -1.56866 0
M  V30 7482 C 680.858 0.817008 -2.14144 0
M  V30 7483 C 681.871 1.20735 -1.0921 0
M  V30 7484 O 683.06 1.15058 -1.36469 0
M  V30 7485 C 680.16 2.10844 -2.65326 0
M  V30 7486 C 679.333 1.88471 -3.94712 0
M  V30 7487 C 678.392 3.01649 -4.31155 0
M  V30 7488 O 677.418 2.73127 -4.9939 0
M  V30 7489 N 678.62 4.28947 -3.91132 0
M  V30 7490 H 681.385 0.327448 -2.97906 0
M  V30 7491 H 678.946 0.0315313 -1.61869 0
M  V30 7492 H 680.938 2.85616 -2.86715 0
M  V30 7493 H 679.508 2.51049 -1.86262 0
M  V30 7494 H 678.728 0.977088 -3.81899 0
M  V30 7495 H 680.016 1.70866 -4.79252 0
M  V30 7496 H 679.414 4.54986 -3.36161 0
M  V30 7497 H 677.971 5.00484 -4.17563 0
M  V30 7498 N 681.404 1.57128 0.121893 0
M  V30 7499 C 682.629 1.89254 0.848385 0
M  V30 7500 C 683.054 0.743527 1.72781 0
M  V30 7501 O 682.412 -0.306056 1.78698 0
M  V30 7502 C 682.46 3.20113 1.66012 0
M  V30 7503 O 681.564 3.05815 2.76679 0
M  V30 7504 H 680.905 0.621103 0.234793 0
M  V30 7505 H 683.435 2.0433 0.10516 0
M  V30 7506 H 683.445 3.52761 2.04996 0
M  V30 7507 H 682.12 4.03336 1.01452 0
M  V30 7508 H 680.697 2.84627 2.40918 0
M  V30 7509 N 682.882 -0.391992 1.52647 0
M  V30 7510 C 684.13 -1.13507 1.67214 0
M  V30 7511 C 684.451 -1.90575 0.41304 0
M  V30 7512 O 683.721 -1.87348 -0.572498 0
M  V30 7513 H 682.301 -0.422013 0.616372 0
M  V30 7514 H 684.963 -0.44502 1.89751 0
M  V30 7515 H 684.059 -1.83964 2.52118 0
M  V30 7516 N 684.36 -1.4356 -0.65026 0
M  V30 7517 C 685.637 -1.35811 -1.40765 0
M  V30 7518 C 686.017 -0.00736379 -2.11099 0
M  V30 7519 O 685.365 1.00932 -2.05 0
M  V30 7520 C 685.575 -2.54332 -2.3899 0
M  V30 7521 C 686.923 -2.97551 -3.02901 0
M  V30 7522 O 687.947 -2.544 -2.49317 0
M  V30 7523 O 686.806 -3.72311 -4.00059 0
M  V30 7524 H 683.9 -0.536861 -0.629054 0
M  V30 7525 H 686.446 -1.55615 -0.676919 0
M  V30 7526 H 685.218 -3.44274 -1.85986 0
M  V30 7527 H 684.841 -2.36643 -3.19509 0
M  V30 7528 N 685.838 0.888903 -1.30139 0
M  V30 7529 C 686.748 2.02705 -1.18101 0
M  V30 7530 C 687.764 1.73702 -0.101809 0
M  V30 7531 O 688.94 1.98906 -0.315984 0
M  V30 7532 C 686.005 3.35616 -0.869651 0
M  V30 7533 C 685.066 3.78067 -2.03381 0
M  V30 7534 C 684.299 5.04635 -1.73721 0
M  V30 7535 O 684.522 5.66531 -0.663267 0
M  V30 7536 O 683.456 5.43399 -2.58845 0
M  V30 7537 H 687.282 2.15788 -2.13704 0
M  V30 7538 H 684.867 1.01426 -1.09695 0
M  V30 7539 H 686.749 4.15358 -0.711043 0
M  V30 7540 H 685.424 3.23651 0.0565002 0
M  V30 7541 H 684.331 2.99046 -2.24772 0
M  V30 7542 H 685.664 3.94631 -2.94155 0
M  V30 7543 N 687.317 1.12792 1.10072 0
M  V30 7544 C 688.25 0.742921 2.15768 0
M  V30 7545 C 689.228 -0.267714 1.60381 0
M  V30 7546 O 690.412 -0.160782 1.87813 0
M  V30 7547 C 687.539 0.100244 3.38552 0
M  V30 7548 C 686.585 1.07831 4.12644 0
M  V30 7549 S 687.418 2.60765 4.6772 0
M  V30 7550 C 688.574 1.97838 5.9381 0
M  V30 7551 H 688.807 1.63822 2.48092 0
M  V30 7552 H 686.34 0.947385 1.21918 0
M  V30 7553 H 688.298 -0.264175 4.09649 0
M  V30 7554 H 686.959 -0.772223 3.04459 0
M  V30 7555 H 686.152 0.576325 5.00694 0
M  V30 7556 H 685.754 1.38586 3.47376 0
M  V30 7557 H 688.046 1.32341 6.64449 0
M  V30 7558 H 688.989 2.83943 6.48677 0
M  V30 7559 H 689.397 1.43267 5.46017 0
M  V30 7560 N 688.795 -1.27931 0.920396 0
M  V30 7561 C 690.023 -1.98805 0.573087 0
M  V30 7562 C 690.438 -1.68724 -0.847201 0
M  V30 7563 O 689.795 -0.943699 -1.56207 0
M  V30 7564 C 689.846 -3.52971 0.780633 0
M  V30 7565 O 689.567 -3.81994 2.14504 0
M  V30 7566 C 691.068 -4.411 0.44105 0
M  V30 7567 H 688.288 -0.634651 0.21785 0
M  V30 7568 H 690.832 -1.62965 1.23542 0
M  V30 7569 H 688.987 -3.87048 0.165204 0
M  V30 7570 H 689.401 -4.76609 2.18962 0
M  V30 7571 H 690.875 -5.48312 0.637006 0
M  V30 7572 H 691.352 -4.34758 -0.62306 0
M  V30 7573 H 691.958 -4.12532 1.0343 0
M  V30 7574 N 690.273 -0.685099 -1.4193 0
M  V30 7575 C 691.498 -0.218842 -2.06242 0
M  V30 7576 C 691.923 1.11923 -1.51178 0
M  V30 7577 O 691.281 1.69837 -0.634446 0
M  V30 7578 C 691.329 -0.175592 -3.60172 0
M  V30 7579 O 690.433 0.852776 -4.03487 0
M  V30 7580 H 689.774 -0.109531 -0.654904 0
M  V30 7581 H 692.304 -0.937013 -1.81882 0
M  V30 7582 H 692.314 -0.00291151 -4.08 0
M  V30 7583 H 690.989 -1.15222 -3.99621 0
M  V30 7584 H 689.566 0.650301 -3.67186 0
M  V30 7585 N 691.751 1.51645 -0.429126 0
M  V30 7586 C 692.681 2.30434 0.377148 0
M  V30 7587 C 693.662 1.35493 1.02838 0
M  V30 7588 O 694.847 1.6441 1.03359 0
M  V30 7589 C 691.977 3.14038 1.48315 0
M  V30 7590 C 690.931 4.1719 0.955855 0
M  V30 7591 C 690.257 4.89263 2.15698 0
M  V30 7592 C 691.557 5.223 -0.00402136 0
M  V30 7593 H 693.251 2.98085 -0.280336 0
M  V30 7594 H 690.797 1.43354 -0.136265 0
M  V30 7595 H 692.75 3.67933 2.05435 0
M  V30 7596 H 691.474 2.44193 2.16881 0
M  V30 7597 H 690.133 3.64335 0.406929 0
M  V30 7598 H 689.781 4.15929 2.82864 0
M  V30 7599 H 689.481 5.59009 1.81059 0
M  V30 7600 H 691.005 5.45978 2.73387 0
M  V30 7601 H 692.419 5.71315 0.476607 0
M  V30 7602 H 690.816 5.99525 -0.26258 0
M  V30 7603 H 691.886 4.75638 -0.943236 0
M  V30 7604 N 693.229 0.160201 1.56784 0
M  V30 7605 C 694.454 -0.497373 2.01348 0
M  V30 7606 C 694.879 -1.56757 1.03966 0
M  V30 7607 O 694.237 -1.81292 0.0174455 0
M  V30 7608 C 694.285 -1.0628 3.44582 0
M  V30 7609 O 693.389 -2.17723 3.50244 0
M  V30 7610 H 692.73 -0.120295 0.653012 0
M  V30 7611 H 695.26 0.260821 2.02931 0
M  V30 7612 H 695.27 -1.38819 3.83658 0
M  V30 7613 H 693.945 -0.279166 4.14962 0
M  V30 7614 H 692.522 -1.86313 3.2302 0
M  V30 7615 N 694.707 -1.5719 -0.113559 0
M  V30 7616 C 695.617 -2.04041 -1.15777 0
M  V30 7617 C 696.633 -0.961812 -1.45001 0
M  V30 7618 O 697.809 -1.2737 -1.56009 0
M  V30 7619 C 694.874 -2.43994 -2.46308 0
M  V30 7620 C 693.935 -3.65962 -2.24433 0
M  V30 7621 C 693.168 -4.04 -3.4874 0
M  V30 7622 O 693.391 -3.42321 -4.56259 0
M  V30 7623 O 692.325 -4.97069 -3.3942 0
M  V30 7624 H 696.151 -2.93248 -0.789899 0
M  V30 7625 H 693.736 -1.45828 -0.324748 0
M  V30 7626 H 695.618 -2.70401 -3.23204 0
M  V30 7627 H 694.293 -1.57932 -2.82558 0
M  V30 7628 H 693.2 -3.44697 -1.45377 0
M  V30 7629 H 694.533 -4.52746 -1.93084 0
M  V30 7630 N 696.185 0.383891 -1.52853 0
M  V30 7631 C 697.415 1.14783 -1.7178 0
M  V30 7632 C 697.823 1.84055 -0.438211 0
M  V30 7633 O 697.166 1.73713 0.597465 0
M  V30 7634 C 697.228 2.23543 -2.81547 0
M  V30 7635 C 696.892 1.74195 -4.22499 0
M  V30 7636 C 697.889 1.21591 -5.05481 0
M  V30 7637 C 695.574 1.80262 -4.6884 0
M  V30 7638 C 697.568 0.757104 -6.32888 0
M  V30 7639 C 695.255 1.33993 -5.96229 0
M  V30 7640 C 696.253 0.818049 -6.78083 0
M  V30 7641 O 695.941 0.362123 -8.03084 0
M  V30 7642 H 695.673 0.349908 -0.578395 0
M  V30 7643 H 698.227 0.454377 -2.00311 0
M  V30 7644 H 696.457 2.96328 -2.48449 0
M  V30 7645 H 698.146 2.8519 -2.88828 0
M  V30 7646 H 698.912 1.16257 -4.7086 0
M  V30 7647 H 694.791 2.19825 -4.05213 0
M  V30 7648 H 698.335 0.34908 -6.96726 0
M  V30 7649 H 694.232 1.39015 -6.30353 0
M  V30 7650 H 695 0.483134 -8.17073 0
M  V30 7651 N 697.663 1.43903 0.642637 0
M  V30 7652 C 698.909 1.46296 1.40447 0
M  V30 7653 C 699.242 0.0908361 1.93987 0
M  V30 7654 O 698.517 -0.889884 1.72949 0
M  V30 7655 C 698.8 2.51399 2.57819 0
M  V30 7656 C 698.653 3.97926 2.09702 0
M  V30 7657 C 699.972 2.53125 3.60022 0
M  V30 7658 H 697.091 0.532676 0.509338 0
M  V30 7659 H 699.733 1.75515 0.727635 0
M  V30 7660 H 697.883 2.26614 3.1556 0
M  V30 7661 H 699.555 4.33804 1.5688 0
M  V30 7662 H 697.798 4.10252 1.40982 0
M  V30 7663 H 698.469 4.67096 2.94152 0
M  V30 7664 H 700.945 2.75242 3.12059 0
M  V30 7665 H 699.821 3.28589 4.39682 0
M  V30 7666 H 700.082 1.56895 4.13324 0
M  V30 7667 N 699.141 -0.881989 1.30609 0
M  V30 7668 C 700.366 -1.67236 1.22665 0
M  V30 7669 C 700.791 -1.8696 -0.206777 0
M  V30 7670 O 700.149 -1.4027 -1.14865 0
M  V30 7671 C 700.197 -3.02446 1.96363 0
M  V30 7672 O 699.301 -3.91614 1.29276 0
M  V30 7673 H 698.642 -0.510902 0.424117 0
M  V30 7674 H 701.172 -1.10055 1.72479 0
M  V30 7675 H 701.182 -3.52468 2.055 0
M  V30 7676 H 699.857 -2.8741 3.00613 0
M  V30 7677 H 698.434 -3.50055 1.28514 0
M  V30 7678 N 700.619 -1.13374 -1.09472 0
M  V30 7679 C 702.035 -0.871846 -1.33682 0
M  V30 7680 C 702.235 0.492847 -1.9538 0
M  V30 7681 O 701.291 1.23946 -2.19985 0
M  V30 7682 C 702.604 -1.99608 -2.24893 0
M  V30 7683 C 704.152 -2.02812 -2.38404 0
M  V30 7684 C 704.627 -3.14497 -3.3295 0
M  V30 7685 N 706.118 -3.14004 -3.40523 0
M  V30 7686 C 706.853 -3.97061 -4.13679 0
M  V30 7687 N 706.349 -4.90131 -4.89636 0
M  V30 7688 N 708.142 -3.85162 -4.09398 0
M  V30 7689 H 700.293 -2.01288 -0.677995 0
M  V30 7690 H 702.556 -0.876492 -0.361201 0
M  V30 7691 H 702.262 -2.98 -1.86786 0
M  V30 7692 H 702.136 -1.90981 -3.25278 0
M  V30 7693 H 704.523 -1.05034 -2.75775 0
M  V30 7694 H 704.604 -2.15511 -1.37799 0
M  V30 7695 H 704.248 -4.12514 -2.96302 0
M  V30 7696 H 704.178 -2.99035 -4.33458 0
M  V30 7697 H 706.669 -2.46587 -2.86362 0
M  V30 7698 H 706.982 -5.49996 -5.42885 0
M  V30 7699 H 705.327 -4.94138 -4.88726 0
M  V30 7700 H 708.518 -3.11779 -3.49158 0
M  V30 7701 H 708.691 -4.5012 -4.6615 0
M  V30 7702 N 702.098 1.27442 -0.927168 0
M  V30 7703 C 703.031 2.25177 -0.370232 0
M  V30 7704 C 704.009 1.53612 0.533103 0
M  V30 7705 O 705.193 1.8245 0.47373 0
M  V30 7706 C 702.32 3.35431 0.469411 0
M  V30 7707 C 701.366 4.24888 -0.370419 0
M  V30 7708 S 702.199 5.04852 -1.78562 0
M  V30 7709 C 703.355 6.18592 -0.953651 0
M  V30 7710 H 703.588 2.72069 -1.19858 0
M  V30 7711 H 701.121 1.36089 -0.729316 0
M  V30 7712 H 703.079 3.99404 0.947992 0
M  V30 7713 H 701.74 2.87179 1.27228 0
M  V30 7714 H 700.933 5.03264 0.272226 0
M  V30 7715 H 700.535 3.65709 -0.783153 0
M  V30 7716 H 702.827 6.77235 -0.189408 0
M  V30 7717 H 703.77 6.87132 -1.7104 0
M  V30 7718 H 704.178 5.62318 -0.495897 0
M  V30 7719 N 703.576 0.692616 1.41565 0
M  V30 7720 C 704.523 0.0254264 2.30786 0
M  V30 7721 C 705.493 -0.774347 1.46946 0
M  V30 7722 O 706.678 -0.742981 1.7574 0
M  V30 7723 C 703.818 -0.907123 3.32964 0
M  V30 7724 C 702.931 -0.0992784 4.31886 0
M  V30 7725 C 702.066 -1.0292 5.21134 0
M  V30 7726 C 701.105 -0.214088 6.11725 0
M  V30 7727 N 700.242 -1.09766 6.93467 0
M  V30 7728 H 705.082 0.792036 2.87282 0
M  V30 7729 H 702.619 0.4023 1.41492 0
M  V30 7730 H 704.577 -1.46181 3.90752 0
M  V30 7731 H 703.207 -1.64016 2.78026 0
M  V30 7732 H 702.259 0.572287 3.76071 0
M  V30 7733 H 703.571 0.532782 4.95946 0
M  V30 7734 H 702.725 -1.65321 5.83741 0
M  V30 7735 H 701.464 -1.69512 4.57293 0
M  V30 7736 H 700.469 0.42302 5.4817 0
M  V30 7737 H 701.694 0.447995 6.77621 0
M  V30 7738 H 699.64 -1.74965 6.32237 0
M  V30 7739 H 699.557 -0.521099 7.54202 0
M  V30 7740 H 700.825 -1.70858 7.60544 0
M  V30 7741 N 705.054 -1.51416 0.437162 0
M  V30 7742 C 705.964 -2.31493 -0.380537 0
M  V30 7743 C 706.98 -1.40399 -1.02782 0
M  V30 7744 O 708.156 -1.73471 -1.02323 0
M  V30 7745 C 705.221 -3.1413 -1.46709 0
M  V30 7746 C 704.282 -4.21003 -0.839953 0
M  V30 7747 C 703.515 -4.9969 -1.87473 0
M  V30 7748 O 703.738 -4.79008 -3.09689 0
M  V30 7749 O 702.672 -5.8379 -1.46536 0
M  V30 7750 H 706.498 -3.02469 0.273183 0
M  V30 7751 H 704.083 -1.48059 0.199706 0
M  V30 7752 H 705.965 -3.65505 -2.09724 0
M  V30 7753 H 704.64 -2.45919 -2.10489 0
M  V30 7754 H 703.547 -3.73706 -0.171752 0
M  V30 7755 H 704.88 -4.91587 -0.245638 0
M  V30 7756 N 706.532 -0.168513 -1.56696 0
M  V30 7757 C 707.76 0.483503 -2.01171 0
M  V30 7758 C 708.175 1.56994 -1.04872 0
M  V30 7759 O 707.532 1.82434 -0.0491337 0
M  V30 7760 C 707.583 1.0644 -3.45475 0
M  V30 7761 O 707.304 0.0213375 -4.38095 0
M  V30 7762 C 708.805 1.79493 -4.05336 0
M  V30 7763 H 706.025 0.124002 -0.659443 0
M  V30 7764 H 708.569 -0.269419 -2.02717 0
M  V30 7765 H 706.724 1.76784 -3.44712 0
M  V30 7766 H 707.138 0.449837 -5.22567 0
M  V30 7767 H 708.612 2.15401 -5.08238 0
M  V30 7768 H 709.089 2.68889 -3.47269 0
M  V30 7769 H 709.695 1.13798 -4.09793 0
M  V30 7770 N 708.01 1.57248 0.105221 0
M  V30 7771 C 708.942 1.98008 1.15436 0
M  V30 7772 C 709.955 0.881236 1.36887 0
M  V30 7773 O 711.144 1.15943 1.35718 0
M  V30 7774 C 708.244 2.27509 2.51183 0
M  V30 7775 C 707.417 3.58811 2.50147 0
M  V30 7776 C 706.476 3.76365 3.67745 0
M  V30 7777 O 705.502 4.48329 3.50699 0
M  V30 7778 N 706.704 3.16174 4.86841 0
M  V30 7779 H 709.469 2.88616 0.807519 0
M  V30 7780 H 707.03 1.59202 0.29433 0
M  V30 7781 H 709.022 2.36455 3.28438 0
M  V30 7782 H 707.592 1.42959 2.77995 0
M  V30 7783 H 706.812 3.60927 1.5851 0
M  V30 7784 H 708.1 4.45088 2.46524 0
M  V30 7785 H 707.498 2.57701 5.03594 0
M  V30 7786 H 706.055 3.30621 5.61723 0
M  V30 7787 N 709.488 -0.375779 1.53054 0
M  V30 7788 C 710.435 -1.45978 1.78771 0
M  V30 7789 C 711.405 -1.53625 0.631552 0
M  V30 7790 O 712.59 -1.69674 0.872667 0
M  V30 7791 C 709.73 -2.8305 1.97425 0
M  V30 7792 C 708.843 -2.84451 3.25134 0
M  V30 7793 C 707.978 -4.13034 3.34031 0
M  V30 7794 C 707.017 -4.08536 4.55812 0
M  V30 7795 N 706.154 -5.2875 4.61918 0
M  V30 7796 H 710.994 -1.23349 2.71273 0
M  V30 7797 H 708.531 -0.598147 1.3439 0
M  V30 7798 H 710.489 -3.62666 2.06225 0
M  V30 7799 H 709.119 -3.04101 1.0827 0
M  V30 7800 H 708.171 -1.97127 3.25338 0
M  V30 7801 H 709.483 -2.76998 4.14818 0
M  V30 7802 H 708.637 -5.0106 3.42087 0
M  V30 7803 H 707.376 -4.23226 2.42345 0
M  V30 7804 H 706.381 -3.18897 4.47867 0
M  V30 7805 H 707.606 -3.99955 5.48828 0
M  V30 7806 H 705.552 -5.39547 3.73129 0
M  V30 7807 H 705.469 -5.23426 5.45492 0
M  V30 7808 H 706.737 -6.18637 4.74245 0
M  V30 7809 N 710.966 -1.44241 -0.634997 0
M  V30 7810 C 712.191 -1.50516 -1.42687 0
M  V30 7811 C 712.616 -0.129864 -1.87651 0
M  V30 7812 O 711.974 0.880164 -1.58502 0
M  V30 7813 C 712.022 -2.4714 -2.62591 0
M  V30 7814 O 711.126 -1.97025 -3.62291 0
M  V30 7815 H 710.467 -0.50841 -0.427101 0
M  V30 7816 H 712.997 -1.89337 -0.775408 0
M  V30 7817 H 713.007 -2.65048 -3.10183 0
M  V30 7818 H 711.682 -3.47039 -2.29209 0
M  V30 7819 H 710.259 -1.88866 -3.21534 0
M  V30 7820 N 712.444 0.87505 -1.31075 0
M  V30 7821 C 713.693 1.62245 -1.19831 0
M  V30 7822 C 714.006 1.94078 0.24357 0
M  V30 7823 O 715.212 2.67265 0.477646 0
M  V30 7824 C 713.668 2.92464 -2.09744 0
M  V30 7825 C 713.276 2.68134 -3.58898 0
M  V30 7826 C 715.02 3.70449 -2.07287 0
M  V30 7827 C 712.927 3.9423 -4.40836 0
M  V30 7828 H 711.857 0.608741 -0.444916 0
M  V30 7829 H 714.508 0.967947 -1.55894 0
M  V30 7830 H 712.89 3.59262 -1.66574 0
M  V30 7831 H 714.064 2.09776 -4.10281 0
M  V30 7832 H 712.379 2.03511 -3.6328 0
M  V30 7833 H 714.976 4.63983 -2.65752 0
M  V30 7834 H 715.319 4.02611 -1.05876 0
M  V30 7835 H 715.852 3.10528 -2.48631 0
M  V30 7836 H 712.591 3.67221 -5.42982 0
M  V30 7837 H 712.111 4.52058 -3.94213 0
M  V30 7838 H 713.79 4.62162 -4.52786 0
M  V30 7839 N 713.922 1.13953 1.08869 0
M  V30 7840 C 715.152 0.926825 1.84644 0
M  V30 7841 C 715.56 -0.527941 1.81685 0
M  V30 7842 O 714.903 -1.37742 1.21543 0
M  V30 7843 C 714.965 1.34416 3.33426 0
M  V30 7844 C 714.629 2.81351 3.60126 0
M  V30 7845 C 715.626 3.79486 3.55368 0
M  V30 7846 C 713.311 3.1865 3.88288 0
M  V30 7847 C 715.305 5.1293 3.78393 0
M  V30 7848 C 712.992 4.5227 4.10968 0
M  V30 7849 C 713.99 5.4922 4.06013 0
M  V30 7850 O 713.678 6.80429 4.28102 0
M  V30 7851 H 713.41 0.33013 0.589907 0
M  V30 7852 H 715.964 1.51738 1.38436 0
M  V30 7853 H 714.194 0.696901 3.80368 0
M  V30 7854 H 715.883 1.10302 3.90626 0
M  V30 7855 H 716.649 3.52017 3.3363 0
M  V30 7856 H 712.528 2.43785 3.91267 0
M  V30 7857 H 716.072 5.88591 3.74442 0
M  V30 7858 H 711.969 4.79462 4.32188 0
M  V30 7859 H 712.737 6.86617 4.45533 0
M  V30 7860 N 715.4 -1.26948 0.933913 0
M  V30 7861 C 716.63 -1.97898 0.593279 0
M  V30 7862 C 717.038 -1.69806 -0.834412 0
M  V30 7863 O 716.381 -0.958704 -1.56699 0
M  V30 7864 C 716.443 -3.51657 0.746825 0
M  V30 7865 C 716.107 -4.03384 2.14779 0
M  V30 7866 C 717.104 -4.15682 3.12257 0
M  V30 7867 C 714.789 -4.37577 2.46641 0
M  V30 7868 C 716.783 -4.61455 4.39702 0
M  V30 7869 C 714.47 -4.8304 3.7432 0
M  V30 7870 C 715.468 -4.94939 4.70664 0
M  V30 7871 O 715.156 -5.39403 5.96071 0
M  V30 7872 H 714.888 -0.63814 0.223055 0
M  V30 7873 H 717.442 -1.62608 1.2549 0
M  V30 7874 H 715.672 -3.8669 0.0280889 0
M  V30 7875 H 717.361 -4.03821 0.410328 0
M  V30 7876 H 718.127 -3.89519 2.88964 0
M  V30 7877 H 714.006 -4.27554 1.72391 0
M  V30 7878 H 717.55 -4.70658 5.14905 0
M  V30 7879 H 713.447 -5.08646 3.97429 0
M  V30 7880 H 714.215 -5.57641 5.99148 0
M  V30 7881 N 716.879 -0.700114 -1.41195 0
M  V30 7882 C 718.128 -0.230082 -2.00383 0
M  V30 7883 C 718.441 1.17857 -1.56106 0
M  V30 7884 O 719.647 1.74631 -2.07885 0
M  V30 7885 C 718.103 -0.360447 -3.5809 0
M  V30 7886 C 717.711 -1.77475 -4.11347 0
M  V30 7887 C 719.455 0.0495799 -4.24471 0
M  V30 7888 C 717.362 -1.85653 -5.61504 0
M  V30 7889 H 716.292 -0.0822633 -0.749499 0
M  V30 7890 H 718.943 -0.868969 -1.6162 0
M  V30 7891 H 717.325 0.346768 -3.94479 0
M  V30 7892 H 718.499 -2.51109 -3.86369 0
M  V30 7893 H 716.814 -2.13486 -3.57509 0
M  V30 7894 H 719.411 0.00898219 -5.34699 0
M  V30 7895 H 719.754 1.08904 -4.01803 0
M  V30 7896 H 720.287 -0.607521 -3.93134 0
M  V30 7897 H 717.026 -2.87667 -5.89006 0
M  V30 7898 H 716.546 -1.1641 -5.88395 0
M  V30 7899 H 718.225 -1.62151 -6.26351 0
M  V30 7900 N 718.357 1.51182 -0.445186 0
M  V30 7901 C 719.585 2.06568 0.117091 0
M  V30 7902 C 720 1.31182 1.35781 0
M  V30 7903 O 719.357 0.373605 1.78635 0
M  V30 7904 C 719.408 3.58917 0.431408 0
M  V30 7905 O 719.129 4.31456 -0.760078 0
M  V30 7906 C 720.63 4.30843 1.0435 0
M  V30 7907 H 717.85 0.670985 0.00444436 0
M  V30 7908 H 720.394 1.94666 -0.626525 0
M  V30 7909 H 718.549 3.70708 1.12493 0
M  V30 7910 H 718.963 5.22215 -0.489048 0
M  V30 7911 H 720.437 5.38499 1.21337 0
M  V30 7912 H 720.914 3.89644 2.02667 0
M  V30 7913 H 721.52 4.23516 0.38913 0
M  V30 7914 N 719.835 0.176821 1.56605 0
M  V30 7915 C 721.083 -0.465793 1.96659 0
M  V30 7916 C 721.404 -1.63406 1.06412 0
M  V30 7917 O 720.674 -1.95457 0.131603 0
M  V30 7918 H 719.254 -0.175072 0.726195 0
M  V30 7919 H 721.916 0.25929 1.93168 0
M  V30 7920 H 721.012 -0.822138 3.01077 0
M  V30 7921 N 721.313 -1.57302 -0.09688 0
M  V30 7922 C 722.223 -2.05258 -1.13606 0
M  V30 7923 C 723.239 -0.977137 -1.43972 0
M  V30 7924 O 724.415 -1.29018 -1.54649 0
M  V30 7925 C 721.48 -2.46593 -2.43706 0
M  V30 7926 C 720.541 -3.68322 -2.20538 0
M  V30 7927 C 719.774 -4.07676 -3.44435 0
M  V30 7928 O 719.997 -3.47141 -4.52603 0
M  V30 7929 O 718.931 -5.00641 -3.34129 0
M  V30 7930 H 722.757 -2.94069 -0.758752 0
M  V30 7931 H 720.342 -1.46164 -0.309263 0
M  V30 7932 H 722.224 -2.73814 -3.20318 0
M  V30 7933 H 720.899 -1.6092 -2.80867 0
M  V30 7934 H 719.806 -3.4622 -1.41713 0
M  V30 7935 H 721.139 -4.54769 -1.88271 0
M  V30 7936 N 722.791 0.367657 -1.53252 0
M  V30 7937 C 724.016 1.13566 -1.73544 0
M  V30 7938 C 724.441 1.82329 -0.462344 0
M  V30 7939 O 723.799 1.71655 0.583472 0
M  V30 7940 C 723.847 2.14322 -2.89997 0
M  V30 7941 O 722.951 3.21359 -2.58461 0
M  V30 7942 H 722.292 0.329614 -0.576412 0
M  V30 7943 H 724.822 0.425417 -2.00128 0
M  V30 7944 H 724.832 2.57958 -3.16104 0
M  V30 7945 H 723.507 1.63664 -3.82344 0
M  V30 7946 H 722.084 2.8271 -2.43165 0
M  V30 7947 N 724.269 1.44576 0.627338 0
M  V30 7948 C 725.216 1.51734 1.73912 0
M  V30 7949 C 726.186 0.364745 1.62046 0
M  V30 7950 O 727.371 0.575503 1.81914 0
M  V30 7951 C 724.511 1.47116 3.12171 0
M  V30 7952 C 723.624 2.72778 3.34986 0
M  V30 7953 C 722.759 2.59968 4.63239 0
M  V30 7954 C 721.798 3.80776 4.79245 0
M  V30 7955 N 720.935 3.66618 5.98778 0
M  V30 7956 H 725.775 2.46722 1.6713 0
M  V30 7957 H 723.312 1.22444 0.815224 0
M  V30 7958 H 725.27 1.42429 3.92135 0
M  V30 7959 H 723.9 0.556928 3.17959 0
M  V30 7960 H 722.952 2.87637 2.48936 0
M  V30 7961 H 724.264 3.62441 3.42692 0
M  V30 7962 H 723.418 2.53135 5.51369 0
M  V30 7963 H 722.157 1.67872 4.57898 0
M  V30 7964 H 721.162 3.87989 3.89544 0
M  V30 7965 H 722.387 4.73913 4.86398 0
M  V30 7966 H 720.333 2.77277 5.9452 0
M  V30 7967 H 720.25 4.499 6.07557 0
M  V30 7968 H 721.518 3.63684 6.89459 0
M  V30 7969 N 725.747 -0.868086 1.31537 0
M  V30 7970 C 726.657 -2.00801 1.21311 0
M  V30 7971 C 727.673 -1.73518 0.129431 0
M  V30 7972 O 728.849 -1.98378 0.347588 0
M  V30 7973 C 725.914 -3.3419 0.922935 0
M  V30 7974 C 724.975 -3.74783 2.0937 0
M  V30 7975 C 724.208 -5.01807 1.81728 0
M  V30 7976 O 724.431 -5.65404 0.753313 0
M  V30 7977 O 723.365 -5.39213 2.67457 0
M  V30 7978 H 727.191 -2.12361 2.17109 0
M  V30 7979 H 724.776 -0.996684 1.11295 0
M  V30 7980 H 726.658 -4.14174 0.777033 0
M  V30 7981 H 725.333 -3.237 -0.00500301 0
M  V30 7982 H 724.24 -2.95432 2.29501 0
M  V30 7983 H 725.573 -3.89902 3.00396 0
M  V30 7984 N 727.225 -1.14528 -1.08264 0
M  V30 7985 C 728.157 -0.791325 -2.15106 0
M  V30 7986 C 729.17 0.192449 -1.61659 0
M  V30 7987 O 730.359 -0.0294704 -1.78476 0
M  V30 7988 C 727.459 -0.154183 -3.38549 0
M  V30 7989 C 726.632 -1.17305 -4.21377 0
M  V30 7990 C 725.691 -0.559401 -5.23218 0
M  V30 7991 O 724.717 -1.22277 -5.55911 0
M  V30 7992 N 725.919 0.663159 -5.767 0
M  V30 7993 H 728.684 -1.71076 -2.46075 0
M  V30 7994 H 726.245 -1.0399 -1.24087 0
M  V30 7995 H 728.237 0.268884 -4.03806 0
M  V30 7996 H 726.807 0.668418 -3.0537 0
M  V30 7997 H 726.027 -1.773 -3.52077 0
M  V30 7998 H 727.315 -1.86128 -4.73533 0
M  V30 7999 H 726.713 1.22066 -5.52373 0
M  V30 8000 H 725.27 1.02871 -6.43631 0
M  V30 8001 N 728.703 1.26451 -0.940633 0
M  V30 8002 C 729.949 1.94065 -0.58878 0
M  V30 8003 C 730.282 1.7363 0.869853 0
M  V30 8004 O 729.557 1.073 1.62225 0
M  V30 8005 C 729.84 3.47852 -0.931199 0
M  V30 8006 C 729.693 3.77575 -2.44453 0
M  V30 8007 C 731.012 4.37832 -0.446229 0
M  V30 8008 H 728.131 0.704827 -0.21538 0
M  V30 8009 H 730.773 1.4933 -1.17475 0
M  V30 8010 H 728.923 3.86085 -0.432539 0
M  V30 8011 H 730.595 3.49059 -3.01588 0
M  V30 8012 H 728.838 3.23671 -2.88825 0
M  V30 8013 H 729.509 4.85068 -2.63464 0
M  V30 8014 H 731.985 4.06822 -0.873778 0
M  V30 8015 H 730.861 5.44228 -0.714648 0
M  V30 8016 H 731.122 4.37239 0.653815 0
M  V30 8017 N 730.181 0.707592 1.40822 0
M  V30 8018 C 731.144 0.0587224 2.29125 0
M  V30 8019 C 732.144 -0.695624 1.44975 0
M  V30 8020 O 733.334 -0.528718 1.65983 0
M  V30 8021 C 730.466 -0.926939 3.28056 0
M  V30 8022 H 731.659 0.836349 2.88002 0
M  V30 8023 H 729.212 0.471778 1.4901 0
M  V30 8024 H 729.947 -1.7319 2.74182 0
M  V30 8025 H 729.732 -0.389015 3.90165 0
M  V30 8026 H 731.222 -1.37837 3.94196 0
M  V30 8027 N 731.66 -1.50943 0.453197 0
M  V30 8028 C 732.608 -2.29728 -0.364419 0
M  V30 8029 C 733.602 -1.36246 -1.00664 0
M  V30 8030 O 734.808 -1.53518 -0.939794 0
M  V30 8031 H 731.183 -0.739536 -0.136347 0
M  V30 8032 H 733.154 -2.96672 0.320696 0
M  V30 8033 C 731.903 -3.1629 -1.44415 0
M  V30 8034 H 731.226 -3.88119 -0.959343 0
M  V30 8035 H 732.666 -3.74444 -1.98917 0
M  V30 8036 C 731.125 -2.32702 -2.43622 0
M  V30 8037 O 731.655 -1.99763 -3.48508 0
M  V30 8038 N 729.861 -1.95621 -2.14897 0
M  V30 8039 H 729.408 -2.22607 -1.29629 0
M  V30 8040 H 729.366 -1.39993 -2.81513 0
M  V30 8041 N 733.138 -0.185124 -1.56509 0
M  V30 8042 C 734.363 0.465278 -2.02114 0
M  V30 8043 C 734.788 1.55083 -1.06447 0
M  V30 8044 O 734.146 1.81241 -0.0462852 0
M  V30 8045 C 734.194 1.00784 -3.46229 0
M  V30 8046 O 733.298 2.12123 -3.53663 0
M  V30 8047 H 732.639 0.109891 -0.654843 0
M  V30 8048 H 735.169 -0.293072 -2.0249 0
M  V30 8049 H 735.179 1.32697 -3.85818 0
M  V30 8050 H 733.854 0.213113 -4.15354 0
M  V30 8051 H 732.431 1.8115 -3.25943 0
M  V30 8052 N 734.616 1.57351 0.0885366 0
M  V30 8053 C 735.579 2.01557 1.09121 0
M  V30 8054 C 736.579 0.910052 1.3257 0
M  V30 8055 O 737.769 1.17537 1.28572 0
M  V30 8056 C 734.901 2.38189 2.43883 0
M  V30 8057 H 736.094 2.91361 0.710562 0
M  V30 8058 H 733.647 1.52694 0.333779 0
M  V30 8059 H 734.382 1.5136 2.86811 0
M  V30 8060 H 734.167 3.18846 2.28209 0
M  V30 8061 H 735.657 2.73025 3.15986 0
M  V30 8062 N 736.094 -0.359525 1.53444 0
M  V30 8063 C 737.341 -1.10152 1.6992 0
M  V30 8064 C 737.669 -1.89125 0.4541 0
M  V30 8065 O 736.924 -1.87396 -0.564023 0
M  V30 8066 C 737.223 -2.08287 2.90433 0
M  V30 8067 C 736.889 -1.45749 4.26694 0
M  V30 8068 C 735.551 -1.28421 4.63747 0
M  V30 8069 C 737.903 -1.00557 5.11408 0
M  V30 8070 C 735.231 -0.644951 5.83144 0
M  V30 8071 C 737.583 -0.380288 6.31456 0
M  V30 8072 C 736.247 -0.194557 6.67216 0
M  V30 8073 H 735.517 -0.403076 0.621781 0
M  V30 8074 H 738.164 -0.382612 1.87639 0
M  V30 8075 H 736.469 -2.86503 2.67251 0
M  V30 8076 H 738.166 -2.65662 3.00374 0
M  V30 8077 H 734.756 -1.6023 3.97523 0
M  V30 8078 H 738.94 -1.12735 4.83326 0
M  V30 8079 H 734.196 -0.48952 6.09437 0
M  V30 8080 H 738.37 -0.0219455 6.96397 0
M  V30 8081 H 735.997 0.30285 7.59597 0
M  V30 8082 N 737.572 -1.44907 -0.619662 0
M  V30 8083 C 738.818 -1.48512 -1.38102 0
M  V30 8084 C 739.151 -0.121686 -1.93818 0
M  V30 8085 O 738.426 0.862256 -1.74343 0
M  V30 8086 C 738.709 -2.55469 -2.53787 0
M  V30 8087 C 738.562 -4.01212 -2.03345 0
M  V30 8088 C 739.881 -2.58821 -3.55949 0
M  V30 8089 H 737 -0.540712 -0.500799 0
M  V30 8090 H 739.642 -1.7665 -0.69962 0
M  V30 8091 H 737.792 -2.31606 -3.11915 0
M  V30 8092 H 739.464 -4.36245 -1.49959 0
M  V30 8093 H 737.707 -4.12443 -1.34438 0
M  V30 8094 H 738.378 -4.71717 -2.86683 0
M  V30 8095 H 740.854 -2.80172 -3.07641 0
M  V30 8096 H 739.73 -3.35542 -4.34399 0
M  V30 8097 H 739.991 -1.63451 -4.10775 0
M  V30 8098 N 739.05 0.861098 -1.31996 0
M  V30 8099 C 739.96 2.00154 -1.22374 0
M  V30 8100 C 740.976 1.73447 -0.138631 0
M  V30 8101 O 742.152 1.98191 -0.358104 0
M  V30 8102 C 739.217 3.33696 -0.940645 0
M  V30 8103 C 738.278 3.73668 -2.11355 0
M  V30 8104 C 737.511 5.00837 -1.84386 0
M  V30 8105 O 737.734 5.64996 -0.783287 0
M  V30 8106 O 736.668 5.37787 -2.70313 0
M  V30 8107 H 740.494 2.11207 -2.18233 0
M  V30 8108 H 738.079 0.990768 -1.11822 0
M  V30 8109 H 739.961 4.13756 -0.798987 0
M  V30 8110 H 738.636 3.23698 -0.0121636 0
M  V30 8111 H 737.543 2.94211 -2.31065 0
M  V30 8112 H 738.876 3.88303 -3.02459 0
M  V30 8113 N 740.528 1.15101 1.07655 0
M  V30 8114 C 741.944 0.893004 1.32279 0
M  V30 8115 C 742.144 -0.461701 1.96139 0
M  V30 8116 O 741.2 -1.20431 2.21929 0
M  V30 8117 C 742.513 2.03161 2.21689 0
M  V30 8118 C 744.061 2.06579 2.35147 0
M  V30 8119 C 744.536 3.19754 3.27905 0
M  V30 8120 N 746.027 3.19382 3.35484 0
M  V30 8121 C 746.762 4.03592 4.07309 0
M  V30 8122 N 746.258 4.97859 4.81776 0
M  V30 8123 N 748.051 3.91626 4.03219 0
M  V30 8124 H 740.202 2.02341 0.645886 0
M  V30 8125 H 742.465 0.882127 0.347211 0
M  V30 8126 H 742.171 3.00934 1.82021 0
M  V30 8127 H 742.045 1.96132 3.22199 0
M  V30 8128 H 744.432 1.09408 2.74069 0
M  V30 8129 H 744.513 2.17676 1.34353 0
M  V30 8130 H 744.157 4.17175 2.89702 0
M  V30 8131 H 744.087 3.05893 4.28645 0
M  V30 8132 H 746.578 2.51112 2.82403 0
M  V30 8133 H 746.891 5.58563 5.34067 0
M  V30 8134 H 745.236 5.0185 4.80803 0
M  V30 8135 H 748.427 3.17295 3.44154 0
M  V30 8136 H 748.6 4.57479 4.5893 0
M  V30 8137 N 742.006 -1.2595 0.947325 0
M  V30 8138 C 743.252 -1.9375 0.599064 0
M  V30 8139 C 743.585 -1.74088 -0.860632 0
M  V30 8140 O 742.86 -1.08158 -1.61654 0
M  V30 8141 C 743.143 -3.47353 0.949634 0
M  V30 8142 C 742.996 -3.76273 2.46452 0
M  V30 8143 C 744.315 -4.37589 0.469442 0
M  V30 8144 H 741.434 -0.703674 0.219115 0
M  V30 8145 H 744.076 -1.48705 1.18266 0
M  V30 8146 H 742.226 -3.8585 0.453008 0
M  V30 8147 H 743.898 -3.47455 3.03435 0
M  V30 8148 H 742.141 -3.22135 2.90537 0
M  V30 8149 H 742.812 -4.83664 2.66032 0
M  V30 8150 H 745.288 -4.06353 0.89534 0
M  V30 8151 H 744.164 -5.43841 0.7435 0
M  V30 8152 H 744.425 -4.37579 -0.630618 0
M  V30 8153 N 743.484 -0.715051 -1.40445 0
M  V30 8154 C 744.9 -0.388555 -1.54798 0
M  V30 8155 C 745.1 1.10271 -1.68649 0
M  V30 8156 O 744.156 1.88875 -1.67578 0
M  V30 8157 C 745.469 -1.15414 -2.77669 0
M  V30 8158 C 747.017 -1.14039 -2.91486 0
M  V30 8159 C 747.492 -1.88812 -4.1727 0
M  V30 8160 N 748.983 -1.85878 -4.24268 0
M  V30 8161 C 749.718 -2.40558 -5.20499 0
M  V30 8162 N 749.214 -3.03791 -6.22642 0
M  V30 8163 N 751.007 -2.30703 -5.12574 0
M  V30 8164 H 743.158 -1.68201 -1.297 0
M  V30 8165 H 745.421 -0.710915 -0.627139 0
M  V30 8166 H 745.127 -2.20853 -2.7371 0
M  V30 8167 H 745.001 -0.745412 -3.69761 0
M  V30 8168 H 747.388 -0.0941996 -2.9495 0
M  V30 8169 H 747.469 -1.58834 -2.00513 0
M  V30 8170 H 747.113 -2.93422 -4.14568 0
M  V30 8171 H 747.043 -1.41438 -5.0725 0
M  V30 8172 H 749.534 -1.39794 -3.51093 0
M  V30 8173 H 749.847 -3.43032 -6.92495 0
M  V30 8174 H 748.192 -3.07875 -6.23087 0
M  V30 8175 H 751.383 -1.80961 -4.31707 0
M  V30 8176 H 751.556 -2.73618 -5.87398 0
M  V30 8177 N 744.962 1.50701 -0.461195 0
M  V30 8178 C 745.909 2.2831 0.338094 0
M  V30 8179 C 746.879 1.32928 0.995957 0
M  V30 8180 O 748.064 1.61857 1.0103 0
M  V30 8181 C 745.204 3.14539 1.41983 0
M  V30 8182 C 744.317 4.24942 0.77773 0
M  V30 8183 C 743.452 4.98443 1.83652 0
M  V30 8184 C 742.491 6.00733 1.17413 0
M  V30 8185 N 741.628 6.6755 2.17533 0
M  V30 8186 H 746.468 2.96167 -0.330051 0
M  V30 8187 H 744.005 1.4606 -0.174611 0
M  V30 8188 H 745.963 3.62877 2.05855 0
M  V30 8189 H 744.593 2.48749 2.05727 0
M  V30 8190 H 743.645 3.80391 0.0266924 0
M  V30 8191 H 744.957 4.98151 0.254362 0
M  V30 8192 H 744.111 5.50449 2.55129 0
M  V30 8193 H 742.85 4.24917 2.39367 0
M  V30 8194 H 741.855 5.47997 0.444944 0
M  V30 8195 H 743.08 6.76227 0.624006 0
M  V30 8196 H 741.026 5.96823 2.72284 0
M  V30 8197 H 740.943 7.36603 1.70154 0
M  V30 8198 H 742.211 7.24178 2.88421 0
M  V30 8199 N 746.441 0.193421 1.56409 0
M  V30 8200 C 747.857 -0.162447 1.58771 0
M  V30 8201 C 748.057 -1.6116 1.20954 0
M  V30 8202 O 747.113 -2.3469 0.931497 0
M  V30 8203 C 748.426 0.138391 3.00381 0
M  V30 8204 C 749.974 0.0783649 3.12902 0
M  V30 8205 C 750.449 0.352491 4.56642 0
M  V30 8206 N 751.94 0.30105 4.62221 0
M  V30 8207 C 752.675 0.487028 5.71328 0
M  V30 8208 N 752.171 0.733265 6.88909 0
M  V30 8209 N 753.964 0.4214 5.60518 0
M  V30 8210 H 746.115 1.13909 1.79272 0
M  V30 8211 H 748.378 0.454528 0.83193 0
M  V30 8212 H 748.084 1.14312 3.32604 0
M  V30 8213 H 747.958 -0.559804 3.73023 0
M  V30 8214 H 750.345 -0.916963 2.80492 0
M  V30 8215 H 750.426 0.809611 2.4265 0
M  V30 8216 H 750.07 1.34513 4.89764 0
M  V30 8217 H 750 -0.399624 5.25081 0
M  V30 8218 H 752.491 0.117279 3.77718 0
M  V30 8219 H 752.804 0.86403 7.67955 0
M  V30 8220 H 751.149 0.770138 6.9072 0
M  V30 8221 H 754.34 0.229461 4.67537 0
M  V30 8222 H 754.513 0.569758 6.4549 0
M  V30 8223 N 747.919 -1.57396 -0.0801906 0
M  V30 8224 C 749.167 -1.86467 -0.779384 0
M  V30 8225 C 749.488 -0.784243 -1.78535 0
M  V30 8226 O 748.758 0.187986 -1.94996 0
M  V30 8227 H 747.338 -0.68806 -0.29083 0
M  V30 8228 H 750 -1.94813 -0.0582749 0
M  V30 8229 H 749.096 -2.83701 -1.30078 0
M  V30 8230 N 749.397 0.351382 -1.53633 0
M  V30 8231 C 750.644 1.0925 -1.70502 0
M  V30 8232 C 750.972 1.88881 -0.464123 0
M  V30 8233 O 750.227 1.87693 0.554077 0
M  V30 8234 C 750.526 2.06744 -2.91533 0
M  V30 8235 C 750.192 1.43484 -4.27461 0
M  V30 8236 C 748.854 1.2596 -4.64422 0
M  V30 8237 C 751.206 0.978436 -5.11934 0
M  V30 8238 C 748.534 0.614017 -5.83478 0
M  V30 8239 C 750.886 0.346795 -6.31649 0
M  V30 8240 C 749.55 0.15917 -6.6731 0
M  V30 8241 H 748.82 0.399773 -0.623909 0
M  V30 8242 H 751.467 0.372656 -1.87839 0
M  V30 8243 H 749.772 2.85082 -2.68767 0
M  V30 8244 H 751.469 2.64066 -3.01778 0
M  V30 8245 H 748.059 1.5812 -3.98367 0
M  V30 8246 H 752.243 1.1017 -4.83918 0
M  V30 8247 H 747.499 0.457194 -6.09688 0
M  V30 8248 H 751.673 -0.0149864 -6.96398 0
M  V30 8249 H 749.3 -0.343129 -7.59425 0
M  V30 8250 N 750.875 1.45233 0.611969 0
M  V30 8251 C 751.785 1.56098 1.7513 0
M  V30 8252 C 752.801 0.445646 1.68196 0
M  V30 8253 O 753.977 0.705718 1.88631 0
M  V30 8254 C 751.042 1.52052 3.11579 0
M  V30 8255 C 750.103 2.74589 3.29999 0
M  V30 8256 C 749.336 2.70726 4.59938 0
M  V30 8257 O 749.559 1.77806 5.41979 0
M  V30 8258 O 748.493 3.61864 4.80976 0
M  V30 8259 H 752.319 2.52392 1.68914 0
M  V30 8260 H 749.904 1.27695 0.775528 0
M  V30 8261 H 751.786 1.52387 3.92882 0
M  V30 8262 H 750.461 0.589085 3.18295 0
M  V30 8263 H 749.368 2.79817 2.48301 0
M  V30 8264 H 750.701 3.66843 3.28157 0
M  V30 8265 N 752.353 -0.854086 1.3245 0
M  V30 8266 C 753.599 -1.61069 1.23225 0
M  V30 8267 C 753.932 -1.93111 -0.205349 0
M  V30 8268 O 753.207 -1.57397 -1.14265 0
M  V30 8269 C 753.49 -2.93065 2.09249 0
M  V30 8270 C 753.343 -2.67801 3.6139 0
M  V30 8271 C 754.662 -3.94341 1.95406 0
M  V30 8272 H 751.781 -0.584449 0.448986 0
M  V30 8273 H 754.423 -0.986189 1.62402 0
M  V30 8274 H 752.573 -3.46364 1.75967 0
M  V30 8275 H 754.245 -2.21052 4.04887 0
M  V30 8276 H 752.488 -2.01756 3.84027 0
M  V30 8277 H 753.159 -3.6179 4.16907 0
M  V30 8278 H 755.635 -3.50301 2.24562 0
M  V30 8279 H 754.511 -4.84555 2.57872 0
M  V30 8280 H 754.772 -4.32382 0.921865 0
M  V30 8281 N 753.831 -1.1567 -1.07043 0
M  V30 8282 C 755.077 -0.9349 -1.79965 0
M  V30 8283 C 755.41 0.536464 -1.86643 0
M  V30 8284 O 754.685 1.39781 -1.35247 0
M  V30 8285 C 754.968 -1.55371 -3.24857 0
M  V30 8286 C 754.821 -3.09589 -3.26305 0
M  V30 8287 C 756.14 -1.24209 -4.22209 0
M  V30 8288 H 753.259 -0.341061 -0.653335 0
M  V30 8289 H 755.901 -1.42883 -1.25237 0
M  V30 8290 H 754.051 -1.13368 -3.71591 0
M  V30 8291 H 755.723 -3.60521 -2.87789 0
M  V30 8292 H 753.966 -3.43315 -2.65174 0
M  V30 8293 H 754.637 -3.48002 -4.28484 0
M  V30 8294 H 757.113 -1.60548 -3.8388 0
M  V30 8295 H 755.989 -1.70119 -5.21872 0
M  V30 8296 H 756.25 -0.15964 -4.41812 0
M  V30 8297 N 755.309 1.25446 -0.953992 0
M  V30 8298 C 756.539 1.96929 -0.624688 0
M  V30 8299 C 756.947 1.71112 0.807292 0
M  V30 8300 O 756.29 0.983512 1.55154 0
M  V30 8301 C 756.352 3.50425 -0.802676 0
M  V30 8302 C 756.016 3.99916 -2.21169 0
M  V30 8303 C 757.013 4.10662 -3.18831 0
M  V30 8304 C 754.698 4.33598 -2.53571 0
M  V30 8305 C 756.692 4.54401 -4.46988 0
M  V30 8306 C 754.379 4.77024 -3.81958 0
M  V30 8307 C 755.377 4.87388 -4.78478 0
M  V30 8308 O 755.065 5.29851 -6.04577 0
M  V30 8309 H 754.797 0.634511 -0.233179 0
M  V30 8310 H 757.351 1.60591 -1.28061 0
M  V30 8311 H 755.581 3.86596 -0.0896044 0
M  V30 8312 H 757.27 4.03117 -0.47452 0
M  V30 8313 H 758.036 3.84872 -2.95124 0
M  V30 8314 H 753.915 4.24757 -1.79171 0
M  V30 8315 H 757.459 4.62406 -5.22328 0
M  V30 8316 H 753.356 5.02258 -4.05471 0
M  V30 8317 H 754.124 5.48039 -6.07944 0
M  V30 8318 N 756.787 0.722489 1.40064 0
M  V30 8319 C 757.72 0.0233443 2.28188 0
M  V30 8320 C 758.698 -0.7606 1.43714 0
M  V30 8321 O 759.882 -0.745791 1.73119 0
M  V30 8322 C 757.009 -0.974264 3.24385 0
M  V30 8323 C 756.055 -0.280307 4.25578 0
M  V30 8324 S 756.888 0.996769 5.26141 0
M  V30 8325 C 758.044 0.00143923 6.259 0
M  V30 8326 H 758.277 0.770705 2.87137 0
M  V30 8327 H 755.81 0.513783 1.45601 0
M  V30 8328 H 757.768 -1.5446 3.80332 0
M  V30 8329 H 756.429 -1.69438 2.6448 0
M  V30 8330 H 755.622 -1.03471 4.93264 0
M  V30 8331 H 755.224 0.217657 3.73366 0
M  V30 8332 H 757.516 -0.843126 6.72233 0
M  V30 8333 H 758.459 0.645104 7.05155 0
M  V30 8334 H 758.867 -0.365371 5.63316 0
M  V30 8335 N 758.265 -1.50454 0.469181 0
M  V30 8336 C 759.493 -2.06729 -0.0842134 0
M  V30 8337 C 759.908 -1.33326 -1.33677 0
M  V30 8338 O 759.265 -0.401977 -1.78018 0
M  V30 8339 C 759.316 -3.59557 -0.374253 0
M  V30 8340 O 759.037 -4.30192 0.828622 0
M  V30 8341 C 760.538 -4.32449 -0.974824 0
M  V30 8342 H 757.758 -0.670971 0.006231 0
M  V30 8343 H 760.302 -1.93645 0.657415 0
M  V30 8344 H 758.457 -3.7245 -1.06581 0
M  V30 8345 H 758.871 -5.21371 0.572066 0
M  V30 8346 H 760.345 -5.40361 -1.12755 0
M  V30 8347 H 760.822 -3.92819 -1.96442 0
M  V30 8348 H 761.428 -4.24082 -0.321703 0
M  V30 8349 N 759.743 -0.201713 -1.56304 0
M  V30 8350 C 760.653 0.728296 -2.23009 0
M  V30 8351 C 761.669 1.22945 -1.23128 0
M  V30 8352 O 762.845 1.27523 -1.55884 0
M  V30 8353 C 759.91 1.92792 -2.88153 0
M  V30 8354 C 758.971 1.47068 -4.03323 0
M  V30 8355 C 758.204 2.61312 -4.65351 0
M  V30 8356 O 758.427 3.7896 -4.26317 0
M  V30 8357 O 757.361 2.33646 -5.54701 0
M  V30 8358 H 761.187 0.190166 -3.03104 0
M  V30 8359 H 758.772 0.0278725 -1.49374 0
M  V30 8360 H 760.654 2.6289 -3.29343 0
M  V30 8361 H 759.329 2.45452 -2.11033 0
M  V30 8362 H 758.236 0.738299 -3.66742 0
M  V30 8363 H 759.569 0.990666 -4.82127 0
M  V30 8364 N 761.222 1.57436 0.0718424 0
M  V30 8365 C 762.633 1.75975 0.623678 0
M  V30 8366 C 762.984 0.827155 1.77912 0
M  V30 8367 O 762.109 0.0112425 2.16397 0
M  V30 8368 C 762.704 3.1911 1.13816 0
M  V30 8369 C 761.263 3.38994 1.63586 0
M  V30 8370 C 760.41 2.71684 0.555261 0
M  V30 8371 H 763.361 1.57948 -0.154328 0
M  V30 8372 H 763.382 3.23267 2.00696 0
M  V30 8373 H 762.894 3.86962 0.296998 0
M  V30 8374 H 760.995 2.76256 2.50027 0
M  V30 8375 H 761.108 4.47436 1.71283 0
M  V30 8376 H 759.472 2.34236 1.00029 0
M  V30 8377 H 760.255 3.42191 -0.275712 0
M  V30 8378 N 762.7 -0.34323 1.53817 0
M  V30 8379 C 763.949 -1.08086 1.70295 0
M  V30 8380 C 764.262 -1.89794 0.47302 0
M  V30 8381 O 765.468 -2.66498 0.518754 0
M  V30 8382 C 763.924 -1.97097 3.01133 0
M  V30 8383 C 763.532 -1.20594 4.31464 0
M  V30 8384 C 765.276 -2.70715 3.26976 0
M  V30 8385 C 763.183 -2.08636 5.53376 0
M  V30 8386 H 762.113 -0.407228 0.634572 0
M  V30 8387 H 764.764 -0.340328 1.80316 0
M  V30 8388 H 763.146 -2.74971 2.84969 0
M  V30 8389 H 764.32 -0.476282 4.58332 0
M  V30 8390 H 762.635 -0.587426 4.12236 0
M  V30 8391 H 765.232 -3.36857 4.15248 0
M  V30 8392 H 765.575 -3.37299 2.43998 0
M  V30 8393 H 766.108 -1.99914 3.43917 0
M  V30 8394 H 762.847 -1.46594 6.38898 0
M  V30 8395 H 762.367 -2.7939 5.30755 0
M  V30 8396 H 764.046 -2.67682 5.89029 0
M  V30 8397 N 764.178 -1.45556 -0.604258 0
M  V30 8398 C 765.455 -1.40221 -1.36373 0
M  V30 8399 C 765.835 -0.0745195 -2.10968 0
M  V30 8400 O 765.183 0.943594 -2.08107 0
M  V30 8401 C 765.393 -2.61807 -2.30777 0
M  V30 8402 C 766.741 -3.07037 -2.93281 0
M  V30 8403 O 767.765 -2.62203 -2.41097 0
M  V30 8404 O 766.624 -3.8485 -3.88011 0
M  V30 8405 H 763.718 -0.556602 -0.611656 0
M  V30 8406 H 766.264 -1.57689 -0.627069 0
M  V30 8407 H 765.036 -3.50017 -1.74939 0
M  V30 8408 H 764.659 -2.46688 -3.11818 0
M  V30 8409 N 765.656 0.84705 -1.32902 0
M  V30 8410 C 766.566 1.98845 -1.2449 0
M  V30 8411 C 767.582 1.7329 -0.15702 0
M  V30 8412 O 768.758 1.978 -0.379104 0
M  V30 8413 C 765.823 3.32679 -0.975985 0
M  V30 8414 C 764.884 3.71405 -2.15306 0
M  V30 8415 C 764.117 4.98853 -1.89688 0
M  V30 8416 O 764.34 5.64134 -0.843168 0
M  V30 8417 O 763.274 5.34889 -2.76002 0
M  V30 8418 H 767.1 2.0888 -2.2046 0
M  V30 8419 H 764.685 0.978852 -1.12867 0
M  V30 8420 H 766.567 4.12885 -0.842826 0
M  V30 8421 H 765.242 3.23667 -0.0464954 0
M  V30 8422 H 764.149 2.91743 -2.34172 0
M  V30 8423 H 765.482 3.85073 -3.06561 0
M  V30 8424 N 767.134 1.16236 1.06428 0
M  V30 8425 C 768.364 0.965782 1.82637 0
M  V30 8426 C 768.772 -0.489284 1.82764 0
M  V30 8427 O 768.115 -1.35133 1.24438 0
M  V30 8428 C 768.177 1.41458 3.30499 0
M  V30 8429 C 767.841 2.88926 3.54077 0
M  V30 8430 C 768.838 3.86939 3.47238 0
M  V30 8431 C 766.523 3.26814 3.81442 0
M  V30 8432 C 768.517 5.20841 3.67428 0
M  V30 8433 C 766.204 4.60886 4.01282 0
M  V30 8434 C 767.202 5.57708 3.94272 0
M  V30 8435 O 766.89 6.89357 4.13573 0
M  V30 8436 H 766.622 0.342569 0.582772 0
M  V30 8437 H 769.176 1.54641 1.35187 0
M  V30 8438 H 767.406 0.777426 3.78805 0
M  V30 8439 H 769.095 1.18563 3.88198 0
M  V30 8440 H 769.861 3.59014 3.26089 0
M  V30 8441 H 765.74 2.5203 3.86008 0
M  V30 8442 H 769.284 5.96401 3.61873 0
M  V30 8443 H 765.181 4.88522 4.21921 0
M  V30 8444 H 765.949 6.95913 4.30869 0
M  V30 8445 N 768.612 -1.24939 0.960631 0
M  V30 8446 C 769.852 -1.94565 0.626414 0
M  V30 8447 C 770.216 -1.73505 -0.822184 0
M  V30 8448 O 771.417 -2.37105 -1.26628 0
M  V30 8449 C 769.688 -3.43631 0.982462 0
M  V30 8450 S 771.247 -4.32138 0.761726 0
M  V30 8451 H 768.065 -0.672757 0.230043 0
M  V30 8452 H 770.667 -1.51464 1.23608 0
M  V30 8453 H 769.371 -3.56463 2.03377 0
M  V30 8454 H 768.902 -3.91719 0.363286 0
M  V30 8455 H 770.917 -4.94859 -0.364493 0
M  V30 8456 N 770.09 -0.729906 -1.39679 0
M  V30 8457 C 771.336 -0.27603 -2.00913 0
M  V30 8458 C 771.669 1.13227 -1.57776 0
M  V30 8459 O 770.944 1.7709 -0.804319 0
M  V30 8460 C 771.227 -0.372157 -3.58172 0
M  V30 8461 C 771.08 -1.81986 -4.11341 0
M  V30 8462 C 772.399 0.248378 -4.39399 0
M  V30 8463 H 769.518 -0.101773 -0.729939 0
M  V30 8464 H 772.16 -0.925104 -1.65957 0
M  V30 8465 H 770.31 0.180459 -3.88081 0
M  V30 8466 H 771.982 -2.42896 -3.92172 0
M  V30 8467 H 770.225 -2.34287 -3.65092 0
M  V30 8468 H 770.896 -1.83842 -5.20486 0
M  V30 8469 H 773.372 -0.222645 -4.15504 0
M  V30 8470 H 772.248 0.150746 -5.48693 0
M  V30 8471 H 772.509 1.33378 -4.21501 0
M  V30 8472 N 771.568 1.50203 -0.477153 0
M  V30 8473 C 772.5 2.26508 0.350239 0
M  V30 8474 C 773.513 1.32081 0.95176 0
M  V30 8475 O 774.702 1.57546 0.839139 0
M  V30 8476 C 771.802 3.0361 1.50579 0
M  V30 8477 C 770.975 4.25438 1.01595 0
M  V30 8478 C 770.034 4.84783 2.04626 0
M  V30 8479 O 769.06 5.45528 1.62442 0
M  V30 8480 N 770.262 4.72318 3.37485 0
M  V30 8481 H 773.027 2.98155 -0.30394 0
M  V30 8482 H 770.588 1.58938 -0.308289 0
M  V30 8483 H 772.58 3.4019 2.1921 0
M  V30 8484 H 771.15 2.34724 2.06455 0
M  V30 8485 H 770.37 3.93894 0.155316 0
M  V30 8486 H 771.658 5.04413 0.666694 0
M  V30 8487 H 771.056 4.24022 3.74462 0
M  V30 8488 H 769.613 5.13149 4.01897 0
M  V30 8489 N 773.046 0.209999 1.56195 0
M  V30 8490 C 773.978 -0.736967 2.17029 0
M  V30 8491 C 774.991 -1.16599 1.13616 0
M  V30 8492 O 776.18 -1.09914 1.40646 0
M  V30 8493 C 773.28 -2.00852 2.72969 0
M  V30 8494 C 772.453 -1.73691 4.01435 0
M  V30 8495 C 771.512 -2.85439 4.42053 0
M  V30 8496 O 770.538 -2.54405 5.09183 0
M  V30 8497 N 771.74 -4.14135 4.06783 0
M  V30 8498 H 774.505 -0.216656 2.98916 0
M  V30 8499 H 772.066 0.0285672 1.61875 0
M  V30 8500 H 774.058 -2.74778 2.97118 0
M  V30 8501 H 772.628 -2.43963 1.95451 0
M  V30 8502 H 771.848 -0.834676 3.85262 0
M  V30 8503 H 773.136 -1.52961 4.85263 0
M  V30 8504 H 772.534 -4.42196 3.52816 0
M  V30 8505 H 771.091 -4.84642 4.35851 0
M  V30 8506 N 774.524 -1.57472 -0.0634922 0
M  V30 8507 C 775.454 -2.07297 -1.07473 0
M  V30 8508 C 776.435 -0.968162 -1.39859 0
M  V30 8509 O 777.62 -1.24139 -1.49343 0
M  V30 8510 C 774.75 -2.52381 -2.38581 0
M  V30 8511 C 773.704 -3.66813 -2.20526 0
M  V30 8512 C 773.03 -3.97982 -3.57092 0
M  V30 8513 C 774.33 -4.96553 -1.61965 0
M  V30 8514 H 776.024 -2.92033 -0.660092 0
M  V30 8515 H 773.57 -1.40488 -0.316074 0
M  V30 8516 H 775.523 -2.85852 -3.09624 0
M  V30 8517 H 774.247 -1.64684 -2.8204 0
M  V30 8518 H 772.906 -3.33639 -1.51924 0
M  V30 8519 H 772.554 -3.07403 -3.98136 0
M  V30 8520 H 772.254 -4.7504 -3.45848 0
M  V30 8521 H 773.778 -4.33956 -4.29552 0
M  V30 8522 H 775.192 -5.28201 -2.22883 0
M  V30 8523 H 773.589 -5.7799 -1.61394 0
M  V30 8524 H 774.659 -4.81396 -0.581918 0
M  V30 8525 N 776.003 0.335068 -1.53997 0
M  V30 8526 C 776.95 1.41187 -1.82579 0
M  V30 8527 C 777.92 1.51897 -0.672061 0
M  V30 8528 O 779.105 1.673 -0.917346 0
M  V30 8529 C 776.245 2.77717 -2.0486 0
M  V30 8530 C 775.358 2.7573 -3.32561 0
M  V30 8531 C 774.493 4.04032 -3.44864 0
M  V30 8532 C 773.532 3.96308 -4.66483 0
M  V30 8533 N 772.669 5.16317 -4.75774 0
M  V30 8534 H 777.509 1.16113 -2.74448 0
M  V30 8535 H 775.046 0.562305 -1.35928 0
M  V30 8536 H 777.004 3.57071 -2.15768 0
M  V30 8537 H 775.634 3.01124 -1.16294 0
M  V30 8538 H 774.686 1.88432 -3.3045 0
M  V30 8539 H 775.998 2.65902 -4.22016 0
M  V30 8540 H 775.152 4.91814 -3.55251 0
M  V30 8541 H 773.891 4.16652 -2.53481 0
M  V30 8542 H 772.896 3.06911 -4.56164 0
M  V30 8543 H 774.121 3.85263 -5.5924 0
M  V30 8544 H 772.067 5.29464 -3.87303 0
M  V30 8545 H 771.984 5.08779 -5.59178 0
M  V30 8546 H 773.252 6.05846 -4.9048 0
M  V30 8547 N 777.481 1.45874 0.596531 0
M  V30 8548 C 778.391 1.57947 1.73464 0
M  V30 8549 C 779.407 0.463461 1.67714 0
M  V30 8550 O 780.583 0.725685 1.87872 0
M  V30 8551 C 777.648 1.55348 3.09948 0
M  V30 8552 C 776.709 2.78074 3.27068 0
M  V30 8553 C 775.942 2.75589 4.57041 0
M  V30 8554 O 776.165 1.83545 5.40063 0
M  V30 8555 O 775.099 3.66945 4.77111 0
M  V30 8556 H 778.925 2.54169 1.66228 0
M  V30 8557 H 776.51 1.2851 0.76194 0
M  V30 8558 H 778.392 1.56545 3.91244 0
M  V30 8559 H 777.067 0.622811 3.17652 0
M  V30 8560 H 775.974 2.82435 2.45319 0
M  V30 8561 H 777.307 3.70303 3.24248 0
M  V30 8562 N 778.959 -0.83999 1.33349 0
M  V30 8563 C 780.206 -1.59517 1.24742 0
M  V30 8564 C 780.534 -1.93598 -0.187077 0
M  V30 8565 O 779.789 -1.58782 -1.14398 0
M  V30 8566 C 780.088 -2.91571 2.06691 0
M  V30 8567 C 779.754 -2.76856 3.55895 0
M  V30 8568 C 778.416 -2.72551 3.96572 0
M  V30 8569 C 780.768 -2.61741 4.50712 0
M  V30 8570 C 778.096 -2.51028 5.30285 0
M  V30 8571 C 780.448 -2.41752 5.84584 0
M  V30 8572 C 779.112 -2.35848 6.24445 0
M  V30 8573 H 778.382 -0.583714 0.456463 0
M  V30 8574 H 781.029 -0.973261 1.64924 0
M  V30 8575 H 779.334 -3.57961 1.59284 0
M  V30 8576 H 781.031 -3.49053 1.9739 0
M  V30 8577 H 777.621 -2.81039 3.23597 0
M  V30 8578 H 781.805 -2.64102 4.20195 0
M  V30 8579 H 777.061 -2.44903 5.60208 0
M  V30 8580 H 781.235 -2.2904 6.57658 0
M  V30 8581 H 778.862 -2.18931 7.27993 0
M  V30 8582 N 780.437 -1.16799 -1.0581 0
M  V30 8583 C 781.714 -0.862616 -1.75551 0
M  V30 8584 C 782.094 0.6385 -2.01212 0
M  V30 8585 O 781.442 1.58784 -1.64317 0
M  V30 8586 C 781.652 -1.6907 -3.05314 0
M  V30 8587 C 783 -1.90675 -3.79379 0
M  V30 8588 O 784.024 -1.65976 -3.15167 0
M  V30 8589 O 782.883 -2.32145 -4.94743 0
M  V30 8590 H 779.977 -0.318789 -0.763088 0
M  V30 8591 H 782.523 -1.27461 -1.12034 0
M  V30 8592 H 781.295 -2.70912 -2.82352 0
M  V30 8593 H 780.918 -1.27606 -3.76567 0
M  V30 8594 N 781.915 1.24427 -0.967243 0
M  V30 8595 C 783.163 1.92107 -0.627638 0
M  V30 8596 C 783.484 1.75991 0.83978 0
M  V30 8597 O 782.754 1.13118 1.59941 0
M  V30 8598 H 781.334 0.710986 -0.229145 0
M  V30 8599 H 783.996 1.51331 -1.22821 0
M  V30 8600 H 783.092 2.99791 -0.867844 0
M  V30 8601 N 783.393 0.737304 1.3929 0
M  V30 8602 C 784.34 0.0988364 2.30588 0
M  V30 8603 C 785.31 -0.727206 1.49335 0
M  V30 8604 O 786.495 -0.686694 1.78014 0
M  V30 8605 C 783.635 -0.800734 3.35682 0
M  V30 8606 C 782.748 0.0381731 4.31983 0
M  V30 8607 C 781.883 -0.862884 5.24145 0
M  V30 8608 C 780.922 -0.0193639 6.12097 0
M  V30 8609 N 780.059 -0.87648 6.96608 0
M  V30 8610 H 784.899 0.883031 2.84617 0
M  V30 8611 H 782.436 0.447111 1.4014 0
M  V30 8612 H 784.394 -1.33676 3.95205 0
M  V30 8613 H 783.024 -1.55088 2.83103 0
M  V30 8614 H 782.076 0.691641 3.74059 0
M  V30 8615 H 783.388 0.690294 4.94 0
M  V30 8616 H 782.542 -1.46667 5.88705 0
M  V30 8617 H 781.281 -1.54878 4.62454 0
M  V30 8618 H 780.286 0.597202 5.46547 0
M  V30 8619 H 781.511 0.663348 6.75852 0
M  V30 8620 H 779.457 -1.54762 6.37483 0
M  V30 8621 H 779.374 -0.280892 7.55478 0
M  V30 8622 H 780.642 -1.46575 7.65595 0
M  V30 8623 N 784.871 -1.49948 0.485112 0
M  V30 8624 C 786.096 -2.073 -0.0645059 0
M  V30 8625 C 786.521 -1.345 -1.31497 0
M  V30 8626 O 785.879 -0.39687 -1.76903 0
M  V30 8627 C 785.927 -3.59201 -0.317304 0
M  V30 8628 O 785.031 -3.88085 -1.39514 0
M  V30 8629 H 784.372 -0.663723 0.0191822 0
M  V30 8630 H 786.902 -1.92963 0.680179 0
M  V30 8631 H 786.912 -4.04227 -0.553604 0
M  V30 8632 H 785.587 -4.11602 0.596387 0
M  V30 8633 H 784.164 -3.54885 -1.14504 0
M  V30 8634 N 786.349 -0.21828 -1.56081 0
M  V30 8635 C 787.279 0.687922 -2.23136 0
M  V30 8636 C 788.26 1.20357 -1.202 0
M  V30 8637 O 789.445 1.24817 -1.48776 0
M  V30 8638 C 786.575 1.89762 -2.90874 0
M  V30 8639 C 785.529 1.51595 -4.00254 0
M  V30 8640 C 784.855 2.80415 -4.55271 0
M  V30 8641 C 786.155 0.708404 -5.17474 0
M  V30 8642 H 787.849 0.128854 -2.99123 0
M  V30 8643 H 785.395 0.0605354 -1.43873 0
M  V30 8644 H 787.348 2.53699 -3.36474 0
M  V30 8645 H 786.072 2.4816 -2.1233 0
M  V30 8646 H 784.731 0.900058 -3.55379 0
M  V30 8647 H 784.379 3.36951 -3.73461 0
M  V30 8648 H 784.079 2.55613 -5.2909 0
M  V30 8649 H 785.603 3.453 -5.03587 0
M  V30 8650 H 787.017 1.2514 -5.59476 0
M  V30 8651 H 785.414 0.557593 -5.97504 0
M  V30 8652 H 786.484 -0.285679 -4.84058 0
M  V30 8653 N 787.827 1.57504 0.0551401 0
M  V30 8654 C 789.073 1.88334 0.752216 0
M  V30 8655 C 789.406 0.812742 1.76375 0
M  V30 8656 O 788.681 -0.175198 1.93709 0
M  V30 8657 C 788.964 3.29824 1.44528 0
M  V30 8658 C 788.817 4.47553 0.449026 0
M  V30 8659 C 790.136 3.69808 2.38601 0
M  V30 8660 H 787.255 0.684973 0.271995 0
M  V30 8661 H 789.897 1.89994 0.0151895 0
M  V30 8662 H 788.047 3.28539 2.07351 0
M  V30 8663 H 789.719 4.60967 -0.175277 0
M  V30 8664 H 787.962 4.33168 -0.234162 0
M  V30 8665 H 788.633 5.43376 0.971917 0
M  V30 8666 H 791.109 3.72293 1.85842 0
M  V30 8667 H 789.985 4.69665 2.84088 0
M  V30 8668 H 790.246 3.00641 3.24141 0
M  V30 8669 N 789.305 -0.326896 1.54172 0
M  V30 8670 C 790.53 -1.08924 1.76494 0
M  V30 8671 C 790.955 -1.81039 0.510523 0
M  V30 8672 O 790.313 -1.73141 -0.537756 0
M  V30 8673 C 790.361 -2.06558 2.95578 0
M  V30 8674 O 789.465 -3.14394 2.6689 0
M  V30 8675 H 788.806 -0.314216 0.584948 0
M  V30 8676 H 791.336 -0.372207 2.01186 0
M  V30 8677 H 791.346 -2.49487 3.22832 0
M  V30 8678 H 790.021 -1.53469 3.86549 0
M  V30 8679 H 788.598 -2.76164 2.50576 0
M  V30 8680 N 790.784 -1.46188 -0.588786 0
M  V30 8681 C 792.03 -1.51407 -1.34921 0
M  V30 8682 C 792.363 -0.162771 -1.93517 0
M  V30 8683 O 791.638 0.825082 -1.76132 0
M  V30 8684 C 791.921 -2.60795 -2.48311 0
M  V30 8685 C 791.774 -4.05435 -1.94789 0
M  V30 8686 C 793.093 -2.66313 -3.50379 0
M  V30 8687 H 790.212 -0.551213 -0.489217 0
M  V30 8688 H 792.854 -1.78095 -0.661993 0
M  V30 8689 H 791.004 -2.3817 -3.06932 0
M  V30 8690 H 792.676 -4.39328 -1.40672 0
M  V30 8691 H 790.919 -4.15202 -1.25659 0
M  V30 8692 H 791.59 -4.77691 -2.76613 0
M  V30 8693 H 794.066 -2.86634 -3.01629 0
M  V30 8694 H 792.942 -3.44681 -4.27184 0
M  V30 8695 H 793.203 -1.72127 -4.07216 0
M  V30 8696 N 792.262 0.832906 -1.33792 0
M  V30 8697 C 793.49 1.62048 -1.28639 0
M  V30 8698 C 793.905 1.88269 0.141522 0
M  V30 8699 O 793.262 1.46706 1.08553 0
M  V30 8700 C 793.313 2.96722 -2.0649 0
M  V30 8701 O 793.034 2.7165 -3.43712 0
M  V30 8702 C 794.535 3.91144 -2.08617 0
M  V30 8703 H 791.755 0.504032 -0.442937 0
M  V30 8704 H 794.299 1.03704 -1.76255 0
M  V30 8705 H 792.454 3.51652 -1.62541 0
M  V30 8706 H 792.868 3.57453 -3.83833 0
M  V30 8707 H 794.342 4.82837 -2.67531 0
M  V30 8708 H 794.819 4.25766 -1.07796 0
M  V30 8709 H 795.425 3.42152 -2.52611 0
M  V30 8710 N 793.74 1.17359 1.05189 0
M  V30 8711 C 794.687 0.890325 2.12936 0
M  V30 8712 C 795.657 -0.165779 1.65271 0
M  V30 8713 O 796.842 -0.0285672 1.90779 0
M  V30 8714 C 793.982 0.409793 3.42658 0
M  V30 8715 C 793.095 1.53002 4.03998 0
M  V30 8716 C 792.23 1.00336 5.21638 0
M  V30 8717 C 791.269 2.09903 5.74984 0
M  V30 8718 N 790.406 1.58714 6.83926 0
M  V30 8719 H 795.246 1.81299 2.36505 0
M  V30 8720 H 792.783 0.904249 1.16025 0
M  V30 8721 H 794.741 0.112743 4.17048 0
M  V30 8722 H 793.371 -0.475915 3.19272 0
M  V30 8723 H 792.423 1.9428 3.27047 0
M  V30 8724 H 793.735 2.3564 4.39631 0
M  V30 8725 H 792.889 0.660158 6.03098 0
M  V30 8726 H 791.628 0.14642 4.8748 0
M  V30 8727 H 790.633 2.45081 4.92154 0
M  V30 8728 H 791.858 2.96013 6.1119 0
M  V30 8729 H 789.804 0.752915 6.51665 0
M  V30 8730 H 789.721 2.34959 7.18561 0
M  V30 8731 H 790.989 1.27287 7.69037 0
M  V30 8732 N 795.218 -1.23913 0.973828 0
M  V30 8733 C 796.128 -2.28838 0.516735 0
M  V30 8734 C 797.144 -1.68723 -0.425282 0
M  V30 8735 O 798.32 -1.99201 -0.296819 0
M  V30 8736 C 795.385 -3.46233 -0.179914 0
M  V30 8737 C 794.446 -4.21729 0.80269 0
M  V30 8738 C 793.679 -5.33518 0.139191 0
M  V30 8739 O 793.902 -5.60252 -1.07118 0
M  V30 8740 O 792.836 -5.96088 0.834447 0
M  V30 8741 H 796.662 -2.70067 1.38916 0
M  V30 8742 H 794.247 -1.2972 0.74115 0
M  V30 8743 H 796.129 -4.17514 -0.570991 0
M  V30 8744 H 794.804 -3.06969 -1.02721 0
M  V30 8745 H 793.711 -3.52799 1.24434 0
M  V30 8746 H 795.044 -4.64825 1.61859 0
M  V30 8747 N 796.696 -0.74468 -1.38897 0
M  V30 8748 C 797.944 -0.296298 -1.99916 0
M  V30 8749 C 798.265 1.12325 -1.59399 0
M  V30 8750 O 797.535 1.76658 -0.846689 0
M  V30 8751 H 796.115 -0.106561 -0.73936 0
M  V30 8752 H 798.777 -0.956793 -1.69798 0
M  V30 8753 H 797.873 -0.352356 -3.10105 0
M  V30 8754 N 798.174 1.49689 -0.493057 0
M  V30 8755 C 799.104 2.31826 0.279073 0
M  V30 8756 C 800.085 1.39733 0.969987 0
M  V30 8757 O 801.27 1.68646 0.962925 0
M  V30 8758 C 798.4 3.20046 1.34862 0
M  V30 8759 C 797.354 4.20869 0.77805 0
M  V30 8760 C 796.68 4.97971 1.94753 0
M  V30 8761 C 797.98 5.21813 -0.225543 0
M  V30 8762 H 799.674 2.96627 -0.406512 0
M  V30 8763 H 797.22 1.42647 -0.196943 0
M  V30 8764 H 799.173 3.76315 1.89645 0
M  V30 8765 H 797.897 2.53172 2.06328 0
M  V30 8766 H 796.556 3.65733 0.252036 0
M  V30 8767 H 796.204 4.27552 2.64969 0
M  V30 8768 H 795.904 5.66186 1.57187 0
M  V30 8769 H 797.428 5.57082 2.49984 0
M  V30 8770 H 798.842 5.72823 0.233864 0
M  V30 8771 H 797.239 5.97872 -0.516622 0
M  V30 8772 H 798.309 4.71209 -1.14412 0
M  V30 8773 N 799.652 0.226554 1.55963 0
M  V30 8774 C 800.562 -0.692725 2.24139 0
M  V30 8775 C 801.578 -1.20971 1.25068 0
M  V30 8776 O 802.754 -1.25027 1.57893 0
M  V30 8777 C 799.819 -1.88183 2.91184 0
M  V30 8778 C 798.88 -1.40633 4.05612 0
M  V30 8779 C 798.113 -2.53875 4.6945 0
M  V30 8780 O 798.336 -3.72129 4.32292 0
M  V30 8781 O 797.27 -2.24792 5.58348 0
M  V30 8782 H 801.096 -0.141921 3.03368 0
M  V30 8783 H 798.681 -0.0041049 1.49399 0
M  V30 8784 H 800.563 -2.57617 3.33484 0
M  V30 8785 H 799.238 -2.42064 2.14911 0
M  V30 8786 H 798.145 -0.67986 3.67871 0
M  V30 8787 H 799.478 -0.913838 4.83642 0
M  V30 8788 N 801.13 -1.57531 -0.0467866 0
M  V30 8789 C 802.06 -2.08425 -1.05268 0
M  V30 8790 C 803.041 -0.982941 -1.38825 0
M  V30 8791 O 804.226 -1.25716 -1.48018 0
M  V30 8792 C 801.356 -2.54897 -2.35891 0
M  V30 8793 C 800.31 -3.69132 -2.16623 0
M  V30 8794 C 799.636 -4.01747 -3.52851 0
M  V30 8795 C 800.936 -4.98243 -1.56689 0
M  V30 8796 H 802.63 -2.92716 -0.62908 0
M  V30 8797 H 800.176 -1.40816 -0.301156 0
M  V30 8798 H 802.129 -2.8912 -3.06574 0
M  V30 8799 H 800.853 -1.67666 -2.80278 0
M  V30 8800 H 799.512 -3.35231 -1.48377 0
M  V30 8801 H 799.16 -3.11608 -3.94853 0
M  V30 8802 H 798.86 -4.78681 -3.4079 0
M  V30 8803 H 800.384 -4.38487 -4.24925 0
M  V30 8804 H 801.798 -5.30535 -2.17268 0
M  V30 8805 H 800.195 -5.79669 -1.55255 0
M  V30 8806 H 801.265 -4.81986 -0.530827 0
M  V30 8807 N 802.608 0.318715 -1.54344 0
M  V30 8808 C 804.019 0.89285 -1.63967 0
M  V30 8809 C 804.37 1.88712 -0.536855 0
M  V30 8810 O 803.495 2.13877 0.329457 0
M  V30 8811 C 804.09 1.62618 -2.97222 0
M  V30 8812 C 802.649 2.14897 -3.09025 0
M  V30 8813 C 801.796 0.975909 -2.5956 0
M  V30 8814 H 804.747 0.0961687 -1.58408 0
M  V30 8815 H 804.768 2.4907 -2.87653 0
M  V30 8816 H 804.28 0.902286 -3.77466 0
M  V30 8817 H 802.381 2.90387 -2.33465 0
M  V30 8818 H 802.494 2.39565 -4.14904 0
M  V30 8819 H 800.858 1.35646 -2.15574 0
M  V30 8820 H 801.641 0.266253 -3.42266 0
M  V30 8821 N 804.086 1.46499 0.581025 0
M  V30 8822 C 804.996 1.59778 1.71779 0
M  V30 8823 C 806.012 0.481223 1.67213 0
M  V30 8824 O 807.188 0.74557 1.87091 0
M  V30 8825 C 804.253 1.58626 3.08283 0
M  V30 8826 C 803.314 2.81527 3.241 0
M  V30 8827 C 802.547 2.80421 4.54092 0
M  V30 8828 O 802.77 1.89262 5.38085 0
M  V30 8829 O 801.704 3.71984 4.73193 0
M  V30 8830 H 805.53 2.55918 1.63523 0
M  V30 8831 H 803.115 1.29311 0.748267 0
M  V30 8832 H 804.997 1.60686 3.89561 0
M  V30 8833 H 803.672 0.656467 3.16973 0
M  V30 8834 H 802.579 2.85021 2.42309 0
M  V30 8835 H 803.912 3.73721 3.20302 0
M  V30 8836 N 805.565 -0.825799 1.34232 0
M  V30 8837 C 806.842 -1.56741 1.17011 0
M  V30 8838 C 807.222 -2.09512 -0.258425 0
M  V30 8839 O 806.57 -1.90664 -1.25935 0
M  V30 8840 C 806.78 -2.69104 2.22225 0
M  V30 8841 C 808.128 -3.37947 2.57055 0
M  V30 8842 O 809.152 -2.79358 2.20992 0
M  V30 8843 O 808.011 -4.43743 3.1899 0
M  V30 8844 H 805.105 -0.69163 0.453405 0
M  V30 8845 H 807.651 -0.867422 1.45856 0
M  V30 8846 H 806.423 -2.27844 3.18124 0
M  V30 8847 H 806.046 -3.46756 1.94541 0
M  V30 8848 N 807.043 -1.17915 -1.04565 0
M  V30 8849 C 807.953 -0.916449 -2.15959 0
M  V30 8850 C 808.969 0.117655 -1.73602 0
M  V30 8851 O 810.145 -0.063089 -2.01301 0
M  V30 8852 C 807.21 -0.440262 -3.43893 0
M  V30 8853 C 806.271 -1.54172 -4.00661 0
M  V30 8854 C 805.504 -1.08816 -5.22489 0
M  V30 8855 O 805.727 0.0551547 -5.70373 0
M  V30 8856 O 804.661 -1.88383 -5.7166 0
M  V30 8857 H 808.487 -1.8484 -2.40972 0
M  V30 8858 H 806.072 -0.960552 -1.14428 0
M  V30 8859 H 807.954 -0.182537 -4.21004 0
M  V30 8860 H 806.629 0.46346 -3.20365 0
M  V30 8861 H 805.536 -1.85341 -3.24961 0
M  V30 8862 H 806.869 -2.42139 -4.2852 0
M  V30 8863 N 808.521 1.23394 -0.980386 0
M  V30 8864 C 809.431 2.28561 -0.528864 0
M  V30 8865 C 810.447 1.68946 0.416329 0
M  V30 8866 O 811.623 1.99355 0.286251 0
M  V30 8867 C 808.688 3.46323 0.16155 0
M  V30 8868 C 807.749 4.21297 -0.825044 0
M  V30 8869 C 806.982 5.33437 -0.167483 0
M  V30 8870 O 807.205 5.60812 1.04146 0
M  V30 8871 O 806.139 5.95637 -0.866047 0
M  V30 8872 H 809.965 2.69326 -1.40346 0
M  V30 8873 H 807.55 1.29325 -0.748019 0
M  V30 8874 H 809.432 4.17811 0.548841 0
M  V30 8875 H 808.107 3.0751 1.01092 0
M  V30 8876 H 807.014 3.52134 -1.26303 0
M  V30 8877 H 808.347 4.6396 -1.64322 0
M  V30 8878 N 809.999 0.752036 1.385 0
M  V30 8879 C 810.909 0.125318 2.34265 0
M  V30 8880 C 811.925 -0.702437 1.59191 0
M  V30 8881 O 813.101 -0.626951 1.91393 0
M  V30 8882 C 810.166 -0.758486 3.38301 0
M  V30 8883 C 809.227 0.0834636 4.29219 0
M  V30 8884 C 808.46 -0.758252 5.28286 0
M  V30 8885 O 808.683 -1.99632 5.34325 0
M  V30 8886 O 807.617 -0.177878 6.01637 0
M  V30 8887 H 811.443 0.91617 2.89551 0
M  V30 8888 H 809.028 0.512911 1.4032 0
M  V30 8889 H 810.91 -1.26365 4.02007 0
M  V30 8890 H 809.585 -1.52786 2.85374 0
M  V30 8891 H 808.492 0.634545 3.68679 0
M  V30 8892 H 809.825 0.815455 4.85398 0
M  V30 8893 N 811.477 -1.49425 0.500989 0
M  V30 8894 C 812.424 -2.29126 -0.277443 0
M  V30 8895 C 813.394 -1.35522 -0.960363 0
M  V30 8896 O 814.579 -1.64479 -0.967027 0
M  V30 8897 C 811.719 -3.18193 -1.33593 0
M  V30 8898 C 810.832 -4.26854 -0.664791 0
M  V30 8899 C 809.967 -5.03137 -1.70372 0
M  V30 8900 C 809.006 -6.03635 -1.01445 0
M  V30 8901 N 808.143 -6.73083 -1.99758 0
M  V30 8902 H 812.983 -2.95187 0.408458 0
M  V30 8903 H 810.52 -1.45546 0.213275 0
M  V30 8904 H 812.478 -3.68207 -1.96161 0
M  V30 8905 H 811.108 -2.54116 -1.9906 0
M  V30 8906 H 810.16 -3.80328 0.0741708 0
M  V30 8907 H 811.472 -4.9865 -0.122197 0
M  V30 8908 H 810.626 -5.5702 -2.40445 0
M  V30 8909 H 809.365 -4.31114 -2.28017 0
M  V30 8910 H 808.37 -5.48984 -0.299496 0
M  V30 8911 H 809.595 -6.77644 -0.444497 0
M  V30 8912 H 807.541 -6.03832 -2.56365 0
M  V30 8913 H 807.458 -7.40855 -1.50565 0
M  V30 8914 H 808.726 -7.3157 -2.69119 0
M  V30 8915 N 812.955 -0.234822 -1.55841 0
M  V30 8916 C 813.902 0.6698 -2.20867 0
M  V30 8917 C 814.872 1.18042 -1.16856 0
M  V30 8918 O 816.057 1.23709 -1.45261 0
M  V30 8919 C 813.197 1.86646 -2.90271 0
M  V30 8920 C 812.31 1.39351 -4.08908 0
M  V30 8921 C 811.445 2.54878 -4.66059 0
M  V30 8922 C 810.484 2.04384 -5.76969 0
M  V30 8923 N 809.621 3.13233 -6.28355 0
M  V30 8924 H 814.461 0.10858 -2.97802 0
M  V30 8925 H 811.998 0.041836 -1.4704 0
M  V30 8926 H 813.956 2.56926 -3.28702 0
M  V30 8927 H 812.586 2.40035 -2.15831 0
M  V30 8928 H 811.638 0.585173 -3.75872 0
M  V30 8929 H 812.95 0.983356 -4.89011 0
M  V30 8930 H 812.104 3.33219 -5.07001 0
M  V30 8931 H 810.843 2.99188 -3.85146 0
M  V30 8932 H 809.848 1.24509 -5.35516 0
M  V30 8933 H 811.073 1.61057 -6.59725 0
M  V30 8934 H 809.019 3.57 -5.50352 0
M  V30 8935 H 808.936 2.76511 -7.03618 0
M  V30 8936 H 810.204 3.91669 -6.73955 0
M  V30 8937 N 814.433 1.57553 0.0384317 0
M  V30 8938 C 815.38 2.05942 1.04194 0
M  V30 8939 C 816.35 0.946637 1.36484 0
M  V30 8940 O 817.535 1.21658 1.46983 0
M  V30 8941 C 814.675 2.53588 2.34066 0
M  V30 8942 C 813.788 3.7862 2.08017 0
M  V30 8943 C 812.923 4.14915 3.31692 0
M  V30 8944 C 811.962 5.32891 3.01155 0
M  V30 8945 N 811.099 5.64662 4.17254 0
M  V30 8946 H 815.939 2.91429 0.622341 0
M  V30 8947 H 813.476 1.44098 0.295684 0
M  V30 8948 H 815.434 2.79276 3.09937 0
M  V30 8949 H 814.064 1.71031 2.73767 0
M  V30 8950 H 813.116 3.60073 1.22686 0
M  V30 8951 H 814.428 4.64613 1.81484 0
M  V30 8952 H 813.582 4.41681 4.15936 0
M  V30 8953 H 812.321 3.27555 3.6133 0
M  V30 8954 H 811.326 5.05887 2.15311 0
M  V30 8955 H 812.551 6.21896 2.72804 0
M  V30 8956 H 810.497 4.80261 4.46861 0
M  V30 8957 H 810.414 6.45145 3.94112 0
M  V30 8958 H 811.682 5.96 5.02399 0
M  V30 8959 N 815.911 -0.310526 1.54511 0
M  V30 8960 C 816.844 -1.40693 1.79668 0
M  V30 8961 C 817.822 -1.49159 0.64734 0
M  V30 8962 O 819.006 -1.66367 0.886239 0
M  V30 8963 C 816.133 -2.78685 1.92491 0
M  V30 8964 C 815.179 -2.87688 3.14861 0
M  V30 8965 S 816.012 -2.50759 4.7316 0
M  V30 8966 C 817.168 -3.90797 4.88906 0
M  V30 8967 H 817.401 -1.19142 2.72383 0
M  V30 8968 H 814.934 -0.508103 1.458 0
M  V30 8969 H 816.892 -3.58168 2.00563 0
M  V30 8970 H 815.553 -2.9751 1.00731 0
M  V30 8971 H 814.746 -3.8888 3.20607 0
M  V30 8972 H 814.348 -2.16189 3.05186 0
M  V30 8973 H 816.64 -4.85693 4.72344 0
M  V30 8974 H 817.583 -3.90027 5.91003 0
M  V30 8975 H 817.991 -3.80357 4.1712 0
M  V30 8976 N 817.389 -1.46805 -0.573248 0
M  V30 8977 C 818.299 -1.60687 -1.70929 0
M  V30 8978 C 819.315 -0.490084 -1.66956 0
M  V30 8979 O 820.491 -0.755482 -1.86693 0
M  V30 8980 C 817.556 -1.60259 -3.07438 0
M  V30 8981 C 816.617 -2.83242 -3.22603 0
M  V30 8982 C 815.85 -2.82825 -4.52599 0
M  V30 8983 O 816.073 -1.92113 -5.37074 0
M  V30 8984 O 815.007 -3.74489 -4.71213 0
M  V30 8985 H 818.833 -2.56782 -1.62163 0
M  V30 8986 H 816.418 -1.29706 -0.741399 0
M  V30 8987 H 818.3 -1.6275 -3.88704 0
M  V30 8988 H 816.975 -0.673268 -3.16621 0
M  V30 8989 H 815.882 -2.86302 -2.40794 0
M  V30 8990 H 817.215 -3.75415 -3.18315 0
M  V30 8991 N 818.867 0.818669 -1.34668 0
M  V30 8992 C 819.777 1.9616 -1.2868 0
M  V30 8993 C 820.793 1.72918 -0.193742 0
M  V30 8994 O 821.969 1.96951 -0.420975 0
M  V30 8995 C 819.034 3.30534 -1.04633 0
M  V30 8996 C 818.095 3.66755 -2.23136 0
M  V30 8997 C 817.328 4.94717 -2.00227 0
M  V30 8998 O 817.551 5.62218 -0.96264 0
M  V30 8999 O 816.485 5.28915 -2.87286 0
M  V30 9000 H 820.311 2.04157 -2.24842 0
M  V30 9001 H 817.896 0.954691 -1.14917 0
M  V30 9002 H 819.778 4.11005 -0.930216 0
M  V30 9003 H 818.453 3.23495 -0.115139 0
M  V30 9004 H 817.36 2.8671 -2.40308 0
M  V30 9005 H 818.693 3.78484 -3.1466 0
M  V30 9006 N 820.346 1.18468 1.03938 0
M  V30 9007 C 821.571 1.00638 1.81347 0
M  V30 9008 C 821.996 -0.440477 1.8287 0
M  V30 9009 O 821.354 -1.31609 1.24695 0
M  V30 9010 C 821.402 1.5673 3.24759 0
M  V30 9011 O 820.506 0.789517 4.04772 0
M  V30 9012 H 819.847 0.356432 0.560225 0
M  V30 9013 H 822.377 1.57253 1.30891 0
M  V30 9014 H 822.387 1.59496 3.75533 0
M  V30 9015 H 821.062 2.62043 3.22965 0
M  V30 9016 H 819.639 0.834267 3.63448 0
M  V30 9017 N 821.824 -1.22873 0.986916 0
M  V30 9018 C 822.771 -2.2458 0.532215 0
M  V30 9019 C 823.741 -1.60375 -0.432322 0
M  V30 9020 O 824.926 -1.87775 -0.338416 0
M  V30 9021 C 822.066 -3.44761 -0.152864 0
M  V30 9022 C 821.179 -4.23501 0.852704 0
M  V30 9023 C 820.314 -5.31011 0.14176 0
M  V30 9024 C 819.353 -6.01464 1.1361 0
M  V30 9025 N 818.49 -7.00631 0.453871 0
M  V30 9026 H 823.33 -2.62838 1.40428 0
M  V30 9027 H 820.867 -1.29185 0.703543 0
M  V30 9028 H 822.825 -4.1333 -0.566926 0
M  V30 9029 H 821.455 -3.07284 -0.988756 0
M  V30 9030 H 820.507 -3.54286 1.38512 0
M  V30 9031 H 821.819 -4.72097 1.61014 0
M  V30 9032 H 820.973 -6.05805 -0.329337 0
M  V30 9033 H 819.712 -4.83373 -0.648229 0
M  V30 9034 H 818.717 -5.25456 1.61789 0
M  V30 9035 H 819.942 -6.5119 1.92686 0
M  V30 9036 H 817.888 -6.55235 -0.316791 0
M  V30 9037 H 817.805 -7.47204 1.14986 0
M  V30 9038 H 819.073 -7.795 0.00537823 0
M  V30 9039 N 823.302 -0.75937 -1.38099 0
M  V30 9040 C 824.265 -0.14372 -2.28749 0
M  V30 9041 C 825.265 0.641338 -1.47457 0
M  V30 9042 O 826.455 0.466751 -1.67831 0
M  V30 9043 C 823.587 0.804545 -3.3127 0
M  V30 9044 H 824.78 -0.942663 -2.847 0
M  V30 9045 H 822.333 -0.526757 -1.47156 0
M  V30 9046 H 823.068 1.62895 -2.80421 0
M  V30 9047 H 822.853 0.243939 -3.9134 0
M  V30 9048 H 824.343 1.23111 -3.99041 0
M  V30 9049 N 824.78 1.49157 -0.508906 0
M  V30 9050 C 825.727 2.2927 0.265288 0
M  V30 9051 C 826.697 1.3603 0.953162 0
M  V30 9052 O 827.882 1.64989 0.958291 0
M  V30 9053 C 825.022 3.18897 1.31904 0
M  V30 9054 C 824.135 4.27201 0.642144 0
M  V30 9055 C 823.27 5.04033 1.67701 0
M  V30 9056 C 822.309 6.04165 0.982422 0
M  V30 9057 N 821.446 6.74133 1.96186 0
M  V30 9058 H 826.286 2.94967 -0.424107 0
M  V30 9059 H 823.823 1.45431 -0.220991 0
M  V30 9060 H 825.781 3.69242 1.94206 0
M  V30 9061 H 824.411 2.55168 1.97709 0
M  V30 9062 H 823.463 3.80283 -0.0943395 0
M  V30 9063 H 824.775 4.98708 0.0957507 0
M  V30 9064 H 823.929 5.58287 2.37487 0
M  V30 9065 H 822.668 4.32317 2.25728 0
M  V30 9066 H 821.673 5.49135 0.270378 0
M  V30 9067 H 822.898 6.7787 0.408554 0
M  V30 9068 H 820.844 6.05183 2.53159 0
M  V30 9069 H 820.761 7.41643 1.46634 0
M  V30 9070 H 822.029 7.32987 2.65236 0
M  V30 9071 N 826.258 0.243083 1.55714 0
M  V30 9072 C 827.505 -0.38272 1.9885 0
M  V30 9073 C 827.833 -1.58225 1.13115 0
M  V30 9074 O 827.088 -1.94861 0.181067 0
M  V30 9075 C 827.387 -0.839621 3.47398 0
M  V30 9076 C 827.053 0.251737 4.50197 0
M  V30 9077 C 825.715 0.551487 4.78029 0
M  V30 9078 C 828.067 0.988728 5.11736 0
M  V30 9079 C 825.395 1.59237 5.64677 0
M  V30 9080 C 827.747 2.0191 5.99512 0
M  V30 9081 C 826.411 2.32554 6.2568 0
M  V30 9082 H 825.681 -0.140047 0.727645 0
M  V30 9083 H 828.328 0.35011 1.88272 0
M  V30 9084 H 826.633 -1.65159 3.55288 0
M  V30 9085 H 828.33 -1.33404 3.78159 0
M  V30 9086 H 824.92 0.00796741 4.28599 0
M  V30 9087 H 829.104 0.7704 4.90284 0
M  V30 9088 H 824.36 1.83517 5.83208 0
M  V30 9089 H 828.534 2.59511 6.46241 0
M  V30 9090 H 826.161 3.13349 6.92616 0
M  V30 9091 N 827.736 -1.57571 -0.0300757 0
M  V30 9092 C 828.646 -2.09892 -1.04798 0
M  V30 9093 C 829.662 -1.03732 -1.39698 0
M  V30 9094 O 830.838 -1.35461 -1.49038 0
M  V30 9095 C 827.903 -2.56707 -2.33028 0
M  V30 9096 C 826.964 -3.77345 -2.04718 0
M  V30 9097 C 826.197 -4.21918 -3.26834 0
M  V30 9098 O 826.42 -3.66025 -4.37472 0
M  V30 9099 O 825.354 -5.14362 -3.12594 0
M  V30 9100 H 829.18 -2.97023 -0.633344 0
M  V30 9101 H 826.765 -1.47344 -0.246991 0
M  V30 9102 H 828.647 -2.87154 -3.08417 0
M  V30 9103 H 827.322 -1.72688 -2.73789 0
M  V30 9104 H 826.229 -3.51919 -1.26901 0
M  V30 9105 H 827.562 -4.62345 -1.68813 0
M  V30 9106 N 829.214 0.302327 -1.54673 0
M  V30 9107 C 830.162 1.39286 -1.86285 0
M  V30 9108 C 831.156 1.52553 -0.736478 0
M  V30 9109 O 832.362 1.54686 -0.92045 0
M  V30 9110 H 828.737 0.465228 -0.590819 0
M  V30 9111 H 830.708 1.09859 -2.77441 0
M  V30 9112 C 829.457 2.75155 -2.12567 0
M  V30 9113 H 828.78 2.65728 -2.98712 0
M  V30 9114 H 830.22 3.50476 -2.38627 0
M  V30 9115 C 828.679 3.23987 -0.923813 0
M  V30 9116 O 829.209 4.01443 -0.143649 0
M  V30 9117 N 827.415 2.81293 -0.72956 0
M  V30 9118 H 826.962 2.18421 -1.36565 0
M  V30 9119 H 826.92 3.14315 0.0730351 0
M  V30 9120 N 830.692 1.47107 0.565454 0
M  V30 9121 C 831.622 1.61846 1.68309 0
M  V30 9122 C 832.603 0.468159 1.63531 0
M  V30 9123 O 833.788 0.696504 1.8128 0
M  V30 9124 C 830.918 1.62474 3.06952 0
M  V30 9125 C 829.872 2.76649 3.26572 0
M  V30 9126 C 829.198 2.62345 4.65917 0
M  V30 9127 C 830.498 4.18319 3.12741 0
M  V30 9128 H 832.192 2.55407 1.5623 0
M  V30 9129 H 829.738 1.22916 0.750179 0
M  V30 9130 H 831.691 1.71378 3.84977 0
M  V30 9131 H 830.415 0.654692 3.19971 0
M  V30 9132 H 829.074 2.67242 2.50952 0
M  V30 9133 H 828.722 1.63386 4.75725 0
M  V30 9134 H 828.422 3.38936 4.79996 0
M  V30 9135 H 829.946 2.73165 5.46089 0
M  V30 9136 H 831.36 4.28745 3.80593 0
M  V30 9137 H 829.757 4.95632 3.38333 0
M  V30 9138 H 830.827 4.37263 2.09592 0
M  V30 9139 N 832.17 -0.811516 1.35101 0
M  V30 9140 C 833.41 -1.58177 1.29458 0
M  V30 9141 C 833.774 -1.91555 -0.130688 0
M  V30 9142 O 834.975 -2.6699 -0.311428 0
M  V30 9143 C 833.246 -2.83896 2.17112 0
M  V30 9144 S 834.805 -3.74344 2.28936 0
M  V30 9145 H 831.623 -0.542021 0.460146 0
M  V30 9146 H 834.225 -0.957653 1.70438 0
M  V30 9147 H 832.929 -2.57391 3.19653 0
M  V30 9148 H 832.46 -3.51297 1.7707 0
M  V30 9149 H 834.475 -4.73909 1.47054 0
M  V30 9150 N 833.648 -1.19017 -1.03309 0
M  V30 9151 C 834.595 -0.924088 -2.11493 0
M  V30 9152 C 835.565 0.139464 -1.65513 0
M  V30 9153 O 836.75 -0.00178761 -1.908 0
M  V30 9154 C 833.89 -0.464255 -3.41963 0
M  V30 9155 C 833.003 -1.5941 -4.01513 0
M  V30 9156 C 832.138 -1.08622 -5.19976 0
M  V30 9157 C 831.177 -2.19024 -5.71572 0
M  V30 9158 N 830.314 -1.69575 -6.81314 0
M  V30 9159 H 835.154 -1.85039 -2.33591 0
M  V30 9160 H 832.691 -0.922593 -1.14572 0
M  V30 9161 H 834.649 -0.179078 -4.16815 0
M  V30 9162 H 833.279 0.425062 -3.19989 0
M  V30 9163 H 832.331 -1.99458 -3.23915 0
M  V30 9164 H 833.643 -2.42604 -4.35826 0
M  V30 9165 H 832.797 -0.756022 -6.01971 0
M  V30 9166 H 831.536 -0.223955 -4.87186 0
M  V30 9167 H 830.541 -2.5288 -4.88193 0
M  V30 9168 H 831.766 -3.05699 -6.06403 0
M  V30 9169 H 829.712 -0.856494 -6.50385 0
M  V30 9170 H 829.629 -2.46361 -7.14732 0
M  V30 9171 H 830.897 -1.39505 -7.66915 0
M  V30 9172 N 835.127 1.22348 -0.993418 0
M  V30 9173 C 836.057 2.26584 -0.564088 0
M  V30 9174 C 837.038 1.65102 0.409298 0
M  V30 9175 O 838.223 1.91872 0.299819 0
M  V30 9176 C 835.353 3.47087 0.121554 0
M  V30 9177 C 834.307 4.21009 -0.770429 0
M  V30 9178 C 833.633 5.34678 0.0481586 0
M  V30 9179 C 834.933 4.79636 -2.06752 0
M  V30 9180 H 836.627 2.62749 -1.43538 0
M  V30 9181 H 834.173 1.26303 -0.691628 0
M  V30 9182 H 836.126 4.19166 0.433303 0
M  V30 9183 H 834.85 3.1002 1.0274 0
M  V30 9184 H 833.509 3.50764 -1.06583 0
M  V30 9185 H 833.157 4.93852 0.954933 0
M  V30 9186 H 832.857 5.85061 -0.545641 0
M  V30 9187 H 834.381 6.09573 0.353991 0
M  V30 9188 H 835.795 5.43654 -1.81969 0
M  V30 9189 H 834.192 5.4036 -2.61019 0
M  V30 9190 H 835.262 3.99659 -2.74592 0
M  V30 9191 N 836.605 0.766683 1.37694 0
M  V30 9192 C 837.538 0.0959288 2.27998 0
M  V30 9193 C 838.516 -0.714493 1.46061 0
M  V30 9194 O 839.7 -0.690337 1.75404 0
M  V30 9195 C 836.827 -0.87057 3.27321 0
M  V30 9196 C 835.873 -0.144771 4.26254 0
M  V30 9197 S 836.706 1.16365 5.22704 0
M  V30 9198 C 837.862 0.200564 6.25579 0
M  V30 9199 H 838.095 0.861666 2.84539 0
M  V30 9200 H 835.628 0.559845 1.43893 0
M  V30 9201 H 837.586 -1.42282 3.85053 0
M  V30 9202 H 836.247 -1.60938 2.69737 0
M  V30 9203 H 835.44 -0.877259 4.96307 0
M  V30 9204 H 835.042 0.33633 3.72485 0
M  V30 9205 H 837.334 -0.628833 6.74575 0
M  V30 9206 H 838.277 0.869117 7.02746 0
M  V30 9207 H 838.685 -0.185972 5.64194 0
M  V30 9208 N 838.083 -1.48885 0.516809 0
M  V30 9209 C 839.03 -2.29408 -0.253125 0
M  V30 9210 C 840 -1.36533 -0.945935 0
M  V30 9211 O 841.185 -1.65495 -0.949527 0
M  V30 9212 C 838.325 -3.19592 -1.30211 0
M  V30 9213 C 837.438 -4.27535 -0.61948 0
M  V30 9214 C 836.573 -5.04916 -1.65026 0
M  V30 9215 C 835.612 -6.04677 -0.950368 0
M  V30 9216 N 834.749 -6.75164 -1.92608 0
M  V30 9217 H 839.589 -2.94738 0.439744 0
M  V30 9218 H 837.126 -1.45311 0.2287 0
M  V30 9219 H 839.084 -3.70267 -1.92245 0
M  V30 9220 H 837.714 -2.56213 -1.96353 0
M  V30 9221 H 836.766 -3.80228 0.114505 0
M  V30 9222 H 838.078 -4.98752 -0.0693016 0
M  V30 9223 H 837.232 -5.59539 -2.34523 0
M  V30 9224 H 835.971 -4.33508 -2.23432 0
M  V30 9225 H 834.976 -5.4927 -0.241252 0
M  V30 9226 H 836.201 -6.78077 -0.372599 0
M  V30 9227 H 834.147 -6.06517 -2.49946 0
M  V30 9228 H 834.064 -7.4241 -1.42699 0
M  V30 9229 H 835.332 -7.34384 -2.61345 0
M  V30 9230 N 839.561 -0.251338 -1.55583 0
M  V30 9231 C 840.471 0.656978 -2.25213 0
M  V30 9232 C 841.487 1.18966 -1.26977 0
M  V30 9233 O 842.663 1.22499 -1.59862 0
M  V30 9234 C 839.728 1.83527 -2.94141 0
M  V30 9235 C 838.789 1.34162 -4.07798 0
M  V30 9236 C 838.022 2.46375 -4.73429 0
M  V30 9237 O 838.245 3.65205 -4.38157 0
M  V30 9238 O 837.179 2.15881 -5.61853 0
M  V30 9239 H 841.005 0.0936395 -3.03556 0
M  V30 9240 H 838.59 -0.0196638 -1.49387 0
M  V30 9241 H 840.472 2.52279 -3.3754 0
M  V30 9242 H 839.147 2.38614 -2.18735 0
M  V30 9243 H 838.054 0.621249 -3.68906 0
M  V30 9244 H 839.387 0.836779 -4.85035 0
M  V30 9245 N 841.039 1.57585 0.0217189 0
M  V30 9246 C 842.288 1.88786 0.710125 0
M  V30 9247 C 842.601 0.850819 1.76126 0
M  V30 9248 O 843.807 1.0523 2.50277 0
M  V30 9249 C 842.263 3.3505 1.31413 0
M  V30 9250 C 841.871 4.47001 0.298959 0
M  V30 9251 C 843.615 3.7539 1.98199 0
M  V30 9252 C 841.522 5.8433 0.911727 0
M  V30 9253 H 840.452 0.704388 0.268986 0
M  V30 9254 H 843.103 1.83466 -0.0352638 0
M  V30 9255 H 841.485 3.35138 2.10947 0
M  V30 9256 H 842.659 4.58395 -0.470203 0
M  V30 9257 H 840.974 4.15542 -0.267222 0
M  V30 9258 H 843.571 4.75314 2.4491 0
M  V30 9259 H 843.914 3.07766 2.80331 0
M  V30 9260 H 844.447 3.77508 1.2543 0
M  V30 9261 H 841.186 6.55372 0.129659 0
M  V30 9262 H 840.706 5.76643 1.65056 0
M  V30 9263 H 842.385 6.31295 1.41688 0
M  V30 9264 N 842.517 -0.29412 1.54831 0
M  V30 9265 C 843.447 -1.36757 1.89261 0
M  V30 9266 C 844.428 -1.52564 0.752214 0
M  V30 9267 O 845.613 -1.65958 1.00855 0
M  V30 9268 C 842.743 -2.73066 2.14597 0
M  V30 9269 C 841.697 -2.72017 3.3044 0
M  V30 9270 C 841.023 -4.11679 3.4121 0
M  V30 9271 C 842.323 -2.33149 4.67375 0
M  V30 9272 H 844.017 -1.08191 2.79169 0
M  V30 9273 H 841.563 -0.519014 1.34321 0
M  V30 9274 H 843.516 -3.48255 2.37269 0
M  V30 9275 H 842.24 -3.03172 1.21467 0
M  V30 9276 H 840.899 -1.99285 3.07703 0
M  V30 9277 H 840.547 -4.38973 2.45584 0
M  V30 9278 H 840.247 -4.11877 4.19084 0
M  V30 9279 H 841.771 -4.88637 3.6615 0
M  V30 9280 H 843.185 -2.98054 4.89731 0
M  V30 9281 H 841.582 -2.44546 5.48012 0
M  V30 9282 H 842.652 -1.28275 4.67626 0
M  V30 9283 N 843.995 -1.47404 -0.557645 0
M  V30 9284 C 845.272 -1.44488 -1.31843 0
M  V30 9285 C 845.652 -0.1416 -2.10625 0
M  V30 9286 O 845 0.876908 -2.11004 0
M  V30 9287 C 845.21 -2.69016 -2.22331 0
M  V30 9288 C 846.558 -3.16212 -2.83364 0
M  V30 9289 O 847.582 -2.69741 -2.32634 0
M  V30 9290 O 846.441 -3.96999 -3.75571 0
M  V30 9291 H 843.535 -0.57578 -0.593639 0
M  V30 9292 H 846.081 -1.59605 -0.576584 0
M  V30 9293 H 844.853 -3.55406 -1.63715 0
M  V30 9294 H 844.476 -2.56484 -3.03812 0
M  V30 9295 N 845.473 0.80434 -1.35529 0
M  V30 9296 C 846.42 1.91629 -1.28635 0
M  V30 9297 C 847.39 1.65348 -0.157862 0
M  V30 9298 O 848.575 1.87711 -0.341934 0
M  V30 9299 C 845.715 3.28207 -1.0665 0
M  V30 9300 C 844.828 3.66659 -2.28441 0
M  V30 9301 C 843.963 4.92279 -1.99588 0
M  V30 9302 C 843.002 5.23365 -3.1742 0
M  V30 9303 N 842.139 6.40165 -2.88328 0
M  V30 9304 H 846.979 1.96858 -2.23721 0
M  V30 9305 H 844.516 0.962871 -1.11208 0
M  V30 9306 H 846.474 4.06945 -0.919343 0
M  V30 9307 H 845.104 3.22441 -0.152253 0
M  V30 9308 H 844.156 2.83164 -2.54013 0
M  V30 9309 H 845.468 3.8559 -3.1642 0
M  V30 9310 H 844.622 5.78847 -1.81715 0
M  V30 9311 H 843.361 4.75387 -1.08896 0
M  V30 9312 H 842.366 4.35285 -3.35867 0
M  V30 9313 H 843.591 5.42185 -4.08916 0
M  V30 9314 H 841.537 6.24694 -2.00233 0
M  V30 9315 H 841.454 6.59357 -3.69843 0
M  V30 9316 H 842.722 7.29755 -2.74002 0
M  V30 9317 N 846.951 1.19563 1.02676 0
M  V30 9318 C 847.898 0.935291 2.11 0
M  V30 9319 C 848.868 -0.130685 1.65585 0
M  V30 9320 O 850.053 0.0119062 1.90796 0
M  V30 9321 C 847.193 0.482384 3.41712 0
M  V30 9322 C 846.306 1.61537 4.00662 0
M  V30 9323 C 845.441 1.11378 5.19392 0
M  V30 9324 C 844.48 2.22052 5.70403 0
M  V30 9325 N 843.617 1.73185 6.80405 0
M  V30 9326 H 848.457 1.86275 2.32606 0
M  V30 9327 H 845.994 0.928656 1.14081 0
M  V30 9328 H 847.952 0.20118 4.16715 0
M  V30 9329 H 846.582 -0.408086 3.2021 0
M  V30 9330 H 845.634 2.01173 3.22852 0
M  V30 9331 H 846.946 2.44912 4.34534 0
M  V30 9332 H 846.1 0.787935 6.01562 0
M  V30 9333 H 844.839 0.249789 4.8706 0
M  V30 9334 H 843.844 2.55465 4.86845 0
M  V30 9335 H 845.069 3.08911 6.04774 0
M  V30 9336 H 843.015 0.890973 6.49921 0
M  V30 9337 H 842.932 2.50148 7.13416 0
M  V30 9338 H 844.2 1.4357 7.66164 0
M  V30 9339 N 848.429 -1.21819 0.999893 0
M  V30 9340 C 849.675 -1.91035 0.680701 0
M  V30 9341 C 850.008 -1.77582 -0.786021 0
M  V30 9342 O 849.283 -1.14917 -1.56921 0
M  V30 9343 C 849.566 -3.43013 1.0961 0
M  V30 9344 C 849.419 -3.65481 2.6219 0
M  V30 9345 C 850.738 -4.35204 0.654616 0
M  V30 9346 H 847.857 -0.693748 0.248763 0
M  V30 9347 H 850.499 -1.43555 1.24466 0
M  V30 9348 H 848.649 -3.83581 0.616253 0
M  V30 9349 H 850.321 -3.34273 3.17899 0
M  V30 9350 H 848.564 -3.09522 3.03938 0
M  V30 9351 H 849.235 -4.71945 2.86307 0
M  V30 9352 H 851.711 -4.0219 1.06688 0
M  V30 9353 H 850.587 -5.40198 0.973492 0
M  V30 9354 H 850.848 -4.3986 -0.444458 0
M  V30 9355 N 849.908 -0.773975 -1.37286 0
M  V30 9356 C 850.818 -0.162571 -2.34036 0
M  V30 9357 C 851.834 0.677022 -1.60289 0
M  V30 9358 O 853.01 0.596423 -1.92366 0
M  V30 9359 C 850.075 0.70457 -3.39465 0
M  V30 9360 C 849.136 -0.151738 -4.29032 0
M  V30 9361 C 848.369 0.674111 -5.29426 0
M  V30 9362 O 848.592 1.91107 -5.37433 0
M  V30 9363 O 847.526 0.0821398 -6.01844 0
M  V30 9364 H 851.352 -0.962119 -2.88057 0
M  V30 9365 H 848.937 -0.53517 -1.39486 0
M  V30 9366 H 850.819 1.19954 -4.03967 0
M  V30 9367 H 849.494 1.48227 -2.87768 0
M  V30 9368 H 848.401 -0.693118 -3.67623 0
M  V30 9369 H 849.734 -0.892575 -4.84039 0
M  V30 9370 N 851.386 1.48609 -0.524698 0
M  V30 9371 C 852.333 2.29539 0.240956 0
M  V30 9372 C 853.303 1.37033 0.938681 0
M  V30 9373 O 854.488 1.65996 0.940737 0
M  V30 9374 C 851.628 3.20278 1.28514 0
M  V30 9375 C 850.741 4.27858 0.596798 0
M  V30 9376 C 849.876 5.05784 1.62346 0
M  V30 9377 C 848.915 6.05173 0.918287 0
M  V30 9378 N 848.052 6.76176 1.89025 0
M  V30 9379 H 852.892 2.945 -0.455368 0
M  V30 9380 H 850.429 1.45188 -0.236403 0
M  V30 9381 H 852.387 3.71281 1.90279 0
M  V30 9382 H 851.017 2.57251 1.94992 0
M  V30 9383 H 850.069 3.80162 -0.134668 0
M  V30 9384 H 851.381 4.98782 0.0428506 0
M  V30 9385 H 850.535 5.60775 2.31553 0
M  V30 9386 H 849.274 4.34687 2.2113 0
M  V30 9387 H 848.279 5.49391 0.21212 0
M  V30 9388 H 849.504 6.78265 0.336633 0
M  V30 9389 H 847.45 6.07834 2.46726 0
M  V30 9390 H 847.367 7.43157 1.3876 0
M  V30 9391 H 848.635 7.35759 2.57446 0
M  V30 9392 N 852.864 0.259585 1.55447 0
M  V30 9393 C 854.11 -0.362143 1.9954 0
M  V30 9394 C 854.443 -1.5666 1.14767 0
M  V30 9395 O 853.718 -1.93319 0.214025 0
M  V30 9396 C 854.001 -0.759588 3.51998 0
M  V30 9397 C 853.854 0.451134 4.47532 0
M  V30 9398 C 855.173 -1.60186 4.09913 0
M  V30 9399 H 852.292 -0.130157 0.725416 0
M  V30 9400 H 854.934 0.363431 1.86492 0
M  V30 9401 H 853.084 -1.3778 3.63248 0
M  V30 9402 H 854.756 1.08965 4.48246 0
M  V30 9403 H 852.999 1.092 4.19831 0
M  V30 9404 H 853.67 0.129518 5.51848 0
M  V30 9405 H 856.146 -1.0799 4.01842 0
M  V30 9406 H 855.022 -1.84879 5.16828 0
M  V30 9407 H 855.283 -2.57787 3.59163 0
M  V30 9408 N 854.342 -1.57594 -0.0133615 0
M  V30 9409 C 855.57 -1.94251 -0.712328 0
M  V30 9410 C 855.985 -0.86063 -1.68043 0
M  V30 9411 O 855.342 0.161632 -1.81783 0
M  V30 9412 C 855.393 -3.30891 -1.45581 0
M  V30 9413 O 855.114 -4.34924 -0.526539 0
M  V30 9414 C 856.615 -3.81926 -2.2505 0
M  V30 9415 H 853.835 -0.640737 -0.199241 0
M  V30 9416 H 856.379 -2.04472 0.0337855 0
M  V30 9417 H 854.534 -3.22019 -2.15366 0
M  V30 9418 H 854.948 -5.1389 -1.04962 0
M  V30 9419 H 856.422 -4.79999 -2.72589 0
M  V30 9420 H 856.899 -3.13934 -3.07152 0
M  V30 9421 H 857.505 -3.93931 -1.60308 0
M  V30 9422 N 855.82 0.285905 -1.54985 0
M  V30 9423 C 857.069 1.01691 -1.74189 0
M  V30 9424 C 857.382 1.87908 -0.543135 0
M  V30 9425 O 858.588 2.64389 -0.617305 0
M  V30 9426 C 857.044 1.85785 -3.0824 0
M  V30 9427 C 856.652 1.04497 -4.35642 0
M  V30 9428 C 858.396 2.58393 -3.36798 0
M  V30 9429 C 856.303 1.87955 -5.60738 0
M  V30 9430 H 855.233 0.383396 -0.649248 0
M  V30 9431 H 857.884 0.27317 -1.81455 0
M  V30 9432 H 856.266 2.64205 -2.94978 0
M  V30 9433 H 857.44 0.305847 -4.59784 0
M  V30 9434 H 855.755 0.434023 -4.14132 0
M  V30 9435 H 858.352 3.21214 -4.27464 0
M  V30 9436 H 858.695 3.28011 -2.56349 0
M  V30 9437 H 859.228 1.87012 -3.511 0
M  V30 9438 H 855.967 1.22781 -6.43898 0
M  V30 9439 H 855.487 2.59499 -5.40759 0
M  V30 9440 H 857.166 2.45636 -5.98558 0
M  V30 9441 N 857.298 1.47698 0.54982 0
M  V30 9442 C 858.523 1.58579 1.33669 0
M  V30 9443 C 858.948 0.239049 1.86575 0
M  V30 9444 O 858.306 -0.786256 1.63364 0
M  V30 9445 C 858.354 2.62029 2.47736 0
M  V30 9446 O 857.458 2.17813 3.50188 0
M  V30 9447 H 856.799 0.532447 0.396732 0
M  V30 9448 H 859.329 1.93536 0.6637 0
M  V30 9449 H 859.339 2.82682 2.94202 0
M  V30 9450 H 858.014 3.59812 2.08586 0
M  V30 9451 H 856.591 2.07291 3.09976 0
M  V30 9452 N 858.776 -0.797141 1.35954 0
M  V30 9453 C 859.724 -1.93084 1.29697 0
M  V30 9454 C 860.718 -1.68329 0.190152 0
M  V30 9455 O 861.924 -1.7643 0.3567 0
M  V30 9456 H 858.299 -0.634531 0.403577 0
M  V30 9457 H 860.27 -1.95481 2.25455 0
M  V30 9458 C 859.019 -3.29996 1.09536 0
M  V30 9459 H 858.342 -3.49607 1.93946 0
M  V30 9460 H 859.782 -4.09696 1.09202 0
M  V30 9461 C 858.241 -3.36304 -0.200381 0
M  V30 9462 O 858.771 -3.83579 -1.19291 0
M  V30 9463 N 856.977 -2.89587 -0.242406 0
M  V30 9464 H 856.524 -2.51307 0.565897 0
M  V30 9465 H 856.482 -2.94189 -1.10906 0
M  V30 9466 N 860.254 -1.20106 -1.0204 0
M  V30 9467 C 861.67 -0.955099 -1.27867 0
M  V30 9468 C 861.87 0.367595 -1.98119 0
M  V30 9469 O 860.926 1.09705 -2.27423 0
M  V30 9470 C 862.239 -2.13507 -2.11744 0
M  V30 9471 C 863.787 -2.17563 -2.25023 0
M  V30 9472 C 864.262 -3.35035 -3.12275 0
M  V30 9473 N 865.753 -3.35024 -3.19864 0
M  V30 9474 C 866.488 -4.22566 -3.8759 0
M  V30 9475 N 865.984 -5.20278 -4.57474 0
M  V30 9476 N 867.777 -4.10418 -3.84075 0
M  V30 9477 H 859.928 -2.05193 -0.54861 0
M  V30 9478 H 862.191 -0.897689 -0.304728 0
M  V30 9479 H 861.897 -3.09275 -1.67456 0
M  V30 9480 H 861.771 -2.11281 -3.12474 0
M  V30 9481 H 864.158 -1.22359 -2.68537 0
M  V30 9482 H 864.239 -2.23838 -1.23815 0
M  V30 9483 H 863.883 -4.30522 -2.69468 0
M  V30 9484 H 863.813 -3.25996 -4.13563 0
M  V30 9485 H 866.304 -2.64299 -2.701 0
M  V30 9486 H 866.617 -5.83408 -5.06809 0
M  V30 9487 H 864.962 -5.24219 -4.56311 0
M  V30 9488 H 868.153 -3.33353 -3.28623 0
M  V30 9489 H 868.326 -4.78854 -4.36581 0
M  V30 9490 N 861.732 1.21287 -1.00634 0
M  V30 9491 C 862.662 2.25973 -0.588089 0
M  V30 9492 C 863.643 1.65527 0.391764 0
M  V30 9493 O 864.828 1.92179 0.279452 0
M  V30 9494 C 861.958 3.47197 0.0847336 0
M  V30 9495 C 860.912 4.20168 -0.815039 0
M  V30 9496 C 860.238 5.34699 -0.00855393 0
M  V30 9497 C 861.538 4.77416 -2.11828 0
M  V30 9498 H 863.232 2.61212 -1.46317 0
M  V30 9499 H 860.778 1.25563 -0.704985 0
M  V30 9500 H 862.731 4.19602 0.388821 0
M  V30 9501 H 861.455 3.11092 0.994456 0
M  V30 9502 H 860.114 3.49614 -1.10297 0
M  V30 9503 H 859.762 4.94837 0.902499 0
M  V30 9504 H 859.462 5.84449 -0.607664 0
M  V30 9505 H 860.986 6.09914 0.289317 0
M  V30 9506 H 862.4 5.41694 -1.87725 0
M  V30 9507 H 860.797 5.37561 -2.66736 0
M  V30 9508 H 861.867 3.96724 -2.78816 0
M  V30 9509 N 863.21 0.781244 1.36873 0
M  V30 9510 C 864.456 0.350407 1.9975 0
M  V30 9511 C 864.789 -1.07293 1.6187 0
M  V30 9512 O 864.064 -1.73983 0.869491 0
M  V30 9513 C 864.347 0.504834 3.56544 0
M  V30 9514 C 864.2 1.97127 4.04303 0
M  V30 9515 C 865.519 -0.0851272 4.40018 0
M  V30 9516 H 862.638 0.128794 0.725659 0
M  V30 9517 H 865.28 0.98606 1.6241 0
M  V30 9518 H 863.43 -0.0363006 3.88483 0
M  V30 9519 H 865.102 2.57284 3.82887 0
M  V30 9520 H 863.345 2.47676 3.56145 0
M  V30 9521 H 864.016 2.03033 5.13305 0
M  V30 9522 H 866.492 0.376704 4.14391 0
M  V30 9523 H 865.368 0.0530015 5.48874 0
M  V30 9524 H 865.629 -1.17642 4.2616 0
M  V30 9525 N 864.689 -1.48329 0.532571 0
M  V30 9526 C 865.914 -2.074 0.00147755 0
M  V30 9527 C 866.339 -1.38615 -1.27151 0
M  V30 9528 O 865.697 -0.452949 -1.75551 0
M  V30 9529 C 865.745 -3.60029 -0.202866 0
M  V30 9530 O 864.849 -3.92327 -1.27097 0
M  V30 9531 H 864.19 -0.662777 0.0402883 0
M  V30 9532 H 866.72 -1.90701 0.741224 0
M  V30 9533 H 866.73 -4.05783 -0.424722 0
M  V30 9534 H 865.405 -4.09496 0.727033 0
M  V30 9535 H 863.982 -3.58348 -1.03156 0
M  V30 9536 N 866.167 -0.267825 -1.55308 0
M  V30 9537 C 867.392 0.357487 -2.04296 0
M  V30 9538 C 867.817 1.49222 -1.14518 0
M  V30 9539 O 867.175 1.80741 -0.142292 0
M  V30 9540 C 867.223 0.822899 -3.51085 0
M  V30 9541 O 866.327 1.93078 -3.6441 0
M  V30 9542 H 865.668 0.075025 -0.659748 0
M  V30 9543 H 868.198 -0.399996 -2.00652 0
M  V30 9544 H 868.208 1.12059 -3.92309 0
M  V30 9545 H 866.883 -0.0073562 -4.15899 0
M  V30 9546 H 865.46 1.63618 -3.35087 0
M  V30 9547 N 867.645 1.57599 0.00500368 0
M  V30 9548 C 869.056 1.78462 0.54848 0
M  V30 9549 C 869.407 0.901869 1.74243 0
M  V30 9550 O 868.532 0.103014 2.16155 0
M  V30 9551 C 869.127 3.2365 1.00179 0
M  V30 9552 C 867.686 3.45627 1.49061 0
M  V30 9553 C 866.833 2.73794 0.439531 0
M  V30 9554 H 869.784 1.57151 -0.22118 0
M  V30 9555 H 869.805 3.31488 1.86805 0
M  V30 9556 H 869.317 3.87873 0.132607 0
M  V30 9557 H 867.418 2.86612 2.38085 0
M  V30 9558 H 867.531 4.54298 1.52152 0
M  V30 9559 H 865.895 2.38267 0.900043 0
M  V30 9560 H 866.678 3.40714 -0.420599 0
M  V30 9561 N 869.123 -0.277682 1.55134 0
M  V30 9562 C 870.363 -1.01761 1.77269 0
M  V30 9563 C 870.727 -1.83668 0.559465 0
M  V30 9564 O 871.928 -2.60597 0.658972 0
M  V30 9565 C 870.199 -1.88062 3.0392 0
M  V30 9566 S 871.758 -2.68383 3.47154 0
M  V30 9567 H 868.576 -0.342816 0.622895 0
M  V30 9568 H 871.178 -0.288514 1.93359 0
M  V30 9569 H 869.882 -1.26805 3.90319 0
M  V30 9570 H 869.413 -2.65299 2.90482 0
M  V30 9571 H 871.428 -3.90567 3.06059 0
M  V30 9572 N 870.601 -1.47988 -0.541979 0
M  V30 9573 C 871.841 -1.56982 -1.30905 0
M  V30 9574 C 872.205 -0.233153 -1.90579 0
M  V30 9575 O 873.406 -0.198018 -2.6807 0
M  V30 9576 C 871.677 -2.66787 -2.37823 0
M  V30 9577 S 873.236 -2.95467 -3.24414 0
M  V30 9578 H 870.054 -0.554165 -0.445446 0
M  V30 9579 H 872.656 -1.85448 -0.618803 0
M  V30 9580 H 871.36 -3.62483 -1.92443 0
M  V30 9581 H 870.891 -2.40184 -3.11569 0
M  V30 9582 H 872.906 -2.33846 -4.37642 0
M  V30 9583 N 872.079 0.78992 -1.36375 0
M  V30 9584 C 873.328 1.54296 -1.29906 0
M  V30 9585 C 873.641 1.95234 0.119651 0
M  V30 9586 O 874.847 2.69762 0.306708 0
M  V30 9587 C 873.303 2.78533 -2.27919 0
M  V30 9588 C 872.911 2.44767 -3.75224 0
M  V30 9589 C 874.655 3.56516 -2.30427 0
M  V30 9590 C 872.562 3.65397 -4.65015 0
M  V30 9591 H 871.492 0.579214 -0.482729 0
M  V30 9592 H 874.143 0.866845 -1.61735 0
M  V30 9593 H 872.525 3.47941 -1.89084 0
M  V30 9594 H 873.699 1.83259 -4.22792 0
M  V30 9595 H 872.014 1.79996 -3.75487 0
M  V30 9596 H 874.611 4.46143 -2.94722 0
M  V30 9597 H 874.954 3.95063 -1.31266 0
M  V30 9598 H 875.487 2.94087 -2.67876 0
M  V30 9599 H 872.226 3.31946 -5.65236 0
M  V30 9600 H 871.746 4.26072 -4.22164 0
M  V30 9601 H 873.425 4.32431 -4.81261 0
M  V30 9602 N 873.557 1.20646 1.01402 0
M  V30 9603 C 874.803 1.0197 1.753 0
M  V30 9604 C 875.136 -0.446803 1.8899 0
M  V30 9605 O 874.411 -1.33169 1.41762 0
M  V30 9606 C 874.694 1.70693 3.17074 0
M  V30 9607 C 874.547 3.24805 3.11162 0
M  V30 9608 C 875.866 1.44212 4.15802 0
M  V30 9609 H 872.985 0.371844 0.636318 0
M  V30 9610 H 875.627 1.48696 1.18277 0
M  V30 9611 H 873.777 1.30968 3.65759 0
M  V30 9612 H 875.449 3.73841 2.70261 0
M  V30 9613 H 873.692 3.55576 2.48492 0
M  V30 9614 H 874.363 3.68049 4.11393 0
M  V30 9615 H 876.839 1.7868 3.75783 0
M  V30 9616 H 875.715 1.94825 5.13161 0
M  V30 9617 H 875.976 0.370252 4.40547 0
M  V30 9618 N 875.035 -1.20752 1.01276 0
M  V30 9619 C 876.263 -1.94006 0.718976 0
M  V30 9620 C 876.678 -1.74544 -0.719711 0
M  V30 9621 O 876.035 -1.05697 -1.48776 0
M  V30 9622 C 876.086 -3.46208 1.04031 0
M  V30 9623 O 875.807 -3.65031 2.42248 0
M  V30 9624 C 877.308 -4.36614 0.767032 0
M  V30 9625 H 874.528 -0.616743 0.264327 0
M  V30 9626 H 877.072 -1.53352 1.3529 0
M  V30 9627 H 875.227 -3.84756 0.451852 0
M  V30 9628 H 875.641 -4.59054 2.53712 0
M  V30 9629 H 877.115 -5.42076 1.04198 0
M  V30 9630 H 877.592 -4.38182 -0.298851 0
M  V30 9631 H 878.198 -4.03723 1.33746 0
M  V30 9632 N 876.513 -0.788492 -1.36457 0
M  V30 9633 C 877.738 -0.371224 -2.04051 0
M  V30 9634 C 878.163 1.004 -1.59064 0
M  V30 9635 O 877.521 1.64663 -0.758679 0
M  V30 9636 C 877.569 -0.442275 -3.57877 0
M  V30 9637 O 876.673 0.55113 -4.08701 0
M  V30 9638 H 876.014 -0.157808 -0.644975 0
M  V30 9639 H 878.544 -1.06935 -1.74431 0
M  V30 9640 H 878.554 -0.305548 -4.06854 0
M  V30 9641 H 877.229 -1.44547 -3.89973 0
M  V30 9642 H 875.806 0.37614 -3.70998 0
M  V30 9643 N 877.991 1.48044 -0.54043 0
M  V30 9644 C 879.219 2.06895 -0.0145153 0
M  V30 9645 C 879.634 1.39552 1.27164 0
M  V30 9646 O 878.991 0.486454 1.75897 0
M  V30 9647 C 879.042 3.60934 0.202278 0
M  V30 9648 O 878.763 4.25749 -1.03293 0
M  V30 9649 C 880.264 4.36607 0.767387 0
M  V30 9650 H 877.484 0.66991 -0.0382368 0
M  V30 9651 H 880.028 1.90288 -0.749057 0
M  V30 9652 H 878.183 3.77111 0.886897 0
M  V30 9653 H 878.597 5.18048 -0.820167 0
M  V30 9654 H 880.071 5.45126 0.86845 0
M  V30 9655 H 880.548 4.01745 1.77477 0
M  V30 9656 H 881.154 4.25133 0.119002 0
M  V30 9657 N 879.47 0.276058 1.55163 0
M  V30 9658 C 880.7 -0.343274 2.03728 0
M  V30 9659 C 881.108 -1.49945 1.15383 0
M  V30 9660 O 880.451 -1.82942 0.166696 0
M  V30 9661 C 880.513 -0.885683 3.48419 0
M  V30 9662 C 880.177 0.141976 4.56779 0
M  V30 9663 C 881.174 0.961816 5.10926 0
M  V30 9664 C 878.859 0.276487 5.01538 0
M  V30 9665 C 880.853 1.90234 6.0835 0
M  V30 9666 C 878.54 1.22049 5.98788 0
M  V30 9667 C 879.538 2.03192 6.52075 0
M  V30 9668 O 879.226 2.95996 7.47423 0
M  V30 9669 H 878.958 -0.0822192 0.670981 0
M  V30 9670 H 881.512 0.406199 2.01343 0
M  V30 9671 H 879.742 -1.68524 3.48047 0
M  V30 9672 H 881.431 -1.4182 3.80318 0
M  V30 9673 H 882.197 0.868637 4.77158 0
M  V30 9674 H 878.076 -0.345095 4.59707 0
M  V30 9675 H 881.62 2.5361 6.49867 0
M  V30 9676 H 877.517 1.31448 6.31974 0
M  V30 9677 H 878.285 2.90688 7.65142 0
M  V30 9678 N 880.948 -1.576 0.00335426 0
M  V30 9679 C 882.196 -1.90336 -0.679446 0
M  V30 9680 C 882.517 -0.877777 -1.74127 0
M  V30 9681 O 881.787 0.0843585 -1.95718 0
M  V30 9682 H 880.367 -0.702509 -0.253948 0
M  V30 9683 H 883.029 -1.94848 0.0450731 0
M  V30 9684 H 882.125 -2.90197 -1.14857 0
M  V30 9685 N 882.426 0.269451 -1.5528 0
M  V30 9686 C 883.672 0.997946 -1.77236 0
M  V30 9687 C 884.027 1.83808 -0.568546 0
M  V30 9688 O 883.32 1.8651 0.438706 0
M  V30 9689 C 883.514 1.91 -3.02082 0
M  V30 9690 C 883.343 1.15963 -4.34491 0
M  V30 9691 C 882.113 0.873873 -4.97686 0
M  V30 9692 C 884.311 0.548307 -5.11369 0
M  V30 9693 N 882.293 0.0970863 -6.13823 0
M  V30 9694 C 883.664 -0.0941413 -6.19929 0
M  V30 9695 C 885.719 0.456507 -4.95803 0
M  V30 9696 C 884.422 -0.819547 -7.14616 0
M  V30 9697 C 886.448 -0.255315 -5.90849 0
M  V30 9698 C 885.81 -0.886488 -6.988 0
M  V30 9699 H 881.909 0.347038 -0.700777 0
M  V30 9700 H 884.493 0.273262 -1.92773 0
M  V30 9701 H 882.664 2.60691 -2.87915 0
M  V30 9702 H 884.396 2.57237 -3.12428 0
M  V30 9703 H 881.151 1.18003 -4.58663 0
M  V30 9704 H 881.575 -0.278741 -6.76426 0
M  V30 9705 H 886.217 0.930164 -4.12441 0
M  V30 9706 H 883.935 -1.30488 -7.97495 0
M  V30 9707 H 887.521 -0.32671 -5.80882 0
M  V30 9708 H 886.401 -1.42851 -7.71079 0
M  V30 9709 N 883.904 1.48273 0.534124 0
M  V30 9710 C 885.132 1.59734 1.31501 0
M  V30 9711 C 885.547 0.256047 1.87056 0
M  V30 9712 O 884.904 -0.754086 1.66192 0
M  V30 9713 C 884.955 2.64072 2.46877 0
M  V30 9714 O 884.676 3.92995 1.93613 0
M  V30 9715 C 886.177 2.85933 3.38758 0
M  V30 9716 H 883.397 0.538703 0.40005 0
M  V30 9717 H 885.941 1.9407 0.644762 0
M  V30 9718 H 884.096 2.32606 3.09795 0
M  V30 9719 H 884.51 4.50203 2.69106 0
M  V30 9720 H 885.984 3.62749 4.16073 0
M  V30 9721 H 886.461 1.94603 3.93734 0
M  V30 9722 H 887.067 3.18687 2.81636 0
M  V30 9723 N 885.382 -0.782676 1.36792 0
M  V30 9724 C 886.345 -1.8772 1.31507 0
M  V30 9725 C 887.345 -1.59269 0.221349 0
M  V30 9726 O 888.535 -1.67555 0.476544 0
M  V30 9727 C 885.667 -3.24641 1.04025 0
M  V30 9728 H 886.86 -1.9382 2.28853 0
M  V30 9729 H 884.413 -0.981226 1.21662 0
M  V30 9730 H 885.148 -3.24221 0.0716439 0
M  V30 9731 H 884.933 -3.46681 1.8318 0
M  V30 9732 H 886.423 -4.04711 1.02949 0
M  V30 9733 N 886.86 -1.21182 -1.00761 0
M  V30 9734 C 887.808 -0.965728 -2.11604 0
M  V30 9735 C 888.802 0.0861028 -1.69181 0
M  V30 9736 O 890.008 -0.0650558 -1.79882 0
M  V30 9737 H 886.383 -0.295023 -0.691712 0
M  V30 9738 H 888.354 -1.90667 -2.2954 0
M  V30 9739 C 887.103 -0.544164 -3.43415 0
M  V30 9740 H 886.426 -1.34515 -3.76491 0
M  V30 9741 H 887.866 -0.411268 -4.22001 0
M  V30 9742 C 886.325 0.744583 -3.28569 0
M  V30 9743 O 886.855 1.80078 -3.59075 0
M  V30 9744 N 885.061 0.710083 -2.81791 0
M  V30 9745 H 884.608 -0.14971 -2.57165 0
M  V30 9746 H 884.566 1.57268 -2.72239 0
M  V30 9747 N 888.338 1.20213 -1.01915 0
M  V30 9748 C 889.271 2.2181 -0.536243 0
M  V30 9749 C 890.249 1.57144 0.417689 0
M  V30 9750 O 891.433 1.85461 0.337088 0
M  V30 9751 C 888.56 3.37989 0.219303 0
M  V30 9752 C 887.606 4.2097 -0.684571 0
M  V30 9753 S 888.439 4.90216 -2.15519 0
M  V30 9754 C 889.595 6.09814 -1.40988 0
M  V30 9755 H 889.828 2.62429 -1.39709 0
M  V30 9756 H 887.361 1.30305 -0.828254 0
M  V30 9757 H 889.319 4.05335 0.649112 0
M  V30 9758 H 887.98 2.95825 1.05575 0
M  V30 9759 H 887.173 5.03897 -0.101833 0
M  V30 9760 H 886.775 3.58892 -1.05227 0
M  V30 9761 H 889.067 6.73964 -0.691243 0
M  V30 9762 H 890.01 6.72552 -2.21539 0
M  V30 9763 H 890.418 5.5709 -0.911645 0
M  V30 9764 N 889.816 0.795718 1.36037 0
M  V30 9765 C 890.726 0.199784 2.33748 0
M  V30 9766 C 891.742 -0.651436 1.61345 0
M  V30 9767 O 892.918 -0.565743 1.93291 0
M  V30 9768 C 889.983 -0.650475 3.40543 0
M  V30 9769 C 889.044 0.219974 4.28736 0
M  V30 9770 C 888.277 -0.589798 5.30431 0
M  V30 9771 O 888.5 -1.82532 5.40406 0
M  V30 9772 O 887.434 0.0136187 6.01898 0
M  V30 9773 H 891.26 1.00782 2.8649 0
M  V30 9774 H 888.845 0.557293 1.38617 0
M  V30 9775 H 890.727 -1.13512 4.05824 0
M  V30 9776 H 889.402 -1.4363 2.9009 0
M  V30 9777 H 888.309 0.751516 3.66474 0
M  V30 9778 H 889.642 0.969468 4.82558 0
M  V30 9779 N 891.294 -1.47756 0.548274 0
M  V30 9780 C 892.71 -1.58247 0.207401 0
M  V30 9781 C 892.91 -1.54804 -1.28988 0
M  V30 9782 O 891.966 -1.44673 -2.06944 0
M  V30 9783 C 893.279 -2.89129 0.826142 0
M  V30 9784 C 894.827 -3.02695 0.79655 0
M  V30 9785 C 895.302 -4.36264 1.3942 0
M  V30 9786 N 896.793 -4.42877 1.35698 0
M  V30 9787 C 897.528 -5.44773 1.78913 0
M  V30 9788 N 897.024 -6.53528 2.29942 0
M  V30 9789 N 898.817 -5.35765 1.70038 0
M  V30 9790 H 890.968 -1.48236 1.52117 0
M  V30 9791 H 893.231 -0.704957 0.633829 0
M  V30 9792 H 892.937 -2.97358 1.87806 0
M  V30 9793 H 892.811 -3.75891 0.313916 0
M  V30 9794 H 895.198 -2.94067 -0.246655 0
M  V30 9795 H 895.279 -2.17496 1.34644 0
M  V30 9796 H 894.923 -4.45646 2.43642 0
M  V30 9797 H 894.853 -5.20179 0.819827 0
M  V30 9798 H 897.344 -3.64874 0.983623 0
M  V30 9799 H 897.657 -7.27441 2.60863 0
M  V30 9800 H 896.002 -6.54442 2.33947 0
M  V30 9801 H 899.193 -4.49699 1.29955 0
M  V30 9802 H 899.366 -6.1504 2.04035 0
M  V30 9803 N 892.772 -0.284283 -1.55015 0
M  V30 9804 C 894.021 0.33055 -1.98973 0
M  V30 9805 C 894.334 1.56284 -1.17621 0
M  V30 9806 O 895.54 2.2512 -1.51767 0
M  V30 9807 C 893.996 0.639457 -3.54174 0
M  V30 9808 C 893.604 -0.573543 -4.44313 0
M  V30 9809 C 895.348 1.21641 -4.06699 0
M  V30 9810 C 893.255 -0.238715 -5.90918 0
M  V30 9811 H 892.185 0.127285 -0.743179 0
M  V30 9812 H 894.836 -0.390372 -1.793 0
M  V30 9813 H 893.218 1.41953 -3.69683 0
M  V30 9814 H 894.392 -1.3502 -4.40575 0
M  V30 9815 H 892.707 -1.06797 -4.02472 0
M  V30 9816 H 895.304 1.48088 -5.13784 0
M  V30 9817 H 895.647 2.15328 -3.56286 0
M  V30 9818 H 896.18 0.498422 -3.94665 0
M  V30 9819 H 892.919 -1.1437 -6.45445 0
M  V30 9820 H 892.439 0.500997 -5.97704 0
M  V30 9821 H 894.118 0.165774 -6.46788 0
M  V30 9822 N 894.251 1.57596 -0.0117121 0
M  V30 9823 C 895.184 2.04624 1.01016 0
M  V30 9824 C 896.162 0.938437 1.32786 0
M  V30 9825 O 897.346 1.20746 1.44751 0
M  V30 9826 C 894.473 2.45369 2.33477 0
M  V30 9827 C 893.519 3.66998 2.17289 0
M  V30 9828 S 894.352 5.14412 1.48795 0
M  V30 9829 C 895.508 5.58438 2.82662 0
M  V30 9830 H 895.741 2.9098 0.60977 0
M  V30 9831 H 893.274 1.53106 0.199494 0
M  V30 9832 H 895.232 2.69511 3.09635 0
M  V30 9833 H 893.893 1.59391 2.70653 0
M  V30 9834 H 893.086 3.93297 3.15172 0
M  V30 9835 H 892.688 3.42918 1.49275 0
M  V30 9836 H 894.98 5.61614 3.78941 0
M  V30 9837 H 895.923 6.58224 2.61049 0
M  V30 9838 H 896.331 4.86033 2.8711 0
M  V30 9839 N 895.729 -0.261212 1.5542 0
M  V30 9840 C 896.676 -1.32315 1.89107 0
M  V30 9841 C 897.646 -1.48517 0.743767 0
M  V30 9842 O 898.831 -1.62733 0.996123 0
M  V30 9843 C 895.971 -2.67626 2.17877 0
M  V30 9844 C 895.084 -2.59549 3.45338 0
M  V30 9845 C 894.219 -3.87118 3.63748 0
M  V30 9846 C 893.258 -3.736 4.8486 0
M  V30 9847 N 892.395 -4.93029 4.99867 0
M  V30 9848 H 897.235 -1.02886 2.79675 0
M  V30 9849 H 894.772 -0.496812 1.38456 0
M  V30 9850 H 896.73 -3.4637 2.32559 0
M  V30 9851 H 895.36 -2.95232 1.30529 0
M  V30 9852 H 894.412 -1.72452 3.39064 0
M  V30 9853 H 895.724 -2.45465 4.34222 0
M  V30 9854 H 894.878 -4.74305 3.78312 0
M  V30 9855 H 893.617 -4.04084 2.73071 0
M  V30 9856 H 892.622 -2.84797 4.70288 0
M  V30 9857 H 893.847 -3.58143 5.76984 0
M  V30 9858 H 891.793 -5.10383 4.12123 0
M  V30 9859 H 891.71 -4.81521 5.82815 0
M  V30 9860 H 892.978 -5.81754 5.18828 0
M  V30 9861 N 897.207 -1.48554 -0.526253 0
M  V30 9862 C 898.17 -1.62868 -1.61266 0
M  V30 9863 C 899.17 -0.501762 -1.52771 0
M  V30 9864 O 900.36 -0.76764 -1.56374 0
M  V30 9865 C 897.492 -1.60238 -3.00893 0
M  V30 9866 H 898.685 -2.59742 -1.49913 0
M  V30 9867 H 896.238 -1.37207 -0.748595 0
M  V30 9868 H 896.973 -0.648545 -3.17749 0
M  V30 9869 H 896.758 -2.42054 -3.08468 0
M  V30 9870 H 898.248 -1.73455 -3.79872 0
M  V30 9871 N 898.685 0.775411 -1.37205 0
M  V30 9872 C 899.617 1.89761 -1.28544 0
M  V30 9873 C 900.63 1.61542 -0.201996 0
M  V30 9874 O 901.819 1.72528 -0.457848 0
M  V30 9875 C 898.919 3.24904 -0.963885 0
M  V30 9876 C 898.092 3.80796 -2.15205 0
M  V30 9877 C 897.151 4.94407 -1.80135 0
M  V30 9878 O 896.177 5.10185 -2.52388 0
M  V30 9879 N 897.379 5.75722 -0.743298 0
M  V30 9880 H 900.144 1.97708 -2.25237 0
M  V30 9881 H 897.705 0.954348 -1.30782 0
M  V30 9882 H 899.697 3.9842 -0.710182 0
M  V30 9883 H 898.267 3.12483 -0.085632 0
M  V30 9884 H 897.487 2.99101 -2.56773 0
M  V30 9885 H 898.775 4.1487 -2.94552 0
M  V30 9886 H 898.173 5.65518 -0.143655 0
M  V30 9887 H 896.73 6.4948 -0.549446 0
M  V30 9888 N 900.163 1.21714 1.00117 0
M  V30 9889 C 901.126 0.981338 2.07129 0
M  V30 9890 C 902.126 -0.0491116 1.60725 0
M  V30 9891 O 903.316 0.188555 1.73177 0
M  V30 9892 C 900.448 0.480608 3.37495 0
M  V30 9893 H 901.641 1.93075 2.29482 0
M  V30 9894 H 899.194 1.03467 1.17151 0
M  V30 9895 H 899.929 -0.473552 3.20824 0
M  V30 9896 H 899.714 1.22393 3.72508 0
M  V30 9897 H 901.204 0.33561 4.16249 0
M  V30 9898 N 901.641 -1.19671 1.02551 0
M  V30 9899 C 902.571 -2.25009 0.623965 0
M  V30 9900 C 903.552 -1.66129 -0.36538 0
M  V30 9901 O 904.737 -1.92599 -0.248842 0
M  V30 9902 C 901.867 -3.47287 -0.0294869 0
M  V30 9903 C 900.821 -4.18818 0.881781 0
M  V30 9904 C 900.147 -5.34618 0.0936189 0
M  V30 9905 C 901.447 -4.73986 2.19396 0
M  V30 9906 H 903.141 -2.58851 1.50454 0
M  V30 9907 H 900.687 -1.24425 0.724872 0
M  V30 9908 H 902.64 -4.20168 -0.322016 0
M  V30 9909 H 901.364 -3.12635 -0.944838 0
M  V30 9910 H 900.023 -3.47815 1.15845 0
M  V30 9911 H 899.671 -4.9621 -0.823661 0
M  V30 9912 H 899.371 -5.83409 0.700568 0
M  V30 9913 H 900.895 -6.10297 -0.192249 0
M  V30 9914 H 902.309 -5.38639 1.96319 0
M  V30 9915 H 900.706 -5.3325 2.75254 0
M  V30 9916 H 901.776 -3.92238 2.85092 0
M  V30 9917 N 903.119 -0.802921 -1.35613 0
M  V30 9918 C 904.535 -0.486214 -1.52014 0
M  V30 9919 C 904.735 0.993219 -1.75321 0
M  V30 9920 O 903.791 1.77835 -1.79251 0
M  V30 9921 C 905.104 -1.32839 -2.69767 0
M  V30 9922 C 906.652 -1.32346 -2.83643 0
M  V30 9923 C 907.127 -2.14967 -4.04417 0
M  V30 9924 N 908.618 -2.12484 -4.11588 0
M  V30 9925 C 909.353 -2.73173 -5.04147 0
M  V30 9926 N 908.849 -3.42774 -6.02061 0
M  V30 9927 N 910.642 -2.62834 -4.96865 0
M  V30 9928 H 902.793 -1.76109 -1.18741 0
M  V30 9929 H 905.056 -0.74936 -0.580658 0
M  V30 9930 H 904.762 -2.37813 -2.5911 0
M  V30 9931 H 904.636 -0.979058 -3.64272 0
M  V30 9932 H 907.023 -0.281586 -2.93753 0
M  V30 9933 H 907.104 -1.71264 -1.90006 0
M  V30 9934 H 906.748 -3.19193 -3.95068 0
M  V30 9935 H 906.678 -1.73411 -4.97228 0
M  V30 9936 H 909.169 -1.61839 -3.41492 0
M  V30 9937 H 909.482 -3.86378 -6.69277 0
M  V30 9938 H 907.827 -3.46878 -6.02246 0
M  V30 9939 H 911.018 -2.08049 -4.19325 0
M  V30 9940 H 911.191 -3.10421 -5.68808 0
M  V30 9941 N 904.597 1.47463 -0.556102 0
M  V30 9942 C 905.874 1.9557 0.0339892 0
M  V30 9943 C 906.254 1.49869 1.48669 0
M  V30 9944 O 905.602 0.737019 2.16288 0
M  V30 9945 C 905.812 3.48826 -0.110343 0
M  V30 9946 C 907.16 4.24585 0.0355716 0
M  V30 9947 O 908.184 3.5618 -0.0378356 0
M  V30 9948 O 907.043 5.46158 0.193299 0
M  V30 9949 H 904.137 0.824461 0.0647521 0
M  V30 9950 H 906.683 1.57868 -0.622547 0
M  V30 9951 H 905.455 3.74891 -1.12126 0
M  V30 9952 H 905.078 3.9329 0.583855 0
M  V30 9953 N 906.075 0.2925 1.54862 0
M  V30 9954 C 907.023 -0.603186 2.24643 0
M  V30 9955 C 908.017 -1.1439 1.24946 0
M  V30 9956 O 909.223 -1.09552 1.42823 0
M  V30 9957 H 905.598 -0.213105 0.721173 0
M  V30 9958 H 907.569 0.00799278 2.98399 0
M  V30 9959 C 906.318 -1.76769 2.99413 0
M  V30 9960 H 905.641 -1.36084 3.75927 0
M  V30 9961 H 907.081 -2.37066 3.51533 0
M  V30 9962 C 905.54 -2.66669 2.05886 0
M  V30 9963 O 906.07 -3.67525 1.62136 0
M  V30 9964 N 904.276 -2.34216 1.7202 0
M  V30 9965 H 903.823 -1.52246 2.07795 0
M  V30 9966 H 903.781 -2.94635 1.09717 0
M  V30 9967 N 907.553 -1.57587 0.0200696 0
M  V30 9968 C 908.778 -1.96124 -0.674547 0
M  V30 9969 C 909.203 -0.896068 -1.65385 0
M  V30 9970 O 908.561 0.143925 -1.80728 0
M  V30 9971 C 908.609 -3.3376 -1.36517 0
M  V30 9972 O 907.713 -3.29483 -2.48022 0
M  V30 9973 H 907.054 -0.639719 -0.177919 0
M  V30 9974 H 909.584 -2.04447 0.0792317 0
M  V30 9975 H 909.594 -3.69785 -1.72403 0
M  V30 9976 H 908.269 -4.10832 -0.647265 0
M  V30 9977 H 906.846 -3.05162 -2.14314 0
M  V30 9978 N 909.032 0.252966 -1.55557 0
M  V30 9979 C 910.26 0.999565 -1.81153 0
M  V30 9980 C 910.675 1.79181 -0.594955 0
M  V30 9981 O 910.032 1.77208 0.436311 0
M  V30 9982 C 910.083 1.94227 -3.04891 0
M  V30 9983 O 909.804 1.18209 -4.21851 0
M  V30 9984 C 911.305 2.80536 -3.43241 0
M  V30 9985 H 908.525 0.294402 -0.602966 0
M  V30 9986 H 911.069 0.277686 -2.02606 0
M  V30 9987 H 909.224 2.6185 -2.85505 0
M  V30 9988 H 909.638 1.81922 -4.9194 0
M  V30 9989 H 911.112 3.42442 -4.32941 0
M  V30 9990 H 911.589 3.51337 -2.6355 0
M  V30 9991 H 912.195 2.18373 -3.64956 0
M  V30 9992 N 910.51 1.48831 0.518367 0
M  V30 9993 C 911.443 1.588 1.63884 0
M  V30 9994 C 912.421 0.437847 1.56594 0
M  V30 9995 O 913.605 0.651042 1.769 0
M  V30 9996 C 910.732 1.52681 3.02335 0
M  V30 9997 C 909.778 2.7268 3.27945 0
M  V30 9998 S 910.611 4.34536 3.12951 0
M  V30 9999 C 911.767 4.31034 4.53828 0
M  V30 10000 H 912 2.53587 1.5518 0
M  V30 10001 H 909.533 1.37507 0.702218 0
M  V30 10002 H 911.491 1.49837 3.82177 0
M  V30 10003 H 910.152 0.592107 3.08469 0
M  V30 10004 H 909.345 2.64569 4.28974 0
M  V30 10005 H 908.947 2.72847 2.55794 0
M  V30 10006 H 911.239 4.01683 5.45579 0
M  V30 10007 H 912.182 5.32282 4.66991 0
M  V30 10008 H 912.59 3.61343 4.33695 0
M  V30 10009 N 911.988 -0.768124 1.37614 0
M  V30 10010 C 913.236 -1.52379 1.3276 0
M  V30 10011 C 913.557 -1.94809 -0.0863564 0
M  V30 10012 O 912.827 -1.66568 -1.03112 0
M  V30 10013 H 911.407 -0.565179 0.488448 0
M  V30 10014 H 914.069 -0.913974 1.72141 0
M  V30 10015 H 913.165 -2.4215 1.96901 0
M  V30 10016 N 913.466 -1.22244 -0.994698 0
M  V30 10017 C 914.696 -1.07062 -1.76695 0
M  V30 10018 C 915.104 0.381895 -1.85306 0
M  V30 10019 O 914.447 1.27648 -1.32105 0
M  V30 10020 C 914.509 -1.60487 -3.2169 0
M  V30 10021 C 914.173 -3.09079 -3.36629 0
M  V30 10022 C 915.17 -4.06526 -3.24088 0
M  V30 10023 C 912.855 -3.48497 -3.61739 0
M  V30 10024 C 914.849 -5.41377 -3.36437 0
M  V30 10025 C 912.536 -4.83498 -3.73729 0
M  V30 10026 C 913.534 -5.79747 -3.61086 0
M  V30 10027 O 913.222 -7.12297 -3.72678 0
M  V30 10028 H 912.954 -0.375963 -0.561807 0
M  V30 10029 H 915.508 -1.62259 -1.25941 0
M  V30 10030 H 913.738 -0.996957 -3.73628 0
M  V30 10031 H 915.427 -1.40994 -3.80625 0
M  V30 10032 H 916.193 -3.77415 -3.04602 0
M  V30 10033 H 912.072 -2.74106 -3.70657 0
M  V30 10034 H 915.616 -6.16485 -3.26485 0
M  V30 10035 H 911.513 -5.1229 -3.92721 0
M  V30 10036 H 912.281 -7.1985 -3.89562 0
M  V30 10037 N 914.944 1.19125 -1.03184 0
M  V30 10038 C 915.877 2.21229 -0.559739 0
M  V30 10039 C 916.855 1.57578 0.400998 0
M  V30 10040 O 918.039 1.85809 0.317399 0
M  V30 10041 C 915.166 3.38203 0.183442 0
M  V30 10042 C 914.212 4.2022 -0.729182 0
M  V30 10043 S 915.045 4.87903 -2.20706 0
M  V30 10044 C 916.201 6.08284 -1.47448 0
M  V30 10045 H 916.434 2.60932 -1.42484 0
M  V30 10046 H 913.967 1.29419 -0.842028 0
M  V30 10047 H 915.925 4.06001 0.606084 0
M  V30 10048 H 914.586 2.96929 1.02432 0
M  V30 10049 H 913.779 5.03761 -0.155272 0
M  V30 10050 H 913.381 3.57755 -1.09028 0
M  V30 10051 H 915.673 6.73193 -0.762687 0
M  V30 10052 H 916.616 6.70165 -2.28659 0
M  V30 10053 H 917.024 5.56092 -0.97068 0
M  V30 10054 N 916.422 0.810101 1.35185 0
M  V30 10055 C 917.355 0.168416 2.27578 0
M  V30 10056 C 918.333 -0.667664 1.4826 0
M  V30 10057 O 919.517 -0.634184 1.77512 0
M  V30 10058 C 916.644 -0.765994 3.29925 0
M  V30 10059 C 915.69 -0.00908802 4.26499 0
M  V30 10060 S 916.523 1.32936 5.18737 0
M  V30 10061 C 917.679 0.399485 6.24624 0
M  V30 10062 H 917.912 0.951753 2.81654 0
M  V30 10063 H 915.445 0.60534 1.42039 0
M  V30 10064 H 917.403 -1.2996 3.89385 0
M  V30 10065 H 916.064 -1.52275 2.7472 0
M  V30 10066 H 915.257 -0.718919 4.98846 0
M  V30 10067 H 914.859 0.454663 3.71226 0
M  V30 10068 H 917.151 -0.413904 6.76234 0
M  V30 10069 H 918.094 1.09225 6.99625 0
M  V30 10070 H 918.502 -0.00638358 5.645 0
M  V30 10071 N 917.9 -1.47166 0.563914 0
M  V30 10072 C 918.863 -2.28571 -0.169624 0
M  V30 10073 C 919.863 -1.37331 -0.836467 0
M  V30 10074 O 921.053 -1.59896 -0.6913 0
M  V30 10075 C 918.185 -3.17201 -1.24886 0
M  V30 10076 H 919.378 -2.94896 0.545539 0
M  V30 10077 H 916.931 -1.52966 0.321121 0
M  V30 10078 H 917.666 -2.55582 -1.99621 0
M  V30 10079 H 917.451 -3.84356 -0.775426 0
M  V30 10080 H 918.941 -3.7852 -1.76388 0
M  V30 10081 N 919.378 -0.300708 -1.54705 0
M  V30 10082 C 920.325 0.57552 -2.23509 0
M  V30 10083 C 921.295 1.12979 -1.21758 0
M  V30 10084 O 922.48 1.17437 -1.50377 0
M  V30 10085 C 919.62 1.74167 -2.97926 0
M  V30 10086 C 918.733 1.21882 -4.1445 0
M  V30 10087 C 917.868 2.34881 -4.7645 0
M  V30 10088 C 916.907 1.79729 -5.85119 0
M  V30 10089 N 916.044 2.863 -6.41075 0
M  V30 10090 H 920.884 -0.0178257 -2.97995 0
M  V30 10091 H 918.421 -0.0205666 -1.47086 0
M  V30 10092 H 920.379 2.42753 -3.39303 0
M  V30 10093 H 919.009 2.30665 -2.25817 0
M  V30 10094 H 918.061 0.425227 -3.78016 0
M  V30 10095 H 919.373 0.775065 -4.92741 0
M  V30 10096 H 918.527 3.11415 -5.20678 0
M  V30 10097 H 917.266 2.82584 -3.97489 0
M  V30 10098 H 916.271 1.01684 -5.40315 0
M  V30 10099 H 917.496 1.32931 -6.65963 0
M  V30 10100 H 915.442 3.33337 -5.64998 0
M  V30 10101 H 915.359 2.46419 -7.14712 0
M  V30 10102 H 916.627 3.62732 -6.89961 0
M  V30 10103 N 920.856 1.57574 -0.0284266 0
M  V30 10104 C 921.803 2.10176 0.953658 0
M  V30 10105 C 922.773 1.00367 1.32347 0
M  V30 10106 O 923.958 1.27783 1.4169 0
M  V30 10107 C 921.098 2.63287 2.231 0
M  V30 10108 C 920.211 3.87102 1.91771 0
M  V30 10109 C 919.346 4.28609 3.13795 0
M  V30 10110 C 918.385 5.45184 2.78282 0
M  V30 10111 N 917.522 5.81851 3.92929 0
M  V30 10112 H 922.362 2.93806 0.498176 0
M  V30 10113 H 919.899 1.45222 0.234302 0
M  V30 10114 H 921.857 2.9217 2.97813 0
M  V30 10115 H 920.487 1.82489 2.66266 0
M  V30 10116 H 919.539 3.64952 1.07303 0
M  V30 10117 H 920.851 4.71892 1.61615 0
M  V30 10118 H 920.005 4.58925 3.96829 0
M  V30 10119 H 918.744 3.42585 3.47112 0
M  V30 10120 H 917.749 5.14563 1.93661 0
M  V30 10121 H 918.974 6.32907 2.46182 0
M  V30 10122 H 916.92 4.98782 4.2609 0
M  V30 10123 H 916.837 6.6128 3.66395 0
M  V30 10124 H 918.105 6.16772 4.76669 0
M  V30 10125 N 922.334 -0.244713 1.55689 0
M  V30 10126 C 923.284 -1.30596 1.86892 0
M  V30 10127 C 924.268 -1.43388 0.729972 0
M  V30 10128 O 925.46 -1.46593 0.99194 0
M  V30 10129 C 922.589 -2.66099 2.16902 0
M  V30 10130 C 921.675 -2.57302 3.37129 0
M  V30 10131 N 922.066 -2.18139 4.56343 0
M  V30 10132 C 920.364 -2.88311 3.40283 0
M  V30 10133 C 921.065 -2.20028 5.38482 0
M  V30 10134 N 920.041 -2.59616 4.77599 0
M  V30 10135 H 923.843 -0.993699 2.76591 0
M  V30 10136 H 921.357 -0.453334 1.55944 0
M  V30 10137 H 923.354 -3.4269 2.37422 0
M  V30 10138 H 922.014 -2.9819 1.28502 0
M  V30 10139 H 923.025 -1.89647 4.81928 0
M  V30 10140 H 919.702 -3.24928 2.62161 0
M  V30 10141 H 921.092 -1.9207 6.43862 0
M  V30 10142 N 923.813 -1.49104 -0.510467 0
M  V30 10143 C 924.743 -1.67981 -1.62187 0
M  V30 10144 C 925.724 -0.528529 -1.6168 0
M  V30 10145 O 926.909 -0.763305 -1.7857 0
M  V30 10146 C 924.039 -1.73755 -3.0071 0
M  V30 10147 C 922.993 -2.88579 -3.1608 0
M  V30 10148 C 922.319 -2.79457 -4.5586 0
M  V30 10149 C 923.619 -4.29638 -2.97 0
M  V30 10150 H 925.313 -2.61029 -1.46643 0
M  V30 10151 H 922.859 -1.25615 -0.704042 0
M  V30 10152 H 924.812 -1.85548 -3.78352 0
M  V30 10153 H 923.536 -0.772996 -3.17321 0
M  V30 10154 H 922.195 -2.76372 -2.40861 0
M  V30 10155 H 921.843 -1.80929 -4.69333 0
M  V30 10156 H 921.543 -3.56518 -4.67086 0
M  V30 10157 H 923.067 -2.93245 -5.35574 0
M  V30 10158 H 924.481 -4.42575 -3.64418 0
M  V30 10159 H 922.878 -5.07847 -3.19704 0
M  V30 10160 H 923.948 -4.44741 -1.93219 0
M  V30 10161 N 925.291 0.760815 -1.38019 0
M  V30 10162 C 926.201 1.90526 -1.36884 0
M  V30 10163 C 927.217 1.71941 -0.266908 0
M  V30 10164 O 928.393 1.94988 -0.50413 0
M  V30 10165 C 925.458 3.25799 -1.18558 0
M  V30 10166 C 924.519 3.56961 -2.3849 0
M  V30 10167 C 923.752 4.8578 -2.21029 0
M  V30 10168 O 923.975 5.57629 -1.20023 0
M  V30 10169 O 922.909 5.16254 -3.0946 0
M  V30 10170 H 926.735 1.94437 -2.33298 0
M  V30 10171 H 924.32 0.905091 -1.18863 0
M  V30 10172 H 926.202 4.0669 -1.1037 0
M  V30 10173 H 924.877 3.22716 -0.252241 0
M  V30 10174 H 923.784 2.7626 -2.52252 0
M  V30 10175 H 925.117 3.64798 -3.30429 0
M  V30 10176 N 926.769 1.22769 0.988202 0
M  V30 10177 C 928.018 1.0492 1.72263 0
M  V30 10178 C 928.331 -0.415282 1.91141 0
M  V30 10179 O 929.537 -0.713547 2.61956 0
M  V30 10180 C 927.993 1.82891 3.09966 0
M  V30 10181 C 927.601 3.33618 2.99003 0
M  V30 10182 C 929.345 1.73505 3.87423 0
M  V30 10183 C 927.252 4.04012 4.3189 0
M  V30 10184 H 926.182 0.38899 0.645912 0
M  V30 10185 H 928.833 1.46664 1.10281 0
M  V30 10186 H 927.215 1.33948 3.72658 0
M  V30 10187 H 928.389 3.8999 2.45448 0
M  V30 10188 H 926.704 3.43732 2.35027 0
M  V30 10189 H 929.301 2.23416 4.85787 0
M  V30 10190 H 929.644 0.696344 4.10435 0
M  V30 10191 H 930.177 2.20016 3.31418 0
M  V30 10192 H 926.916 5.08155 4.14075 0
M  V30 10193 H 926.436 3.52428 4.8534 0
M  V30 10194 H 928.115 4.0987 5.00615 0
M  V30 10195 N 928.247 -1.18576 1.03814 0
M  V30 10196 C 929.195 -2.24166 0.620678 0
M  V30 10197 C 930.189 -1.65718 -0.351282 0
M  V30 10198 O 931.395 -1.78665 -0.218848 0
M  V30 10199 H 927.77 -0.729522 0.182487 0
M  V30 10200 H 929.741 -2.56686 1.52166 0
M  V30 10201 C 928.49 -3.477 -0.00307331 0
M  V30 10202 H 927.813 -3.92969 0.735874 0
M  V30 10203 H 929.253 -4.23214 -0.257988 0
M  V30 10204 C 927.712 -3.12757 -1.2524 0
M  V30 10205 O 928.242 -3.26261 -2.34344 0
M  V30 10206 N 926.448 -2.67104 -1.14471 0
M  V30 10207 H 925.995 -2.56316 -0.256873 0
M  V30 10208 H 925.953 -2.44096 -1.98153 0
M  V30 10209 N 929.725 -0.817259 -1.34754 0
M  V30 10210 C 931.136 -0.462215 -1.80888 0
M  V30 10211 C 931.487 1.01685 -1.67794 0
M  V30 10212 O 930.612 1.79094 -1.21468 0
M  V30 10213 C 931.207 -0.832204 -3.2842 0
M  V30 10214 C 929.766 -0.52961 -3.72655 0
M  V30 10215 C 928.913 -1.05214 -2.56564 0
M  V30 10216 H 931.864 -1.00795 -1.22581 0
M  V30 10217 H 931.885 -0.133804 -3.80265 0
M  V30 10218 H 931.397 -1.90873 -3.37919 0
M  V30 10219 H 929.498 0.537743 -3.68699 0
M  V30 10220 H 929.611 -1.06971 -4.67005 0
M  V30 10221 H 927.975 -0.473949 -2.50251 0
M  V30 10222 H 928.758 -2.135 -2.68836 0
M  V30 10223 N 931.203 1.46865 -0.571711 0
M  V30 10224 C 932.48 1.95596 0.0132445 0
M  V30 10225 C 932.86 1.51438 1.47071 0
M  V30 10226 O 932.208 0.759917 2.15494 0
M  V30 10227 C 932.418 3.48689 -0.147335 0
M  V30 10228 C 933.766 4.24599 -0.00946329 0
M  V30 10229 O 934.79 3.5612 -0.0756112 0
M  V30 10230 O 933.649 5.46332 0.135361 0
M  V30 10231 H 930.743 0.825102 0.0560039 0
M  V30 10232 H 933.289 1.57199 -0.639256 0
M  V30 10233 H 932.061 3.73681 -1.16096 0
M  V30 10234 H 931.684 3.93887 0.542109 0
M  V30 10235 N 932.681 0.308908 1.54543 0
M  V30 10236 C 933.631 -0.578902 2.20528 0
M  V30 10237 C 934.615 -1.09288 1.18088 0
M  V30 10238 O 935.807 -1.03234 1.43777 0
M  V30 10239 C 932.936 -1.74649 2.95555 0
M  V30 10240 C 932.022 -1.24809 4.05319 0
M  V30 10241 N 932.413 -0.46828 5.03628 0
M  V30 10242 C 930.711 -1.52813 4.19004 0
M  V30 10243 C 931.412 -0.201896 5.8135 0
M  V30 10244 N 930.388 -0.783927 5.37918 0
M  V30 10245 H 934.19 0.0243496 2.9389 0
M  V30 10246 H 931.704 0.114049 1.61999 0
M  V30 10247 H 933.701 -2.39414 3.41301 0
M  V30 10248 H 932.361 -2.35336 2.23712 0
M  V30 10249 H 933.372 -0.112453 5.17778 0
M  V30 10250 H 930.049 -2.14191 3.58369 0
M  V30 10251 H 931.439 0.424929 6.70555 0
M  V30 10252 N 934.159 -1.57557 0.0367827 0
M  V30 10253 C 935.57 -1.79853 -0.500971 0
M  V30 10254 C 935.921 -0.947749 -1.71791 0
M  V30 10255 O 935.046 -0.160287 -2.15806 0
M  V30 10256 C 935.641 -3.26193 -0.915626 0
M  V30 10257 C 934.2 -3.49457 -1.39845 0
M  V30 10258 C 933.347 -2.74864 -0.366784 0
M  V30 10259 H 936.298 -1.56509 0.262768 0
M  V30 10260 H 936.319 -3.36324 -1.7795 0
M  V30 10261 H 935.831 -3.88089 -0.0297227 0
M  V30 10262 H 933.932 -2.92823 -2.30402 0
M  V30 10263 H 934.045 -4.58172 -1.40054 0
M  V30 10264 H 932.409 -2.4057 -0.836554 0
M  V30 10265 H 933.192 -3.39479 0.510785 0
M  V30 10266 N 935.637 0.236453 -1.55816 0
M  V30 10267 C 936.886 0.960981 -1.77336 0
M  V30 10268 C 937.199 1.86085 -0.602641 0
M  V30 10269 O 938.405 2.62291 -0.701106 0
M  V30 10270 C 936.861 1.75884 -3.13995 0
M  V30 10271 C 936.469 0.905849 -4.38746 0
M  V30 10272 C 938.213 2.47548 -3.44848 0
M  V30 10273 C 936.12 1.7002 -5.66434 0
M  V30 10274 H 935.05 0.362547 -0.661117 0
M  V30 10275 H 937.701 0.215303 -1.82233 0
M  V30 10276 H 936.083 2.54687 -3.03234 0
M  V30 10277 H 937.257 0.159415 -4.60524 0
M  V30 10278 H 935.572 0.30205 -4.15303 0
M  V30 10279 H 938.169 3.07452 -4.37467 0
M  V30 10280 H 938.512 3.19689 -2.66655 0
M  V30 10281 H 939.045 1.75747 -3.56872 0
M  V30 10282 H 935.784 1.02234 -6.47479 0
M  V30 10283 H 935.304 2.42164 -5.48741 0
M  V30 10284 H 936.983 2.26469 -6.0607 0
M  V30 10285 N 937.115 1.49373 0.502552 0
M  V30 10286 C 938.361 1.59016 1.25864 0
M  V30 10287 C 938.694 0.27532 1.92238 0
M  V30 10288 O 937.969 -0.720988 1.80643 0
M  V30 10289 C 938.252 2.74828 2.32683 0
M  V30 10290 C 938.105 4.16102 1.7082 0
M  V30 10291 C 939.424 2.86288 3.34256 0
M  V30 10292 H 936.543 0.578798 0.456248 0
M  V30 10293 H 939.185 1.81651 0.557032 0
M  V30 10294 H 937.335 2.5566 2.92524 0
M  V30 10295 H 939.007 4.46782 1.14818 0
M  V30 10296 H 937.25 4.21822 1.01238 0
M  V30 10297 H 937.921 4.93006 2.48292 0
M  V30 10298 H 940.397 3.03733 2.84404 0
M  V30 10299 H 939.273 3.69001 4.06362 0
M  V30 10300 H 939.534 1.95576 3.96488 0
M  V30 10301 N 938.594 -0.753485 1.38421 0
M  V30 10302 C 939.504 -1.89797 1.37892 0
M  V30 10303 C 940.52 -1.71797 0.276023 0
M  V30 10304 O 941.696 -1.94718 0.514464 0
M  V30 10305 C 938.761 -3.25166 1.20284 0
M  V30 10306 C 937.822 -3.55691 2.4038 0
M  V30 10307 C 937.055 -4.84601 2.23602 0
M  V30 10308 O 937.278 -5.56985 1.22979 0
M  V30 10309 O 936.212 -5.14605 3.12194 0
M  V30 10310 H 940.038 -1.93197 2.34326 0
M  V30 10311 H 937.623 -0.898775 1.19342 0
M  V30 10312 H 939.505 -4.06099 1.12525 0
M  V30 10313 H 938.18 -3.22577 0.269352 0
M  V30 10314 H 937.087 -2.74919 2.53714 0
M  V30 10315 H 938.42 -3.6304 3.32359 0
M  V30 10316 N 940.072 -1.23292 -0.981677 0
M  V30 10317 C 941.3 -1.09088 -1.75805 0
M  V30 10318 C 941.715 0.357746 -1.8538 0
M  V30 10319 O 941.072 1.24751 -1.33205 0
M  V30 10320 C 941.123 -1.70885 -3.1856 0
M  V30 10321 O 940.844 -3.10082 -3.09484 0
M  V30 10322 C 942.345 -1.62106 -4.12597 0
M  V30 10323 H 939.565 -0.38184 -0.55176 0
M  V30 10324 H 942.109 -1.63116 -1.23342 0
M  V30 10325 H 940.264 -1.20893 -3.68054 0
M  V30 10326 H 940.678 -3.40039 -3.99342 0
M  V30 10327 H 942.152 -2.10049 -5.10474 0
M  V30 10328 H 942.629 -0.579642 -4.35358 0
M  V30 10329 H 943.235 -2.11457 -3.69007 0
M  V30 10330 N 941.55 1.18024 -1.04442 0
M  V30 10331 C 942.48 2.23988 -0.659683 0
M  V30 10332 C 943.461 1.6669 0.338904 0
M  V30 10333 O 944.646 1.92971 0.21817 0
M  V30 10334 C 941.776 3.4729 -0.0257672 0
M  V30 10335 C 940.73 4.17362 -0.948299 0
M  V30 10336 C 940.056 5.34401 -0.17866 0
M  V30 10337 C 941.356 4.70435 -2.26909 0
M  V30 10338 H 943.05 2.56425 -1.54553 0
M  V30 10339 H 940.596 1.23256 -0.744575 0
M  V30 10340 H 942.549 4.20627 0.255131 0
M  V30 10341 H 941.273 3.14098 0.894981 0
M  V30 10342 H 939.932 3.45928 -1.21364 0
M  V30 10343 H 939.58 4.97458 0.744614 0
M  V30 10344 H 939.28 5.8222 -0.793294 0
M  V30 10345 H 940.804 6.10526 0.0951315 0
M  V30 10346 H 942.218 5.35447 -2.04864 0
M  V30 10347 H 940.615 5.28803 -2.83703 0
M  V30 10348 H 941.685 3.87653 -2.91296 0
M  V30 10349 N 943.028 0.824394 1.34319 0
M  V30 10350 C 944.444 0.510336 1.51221 0
M  V30 10351 C 944.644 -0.965201 1.76879 0
M  V30 10352 O 943.7 -1.74961 1.82057 0
M  V30 10353 C 945.013 1.37114 2.6762 0
M  V30 10354 C 946.561 1.36842 2.81502 0
M  V30 10355 C 947.036 2.21374 4.00946 0
M  V30 10356 N 948.527 2.19005 4.08156 0
M  V30 10357 C 949.262 2.81159 4.99737 0
M  V30 10358 N 948.758 3.52309 5.96532 0
M  V30 10359 N 950.551 2.70706 4.9262 0
M  V30 10360 H 942.702 1.77976 1.15924 0
M  V30 10361 H 944.965 0.758503 0.568663 0
M  V30 10362 H 944.671 2.41905 2.55294 0
M  V30 10363 H 944.545 1.03689 3.62669 0
M  V30 10364 H 946.932 0.328284 2.93268 0
M  V30 10365 H 947.013 1.74265 1.87257 0
M  V30 10366 H 946.657 3.25437 3.8994 0
M  V30 10367 H 946.587 1.813 4.94407 0
M  V30 10368 H 949.078 1.67252 3.38874 0
M  V30 10369 H 949.391 3.96977 6.63045 0
M  V30 10370 H 947.736 3.56415 5.96652 0
M  V30 10371 H 950.927 2.14694 4.15962 0
M  V30 10372 H 951.1 3.19431 5.63798 0
M  V30 10373 N 944.506 -1.46559 0.579492 0
M  V30 10374 C 945.438 -2.28383 -0.19337 0
M  V30 10375 C 946.451 -1.38324 -0.858511 0
M  V30 10376 O 947.64 -1.62952 -0.728615 0
M  V30 10377 C 944.74 -3.13262 -1.29306 0
M  V30 10378 C 943.913 -4.31426 -0.720459 0
M  V30 10379 C 942.972 -4.97728 -1.70744 0
M  V30 10380 O 941.998 -5.55423 -1.24476 0
M  V30 10381 N 943.2 -4.94445 -3.04146 0
M  V30 10382 H 945.965 -2.95353 0.508611 0
M  V30 10383 H 943.526 -1.56436 0.417046 0
M  V30 10384 H 945.518 -3.54483 -1.95254 0
M  V30 10385 H 944.088 -2.48388 -1.89795 0
M  V30 10386 H 943.308 -3.94028 0.116398 0
M  V30 10387 H 944.596 -5.07808 -0.31763 0
M  V30 10388 H 943.994 -4.4881 -3.44363 0
M  V30 10389 H 942.551 -5.39616 -3.65592 0
M  V30 10390 N 945.984 -0.3171 -1.54377 0
M  V30 10391 C 946.931 0.551782 -2.24107 0
M  V30 10392 C 947.901 1.11681 -1.22949 0
M  V30 10393 O 949.086 1.15836 -1.51614 0
M  V30 10394 C 946.226 1.70997 -2.99756 0
M  V30 10395 C 945.339 1.17479 -4.15719 0
M  V30 10396 C 944.474 2.29815 -4.78914 0
M  V30 10397 C 943.513 1.73513 -5.86992 0
M  V30 10398 N 942.65 2.79485 -6.44075 0
M  V30 10399 H 947.49 -0.049431 -2.97959 0
M  V30 10400 H 945.027 -0.0361658 -1.47056 0
M  V30 10401 H 946.985 2.39141 -3.41859 0
M  V30 10402 H 945.615 2.28257 -2.28251 0
M  V30 10403 H 944.667 0.385109 -3.78446 0
M  V30 10404 H 945.979 0.72276 -4.93536 0
M  V30 10405 H 945.133 3.05875 -5.23952 0
M  V30 10406 H 943.872 2.78352 -4.00464 0
M  V30 10407 H 942.877 0.959475 -5.41363 0
M  V30 10408 H 944.102 1.2586 -6.67335 0
M  V30 10409 H 942.048 3.27325 -5.68502 0
M  V30 10410 H 941.965 2.38825 -7.17286 0
M  V30 10411 H 943.233 3.55394 -6.93769 0
M  V30 10412 N 947.462 1.57535 -0.0451378 0
M  V30 10413 C 948.425 2.1008 0.916461 0
M  V30 10414 C 949.425 1.01913 1.2438 0
M  V30 10415 O 950.615 1.2801 1.18148 0
M  V30 10416 C 947.747 2.58001 2.22818 0
M  V30 10417 H 948.94 2.96334 0.461076 0
M  V30 10418 H 946.493 1.54974 0.203169 0
M  V30 10419 H 947.228 1.75123 2.72951 0
M  V30 10420 H 947.013 3.3704 2.00366 0
M  V30 10421 H 948.503 2.98822 2.9171 0
M  V30 10422 N 948.94 -0.228186 1.55939 0
M  V30 10423 C 949.85 -1.30386 1.9503 0
M  V30 10424 C 950.866 -1.51645 0.853218 0
M  V30 10425 O 952.042 -1.64904 1.15623 0
M  V30 10426 C 949.107 -2.63489 2.25332 0
M  V30 10427 C 948.168 -2.5059 3.48573 0
M  V30 10428 C 947.401 -3.77345 3.7742 0
M  V30 10429 O 947.624 -4.80067 3.08045 0
M  V30 10430 O 946.558 -3.74855 4.70922 0
M  V30 10431 H 950.384 -1.0022 2.86687 0
M  V30 10432 H 947.969 -0.430503 1.43063 0
M  V30 10433 H 949.851 -3.4211 2.46046 0
M  V30 10434 H 948.526 -2.93349 1.3685 0
M  V30 10435 H 947.433 -1.70191 3.33145 0
M  V30 10436 H 948.766 -2.2567 4.37417 0
M  V30 10437 N 950.418 -1.49637 -0.494624 0
M  V30 10438 C 951.381 -1.66252 -1.57775 0
M  V30 10439 C 952.381 -0.534054 -1.51672 0
M  V30 10440 O 953.571 -0.800637 -1.54711 0
M  V30 10441 C 950.703 -1.66584 -2.97426 0
M  V30 10442 H 951.896 -2.62864 -1.4437 0
M  V30 10443 H 949.449 -1.38764 -0.719323 0
M  V30 10444 H 950.184 -0.715798 -3.16302 0
M  V30 10445 H 949.969 -2.48543 -3.03264 0
M  V30 10446 H 951.459 -1.81474 -3.76108 0
M  V30 10447 N 951.896 0.746133 -1.38819 0
M  V30 10448 C 953.173 1.49652 -1.25951 0
M  V30 10449 C 953.553 2.10663 0.135833 0
M  V30 10450 O 952.901 1.97682 1.14604 0
M  V30 10451 C 953.111 2.5569 -2.37537 0
M  V30 10452 C 954.459 3.22385 -2.76321 0
M  V30 10453 O 955.483 2.65998 -2.36904 0
M  V30 10454 O 954.342 4.2439 -3.44319 0
M  V30 10455 H 951.436 0.664019 -0.492958 0
M  V30 10456 H 953.982 0.780908 -1.50665 0
M  V30 10457 H 952.754 2.08908 -3.30867 0
M  V30 10458 H 952.377 3.34823 -2.14427 0
M  V30 10459 N 953.375 1.23811 0.975125 0
M  V30 10460 C 954.322 1.02394 2.06843 0
M  V30 10461 C 955.292 -0.060337 1.6599 0
M  V30 10462 O 956.477 0.0928187 1.90574 0
M  V30 10463 C 953.617 0.626882 3.39359 0
M  V30 10464 C 952.73 1.78385 3.9345 0
M  V30 10465 C 951.865 1.33307 5.14201 0
M  V30 10466 C 950.904 2.46045 5.60471 0
M  V30 10467 N 950.041 2.01888 6.72448 0
M  V30 10468 H 954.881 1.95973 2.24496 0
M  V30 10469 H 952.418 0.976206 1.10039 0
M  V30 10470 H 954.376 0.377742 4.15486 0
M  V30 10471 H 953.006 -0.271907 3.21653 0
M  V30 10472 H 952.058 2.14685 3.14029 0
M  V30 10473 H 953.37 2.63122 4.23755 0
M  V30 10474 H 952.524 1.04237 5.97678 0
M  V30 10475 H 951.263 0.456143 4.85562 0
M  V30 10476 H 950.268 2.75884 4.75571 0
M  V30 10477 H 951.493 3.34283 5.91127 0
M  V30 10478 H 949.439 1.16583 6.45558 0
M  V30 10479 H 949.356 2.80182 7.02164 0
M  V30 10480 H 950.624 1.75937 7.59386 0
M  V30 10481 N 954.853 -1.17469 1.05066 0
M  V30 10482 C 955.801 -2.23495 0.644418 0
M  V30 10483 C 956.795 -1.66081 -0.333685 0
M  V30 10484 O 958.001 -1.78887 -0.199886 0
M  V30 10485 H 954.376 -0.727546 0.190214 0
M  V30 10486 H 956.347 -2.55058 1.5488 0
M  V30 10487 C 955.096 -3.47684 0.0338051 0
M  V30 10488 H 954.419 -3.92167 0.777513 0
M  V30 10489 H 955.859 -4.23464 -0.213086 0
M  V30 10490 C 954.318 -3.14067 -1.21915 0
M  V30 10491 O 954.848 -3.28728 -2.3087 0
M  V30 10492 N 953.054 -2.68304 -1.11631 0
M  V30 10493 H 952.601 -2.56574 -0.229673 0
M  V30 10494 H 952.559 -2.46184 -1.95553 0
M  V30 10495 N 956.331 -0.831506 -1.3388 0
M  V30 10496 C 957.608 -0.345907 -1.92517 0
M  V30 10497 C 957.988 1.16784 -1.75854 0
M  V30 10498 O 957.336 1.97889 -1.14245 0
M  V30 10499 C 957.546 -0.784692 -3.40064 0
M  V30 10500 C 958.894 -0.78846 -4.17215 0
M  V30 10501 O 959.918 -0.727823 -3.48685 0
M  V30 10502 O 958.777 -0.869481 -5.39539 0
M  V30 10503 H 955.871 -0.0963568 -0.821367 0
M  V30 10504 H 958.417 -0.916868 -1.42799 0
M  V30 10505 H 957.189 -1.82697 -3.46031 0
M  V30 10506 H 956.812 -0.189897 -3.97146 0
M  V30 10507 N 957.809 1.4625 -0.587256 0
M  V30 10508 C 958.756 2.30354 0.143384 0
M  V30 10509 C 959.726 1.40891 0.879716 0
M  V30 10510 O 960.911 1.69837 0.869486 0
M  V30 10511 C 958.051 3.25441 1.14815 0
M  V30 10512 C 957.164 4.30004 0.414792 0
M  V30 10513 C 956.299 5.12214 1.40748 0
M  V30 10514 C 955.338 6.08523 0.660786 0
M  V30 10515 N 954.475 6.83585 1.60176 0
M  V30 10516 H 959.315 2.92304 -0.579866 0
M  V30 10517 H 956.852 1.44055 -0.29777 0
M  V30 10518 H 958.81 3.79018 1.7436 0
M  V30 10519 H 957.44 2.6529 1.83906 0
M  V30 10520 H 956.492 3.79248 -0.295787 0
M  V30 10521 H 957.804 4.98515 -0.168738 0
M  V30 10522 H 956.958 5.70091 2.0756 0
M  V30 10523 H 955.697 4.43675 2.02494 0
M  V30 10524 H 954.702 5.49796 -0.0210864 0
M  V30 10525 H 955.927 6.79083 0.0486551 0
M  V30 10526 H 953.873 6.17752 2.20724 0
M  V30 10527 H 953.79 7.48373 1.07115 0
M  V30 10528 H 955.058 7.46016 2.26009 0
M  V30 10529 N 959.287 0.325282 1.54207 0
M  V30 10530 C 960.25 -0.527228 2.23054 0
M  V30 10531 C 961.25 -1.04217 1.22456 0
M  V30 10532 O 962.44 -0.934325 1.47024 0
M  V30 10533 C 959.572 -1.7325 2.93594 0
M  V30 10534 H 960.765 0.0746423 2.99807 0
M  V30 10535 H 958.318 0.0763872 1.56113 0
M  V30 10536 H 959.053 -2.37356 2.20981 0
M  V30 10537 H 958.838 -1.37065 3.67363 0
M  V30 10538 H 960.328 -2.3376 3.46043 0
M  V30 10539 N 960.765 -1.57509 0.0534917 0
M  V30 10540 C 962.011 -1.93068 -0.62069 0
M  V30 10541 C 962.344 -0.932313 -1.70357 0
M  V30 10542 O 961.619 0.0413393 -1.94456 0
M  V30 10543 C 961.902 -3.38997 -1.21463 0
M  V30 10544 C 961.755 -4.49583 -0.13965 0
M  V30 10545 C 963.074 -3.85366 -2.12558 0
M  V30 10546 H 960.193 -0.702083 -0.224163 0
M  V30 10547 H 962.835 -1.89647 0.115729 0
M  V30 10548 H 960.985 -3.42043 -1.84226 0
M  V30 10549 H 962.657 -4.58664 0.492411 0
M  V30 10550 H 960.9 -4.30525 0.532006 0
M  V30 10551 H 961.571 -5.48781 -0.595287 0
M  V30 10552 H 964.047 -3.8421 -1.59755 0
M  V30 10553 H 962.923 -4.8812 -2.51058 0
M  V30 10554 H 963.184 -3.22256 -3.02661 0
M  V30 10555 N 962.243 0.219913 -1.56058 0
M  V30 10556 C 963.19 1.27254 -1.92549 0
M  V30 10557 C 964.16 1.46493 -0.782883 0
M  V30 10558 O 965.345 1.60035 -1.03892 0
M  V30 10559 C 962.485 2.61756 -2.24896 0
M  V30 10560 C 961.598 2.50302 -3.52098 0
M  V30 10561 C 960.733 3.77338 -3.73884 0
M  V30 10562 C 959.772 3.60613 -4.94595 0
M  V30 10563 N 958.909 4.79603 -5.12763 0
M  V30 10564 H 963.749 0.954352 -2.82305 0
M  V30 10565 H 961.286 0.459928 -1.39725 0
M  V30 10566 H 963.244 3.40082 -2.4166 0
M  V30 10567 H 961.874 2.91668 -1.38311 0
M  V30 10568 H 960.926 1.63401 -3.43517 0
M  V30 10569 H 962.238 2.33866 -4.40577 0
M  V30 10570 H 961.392 4.64108 -3.90754 0
M  V30 10571 H 960.131 3.96702 -2.83689 0
M  V30 10572 H 959.136 2.72228 -4.77674 0
M  V30 10573 H 960.361 3.42719 -5.86277 0
M  V30 10574 H 958.307 4.99277 -4.2551 0
M  V30 10575 H 958.224 4.65899 -5.95377 0
M  V30 10576 H 959.492 5.67794 -5.34069 0
M  V30 10577 N 963.721 1.49897 0.486681 0
M  V30 10578 C 964.998 1.50614 1.24799 0
M  V30 10579 C 965.378 0.24193 2.09709 0
M  V30 10580 O 964.726 -0.775237 2.14947 0
M  V30 10581 C 964.936 2.79318 2.09243 0
M  V30 10582 C 966.284 3.29371 2.67955 0
M  V30 10583 O 967.308 2.80533 2.19499 0
M  V30 10584 O 966.167 4.14466 3.56202 0
M  V30 10585 H 963.261 0.603447 0.565491 0
M  V30 10586 H 965.807 1.62174 0.499778 0
M  V30 10587 H 964.579 3.62812 1.46572 0
M  V30 10588 H 964.202 2.70687 2.91229 0
M  V30 10589 N 965.199 -0.738761 1.39212 0
M  V30 10590 C 966.129 -1.86602 1.40364 0
M  V30 10591 C 967.11 -1.67984 0.267495 0
M  V30 10592 O 968.295 -1.88358 0.472765 0
M  V30 10593 C 965.425 -3.24308 1.24265 0
M  V30 10594 C 964.379 -3.57557 2.35239 0
M  V30 10595 C 963.705 -4.94159 2.04233 0
M  V30 10596 C 965.005 -3.60914 3.77543 0
M  V30 10597 H 966.699 -1.85896 2.34698 0
M  V30 10598 H 964.245 -0.892959 1.1297 0
M  V30 10599 H 966.198 -4.02838 1.23692 0
M  V30 10600 H 964.922 -3.25531 0.263974 0
M  V30 10601 H 963.581 -2.81354 2.35022 0
M  V30 10602 H 963.229 -4.91959 1.04813 0
M  V30 10603 H 962.929 -5.17373 2.78567 0
M  V30 10604 H 964.453 -5.7505 2.05303 0
M  V30 10605 H 965.867 -4.29528 3.79709 0
M  V30 10606 H 964.264 -3.95644 4.51205 0
M  V30 10607 H 965.334 -2.60803 4.08791 0
M  V30 10608 N 966.677 -1.24326 -0.968545 0
M  V30 10609 C 967.923 -1.08406 -1.71394 0
M  V30 10610 C 968.256 0.376353 -1.90518 0
M  V30 10611 O 967.531 1.27816 -1.46606 0
M  V30 10612 C 967.814 -1.82344 -3.1052 0
M  V30 10613 C 967.667 -3.3613 -2.98893 0
M  V30 10614 C 968.986 -1.59545 -4.10163 0
M  V30 10615 H 966.105 -0.395205 -0.622079 0
M  V30 10616 H 968.747 -1.52983 -1.12677 0
M  V30 10617 H 966.897 -1.44452 -3.60646 0
M  V30 10618 H 968.569 -3.83614 -2.56199 0
M  V30 10619 H 966.812 -3.64553 -2.35124 0
M  V30 10620 H 967.483 -3.83064 -3.97449 0
M  V30 10621 H 969.959 -1.92504 -3.68892 0
M  V30 10622 H 968.835 -2.13736 -5.05577 0
M  V30 10623 H 969.096 -0.533503 -4.38869 0
M  V30 10624 N 968.156 1.1691 -1.05688 0
M  V30 10625 C 969.402 1.8757 -0.771071 0
M  V30 10626 C 969.735 1.8113 0.700399 0
M  V30 10627 O 969.01 1.22273 1.5126 0
M  V30 10628 C 969.293 3.37392 -1.25851 0
M  V30 10629 C 969.146 3.52556 -2.79329 0
M  V30 10630 C 970.465 4.31585 -0.861512 0
M  V30 10631 H 967.584 0.681089 -0.281579 0
M  V30 10632 H 970.226 1.37453 -1.31174 0
M  V30 10633 H 968.376 3.80204 -0.798563 0
M  V30 10634 H 970.048 3.18725 -3.33485 0
M  V30 10635 H 968.291 2.94668 -3.1836 0
M  V30 10636 H 968.962 4.57748 -3.08498 0
M  V30 10637 H 971.438 3.96642 -1.25756 0
M  V30 10638 H 970.314 5.34939 -1.23012 0
M  V30 10639 H 970.575 4.4148 0.234089 0
M  V30 10640 N 969.634 0.838594 1.33437 0
M  V30 10641 C 970.564 0.286672 2.31734 0
M  V30 10642 C 971.545 -0.605451 1.5896 0
M  V30 10643 O 972.73 -0.529059 1.86854 0
M  V30 10644 C 969.86 -0.539311 3.43087 0
M  V30 10645 C 968.814 0.256997 4.27228 0
M  V30 10646 C 968.14 -0.692718 5.30194 0
M  V30 10647 C 969.44 1.47391 5.01072 0
M  V30 10648 H 971.134 1.10798 2.78144 0
M  V30 10649 H 968.68 0.534235 1.33723 0
M  V30 10650 H 970.633 -0.935724 4.1088 0
M  V30 10651 H 969.357 -1.39383 2.95364 0
M  V30 10652 H 968.016 0.634967 3.61059 0
M  V30 10653 H 967.664 -1.54363 4.78729 0
M  V30 10654 H 967.364 -0.164023 5.87371 0
M  V30 10655 H 968.888 -1.08665 6.00853 0
M  V30 10656 H 970.302 1.15067 5.61634 0
M  V30 10657 H 968.699 1.93937 5.67898 0
M  V30 10658 H 969.769 2.24382 4.29861 0
M  V30 10659 N 971.112 -1.45937 0.595003 0
M  V30 10660 C 972.042 -2.33198 -0.11871 0
M  V30 10661 C 973.023 -1.46083 -0.871423 0
M  V30 10662 O 974.208 -1.74879 -0.844461 0
M  V30 10663 C 971.338 -3.28576 -1.12495 0
M  V30 10664 C 970.292 -4.25229 -0.486275 0
M  V30 10665 C 969.618 -5.10204 -1.59986 0
M  V30 10666 C 970.918 -5.19019 0.584473 0
M  V30 10667 H 972.612 -2.93122 0.609886 0
M  V30 10668 H 970.158 -1.40951 0.294742 0
M  V30 10669 H 972.111 -3.88485 -1.6327 0
M  V30 10670 H 970.835 -2.66784 -1.88398 0
M  V30 10671 H 969.494 -3.666 0.000507962 0
M  V30 10672 H 969.142 -4.44789 -2.34886 0
M  V30 10673 H 968.842 -5.75669 -1.1781 0
M  V30 10674 H 970.366 -5.7298 -2.11014 0
M  V30 10675 H 971.78 -5.73073 0.161297 0
M  V30 10676 H 970.177 -5.92893 0.927256 0
M  V30 10677 H 971.247 -4.62208 1.46601 0
M  V30 10678 N 972.59 -0.333456 -1.54032 0
M  V30 10679 C 973.837 0.266133 -2.00744 0
M  V30 10680 C 974.165 1.51361 -1.22148 0
M  V30 10681 O 973.42 1.93473 -0.294368 0
M  V30 10682 C 973.719 0.63565 -3.51702 0
M  V30 10683 C 973.385 -0.513786 -4.47963 0
M  V30 10684 C 972.047 -0.829253 -4.74001 0
M  V30 10685 C 974.399 -1.2854 -5.05101 0
M  V30 10686 C 971.727 -1.91888 -5.54433 0
M  V30 10687 C 974.079 -2.3652 -5.86721 0
M  V30 10688 C 972.743 -2.68637 -6.11057 0
M  V30 10689 H 972.013 0.097385 -0.734573 0
M  V30 10690 H 974.66 -0.459282 -1.85911 0
M  V30 10691 H 972.965 1.44163 -3.64313 0
M  V30 10692 H 974.662 1.11129 -3.85294 0
M  V30 10693 H 971.252 -0.25784 -4.27824 0
M  V30 10694 H 975.436 -1.05494 -4.84958 0
M  V30 10695 H 970.692 -2.17208 -5.71516 0
M  V30 10696 H 974.866 -2.96747 -6.30011 0
M  V30 10697 H 972.493 -3.53197 -6.73169 0
M  V30 10698 N 974.068 1.57479 -0.061844 0
M  V30 10699 C 974.978 2.15645 0.923826 0
M  V30 10700 C 975.994 1.117 1.33413 0
M  V30 10701 O 977.17 1.4392 1.40887 0
M  V30 10702 C 974.235 2.69857 2.17665 0
M  V30 10703 C 973.296 3.88638 1.8237 0
M  V30 10704 C 972.529 4.40256 3.01679 0
M  V30 10705 O 972.752 3.90908 4.15388 0
M  V30 10706 O 971.686 5.31713 2.82073 0
M  V30 10707 H 975.512 3.0021 0.459094 0
M  V30 10708 H 973.097 1.48534 0.160665 0
M  V30 10709 H 974.979 3.04647 2.9115 0
M  V30 10710 H 973.654 1.88357 2.63255 0
M  V30 10711 H 972.561 3.58719 1.06167 0
M  V30 10712 H 973.894 4.71401 1.4157 0
M  V30 10713 N 975.546 -0.211634 1.56173 0
M  V30 10714 C 976.774 -0.951184 1.83739 0
M  V30 10715 C 977.189 -1.7754 0.642252 0
M  V30 10716 O 976.546 -1.78302 -0.389174 0
M  V30 10717 C 976.597 -1.86075 3.09933 0
M  V30 10718 O 976.318 -1.06983 4.24837 0
M  V30 10719 C 977.819 -2.71337 3.50559 0
M  V30 10720 H 975.039 -0.278312 0.61056 0
M  V30 10721 H 977.583 -0.223871 2.03271 0
M  V30 10722 H 975.738 -2.54189 2.92347 0
M  V30 10723 H 976.152 -1.68815 4.9659 0
M  V30 10724 H 977.626 -3.30843 4.41868 0
M  V30 10725 H 978.103 -3.44226 2.72773 0
M  V30 10726 H 978.709 -2.0862 3.70618 0
M  V30 10727 N 977.024 -1.50153 -0.478725 0
M  V30 10728 C 977.987 -1.67916 -1.56003 0
M  V30 10729 C 978.987 -0.550111 -1.51097 0
M  V30 10730 O 980.177 -0.817001 -1.53853 0
M  V30 10731 C 977.309 -1.6973 -2.95643 0
M  V30 10732 H 978.502 -2.6438 -1.41573 0
M  V30 10733 H 976.055 -1.39519 -0.704565 0
M  V30 10734 H 976.79 -0.749306 -3.15525 0
M  V30 10735 H 976.575 -2.51745 -3.00611 0
M  V30 10736 H 978.065 -1.85453 -3.74162 0
M  V30 10737 N 978.502 0.731368 -1.39602 0
M  V30 10738 C 979.432 1.85855 -1.41351 0
M  V30 10739 C 980.413 1.67839 -0.2764 0
M  V30 10740 O 981.598 1.88104 -0.482747 0
M  V30 10741 C 978.728 3.23644 -1.25983 0
M  V30 10742 C 977.682 3.56304 -2.37132 0
M  V30 10743 C 977.008 4.93069 -2.0685 0
M  V30 10744 C 978.308 3.58906 -3.79452 0
M  V30 10745 H 980.002 1.84648 -2.3568 0
M  V30 10746 H 977.548 0.886955 -1.13442 0
M  V30 10747 H 979.501 4.02176 -1.25826 0
M  V30 10748 H 978.225 3.25387 -0.281234 0
M  V30 10749 H 976.884 2.80104 -2.36511 0
M  V30 10750 H 976.532 4.91396 -1.0742 0
M  V30 10751 H 976.232 5.15888 -2.81306 0
M  V30 10752 H 977.756 5.73953 -2.0835 0
M  V30 10753 H 979.17 4.27508 -3.81982 0
M  V30 10754 H 977.567 3.93246 -4.53297 0
M  V30 10755 H 978.637 2.58631 -4.10168 0
M  V30 10756 N 979.98 1.24838 0.961938 0
M  V30 10757 C 980.91 1.07053 2.07514 0
M  V30 10758 C 981.891 -0.0182465 1.7009 0
M  V30 10759 O 983.076 0.149915 1.9362 0
M  V30 10760 C 980.206 0.680693 3.40564 0
M  V30 10761 C 979.16 1.71889 3.91967 0
M  V30 10762 C 978.486 1.18395 5.21428 0
M  V30 10763 C 979.786 3.1161 4.19161 0
M  V30 10764 H 981.48 2.00167 2.22651 0
M  V30 10765 H 979.026 0.963799 1.0699 0
M  V30 10766 H 980.979 0.54324 4.17884 0
M  V30 10767 H 979.703 -0.28615 3.25344 0
M  V30 10768 H 978.362 1.84465 3.16809 0
M  V30 10769 H 978.01 0.207543 5.02572 0
M  V30 10770 H 977.71 1.87778 5.56788 0
M  V30 10771 H 979.234 1.05873 6.01351 0
M  V30 10772 H 980.648 3.0223 4.87165 0
M  V30 10773 H 979.045 3.78398 4.65763 0
M  V30 10774 H 980.115 3.59218 3.25715 0
M  V30 10775 N 981.458 -1.16348 1.06306 0
M  V30 10776 C 982.683 -1.91323 0.800636 0
M  V30 10777 C 983.108 -1.7691 -0.639105 0
M  V30 10778 O 982.466 -1.0945 -1.44535 0
M  V30 10779 C 982.514 -3.40038 1.20027 0
M  V30 10780 O 981.618 -4.11003 0.339142 0
M  V30 10781 H 980.959 -0.596057 0.292595 0
M  V30 10782 H 983.489 -1.47406 1.41889 0
M  V30 10783 H 983.499 -3.90808 1.17188 0
M  V30 10784 H 982.174 -3.49848 2.24898 0
M  V30 10785 H 980.751 -3.70423 0.42911 0
M  V30 10786 N 982.937 -0.845659 -1.3299 0
M  V30 10787 C 984.162 -0.457435 -2.02293 0
M  V30 10788 C 984.587 0.935634 -1.63179 0
M  V30 10789 O 983.945 1.61297 -0.827835 0
M  V30 10790 C 983.993 -0.593665 -3.5568 0
M  V30 10791 O 983.097 0.37729 -4.10671 0
M  V30 10792 H 982.438 -0.185022 -0.637701 0
M  V30 10793 H 984.968 -1.14237 -1.69738 0
M  V30 10794 H 984.978 -0.477834 -4.05192 0
M  V30 10795 H 983.653 -1.60957 -3.83491 0
M  V30 10796 H 982.23 0.218448 -3.7226 0
M  V30 10797 N 984.415 1.45619 -0.602734 0
M  V30 10798 C 985.663 2.01873 -0.095844 0
M  V30 10799 C 985.984 1.47427 1.27633 0
M  V30 10800 O 985.254 0.666652 1.84208 0
M  V30 10801 H 983.834 0.746295 -0.0324408 0
M  V30 10802 H 986.496 1.78478 -0.783037 0
M  V30 10803 H 985.592 3.12072 -0.0419507 0
M  V30 10804 N 985.893 0.34162 1.53853 0
M  V30 10805 C 987.14 -0.255484 2.00882 0
M  V30 10806 C 987.468 -1.50711 1.22949 0
M  V30 10807 O 986.723 -1.93315 0.304625 0
M  V30 10808 C 987.022 -0.616989 3.52034 0
M  V30 10809 C 986.688 0.537536 4.47684 0
M  V30 10810 C 985.35 0.854379 4.73554 0
M  V30 10811 C 987.702 1.31217 5.04412 0
M  V30 10812 C 985.03 1.94826 5.53407 0
M  V30 10813 C 987.382 2.39628 5.85458 0
M  V30 10814 C 986.046 2.71874 6.09623 0
M  V30 10815 H 985.316 -0.0934881 0.735079 0
M  V30 10816 H 987.963 0.469135 1.85665 0
M  V30 10817 H 986.268 -1.42229 3.65073 0
M  V30 10818 H 987.965 -1.09084 3.85878 0
M  V30 10819 H 984.555 0.280524 4.27681 0
M  V30 10820 H 988.739 1.08064 4.84392 0
M  V30 10821 H 983.995 2.20235 5.70356 0
M  V30 10822 H 988.169 3.00084 6.28429 0
M  V30 10823 H 985.796 3.56762 6.71286 0
M  V30 10824 N 987.371 -1.57444 0.0701946 0
M  V30 10825 C 988.596 -1.98171 -0.61181 0
M  V30 10826 C 989.021 -0.94823 -1.62451 0
M  V30 10827 O 988.379 0.0863553 -1.81094 0
M  V30 10828 C 988.427 -3.37934 -1.2583 0
M  V30 10829 O 987.531 -3.37207 -2.37414 0
M  V30 10830 H 986.872 -0.645056 -0.157477 0
M  V30 10831 H 989.402 -2.04091 0.144235 0
M  V30 10832 H 989.412 -3.75083 -1.60552 0
M  V30 10833 H 988.087 -4.12684 -0.516234 0
M  V30 10834 H 986.664 -3.11826 -2.04497 0
M  V30 10835 N 988.849 0.203349 -1.56283 0
M  V30 10836 C 989.779 1.2549 -1.96912 0
M  V30 10837 C 990.76 1.47919 -0.839884 0
M  V30 10838 O 991.945 1.59795 -1.10359 0
M  V30 10839 C 989.075 2.6009 -2.30153 0
M  V30 10840 C 988.029 2.52289 -3.45738 0
M  V30 10841 C 987.355 3.91086 -3.64632 0
M  V30 10842 C 988.655 2.05503 -4.80173 0
M  V30 10843 H 990.349 0.917306 -2.85002 0
M  V30 10844 H 987.895 0.439818 -1.37119 0
M  V30 10845 H 989.848 3.33829 -2.5717 0
M  V30 10846 H 988.572 2.95574 -1.38937 0
M  V30 10847 H 987.231 1.81006 -3.18798 0
M  V30 10848 H 986.879 4.23908 -2.7076 0
M  V30 10849 H 986.579 3.86742 -4.42385 0
M  V30 10850 H 988.103 4.66459 -3.94016 0
M  V30 10851 H 989.517 2.68995 -5.06275 0
M  V30 10852 H 987.914 2.1218 -5.61337 0
M  V30 10853 H 988.984 1.00793 -4.74309 0
M  V30 10854 N 990.327 1.50405 0.470755 0
M  V30 10855 C 991.237 1.7208 1.59454 0
M  V30 10856 C 992.253 0.603932 1.63183 0
M  V30 10857 O 993.429 0.882296 1.81046 0
M  V30 10858 C 990.494 1.81057 2.95667 0
M  V30 10859 C 989.555 3.04792 3.02324 0
M  V30 10860 C 988.788 3.13332 4.3204 0
M  V30 10861 O 989.011 2.28655 5.22564 0
M  V30 10862 O 987.945 4.0606 4.44296 0
M  V30 10863 H 991.771 2.67343 1.44089 0
M  V30 10864 H 989.356 1.34505 0.650286 0
M  V30 10865 H 991.238 1.8914 3.76569 0
M  V30 10866 H 989.913 0.889782 3.11231 0
M  V30 10867 H 988.82 3.0221 2.205 0
M  V30 10868 H 990.153 3.96451 2.91698 0
M  V30 10869 N 991.805 -0.723954 1.39988 0
M  V30 10870 C 993.082 -1.4763 1.28316 0
M  V30 10871 C 993.462 -2.10852 -0.102302 0
M  V30 10872 O 992.81 -1.9948 -1.11445 0
M  V30 10873 C 993.02 -2.51878 2.41574 0
M  V30 10874 C 994.368 -3.17948 2.81415 0
M  V30 10875 O 995.392 -2.62195 2.41106 0
M  V30 10876 O 994.251 -4.18858 3.51027 0
M  V30 10877 H 991.345 -0.656092 0.50346 0
M  V30 10878 H 993.891 -0.75684 1.51888 0
M  V30 10879 H 992.663 -2.03618 3.34149 0
M  V30 10880 H 992.286 -3.3137 2.19727 0
M  V30 10881 N 993.283 -1.25346 -0.955304 0
M  V30 10882 C 994.694 -1.09173 -1.51453 0
M  V30 10883 C 995.045 0.332755 -1.93358 0
M  V30 10884 O 994.17 1.22264 -1.78551 0
M  V30 10885 C 994.765 -1.97564 -2.75234 0
M  V30 10886 C 993.324 -1.85579 -3.27471 0
M  V30 10887 C 992.471 -1.91755 -2.00313 0
M  V30 10888 H 995.422 -1.38642 -0.772271 0
M  V30 10889 H 995.443 -1.51523 -3.49029 0
M  V30 10890 H 994.955 -3.01233 -2.44704 0
M  V30 10891 H 993.056 -0.847906 -3.62824 0
M  V30 10892 H 993.169 -2.70353 -3.95533 0
M  V30 10893 H 991.533 -1.35633 -2.15582 0
M  V30 10894 H 992.316 -2.97028 -1.72132 0
M  V30 10895 N 994.761 1.15782 -1.06922 0
M  V30 10896 C 995.693 2.19978 -0.643604 0
M  V30 10897 C 996.706 1.59981 0.301653 0
M  V30 10898 O 997.895 1.78265 0.0916508 0
M  V30 10899 C 994.995 3.38815 0.0757973 0
M  V30 10900 C 994.168 4.28363 -0.884545 0
M  V30 10901 C 993.227 5.25807 -0.203233 0
M  V30 10902 O 992.253 5.62924 -0.842904 0
M  V30 10903 N 993.455 5.70874 1.05279 0
M  V30 10904 H 996.22 2.57112 -1.53992 0
M  V30 10905 H 993.781 1.30855 -0.953344 0
M  V30 10906 H 995.773 4.01052 0.542151 0
M  V30 10907 H 994.343 3.00133 0.874 0
M  V30 10908 H 993.563 3.63292 -1.53012 0
M  V30 10909 H 994.851 4.85067 -1.53581 0
M  V30 10910 H 994.249 5.42822 1.5925 0
M  V30 10911 H 992.806 6.35171 1.46289 0
M  V30 10912 N 996.239 0.8527 1.3254 0
M  V30 10913 C 997.467 0.469044 2.01513 0
M  V30 10914 C 997.882 -0.933701 1.64096 0
M  V30 10915 O 997.239 -1.60898 0.861283 0
M  V30 10916 C 997.29 0.596228 3.56549 0
M  V30 10917 O 997.011 1.94371 3.92621 0
M  V30 10918 C 998.512 0.211324 4.42796 0
M  V30 10919 H 995.732 0.184589 0.645111 0
M  V30 10920 H 998.276 1.1491 1.69163 0
M  V30 10921 H 996.431 -0.0360712 3.87383 0
M  V30 10922 H 996.845 1.93909 4.87339 0
M  V30 10923 H 998.319 0.351324 5.50881 0
M  V30 10924 H 998.796 -0.848055 4.30935 0
M  V30 10925 H 999.402 0.818617 4.17347 0
M  V30 10926 N 997.718 -1.45297 0.610449 0
M  V30 10927 C 998.668 -2.27639 -0.128194 0
M  V30 10928 C 999.652 -1.37485 -0.835861 0
M  V30 10929 O 1000.84 -1.61454 -0.725378 0
M  V30 10930 C 997.973 -3.24413 -1.123 0
M  V30 10931 C 997.059 -4.22055 -0.416029 0
M  V30 10932 N 997.45 -5.02867 0.543921 0
M  V30 10933 C 995.748 -4.41041 -0.663208 0
M  V30 10934 C 996.449 -5.73728 0.959731 0
M  V30 10935 N 995.425 -5.42756 0.302873 0
M  V30 10936 H 999.227 -2.8752 0.609056 0
M  V30 10937 H 996.741 -1.56484 0.434338 0
M  V30 10938 H 998.738 -3.82139 -1.6666 0
M  V30 10939 H 997.398 -2.66092 -1.86078 0
M  V30 10940 H 998.409 -5.09649 0.920799 0
M  V30 10941 H 995.086 -3.93842 -1.38544 0
M  V30 10942 H 996.476 -6.48666 1.75163 0
M  V30 10943 N 999.196 -0.349774 -1.5367 0
M  V30 10944 C 1000.42 0.248692 -2.05904 0
M  V30 10945 C 1000.85 1.42942 -1.22267 0
M  V30 10946 O 1000.2 1.79732 -0.237899 0
M  V30 10947 C 1000.25 0.635639 -3.54953 0
M  V30 10948 O 999.356 1.7349 -3.74132 0
M  V30 10949 H 998.697 0.0399477 -0.662797 0
M  V30 10950 H 1001.23 -0.505795 -1.9825 0
M  V30 10951 H 1001.24 0.911064 -3.97698 0
M  V30 10952 H 999.912 -0.227805 -4.15276 0
M  V30 10953 H 998.489 1.45626 -3.43289 0
M  V30 10954 N 1000.67 1.57404 -0.0785433 0
M  V30 10955 C 1001.62 2.14316 0.903949 0
M  V30 10956 C 1002.62 1.08176 1.30362 0
M  V30 10957 O 1003.82 1.26546 1.28008 0
M  V30 10958 H 1000.2 0.685367 0.309477 0
M  V30 10959 H 1002.17 2.95719 0.399081 0
M  V30 10960 C 1000.92 2.72504 2.15956 0
M  V30 10961 H 1000.24 3.53853 1.86087 0
M  V30 10962 H 1001.68 3.15914 2.82798 0
M  V30 10963 C 1000.14 1.6759 2.92259 0
M  V30 10964 O 1000.67 1.10492 3.86205 0
M  V30 10965 N 998.875 1.38467 2.5549 0
M  V30 10966 H 998.422 1.85088 1.79166 0
M  V30 10967 H 998.38 0.685053 3.06846 0
M  V30 10968 N 1002.15 -0.195058 1.56388 0
M  V30 10969 C 1003.57 -0.545894 1.49974 0
M  V30 10970 C 1003.77 -1.85851 0.778568 0
M  V30 10971 O 1002.82 -2.50346 0.329105 0
M  V30 10972 C 1004.14 -0.600599 2.94641 0
M  V30 10973 C 1005.68 -0.689429 3.05313 0
M  V30 10974 C 1006.16 -0.775243 4.51391 0
M  V30 10975 N 1007.65 -0.838769 4.55542 0
M  V30 10976 C 1008.39 -0.925337 5.65884 0
M  V30 10977 N 1007.88 -0.974204 6.85916 0
M  V30 10978 N 1009.67 -0.962528 5.53798 0
M  V30 10979 H 1001.83 0.66595 2.0169 0
M  V30 10980 H 1004.09 0.237215 0.917842 0
M  V30 10981 H 1003.79 0.29478 3.50462 0
M  V30 10982 H 1003.67 -1.45528 3.47996 0
M  V30 10983 H 1006.06 -1.57524 2.4954 0
M  V30 10984 H 1006.14 0.191451 2.55083 0
M  V30 10985 H 1005.78 0.106215 5.07789 0
M  V30 10986 H 1005.71 -1.67193 4.99354 0
M  V30 10987 H 1008.2 -0.810249 3.69112 0
M  V30 10988 H 1008.51 -1.04077 7.6576 0
M  V30 10989 H 1006.86 -0.942881 6.88574 0
M  V30 10990 H 1010.05 -0.921188 4.58946 0
M  V30 10991 H 1010.22 -1.02653 6.39817 0
M  V30 10992 N 1003.63 -1.50653 -0.462772 0
M  V30 10993 C 1004.88 -1.61296 -1.21105 0
M  V30 10994 C 1005.19 -0.322757 -1.92919 0
M  V30 10995 O 1006.4 -0.308211 -2.69745 0
M  V30 10996 C 1004.85 -2.84752 -2.201 0
M  V30 10997 C 1004.46 -4.20681 -1.54051 0
M  V30 10998 C 1006.21 -3.04744 -2.95518 0
M  V30 10999 C 1004.11 -5.35314 -2.51381 0
M  V30 11000 H 1003.04 -0.60069 -0.455728 0
M  V30 11001 H 1005.69 -1.77093 -0.480656 0
M  V30 11002 H 1004.08 -2.62532 -2.96467 0
M  V30 11003 H 1005.25 -4.53187 -0.834168 0
M  V30 11004 H 1003.56 -4.06361 -0.908828 0
M  V30 11005 H 1006.16 -3.87559 -3.68378 0
M  V30 11006 H 1006.5 -2.16802 -3.55391 0
M  V30 11007 H 1007.04 -3.27185 -2.26263 0
M  V30 11008 H 1003.78 -6.25437 -1.96235 0
M  V30 11009 H 1003.3 -5.07216 -3.20144 0
M  V30 11010 H 1004.98 -5.66229 -3.1304 0
M  V30 11011 N 1005.11 0.71652 -1.4037 0
M  V30 11012 C 1006.34 1.50344 -1.41704 0
M  V30 11013 C 1006.75 1.89194 -0.0148011 0
M  V30 11014 O 1006.09 1.55916 0.971391 0
M  V30 11015 C 1006.15 2.80928 -2.2432 0
M  V30 11016 C 1005.82 2.64406 -3.72744 0
M  V30 11017 C 1006.81 2.31727 -4.65401 0
M  V30 11018 C 1004.5 2.807 -4.16549 0
M  V30 11019 C 1006.49 2.15551 -5.99847 0
M  V30 11020 C 1004.18 2.64141 -5.51065 0
M  V30 11021 C 1005.18 2.31614 -6.42529 0
M  V30 11022 O 1004.86 2.15179 -7.74566 0
M  V30 11023 H 1004.6 0.470574 -0.48532 0
M  V30 11024 H 1007.15 0.89152 -1.85043 0
M  V30 11025 H 1005.38 3.4445 -1.75759 0
M  V30 11026 H 1007.07 3.4264 -2.17607 0
M  V30 11027 H 1007.84 2.18773 -4.32855 0
M  V30 11028 H 1003.71 3.05005 -3.45677 0
M  V30 11029 H 1007.26 1.90084 -6.71203 0
M  V30 11030 H 1003.16 2.76679 -5.83197 0
M  V30 11031 H 1003.92 2.30106 -7.85489 0
M  V30 11032 N 1006.59 1.25851 0.948643 0
M  V30 11033 C 1008 1.02802 1.22081 0
M  V30 11034 C 1008.2 -0.251461 1.99925 0
M  V30 11035 O 1007.26 -0.962592 2.33432 0
M  V30 11036 C 1008.57 2.25489 1.98936 0
M  V30 11037 C 1010.12 2.30312 2.11956 0
M  V30 11038 C 1010.59 3.52671 2.92211 0
M  V30 11039 N 1012.09 3.53103 2.99787 0
M  V30 11040 C 1012.82 4.44445 3.62294 0
M  V30 11041 N 1012.32 5.46065 4.26362 0
M  V30 11042 N 1014.11 4.32113 3.59493 0
M  V30 11043 H 1006.26 2.08042 0.428044 0
M  V30 11044 H 1008.52 0.913928 0.251872 0
M  V30 11045 H 1008.23 3.18513 1.4914 0
M  V30 11046 H 1008.1 2.2914 2.99624 0
M  V30 11047 H 1010.49 1.37808 2.60946 0
M  V30 11048 H 1010.57 2.30676 1.10554 0
M  V30 11049 H 1010.22 4.45501 2.43909 0
M  V30 11050 H 1010.15 3.49554 3.93853 0
M  V30 11051 H 1012.64 2.79597 2.54232 0
M  V30 11052 H 1012.95 6.11964 4.71932 0
M  V30 11053 H 1011.29 5.49931 4.24972 0
M  V30 11054 H 1014.49 3.51946 3.08629 0
M  V30 11055 H 1014.66 5.03493 4.0792 0
M  V30 11056 N 1008.06 -1.15214 1.07534 0
M  V30 11057 C 1009 -2.18999 0.641461 0
M  V30 11058 C 1009.98 -1.58958 -0.342238 0
M  V30 11059 O 1011.16 -1.86859 -0.248218 0
M  V30 11060 C 1008.29 -3.38651 -0.0577939 0
M  V30 11061 C 1007.33 -4.17225 0.884641 0
M  V30 11062 S 1008.17 -4.79375 2.38663 0
M  V30 11063 C 1009.32 -6.02393 1.69923 0
M  V30 11064 H 1009.55 -2.55464 1.52071 0
M  V30 11065 H 1007.09 -1.26205 0.889481 0
M  V30 11066 H 1009.05 -4.07971 -0.454982 0
M  V30 11067 H 1007.71 -3.00526 -0.913407 0
M  V30 11068 H 1006.9 -5.02837 0.342133 0
M  V30 11069 H 1006.5 -3.53463 1.2223 0
M  V30 11070 H 1008.79 -6.69899 1.01201 0
M  V30 11071 H 1009.74 -6.61216 2.53375 0
M  V30 11072 H 1010.14 -5.52106 1.1764 0
M  V30 11073 N 1009.54 -0.859717 -1.32086 0
M  V30 11074 C 1010.79 -0.461779 -1.96343 0
M  V30 11075 C 1011.1 0.988837 -1.68764 0
M  V30 11076 O 1012.31 1.49244 -2.268 0
M  V30 11077 C 1010.77 -0.77484 -3.5146 0
M  V30 11078 C 1010.37 -2.24153 -3.87891 0
M  V30 11079 C 1012.12 -0.444873 -4.22162 0
M  V30 11080 C 1010.03 -2.49754 -5.36075 0
M  V30 11081 H 1008.96 -0.168951 -0.734828 0
M  V30 11082 H 1011.61 -1.0512 -1.50406 0
M  V30 11083 H 1009.99 -0.114792 -3.95834 0
M  V30 11084 H 1011.16 -2.94378 -3.54511 0
M  V30 11085 H 1009.48 -2.53651 -3.30227 0
M  V30 11086 H 1012.07 -0.613508 -5.31169 0
M  V30 11087 H 1012.42 0.61391 -4.11749 0
M  V30 11088 H 1012.95 -1.06103 -3.83389 0
M  V30 11089 H 1009.69 -3.54276 -5.51515 0
M  V30 11090 H 1009.21 -1.84112 -5.70844 0
M  V30 11091 H 1010.89 -2.3396 -6.03218 0
M  V30 11092 N 1011.02 1.44971 -0.618145 0
M  V30 11093 C 1011.97 2.30606 0.09449 0
M  V30 11094 C 1012.94 1.42725 0.849633 0
M  V30 11095 O 1014.12 1.71643 0.833266 0
M  V30 11096 C 1011.26 3.27803 1.07886 0
M  V30 11097 C 1010.38 4.30787 0.323488 0
M  V30 11098 C 1009.51 5.15085 1.29851 0
M  V30 11099 C 1008.55 6.09788 0.531561 0
M  V30 11100 N 1007.69 6.86829 1.4564 0
M  V30 11101 H 1012.53 2.91008 -0.641738 0
M  V30 11102 H 1010.06 1.43391 -0.328259 0
M  V30 11103 H 1012.02 3.82631 1.66281 0
M  V30 11104 H 1010.65 2.69131 1.78237 0
M  V30 11105 H 1009.7 3.78536 -0.376164 0
M  V30 11106 H 1011.02 4.98044 -0.274443 0
M  V30 11107 H 1010.17 5.74365 1.95421 0
M  V30 11108 H 1008.91 4.4787 1.93037 0
M  V30 11109 H 1007.91 5.49628 -0.137702 0
M  V30 11110 H 1009.14 6.79033 -0.0953993 0
M  V30 11111 H 1007.08 6.22295 2.07571 0
M  V30 11112 H 1007 7.50477 0.912167 0
M  V30 11113 H 1008.27 7.50642 2.10134 0
M  V30 11114 N 1012.5 0.357919 1.53482 0
M  V30 11115 C 1013.43 -0.484231 2.28424 0
M  V30 11116 C 1014.41 -1.09046 1.30548 0
M  V30 11117 O 1015.59 -1.10916 1.59409 0
M  V30 11118 C 1012.72 -1.62803 3.06778 0
M  V30 11119 C 1011.68 -1.14943 4.12277 0
M  V30 11120 C 1011 -2.38287 4.78669 0
M  V30 11121 C 1012.3 -0.239627 5.2175 0
M  V30 11122 H 1014 0.140979 2.99068 0
M  V30 11123 H 1011.54 0.069244 1.43833 0
M  V30 11124 H 1013.5 -2.22374 3.57949 0
M  V30 11125 H 1012.22 -2.28036 2.3381 0
M  V30 11126 H 1010.88 -0.576442 3.6204 0
M  V30 11127 H 1010.53 -3.01959 4.02281 0
M  V30 11128 H 1010.23 -2.06939 5.49955 0
M  V30 11129 H 1011.75 -2.98558 5.32631 0
M  V30 11130 H 1013.17 -0.742597 5.6847 0
M  V30 11131 H 1011.56 -0.0173747 6.00097 0
M  V30 11132 H 1012.63 0.720333 4.7952 0
M  V30 11133 N 1013.98 -1.5736 0.0868897 0
M  V30 11134 C 1015.22 -1.9367 -0.577598 0
M  V30 11135 C 1015.55 -0.968844 -1.69229 0
M  V30 11136 O 1014.82 -0.0195061 -1.9589 0
M  V30 11137 H 1013.4 -0.714983 -0.216353 0
M  V30 11138 H 1016.06 -1.94335 0.148294 0
M  V30 11139 H 1015.15 -2.95877 -0.993128 0
M  V30 11140 N 1015.45 0.186762 -1.56489 0
M  V30 11141 C 1016.38 1.23395 -1.98232 0
M  V30 11142 C 1017.37 1.4702 -0.855526 0
M  V30 11143 O 1018.55 1.58616 -1.12048 0
M  V30 11144 C 1015.68 2.57635 -2.32898 0
M  V30 11145 C 1014.63 2.48607 -3.48394 0
M  V30 11146 C 1013.96 3.87196 -3.68759 0
M  V30 11147 C 1015.26 2.00398 -4.82325 0
M  V30 11148 H 1016.95 0.887026 -2.85958 0
M  V30 11149 H 1014.5 0.42525 -1.37578 0
M  V30 11150 H 1016.45 3.31082 -2.60696 0
M  V30 11151 H 1015.18 2.94084 -1.42064 0
M  V30 11152 H 1013.84 1.77615 -3.207 0
M  V30 11153 H 1013.48 4.21012 -2.75241 0
M  V30 11154 H 1013.18 3.82029 -4.46462 0
M  V30 11155 H 1014.71 4.62253 -3.98941 0
M  V30 11156 H 1016.12 2.6361 -5.091 0
M  V30 11157 H 1014.52 2.06214 -5.63556 0
M  V30 11158 H 1015.59 0.957562 -4.75351 0
M  V30 11159 N 1016.93 1.50896 0.454776 0
M  V30 11160 C 1018.18 1.62378 1.20324 0
M  V30 11161 C 1018.5 0.333883 1.9212 0
M  V30 11162 O 1017.77 -0.649477 1.8482 0
M  V30 11163 H 1016.35 0.598395 0.447139 0
M  V30 11164 H 1019.01 1.87749 0.523102 0
M  V30 11165 H 1018.11 2.44296 1.94232 0
M  V30 11166 N 1018.41 -0.709066 1.40748 0
M  V30 11167 C 1019.66 -1.4646 1.38681 0
M  V30 11168 C 1019.97 -1.95599 -0.0056209 0
M  V30 11169 O 1021.18 -2.71091 -0.148907 0
M  V30 11170 C 1019.63 -2.64771 2.43771 0
M  V30 11171 C 1019.24 -2.22474 3.88856 0
M  V30 11172 C 1020.99 -3.42475 2.50821 0
M  V30 11173 C 1018.89 -3.37663 4.85528 0
M  V30 11174 H 1017.82 -0.550084 0.515678 0
M  V30 11175 H 1020.47 -0.771074 1.66513 0
M  V30 11176 H 1018.86 -3.36325 2.09048 0
M  V30 11177 H 1020.03 -1.58297 4.32757 0
M  V30 11178 H 1018.35 -1.57798 3.85342 0
M  V30 11179 H 1020.94 -4.28201 3.20232 0
M  V30 11180 H 1021.29 -3.86738 1.54076 0
M  V30 11181 H 1021.82 -2.77969 2.84567 0
M  V30 11182 H 1018.56 -2.98426 5.83628 0
M  V30 11183 H 1018.08 -4.00734 4.46287 0
M  V30 11184 H 1019.76 -4.03636 5.05655 0
M  V30 11185 N 1019.89 -1.26353 -0.941956 0
M  V30 11186 C 1021.17 -1.02601 -1.6653 0
M  V30 11187 C 1021.55 0.44381 -2.06382 0
M  V30 11188 O 1020.89 1.42399 -1.78703 0
M  V30 11189 C 1021.1 -1.97401 -2.87809 0
M  V30 11190 C 1022.45 -2.25967 -3.59478 0
M  V30 11191 O 1023.48 -1.95261 -2.97912 0
M  V30 11192 O 1022.34 -2.78244 -4.70364 0
M  V30 11193 H 1019.43 -0.39007 -0.729228 0
M  V30 11194 H 1021.98 -1.37559 -0.993754 0
M  V30 11195 H 1020.75 -2.9659 -2.55245 0
M  V30 11196 H 1020.37 -1.62918 -3.62689 0
M  V30 11197 N 1021.37 1.14642 -1.08144 0
M  V30 11198 C 1022.28 2.23257 -0.720668 0
M  V30 11199 C 1023.29 1.71866 0.271648 0
M  V30 11200 O 1024.47 2.01064 0.116266 0
M  V30 11201 C 1021.53 3.46447 -0.132542 0
M  V30 11202 C 1020.6 4.12789 -1.17913 0
M  V30 11203 C 1019.83 5.30099 -0.618971 0
M  V30 11204 O 1020.05 5.6762 0.562418 0
M  V30 11205 O 1018.99 5.86154 -1.36774 0
M  V30 11206 H 1022.81 2.56463 -1.62667 0
M  V30 11207 H 1020.4 1.22521 -0.854932 0
M  V30 11208 H 1022.28 4.20959 0.19277 0
M  V30 11209 H 1020.95 3.14971 0.746662 0
M  V30 11210 H 1019.86 3.40163 -1.55693 0
M  V30 11211 H 1021.19 4.48365 -2.03051 0
M  V30 11212 N 1022.85 0.866709 1.31628 0
M  V30 11213 C 1024.12 0.396828 1.91532 0
M  V30 11214 C 1024.5 -1.12081 1.78889 0
M  V30 11215 O 1023.85 -1.94791 1.19452 0
M  V30 11216 C 1024.06 0.874578 3.37864 0
M  V30 11217 C 1025.41 0.8988 4.14978 0
M  V30 11218 O 1026.43 0.820014 3.46633 0
M  V30 11219 O 1025.29 1.01223 5.37044 0
M  V30 11220 H 1022.39 0.1181 0.818524 0
M  V30 11221 H 1024.93 0.954407 1.40318 0
M  V30 11222 H 1023.7 1.91807 3.41066 0
M  V30 11223 H 1023.33 0.295126 3.96503 0
M  V30 11224 N 1024.32 -1.44642 0.625825 0
M  V30 11225 C 1025.23 -2.34451 -0.0836134 0
M  V30 11226 C 1026.25 -1.5231 -0.841289 0
M  V30 11227 O 1027.43 -1.85056 -0.794754 0
M  V30 11228 C 1024.49 -3.30211 -1.05648 0
M  V30 11229 C 1023.55 -4.28259 -0.298759 0
M  V30 11230 C 1022.78 -5.19444 -1.22528 0
M  V30 11231 O 1023.01 -5.14444 -2.46382 0
M  V30 11232 O 1021.94 -5.97668 -0.71247 0
M  V30 11233 H 1025.77 -2.96555 0.654912 0
M  V30 11234 H 1023.35 -1.44327 0.386029 0
M  V30 11235 H 1025.23 -3.8917 -1.61632 0
M  V30 11236 H 1023.91 -2.70648 -1.77571 0
M  V30 11237 H 1022.82 -3.72863 0.304001 0
M  V30 11238 H 1024.15 -4.90728 0.380345 0
M  V30 11239 N 1025.8 -0.366053 -1.5329 0
M  V30 11240 C 1027.05 0.223824 -2.01561 0
M  V30 11241 C 1027.38 1.48382 -1.25286 0
M  V30 11242 O 1026.66 1.91385 -0.34669 0
M  V30 11243 C 1026.94 0.5153 -3.56394 0
M  V30 11244 C 1026.79 -0.758357 -4.43361 0
M  V30 11245 C 1028.11 1.31568 -4.19974 0
M  V30 11246 H 1025.23 0.0798751 -0.732659 0
M  V30 11247 H 1027.87 -0.491038 -1.83545 0
M  V30 11248 H 1026.02 1.12429 -3.71876 0
M  V30 11249 H 1027.69 -1.39584 -4.39675 0
M  V30 11250 H 1025.94 -1.37862 -4.11311 0
M  V30 11251 H 1026.61 -0.509366 -5.49645 0
M  V30 11252 H 1029.08 0.800514 -4.08327 0
M  V30 11253 H 1027.96 1.48837 -5.28336 0
M  V30 11254 H 1028.22 2.32432 -3.76069 0
M  V30 11255 N 1027.28 1.57312 -0.0952337 0
M  V30 11256 C 1028.24 2.12889 0.849161 0
M  V30 11257 C 1029.24 1.05819 1.21075 0
M  V30 11258 O 1030.43 1.31704 1.14016 0
M  V30 11259 C 1027.56 2.6496 2.14498 0
M  V30 11260 H 1028.76 2.97651 0.366566 0
M  V30 11261 H 1026.31 1.55542 0.153762 0
M  V30 11262 H 1027.05 1.83718 2.67242 0
M  V30 11263 H 1026.83 3.43244 1.89542 0
M  V30 11264 H 1028.32 3.07952 2.82056 0
M  V30 11265 N 1028.76 -0.17846 1.56586 0
M  V30 11266 C 1029.72 -1.20479 1.94981 0
M  V30 11267 C 1030.72 -1.37561 0.832677 0
M  V30 11268 O 1031.91 -1.35089 1.09984 0
M  V30 11269 C 1029.04 -2.57117 2.23839 0
M  V30 11270 H 1030.24 -0.876173 2.86816 0
M  V30 11271 H 1027.79 -0.420635 1.50534 0
M  V30 11272 H 1028.52 -2.95005 1.34695 0
M  V30 11273 H 1028.31 -2.46086 3.05261 0
M  V30 11274 H 1029.8 -3.31096 2.5449 0
M  V30 11275 N 1030.24 -1.51135 -0.446768 0
M  V30 11276 C 1031.15 -1.74595 -1.56696 0
M  V30 11277 C 1032.16 -0.629816 -1.62201 0
M  V30 11278 O 1033.34 -0.910987 -1.79619 0
M  V30 11279 C 1030.4 -1.85738 -2.9275 0
M  V30 11280 C 1029.46 -3.09564 -2.97437 0
M  V30 11281 C 1028.7 -3.20165 -4.27001 0
M  V30 11282 O 1028.92 -2.36939 -5.1886 0
M  V30 11283 O 1027.85 -4.13077 -4.3778 0
M  V30 11284 H 1031.68 -2.69601 -1.39817 0
M  V30 11285 H 1029.26 -1.35523 -0.628805 0
M  V30 11286 H 1031.15 -1.95107 -3.73512 0
M  V30 11287 H 1029.82 -0.939184 -3.09776 0
M  V30 11288 H 1028.73 -3.05679 -2.15664 0
M  V30 11289 H 1030.06 -4.01041 -2.85353 0
M  V30 11290 N 1031.71 0.701592 -1.41122 0
M  V30 11291 C 1032.62 1.84548 -1.44841 0
M  V30 11292 C 1033.64 1.70654 -0.339594 0
M  V30 11293 O 1034.82 1.92675 -0.586378 0
M  V30 11294 C 1031.88 3.20477 -1.3227 0
M  V30 11295 C 1030.94 3.46524 -2.53415 0
M  V30 11296 C 1030.17 4.75968 -2.41434 0
M  V30 11297 O 1030.4 5.52037 -1.43566 0
M  V30 11298 O 1029.33 5.02664 -3.31078 0
M  V30 11299 H 1033.16 1.84367 -2.41335 0
M  V30 11300 H 1030.74 0.853863 -1.22595 0
M  V30 11301 H 1032.62 4.01642 -1.2752 0
M  V30 11302 H 1031.3 3.21355 -0.388889 0
M  V30 11303 H 1030.21 2.65313 -2.63742 0
M  V30 11304 H 1031.54 3.50455 -3.45604 0
M  V30 11305 N 1033.19 1.2685 0.935242 0
M  V30 11306 C 1034.6 1.11569 1.49697 0
M  V30 11307 C 1034.95 -0.301952 1.93863 0
M  V30 11308 O 1034.08 -1.19408 1.80473 0
M  V30 11309 C 1034.67 2.01918 2.72056 0
M  V30 11310 C 1033.23 1.90765 3.24477 0
M  V30 11311 C 1032.38 1.94918 1.97237 0
M  V30 11312 H 1035.33 1.39853 0.750116 0
M  V30 11313 H 1035.35 1.57056 3.46574 0
M  V30 11314 H 1034.86 3.05088 2.39881 0
M  V30 11315 H 1032.96 0.905521 3.61429 0
M  V30 11316 H 1033.08 2.76611 3.91182 0
M  V30 11317 H 1031.44 1.39046 2.13397 0
M  V30 11318 H 1032.22 2.99729 1.67385 0
M  V30 11319 N 1034.67 -1.14067 1.0875 0
M  V30 11320 C 1035.62 -2.21332 0.715195 0
M  V30 11321 C 1036.61 -1.67059 -0.280679 0
M  V30 11322 O 1037.82 -1.79432 -0.142874 0
M  V30 11323 H 1034.19 -0.721126 0.213264 0
M  V30 11324 H 1036.16 -2.50002 1.62916 0
M  V30 11325 C 1034.91 -3.474 0.144401 0
M  V30 11326 H 1034.24 -3.89495 0.901884 0
M  V30 11327 H 1035.68 -4.23928 -0.0782564 0
M  V30 11328 C 1034.14 -3.17787 -1.11862 0
M  V30 11329 O 1034.67 -3.35906 -2.20295 0
M  V30 11330 N 1032.87 -2.71719 -1.03039 0
M  V30 11331 H 1032.42 -2.57175 -0.14793 0
M  V30 11332 H 1032.38 -2.52281 -1.87621 0
M  V30 11333 N 1036.15 -0.873678 -1.31166 0
M  V30 11334 C 1037.11 -0.337069 -2.26708 0
M  V30 11335 C 1038.11 0.51406 -1.52362 0
M  V30 11336 O 1039.3 0.322834 -1.71182 0
M  V30 11337 C 1036.43 0.520897 -3.36897 0
M  V30 11338 H 1037.63 -1.18056 -2.75686 0
M  V30 11339 H 1035.18 -0.649577 -1.42163 0
M  V30 11340 H 1035.91 1.38543 -2.93217 0
M  V30 11341 H 1035.7 -0.0886015 -3.92 0
M  V30 11342 H 1037.19 0.888497 -4.08039 0
M  V30 11343 N 1037.63 1.44308 -0.633487 0
M  V30 11344 C 1038.59 2.2912 0.060376 0
M  V30 11345 C 1039.59 1.41166 0.769992 0
M  V30 11346 O 1040.78 1.63012 0.614224 0
M  V30 11347 C 1037.91 3.22798 1.0961 0
M  V30 11348 H 1039.1 2.91958 -0.685617 0
M  V30 11349 H 1036.66 1.51259 -0.393738 0
M  V30 11350 H 1037.39 2.64815 1.87199 0
M  V30 11351 H 1037.18 3.87618 0.591161 0
M  V30 11352 H 1038.67 3.86504 1.58127 0
M  V30 11353 N 1039.1 0.374177 1.53094 0
M  V30 11354 C 1040.35 -0.213131 2.01677 0
M  V30 11355 C 1040.68 -1.47715 1.26071 0
M  V30 11356 O 1039.96 -1.91199 0.356834 0
M  V30 11357 C 1040.24 -0.496392 3.56662 0
M  V30 11358 C 1040.09 0.781859 4.42953 0
M  V30 11359 C 1041.41 -1.29339 4.20666 0
M  V30 11360 H 1038.53 -0.0759885 0.733072 0
M  V30 11361 H 1041.17 0.500765 1.83282 0
M  V30 11362 H 1039.32 -1.10455 3.72467 0
M  V30 11363 H 1041 1.41914 4.38928 0
M  V30 11364 H 1039.24 1.40041 4.10574 0
M  V30 11365 H 1039.91 0.538508 5.49367 0
M  V30 11366 H 1042.39 -0.778848 4.08746 0
M  V30 11367 H 1041.26 -1.46033 5.29118 0
M  V30 11368 H 1041.52 -2.30435 3.77296 0
M  V30 11369 N 1040.58 -1.57259 0.103575 0
M  V30 11370 C 1041.99 -1.81816 -0.424239 0
M  V30 11371 C 1042.34 -1.01976 -1.67617 0
M  V30 11372 O 1041.47 -0.251673 -2.14932 0
M  V30 11373 C 1042.06 -3.29783 -0.776453 0
M  V30 11374 C 1040.62 -3.55074 -1.24897 0
M  V30 11375 C 1039.77 -2.76172 -0.249875 0
M  V30 11376 H 1042.72 -1.55254 0.328913 0
M  V30 11377 H 1042.74 -3.43569 -1.63526 0
M  V30 11378 H 1042.25 -3.87865 0.134906 0
M  V30 11379 H 1040.36 -3.02332 -2.17775 0
M  V30 11380 H 1040.47 -4.637 -1.20495 0
M  V30 11381 H 1038.83 -2.43902 -0.733767 0
M  V30 11382 H 1039.62 -3.37007 0.65431 0
M  V30 11383 N 1042.06 0.170153 -1.56679 0
M  V30 11384 C 1043.34 0.913938 -1.72935 0
M  V30 11385 C 1043.72 2.00342 -0.665293 0
M  V30 11386 O 1043.07 2.26252 0.319715 0
M  V30 11387 C 1043.28 1.47761 -3.16177 0
M  V30 11388 C 1044.62 1.95007 -3.7717 0
M  V30 11389 O 1045.65 1.57552 -3.19462 0
M  V30 11390 O 1044.51 2.64007 -4.78501 0
M  V30 11391 H 1041.6 0.43027 -0.706256 0
M  V30 11392 H 1044.15 0.157891 -1.68964 0
M  V30 11393 H 1042.92 0.69352 -3.85105 0
M  V30 11394 H 1042.54 2.2978 -3.24479 0
M  V30 11395 N 1043.54 1.5137 0.438746 0
M  V30 11396 C 1044.45 1.75424 1.55768 0
M  V30 11397 C 1045.46 0.638409 1.61865 0
M  V30 11398 O 1046.64 0.9205 1.79133 0
M  V30 11399 C 1043.71 1.87288 2.9176 0
M  V30 11400 C 1042.77 3.11137 2.95791 0
M  V30 11401 C 1042 3.22425 4.25297 0
M  V30 11402 O 1042.22 2.39688 5.17596 0
M  V30 11403 O 1041.16 4.15393 4.35583 0
M  V30 11404 H 1044.98 2.70339 1.38386 0
M  V30 11405 H 1042.57 1.35854 0.621609 0
M  V30 11406 H 1044.45 1.97085 3.72472 0
M  V30 11407 H 1043.12 0.955599 3.09273 0
M  V30 11408 H 1042.03 3.06819 2.1404 0
M  V30 11409 H 1043.36 4.02549 2.83223 0
M  V30 11410 N 1045.02 -0.694098 1.41492 0
M  V30 11411 C 1046.27 -1.4498 1.40227 0
M  V30 11412 C 1046.58 -1.95594 0.0151253 0
M  V30 11413 O 1047.78 -2.71234 -0.120146 0
M  V30 11414 C 1046.24 -2.62171 2.46565 0
M  V30 11415 C 1045.85 -2.18337 3.91194 0
M  V30 11416 C 1047.59 -3.39796 2.54439 0
M  V30 11417 C 1045.5 -3.32495 4.89082 0
M  V30 11418 H 1044.43 -0.544584 0.521483 0
M  V30 11419 H 1047.08 -0.75337 1.67322 0
M  V30 11420 H 1045.46 -3.34089 2.12604 0
M  V30 11421 H 1046.64 -1.53698 4.34412 0
M  V30 11422 H 1044.95 -1.53702 3.86994 0
M  V30 11423 H 1047.55 -4.2478 3.24755 0
M  V30 11424 H 1047.89 -3.85082 1.5817 0
M  V30 11425 H 1048.42 -2.74935 2.87499 0
M  V30 11426 H 1045.16 -2.92219 5.86761 0
M  V30 11427 H 1044.68 -3.95978 4.50512 0
M  V30 11428 H 1046.36 -3.98251 5.09907 0
M  V30 11429 N 1046.49 -1.27344 -0.928501 0
M  V30 11430 C 1047.91 -1.12361 -1.49103 0
M  V30 11431 C 1048.26 0.291667 -1.9402 0
M  V30 11432 O 1047.38 1.18449 -1.81104 0
M  V30 11433 C 1047.98 -2.03358 -2.70981 0
M  V30 11434 C 1046.54 -1.92483 -3.23461 0
M  V30 11435 C 1045.68 -1.95961 -1.962 0
M  V30 11436 H 1048.63 -1.40249 -0.742689 0
M  V30 11437 H 1048.65 -1.58892 -3.45736 0
M  V30 11438 H 1048.17 -3.06356 -2.38259 0
M  V30 11439 H 1046.27 -0.924676 -3.60944 0
M  V30 11440 H 1046.38 -2.78682 -3.89709 0
M  V30 11441 H 1044.74 -1.40175 -2.12657 0
M  V30 11442 H 1045.53 -3.00612 -1.65793 0
M  V30 11443 N 1047.97 1.13488 -1.09353 0
M  V30 11444 C 1049.38 1.66299 -0.848609 0
M  V30 11445 C 1049.73 1.86044 0.623051 0
M  V30 11446 O 1048.86 1.57871 1.48005 0
M  V30 11447 C 1049.45 3.02087 -1.53391 0
M  V30 11448 C 1048.01 3.51893 -1.33598 0
M  V30 11449 C 1047.16 2.27154 -1.59048 0
M  V30 11450 H 1050.11 0.974208 -1.25279 0
M  V30 11451 H 1050.13 3.68018 -0.966587 0
M  V30 11452 H 1049.64 2.87684 -2.60498 0
M  V30 11453 H 1047.75 3.715 -0.286045 0
M  V30 11454 H 1047.86 4.32059 -2.0703 0
M  V30 11455 H 1046.22 2.33708 -1.01256 0
M  V30 11456 H 1047.01 2.15317 -2.67383 0
M  V30 11457 N 1049.45 0.880621 1.30701 0
M  V30 11458 C 1050.38 0.360251 2.30704 0
M  V30 11459 C 1051.36 -0.554572 1.60806 0
M  V30 11460 O 1052.55 -0.469345 1.88443 0
M  V30 11461 C 1049.68 -0.429888 3.44629 0
M  V30 11462 C 1048.63 0.392786 4.26194 0
M  V30 11463 C 1047.96 -0.52369 5.32129 0
M  V30 11464 C 1049.26 1.63258 4.96129 0
M  V30 11465 H 1050.95 1.19591 2.74478 0
M  V30 11466 H 1048.5 0.576508 1.31956 0
M  V30 11467 H 1050.45 -0.804532 4.13649 0
M  V30 11468 H 1049.17 -1.29916 2.99649 0
M  V30 11469 H 1047.83 0.749514 3.58856 0
M  V30 11470 H 1047.48 -1.39054 4.83397 0
M  V30 11471 H 1047.18 0.0229272 5.87596 0
M  V30 11472 H 1048.71 -0.894946 6.04006 0
M  V30 11473 H 1050.12 1.32877 5.57689 0
M  V30 11474 H 1048.52 2.11906 5.61441 0
M  V30 11475 H 1049.59 2.37944 4.22505 0
M  V30 11476 N 1050.93 -1.4397 0.641131 0
M  V30 11477 C 1051.84 -2.34526 -0.058742 0
M  V30 11478 C 1052.86 -1.53194 -0.825088 0
M  V30 11479 O 1054.03 -1.85888 -0.775081 0
M  V30 11480 C 1051.1 -3.31313 -1.02139 0
M  V30 11481 C 1050.16 -4.28552 -0.253319 0
M  V30 11482 C 1049.39 -5.20715 -1.17012 0
M  V30 11483 O 1049.61 -5.17028 -2.40911 0
M  V30 11484 O 1048.55 -5.9839 -0.649039 0
M  V30 11485 H 1052.37 -2.95843 0.686329 0
M  V30 11486 H 1049.96 -1.43909 0.401316 0
M  V30 11487 H 1051.84 -3.90862 -1.57496 0
M  V30 11488 H 1050.52 -2.72516 -1.7469 0
M  V30 11489 H 1049.42 -3.72519 0.343531 0
M  V30 11490 H 1050.76 -4.90297 0.432372 0
M  V30 11491 N 1052.41 -0.382291 -1.52893 0
M  V30 11492 C 1053.66 0.201734 -2.01091 0
M  V30 11493 C 1053.98 1.47905 -1.2708 0
M  V30 11494 O 1053.25 1.92002 -0.38883 0
M  V30 11495 H 1051.83 0.0775373 -0.742965 0
M  V30 11496 H 1054.49 -0.512369 -1.88045 0
M  V30 11497 H 1053.58 0.416919 -3.09303 0
M  V30 11498 N 1053.89 1.57202 -0.111913 0
M  V30 11499 C 1055.16 1.86459 0.590972 0
M  V30 11500 C 1055.54 1.01182 1.85271 0
M  V30 11501 O 1054.89 0.0887891 2.28327 0
M  V30 11502 C 1055.1 3.37455 0.890225 0
M  V30 11503 C 1056.45 4.05895 1.24638 0
M  V30 11504 O 1057.47 3.42433 0.980713 0
M  V30 11505 O 1056.33 5.17903 1.74466 0
M  V30 11506 H 1053.43 0.771652 0.297459 0
M  V30 11507 H 1055.97 1.69072 -0.145882 0
M  V30 11508 H 1054.74 3.913 -0.00419012 0
M  V30 11509 H 1054.37 3.60248 1.68248 0
M  V30 11510 N 1055.36 -0.161842 1.56767 0
M  V30 11511 C 1056.27 -1.21996 2.00385 0
M  V30 11512 C 1057.29 -1.4789 0.916768 0
M  V30 11513 O 1058.47 -1.59852 1.22513 0
M  V30 11514 C 1055.53 -2.53695 2.36305 0
M  V30 11515 C 1054.59 -2.3558 3.58888 0
M  V30 11516 C 1053.82 -3.60998 3.93085 0
M  V30 11517 O 1054.05 -4.6657 3.28129 0
M  V30 11518 O 1052.98 -3.54544 4.86397 0
M  V30 11519 H 1056.81 -0.879701 2.9068 0
M  V30 11520 H 1054.39 -0.369437 1.4476 0
M  V30 11521 H 1056.27 -3.31366 2.60335 0
M  V30 11522 H 1054.95 -2.87281 1.49169 0
M  V30 11523 H 1053.86 -1.55908 3.40064 0
M  V30 11524 H 1055.19 -2.06915 4.46595 0
M  V30 11525 N 1056.84 -1.516 -0.430713 0
M  V30 11526 C 1058.12 -1.55142 -1.19123 0
M  V30 11527 C 1058.5 -0.319596 -2.08667 0
M  V30 11528 O 1057.85 0.694927 -2.17676 0
M  V30 11529 C 1058.06 -2.86891 -1.98732 0
M  V30 11530 C 1059.4 -3.39089 -2.55546 0
M  V30 11531 O 1060.43 -2.88486 -2.08936 0
M  V30 11532 O 1059.29 -4.27401 -3.40574 0
M  V30 11533 H 1056.38 -0.624019 -0.542705 0
M  V30 11534 H 1058.93 -1.63917 -0.439244 0
M  V30 11535 H 1057.7 -3.68002 -1.33005 0
M  V30 11536 H 1057.32 -2.81309 -2.80982 0
M  V30 11537 N 1058.32 0.686584 -1.41858 0
M  V30 11538 C 1059.28 1.78214 -1.44126 0
M  V30 11539 C 1060.28 1.57366 -0.330541 0
M  V30 11540 O 1061.47 1.63874 -0.590837 0
M  V30 11541 C 1058.6 3.16704 -1.26142 0
M  V30 11542 H 1059.8 1.77594 -2.41661 0
M  V30 11543 H 1057.35 0.895085 -1.28132 0
M  V30 11544 H 1058.09 3.22957 -0.294823 0
M  V30 11545 H 1057.87 3.33238 -2.06627 0
M  V30 11546 H 1059.36 3.96658 -1.30584 0
M  V30 11547 N 1059.8 1.27835 0.921735 0
M  V30 11548 C 1061.02 1.17465 1.70929 0
M  V30 11549 C 1061.45 -0.264171 1.86236 0
M  V30 11550 O 1060.81 -1.19124 1.36671 0
M  V30 11551 C 1060.85 1.8697 3.08342 0
M  V30 11552 O 1059.96 1.17173 3.95404 0
M  V30 11553 H 1059.3 0.408206 0.523702 0
M  V30 11554 H 1061.83 1.69013 1.15307 0
M  V30 11555 H 1061.84 1.94564 3.58621 0
M  V30 11556 H 1060.51 2.91633 2.96518 0
M  V30 11557 H 1059.09 1.17688 3.53842 0
M  V30 11558 N 1061.28 -1.12907 1.09954 0
M  V30 11559 C 1062.69 -1.363 0.830326 0
M  V30 11560 C 1062.89 -1.93772 -0.552694 0
M  V30 11561 O 1061.95 -2.1607 -1.30652 0
M  V30 11562 C 1063.26 -2.30925 1.92598 0
M  V30 11563 C 1064.81 -2.44528 1.95385 0
M  V30 11564 C 1065.28 -3.42464 3.0411 0
M  V30 11565 N 1066.77 -3.50018 3.03384 0
M  V30 11566 C 1067.51 -4.25693 3.84152 0
M  V30 11567 N 1067.01 -5.04476 4.74843 0
M  V30 11568 N 1068.8 -4.21049 3.7239 0
M  V30 11569 H 1060.95 -0.739571 1.99108 0
M  V30 11570 H 1063.21 -0.387983 0.86497 0
M  V30 11571 H 1062.92 -1.95861 2.92115 0
M  V30 11572 H 1062.79 -3.30997 1.80889 0
M  V30 11573 H 1065.18 -2.78875 0.965037 0
M  V30 11574 H 1065.26 -1.44361 2.11172 0
M  V30 11575 H 1064.9 -3.08847 4.03207 0
M  V30 11576 H 1064.83 -4.42448 2.85565 0
M  V30 11577 H 1067.33 -2.93809 2.37665 0
M  V30 11578 H 1067.64 -5.59541 5.33042 0
M  V30 11579 H 1065.98 -5.0369 4.78875 0
M  V30 11580 H 1069.17 -3.5858 3.00895 0
M  V30 11581 H 1069.35 -4.79771 4.35572 0
M  V30 11582 N 1062.75 -0.88754 -1.30232 0
M  V30 11583 C 1063.69 -0.300814 -2.26209 0
M  V30 11584 C 1064.66 0.580088 -1.519 0
M  V30 11585 O 1065.85 0.529611 -1.80907 0
M  V30 11586 C 1062.98 0.572336 -3.33829 0
M  V30 11587 C 1062.02 -0.239589 -4.25827 0
M  V30 11588 S 1062.85 -1.62953 -5.10104 0
M  V30 11589 C 1064.01 -0.762979 -6.21232 0
M  V30 11590 H 1064.24 -1.11435 -2.75626 0
M  V30 11591 H 1061.78 -0.687123 -1.38268 0
M  V30 11592 H 1063.73 1.07036 -3.963 0
M  V30 11593 H 1062.4 1.35999 -2.83131 0
M  V30 11594 H 1061.59 0.426854 -5.02189 0
M  V30 11595 H 1061.19 -0.670325 -3.67944 0
M  V30 11596 H 1063.48 0.0189354 -6.77497 0
M  V30 11597 H 1064.43 -1.49829 -6.92067 0
M  V30 11598 H 1064.83 -0.322747 -5.63577 0
M  V30 11599 N 1064.23 1.43628 -0.648757 0
M  V30 11600 C 1065.14 2.34554 0.0463037 0
M  V30 11601 C 1066.16 1.53629 0.816952 0
M  V30 11602 O 1067.33 1.86297 0.765212 0
M  V30 11603 C 1064.4 3.3185 1.00381 0
M  V30 11604 C 1063.46 4.2868 0.230589 0
M  V30 11605 C 1062.69 5.21328 1.14249 0
M  V30 11606 O 1062.92 5.18298 2.38166 0
M  V30 11607 O 1061.85 5.98726 0.617296 0
M  V30 11608 H 1065.68 2.95475 -0.702008 0
M  V30 11609 H 1063.26 1.43694 -0.408942 0
M  V30 11610 H 1065.14 3.91692 1.5542 0
M  V30 11611 H 1063.82 2.73439 1.73243 0
M  V30 11612 H 1062.73 3.72332 -0.363282 0
M  V30 11613 H 1064.06 4.90061 -0.458368 0
M  V30 11614 N 1065.71 0.390394 1.52688 0
M  V30 11615 C 1066.62 -0.451543 2.30213 0
M  V30 11616 C 1067.64 -1.07051 1.37172 0
M  V30 11617 O 1068.81 -1.07609 1.70242 0
M  V30 11618 C 1065.88 -1.56299 3.0947 0
M  V30 11619 C 1064.94 -0.969017 4.18221 0
M  V30 11620 C 1064.17 -2.0275 4.93688 0
M  V30 11621 O 1064.39 -3.24273 4.69258 0
M  V30 11622 O 1063.33 -1.64418 5.79008 0
M  V30 11623 H 1067.15 0.180042 3.03166 0
M  V30 11624 H 1064.74 0.154082 1.48603 0
M  V30 11625 H 1066.62 -2.20864 3.58883 0
M  V30 11626 H 1065.3 -2.17952 2.3933 0
M  V30 11627 H 1064.2 -0.286587 3.73001 0
M  V30 11628 H 1065.54 -0.396687 4.90599 0
M  V30 11629 N 1067.19 -1.57141 0.120249 0
M  V30 11630 C 1068.43 -1.95527 -0.538245 0
M  V30 11631 C 1068.77 -1.00373 -1.6625 0
M  V30 11632 O 1068.04 -0.0411734 -1.94456 0
M  V30 11633 C 1068.33 -3.43843 -1.06976 0
M  V30 11634 C 1068.18 -4.49771 0.0511596 0
M  V30 11635 C 1069.5 -3.94035 -1.96022 0
M  V30 11636 H 1066.62 -0.710958 -0.194183 0
M  V30 11637 H 1069.26 -1.88986 0.196061 0
M  V30 11638 H 1067.41 -3.49548 -1.69553 0
M  V30 11639 H 1069.08 -4.56163 0.686503 0
M  V30 11640 H 1067.32 -4.27882 0.714127 0
M  V30 11641 H 1067.99 -5.50812 -0.361995 0
M  V30 11642 H 1070.47 -3.9064 -1.43315 0
M  V30 11643 H 1069.35 -4.98329 -2.3013 0
M  V30 11644 H 1069.61 -3.34803 -2.8872 0
M  V30 11645 N 1068.67 0.153526 -1.5685 0
M  V30 11646 C 1069.94 0.895545 -1.73895 0
M  V30 11647 C 1070.32 1.99625 -0.686504 0
M  V30 11648 O 1069.67 2.26579 0.2957 0
M  V30 11649 C 1069.88 1.44399 -3.17726 0
M  V30 11650 C 1071.23 1.90996 -3.79217 0
M  V30 11651 O 1072.25 1.54155 -3.21115 0
M  V30 11652 O 1071.11 2.58917 -4.81274 0
M  V30 11653 H 1068.21 0.422755 -0.710779 0
M  V30 11654 H 1070.75 0.139961 -1.69122 0
M  V30 11655 H 1069.52 0.652635 -3.85819 0
M  V30 11656 H 1069.15 2.26326 -3.26898 0
M  V30 11657 O 1070.18 1.58721 0.298301 0
M  V30 11658 H 1070.87 1.69072 0.945216 0
M  V30 END ATOM
M  V30 BEGIN BOND
M  V30 END BOND
M  V30 END CTAB
M  END
$$$$
