drugbank_target|P35270 Sepiapterin reductase (DB02637; DB03461; DB03886; DB04275)
 OpenBabel12092119433D

  0  0  0     0  0            999 V3000
M  V30 BEGIN CTAB
M  V30 COUNTS 4001 4028 0 0 0
M  V30 BEGIN ATOM
M  V30 1 H -0.908 1.98254 -0.117106 0
M  V30 2 N 0 1.576 0 0
M  V30 3 C 0.933 2.03868 1.02534 0
M  V30 4 C 1.911 0.928543 1.3348 0
M  V30 5 O 3.095 1.19667 1.45644 0
M  V30 6 C 0.222 2.43627 2.35294 0
M  V30 7 C -0.732 3.65373 2.2001 0
M  V30 8 S 0.101 5.13292 1.52614 0
M  V30 9 C 1.257 5.56322 2.86805 0
M  V30 10 H 1.49 2.90518 0.631377 0
M  V30 11 H -0.977 1.52953 0.210867 0
M  V30 12 H 0.981 2.67203 3.11629 0
M  V30 13 H -0.358 1.57376 2.7183 0
M  V30 14 H -1.165 3.90944 3.18086 0
M  V30 15 H -1.563 3.418 1.51819 0
M  V30 16 H 0.729 5.58782 3.83104 0
M  V30 17 H 1.672 6.56266 2.65933 0
M  V30 18 H 2.08 4.83886 2.90714 0
M  V30 19 N 1.4781 -0.272755 1.55222 0
M  V30 20 C 2.3881 -1.35918 1.91216 0
M  V30 21 C 3.4041 -1.54026 0.809436 0
M  V30 22 O 4.5801 -1.68148 1.10852 0
M  V30 23 C 1.6451 -2.69834 2.17693 0
M  V30 24 C 0.7061 -2.6047 3.41253 0
M  V30 25 C -0.0609 -3.88 3.66458 0
M  V30 26 O 0.1621 -4.88693 2.94169 0
M  V30 27 O -0.9039 -3.88189 4.59992 0
M  V30 28 H 2.9221 -1.0839 2.83699 0
M  V30 29 H 0.5071 -0.471301 1.41771 0
M  V30 30 H 2.3891 -3.49017 2.36147 0
M  V30 31 H 1.0641 -2.97148 1.28392 0
M  V30 32 H -0.0289 -1.79663 3.28134 0
M  V30 33 H 1.3041 -2.38106 4.30774 0
M  V30 34 N 2.9562 -1.48159 -0.537278 0
M  V30 35 C 4.2042 -1.55497 -1.29094 0
M  V30 36 C 4.5252 -0.227454 -1.93669 0
M  V30 37 O 3.7952 0.750386 -1.80959 0
M  V30 38 H 2.3752 -0.572832 -0.47945 0
M  V30 39 H 5.0372 -1.84579 -0.625818 0
M  V30 40 H 4.1332 -2.33216 -2.07405 0
M  V30 41 N 4.4343 0.785586 -1.36625 0
M  V30 42 C 5.6823 1.54057 -1.30808 0
M  V30 43 C 6.0033 1.94683 0.111157 0
M  V30 44 O 5.2733 1.65241 1.05224 0
M  V30 45 H 3.8533 0.571354 -0.481211 0
M  V30 46 H 6.5153 0.935821 -1.70963 0
M  V30 47 H 5.6113 2.44637 -1.93801 0
M  V30 48 N 5.9124 1.20967 1.01018 0
M  V30 49 C 6.8424 0.988272 2.11555 0
M  V30 50 C 7.8234 -0.0849778 1.69888 0
M  V30 51 O 9.0084 0.0738202 1.9406 0
M  V30 52 C 6.1384 0.546528 3.42973 0
M  V30 53 C 5.0924 1.56375 3.9841 0
M  V30 54 C 4.4184 0.97842 5.25672 0
M  V30 55 C 5.7184 2.94922 4.31066 0
M  V30 56 H 7.4124 1.91276 2.30334 0
M  V30 57 H 4.9584 0.921073 1.1069 0
M  V30 58 H 6.9114 0.378839 4.19694 0
M  V30 59 H 5.6354 -0.413598 3.23971 0
M  V30 60 H 4.2944 1.71891 3.23804 0
M  V30 61 H 3.9424 0.0101688 5.02999 0
M  V30 62 H 3.6424 1.65784 5.63728 0
M  V30 63 H 5.1664 0.821939 6.05043 0
M  V30 64 H 6.5804 2.8288 4.9865 0
M  V30 65 H 4.9774 3.5983 4.80253 0
M  V30 66 H 6.0474 3.4616 3.39561 0
M  V30 67 N 7.3905 -1.2043 1.01659 0
M  V30 68 C 8.6385 -1.89423 0.704522 0
M  V30 69 C 8.9595 -1.79231 -0.768197 0
M  V30 70 O 8.2295 -1.1947 -1.55254 0
M  V30 71 H 6.8095 -0.701178 0.257602 0
M  V30 72 H 9.4715 -1.4626 1.28818 0
M  V30 73 H 8.5675 -2.96052 0.987916 0
M  V30 74 N 8.8686 -0.792821 -1.36206 0
M  V30 75 C 10.2846 -0.474903 -1.52371 0
M  V30 76 C 10.4846 1.00622 -1.74578 0
M  V30 77 O 9.5406 1.79162 -1.77924 0
M  V30 78 C 10.8536 -1.3083 -2.70747 0
M  V30 79 C 12.4016 -1.30234 -2.84619 0
M  V30 80 C 12.8766 -2.11956 -4.06004 0
M  V30 81 N 14.3676 -2.09419 -4.13156 0
M  V30 82 C 15.1026 -2.69419 -5.06163 0
M  V30 83 N 14.5986 -3.3829 -6.04592 0
M  V30 84 N 16.3916 -2.59134 -4.98804 0
M  V30 85 H 8.5426 -1.75222 -1.20046 0
M  V30 86 H 10.8056 -0.745024 -0.586211 0
M  V30 87 H 10.5116 -2.35881 -2.6087 0
M  V30 88 H 10.3856 -0.95196 -3.6499 0
M  V30 89 H 12.7726 -0.259748 -2.93955 0
M  V30 90 H 12.8536 -1.69847 -1.91274 0
M  V30 91 H 12.4976 -3.16248 -3.97429 0
M  V30 92 H 12.4276 -1.69711 -4.98503 0
M  V30 93 H 14.9186 -1.59297 -3.42685 0
M  V30 94 H 15.2316 -3.81394 -6.7213 0
M  V30 95 H 13.5766 -3.42393 -6.04807 0
M  V30 96 H 16.7676 -2.04927 -4.20859 0
M  V30 97 H 16.9406 -3.06185 -5.711 0
M  V30 98 N 10.3467 1.47872 -0.545128 0
M  V30 99 C 11.3097 2.28337 0.198717 0
M  V30 100 C 12.3097 1.36255 0.853888 0
M  V30 101 O 13.4997 1.59003 0.711606 0
M  V30 102 C 10.6317 3.15585 1.28915 0
M  V30 103 H 11.8247 2.95567 -0.507941 0
M  V30 104 H 9.3777 1.53362 -0.301616 0
M  V30 105 H 10.1127 2.53019 2.02859 0
M  V30 106 H 9.8977 3.83337 0.824309 0
M  V30 107 H 11.3877 3.76243 1.81194 0
M  V30 108 N 11.8248 0.280983 1.55075 0
M  V30 109 C 13.0708 -0.33461 2.00021 0
M  V30 110 C 13.4038 -1.55063 1.16915 0
M  V30 111 O 12.6788 -1.93006 0.240646 0
M  V30 112 C 12.9618 -0.711007 3.53011 0
M  V30 113 C 12.8148 0.512766 4.46868 0
M  V30 114 C 14.1338 -1.54522 4.12081 0
M  V30 115 H 11.2528 -0.120147 0.727141 0
M  V30 116 H 13.8948 0.389097 1.85973 0
M  V30 117 H 12.0448 -1.32761 3.65112 0
M  V30 118 H 13.7168 1.15131 4.46702 0
M  V30 119 H 11.9598 1.14975 4.18286 0
M  V30 120 H 12.6308 0.205556 5.51617 0
M  V30 121 H 15.1068 -1.02442 4.03293 0
M  V30 122 H 13.9828 -1.77739 5.19327 0
M  V30 123 H 14.2438 -2.52813 3.62682 0
M  V30 124 N 13.3029 -1.57598 0.00835791 0
M  V30 125 C 14.5429 -1.92788 -0.679136 0
M  V30 126 C 14.9069 -0.883378 -1.70471 0
M  V30 127 O 16.1079 -1.12079 -2.44319 0
M  V30 128 C 14.3789 -3.32994 -1.29807 0
M  V30 129 S 15.9379 -3.90082 -2.00952 0
M  V30 130 H 12.7559 -0.67475 -0.224127 0
M  V30 131 H 15.3579 -1.95385 0.0670497 0
M  V30 132 H 14.0619 -4.06846 -0.538922 0
M  V30 133 H 13.5929 -3.33791 -2.082 0
M  V30 134 H 15.6079 -3.71834 -3.28563 0
M  V30 135 N 14.781 0.264519 -1.55364 0
M  V30 136 C 15.711 1.33121 -1.91836 0
M  V30 137 C 16.692 1.51101 -0.781192 0
M  V30 138 O 17.877 1.64003 -1.04003 0
M  V30 139 C 15.007 2.68921 -2.19769 0
M  V30 140 C 13.961 2.65661 -3.35571 0
M  V30 141 C 13.287 4.05093 -3.49004 0
M  V30 142 C 14.587 2.24187 -4.71739 0
M  V30 143 H 16.281 1.02844 -2.81182 0
M  V30 144 H 13.827 0.493286 -1.35287 0
M  V30 145 H 15.78 3.43663 -2.43872 0
M  V30 146 H 14.504 3.00799 -1.27231 0
M  V30 147 H 13.163 1.93377 -3.1145 0
M  V30 148 H 12.811 4.34206 -2.53917 0
M  V30 149 H 12.511 4.03804 -4.26868 0
M  V30 150 H 14.035 4.81561 -3.75408 0
M  V30 151 H 15.449 2.88654 -4.9533 0
M  V30 152 H 13.846 2.34044 -5.52579 0
M  V30 153 H 14.916 1.19327 -4.69988 0
M  V30 154 N 16.2591 1.48442 0.529413 0
M  V30 155 C 17.1891 1.65902 1.64313 0
M  V30 156 C 18.1701 0.507897 1.6234 0
M  V30 157 O 19.3551 0.740503 1.79528 0
M  V30 158 C 16.4851 1.69911 3.02898 0
M  V30 159 C 15.4391 2.8453 3.19729 0
M  V30 160 C 14.7651 2.73629 4.59381 0
M  V30 161 C 16.0651 4.25821 3.02447 0
M  V30 162 H 17.7591 2.5914 1.49955 0
M  V30 163 H 15.3051 1.24709 0.719982 0
M  V30 164 H 17.2581 1.80715 3.80684 0
M  V30 165 H 15.9821 0.732524 3.18279 0
M  V30 166 H 14.6411 2.73283 2.44361 0
M  V30 167 H 14.2891 1.74938 4.71599 0
M  V30 168 H 13.9891 3.50541 4.71588 0
M  V30 169 H 15.5131 2.86401 5.39265 0
M  V30 170 H 16.9271 4.37898 3.70024 0
M  V30 171 H 15.3241 5.03735 3.26146 0
M  V30 172 H 16.3941 4.42244 1.98867 0
M  V30 173 N 17.7372 -0.778329 1.37039 0
M  V30 174 C 18.9652 -1.56734 1.35063 0
M  V30 175 C 19.3802 -1.88686 -0.0655597 0
M  V30 176 O 18.7372 -1.5096 -1.02554 0
M  V30 177 C 18.7882 -2.88163 2.18276 0
M  V30 178 O 18.5092 -2.57583 3.54376 0
M  V30 179 C 20.0102 -3.82422 2.24206 0
M  V30 180 H 17.2302 -0.485778 0.462883 0
M  V30 181 H 19.7742 -0.965185 1.8029 0
M  V30 182 H 17.9292 -3.44818 1.76576 0
M  V30 183 H 18.3432 -3.41699 3.97922 0
M  V30 184 H 19.8172 -4.71667 2.86765 0
M  V30 185 H 20.2942 -4.21078 1.24861 0
M  V30 186 H 20.9002 -3.31697 2.6619 0
M  V30 187 N 19.2153 -1.21501 -1.00376 0
M  V30 188 C 20.4633 -1.03095 -1.73827 0
M  V30 189 C 20.7843 0.436341 -1.90055 0
M  V30 190 O 20.0543 1.31466 -1.45236 0
M  V30 191 H 18.6343 -0.378487 -0.644016 0
M  V30 192 H 21.2963 -1.52831 -1.20949 0
M  V30 193 H 20.3923 -1.49991 -2.73695 0
M  V30 194 N 20.6934 1.19889 -1.02296 0
M  V30 195 C 21.6564 2.21116 -0.603351 0
M  V30 196 C 22.6564 1.5738 0.329884 0
M  V30 197 O 23.8464 1.73802 0.117702 0
M  V30 198 C 20.9784 3.40696 0.117992 0
M  V30 199 H 22.1714 2.59754 -1.49893 0
M  V30 200 H 19.7244 1.33463 -0.813468 0
M  V30 201 H 20.4594 3.07569 1.0282 0
M  V30 202 H 20.2444 3.88188 -0.552511 0
M  V30 203 H 21.7344 4.15692 0.398696 0
M  V30 204 N 22.1715 0.800033 1.35784 0
M  V30 205 C 23.3965 0.388511 2.03729 0
M  V30 206 C 23.8215 -0.990481 1.5991 0
M  V30 207 O 23.1795 -1.64013 0.772612 0
M  V30 208 C 23.2275 0.4726 3.5749 0
M  V30 209 O 22.3315 -0.51646 4.09153 0
M  V30 210 H 21.6725 0.163271 0.643614 0
M  V30 211 H 24.2025 1.0841 1.73518 0
M  V30 212 H 24.2125 0.34003 4.06581 0
M  V30 213 H 22.8875 1.47848 3.88734 0
M  V30 214 H 21.4645 -0.344673 3.71304 0
M  V30 215 N 23.6496 -1.47581 0.552962 0
M  V30 216 C 25.0656 -1.5818 0.212424 0
M  V30 217 C 25.2656 -1.55213 -1.28496 0
M  V30 218 O 24.3216 -1.45329 -2.06484 0
M  V30 219 C 25.6346 -2.88865 0.835318 0
M  V30 220 C 27.1826 -3.0244 0.806156 0
M  V30 221 C 27.6576 -4.35819 1.40804 0
M  V30 222 N 29.1486 -4.42444 1.37103 0
M  V30 223 C 29.8836 -5.44202 1.80641 0
M  V30 224 N 29.3796 -6.52795 2.32015 0
M  V30 225 N 31.1726 -5.35222 1.71738 0
M  V30 226 H 23.3236 -1.47753 1.52587 0
M  V30 227 H 25.5866 -0.702941 0.636064 0
M  V30 228 H 25.2926 -2.9676 1.88749 0
M  V30 229 H 25.1666 -3.7579 0.325848 0
M  V30 230 H 27.5536 -2.94144 -0.237317 0
M  V30 231 H 27.6346 -2.17068 1.35334 0
M  V30 232 H 27.2786 -4.44871 2.45056 0
M  V30 233 H 27.2086 -5.19916 0.836338 0
M  V30 234 H 29.6996 -3.6456 0.995202 0
M  V30 235 H 30.0126 -7.26609 2.63171 0
M  V30 236 H 28.3576 -6.53696 2.36023 0
M  V30 237 H 31.5486 -4.49284 1.31382 0
M  V30 238 H 31.7216 -6.14389 2.05987 0
M  V30 239 N 25.1277 -0.289203 -1.54924 0
M  V30 240 C 26.3757 0.322879 -1.99504 0
M  V30 241 C 26.6967 1.55313 -1.1791 0
M  V30 242 O 25.9667 1.94001 -0.272097 0
M  V30 243 H 24.5467 0.122291 -0.736922 0
M  V30 244 H 27.2087 -0.397802 -1.90797 0
M  V30 245 H 26.3047 0.603061 -3.06218 0
M  V30 246 N 26.6058 1.57591 -0.0167156 0
M  V30 247 C 27.8528 1.91283 0.664597 0
M  V30 248 C 28.1808 0.891949 1.72842 0
M  V30 249 O 27.4358 -0.100931 1.9544 0
M  V30 250 C 27.7348 3.3172 1.33029 0
M  V30 251 C 27.4008 4.4914 0.398047 0
M  V30 252 C 26.0628 4.80992 0.141421 0
M  V30 253 C 28.4148 5.20634 -0.242825 0
M  V30 254 C 25.7428 5.81703 -0.764092 0
M  V30 255 C 28.0948 6.22311 -1.13632 0
M  V30 256 C 26.7588 6.52611 -1.40196 0
M  V30 257 H 26.0288 0.699956 0.243193 0
M  V30 258 H 28.6758 1.9135 -0.0758267 0
M  V30 259 H 26.9808 3.27856 2.14517 0
M  V30 260 H 28.6778 3.55055 1.86379 0
M  V30 261 H 25.2678 4.24262 0.608238 0
M  V30 262 H 29.4518 4.96267 -0.0576019 0
M  V30 263 H 24.7078 6.03532 -0.977732 0
M  V30 264 H 28.8818 6.76834 -1.63917 0
M  V30 265 H 26.5088 7.30467 -2.10529 0
M  V30 266 N 28.0839 -0.256276 1.55502 0
M  V30 267 C 29.3319 -0.983672 1.76545 0
M  V30 268 C 29.6529 -1.86206 0.578982 0
M  V30 269 O 28.9229 -1.91656 -0.405577 0
M  V30 270 H 27.5029 -0.366191 0.651086 0
M  V30 271 H 30.1649 -0.276479 1.92929 0
M  V30 272 H 29.2609 -1.61087 2.67315 0
M  V30 273 N 29.562 -1.4872 -0.521534 0
M  V30 274 C 30.978 -1.35028 -0.850855 0
M  V30 275 C 31.178 -0.367712 -1.98116 0
M  V30 276 O 30.234 0.208037 -2.51642 0
M  V30 277 C 31.547 -2.75263 -1.21041 0
M  V30 278 C 33.095 -2.83813 -1.31981 0
M  V30 279 C 33.57 -4.24769 -1.71276 0
M  V30 280 N 35.061 -4.27482 -1.78363 0
M  V30 281 C 35.796 -5.33494 -2.1017 0
M  V30 282 N 35.292 -6.49775 -2.40343 0
M  V30 283 N 37.085 -5.20894 -2.11248 0
M  V30 284 H 29.236 -2.11214 0.22413 0
M  V30 285 H 31.499 -0.947252 0.0376439 0
M  V30 286 H 31.205 -3.48765 -0.453415 0
M  V30 287 H 31.079 -3.09327 -2.15863 0
M  V30 288 H 33.466 -2.10561 -2.06756 0
M  V30 289 H 33.547 -2.53358 -0.352596 0
M  V30 290 H 33.191 -4.9854 -0.970588 0
M  V30 291 H 33.121 -4.52673 -2.69062 0
M  V30 292 H 35.612 -3.43611 -1.57288 0
M  V30 293 H 35.925 -7.26402 -2.63743 0
M  V30 294 H 34.27 -6.53035 -2.37844 0
M  V30 295 H 37.461 -4.29065 -1.87139 0
M  V30 296 H 37.634 -6.03612 -2.35704 0
M  V30 297 N 31.0401 0.771051 -1.3745 0
M  V30 298 C 32.2681 1.56015 -1.35893 0
M  V30 299 C 32.6831 1.88718 0.0555523 0
M  V30 300 O 32.0401 1.51502 1.01752 0
M  V30 301 C 32.0911 2.87001 -2.19801 0
M  V30 302 O 31.8121 2.557 -3.55738 0
M  V30 303 C 33.3131 3.81228 -2.26231 0
M  V30 304 H 30.5331 0.483317 -0.465453 0
M  V30 305 H 33.0771 0.955611 -1.80799 0
M  V30 306 H 31.2321 3.43877 -1.78402 0
M  V30 307 H 31.6461 3.39584 -3.99729 0
M  V30 308 H 33.1201 4.70139 -2.89263 0
M  V30 309 H 33.5971 4.20409 -1.27093 0
M  V30 310 H 34.2031 3.30281 -2.67945 0
M  V30 311 N 32.5182 1.22032 0.997298 0
M  V30 312 C 33.4482 1.01065 2.10495 0
M  V30 313 C 34.4292 -0.0669542 1.69968 0
M  V30 314 O 35.6142 0.0943987 1.9397 0
M  V30 315 C 32.7442 0.582874 3.42374 0
M  V30 316 C 31.6982 1.60592 3.96729 0
M  V30 317 C 31.0242 1.03412 5.24605 0
M  V30 318 C 32.3242 2.99478 4.27914 0
M  V30 319 H 34.0182 1.93708 2.28292 0
M  V30 320 H 31.5642 0.932761 1.09707 0
M  V30 321 H 33.5172 0.423332 4.19268 0
M  V30 322 H 32.2412 -0.379213 3.24391 0
M  V30 323 H 30.9002 1.75316 3.21963 0
M  V30 324 H 30.5482 0.063518 5.0296 0
M  V30 325 H 30.2482 1.71754 5.61938 0
M  V30 326 H 31.7722 0.886066 6.04137 0
M  V30 327 H 33.1862 2.88153 4.95622 0
M  V30 328 H 31.5832 3.64903 4.76409 0
M  V30 329 H 32.6532 3.49742 3.3587 0
M  V30 330 N 33.9963 -1.19345 1.0293 0
M  V30 331 C 34.9593 -2.20793 0.615069 0
M  V30 332 C 35.9593 -1.57553 -0.321533 0
M  V30 333 O 37.1493 -1.73862 -0.108483 0
M  V30 334 C 34.2813 -3.40754 -0.0999222 0
M  V30 335 H 35.4743 -2.58955 1.51269 0
M  V30 336 H 33.0273 -1.3303 0.820534 0
M  V30 337 H 33.7623 -3.0811 -1.01187 0
M  V30 338 H 33.5473 -3.87889 0.57309 0
M  V30 339 H 35.0373 -4.15898 -0.376645 0
M  V30 340 N 35.4744 -0.807222 -1.35358 0
M  V30 341 C 36.8854 -0.44876 -1.81226 0
M  V30 342 C 37.2364 1.02929 -1.67033 0
M  V30 343 O 36.3614 1.79991 -1.20133 0
M  V30 344 C 36.9564 -0.807774 -3.2903 0
M  V30 345 C 35.5154 -0.501901 -3.73039 0
M  V30 346 C 34.6624 -1.03304 -2.57339 0
M  V30 347 H 37.6134 -0.998808 -1.23327 0
M  V30 348 H 37.6344 -0.10554 -3.80354 0
M  V30 349 H 37.1464 -1.88357 -3.39328 0
M  V30 350 H 35.2474 0.565128 -3.68289 0
M  V30 351 H 35.3604 -1.03497 -4.67787 0
M  V30 352 H 33.7244 -0.455339 -2.50597 0
M  V30 353 H 34.5074 -2.11496 -2.70415 0
M  V30 354 N 36.9525 1.47285 -0.560781 0
M  V30 355 C 37.8825 2.32857 0.173105 0
M  V30 356 C 38.8635 1.44009 0.905281 0
M  V30 357 O 40.0485 1.7286 0.885046 0
M  V30 358 C 37.1785 3.25861 1.20133 0
M  V30 359 C 36.1325 4.23978 0.585388 0
M  V30 360 C 35.4585 5.06332 1.7185 0
M  V30 361 C 36.7585 5.20242 -0.463178 0
M  V30 362 H 38.4525 2.94466 -0.541307 0
M  V30 363 H 35.9985 1.41601 -0.261764 0
M  V30 364 H 37.9515 3.84569 1.72293 0
M  V30 365 H 36.6755 2.62315 1.94573 0
M  V30 366 H 35.3345 3.66501 0.085054 0
M  V30 367 H 34.9825 4.39186 2.45203 0
M  V30 368 H 34.6825 5.72762 1.31213 0
M  V30 369 H 36.2065 5.67899 2.24329 0
M  V30 370 H 37.6205 5.73293 -0.027502 0
M  V30 371 H 36.0175 5.94896 -0.788627 0
M  V30 372 H 37.0875 4.65504 -1.35773 0
M  V30 373 N 38.4306 0.297415 1.54768 0
M  V30 374 C 39.3606 -0.573494 2.26348 0
M  V30 375 C 40.3416 -1.14085 1.26169 0
M  V30 376 O 41.5266 -1.17086 1.54934 0
M  V30 377 C 38.6566 -1.74716 3.00153 0
M  V30 378 C 37.6106 -1.31032 4.07449 0
M  V30 379 C 36.9366 -2.56887 4.68949 0
M  V30 380 C 38.2366 -0.444183 5.20408 0
M  V30 381 H 39.9306 0.0235131 2.99391 0
M  V30 382 H 37.4766 0.0127488 1.43994 0
M  V30 383 H 39.4296 -2.3625 3.48947 0
M  V30 384 H 38.1536 -2.37035 2.24682 0
M  V30 385 H 36.8126 -0.718066 3.59499 0
M  V30 386 H 36.4606 -3.17512 3.90122 0
M  V30 387 H 36.1606 -2.2836 5.41411 0
M  V30 388 H 37.6846 -3.19229 5.20505 0
M  V30 389 H 39.0986 -0.9651 5.65118 0
M  V30 390 H 37.4956 -0.252846 5.99567 0
M  V30 391 H 38.5656 0.531609 4.81977 0
M  V30 392 N 39.9087 -1.5758 0.0250728 0
M  V30 393 C 40.8717 -2.08896 -0.943139 0
M  V30 394 C 41.8717 -1.00321 -1.25668 0
M  V30 395 O 43.0617 -1.26495 -1.19769 0
M  V30 396 C 40.1937 -2.55143 -2.26086 0
M  V30 397 H 41.3867 -2.95723 -0.498775 0
M  V30 398 H 38.9397 -1.54703 -0.222888 0
M  V30 399 H 39.6747 -1.71633 -2.75159 0
M  V30 400 H 39.4597 -3.34461 -2.04641 0
M  V30 401 H 40.9497 -2.95083 -2.95492 0
M  V30 402 N 41.3868 0.248026 -1.55636 0
M  V30 403 C 42.6118 0.998028 -1.81808 0
M  V30 404 C 43.0368 1.78207 -0.601979 0
M  V30 405 O 42.3948 1.75653 0.448961 0
M  V30 406 C 42.4428 1.9125 -3.05705 0
M  V30 407 O 41.5468 3.00406 -2.82542 0
M  V30 408 H 40.8878 0.284045 -0.600179 0
M  V30 409 H 43.4178 0.269357 -2.02819 0
M  V30 410 H 43.4278 2.32737 -3.35108 0
M  V30 411 H 42.1028 1.33602 -3.93857 0
M  V30 412 H 40.6798 2.63056 -2.64303 0
M  V30 413 N 42.8649 1.48995 0.513639 0
M  V30 414 C 43.7949 1.67636 1.62544 0
M  V30 415 C 44.7759 0.525087 1.61793 0
M  V30 416 O 45.9609 0.759502 1.78732 0
M  V30 417 C 43.0909 1.73114 3.01079 0
M  V30 418 C 42.0449 2.87905 3.16693 0
M  V30 419 C 41.3709 2.78486 4.56453 0
M  V30 420 C 42.6709 4.29005 2.97913 0
M  V30 421 H 44.3649 2.60716 1.47198 0
M  V30 422 H 41.9109 1.25465 0.706714 0
M  V30 423 H 43.8639 1.84742 3.78746 0
M  V30 424 H 42.5879 0.766241 3.17484 0
M  V30 425 H 41.2469 2.75859 2.41448 0
M  V30 426 H 40.8949 1.7993 4.69717 0
M  V30 427 H 40.5949 3.55523 4.67843 0
M  V30 428 H 42.1189 2.92104 5.36197 0
M  V30 429 H 43.5329 4.41798 3.65359 0
M  V30 430 H 41.9299 5.07166 3.20785 0
M  V30 431 H 42.9999 4.44329 1.94165 0
M  V30 432 N 44.343 -0.763751 1.37857 0
M  V30 433 C 45.273 -1.89103 1.36975 0
M  V30 434 C 46.254 -1.68439 0.237152 0
M  V30 435 O 47.439 -1.8918 0.438713 0
M  V30 436 C 44.569 -3.26496 1.18395 0
M  V30 437 C 43.523 -3.61741 2.28751 0
M  V30 438 C 42.849 -4.97762 1.95286 0
M  V30 439 C 44.149 -3.67665 3.70972 0
M  V30 440 H 45.843 -1.90099 2.31307 0
M  V30 441 H 43.389 -0.91319 1.11341 0
M  V30 442 H 45.342 -4.05003 1.16406 0
M  V30 443 H 44.066 -3.25955 0.205215 0
M  V30 444 H 42.725 -2.85547 2.29909 0
M  V30 445 H 42.373 -4.93769 0.959221 0
M  V30 446 H 42.073 -5.22313 2.69189 0
M  V30 447 H 43.597 -5.7866 1.94898 0
M  V30 448 H 45.011 -4.36307 3.719 0
M  V30 449 H 43.408 -4.03718 4.43995 0
M  V30 450 H 44.478 -2.68134 4.0402 0
M  V30 451 N 45.8211 -1.22559 -0.990812 0
M  V30 452 C 47.0461 -1.07862 -1.77145 0
M  V30 453 C 47.4711 0.366447 -1.84496 0
M  V30 454 O 46.8291 1.26478 -1.29896 0
M  V30 455 C 46.8771 -1.69686 -3.18181 0
M  V30 456 O 45.9811 -0.951946 -4.01263 0
M  V30 457 H 45.3221 -0.378712 -0.545411 0
M  V30 458 H 47.8521 -1.62399 -1.2445 0
M  V30 459 H 47.8621 -1.74496 -3.68802 0
M  V30 460 H 46.5371 -2.74841 -3.12146 0
M  V30 461 H 45.1141 -0.980011 -3.59792 0
M  V30 462 N 47.2992 1.18797 -1.03562 0
M  V30 463 C 48.7102 1.70322 -0.764676 0
M  V30 464 C 49.0612 1.82708 0.714996 0
M  V30 465 O 48.1862 1.50299 1.55689 0
M  V30 466 C 48.7812 3.09356 -1.38145 0
M  V30 467 C 47.3402 3.58114 -1.15895 0
M  V30 468 C 46.4872 2.34798 -1.4753 0
M  V30 469 H 49.4382 1.03543 -1.20268 0
M  V30 470 H 49.4592 3.72378 -0.781977 0
M  V30 471 H 48.9712 3.00309 -2.45837 0
M  V30 472 H 47.0722 3.72464 -0.100544 0
M  V30 473 H 47.1852 4.4184 -1.8524 0
M  V30 474 H 45.5492 2.38464 -0.894829 0
M  V30 475 H 46.3322 2.28375 -2.56319 0
M  V30 476 N 48.7773 0.814389 1.34928 0
M  V30 477 C 50.0253 0.397636 1.9815 0
M  V30 478 C 50.3463 -1.04069 1.64908 0
M  V30 479 O 49.6163 -1.72121 0.93548 0
M  V30 480 H 48.1963 0.144043 0.732981 0
M  V30 481 H 50.8583 1.04195 1.6471 0
M  V30 482 H 49.9543 0.509688 3.0791 0
M  V30 483 N 50.2554 -1.46986 0.568584 0
M  V30 484 C 51.4804 -2.07335 0.0520528 0
M  V30 485 C 51.9054 -1.41675 -1.23733 0
M  V30 486 O 51.2634 -0.495623 -1.74394 0
M  V30 487 C 51.3114 -3.60417 -0.11501 0
M  V30 488 O 50.4154 -3.95309 -1.17492 0
M  V30 489 H 49.7564 -0.661597 0.0564385 0
M  V30 490 H 52.2864 -1.88837 0.787507 0
M  V30 491 H 52.2964 -4.06698 -0.325644 0
M  V30 492 H 50.9714 -4.07601 0.826675 0
M  V30 493 H 49.5484 -3.60757 -0.943869 0
M  V30 494 N 51.7335 -0.305618 -1.54608 0
M  V30 495 C 52.9795 0.302746 -2.00528 0
M  V30 496 C 53.3125 1.53184 -1.19367 0
M  V30 497 O 52.5875 1.92598 -0.271321 0
M  V30 498 C 52.8705 0.654756 -3.54097 0
M  V30 499 C 52.7235 -0.583793 -4.45995 0
M  V30 500 C 54.0425 1.47947 -4.14487 0
M  V30 501 H 51.1615 0.108564 -0.72896 0
M  V30 502 H 53.8035 -0.418634 -1.85331 0
M  V30 503 H 51.9535 1.26935 -3.67178 0
M  V30 504 H 53.6255 -1.22224 -4.44814 0
M  V30 505 H 51.8685 -1.21615 -4.16404 0
M  V30 506 H 52.5395 -0.293287 -5.5122 0
M  V30 507 H 55.0155 0.96013 -4.04871 0
M  V30 508 H 53.8915 1.69454 -5.22088 0
M  V30 509 H 54.1525 2.47011 -3.66658 0
M  V30 510 N 53.2116 1.57565 -0.0334293 0
M  V30 511 C 54.1416 2.13511 0.945265 0
M  V30 512 C 55.1226 1.05231 1.33643 0
M  V30 513 O 56.3076 1.33084 1.41429 0
M  V30 514 C 53.4376 2.6657 2.22616 0
M  V30 515 C 52.3916 3.79676 1.97561 0
M  V30 516 C 51.7176 4.1918 3.31952 0
M  V30 517 C 53.0176 5.0557 1.31135 0
M  V30 518 H 54.7116 2.95538 0.479325 0
M  V30 519 H 52.2576 1.42166 0.229115 0
M  V30 520 H 54.2106 3.04344 2.91466 0
M  V30 521 H 52.9346 1.8171 2.71384 0
M  V30 522 H 51.5936 3.42347 1.31127 0
M  V30 523 H 51.2416 3.31296 3.78487 0
M  V30 524 H 50.9416 4.95402 3.15992 0
M  V30 525 H 52.4656 4.59541 4.02063 0
M  V30 526 H 53.8796 5.40903 1.89992 0
M  V30 527 H 52.2766 5.86818 1.25559 0
M  V30 528 H 53.3466 4.84062 0.284894 0
M  V30 529 N 54.6897 -0.239769 1.55765 0
M  V30 530 C 55.9357 -0.968234 1.78194 0
M  V30 531 C 56.2687 -1.84701 0.599938 0
M  V30 532 O 55.5437 -1.9031 -0.401524 0
M  V30 533 C 55.8267 -1.8227 3.10564 0
M  V30 534 C 55.6797 -0.971633 4.3918 0
M  V30 535 C 56.9987 -2.80388 3.39221 0
M  V30 536 H 54.1177 -0.350572 0.648281 0
M  V30 537 H 56.7597 -0.238259 1.885 0
M  V30 538 H 54.9097 -2.44507 3.01908 0
M  V30 539 H 56.5817 -0.367408 4.59835 0
M  V30 540 H 54.8247 -0.276276 4.32919 0
M  V30 541 H 55.4957 -1.60346 5.28198 0
M  V30 542 H 57.9717 -2.28287 3.47885 0
M  V30 543 H 56.8477 -3.3729 4.33044 0
M  V30 544 H 57.1087 -3.57212 2.60484 0
M  V30 545 N 56.1678 -1.49265 -0.50573 0
M  V30 546 C 57.0978 -1.68495 -1.61653 0
M  V30 547 C 58.0788 -0.53366 -1.61512 0
M  V30 548 O 59.2638 -0.76897 -1.78327 0
M  V30 549 C 56.3938 -1.74709 -3.00157 0
M  V30 550 C 55.3478 -2.89581 -3.15162 0
M  V30 551 C 54.6738 -2.80903 -4.5497 0
M  V30 552 C 55.9738 -4.30578 -2.95634 0
M  V30 553 H 57.6678 -2.61493 -1.45814 0
M  V30 554 H 55.2138 -1.25838 -0.70005 0
M  V30 555 H 57.1668 -1.86748 -3.77761 0
M  V30 556 H 55.8908 -0.783067 -3.17074 0
M  V30 557 H 54.5498 -2.77136 -2.39982 0
M  V30 558 H 54.1978 -1.82419 -4.68756 0
M  V30 559 H 53.8978 -3.57999 -4.65951 0
M  V30 560 H 55.4218 -2.94944 -5.34641 0
M  V30 561 H 56.8358 -4.4373 -3.63011 0
M  V30 562 H 55.2328 -5.0886 -3.18091 0
M  V30 563 H 56.3028 -4.45352 -1.91806 0
M  V30 564 N 57.6459 0.756429 -1.3826 0
M  V30 565 C 58.8709 1.55077 -1.37717 0
M  V30 566 C 59.2959 1.88073 0.03164 0
M  V30 567 O 58.6539 1.50364 1.01293 0
M  V30 568 C 58.7019 2.8283 -2.23695 0
M  V30 569 O 57.8059 3.77862 -1.6521 0
M  V30 570 H 57.1469 0.469152 -0.469885 0
M  V30 571 H 59.6769 0.935019 -1.81985 0
M  V30 572 H 59.6869 3.31783 -2.37453 0
M  V30 573 H 58.3619 2.58144 -3.2609 0
M  V30 574 H 56.9389 3.36555 -1.60578 0
M  V30 575 N 59.124 1.23083 0.984299 0
M  V30 576 C 60.087 1.00979 2.05757 0
M  V30 577 C 61.087 -0.0269573 1.60777 0
M  V30 578 O 62.277 0.212403 1.729 0
M  V30 579 C 59.409 0.527072 3.36801 0
M  V30 580 H 60.602 1.9622 2.26799 0
M  V30 581 H 58.155 1.05072 1.15714 0
M  V30 582 H 58.89 -0.429294 3.21446 0
M  V30 583 H 58.675 1.27515 3.70786 0
M  V30 584 H 60.165 0.392942 4.15747 0
M  V30 585 N 60.6021 -1.18246 1.0419 0
M  V30 586 C 62.0181 -1.40269 0.761366 0
M  V30 587 C 62.2181 -1.90777 -0.648578 0
M  V30 588 O 61.2741 -2.0929 -1.41258 0
M  V30 589 C 62.5871 -2.40237 1.8085 0
M  V30 590 C 64.1351 -2.53961 1.82955 0
M  V30 591 C 64.6101 -3.57194 2.86664 0
M  V30 592 N 66.1011 -3.64702 2.85563 0
M  V30 593 C 66.8361 -4.44309 3.6246 0
M  V30 594 N 66.3321 -5.27514 4.49111 0
M  V30 595 N 68.1251 -4.39084 3.50944 0
M  V30 596 H 60.2761 -0.837882 1.95175 0
M  V30 597 H 62.5391 -0.430608 0.84456 0
M  V30 598 H 62.2451 -2.10176 2.81991 0
M  V30 599 H 62.1191 -3.39601 1.64168 0
M  V30 600 H 64.5061 -2.83338 0.824855 0
M  V30 601 H 64.5871 -1.54706 2.03715 0
M  V30 602 H 64.2311 -3.28558 3.87314 0
M  V30 603 H 64.1611 -4.5613 2.6316 0
M  V30 604 H 66.6521 -3.05289 2.22727 0
M  V30 605 H 66.9651 -5.85411 5.04493 0
M  V30 606 H 65.3101 -5.2693 4.53178 0
M  V30 607 H 68.5011 -3.7313 2.82651 0
M  V30 608 H 68.6741 -5.00883 4.11121 0
M  V30 609 N 62.0802 -0.821533 -1.34494 0
M  V30 610 C 63.0282 -0.230702 -2.31453 0
M  V30 611 C 64.0222 0.627793 -1.57338 0
M  V30 612 O 65.2282 0.519288 -1.72347 0
M  V30 613 H 61.6032 -0.0558577 -0.749923 0
M  V30 614 H 63.5742 -1.06332 -2.78812 0
M  V30 615 C 62.3232 0.59391 -3.4259 0
M  V30 616 H 61.6462 -0.0573588 -3.99759 0
M  V30 617 H 63.0862 0.973446 -4.12674 0
M  V30 618 C 61.5452 1.76568 -2.86924 0
M  V30 619 O 62.0752 2.8638 -2.81691 0
M  V30 620 N 60.2812 1.58198 -2.43766 0
M  V30 621 H 59.8282 0.68872 -2.48222 0
M  V30 622 H 59.7862 2.36752 -2.06871 0
M  V30 623 N 63.5583 1.46682 -0.576371 0
M  V30 624 C 64.8353 1.95599 0.00703437 0
M  V30 625 C 65.2153 1.51904 1.46589 0
M  V30 626 O 64.5633 0.766755 2.15251 0
M  V30 627 C 64.7733 3.4864 -0.158404 0
M  V30 628 C 66.1213 4.24594 -0.0229439 0
M  V30 629 O 67.1453 3.56094 -0.0869173 0
M  V30 630 O 66.0043 5.46373 0.118015 0
M  V30 631 H 63.0983 0.825275 0.053384 0
M  V30 632 H 65.6443 1.56996 -0.644244 0
M  V30 633 H 64.4163 3.7331 -1.17282 0
M  V30 634 H 64.0393 3.94057 0.5296 0
M  V30 635 N 65.0364 0.313813 1.54444 0
M  V30 636 C 65.9464 -0.565714 2.27677 0
M  V30 637 C 66.9624 -1.13754 1.31666 0
M  V30 638 O 68.1384 -1.15959 1.64668 0
M  V30 639 C 65.2034 -1.71528 3.01296 0
M  V30 640 C 64.2644 -1.17624 4.12872 0
M  V30 641 C 63.4974 -2.27102 4.8297 0
M  V30 642 O 63.7204 -3.47256 4.52514 0
M  V30 643 O 62.6544 -1.9307 5.70094 0
M  V30 644 H 66.4804 0.0287296 3.03686 0
M  V30 645 H 64.0654 0.0798312 1.49187 0
M  V30 646 H 65.9474 -2.38476 3.4743 0
M  V30 647 H 64.6224 -2.29608 2.2817 0
M  V30 648 H 63.5294 -0.472124 3.71109 0
M  V30 649 H 64.8624 -0.640695 4.88012 0
M  V30 650 N 66.5145 -1.57545 0.0417849 0
M  V30 651 C 67.4775 -2.09885 -0.92093 0
M  V30 652 C 68.4775 -1.01648 -1.24596 0
M  V30 653 O 69.6675 -1.27759 -1.1842 0
M  V30 654 C 66.7995 -2.57527 -2.23367 0
M  V30 655 H 67.9925 -2.96236 -0.467382 0
M  V30 656 H 65.5455 -1.5493 -0.206467 0
M  V30 657 H 66.2805 -1.74542 -2.73323 0
M  V30 658 H 66.0655 -3.36613 -2.01083 0
M  V30 659 H 67.5555 -2.98201 -2.92346 0
M  V30 660 N 67.9926 0.231505 -1.5589 0
M  V30 661 C 68.9226 1.29022 -1.94617 0
M  V30 662 C 69.9036 1.4941 -0.813067 0
M  V30 663 O 71.0886 1.6176 -1.07459 0
M  V30 664 C 68.2186 2.64199 -2.25424 0
M  V30 665 C 67.1726 2.58484 -3.41131 0
M  V30 666 C 66.4986 3.97599 -3.57518 0
M  V30 667 C 67.7986 2.1413 -4.76388 0
M  V30 668 H 69.4926 0.968563 -2.83301 0
M  V30 669 H 67.0386 0.464479 -1.36303 0
M  V30 670 H 68.9916 3.38413 -2.51107 0
M  V30 671 H 67.7156 2.98032 -1.33583 0
M  V30 672 H 66.3746 1.86727 -3.15481 0
M  V30 673 H 66.0226 4.28723 -2.6307 0
M  V30 674 H 65.7226 3.94659 -4.35337 0
M  V30 675 H 67.2466 4.7349 -3.85538 0
M  V30 676 H 68.6606 2.78083 -5.01341 0
M  V30 677 H 67.0576 2.2227 -5.57419 0
M  V30 678 H 68.1276 1.09331 -4.72414 0
M  V30 679 N 69.4707 1.49531 0.497807 0
M  V30 680 C 70.8867 1.36365 0.829266 0
M  V30 681 C 71.0867 0.399184 1.97506 0
M  V30 682 O 70.1427 -0.167977 2.51941 0
M  V30 683 C 71.4557 2.77153 1.16647 0
M  V30 684 C 73.0037 2.85877 1.27449 0
M  V30 685 C 73.4787 4.2744 1.64497 0
M  V30 686 N 74.9697 4.30265 1.7154 0
M  V30 687 C 75.7047 5.3677 2.01656 0
M  V30 688 N 75.2007 6.53516 2.29976 0
M  V30 689 N 76.9937 5.24189 2.02934 0
M  V30 690 H 69.1447 2.10831 -0.257703 0
M  V30 691 H 71.4077 0.946534 -0.0527091 0
M  V30 692 H 71.1137 3.49442 0.397872 0
M  V30 693 H 70.9877 3.12722 2.10915 0
M  V30 694 H 73.3747 2.13824 2.0338 0
M  V30 695 H 73.4557 2.53887 0.312244 0
M  V30 696 H 73.0997 5.00021 0.891151 0
M  V30 697 H 73.0297 4.56896 2.61827 0
M  V30 698 H 75.5207 3.4607 1.51802 0
M  V30 699 H 75.8337 7.30506 2.52153 0
M  V30 700 H 74.1787 6.56737 2.27425 0
M  V30 701 H 77.3697 4.31988 1.80289 0
M  V30 702 H 77.5427 6.07286 2.26071 0
M  V30 703 N 70.9488 -0.749086 1.3866 0
M  V30 704 C 71.8808 -1.87273 1.32142 0
M  V30 705 C 72.8938 -1.61127 0.232787 0
M  V30 706 O 74.0828 -1.71623 0.49069 0
M  V30 707 C 71.1828 -3.23005 1.02571 0
M  V30 708 C 70.3558 -3.7662 2.22433 0
M  V30 709 C 69.4148 -4.90879 1.89537 0
M  V30 710 O 68.4408 -5.05276 2.62078 0
M  V30 711 N 69.6428 -5.74198 0.853031 0
M  V30 712 H 72.4078 -1.93373 2.28969 0
M  V30 713 H 69.9688 -0.929216 1.32579 0
M  V30 714 H 71.9608 -3.96992 0.786085 0
M  V30 715 H 70.5308 -3.12262 0.145249 0
M  V30 716 H 69.7508 -2.94147 2.62434 0
M  V30 717 H 71.0388 -4.09173 3.02415 0
M  V30 718 H 70.4368 -5.6514 0.25155 0
M  V30 719 H 68.9938 -6.48313 0.67329 0
M  V30 720 N 72.4269 -1.23603 -0.977757 0
M  V30 721 C 73.3569 -1.04401 -2.0886 0
M  V30 722 C 74.3379 0.0399052 -1.70053 0
M  V30 723 O 75.5229 -0.125246 -1.93796 0
M  V30 724 C 72.6529 -0.637269 -3.41403 0
M  V30 725 C 71.6069 -1.66883 -3.94124 0
M  V30 726 C 70.9329 -1.11745 -5.22893 0
M  V30 727 C 72.2329 -3.06247 -4.23096 0
M  V30 728 H 73.9269 -1.97316 -2.25182 0
M  V30 729 H 71.4729 -0.950096 -1.08209 0
M  V30 730 H 73.4259 -0.48998 -4.18542 0
M  V30 731 H 72.1499 0.327557 -3.24953 0
M  V30 732 H 70.8089 -1.80416 -3.19133 0
M  V30 733 H 70.4569 -0.143527 -5.02795 0
M  V30 734 H 70.1569 -1.80672 -5.59134 0
M  V30 735 H 71.6809 -0.982067 -6.02651 0
M  V30 736 H 73.0949 -2.96001 -4.90975 0
M  V30 737 H 71.4919 -3.72436 -4.70544 0
M  V30 738 H 72.5619 -3.55041 -3.30263 0
M  V30 739 N 73.905 1.17692 -1.04816 0
M  V30 740 C 74.815 2.25229 -0.65643 0
M  V30 741 C 75.831 1.71018 0.320761 0
M  V30 742 O 77.007 2.00649 0.173805 0
M  V30 743 C 74.072 3.46684 -0.0332629 0
M  V30 744 C 73.133 4.15997 -1.06042 0
M  V30 745 C 72.366 5.31654 -0.466893 0
M  V30 746 O 72.589 5.65777 0.724758 0
M  V30 747 O 71.523 5.89831 -1.1993 0
M  V30 748 H 75.349 2.61016 -1.55255 0
M  V30 749 H 72.934 1.24919 -0.81949 0
M  V30 750 H 74.816 4.20234 0.313256 0
M  V30 751 H 73.491 3.12703 0.836566 0
M  V30 752 H 72.398 3.44482 -1.45886 0
M  V30 753 H 73.731 4.53996 -1.90127 0
M  V30 754 N 75.3831 0.828654 1.34056 0
M  V30 755 C 76.3461 0.259927 2.27721 0
M  V30 756 C 77.3461 -0.565478 1.50529 0
M  V30 757 O 78.5361 -0.38075 1.69988 0
M  V30 758 C 75.6681 -0.634944 3.34935 0
M  V30 759 H 76.8611 1.0863 2.79534 0
M  V30 760 H 74.4141 0.600951 1.44285 0
M  V30 761 H 75.1491 -1.48416 2.88346 0
M  V30 762 H 74.9341 -0.0444999 3.92075 0
M  V30 763 H 76.4241 -1.02648 4.04788 0
M  V30 764 N 76.8612 -1.46375 0.584142 0
M  V30 765 C 77.7712 -2.34115 -0.150728 0
M  V30 766 C 78.7872 -1.49838 -0.884567 0
M  V30 767 O 79.9632 -1.82704 -0.847429 0
M  V30 768 C 77.0282 -3.2705 -1.15062 0
M  V30 769 C 76.0892 -4.27228 -0.421293 0
M  V30 770 C 75.3222 -5.15722 -1.37355 0
M  V30 771 O 75.5452 -5.07176 -2.61014 0
M  V30 772 O 74.4792 -5.95383 -0.883355 0
M  V30 773 H 78.3052 -2.98309 0.569708 0
M  V30 774 H 75.8902 -1.45373 0.344535 0
M  V30 775 H 77.7722 -3.84381 -1.72712 0
M  V30 776 H 76.4472 -2.65451 -1.8525 0
M  V30 777 H 75.3542 -3.7358 0.197085 0
M  V30 778 H 76.6872 -4.91616 0.239641 0
M  V30 779 N 78.3393 -0.321999 -1.54275 0
M  V30 780 C 79.2693 0.537411 -2.27231 0
M  V30 781 C 80.2503 1.12064 -1.27968 0
M  V30 782 O 81.4353 1.14606 -1.56777 0
M  V30 783 C 78.5653 1.69919 -3.02894 0
M  V30 784 C 77.5193 1.24534 -4.09482 0
M  V30 785 C 76.8453 2.49394 -4.72977 0
M  V30 786 C 78.1453 0.361335 -5.21049 0
M  V30 787 H 79.8393 -0.0711406 -2.99315 0
M  V30 788 H 77.3853 -0.0356555 -1.43956 0
M  V30 789 H 79.3383 2.30668 -3.52662 0
M  V30 790 H 78.0623 2.33431 -2.28424 0
M  V30 791 H 76.7213 0.660782 -3.60596 0
M  V30 792 H 76.3693 3.11265 -3.95124 0
M  V30 793 H 76.0693 2.19718 -5.44975 0
M  V30 794 H 77.5933 3.10908 -5.25517 0
M  V30 795 H 79.0073 0.875072 -5.66582 0
M  V30 796 H 77.4043 0.157428 -5.99893 0
M  V30 797 H 78.4743 -0.60822 -4.8107 0
M  V30 798 N 79.8174 1.5752 -0.0501392 0
M  V30 799 C 81.0654 1.9227 0.622642 0
M  V30 800 C 81.3864 0.929083 1.71444 0
M  V30 801 O 80.6564 -0.0262186 1.95882 0
M  V30 802 H 79.2364 0.709739 0.232981 0
M  V30 803 H 81.8984 1.94628 -0.102898 0
M  V30 804 H 80.9944 2.93479 1.06191 0
M  V30 805 N 81.2955 -0.223234 1.56011 0
M  V30 806 C 82.2585 -1.26014 1.9145 0
M  V30 807 C 83.2585 -1.3989 0.792937 0
M  V30 808 O 84.4485 -1.38184 1.0607 0
M  V30 809 C 81.5805 -2.63422 2.16383 0
M  V30 810 H 82.7735 -0.95796 2.84189 0
M  V30 811 H 80.3265 -0.463576 1.49267 0
M  V30 812 H 81.0615 -2.98741 1.2619 0
M  V30 813 H 80.8465 -2.54728 2.98088 0
M  V30 814 H 82.3365 -3.38249 2.44903 0
M  V30 815 N 82.7736 -1.49793 -0.48987 0
M  V30 816 C 83.6836 -1.70036 -1.61632 0
M  V30 817 C 84.6996 -0.583102 -1.63939 0
M  V30 818 O 85.8756 -0.859169 -1.82154 0
M  V30 819 C 82.9406 -1.77277 -2.97949 0
M  V30 820 C 82.0016 -3.00918 -3.06181 0
M  V30 821 C 81.2346 -3.07804 -4.35996 0
M  V30 822 O 81.4576 -2.21982 -5.25433 0
M  V30 823 O 80.3916 -4.00369 -4.49431 0
M  V30 824 H 84.2176 -2.65486 -1.47482 0
M  V30 825 H 81.8026 -1.33666 -0.667362 0
M  V30 826 H 83.6846 -1.84329 -3.78947 0
M  V30 827 H 82.3596 -0.850076 -3.12339 0
M  V30 828 H 81.2666 -2.99377 -2.2433 0
M  V30 829 H 82.5996 -3.92704 -2.96723 0
M  V30 830 N 84.2517 0.741722 -1.39055 0
M  V30 831 C 85.6677 1.04638 -1.20512 0
M  V30 832 C 85.8677 2.01405 -0.0620218 0
M  V30 833 O 84.9237 2.45547 0.588457 0
M  V30 834 C 86.2367 1.6151 -2.53643 0
M  V30 835 C 87.7847 1.73623 -2.6043 0
M  V30 836 C 88.2597 2.33906 -3.93767 0
M  V30 837 N 89.7507 2.41323 -3.9537 0
M  V30 838 C 90.4857 2.88888 -4.95309 0
M  V30 839 N 89.9817 3.36401 -6.05645 0
M  V30 840 N 91.7747 2.88037 -4.82692 0
M  V30 841 H 83.9257 0.0998155 -2.12165 0
M  V30 842 H 86.1887 0.106907 -0.941953 0
M  V30 843 H 85.8947 0.978739 -3.37807 0
M  V30 844 H 85.7687 2.60411 -2.72885 0
M  V30 845 H 88.1557 2.36384 -1.76655 0
M  V30 846 H 88.2367 0.733945 -2.45045 0
M  V30 847 H 87.8807 1.71776 -4.7797 0
M  V30 848 H 87.8107 3.34799 -4.06469 0
M  V30 849 H 90.3017 2.07734 -3.15682 0
M  V30 850 H 90.6147 3.71186 -6.77821 0
M  V30 851 H 88.9597 3.34427 -6.09248 0
M  V30 852 H 92.1507 2.50237 -3.95599 0
M  V30 853 H 92.3237 3.24792 -5.60726 0
M  V30 854 N 85.7298 1.2412 0.971189 0
M  V30 855 C 86.9548 1.10667 1.75407 0
M  V30 856 C 87.3798 -0.337048 1.85056 0
M  V30 857 O 86.7378 -1.24396 1.31892 0
M  V30 858 C 86.7858 1.74726 3.15441 0
M  V30 859 O 85.8898 1.01566 3.99697 0
M  V30 860 H 85.2308 0.387341 0.539317 0
M  V30 861 H 87.7608 1.64358 1.2185 0
M  V30 862 H 87.7708 1.80341 3.6598 0
M  V30 863 H 86.4458 2.79773 3.07734 0
M  V30 864 H 85.0228 1.03713 3.58187 0
M  V30 865 N 87.2079 -1.17134 1.05439 0
M  V30 866 C 88.4559 -1.87085 0.764429 0
M  V30 867 C 88.7769 -1.81584 -0.710787 0
M  V30 868 O 88.0469 -1.24349 -1.51374 0
M  V30 869 H 86.6269 -0.692627 0.279779 0
M  V30 870 H 89.2889 -1.42087 1.33406 0
M  V30 871 H 88.3849 -2.92759 1.0816 0
M  V30 872 N 88.686 -0.835752 -1.33615 0
M  V30 873 C 89.616 -0.281739 -2.31794 0
M  V30 874 C 90.597 0.608833 -1.58831 0
M  V30 875 O 91.782 0.533035 -1.86741 0
M  V30 876 C 88.912 0.546612 -3.42971 0
M  V30 877 C 87.866 -0.247904 -4.27281 0
M  V30 878 C 87.192 0.704001 -5.30045 0
M  V30 879 C 88.492 -1.46324 -5.01385 0
M  V30 880 H 90.186 -1.10206 -2.78379 0
M  V30 881 H 87.732 -0.531388 -1.33837 0
M  V30 882 H 89.685 0.944467 -4.1068 0
M  V30 883 H 88.409 1.40011 -2.95067 0
M  V30 884 H 87.068 -0.627281 -3.61194 0
M  V30 885 H 86.716 1.55381 -4.78399 0
M  V30 886 H 86.416 0.176524 -5.87335 0
M  V30 887 H 87.94 1.09944 -6.0062 0
M  V30 888 H 89.354 -1.13871 -5.61877 0
M  V30 889 H 87.751 -1.92728 -5.6831 0
M  V30 890 H 88.821 -2.23467 -4.30338 0
M  V30 891 N 90.1641 1.46063 -0.591896 0
M  V30 892 C 91.5801 1.57561 -0.254288 0
M  V30 893 C 91.7801 1.58565 1.24336 0
M  V30 894 O 90.8361 1.50753 2.02558 0
M  V30 895 C 92.1491 2.86549 -0.911611 0
M  V30 896 C 93.6971 3.00197 -0.886059 0
M  V30 897 C 94.1721 4.31933 -1.5231 0
M  V30 898 N 95.6631 4.38654 -1.48786 0
M  V30 899 C 96.3981 5.39222 -1.95006 0
M  V30 900 N 95.8941 6.46414 -2.49241 0
M  V30 901 N 97.6871 5.3048 -1.85868 0
M  V30 902 H 89.8381 1.43655 -1.56451 0
M  V30 903 H 92.1011 0.68583 -0.654478 0
M  V30 904 H 91.8071 2.91651 -1.96551 0
M  V30 905 H 91.6811 3.74794 -0.425368 0
M  V30 906 H 94.0681 2.9467 0.159246 0
M  V30 907 H 94.1491 2.13403 -1.41041 0
M  V30 908 H 93.7931 4.38217 -2.56765 0
M  V30 909 H 93.7231 5.17516 -0.973891 0
M  V30 910 H 96.2141 3.61793 -1.09151 0
M  V30 911 H 96.5271 7.19376 -2.82344 0
M  V30 912 H 94.8721 6.47208 -2.53272 0
M  V30 913 H 98.0631 4.45643 -1.43248 0
M  V30 914 H 98.2361 6.08711 -2.22204 0
M  V30 915 N 91.6422 0.330177 1.54103 0
M  V30 916 C 92.8882 -0.270806 2.00984 0
M  V30 917 C 93.2212 -1.51265 1.21789 0
M  V30 918 O 92.4962 -1.92142 0.301927 0
M  V30 919 C 92.7792 -0.598339 3.55094 0
M  V30 920 C 92.6322 0.654674 4.4501 0
M  V30 921 C 93.9512 -1.41334 4.16789 0
M  V30 922 H 91.0702 -0.0969531 0.730595 0
M  V30 923 H 93.7122 0.448066 1.84641 0
M  V30 924 H 91.8622 -1.21078 3.69151 0
M  V30 925 H 93.5342 1.29285 4.42813 0
M  V30 926 H 91.7772 1.28224 4.14416 0
M  V30 927 H 92.4482 0.380944 5.50684 0
M  V30 928 H 94.9242 -0.895597 4.06347 0
M  V30 929 H 93.8002 -1.61127 5.24718 0
M  V30 930 H 94.0612 -2.41146 3.70541 0
M  V30 931 N 93.1203 -1.57491 0.0584922 0
M  V30 932 C 94.3663 -1.93264 -0.614558 0
M  V30 933 C 94.6993 -0.937717 -1.7006 0
M  V30 934 O 93.9743 0.0351652 -1.94468 0
M  V30 935 C 94.2573 -3.3938 -1.20386 0
M  V30 936 C 94.1103 -4.49625 -0.125375 0
M  V30 937 C 95.4293 -3.86039 -2.11334 0
M  V30 938 H 92.5483 -0.702791 -0.221933 0
M  V30 939 H 95.1903 -1.8961 0.12175 0
M  V30 940 H 93.3403 -3.42626 -1.83139 0
M  V30 941 H 95.0123 -4.58506 0.506971 0
M  V30 942 H 93.2553 -4.30354 0.545672 0
M  V30 943 H 93.9263 -5.48967 -0.577861 0
M  V30 944 H 96.4023 -3.84716 -1.58534 0
M  V30 945 H 95.2783 -4.88914 -2.49507 0
M  V30 946 H 95.5393 -3.23215 -3.01636 0
M  V30 947 N 94.5984 0.214957 -1.56127 0
M  V30 948 C 96.0144 0.564948 -1.49267 0
M  V30 949 C 96.2144 1.86827 -0.754838 0
M  V30 950 O 95.2704 2.50745 -0.297198 0
M  V30 951 C 96.5834 0.638071 -2.93852 0
M  V30 952 C 98.1314 0.728253 -3.0441 0
M  V30 953 C 98.6064 0.832663 -4.50367 0
M  V30 954 N 100.097 0.896712 -4.54437 0
M  V30 955 C 100.832 0.997324 -5.6466 0
M  V30 956 N 100.328 1.06147 -6.8462 0
M  V30 957 N 102.121 1.03297 -5.52527 0
M  V30 958 H 94.2724 -0.640211 -2.02522 0
M  V30 959 H 96.5354 -0.225507 -0.920788 0
M  V30 960 H 96.2414 -0.250126 -3.50809 0
M  V30 961 H 96.1154 1.49947 -3.46115 0
M  V30 962 H 98.5024 1.60689 -2.47514 0
M  V30 963 H 98.5834 -0.158952 -2.55306 0
M  V30 964 H 98.2274 -0.0415417 -5.07883 0
M  V30 965 H 98.1574 1.73538 -4.97184 0
M  V30 966 H 100.648 0.857188 -3.6805 0
M  V30 967 H 100.961 1.1382 -7.64372 0
M  V30 968 H 99.3064 1.03049 -6.87318 0
M  V30 969 H 102.497 0.979558 -4.57736 0
M  V30 970 H 102.67 1.10793 -6.38458 0
M  V30 971 N 96.0765 1.50051 0.48192 0
M  V30 972 C 97.3225 1.60736 1.2366 0
M  V30 973 C 97.6555 0.301786 1.91841 0
M  V30 974 O 96.9305 -0.696025 1.8162 0
M  V30 975 C 97.2135 2.78009 2.28874 0
M  V30 976 C 97.0665 4.18416 1.65069 0
M  V30 977 C 98.3855 2.90867 3.30279 0
M  V30 978 H 95.5045 0.585031 0.448228 0
M  V30 979 H 98.1465 1.82402 0.531946 0
M  V30 980 H 96.2965 2.59667 2.88973 0
M  V30 981 H 97.9685 4.48322 1.0865 0
M  V30 982 H 96.2115 4.23177 0.954148 0
M  V30 983 H 96.8825 4.96381 2.41474 0
M  V30 984 H 99.3585 3.07623 2.80191 0
M  V30 985 H 98.2345 3.74566 4.01238 0
M  V30 986 H 98.4955 2.01021 3.93755 0
M  V30 987 N 97.5546 -0.734337 1.39446 0
M  V30 988 C 98.9656 -1.31264 1.32766 0
M  V30 989 C 99.3166 -1.96198 -0.00767497 0
M  V30 990 O 98.4416 -1.96346 -0.909796 0
M  V30 991 C 99.0366 -2.38682 2.4045 0
M  V30 992 C 97.5956 -2.92184 2.37288 0
M  V30 993 C 96.7426 -1.6576 2.22304 0
M  V30 994 H 99.6936 -0.531799 1.49525 0
M  V30 995 H 99.7146 -3.19087 2.07276 0
M  V30 996 H 99.2266 -1.91392 3.37625 0
M  V30 997 H 97.3276 -3.43752 1.43754 0
M  V30 998 H 97.4406 -3.45253 3.3217 0
M  V30 999 H 95.8046 -1.9012 1.69489 0
M  V30 1000 H 96.5876 -1.20521 3.21449 0
M  V30 1001 N 99.0327 -1.24633 -0.964593 0
M  V30 1002 C 99.9957 -1.0424 -2.04124 0
M  V30 1003 C 100.996 0.00137563 -1.608 0
M  V30 1004 O 102.186 -0.239883 -1.7254 0
M  V30 1005 C 99.3177 -0.580588 -3.3592 0
M  V30 1006 H 100.511 -1.99803 -2.23649 0
M  V30 1007 H 98.0637 -1.06899 -1.14027 0
M  V30 1008 H 98.7987 0.3781 -3.22088 0
M  V30 1009 H 98.5837 -1.33398 -3.6871 0
M  V30 1010 H 100.074 -0.459034 -4.15069 0
M  V30 1011 N 100.511 1.16574 -1.06058 0
M  V30 1012 C 101.788 1.83048 -0.689416 0
M  V30 1013 C 102.168 1.94122 0.829443 0
M  V30 1014 O 101.516 1.48249 1.7388 0
M  V30 1015 C 101.726 3.20186 -1.38859 0
M  V30 1016 C 103.074 3.95989 -1.53226 0
M  V30 1017 O 104.098 3.29696 -1.3483 0
M  V30 1018 O 102.957 5.14813 -1.83384 0
M  V30 1019 H 100.051 0.790258 -0.243764 0
M  V30 1020 H 102.597 1.23797 -1.16071 0
M  V30 1021 H 101.369 3.07146 -2.4244 0
M  V30 1022 H 100.992 3.87112 -0.907216 0
M  V30 1023 N 101.989 0.842826 1.3317 0
M  V30 1024 C 102.919 0.294028 2.31641 0
M  V30 1025 C 103.9 -0.600401 1.59151 0
M  V30 1026 O 105.085 -0.523124 1.87022 0
M  V30 1027 C 102.215 -0.528416 3.43257 0
M  V30 1028 C 101.169 0.27056 4.27144 0
M  V30 1029 C 100.495 -0.675881 5.30411 0
M  V30 1030 C 101.795 1.48981 5.00602 0
M  V30 1031 H 103.489 1.11681 2.77791 0
M  V30 1032 H 101.035 0.538478 1.33553 0
M  V30 1033 H 102.988 -0.922674 4.11175 0
M  V30 1034 H 101.712 -1.38445 2.95805 0
M  V30 1035 H 100.371 0.646427 3.60856 0
M  V30 1036 H 100.019 -1.52842 4.79216 0
M  V30 1037 H 99.7189 -0.145374 5.8742 0
M  V30 1038 H 101.243 -1.06757 6.01195 0
M  V30 1039 H 102.657 1.16849 5.61266 0
M  V30 1040 H 101.054 1.95739 5.6728 0
M  V30 1041 H 102.124 2.25746 4.29147 0
M  V30 1042 N 103.467 -1.45747 0.599634 0
M  V30 1043 C 104.715 -2.01893 0.0915472 0
M  V30 1044 C 105.036 -1.47155 -1.27946 0
M  V30 1045 O 104.306 -0.66273 -1.84349 0
M  V30 1046 H 102.886 -0.746363 0.0308524 0
M  V30 1047 H 105.548 -1.78645 0.779237 0
M  V30 1048 H 104.644 -3.1208 0.0353086 0
M  V30 1049 N 104.945 -0.338344 -1.53925 0
M  V30 1050 C 105.908 0.508299 -2.23493 0
M  V30 1051 C 106.908 1.03175 -1.23335 0
M  V30 1052 O 108.098 0.921826 -1.47811 0
M  V30 1053 C 105.23 1.70754 -2.95052 0
M  V30 1054 H 106.423 -0.100058 -2.99733 0
M  V30 1055 H 103.976 -0.0896198 -1.56043 0
M  V30 1056 H 104.711 2.35474 -2.22986 0
M  V30 1057 H 104.496 1.33946 -3.68512 0
M  V30 1058 H 105.986 2.30818 -3.48013 0
M  V30 1059 N 106.423 1.57458 -0.0668435 0
M  V30 1060 C 107.333 2.15937 0.916975 0
M  V30 1061 C 108.349 1.12123 1.33058 0
M  V30 1062 O 109.525 1.44366 1.40429 0
M  V30 1063 C 106.59 2.70547 2.16807 0
M  V30 1064 C 105.651 3.89215 1.81135 0
M  V30 1065 C 104.884 4.41211 3.0028 0
M  V30 1066 O 105.107 3.92225 4.14144 0
M  V30 1067 O 104.041 5.32605 2.80384 0
M  V30 1068 H 107.867 3.00354 0.449561 0
M  V30 1069 H 105.452 1.48584 0.155949 0
M  V30 1070 H 107.334 3.0557 2.90181 0
M  V30 1071 H 106.009 1.89192 2.62656 0
M  V30 1072 H 104.916 3.59054 1.05028 0
M  V30 1073 H 106.249 4.71848 1.40073 0
M  V30 1074 N 107.901 -0.206675 1.56239 0
M  V30 1075 C 108.864 -1.23976 1.92776 0
M  V30 1076 C 109.864 -1.39041 0.807729 0
M  V30 1077 O 111.054 -1.37051 1.0753 0
M  V30 1078 C 108.186 -2.61112 2.19165 0
M  V30 1079 H 109.379 -0.927764 2.85189 0
M  V30 1080 H 106.932 -0.447718 1.4975 0
M  V30 1081 H 107.667 -2.97386 1.29352 0
M  V30 1082 H 107.452 -2.51552 3.00772 0
M  V30 1083 H 108.942 -3.35633 2.48476 0
M  V30 1084 N 109.379 -1.50304 -0.473955 0
M  V30 1085 C 110.627 -1.60832 -1.22382 0
M  V30 1086 C 110.948 -0.30939 -1.9253 0
M  V30 1087 O 110.218 0.67296 -1.83978 0
M  V30 1088 H 108.798 -0.592652 -0.454723 0
M  V30 1089 H 111.46 -1.87068 -0.546968 0
M  V30 1090 H 110.556 -2.41803 -1.97327 0
M  V30 1091 N 110.857 0.726932 -1.39834 0
M  V30 1092 C 111.787 1.85405 -1.41941 0
M  V30 1093 C 112.768 1.67751 -0.281728 0
M  V30 1094 O 113.953 1.8795 -0.488717 0
M  V30 1095 C 111.083 3.23243 -1.2701 0
M  V30 1096 C 110.037 3.55549 -2.38262 0
M  V30 1097 C 109.363 4.9241 -2.08415 0
M  V30 1098 C 110.663 3.577 -3.80589 0
M  V30 1099 H 112.357 1.83899 -2.36266 0
M  V30 1100 H 109.903 0.883349 -1.13723 0
M  V30 1101 H 111.856 4.01775 -1.27103 0
M  V30 1102 H 110.58 3.25296 -0.291564 0
M  V30 1103 H 109.239 2.79351 -2.37399 0
M  V30 1104 H 108.887 4.91052 -1.0898 0
M  V30 1105 H 108.587 5.14992 -2.82943 0
M  V30 1106 H 110.111 5.73289 -2.10171 0
M  V30 1107 H 111.525 4.26293 -3.83337 0
M  V30 1108 H 109.922 3.91804 -4.54543 0
M  V30 1109 H 110.992 2.57328 -4.10987 0
M  V30 1110 N 112.336 1.25143 0.95797 0
M  V30 1111 C 113.268 1.01023 2.05735 0
M  V30 1112 C 114.281 -0.0236902 1.62783 0
M  V30 1113 O 115.47 0.21448 1.77207 0
M  V30 1114 C 112.57 0.504595 3.35122 0
M  V30 1115 C 111.743 1.6039 4.06932 0
M  V30 1116 C 110.802 1.09922 5.14591 0
M  V30 1117 O 109.828 1.79293 5.40225 0
M  V30 1118 N 111.03 -0.0612545 5.80468 0
M  V30 1119 H 113.795 1.95683 2.26998 0
M  V30 1120 H 111.356 1.16303 1.12629 0
M  V30 1121 H 113.348 0.151516 4.04416 0
M  V30 1122 H 111.918 -0.347989 3.10657 0
M  V30 1123 H 111.138 2.12872 3.31782 0
M  V30 1124 H 112.426 2.34252 4.51667 0
M  V30 1125 H 111.824 -0.640985 5.62057 0
M  V30 1126 H 110.381 -0.355395 6.5083 0
M  V30 1127 N 113.814 -1.1601 1.06675 0
M  V30 1128 C 114.746 -2.20115 0.638921 0
M  V30 1129 C 115.759 -1.59916 -0.305057 0
M  V30 1130 O 116.948 -1.78245 -0.0954446 0
M  V30 1131 C 114.048 -3.38798 -0.0830083 0
M  V30 1132 C 113.221 -4.2855 0.875426 0
M  V30 1133 C 112.28 -5.25849 0.192042 0
M  V30 1134 O 111.306 -5.63102 0.830921 0
M  V30 1135 N 112.508 -5.70648 -1.06493 0
M  V30 1136 H 115.273 -2.57439 1.53444 0
M  V30 1137 H 112.834 -1.31057 0.950557 0
M  V30 1138 H 114.826 -4.00936 -0.550685 0
M  V30 1139 H 113.396 -2.99947 -0.880386 0
M  V30 1140 H 112.616 -3.63617 1.52238 0
M  V30 1141 H 113.904 -4.85393 1.52548 0
M  V30 1142 H 113.302 -5.42482 -1.60405 0
M  V30 1143 H 111.859 -6.34859 -1.47641 0
M  V30 1144 N 115.292 -0.849877 -1.32721 0
M  V30 1145 C 116.222 -0.306308 -2.31482 0
M  V30 1146 C 117.203 0.591952 -1.59468 0
M  V30 1147 O 118.388 0.513199 -1.87296 0
M  V30 1148 C 115.518 0.510204 -3.43532 0
M  V30 1149 C 114.472 -0.293209 -4.26994 0
M  V30 1150 C 113.798 0.647743 -5.30762 0
M  V30 1151 C 115.098 -1.51634 -4.99804 0
M  V30 1152 H 116.792 -1.13153 -2.77195 0
M  V30 1153 H 114.338 -0.545553 -1.33266 0
M  V30 1154 H 116.291 0.900856 -4.11658 0
M  V30 1155 H 115.015 1.36874 -2.96535 0
M  V30 1156 H 113.674 -0.665555 -3.60508 0
M  V30 1157 H 113.322 1.50299 -4.8002 0
M  V30 1158 H 113.022 0.11422 -5.87489 0
M  V30 1159 H 114.546 1.03567 -6.01753 0
M  V30 1160 H 115.96 -1.19824 -5.60638 0
M  V30 1161 H 114.357 -1.98745 -5.66234 0
M  V30 1162 H 115.427 -2.28018 -4.27943 0
M  V30 1163 N 116.77 1.45427 -0.607355 0
M  V30 1164 C 117.7 2.3329 0.0989352 0
M  V30 1165 C 118.681 1.46816 0.859007 0
M  V30 1166 O 119.866 1.75588 0.829604 0
M  V30 1167 C 116.996 3.29518 1.09705 0
M  V30 1168 C 115.95 4.25626 0.450206 0
M  V30 1169 C 115.276 5.11542 1.55655 0
M  V30 1170 C 116.576 5.18505 -0.628455 0
M  V30 1171 H 118.27 2.92595 -0.634716 0
M  V30 1172 H 115.816 1.40696 -0.306681 0
M  V30 1173 H 117.769 3.89855 1.59971 0
M  V30 1174 H 116.493 2.68372 1.86129 0
M  V30 1175 H 115.152 3.66586 -0.0315886 0
M  V30 1176 H 114.8 4.46765 2.31107 0
M  V30 1177 H 114.5 5.76647 1.12925 0
M  V30 1178 H 116.024 5.74748 2.06148 0
M  V30 1179 H 117.438 5.72916 -0.209877 0
M  V30 1180 H 115.835 5.92085 -0.977489 0
M  V30 1181 H 116.905 4.60948 -1.50514 0
M  V30 1182 N 118.248 0.346503 1.53744 0
M  V30 1183 C 119.496 -0.248612 2.00565 0
M  V30 1184 C 119.817 -1.5083 1.23593 0
M  V30 1185 O 119.087 -1.92858 0.343912 0
M  V30 1186 H 117.667 -0.0948564 0.740953 0
M  V30 1187 H 120.329 0.468341 1.89189 0
M  V30 1188 H 119.425 -0.488994 3.08245 0
M  V30 1189 N 119.726 -1.57421 0.075193 0
M  V30 1190 C 120.689 -2.11791 -0.876203 0
M  V30 1191 C 121.689 -1.04268 -1.22412 0
M  V30 1192 O 122.879 -1.30242 -1.15684 0
M  V30 1193 C 120.011 -2.62207 -2.17854 0
M  V30 1194 H 121.204 -2.9716 -0.40444 0
M  V30 1195 H 118.757 -1.55333 -0.173557 0
M  V30 1196 H 119.492 -1.803 -2.6956 0
M  V30 1197 H 119.277 -3.40802 -1.93897 0
M  V30 1198 H 120.767 -3.04335 -2.85955 0
M  V30 1199 N 121.204 0.198386 -1.56346 0
M  V30 1200 C 122.134 1.24865 -1.9731 0
M  V30 1201 C 123.115 1.47651 -0.844576 0
M  V30 1202 O 124.3 1.59444 -1.10866 0
M  V30 1203 C 121.43 2.59358 -2.30977 0
M  V30 1204 C 120.384 2.5119 -3.46537 0
M  V30 1205 C 119.71 3.89926 -3.65871 0
M  V30 1206 C 121.01 2.03977 -4.80823 0
M  V30 1207 H 122.704 0.908252 -2.85291 0
M  V30 1208 H 120.25 0.435462 -1.37258 0
M  V30 1209 H 122.203 3.33011 -2.58228 0
M  V30 1210 H 120.927 2.95132 -1.39874 0
M  V30 1211 H 119.586 1.79993 -3.19371 0
M  V30 1212 H 119.234 4.23046 -2.72105 0
M  V30 1213 H 118.934 3.85336 -4.4361 0
M  V30 1214 H 120.458 4.65205 -3.95495 0
M  V30 1215 H 121.872 2.67386 -5.07127 0
M  V30 1216 H 120.269 2.10397 -5.62008 0
M  V30 1217 H 121.339 0.992861 -4.74626 0
M  V30 1218 N 122.682 1.50554 0.465978 0
M  V30 1219 C 124.098 1.38093 0.800154 0
M  V30 1220 C 124.298 0.440988 1.96615 0
M  V30 1221 O 123.354 -0.114499 2.5224 0
M  V30 1222 C 124.667 2.79565 1.10742 0
M  V30 1223 C 126.215 2.88516 1.21357 0
M  V30 1224 C 126.69 4.30833 1.55393 0
M  V30 1225 N 128.181 4.33807 1.62375 0
M  V30 1226 C 128.916 5.40927 1.90225 0
M  V30 1227 N 128.412 6.58247 2.16062 0
M  V30 1228 N 130.205 5.28376 1.9177 0
M  V30 1229 H 122.356 2.10237 -0.302366 0
M  V30 1230 H 124.619 0.945203 -0.0727746 0
M  V30 1231 H 124.325 3.50208 0.323661 0
M  V30 1232 H 124.199 3.17125 2.04234 0
M  V30 1233 H 126.586 2.1809 1.98799 0
M  V30 1234 H 126.667 2.54492 0.258321 0
M  V30 1235 H 126.311 5.01799 0.784889 0
M  V30 1236 H 126.241 4.62347 2.52076 0
M  V30 1237 H 128.732 3.49212 1.44427 0
M  V30 1238 H 129.045 7.3569 2.36601 0
M  V30 1239 H 127.39 6.61413 2.13444 0
M  V30 1240 H 130.581 4.35715 1.71085 0
M  V30 1241 H 130.754 6.11944 2.13139 0
M  V30 1242 N 124.16 -0.719506 1.40217 0
M  V30 1243 C 125.07 -1.86378 1.42479 0
M  V30 1244 C 126.086 -1.71073 0.317834 0
M  V30 1245 O 127.262 -1.93406 0.561794 0
M  V30 1246 C 124.327 -3.22136 1.28178 0
M  V30 1247 C 123.388 -3.49723 2.48982 0
M  V30 1248 C 122.621 -4.79004 2.35353 0
M  V30 1249 O 122.844 -5.53821 1.36524 0
M  V30 1250 O 121.778 -5.06839 3.2465 0
M  V30 1251 H 125.604 -1.87425 2.38968 0
M  V30 1252 H 123.189 -0.869405 1.21498 0
M  V30 1253 H 125.071 -4.03234 1.22395 0
M  V30 1254 H 123.746 -3.21825 0.347934 0
M  V30 1255 H 122.653 -2.6865 2.60342 0
M  V30 1256 H 123.986 -3.54828 3.41113 0
M  V30 1257 N 125.638 -1.25649 -0.95132 0
M  V30 1258 C 126.568 -1.08808 -2.06599 0
M  V30 1259 C 127.549 0.00382547 -1.701 0
M  V30 1260 O 128.734 -0.166325 -1.93486 0
M  V30 1261 C 125.864 -0.709542 -3.39975 0
M  V30 1262 C 124.818 -1.75206 -3.90496 0
M  V30 1263 C 124.144 -1.22811 -5.20405 0
M  V30 1264 C 125.444 -3.15153 -4.16504 0
M  V30 1265 H 127.138 -2.02048 -2.20946 0
M  V30 1266 H 124.684 -0.972835 -1.06169 0
M  V30 1267 H 126.637 -0.578649 -4.17408 0
M  V30 1268 H 125.361 0.258556 -3.25575 0
M  V30 1269 H 124.02 -1.87145 -3.15234 0
M  V30 1270 H 123.668 -0.250145 -5.02378 0
M  V30 1271 H 123.368 -1.92492 -5.55176 0
M  V30 1272 H 124.892 -1.10968 -6.00432 0
M  V30 1273 H 126.306 -3.06349 -4.84586 0
M  V30 1274 H 124.703 -3.82333 -4.62538 0
M  V30 1275 H 125.773 -3.61966 -3.22658 0
M  V30 1276 N 127.117 1.15442 -1.07289 0
M  V30 1277 C 128.528 1.67803 -0.818475 0
M  V30 1278 C 128.879 1.8489 0.656507 0
M  V30 1279 O 128.004 1.55176 1.50829 0
M  V30 1280 C 128.599 3.04805 -1.47917 0
M  V30 1281 C 127.158 3.54245 -1.27229 0
M  V30 1282 C 126.305 2.29986 -1.54925 0
M  V30 1283 H 129.256 0.996646 -1.23502 0
M  V30 1284 H 129.277 3.69702 -0.90005 0
M  V30 1285 H 128.789 2.92336 -2.55267 0
M  V30 1286 H 126.89 3.71956 -0.21899 0
M  V30 1287 H 127.003 4.35723 -1.99203 0
M  V30 1288 H 125.367 2.35496 -0.970242 0
M  V30 1289 H 126.15 2.20105 -2.63455 0
M  V30 1290 N 128.595 0.856903 1.32268 0
M  V30 1291 C 130.011 0.547061 1.49931 0
M  V30 1292 C 130.211 -0.921781 1.7918 0
M  V30 1293 O 129.267 -1.70469 1.8627 0
M  V30 1294 C 130.58 1.43599 2.64196 0
M  V30 1295 C 132.128 1.43665 2.78081 0
M  V30 1296 C 132.603 2.31085 3.95428 0
M  V30 1297 N 134.094 2.28893 4.02694 0
M  V30 1298 C 134.829 2.93262 4.92732 0
M  V30 1299 N 134.325 3.66751 5.87763 0
M  V30 1300 N 136.118 2.82638 4.85873 0
M  V30 1301 H 128.269 1.8075 1.11549 0
M  V30 1302 H 130.532 0.772144 0.549997 0
M  V30 1303 H 130.238 2.48058 2.49319 0
M  V30 1304 H 130.112 1.12502 3.60032 0
M  V30 1305 H 132.499 0.399701 2.92381 0
M  V30 1306 H 132.58 1.7878 1.82952 0
M  V30 1307 H 132.224 3.34849 3.81888 0
M  V30 1308 H 132.154 1.93302 4.89839 0
M  V30 1309 H 134.645 1.75466 3.34694 0
M  V30 1310 H 134.958 4.13027 6.53168 0
M  V30 1311 H 133.303 3.70859 5.87783 0
M  V30 1312 H 136.494 2.24774 4.10602 0
M  V30 1313 H 136.667 3.33084 5.55841 0
M  V30 1314 N 130.073 -1.45103 0.615059 0
M  V30 1315 C 131.484 -1.85654 0.197383 0
M  V30 1316 C 131.835 -1.51433 -1.24749 0
M  V30 1317 O 130.96 -0.944608 -1.94695 0
M  V30 1318 C 131.555 -3.36972 0.351448 0
M  V30 1319 C 130.114 -3.76398 -0.011593 0
M  V30 1320 C 129.261 -2.69024 0.672394 0
M  V30 1321 H 132.212 -1.35797 0.821263 0
M  V30 1322 H 132.233 -3.78239 -0.414227 0
M  V30 1323 H 131.745 -3.61847 1.40314 0
M  V30 1324 H 129.846 -3.5714 -1.06217 0
M  V30 1325 H 129.959 -4.77532 0.387265 0
M  V30 1326 H 128.323 -2.54465 0.109284 0
M  V30 1327 H 129.106 -2.96735 1.72636 0
M  V30 1328 N 131.551 -0.354651 -1.53558 0
M  V30 1329 C 132.498 0.496968 -2.25386 0
M  V30 1330 C 133.468 1.0865 -1.25636 0
M  V30 1331 O 134.653 1.12104 -1.54394 0
M  V30 1332 C 131.793 1.63637 -3.03837 0
M  V30 1333 C 130.906 1.07307 -4.18461 0
M  V30 1334 C 130.041 2.18068 -4.84376 0
M  V30 1335 C 129.08 1.59147 -5.91049 0
M  V30 1336 N 128.217 2.63695 -6.50699 0
M  V30 1337 H 133.057 -0.122075 -2.9775 0
M  V30 1338 H 130.594 -0.0720154 -1.46924 0
M  V30 1339 H 132.552 2.30734 -3.47589 0
M  V30 1340 H 131.182 2.22623 -2.33749 0
M  V30 1341 H 130.234 0.292708 -3.79272 0
M  V30 1342 H 131.546 0.602193 -4.95152 0
M  V30 1343 H 130.7 2.93007 -5.31255 0
M  V30 1344 H 129.439 2.68504 -4.07133 0
M  V30 1345 H 128.444 0.827175 -5.43542 0
M  V30 1346 H 129.669 1.09549 -6.70206 0
M  V30 1347 H 127.615 3.13365 -5.76315 0
M  V30 1348 H 127.532 2.21263 -7.22896 0
M  V30 1349 H 128.8 3.3837 -7.02229 0
M  V30 1350 N 133.029 1.57378 -0.0835403 0
M  V30 1351 C 134.277 1.93547 0.581718 0
M  V30 1352 C 134.598 0.96524 1.69435 0
M  V30 1353 O 133.868 0.0153369 1.95894 0
M  V30 1354 H 132.448 0.714521 0.217874 0
M  V30 1355 H 135.11 1.94366 -0.144158 0
M  V30 1356 H 134.206 2.95665 0.999423 0
M  V30 1357 N 134.507 -0.190092 1.56449 0
M  V30 1358 C 135.437 -1.23816 1.97969 0
M  V30 1359 C 136.418 -1.47201 0.852395 0
M  V30 1360 O 137.603 -1.58854 1.1171 0
M  V30 1361 C 134.733 -2.5813 2.3235 0
M  V30 1362 C 133.687 -2.49348 3.47864 0
M  V30 1363 C 133.013 -3.8798 3.67934 0
M  V30 1364 C 134.313 -2.01424 4.81898 0
M  V30 1365 H 136.007 -0.89311 2.85769 0
M  V30 1366 H 133.553 -0.428177 1.37487 0
M  V30 1367 H 135.506 -3.31637 2.59991 0
M  V30 1368 H 134.23 -2.94386 1.41438 0
M  V30 1369 H 132.889 -1.78297 3.20321 0
M  V30 1370 H 132.537 -4.21597 2.74344 0
M  V30 1371 H 132.237 -3.82978 4.45648 0
M  V30 1372 H 133.761 -4.63101 3.97957 0
M  V30 1373 H 135.175 -2.64693 5.08538 0
M  V30 1374 H 133.572 -2.07413 5.63116 0
M  V30 1375 H 134.642 -0.967677 4.75146 0
M  V30 1376 N 135.985 -1.50799 -0.457987 0
M  V30 1377 C 136.917 -1.66786 -1.57211 0
M  V30 1378 C 137.93 -0.548962 -1.53265 0
M  V30 1379 O 139.119 -0.8226 -1.58416 0
M  V30 1380 C 136.219 -1.64834 -2.96113 0
M  V30 1381 C 135.392 -2.92971 -3.24787 0
M  V30 1382 C 134.451 -2.83485 -4.43309 0
M  V30 1383 O 133.477 -3.5744 -4.42973 0
M  V30 1384 N 134.679 -1.97929 -5.45714 0
M  V30 1385 H 137.444 -2.62889 -1.43909 0
M  V30 1386 H 135.005 -1.48427 -0.646617 0
M  V30 1387 H 136.997 -1.56084 -3.7339 0
M  V30 1388 H 135.567 -0.764118 -3.03117 0
M  V30 1389 H 134.787 -3.15749 -2.36 0
M  V30 1390 H 136.075 -3.77834 -3.40762 0
M  V30 1391 H 135.473 -1.37182 -5.48815 0
M  V30 1392 H 134.03 -1.95073 -6.21924 0
M  V30 1393 N 137.463 0.71206 -1.40597 0
M  V30 1394 C 138.879 1.02058 -1.22704 0
M  V30 1395 C 139.079 2.01228 -0.104729 0
M  V30 1396 O 138.135 2.4674 0.53624 0
M  V30 1397 C 139.448 1.56094 -2.57012 0
M  V30 1398 C 140.996 1.6806 -2.64054 0
M  V30 1399 C 141.471 2.25501 -3.9864 0
M  V30 1400 N 142.962 2.32882 -4.004 0
M  V30 1401 C 143.697 2.78317 -5.01325 0
M  V30 1402 N 143.193 3.23478 -6.12645 0
M  V30 1403 N 144.986 2.77733 -4.88693 0
M  V30 1404 H 137.137 0.0547896 -2.12329 0
M  V30 1405 H 139.4 0.0869027 -0.944008 0
M  V30 1406 H 139.106 0.906865 -3.39807 0
M  V30 1407 H 138.98 2.54564 -2.78347 0
M  V30 1408 H 141.367 2.32583 -1.81629 0
M  V30 1409 H 141.448 0.681802 -2.46546 0
M  V30 1410 H 141.092 1.61598 -4.81506 0
M  V30 1411 H 141.022 3.26102 -4.13479 0
M  V30 1412 H 143.513 2.00991 -3.20017 0
M  V30 1413 H 143.826 3.56725 -6.85542 0
M  V30 1414 H 142.171 3.21429 -6.16205 0
M  V30 1415 H 145.362 2.4179 -4.00818 0
M  V30 1416 H 145.535 3.12826 -5.67489 0
M  V30 1417 N 138.941 1.26152 0.944643 0
M  V30 1418 C 139.871 1.09902 2.06019 0
M  V30 1419 C 140.852 0.00519538 1.70099 0
M  V30 1420 O 142.037 0.176583 1.93396 0
M  V30 1421 C 139.167 0.727562 3.39594 0
M  V30 1422 C 138.121 1.77274 3.89561 0
M  V30 1423 C 137.447 1.25569 5.19747 0
M  V30 1424 C 138.747 3.17357 4.14827 0
M  V30 1425 H 140.441 2.03217 2.19871 0
M  V30 1426 H 137.987 0.978452 1.05652 0
M  V30 1427 H 139.94 0.600777 4.17095 0
M  V30 1428 H 138.664 -0.241287 3.25707 0
M  V30 1429 H 137.323 1.88814 3.14237 0
M  V30 1430 H 136.971 0.276783 5.02238 0
M  V30 1431 H 136.671 1.95433 5.54148 0
M  V30 1432 H 138.195 1.1415 5.99835 0
M  V30 1433 H 139.609 3.08914 4.82954 0
M  V30 1434 H 138.006 3.84781 4.60504 0
M  V30 1435 H 139.076 3.63673 3.20734 0
M  V30 1436 N 140.419 -1.14872 1.07899 0
M  V30 1437 C 141.349 -2.2193 0.725887 0
M  V30 1438 C 142.33 -1.67622 -0.28927 0
M  V30 1439 O 143.515 -1.93533 -0.160787 0
M  V30 1440 C 140.645 -3.47061 0.128856 0
M  V30 1441 C 139.599 -4.14363 1.07178 0
M  V30 1442 C 138.925 -5.33636 0.337229 0
M  V30 1443 C 140.225 -4.63492 2.40775 0
M  V30 1444 H 141.919 -2.51724 1.62097 0
M  V30 1445 H 139.465 -1.20991 0.780838 0
M  V30 1446 H 141.418 -4.21199 -0.130147 0
M  V30 1447 H 140.142 -3.16617 -0.80134 0
M  V30 1448 H 138.801 -3.42173 1.3158 0
M  V30 1449 H 138.449 -4.99449 -0.596606 0
M  V30 1450 H 138.149 -5.79609 0.965788 0
M  V30 1451 H 139.673 -6.10539 0.0861567 0
M  V30 1452 H 141.087 -5.2913 2.20669 0
M  V30 1453 H 139.484 -5.20148 2.99276 0
M  V30 1454 H 140.554 -3.78834 3.02676 0
M  V30 1455 N 141.898 -0.863906 -1.31812 0
M  V30 1456 C 142.828 -0.330843 -2.31144 0
M  V30 1457 C 143.809 0.575005 -1.60087 0
M  V30 1458 O 144.994 0.493304 -1.8783 0
M  V30 1459 C 142.124 0.47374 -3.44054 0
M  V30 1460 C 141.078 -0.338481 -4.26659 0
M  V30 1461 C 140.404 0.591412 -5.31419 0
M  V30 1462 C 141.704 -1.56926 -4.98168 0
M  V30 1463 H 143.398 -1.16086 -2.75979 0
M  V30 1464 H 140.944 -0.559657 -1.32679 0
M  V30 1465 H 142.897 0.857143 -4.12591 0
M  V30 1466 H 141.621 1.33721 -2.9797 0
M  V30 1467 H 140.28 -0.703754 -3.59782 0
M  V30 1468 H 139.928 1.45199 -4.81587 0
M  V30 1469 H 139.628 0.0519022 -5.87577 0
M  V30 1470 H 141.152 0.97179 -6.02817 0
M  V30 1471 H 142.566 -1.25764 -5.59336 0
M  V30 1472 H 140.963 -2.04739 -5.64094 0
M  V30 1473 H 142.033 -2.32544 -4.25501 0
M  V30 1474 N 143.376 1.44774 -0.622745 0
M  V30 1475 C 144.625 2.01334 -0.121397 0
M  V30 1476 C 144.938 1.49505 1.26125 0
M  V30 1477 O 146.144 1.98139 1.85616 0
M  V30 1478 C 144.6 3.59516 -0.166298 0
M  V30 1479 C 144.208 4.20342 -1.54974 0
M  V30 1480 C 145.952 4.23582 0.279021 0
M  V30 1481 C 143.859 5.70721 -1.55021 0
M  V30 1482 H 142.789 0.752851 -0.0416172 0
M  V30 1483 H 145.44 1.66083 -0.780309 0
M  V30 1484 H 143.822 3.92027 0.559557 0
M  V30 1485 H 144.996 3.99381 -2.29851 0
M  V30 1486 H 143.311 3.68529 -1.93843 0
M  V30 1487 H 145.908 5.33868 0.298083 0
M  V30 1488 H 146.251 3.95327 1.30471 0
M  V30 1489 H 146.784 3.95843 -0.394063 0
M  V30 1490 H 143.523 6.03698 -2.55399 0
M  V30 1491 H 143.043 5.93829 -0.844245 0
M  V30 1492 H 144.722 6.34203 -1.28047 0
M  V30 1493 N 144.854 0.36279 1.53368 0
M  V30 1494 C 145.802 -0.500155 2.27159 0
M  V30 1495 C 146.796 -1.08575 1.3003 0
M  V30 1496 O 148.002 -1.02927 1.47668 0
M  V30 1497 H 144.377 -0.180009 0.730138 0
M  V30 1498 H 146.348 0.14401 2.98052 0
M  V30 1499 C 145.097 -1.62937 3.07159 0
M  V30 1500 H 144.42 -1.18806 3.8174 0
M  V30 1501 H 145.86 -2.20795 3.61975 0
M  V30 1502 C 144.319 -2.57007 2.17829 0
M  V30 1503 O 144.849 -3.59752 1.78721 0
M  V30 1504 N 143.055 -2.26131 1.82518 0
M  V30 1505 H 142.602 -1.42616 2.14519 0
M  V30 1506 H 142.56 -2.89327 1.23034 0
M  V30 1507 N 146.332 -1.57332 0.0918853 0
M  V30 1508 C 147.28 -2.15075 -0.885747 0
M  V30 1509 C 148.274 -1.09277 -1.29441 0
M  V30 1510 O 149.48 -1.27627 -1.26931 0
M  V30 1511 H 145.855 -0.687966 -0.303656 0
M  V30 1512 H 147.826 -2.96047 -0.373995 0
M  V30 1513 C 146.575 -2.74325 -2.13638 0
M  V30 1514 H 145.898 -3.55418 -1.8308 0
M  V30 1515 H 147.338 -3.183 -2.80109 0
M  V30 1516 C 145.797 -1.70062 -2.90827 0
M  V30 1517 O 146.327 -1.13763 -3.85254 0
M  V30 1518 N 144.533 -1.40628 -2.54307 0
M  V30 1519 H 144.08 -1.866 -1.7759 0
M  V30 1520 H 144.038 -0.711043 -3.06254 0
M  V30 1521 N 147.81 0.181792 -1.56548 0
M  V30 1522 C 148.773 1.20894 -1.94724 0
M  V30 1523 C 149.773 1.37738 -0.829747 0
M  V30 1524 O 150.963 1.35323 -1.09697 0
M  V30 1525 C 148.095 2.57593 -2.23291 0
M  V30 1526 H 149.288 0.882275 -2.86629 0
M  V30 1527 H 146.841 0.423838 -1.50444 0
M  V30 1528 H 147.576 2.95291 -1.34067 0
M  V30 1529 H 147.361 2.46735 -3.04736 0
M  V30 1530 H 148.851 3.31637 -2.53785 0
M  V30 1531 N 149.288 1.51039 0.449983 0
M  V30 1532 C 150.536 1.62759 1.19808 0
M  V30 1533 C 150.857 0.339981 1.92013 0
M  V30 1534 O 150.127 -0.643606 1.85026 0
M  V30 1535 H 148.707 0.599811 0.445237 0
M  V30 1536 H 151.369 1.87914 0.517138 0
M  V30 1537 H 150.465 2.44911 1.93455 0
M  V30 1538 N 150.766 -0.704594 1.40972 0
M  V30 1539 C 151.991 -1.49858 1.43378 0
M  V30 1540 C 152.416 -1.88061 0.038184 0
M  V30 1541 O 151.774 -1.5402 -0.956425 0
M  V30 1542 C 151.822 -2.74333 2.34038 0
M  V30 1543 O 150.926 -3.7147 1.7912 0
M  V30 1544 H 150.267 -0.45139 0.486974 0
M  V30 1545 H 152.797 -0.866832 1.8533 0
M  V30 1546 H 152.807 -3.22741 2.49604 0
M  V30 1547 H 151.482 -2.45863 3.35446 0
M  V30 1548 H 150.059 -3.30363 1.72958 0
M  V30 1549 N 152.244 -1.26651 -0.937939 0
M  V30 1550 C 153.174 -1.10993 -2.05433 0
M  V30 1551 C 154.155 -0.0142161 -1.70094 0
M  V30 1552 O 155.34 -0.186837 -1.93299 0
M  V30 1553 C 152.47 -0.745561 -3.39203 0
M  V30 1554 C 151.424 -1.79337 -3.88616 0
M  V30 1555 C 150.75 -1.28324 -5.19073 0
M  V30 1556 C 152.05 -3.19553 -4.13138 0
M  V30 1557 H 153.744 -2.0438 -2.1879 0
M  V30 1558 H 151.29 -0.984041 -1.05131 0
M  V30 1559 H 153.243 -0.622888 -4.16771 0
M  V30 1560 H 151.967 0.22401 -3.25831 0
M  V30 1561 H 150.626 -1.90477 -3.13231 0
M  V30 1562 H 150.274 -0.303414 -5.02084 0
M  V30 1563 H 149.974 -1.98369 -5.53103 0
M  V30 1564 H 151.498 -1.1733 -5.99221 0
M  V30 1565 H 152.912 -3.11471 -4.81309 0
M  V30 1566 H 151.309 -3.87218 -4.58457 0
M  V30 1567 H 152.379 -3.65368 -3.18801 0
M  V30 1568 N 153.722 1.14298 -1.08507 0
M  V30 1569 C 154.97 1.84993 -0.813763 0
M  V30 1570 C 155.291 1.83405 0.662393 0
M  V30 1571 O 154.561 1.28319 1.48024 0
M  V30 1572 H 153.141 0.684966 -0.298045 0
M  V30 1573 H 155.803 1.385 -1.37126 0
M  V30 1574 H 154.899 2.89788 -1.15884 0
M  V30 1575 N 155.201 0.870884 1.31352 0
M  V30 1576 C 156.478 0.402907 1.91405 0
M  V30 1577 C 156.858 -1.11512 1.79244 0
M  V30 1578 O 156.206 -1.94411 1.2007 0
M  V30 1579 C 156.416 0.885301 3.37585 0
M  V30 1580 C 157.764 0.911971 4.14691 0
M  V30 1581 O 158.788 0.831016 3.46371 0
M  V30 1582 O 157.647 1.02927 5.3672 0
M  V30 1583 H 154.741 0.120698 0.818145 0
M  V30 1584 H 157.287 0.958857 1.40014 0
M  V30 1585 H 156.059 1.92889 3.40455 0
M  V30 1586 H 155.682 0.307714 3.96407 0
M  V30 1587 N 156.679 -1.44442 0.630414 0
M  V30 1588 C 157.925 -2.02351 0.134816 0
M  V30 1589 C 158.258 -1.4947 -1.23986 0
M  V30 1590 O 157.533 -0.678475 -1.82283 0
M  V30 1591 C 157.816 -3.59898 0.120707 0
M  V30 1592 C 157.669 -4.23063 1.52767 0
M  V30 1593 C 158.988 -4.36585 -0.555127 0
M  V30 1594 H 156.107 -0.73527 0.0504646 0
M  V30 1595 H 158.749 -1.72022 0.806751 0
M  V30 1596 H 156.899 -3.85868 -0.451477 0
M  V30 1597 H 158.571 -4.08202 2.14869 0
M  V30 1598 H 156.814 -3.80586 2.08175 0
M  V30 1599 H 157.485 -5.32071 1.46984 0
M  V30 1600 H 159.961 -4.16044 -0.0685429 0
M  V30 1601 H 158.837 -5.46294 -0.534185 0
M  V30 1602 H 159.098 -4.11138 -1.62535 0
M  V30 1603 N 158.157 -0.370918 -1.53173 0
M  V30 1604 C 159.382 0.220293 -2.06227 0
M  V30 1605 C 159.807 1.41243 -1.24225 0
M  V30 1606 O 159.165 1.79387 -0.262645 0
M  V30 1607 C 159.213 0.586663 -3.55796 0
M  V30 1608 O 158.317 1.68317 -3.76488 0
M  V30 1609 H 157.658 0.0308099 -0.663285 0
M  V30 1610 H 160.188 -0.533068 -1.97534 0
M  V30 1611 H 160.198 0.85617 -3.98916 0
M  V30 1612 H 158.873 -0.285013 -4.14922 0
M  V30 1613 H 157.45 1.40881 -3.45264 0
M  V30 1614 N 159.635 1.57281 -0.100228 0
M  V30 1615 C 160.582 2.14305 0.856858 0
M  V30 1616 C 161.552 1.06296 1.27634 0
M  V30 1617 O 162.737 1.34109 1.35718 0
M  V30 1618 C 159.877 2.73184 2.10866 0
M  V30 1619 C 158.99 3.95442 1.73925 0
M  V30 1620 C 158.125 4.42468 2.93931 0
M  V30 1621 C 157.164 5.57303 2.5314 0
M  V30 1622 N 156.301 5.99158 3.65997 0
M  V30 1623 H 161.141 2.95772 0.363726 0
M  V30 1624 H 158.678 1.46139 0.167858 0
M  V30 1625 H 160.636 3.05442 2.84185 0
M  V30 1626 H 159.266 1.94437 2.57671 0
M  V30 1627 H 158.318 3.69464 0.905554 0
M  V30 1628 H 159.63 4.78769 1.39935 0
M  V30 1629 H 158.784 4.76537 3.75496 0
M  V30 1630 H 157.523 3.58052 3.31134 0
M  V30 1631 H 156.528 5.22857 1.70003 0
M  V30 1632 H 157.753 6.43471 2.17075 0
M  V30 1633 H 155.699 5.17687 4.02909 0
M  V30 1634 H 155.616 6.77295 3.35869 0
M  V30 1635 H 156.884 6.3786 4.48057 0
M  V30 1636 N 161.113 -0.173488 1.56642 0
M  V30 1637 C 162.361 -0.888706 1.81512 0
M  V30 1638 C 162.682 -1.82875 0.676872 0
M  V30 1639 O 161.952 -1.93536 -0.303414 0
M  V30 1640 H 160.532 -0.331164 0.669582 0
M  V30 1641 H 163.194 -0.173823 1.94123 0
M  V30 1642 H 162.29 -1.46691 2.75478 0
M  V30 1643 N 162.591 -1.51276 -0.441967 0
M  V30 1644 C 163.838 -1.63715 -1.19179 0
M  V30 1645 C 164.166 -0.351175 -1.91303 0
M  V30 1646 O 163.421 0.664524 -1.84072 0
M  V30 1647 C 163.72 -2.78746 -2.23686 0
M  V30 1648 C 163.386 -4.18189 -1.68607 0
M  V30 1649 C 162.048 -4.56125 -1.53308 0
M  V30 1650 C 164.4 -5.05222 -1.28062 0
M  V30 1651 C 161.728 -5.78804 -0.959317 0
M  V30 1652 C 164.08 -6.28476 -0.721162 0
M  V30 1653 C 162.744 -6.65188 -0.55504 0
M  V30 1654 H 162.014 -0.599076 -0.436106 0
M  V30 1655 H 164.661 -1.85296 -0.48351 0
M  V30 1656 H 162.966 -2.51369 -3.00535 0
M  V30 1657 H 164.663 -2.8557 -2.81515 0
M  V30 1658 H 161.253 -3.88277 -1.8149 0
M  V30 1659 H 165.437 -4.76524 -1.38704 0
M  V30 1660 H 160.693 -6.05899 -0.81833 0
M  V30 1661 H 164.867 -6.95259 -0.398458 0
M  V30 1662 H 162.494 -7.60123 -0.108311 0
M  V30 1663 N 164.069 0.697108 -1.41344 0
M  V30 1664 C 165.315 1.4593 -1.40827 0
M  V30 1665 C 165.648 1.94193 -0.0167098 0
M  V30 1666 O 164.923 1.69425 0.955263 0
M  V30 1667 C 165.206 2.67229 -2.41373 0
M  V30 1668 C 165.059 2.24741 -3.8963 0
M  V30 1669 C 166.378 3.69423 -2.39196 0
M  V30 1670 H 163.497 0.529303 -0.512842 0
M  V30 1671 H 166.139 0.794112 -1.72609 0
M  V30 1672 H 164.289 3.23982 -2.14401 0
M  V30 1673 H 165.961 1.73327 -4.27499 0
M  V30 1674 H 164.204 1.56542 -4.0457 0
M  V30 1675 H 164.875 3.1177 -4.55525 0
M  V30 1676 H 167.351 3.2234 -2.63128 0
M  V30 1677 H 166.227 4.51907 -3.11563 0
M  V30 1678 H 166.488 4.19012 -1.41001 0
M  V30 1679 N 165.547 1.27147 0.931209 0
M  V30 1680 C 166.824 1.0401 1.65654 0
M  V30 1681 C 167.204 -0.426297 2.06751 0
M  V30 1682 O 166.552 -1.40879 1.79904 0
M  V30 1683 C 166.762 1.99834 2.86125 0
M  V30 1684 C 168.11 2.29007 3.57549 0
M  V30 1685 O 169.134 1.97779 2.96246 0
M  V30 1686 O 167.993 2.82222 4.67989 0
M  V30 1687 H 165.087 0.396239 0.725895 0
M  V30 1688 H 167.633 1.38397 0.982056 0
M  V30 1689 H 166.405 2.98744 2.52721 0
M  V30 1690 H 166.028 1.65987 3.61295 0
M  V30 1691 N 167.025 -1.13721 1.09112 0
M  V30 1692 C 167.955 -2.21148 0.749385 0
M  V30 1693 C 168.936 -1.6792 -0.271475 0
M  V30 1694 O 170.121 -1.93693 -0.140251 0
M  V30 1695 C 167.251 -3.46905 0.165659 0
M  V30 1696 C 166.205 -4.13203 1.11567 0
M  V30 1697 C 165.531 -5.33248 0.393809 0
M  V30 1698 C 166.831 -4.60912 2.45678 0
M  V30 1699 H 168.525 -2.4999 1.64758 0
M  V30 1700 H 166.071 -1.20156 0.793626 0
M  V30 1701 H 168.024 -4.21313 -0.085466 0
M  V30 1702 H 166.748 -3.17449 -0.767714 0
M  V30 1703 H 165.407 -3.40758 1.35202 0
M  V30 1704 H 165.055 -5.00054 -0.543599 0
M  V30 1705 H 164.755 -5.78552 1.02721 0
M  V30 1706 H 166.279 -6.10413 0.150908 0
M  V30 1707 H 167.693 -5.26759 2.26269 0
M  V30 1708 H 166.09 -5.16944 3.04776 0
M  V30 1709 H 167.16 -3.75603 3.06677 0
M  V30 1710 N 168.503 -0.877838 -1.30888 0
M  V30 1711 C 169.728 -0.506629 -2.01117 0
M  V30 1712 C 170.153 0.895564 -1.65412 0
M  V30 1713 O 169.511 1.5923 -0.866922 0
M  V30 1714 C 169.559 -0.680223 -3.54126 0
M  V30 1715 O 168.663 0.277033 -4.11468 0
M  V30 1716 H 168.004 -0.200518 -0.633 0
M  V30 1717 H 170.534 -1.18342 -1.66902 0
M  V30 1718 H 170.544 -0.5765 -4.03907 0
M  V30 1719 H 169.219 -1.70261 -3.79452 0
M  V30 1720 H 167.796 0.127606 -3.72682 0
M  V30 1721 N 169.982 1.44106 -0.638065 0
M  V30 1722 C 171.259 1.95453 -0.0759321 0
M  V30 1723 C 171.639 1.57984 1.40015 0
M  V30 1724 O 170.987 0.857361 2.11806 0
M  V30 1725 C 171.197 3.47655 -0.306132 0
M  V30 1726 C 172.545 4.24114 -0.203008 0
M  V30 1727 O 173.569 3.55405 -0.237871 0
M  V30 1728 O 172.428 5.46381 -0.113827 0
M  V30 1729 H 169.522 0.826797 0.0183332 0
M  V30 1730 H 172.068 1.54122 -0.710251 0
M  V30 1731 H 170.84 3.68 -1.3301 0
M  V30 1732 H 170.463 3.95949 0.361991 0
M  V30 1733 N 171.46 0.379036 1.52974 0
M  V30 1734 C 172.685 -0.209353 2.06341 0
M  V30 1735 C 173.11 -1.40583 1.24972 0
M  V30 1736 O 172.468 -1.79246 0.272155 0
M  V30 1737 C 172.516 -0.567786 3.56102 0
M  V30 1738 O 171.62 -1.66318 3.77375 0
M  V30 1739 H 170.961 -0.0272919 0.663439 0
M  V30 1740 H 173.491 0.543536 1.97248 0
M  V30 1741 H 173.501 -0.835003 3.99364 0
M  V30 1742 H 172.176 0.307013 4.14765 0
M  V30 1743 H 170.753 -1.39048 3.46006 0
M  V30 1744 N 172.938 -1.57226 0.108567 0
M  V30 1745 C 174.166 -1.99179 -0.559954 0
M  V30 1746 C 174.581 -0.988022 -1.60884 0
M  V30 1747 O 173.938 0.0205512 -1.82488 0
M  V30 1748 C 173.989 -3.41159 -1.19552 0
M  V30 1749 O 173.71 -4.37694 -0.188577 0
M  V30 1750 C 175.211 -3.98188 -1.94837 0
M  V30 1751 H 172.431 -0.654228 -0.149088 0
M  V30 1752 H 174.975 -2.03598 0.19183 0
M  V30 1753 H 173.13 -3.37711 -1.89815 0
M  V30 1754 H 173.544 -5.20469 -0.649014 0
M  V30 1755 H 175.018 -4.99644 -2.34648 0
M  V30 1756 H 175.495 -3.3675 -2.81951 0
M  V30 1757 H 176.101 -4.0515 -1.2936 0
M  V30 1758 N 174.416 0.165178 -1.56732 0
M  V30 1759 C 175.348 1.22911 -1.93457 0
M  V30 1760 C 176.361 1.40152 -0.828333 0
M  V30 1761 O 177.55 1.40046 -1.10677 0
M  V30 1762 C 174.65 2.59686 -2.17753 0
M  V30 1763 C 173.823 2.63663 -3.48999 0
M  V30 1764 C 172.882 3.81845 -3.62051 0
M  V30 1765 O 171.908 3.67559 -4.34613 0
M  V30 1766 N 173.11 4.98557 -2.97357 0
M  V30 1767 H 175.875 0.917118 -2.85323 0
M  V30 1768 H 173.436 0.354895 -1.57962 0
M  V30 1769 H 175.428 3.37225 -2.23743 0
M  V30 1770 H 173.998 2.83251 -1.32242 0
M  V30 1771 H 173.218 1.72173 -3.54612 0
M  V30 1772 H 174.506 2.63336 -4.35352 0
M  V30 1773 H 173.904 5.13065 -2.38287 0
M  V30 1774 H 172.461 5.73936 -3.08934 0
M  V30 1775 N 175.894 1.51508 0.433938 0
M  V30 1776 C 177.14 1.64588 1.18484 0
M  V30 1777 C 177.473 0.362666 1.90784 0
M  V30 1778 O 176.748 -0.637892 1.83742 0
M  V30 1779 C 177.031 2.85149 2.19913 0
M  V30 1780 C 176.884 4.23456 1.51674 0
M  V30 1781 C 178.203 3.01227 3.20858 0
M  V30 1782 H 175.322 0.598994 0.429389 0
M  V30 1783 H 177.964 1.84002 0.473647 0
M  V30 1784 H 176.114 2.68729 2.80566 0
M  V30 1785 H 177.786 4.51552 0.943322 0
M  V30 1786 H 176.029 4.25998 0.819035 0
M  V30 1787 H 176.7 5.03812 2.2556 0
M  V30 1788 H 179.176 3.16382 2.70263 0
M  V30 1789 H 178.052 3.87141 3.89118 0
M  V30 1790 H 178.313 2.13447 3.8716 0
M  V30 1791 N 177.372 -0.689602 1.41712 0
M  V30 1792 C 178.32 -1.82475 1.44242 0
M  V30 1793 C 179.314 -1.66354 0.319774 0
M  V30 1794 O 180.52 -1.73143 0.492089 0
M  V30 1795 H 176.895 -0.601416 0.451445 0
M  V30 1796 H 178.866 -1.77458 2.39899 0
M  V30 1797 C 177.615 -3.20535 1.3473 0
M  V30 1798 H 176.938 -3.33559 2.20405 0
M  V30 1799 H 178.378 -4.00023 1.40562 0
M  V30 1800 C 176.837 -3.36846 0.0603281 0
M  V30 1801 O 177.367 -3.91656 -0.892663 0
M  V30 1802 N 175.573 -2.90595 -0.0177039 0
M  V30 1803 H 175.12 -2.46178 0.758572 0
M  V30 1804 H 175.078 -3.01886 -0.878201 0
M  V30 1805 N 178.85 -1.27639 -0.924453 0
M  V30 1806 C 179.798 -1.10485 -2.04685 0
M  V30 1807 C 180.792 -0.0270421 -1.69378 0
M  V30 1808 O 181.998 -0.185008 -1.79047 0
M  V30 1809 H 178.373 -0.340546 -0.670472 0
M  V30 1810 H 180.344 -2.05566 -2.16298 0
M  V30 1811 C 179.093 -0.772229 -3.39016 0
M  V30 1812 H 178.416 -1.59351 -3.66671 0
M  V30 1813 H 179.856 -0.692097 -4.18313 0
M  V30 1814 C 178.315 0.523554 -3.32807 0
M  V30 1815 O 178.845 1.55702 -3.70297 0
M  V30 1816 N 177.051 0.520363 -2.85903 0
M  V30 1817 H 176.598 -0.32107 -2.55591 0
M  V30 1818 H 176.556 1.38742 -2.82131 0
M  V30 1819 N 180.328 1.1314 -1.09713 0
M  V30 1820 C 181.558 1.88048 -0.855656 0
M  V30 1821 C 181.966 1.79537 0.596919 0
M  V30 1822 O 181.309 1.16196 1.42282 0
M  V30 1823 C 181.371 3.38314 -1.21589 0
M  V30 1824 C 181.035 3.70605 -2.67397 0
M  V30 1825 C 182.032 3.69596 -3.65643 0
M  V30 1826 C 179.717 4.0017 -3.03593 0
M  V30 1827 C 181.711 3.977 -4.9811 0
M  V30 1828 C 179.398 4.27935 -4.36251 0
M  V30 1829 C 180.396 4.26685 -5.33318 0
M  V30 1830 O 180.084 4.53767 -6.63589 0
M  V30 1831 H 179.816 0.60208 -0.307368 0
M  V30 1832 H 182.37 1.44128 -1.46343 0
M  V30 1833 H 180.6 3.82752 -0.551177 0
M  V30 1834 H 182.289 3.94552 -0.953083 0
M  V30 1835 H 183.055 3.46826 -3.39023 0
M  V30 1836 H 178.934 4.00289 -2.2867 0
M  V30 1837 H 182.478 3.9664 -5.73866 0
M  V30 1838 H 178.375 4.50178 -4.62613 0
M  V30 1839 H 179.143 4.71422 -6.69107 0
M  V30 1840 N 181.806 0.884767 1.30421 0
M  V30 1841 C 183.052 0.513218 1.96819 0
M  V30 1842 C 183.407 -0.927347 1.68577 0
M  V30 1843 O 182.7 -1.64644 0.979941 0
M  V30 1844 C 182.894 0.724318 3.49983 0
M  V30 1845 C 182.723 2.18385 3.93113 0
M  V30 1846 C 181.493 2.82839 4.18725 0
M  V30 1847 C 183.691 3.15763 4.05953 0
M  V30 1848 N 181.673 4.1939 4.48314 0
M  V30 1849 C 183.044 4.37387 4.39423 0
M  V30 1850 C 185.099 3.11555 3.88379 0
M  V30 1851 C 183.802 5.55343 4.5715 0
M  V30 1852 C 185.828 4.28782 4.07308 0
M  V30 1853 C 185.19 5.49172 4.41123 0
M  V30 1854 H 181.289 0.237123 0.745182 0
M  V30 1855 H 183.873 1.14246 1.57658 0
M  V30 1856 H 182.044 0.124565 3.882 0
M  V30 1857 H 183.776 0.31969 4.03435 0
M  V30 1858 H 180.531 2.33708 4.11919 0
M  V30 1859 H 180.955 4.89911 4.67243 0
M  V30 1860 H 185.597 2.19576 3.61312 0
M  V30 1861 H 183.315 6.47826 4.8306 0
M  V30 1862 H 186.901 4.26995 3.95179 0
M  V30 1863 H 185.781 6.38371 4.55469 0
M  V30 1864 N 183.284 -1.43765 0.645699 0
M  V30 1865 C 184.247 -2.29163 -0.0409488 0
M  V30 1866 C 185.247 -1.41813 -0.757996 0
M  V30 1867 O 186.437 -1.63527 -0.600382 0
M  V30 1868 C 183.569 -3.23716 -1.06869 0
M  V30 1869 H 184.762 -2.91366 0.710345 0
M  V30 1870 H 182.315 -1.5092 0.406547 0
M  V30 1871 H 183.05 -2.66393 -1.84947 0
M  V30 1872 H 182.835 -3.88105 -0.558277 0
M  V30 1873 H 184.325 -3.87831 -1.54845 0
M  V30 1874 N 184.763 -0.387143 -1.52771 0
M  V30 1875 C 185.693 0.440551 -2.29306 0
M  V30 1876 C 186.674 1.06535 -1.32606 0
M  V30 1877 O 187.859 1.07853 -1.61497 0
M  V30 1878 C 184.989 1.56919 -3.09829 0
M  V30 1879 C 183.943 1.07054 -4.14395 0
M  V30 1880 C 183.269 2.29109 -4.83129 0
M  V30 1881 C 184.569 0.140015 -5.22112 0
M  V30 1882 H 186.263 -0.198026 -2.98744 0
M  V30 1883 H 183.809 -0.09668 -1.43675 0
M  V30 1884 H 185.762 2.15503 -3.62128 0
M  V30 1885 H 184.486 2.23532 -2.3812 0
M  V30 1886 H 183.145 0.507247 -3.63074 0
M  V30 1887 H 182.793 2.94227 -4.0797 0
M  V30 1888 H 182.493 1.96406 -5.53804 0
M  V30 1889 H 184.017 2.88339 -5.38231 0
M  V30 1890 H 185.431 0.633978 -5.69784 0
M  V30 1891 H 183.828 -0.0971485 -6.00021 0
M  V30 1892 H 184.898 -0.811711 -4.78058 0
M  V30 1893 N 186.241 1.57166 -0.116904 0
M  V30 1894 C 187.189 2.16457 0.851418 0
M  V30 1895 C 188.183 1.11323 1.27686 0
M  V30 1896 O 189.389 1.2963 1.24884 0
M  V30 1897 H 185.764 0.69271 0.292672 0
M  V30 1898 H 187.735 2.96605 0.32685 0
M  V30 1899 C 186.484 2.77689 2.09246 0
M  V30 1900 H 185.807 3.58285 1.77402 0
M  V30 1901 H 187.247 3.22716 2.7501 0
M  V30 1902 C 185.706 1.74667 2.88085 0
M  V30 1903 O 186.236 1.19877 3.83396 0
M  V30 1904 N 184.442 1.44656 2.52038 0
M  V30 1905 H 183.989 1.89402 1.74599 0
M  V30 1906 H 183.947 0.759675 3.05084 0
M  V30 1907 N 187.719 -0.156864 1.56817 0
M  V30 1908 C 188.649 -1.19589 2.00551 0
M  V30 1909 C 189.63 -1.4536 0.883426 0
M  V30 1910 O 190.815 -1.56449 1.15054 0
M  V30 1911 C 187.945 -2.53143 2.37773 0
M  V30 1912 C 186.899 -2.41913 3.53075 0
M  V30 1913 C 186.225 -3.80088 3.76081 0
M  V30 1914 C 187.525 -1.91157 4.86062 0
M  V30 1915 H 189.219 -0.832293 2.87599 0
M  V30 1916 H 186.765 -0.398918 1.38364 0
M  V30 1917 H 188.718 -3.26047 2.66967 0
M  V30 1918 H 187.442 -2.91319 1.4765 0
M  V30 1919 H 186.101 -1.71462 3.24031 0
M  V30 1920 H 185.749 -4.15683 2.83225 0
M  V30 1921 H 185.449 -3.73439 4.53671 0
M  V30 1922 H 186.973 -4.54556 4.0769 0
M  V30 1923 H 188.387 -2.53846 5.14038 0
M  V30 1924 H 186.784 -1.95422 5.67389 0
M  V30 1925 H 187.854 -0.866673 4.77092 0
M  V30 1926 N 189.197 -1.51736 -0.425897 0
M  V30 1927 C 190.425 -1.68794 -1.1965 0
M  V30 1928 C 190.84 -0.390164 -1.84725 0
M  V30 1929 O 190.197 0.632376 -1.71194 0
M  V30 1930 C 190.248 -2.81174 -2.27208 0
M  V30 1931 O 189.969 -4.05925 -1.64793 0
M  V30 1932 C 191.47 -3.09599 -3.17275 0
M  V30 1933 H 188.69 -0.566128 -0.360194 0
M  V30 1934 H 191.234 -1.98211 -0.503249 0
M  V30 1935 H 189.389 -2.54324 -2.9223 0
M  V30 1936 H 189.803 -4.68423 -2.35967 0
M  V30 1937 H 191.277 -3.91786 -3.88854 0
M  V30 1938 H 191.754 -2.22468 -3.78688 0
M  V30 1939 H 192.36 -3.38151 -2.57941 0
M  V30 1940 N 190.675 0.682077 -1.42076 0
M  V30 1941 C 191.9 1.47558 -1.45744 0
M  V30 1942 C 192.325 1.87977 -0.0680981 0
M  V30 1943 O 191.683 1.55522 0.9318 0
M  V30 1944 C 191.731 2.70575 -2.38373 0
M  V30 1945 O 190.835 3.68573 -1.85007 0
M  V30 1946 H 190.176 0.443585 -0.494093 0
M  V30 1947 H 192.706 0.837238 -1.86686 0
M  V30 1948 H 192.716 3.18729 -2.54707 0
M  V30 1949 H 191.391 2.40495 -3.39315 0
M  V30 1950 H 189.968 3.2757 -1.78192 0
M  V30 1951 N 192.153 1.28127 0.917671 0
M  V30 1952 C 193.086 1.06039 2.02067 0
M  V30 1953 C 194.064 -0.0223285 1.62585 0
M  V30 1954 O 195.248 0.124823 1.88086 0
M  V30 1955 C 192.375 0.610596 3.33151 0
M  V30 1956 C 191.421 1.68937 3.91615 0
M  V30 1957 S 192.254 3.28437 4.22953 0
M  V30 1958 C 193.41 2.85283 5.57103 0
M  V30 1959 H 193.643 1.99425 2.20493 0
M  V30 1960 H 191.176 1.12071 1.06205 0
M  V30 1961 H 193.134 0.357778 4.08938 0
M  V30 1962 H 191.795 -0.303364 3.12632 0
M  V30 1963 H 190.988 1.32619 4.86239 0
M  V30 1964 H 190.59 1.89478 3.2245 0
M  V30 1965 H 192.882 2.3121 6.36827 0
M  V30 1966 H 193.825 3.7869 5.98331 0
M  V30 1967 H 194.233 2.24118 5.18104 0
M  V30 1968 N 193.631 -1.12557 1.10312 0
M  V30 1969 C 194.561 -2.20341 0.772798 0
M  V30 1970 C 195.542 -1.68198 -0.25365 0
M  V30 1971 O 196.727 -1.93831 -0.119699 0
M  V30 1972 C 193.857 -3.46709 0.202443 0
M  V30 1973 C 192.811 -4.11996 1.15943 0
M  V30 1974 C 192.137 -5.328 0.450345 0
M  V30 1975 C 193.437 -4.5828 2.50552 0
M  V30 1976 H 195.131 -2.48229 1.674 0
M  V30 1977 H 192.677 -1.19308 0.806326 0
M  V30 1978 H 194.63 -4.2138 -0.0407752 0
M  V30 1979 H 193.354 -3.18245 -0.734001 0
M  V30 1980 H 192.013 -3.39305 1.38808 0
M  V30 1981 H 191.661 -5.00602 -0.490531 0
M  V30 1982 H 191.361 -5.7743 1.08851 0
M  V30 1983 H 192.885 -6.10219 0.215642 0
M  V30 1984 H 194.299 -5.2433 2.31843 0
M  V30 1985 H 192.696 -5.13683 3.10242 0
M  V30 1986 H 193.766 -3.72329 3.10643 0
M  V30 1987 N 195.109 -0.891671 -1.2995 0
M  V30 1988 C 196.349 -0.520296 -1.97667 0
M  V30 1989 C 196.713 0.914797 -1.68806 0
M  V30 1990 O 197.914 1.39263 -2.29911 0
M  V30 1991 C 196.185 -0.795222 -3.48441 0
M  V30 1992 S 197.744 -0.526953 -4.35624 0
M  V30 1993 H 194.562 -0.19333 -0.684211 0
M  V30 1994 H 197.164 -1.15238 -1.57926 0
M  V30 1995 H 195.868 -1.83805 -3.66938 0
M  V30 1996 H 195.399 -0.15095 -3.9311 0
M  V30 1997 H 197.414 0.631533 -4.92165 0
M  V30 1998 N 196.587 1.43421 -0.653314 0
M  V30 1999 C 197.517 2.33487 0.0246656 0
M  V30 2000 C 198.498 1.49475 0.811863 0
M  V30 2001 O 199.683 1.78139 0.773322 0
M  V30 2002 C 196.813 3.32841 0.99166 0
M  V30 2003 C 195.767 4.26842 0.314568 0
M  V30 2004 C 195.093 5.16236 1.39302 0
M  V30 2005 C 196.393 5.16243 -0.793095 0
M  V30 2006 H 198.087 2.90427 -0.727481 0
M  V30 2007 H 195.633 1.39649 -0.351287 0
M  V30 2008 H 197.586 3.94747 1.47487 0
M  V30 2009 H 196.31 2.74158 1.77497 0
M  V30 2010 H 194.969 3.663 -0.148199 0
M  V30 2011 H 194.617 4.53891 2.16776 0
M  V30 2012 H 194.317 5.79948 0.945223 0
M  V30 2013 H 195.841 5.81015 1.87759 0
M  V30 2014 H 197.255 5.71958 -0.392039 0
M  V30 2015 H 195.652 5.88676 -1.16536 0
M  V30 2016 H 196.722 4.55927 -1.65103 0
M  V30 2017 N 198.065 0.39524 1.52563 0
M  V30 2018 C 199.293 -0.184943 2.06072 0
M  V30 2019 C 199.708 -1.40021 1.26647 0
M  V30 2020 O 199.065 -1.79767 0.314672 0
M  V30 2021 C 199.116 -0.549179 3.57304 0
M  V30 2022 O 198.837 0.617813 4.33722 0
M  V30 2023 C 200.338 -1.18459 4.2718 0
M  V30 2024 H 197.558 -0.0265025 0.670476 0
M  V30 2025 H 200.102 0.562184 1.96621 0
M  V30 2026 H 198.257 -1.2462 3.66809 0
M  V30 2027 H 198.671 0.317091 5.23541 0
M  V30 2028 H 200.145 -1.38976 5.34219 0
M  V30 2029 H 200.622 -2.15368 3.82771 0
M  V30 2030 H 201.228 -0.528163 4.22008 0
M  V30 2031 N 199.544 -1.57102 0.125237 0
M  V30 2032 C 200.769 -2.0019 -0.542101 0
M  V30 2033 C 201.194 -1.00449 -1.59034 0
M  V30 2034 O 200.552 0.0229423 -1.81285 0
M  V30 2035 C 200.6 -3.42129 -1.13929 0
M  V30 2036 O 199.704 -3.45307 -2.2547 0
M  V30 2037 H 199.045 -0.650171 -0.134812 0
M  V30 2038 H 201.575 -2.03461 0.215553 0
M  V30 2039 H 201.585 -3.80471 -1.4733 0
M  V30 2040 H 200.26 -4.14237 -0.371531 0
M  V30 2041 H 198.837 -3.1879 -1.93462 0
M  V30 2042 N 201.022 0.148545 -1.56898 0
M  V30 2043 C 202.247 0.880385 -1.87787 0
M  V30 2044 C 202.672 1.74018 -0.714093 0
M  V30 2045 O 202.03 1.78153 0.336343 0
M  V30 2046 C 202.078 1.71422 -3.17249 0
M  V30 2047 O 201.182 2.8183 -3.01074 0
M  V30 2048 H 200.523 0.245301 -0.617028 0
M  V30 2049 H 203.053 0.139826 -2.04122 0
M  V30 2050 H 203.063 2.10954 -3.49231 0
M  V30 2051 H 201.738 1.08284 -4.01556 0
M  V30 2052 H 200.315 2.45715 -2.80497 0
M  V30 2053 N 202.5 1.5196 0.417844 0
M  V30 2054 C 203.746 1.65836 1.16732 0
M  V30 2055 C 204.079 0.382881 1.90388 0
M  V30 2056 O 203.354 -0.618368 1.84408 0
M  V30 2057 C 203.637 2.87466 2.16876 0
M  V30 2058 C 203.49 4.25041 1.47174 0
M  V30 2059 C 204.809 3.04613 3.17646 0
M  V30 2060 H 201.928 0.603515 0.423011 0
M  V30 2061 H 204.57 1.84494 0.454105 0
M  V30 2062 H 202.72 2.71689 2.777 0
M  V30 2063 H 204.392 4.52527 0.895376 0
M  V30 2064 H 202.635 4.26843 0.773806 0
M  V30 2065 H 203.306 5.06176 2.20204 0
M  V30 2066 H 205.782 3.1923 2.66892 0
M  V30 2067 H 204.658 3.91247 3.8499 0
M  V30 2068 H 204.919 2.17541 3.84874 0
M  V30 2069 N 203.978 -0.674533 1.42435 0
M  V30 2070 C 204.908 -1.80009 1.48724 0
M  V30 2071 C 205.889 -1.6659 0.343793 0
M  V30 2072 O 207.074 -1.86007 0.558137 0
M  V30 2073 C 204.204 -3.18306 1.38919 0
M  V30 2074 C 203.158 -3.46461 2.51294 0
M  V30 2075 C 202.484 -4.84335 2.26547 0
M  V30 2076 C 203.784 -3.43328 3.93603 0
M  V30 2077 H 205.478 -1.75004 2.42928 0
M  V30 2078 H 203.024 -0.840533 1.16923 0
M  V30 2079 H 204.977 -3.9678 1.41927 0
M  V30 2080 H 203.701 -3.2399 0.412094 0
M  V30 2081 H 202.36 -2.70348 2.47604 0
M  V30 2082 H 202.008 -4.86669 1.2713 0
M  V30 2083 H 201.708 -5.04136 3.01861 0
M  V30 2084 H 203.232 -5.65094 2.31304 0
M  V30 2085 H 204.646 -4.11772 3.98894 0
M  V30 2086 H 203.043 -3.74664 4.68771 0
M  V30 2087 H 204.113 -2.41897 4.20255 0
M  V30 2088 N 205.456 -1.28612 -0.910864 0
M  V30 2089 C 206.403 -1.12786 -2.01365 0
M  V30 2090 C 207.373 -0.024201 -1.66082 0
M  V30 2091 O 208.558 -0.189667 -1.89855 0
M  V30 2092 C 205.698 -0.798743 -3.35729 0
M  V30 2093 C 204.811 -1.98173 -3.83864 0
M  V30 2094 C 203.946 -1.59298 -5.06752 0
M  V30 2095 C 202.985 -2.74245 -5.47226 0
M  V30 2096 N 202.122 -2.35842 -6.61304 0
M  V30 2097 H 206.962 -2.07142 -2.14234 0
M  V30 2098 H 204.499 -1.03093 -1.0493 0
M  V30 2099 H 206.457 -0.588662 -4.13026 0
M  V30 2100 H 205.087 0.10789 -3.2262 0
M  V30 2101 H 204.139 -2.30386 -3.02699 0
M  V30 2102 H 205.451 -2.84343 -4.09818 0
M  V30 2103 H 204.605 -1.34513 -5.916 0
M  V30 2104 H 203.344 -0.702618 -4.82612 0
M  V30 2105 H 202.349 -2.99725 -4.60918 0
M  V30 2106 H 203.574 -3.63928 -5.73353 0
M  V30 2107 H 201.52 -1.49279 -6.38789 0
M  V30 2108 H 201.437 -3.15546 -6.86998 0
M  V30 2109 H 202.705 -2.14348 -7.4945 0
M  V30 2110 N 206.934 1.1197 -1.10907 0
M  V30 2111 C 207.897 2.16031 -0.765707 0
M  V30 2112 C 208.897 1.59393 0.212235 0
M  V30 2113 O 210.087 1.74196 -0.0115441 0
M  V30 2114 C 207.219 3.40632 -0.135053 0
M  V30 2115 H 208.412 2.47919 -1.68748 0
M  V30 2116 H 205.965 1.27061 -0.910226 0
M  V30 2117 H 206.7 3.14348 0.797218 0
M  V30 2118 H 206.485 3.8302 -0.838937 0
M  V30 2119 H 207.975 4.17505 0.0892469 0
M  V30 2120 N 208.412 0.89855 1.29475 0
M  V30 2121 C 209.659 0.523882 1.95606 0
M  V30 2122 C 209.987 -0.929608 1.70847 0
M  V30 2123 O 209.242 -1.67401 1.01367 0
M  V30 2124 C 209.541 0.761398 3.49195 0
M  V30 2125 C 209.207 2.19207 3.94029 0
M  V30 2126 C 207.869 2.58326 4.05982 0
M  V30 2127 C 210.221 3.12379 4.17216 0
M  V30 2128 C 207.549 3.898 4.38489 0
M  V30 2129 C 209.901 4.43401 4.51197 0
M  V30 2130 C 208.565 4.82394 4.61359 0
M  V30 2131 H 207.835 0.191702 0.715773 0
M  V30 2132 H 210.482 1.13699 1.54094 0
M  V30 2133 H 208.787 0.0653622 3.91745 0
M  V30 2134 H 210.484 0.450904 3.98457 0
M  V30 2135 H 207.074 1.87846 3.85242 0
M  V30 2136 H 211.258 2.83371 4.07449 0
M  V30 2137 H 206.514 4.19734 4.44559 0
M  V30 2138 H 210.688 5.15623 4.68087 0
M  V30 2139 H 208.315 5.84306 4.86303 0
M  V30 2140 N 209.89 -1.43072 0.660911 0
M  V30 2141 C 211.301 -1.84932 0.256348 0
M  V30 2142 C 211.652 -1.55325 -1.19868 0
M  V30 2143 O 210.777 -1.00607 -1.91591 0
M  V30 2144 C 211.372 -3.35684 0.458475 0
M  V30 2145 C 209.931 -3.76245 0.108161 0
M  V30 2146 C 209.078 -2.66749 0.757641 0
M  V30 2147 H 212.029 -1.33116 0.864051 0
M  V30 2148 H 212.05 -3.79365 -0.293683 0
M  V30 2149 H 211.562 -3.572 1.51755 0
M  V30 2150 H 209.663 -3.60338 -0.948014 0
M  V30 2151 H 209.776 -4.76058 0.538992 0
M  V30 2152 H 208.14 -2.53989 0.190185 0
M  V30 2153 H 208.923 -2.91092 1.81989 0
M  V30 2154 N 211.368 -0.403325 -1.52352 0
M  V30 2155 C 212.645 0.232611 -1.94212 0
M  V30 2156 C 213.025 1.63133 -1.33981 0
M  V30 2157 O 212.373 2.22659 -0.513344 0
M  V30 2158 C 212.583 0.244811 -3.4814 0
M  V30 2159 C 213.931 0.46698 -4.22024 0
M  V30 2160 O 214.955 0.324419 -3.5472 0
M  V30 2161 O 213.814 0.74747 -5.41364 0
M  V30 2162 H 210.908 0.148223 -0.813609 0
M  V30 2163 H 213.454 -0.458848 -1.63379 0
M  V30 2164 H 212.226 -0.734378 -3.84347 0
M  V30 2165 H 211.849 0.980611 -3.85318 0
M  V30 2166 N 212.846 1.57033 -0.133567 0
M  V30 2167 C 214.071 2.00475 0.531477 0
M  V30 2168 C 214.496 1.01291 1.58499 0
M  V30 2169 O 213.854 -0.0133279 1.81295 0
M  V30 2170 C 213.902 3.42729 1.12113 0
M  V30 2171 O 213.006 3.46498 2.23636 0
M  V30 2172 H 212.347 0.650876 0.131362 0
M  V30 2173 H 214.877 2.03344 -0.22634 0
M  V30 2174 H 214.887 3.81246 1.4531 0
M  V30 2175 H 213.562 4.14428 0.349557 0
M  V30 2176 H 212.139 3.19811 1.91769 0
M  V30 2177 N 214.325 -0.140222 1.56975 0
M  V30 2178 C 215.736 -0.699596 1.73097 0
M  V30 2179 C 216.087 -1.8134 0.749022 0
M  V30 2180 O 215.212 -2.16241 -0.0828503 0
M  V30 2181 C 215.807 -1.27582 3.1386 0
M  V30 2182 C 214.366 -1.78169 3.31561 0
M  V30 2183 C 213.513 -0.672855 2.69013 0
M  V30 2184 H 216.464 0.0855115 1.58469 0
M  V30 2185 H 216.485 -2.14561 3.14235 0
M  V30 2186 H 215.997 -0.464955 3.85305 0
M  V30 2187 H 214.098 -2.61801 2.65124 0
M  V30 2188 H 214.211 -1.90574 4.39566 0
M  V30 2189 H 212.575 -1.10118 2.29665 0
M  V30 2190 H 213.358 0.126679 3.43066 0
M  V30 2191 N 215.803 -1.52179 -0.40978 0
M  V30 2192 C 217.051 -1.65878 -1.15451 0
M  V30 2193 C 217.372 -0.390771 -1.91044 0
M  V30 2194 O 216.642 0.594323 -1.86667 0
M  V30 2195 H 215.222 -0.611405 -0.429177 0
M  V30 2196 H 217.884 -1.89219 -0.467134 0
M  V30 2197 H 216.98 -2.49954 -1.86894 0
M  V30 2198 N 217.281 0.66697 -1.42791 0
M  V30 2199 C 218.211 1.79218 -1.49677 0
M  V30 2200 C 219.192 1.66405 -0.352623 0
M  V30 2201 O 220.377 1.85708 -0.567993 0
M  V30 2202 C 217.507 3.17565 -1.40605 0
M  V30 2203 C 216.461 3.45124 -2.53127 0
M  V30 2204 C 215.787 4.83127 -2.29112 0
M  V30 2205 C 217.087 3.41236 -3.95418 0
M  V30 2206 H 218.781 1.73713 -2.43853 0
M  V30 2207 H 216.327 0.83432 -1.17367 0
M  V30 2208 H 218.28 3.96022 -1.44029 0
M  V30 2209 H 217.004 3.23767 -0.429271 0
M  V30 2210 H 215.663 2.69031 -2.49034 0
M  V30 2211 H 215.311 4.85988 -1.29709 0
M  V30 2212 H 215.011 5.02528 -3.04531 0
M  V30 2213 H 216.535 5.63859 -2.34297 0
M  V30 2214 H 217.949 4.09651 -4.01073 0
M  V30 2215 H 216.346 3.72173 -4.70752 0
M  V30 2216 H 217.416 2.39665 -4.21532 0
M  V30 2217 N 218.759 1.29093 0.90403 0
M  V30 2218 C 219.707 1.13727 2.02901 0
M  V30 2219 C 220.701 0.0539853 1.69314 0
M  V30 2220 O 221.907 0.213469 1.7873 0
M  V30 2221 H 218.282 0.35117 0.664969 0
M  V30 2222 H 220.253 2.08982 2.13001 0
M  V30 2223 C 219.002 0.826066 3.37745 0
M  V30 2224 H 218.325 1.65164 3.64089 0
M  V30 2225 H 219.765 0.758559 4.17159 0
M  V30 2226 C 218.224 -0.470541 3.33598 0
M  V30 2227 O 218.754 -1.49792 3.72727 0
M  V30 2228 N 216.96 -0.474812 2.86695 0
M  V30 2229 H 216.507 0.361692 2.55048 0
M  V30 2230 H 216.465 -1.34236 2.84303 0
M  V30 2231 N 220.237 -1.11381 1.11499 0
M  V30 2232 C 221.653 -1.35143 0.849031 0
M  V30 2233 C 221.853 -1.94515 -0.525938 0
M  V30 2234 O 220.909 -2.1785 -1.27662 0
M  V30 2235 C 222.222 -2.28249 1.95762 0
M  V30 2236 C 223.77 -2.41812 1.98736 0
M  V30 2237 C 224.245 -3.3824 3.088 0
M  V30 2238 N 225.736 -3.45803 3.08179 0
M  V30 2239 C 226.471 -4.20358 3.89982 0
M  V30 2240 N 225.967 -4.97884 4.8175 0
M  V30 2241 N 227.76 -4.15877 3.78157 0
M  V30 2242 H 219.911 -0.712062 2.00109 0
M  V30 2243 H 222.174 -0.376025 0.870235 0
M  V30 2244 H 221.88 -1.91817 2.94787 0
M  V30 2245 H 221.754 -3.28473 1.85433 0
M  V30 2246 H 224.141 -2.77518 1.00338 0
M  V30 2247 H 224.222 -1.41437 2.13141 0
M  V30 2248 H 223.866 -3.03261 4.07425 0
M  V30 2249 H 223.796 -4.38471 2.91635 0
M  V30 2250 H 226.287 -2.90506 2.41691 0
M  V30 2251 H 226.6 -5.52142 5.40702 0
M  V30 2252 H 224.945 -4.97043 4.85771 0
M  V30 2253 H 228.136 -3.544 3.05808 0
M  V30 2254 H 228.309 -4.73723 4.42143 0
M  V30 2255 N 221.715 -0.905404 -1.28997 0
M  V30 2256 C 222.943 -0.549846 -1.9946 0
M  V30 2257 C 223.358 0.866834 -1.67724 0
M  V30 2258 O 222.715 1.57298 -0.925404 0
M  V30 2259 C 222.766 -0.739387 -3.53858 0
M  V30 2260 O 222.487 -2.10031 -3.84472 0
M  V30 2261 C 223.988 -0.389541 -4.41585 0
M  V30 2262 H 221.208 -0.210429 -0.637151 0
M  V30 2263 H 223.752 -1.21632 -1.64396 0
M  V30 2264 H 221.907 -0.120023 -3.87214 0
M  V30 2265 H 222.321 -2.13385 -4.79132 0
M  V30 2266 H 223.795 -0.572972 -5.49018 0
M  V30 2267 H 224.272 0.673756 -4.34001 0
M  V30 2268 H 224.878 -0.986089 -4.1371 0
M  V30 2269 N 223.193 1.4272 -0.668489 0
M  V30 2270 C 224.439 2.01923 -0.188419 0
M  V30 2271 C 224.772 1.52704 1.19979 0
M  V30 2272 O 224.047 0.726566 1.8042 0
M  V30 2273 C 224.33 3.59451 -0.216085 0
M  V30 2274 C 224.183 4.18864 -1.6393 0
M  V30 2275 C 225.502 4.37903 0.439179 0
M  V30 2276 H 222.621 0.733674 -0.0699412 0
M  V30 2277 H 225.263 1.69822 -0.852076 0
M  V30 2278 H 223.413 3.86929 0.349012 0
M  V30 2279 H 225.085 4.02362 -2.25616 0
M  V30 2280 H 223.328 3.74933 -2.18193 0
M  V30 2281 H 223.999 5.27987 -1.61039 0
M  V30 2282 H 226.475 4.16079 -0.0417878 0
M  V30 2283 H 225.351 5.47519 0.389157 0
M  V30 2284 H 225.612 4.15303 1.51577 0
M  V30 2285 N 224.671 0.411399 1.52136 0
M  V30 2286 C 225.917 -0.163888 2.02137 0
M  V30 2287 C 226.25 -1.44597 1.29636 0
M  V30 2288 O 225.525 -1.90272 0.403353 0
M  V30 2289 C 225.808 -0.40927 3.57767 0
M  V30 2290 C 225.661 0.889643 4.40914 0
M  V30 2291 C 226.98 -1.19042 4.23694 0
M  V30 2292 H 224.099 -0.0580896 0.734707 0
M  V30 2293 H 226.741 0.54531 1.82007 0
M  V30 2294 H 224.891 -1.0134 3.7505 0
M  V30 2295 H 226.563 1.52575 4.35337 0
M  V30 2296 H 224.806 1.50011 4.07037 0
M  V30 2297 H 225.477 0.672314 5.4789 0
M  V30 2298 H 227.953 -0.678942 4.10524 0
M  V30 2299 H 226.829 -1.33086 5.32522 0
M  V30 2300 H 227.09 -2.21166 3.82803 0
M  V30 2301 N 226.149 -1.5696 0.141893 0
M  V30 2302 C 227.097 -2.17784 -0.816874 0
M  V30 2303 C 228.091 -1.1334 -1.25899 0
M  V30 2304 O 229.297 -1.316 -1.22806 0
M  V30 2305 H 225.672 -0.697278 -0.281615 0
M  V30 2306 H 227.643 -2.97087 -0.279621 0
M  V30 2307 C 226.392 -2.80983 -2.04802 0
M  V30 2308 H 225.715 -3.61062 -1.7168 0
M  V30 2309 H 227.155 -3.2705 -2.69841 0
M  V30 2310 C 225.614 -1.79228 -2.8527 0
M  V30 2311 O 226.144 -1.25962 -3.8144 0
M  V30 2312 N 224.35 -1.48647 -2.49704 0
M  V30 2313 H 223.897 -1.92155 -1.71564 0
M  V30 2314 H 223.855 -0.808115 -3.03837 0
M  V30 2315 N 227.627 0.131896 -1.57047 0
M  V30 2316 C 228.876 0.84044 -1.83356 0
M  V30 2317 C 229.189 1.81646 -0.725535 0
M  V30 2318 O 230.395 2.57025 -0.874659 0
M  V30 2319 C 228.851 1.54528 -3.25037 0
M  V30 2320 C 228.459 0.610902 -4.43815 0
M  V30 2321 C 230.203 2.23972 -3.60606 0
M  V30 2322 C 228.11 1.31823 -5.76521 0
M  V30 2323 H 227.04 0.317599 -0.683847 0
M  V30 2324 H 229.691 0.0931561 -1.83263 0
M  V30 2325 H 228.073 2.33873 -3.19561 0
M  V30 2326 H 229.247 -0.148407 -4.60561 0
M  V30 2327 H 227.562 0.0241016 -4.16393 0
M  V30 2328 H 230.159 2.77558 -4.57018 0
M  V30 2329 H 230.502 3.01173 -2.87403 0
M  V30 2330 H 231.035 1.51529 -3.6781 0
M  V30 2331 H 227.774 0.587771 -6.52859 0
M  V30 2332 H 227.294 2.04987 -5.63685 0
M  V30 2333 H 228.973 1.855 -6.19838 0
M  V30 2334 N 229.106 1.52395 0.401703 0
M  V30 2335 C 230.331 1.70972 1.17403 0
M  V30 2336 C 230.756 0.421615 1.83314 0
M  V30 2337 O 230.114 -0.621564 1.70312 0
M  V30 2338 C 230.162 2.85151 2.20728 0
M  V30 2339 O 229.266 2.51238 3.27037 0
M  V30 2340 H 228.607 0.568927 0.342372 0
M  V30 2341 H 231.137 1.99131 0.469891 0
M  V30 2342 H 231.147 3.10279 2.64936 0
M  V30 2343 H 229.822 3.78603 1.7214 0
M  V30 2344 H 228.399 2.36808 2.88057 0
M  V30 2345 N 230.584 -0.659388 1.43143 0
M  V30 2346 C 231.809 -1.45221 1.48073 0
M  V30 2347 C 232.234 -1.87845 0.097995 0
M  V30 2348 O 231.592 -1.56985 -0.90694 0
M  V30 2349 C 231.64 -2.66748 2.42647 0
M  V30 2350 O 230.744 -3.65583 1.90848 0
M  V30 2351 H 230.085 -0.435669 0.501088 0
M  V30 2352 H 232.615 -0.807432 1.87994 0
M  V30 2353 H 232.625 -3.14637 2.59745 0
M  V30 2354 H 231.3 -2.35067 3.43098 0
M  V30 2355 H 229.877 -3.24693 1.83381 0
M  V30 2356 N 232.062 -1.29571 -0.897171 0
M  V30 2357 C 232.992 -1.17473 -2.01798 0
M  V30 2358 C 233.973 -0.068323 -1.69963 0
M  V30 2359 O 235.158 -0.248239 -1.92607 0
M  V30 2360 C 232.288 -0.853099 -3.36659 0
M  V30 2361 C 231.242 -1.9161 -3.82713 0
M  V30 2362 C 230.568 -1.44773 -5.14728 0
M  V30 2363 C 231.868 -3.32535 -4.02763 0
M  V30 2364 H 233.562 -2.11237 -2.12177 0
M  V30 2365 H 231.108 -1.01699 -1.01948 0
M  V30 2366 H 233.061 -0.755165 -4.14578 0
M  V30 2367 H 231.785 0.120236 -3.26379 0
M  V30 2368 H 230.444 -2.00346 -3.07013 0
M  V30 2369 H 230.092 -0.462995 -5.00865 0
M  V30 2370 H 229.792 -2.15865 -5.46513 0
M  V30 2371 H 231.316 -1.36334 -5.95185 0
M  V30 2372 H 232.73 -3.26626 -4.71156 0
M  V30 2373 H 231.127 -4.01607 -4.45905 0
M  V30 2374 H 232.197 -3.75326 -3.07016 0
M  V30 2375 N 233.54 1.10788 -1.12088 0
M  V30 2376 C 234.78 1.84297 -0.883974 0
M  V30 2377 C 235.144 1.83036 0.579797 0
M  V30 2378 O 236.345 2.52061 0.933734 0
M  V30 2379 C 234.616 3.27173 -1.43849 0
M  V30 2380 S 236.175 4.17853 -1.33957 0
M  V30 2381 H 232.993 0.635433 -0.318977 0
M  V30 2382 H 235.595 1.33341 -1.4297 0
M  V30 2383 H 234.299 3.25658 -2.49749 0
M  V30 2384 H 233.83 3.83198 -0.890096 0
M  V30 2385 H 235.845 4.95239 -0.308603 0
M  V30 2386 N 235.018 0.912232 1.28515 0
M  V30 2387 C 235.981 0.404223 2.25607 0
M  V30 2388 C 236.981 -0.468602 1.53821 0
M  V30 2389 O 238.171 -0.271873 1.72065 0
M  V30 2390 C 235.303 -0.420653 3.38295 0
M  V30 2391 H 236.496 1.26188 2.7206 0
M  V30 2392 H 234.049 0.691495 1.40171 0
M  V30 2393 H 234.784 -1.29777 2.97201 0
M  V30 2394 H 234.569 0.204935 3.91564 0
M  V30 2395 H 236.059 -0.766971 4.10496 0
M  V30 2396 N 236.496 -1.42363 0.676048 0
M  V30 2397 C 237.426 -2.33497 0.0124832 0
M  V30 2398 C 238.407 -1.50748 -0.787981 0
M  V30 2399 O 239.592 -1.79346 -0.744884 0
M  V30 2400 C 236.722 -3.34377 -0.938582 0
M  V30 2401 C 235.676 -4.27289 -0.246622 0
M  V30 2402 C 235.002 -5.18386 -1.31071 0
M  V30 2403 C 236.302 -5.14916 0.875125 0
M  V30 2404 H 237.996 -2.89233 0.773593 0
M  V30 2405 H 235.542 -1.39073 0.37346 0
M  V30 2406 H 237.495 -3.97044 -1.41188 0
M  V30 2407 H 236.219 -2.76947 -1.73113 0
M  V30 2408 H 234.878 -3.66018 0.206456 0
M  V30 2409 H 234.526 -4.57282 -2.09528 0
M  V30 2410 H 234.226 -5.81378 -0.852839 0
M  V30 2411 H 235.75 -5.83929 -1.78492 0
M  V30 2412 H 237.164 -5.71262 0.482983 0
M  V30 2413 H 235.561 -5.86747 1.25887 0
M  V30 2414 H 236.631 -4.53242 1.72335 0
M  V30 2415 N 237.974 -0.419461 -1.51915 0
M  V30 2416 C 238.906 0.43646 -2.25006 0
M  V30 2417 C 239.919 1.00149 -1.28351 0
M  V30 2418 O 241.108 0.898674 -1.54227 0
M  V30 2419 C 238.208 1.6206 -2.9764 0
M  V30 2420 C 237.381 1.17763 -4.21249 0
M  V30 2421 C 236.44 2.22985 -4.76617 0
M  V30 2422 O 235.466 1.83151 -5.38929 0
M  V30 2423 N 236.668 3.55271 -4.59089 0
M  V30 2424 H 239.433 -0.18989 -2.99098 0
M  V30 2425 H 236.994 -0.247386 -1.59999 0
M  V30 2426 H 238.986 2.32038 -3.31573 0
M  V30 2427 H 237.556 2.15266 -2.2667 0
M  V30 2428 H 236.776 0.305582 -3.93014 0
M  V30 2429 H 238.064 0.858781 -5.015 0
M  V30 2430 H 237.462 3.90377 -4.09417 0
M  V30 2431 H 236.019 4.21195 -4.97432 0
M  V30 2432 N 239.452 1.56882 -0.150215 0
M  V30 2433 C 240.863 1.82995 0.370076 0
M  V30 2434 C 241.214 1.06907 1.64515 0
M  V30 2435 O 240.339 0.315369 2.1409 0
M  V30 2436 C 240.934 3.31942 0.678208 0
M  V30 2437 C 239.493 3.58625 1.14301 0
M  V30 2438 C 238.64 2.76792 0.167778 0
M  V30 2439 H 241.591 1.54209 -0.374858 0
M  V30 2440 H 241.612 3.48272 1.53254 0
M  V30 2441 H 241.124 3.87294 -0.249991 0
M  V30 2442 H 239.225 3.08664 2.08704 0
M  V30 2443 H 239.338 4.67073 1.06676 0
M  V30 2444 H 237.702 2.45972 0.661037 0
M  V30 2445 H 238.485 3.34916 -0.754069 0
M  V30 2446 N 240.93 -0.123565 1.57115 0
M  V30 2447 C 242.177 -0.832153 1.84612 0
M  V30 2448 C 242.505 -1.80093 0.734627 0
M  V30 2449 O 241.76 -1.93766 -0.27442 0
M  V30 2450 C 242.059 -1.62016 3.18568 0
M  V30 2451 C 241.725 -0.796084 4.43817 0
M  V30 2452 C 240.387 -0.568816 4.77826 0
M  V30 2453 C 242.739 -0.221364 5.2073 0
M  V30 2454 C 240.067 0.243499 5.86194 0
M  V30 2455 C 242.419 0.578117 6.29953 0
M  V30 2456 C 241.083 0.815744 6.62497 0
M  V30 2457 H 240.353 -0.304507 0.675542 0
M  V30 2458 H 243 -0.0947248 1.91266 0
M  V30 2459 H 241.305 -2.42837 3.0747 0
M  V30 2460 H 243.002 -2.17231 3.37064 0
M  V30 2461 H 239.592 -0.983307 4.17168 0
M  V30 2462 H 243.776 -0.384173 4.94811 0
M  V30 2463 H 239.032 0.436871 6.09837 0
M  V30 2464 H 243.206 1.03046 6.88734 0
M  V30 2465 H 240.833 1.44701 7.46301 0
M  V30 2466 N 242.408 -1.52605 -0.393616 0
M  V30 2467 C 243.355 -1.77055 -1.48054 0
M  V30 2468 C 244.325 -0.61358 -1.54352 0
M  V30 2469 O 245.51 -0.852806 -1.70681 0
M  V30 2470 C 242.65 -1.94108 -2.85335 0
M  V30 2471 C 241.763 -3.21792 -2.88226 0
M  V30 2472 C 240.898 -3.29188 -4.16904 0
M  V30 2473 C 239.937 -4.51013 -4.13828 0
M  V30 2474 N 239.074 -4.55716 -5.34105 0
M  V30 2475 H 243.914 -2.69815 -1.26506 0
M  V30 2476 H 241.451 -1.33683 -0.61379 0
M  V30 2477 H 243.409 -2.01979 -3.65049 0
M  V30 2478 H 242.039 -1.04713 -3.05344 0
M  V30 2479 H 241.091 -3.23015 -2.00911 0
M  V30 2480 H 242.403 -4.11557 -2.8182 0
M  V30 2481 H 241.557 -3.36216 -5.05018 0
M  V30 2482 H 240.296 -2.37389 -4.26026 0
M  V30 2483 H 239.301 -4.44115 -3.24102 0
M  V30 2484 H 240.526 -5.44123 -4.06333 0
M  V30 2485 H 238.472 -3.66807 -5.43865 0
M  V30 2486 H 238.389 -5.39346 -5.29756 0
M  V30 2487 H 239.657 -4.66993 -6.2413 0
M  V30 2488 N 243.887 0.651787 -1.4349 0
M  V30 2489 C 245.135 1.40888 -1.44897 0
M  V30 2490 C 245.456 1.94856 -0.0749086 0
M  V30 2491 O 244.726 1.74518 0.889956 0
M  V30 2492 H 243.306 0.522887 -0.533478 0
M  V30 2493 H 245.968 0.768609 -1.79104 0
M  V30 2494 H 245.064 2.25052 -2.16236 0
M  V30 2495 N 245.365 1.30045 0.890287 0
M  V30 2496 C 246.611 1.19747 1.64415 0
M  V30 2497 C 246.966 -0.246591 1.90813 0
M  V30 2498 O 246.259 -1.174 1.51419 0
M  V30 2499 C 246.453 1.95409 2.99249 0
M  V30 2500 C 246.282 3.47025 2.86013 0
M  V30 2501 C 245.052 4.1638 2.86279 0
M  V30 2502 C 247.25 4.42353 2.62351 0
M  V30 2503 N 245.232 5.54293 2.63879 0
M  V30 2504 C 246.603 5.67792 2.49022 0
M  V30 2505 C 248.658 4.32009 2.47533 0
M  V30 2506 C 247.361 6.8406 2.22383 0
M  V30 2507 C 249.387 5.48038 2.22279 0
M  V30 2508 C 248.749 6.72455 2.09722 0
M  V30 2509 H 244.848 0.493223 0.60684 0
M  V30 2510 H 247.432 1.6399 1.04954 0
M  V30 2511 H 245.603 1.53565 3.56752 0
M  V30 2512 H 247.335 1.77298 3.63796 0
M  V30 2513 H 244.09 3.68164 2.97913 0
M  V30 2514 H 244.514 6.26852 2.55706 0
M  V30 2515 H 249.156 3.36503 2.55979 0
M  V30 2516 H 246.874 7.79612 2.12675 0
M  V30 2517 H 250.46 5.41939 2.11643 0
M  V30 2518 H 249.34 7.60722 1.90453 0
M  V30 2519 N 246.843 -1.10192 1.12674 0
M  V30 2520 C 247.806 -2.14786 0.799979 0
M  V30 2521 C 248.806 -1.59711 -0.18685 0
M  V30 2522 O 249.996 -1.74156 0.0392558 0
M  V30 2523 C 247.128 -3.40374 0.189228 0
M  V30 2524 H 248.321 -2.45203 1.72671 0
M  V30 2525 H 245.874 -1.25597 0.930326 0
M  V30 2526 H 246.609 -3.15577 -0.747107 0
M  V30 2527 H 246.394 -3.81637 0.899766 0
M  V30 2528 H 247.884 -4.17594 -0.0228143 0
M  V30 2529 N 248.321 -0.919034 -1.28029 0
M  V30 2530 C 249.251 -0.428581 -2.29533 0
M  V30 2531 C 250.232 0.50659 -1.62381 0
M  V30 2532 O 251.417 0.413195 -1.89753 0
M  V30 2533 C 248.547 0.327388 -3.45753 0
M  V30 2534 C 247.501 -0.519137 -4.2484 0
M  V30 2535 C 246.827 0.365486 -5.33449 0
M  V30 2536 C 248.127 -1.77914 -4.91064 0
M  V30 2537 H 249.821 -1.27687 -2.70807 0
M  V30 2538 H 247.367 -0.615428 -1.30186 0
M  V30 2539 H 249.32 0.681378 -4.15855 0
M  V30 2540 H 248.044 1.20963 -3.03374 0
M  V30 2541 H 246.703 -0.855717 -3.56473 0
M  V30 2542 H 246.351 1.24642 -4.87312 0
M  V30 2543 H 246.051 -0.197356 -5.87268 0
M  V30 2544 H 247.575 0.715241 -6.06396 0
M  V30 2545 H 248.989 -1.49374 -5.53498 0
M  V30 2546 H 247.386 -2.2848 -5.54903 0
M  V30 2547 H 248.456 -2.50382 -4.15255 0
M  V30 2548 N 249.799 1.42003 -0.683588 0
M  V30 2549 C 251.029 2.05448 -0.217866 0
M  V30 2550 C 251.437 1.51491 1.13346 0
M  V30 2551 O 250.78 0.653048 1.717 0
M  V30 2552 C 250.842 3.59399 -0.0850118 0
M  V30 2553 C 250.506 4.36093 -1.36645 0
M  V30 2554 C 251.503 4.66169 -2.30179 0
M  V30 2555 C 249.188 4.75578 -1.61649 0
M  V30 2556 C 251.182 5.34676 -3.46988 0
M  V30 2557 C 248.869 5.43824 -2.78745 0
M  V30 2558 C 249.867 5.73299 -3.71238 0
M  V30 2559 O 249.555 6.40142 -4.86285 0
M  V30 2560 H 249.287 0.668344 -0.101454 0
M  V30 2561 H 251.841 1.82974 -0.933248 0
M  V30 2562 H 250.071 3.80566 0.686031 0
M  V30 2563 H 251.76 4.04457 0.341973 0
M  V30 2564 H 252.526 4.36156 -2.12115 0
M  V30 2565 H 248.405 4.52025 -0.905243 0
M  V30 2566 H 251.949 5.57599 -4.19201 0
M  V30 2567 H 247.846 5.73254 -2.96732 0
M  V30 2568 H 248.614 6.58636 -4.85944 0
M  V30 2569 N 251.277 0.427512 1.51691 0
M  V30 2570 C 252.517 -0.141524 2.03909 0
M  V30 2571 C 252.881 -1.40811 1.30523 0
M  V30 2572 O 254.082 -2.05676 1.73063 0
M  V30 2573 C 252.353 -0.364962 3.55532 0
M  V30 2574 S 253.912 -0.898812 4.29496 0
M  V30 2575 H 250.73 -0.0364542 0.710065 0
M  V30 2576 H 253.332 0.584659 1.86553 0
M  V30 2577 H 252.036 0.56336 4.06515 0
M  V30 2578 H 251.567 -1.1185 3.77164 0
M  V30 2579 H 253.582 -2.17747 4.45871 0
M  V30 2580 N 252.755 -1.56801 0.158532 0
M  V30 2581 C 253.718 -2.16138 -0.762705 0
M  V30 2582 C 254.718 -1.1061 -1.16713 0
M  V30 2583 O 255.908 -1.36191 -1.08617 0
M  V30 2584 C 253.04 -2.73386 -2.03649 0
M  V30 2585 H 254.233 -2.98886 -0.246354 0
M  V30 2586 H 251.786 -1.56035 -0.0909744 0
M  V30 2587 H 252.521 -1.94335 -2.59623 0
M  V30 2588 H 252.306 -3.50601 -1.75559 0
M  V30 2589 H 253.796 -3.19065 -2.6942 0
M  V30 2590 N 254.233 0.115231 -1.57178 0
M  V30 2591 C 255.481 0.820727 -1.84685 0
M  V30 2592 C 255.802 1.80237 -0.744279 0
M  V30 2593 O 255.072 1.94529 0.231375 0
M  V30 2594 H 253.652 0.306084 -0.681411 0
M  V30 2595 H 256.314 0.101656 -1.94635 0
M  V30 2596 H 255.41 1.36366 -2.80733 0
M  V30 2597 N 255.711 1.52812 0.385517 0
M  V30 2598 C 256.658 1.77838 1.47113 0
M  V30 2599 C 257.628 0.621757 1.54024 0
M  V30 2600 O 258.813 0.861846 1.70226 0
M  V30 2601 C 255.953 1.95618 2.84302 0
M  V30 2602 C 255.066 3.23316 2.86515 0
M  V30 2603 C 254.201 3.31394 4.15152 0
M  V30 2604 C 253.24 4.53201 4.1143 0
M  V30 2605 N 252.377 4.58542 5.3168 0
M  V30 2606 H 257.217 2.70482 1.25073 0
M  V30 2607 H 254.754 1.34006 0.606692 0
M  V30 2608 H 256.712 2.03912 3.63972 0
M  V30 2609 H 255.342 1.06331 3.04784 0
M  V30 2610 H 254.394 3.24076 1.99195 0
M  V30 2611 H 255.706 4.13045 2.79634 0
M  V30 2612 H 254.86 3.3889 5.03228 0
M  V30 2613 H 253.599 2.39645 4.24761 0
M  V30 2614 H 252.604 4.45827 3.21742 0
M  V30 2615 H 253.829 5.46271 4.03442 0
M  V30 2616 H 251.775 3.69686 5.41912 0
M  V30 2617 H 251.692 5.42148 5.26889 0
M  V30 2618 H 252.96 4.70296 6.21644 0
M  V30 2619 N 257.189 -0.644168 1.43834 0
M  V30 2620 C 258.152 -1.73857 1.49353 0
M  V30 2621 C 259.152 -1.56315 0.377112 0
M  V30 2622 O 260.342 -1.62048 0.639226 0
M  V30 2623 C 257.474 -3.12819 1.35488 0
M  V30 2624 H 258.667 -1.70342 2.46827 0
M  V30 2625 H 256.22 -0.856652 1.30733 0
M  V30 2626 H 256.955 -3.2194 0.390569 0
M  V30 2627 H 256.74 -3.26958 2.16428 0
M  V30 2628 H 258.23 -3.92606 1.42302 0
M  V30 2629 N 258.668 -1.30515 -0.883378 0
M  V30 2630 C 259.631 -1.1701 -1.97082 0
M  V30 2631 C 260.631 -0.10089 -1.60483 0
M  V30 2632 O 261.821 -0.349127 -1.70666 0
M  V30 2633 C 258.953 -0.793045 -3.31547 0
M  V30 2634 H 260.146 -2.13622 -2.10489 0
M  V30 2635 H 257.699 -1.13935 -1.06998 0
M  V30 2636 H 258.434 0.172499 -3.23841 0
M  V30 2637 H 258.219 -1.56576 -3.5948 0
M  V30 2638 H 259.709 -0.722073 -4.1131 0
M  V30 2639 N 260.146 1.09593 -1.13257 0
M  V30 2640 C 261.562 1.33775 -0.870423 0
M  V30 2641 C 261.762 1.95327 0.494926 0
M  V30 2642 O 260.818 2.19853 1.2418 0
M  V30 2643 C 262.131 2.25106 -1.99369 0
M  V30 2644 C 263.679 2.3862 -2.02558 0
M  V30 2645 C 264.154 3.33285 -3.14142 0
M  V30 2646 N 265.645 3.40857 -3.13641 0
M  V30 2647 C 266.38 4.14101 -3.96621 0
M  V30 2648 N 265.876 4.90157 -4.8961 0
M  V30 2649 N 267.669 4.09808 -3.84726 0
M  V30 2650 H 259.82 0.680136 -2.01216 0
M  V30 2651 H 262.083 0.362133 -0.876107 0
M  V30 2652 H 261.789 1.87103 -2.97801 0
M  V30 2653 H 261.663 3.25481 -1.90635 0
M  V30 2654 H 264.05 2.75887 -1.0474 0
M  V30 2655 H 264.131 1.38028 -2.15364 0
M  V30 2656 H 263.775 2.96741 -4.12198 0
M  V30 2657 H 263.705 4.33776 -2.98574 0
M  V30 2658 H 266.196 2.86624 -2.46282 0
M  V30 2659 H 266.509 5.4347 -5.49418 0
M  V30 2660 H 264.854 4.89251 -4.93617 0
M  V30 2661 H 268.045 3.4949 -3.11408 0
M  V30 2662 H 268.218 4.66629 -4.49623 0
M  V30 2663 N 261.624 0.925811 1.2754 0
M  V30 2664 C 262.901 0.483726 1.89524 0
M  V30 2665 C 263.281 -1.03809 1.83812 0
M  V30 2666 O 262.629 -1.89143 1.28207 0
M  V30 2667 C 262.839 1.02769 3.33526 0
M  V30 2668 C 264.187 1.08703 4.10449 0
M  V30 2669 O 265.211 0.977175 3.42534 0
M  V30 2670 O 264.07 1.25599 5.31871 0
M  V30 2671 H 261.164 0.15529 0.812289 0
M  V30 2672 H 263.71 1.01738 1.35822 0
M  V30 2673 H 262.482 2.07155 3.31967 0
M  V30 2674 H 262.105 0.475567 3.94746 0
M  V30 2675 N 263.102 -1.41638 0.69111 0
M  V30 2676 C 264.035 -2.28183 -0.0274913 0
M  V30 2677 C 265.013 -1.41984 -0.792424 0
M  V30 2678 O 266.197 -1.71415 -0.784169 0
M  V30 2679 C 263.324 -3.22135 -1.04628 0
M  V30 2680 C 262.37 -4.24848 -0.375037 0
M  V30 2681 S 263.203 -5.28231 0.879321 0
M  V30 2682 C 264.359 -6.25748 -0.137983 0
M  V30 2683 H 264.592 -2.88782 0.706553 0
M  V30 2684 H 262.125 -1.46709 0.481222 0
M  V30 2685 H 264.083 -3.76797 -1.62894 0
M  V30 2686 H 262.744 -2.6064 -1.75287 0
M  V30 2687 H 261.937 -4.90837 -1.14433 0
M  V30 2688 H 261.539 -3.73758 0.134434 0
M  V30 2689 H 263.831 -6.70188 -0.992659 0
M  V30 2690 H 264.774 -7.06417 0.487867 0
M  V30 2691 H 265.182 -5.62363 -0.490762 0
M  V30 2692 N 264.58 -0.43555 -1.51462 0
M  V30 2693 C 265.51 0.367376 -2.30592 0
M  V30 2694 C 266.491 1.02263 -1.35928 0
M  V30 2695 O 267.676 1.02661 -1.64847 0
M  V30 2696 C 264.806 1.46983 -3.14664 0
M  V30 2697 C 263.76 0.938161 -4.17591 0
M  V30 2698 C 263.086 2.13622 -4.90173 0
M  V30 2699 C 264.386 -0.0261621 -5.22293 0
M  V30 2700 H 266.08 -0.292969 -2.97963 0
M  V30 2701 H 263.626 -0.14234 -1.43295 0
M  V30 2702 H 265.579 2.03873 -3.688 0
M  V30 2703 H 264.303 2.15843 -2.4511 0
M  V30 2704 H 262.962 0.391481 -3.64504 0
M  V30 2705 H 262.61 2.81098 -4.17124 0
M  V30 2706 H 262.31 1.78688 -5.59772 0
M  V30 2707 H 263.834 2.7107 -5.47132 0
M  V30 2708 H 265.248 0.452384 -5.71512 0
M  V30 2709 H 263.645 -0.287992 -5.99409 0
M  V30 2710 H 264.715 -0.963391 -4.75233 0
M  V30 2711 N 266.058 1.56714 -0.166846 0
M  V30 2712 C 267.305 1.96747 0.479252 0
M  V30 2713 C 267.633 1.05263 1.63554 0
M  V30 2714 O 266.888 0.0858098 1.95512 0
M  V30 2715 C 267.187 3.42889 1.00806 0
M  V30 2716 C 266.853 4.50889 -0.0318574 0
M  V30 2717 C 265.515 4.8015 -0.317675 0
M  V30 2718 C 267.867 5.15949 -0.737956 0
M  V30 2719 C 265.195 5.71772 -1.31506 0
M  V30 2720 C 267.547 6.08647 -1.72429 0
M  V30 2721 C 266.211 6.36277 -2.0176 0
M  V30 2722 H 265.481 0.719949 0.175371 0
M  V30 2723 H 268.128 1.89756 -0.257864 0
M  V30 2724 H 266.433 3.4681 1.82291 0
M  V30 2725 H 268.13 3.71203 1.51689 0
M  V30 2726 H 264.72 4.28128 0.201088 0
M  V30 2727 H 268.904 4.93458 -0.530351 0
M  V30 2728 H 264.16 5.91465 -1.54853 0
M  V30 2729 H 268.334 6.58129 -2.27682 0
M  V30 2730 H 265.961 7.07075 -2.79194 0
M  V30 2731 N 267.536 -0.106894 1.57237 0
M  V30 2732 C 268.468 -1.15646 1.97885 0
M  V30 2733 C 269.481 -1.36981 0.879779 0
M  V30 2734 O 270.67 -1.35841 1.15799 0
M  V30 2735 C 267.77 -2.51425 2.27241 0
M  V30 2736 C 266.943 -2.50529 3.58545 0
M  V30 2737 C 266.002 -3.68145 3.75973 0
M  V30 2738 O 265.028 -3.51176 4.47956 0
M  V30 2739 N 266.23 -4.87177 3.15656 0
M  V30 2740 H 268.995 -0.81059 2.8853 0
M  V30 2741 H 266.556 -0.296024 1.59171 0
M  V30 2742 H 268.548 -3.28689 2.36105 0
M  V30 2743 H 267.118 -2.78147 1.42663 0
M  V30 2744 H 266.338 -1.58894 3.60758 0
M  V30 2745 H 267.626 -2.46997 4.44826 0
M  V30 2746 H 267.024 -5.03868 2.57165 0
M  V30 2747 H 265.581 -5.62075 3.30023 0
M  V30 2748 N 269.014 -1.53014 -0.377408 0
M  V30 2749 C 270.26 -1.68872 -1.12294 0
M  V30 2750 C 270.593 -0.433224 -1.89306 0
M  V30 2751 O 269.868 0.569258 -1.85983 0
M  V30 2752 C 270.151 -2.93115 -2.09179 0
M  V30 2753 C 270.004 -4.28794 -1.35853 0
M  V30 2754 C 271.323 -3.12928 -3.09458 0
M  V30 2755 H 268.442 -0.614518 -0.406862 0
M  V30 2756 H 271.084 -1.85633 -0.40503 0
M  V30 2757 H 269.234 -2.78956 -2.70399 0
M  V30 2758 H 270.906 -4.54742 -0.775082 0
M  V30 2759 H 269.149 -4.28744 -0.660364 0
M  V30 2760 H 269.82 -5.11837 -2.06706 0
M  V30 2761 H 272.296 -3.26194 -2.58334 0
M  V30 2762 H 271.172 -4.01316 -3.74482 0
M  V30 2763 H 271.433 -2.27669 -3.78971 0
M  V30 2764 N 270.492 0.636531 -1.44174 0
M  V30 2765 C 271.422 1.76003 -1.53444 0
M  V30 2766 C 272.403 1.65619 -0.387841 0
M  V30 2767 O 273.588 1.84461 -0.607257 0
M  V30 2768 C 270.718 3.14511 -1.4731 0
M  V30 2769 C 269.672 3.39677 -2.60391 0
M  V30 2770 C 268.998 4.78159 -2.39308 0
M  V30 2771 C 270.298 3.32772 -4.02567 0
M  V30 2772 H 271.992 1.68501 -2.47483 0
M  V30 2773 H 269.538 0.809237 -1.19111 0
M  V30 2774 H 271.491 3.92878 -1.52397 0
M  V30 2775 H 270.215 3.22783 -0.49785 0
M  V30 2776 H 268.874 2.63688 -2.54684 0
M  V30 2777 H 268.522 4.83128 -1.39988 0
M  V30 2778 H 268.222 4.95956 -3.15122 0
M  V30 2779 H 269.746 5.58762 -2.46205 0
M  V30 2780 H 271.16 4.01051 -4.09672 0
M  V30 2781 H 269.557 3.62104 -4.7854 0
M  V30 2782 H 270.627 2.30669 -4.2652 0
M  V30 2783 N 271.97 1.30982 0.876444 0
M  V30 2784 C 272.933 1.18054 1.96459 0
M  V30 2785 C 273.933 0.109399 1.60427 0
M  V30 2786 O 275.123 0.358173 1.70478 0
M  V30 2787 C 272.255 0.810616 3.31122 0
M  V30 2788 H 273.448 2.14735 2.09354 0
M  V30 2789 H 271.001 1.145 1.06392 0
M  V30 2790 H 271.736 -0.155322 3.23928 0
M  V30 2791 H 271.521 1.58481 3.58645 0
M  V30 2792 H 273.011 0.743876 4.10921 0
M  V30 2793 N 273.449 -1.08991 1.13837 0
M  V30 2794 C 274.379 -2.17771 0.842507 0
M  V30 2795 C 275.36 -1.6892 -0.20001 0
M  V30 2796 O 276.545 -1.94113 -0.0579731 0
M  V30 2797 C 273.675 -3.4589 0.312644 0
M  V30 2798 C 272.629 -4.08099 1.28992 0
M  V30 2799 C 271.955 -5.31098 0.619623 0
M  V30 2800 C 273.255 -4.50077 2.65005 0
M  V30 2801 H 274.949 -2.42777 1.75213 0
M  V30 2802 H 272.495 -1.16682 0.843875 0
M  V30 2803 H 274.448 -4.21297 0.0933043 0
M  V30 2804 H 273.172 -3.20419 -0.632382 0
M  V30 2805 H 271.831 -3.34717 1.49533 0
M  V30 2806 H 271.479 -5.0191 -0.33102 0
M  V30 2807 H 271.179 -5.73674 1.27167 0
M  V30 2808 H 272.703 -6.09224 0.409669 0
M  V30 2809 H 274.117 -5.16688 2.48407 0
M  V30 2810 H 272.514 -5.03553 3.26427 0
M  V30 2811 H 273.584 -3.62257 3.22332 0
M  V30 2812 N 274.927 -0.932562 -1.27047 0
M  V30 2813 C 275.837 -0.441219 -2.30414 0
M  V30 2814 C 276.853 0.480525 -1.67233 0
M  V30 2815 O 278.029 0.362151 -1.98117 0
M  V30 2816 C 275.094 0.293651 -3.45454 0
M  V30 2817 C 274.155 -0.663601 -4.2414 0
M  V30 2818 C 273.388 0.0362932 -5.33688 0
M  V30 2819 O 273.611 1.2548 -5.56427 0
M  V30 2820 O 272.545 -0.638015 -5.98509 0
M  V30 2821 H 276.371 -1.29962 -2.74488 0
M  V30 2822 H 273.956 -0.6981 -1.32087 0
M  V30 2823 H 275.838 0.707951 -4.15411 0
M  V30 2824 H 274.513 1.12758 -3.03426 0
M  V30 2825 H 273.42 -1.12768 -3.56699 0
M  V30 2826 H 274.753 -1.46489 -4.69896 0
M  V30 2827 N 276.405 1.4127 -0.698611 0
M  V30 2828 C 277.315 2.34573 -0.0357891 0
M  V30 2829 C 278.331 1.56393 0.762701 0
M  V30 2830 O 279.507 1.8886 0.699564 0
M  V30 2831 C 276.572 3.35159 0.887089 0
M  V30 2832 C 275.633 4.29225 0.0804634 0
M  V30 2833 C 274.866 5.25006 0.959387 0
M  V30 2834 O 275.089 5.26314 2.19886 0
M  V30 2835 O 274.023 6.00519 0.407439 0
M  V30 2836 H 277.849 2.92838 -0.804957 0
M  V30 2837 H 275.434 1.42175 -0.458966 0
M  V30 2838 H 277.316 3.9689 1.41621 0
M  V30 2839 H 275.991 2.79333 1.6357 0
M  V30 2840 H 274.898 3.70833 -0.493328 0
M  V30 2841 H 276.231 4.88157 -0.629547 0
M  V30 2842 N 277.883 0.443576 1.51229 0
M  V30 2843 C 279.294 -0.0180867 1.86691 0
M  V30 2844 C 279.645 -1.41384 1.36033 0
M  V30 2845 O 278.77 -2.04291 0.713722 0
M  V30 2846 C 279.365 -0.039597 3.38777 0
M  V30 2847 C 277.924 -0.445692 3.73752 0
M  V30 2848 C 277.071 0.357584 2.74985 0
M  V30 2849 H 280.022 0.659138 1.44364 0
M  V30 2850 H 280.043 -0.847761 3.70936 0
M  V30 2851 H 279.555 0.976382 3.75617 0
M  V30 2852 H 277.656 -1.46704 3.42503 0
M  V30 2853 H 277.769 -0.166155 4.78812 0
M  V30 2854 H 276.133 -0.184973 2.54027 0
M  V30 2855 H 276.916 1.37256 3.14668 0
M  V30 2856 N 279.361 -1.56624 0.175154 0
M  V30 2857 C 280.309 -2.19468 -0.770495 0
M  V30 2858 C 281.303 -1.15985 -1.23466 0
M  V30 2859 O 282.509 -1.34176 -1.19987 0
M  V30 2860 H 278.884 -0.703095 -0.266761 0
M  V30 2861 H 280.855 -2.97613 -0.216542 0
M  V30 2862 C 279.604 -2.85264 -1.98796 0
M  V30 2863 H 278.927 -3.64623 -1.63983 0
M  V30 2864 H 280.367 -3.327 -2.62843 0
M  V30 2865 C 278.826 -1.85239 -2.81404 0
M  V30 2866 O 279.356 -1.34024 -3.78682 0
M  V30 2867 N 277.562 -1.53911 -2.46495 0
M  V30 2868 H 277.109 -1.95751 -1.67449 0
M  V30 2869 H 277.067 -0.872382 -3.02054 0
M  V30 2870 N 280.839 0.0985539 -1.57292 0
M  V30 2871 C 282.085 0.803867 -1.86188 0
M  V30 2872 C 282.418 1.78549 -0.763794 0
M  V30 2873 O 281.693 1.93153 0.22855 0
M  V30 2874 C 281.976 1.53568 -3.25713 0
M  V30 2875 C 281.829 0.572277 -4.46145 0
M  V30 2876 C 283.148 2.48708 -3.63087 0
M  V30 2877 H 280.267 0.290781 -0.677211 0
M  V30 2878 H 282.909 0.0675783 -1.8988 0
M  V30 2879 H 281.059 2.16332 -3.22696 0
M  V30 2880 H 282.731 -0.0480894 -4.61275 0
M  V30 2881 H 280.974 -0.114618 -4.33649 0
M  V30 2882 H 281.645 1.12139 -5.40489 0
M  V30 2883 H 284.121 1.96039 -3.67026 0
M  V30 2884 H 282.997 2.96932 -4.61652 0
M  V30 2885 H 283.258 3.32309 -2.91588 0
M  V30 2886 N 282.317 1.53212 0.369288 0
M  V30 2887 C 283.733 1.42902 0.710712 0
M  V30 2888 C 283.933 0.565135 1.93413 0
M  V30 2889 O 282.989 0.0461484 2.52458 0
M  V30 2890 C 284.302 2.86042 0.927382 0
M  V30 2891 C 285.85 2.9565 1.02762 0
M  V30 2892 C 286.325 4.39843 1.27679 0
M  V30 2893 N 287.816 4.43256 1.34457 0
M  V30 2894 C 288.551 5.51929 1.55439 0
M  V30 2895 N 288.047 6.70655 1.73762 0
M  V30 2896 N 289.84 5.39502 1.57779 0
M  V30 2897 H 281.991 2.07888 -0.435457 0
M  V30 2898 H 284.254 0.938661 -0.132739 0
M  V30 2899 H 283.96 3.51557 0.100287 0
M  V30 2900 H 283.834 3.29472 1.83653 0
M  V30 2901 H 286.221 2.30291 1.84527 0
M  V30 2902 H 286.302 2.5562 0.0959504 0
M  V30 2903 H 285.946 5.05774 0.464175 0
M  V30 2904 H 285.876 4.77443 2.22162 0
M  V30 2905 H 288.367 3.5769 1.21926 0
M  V30 2906 H 288.68 7.49248 1.89335 0
M  V30 2907 H 287.025 6.73648 1.70948 0
M  V30 2908 H 290.216 4.45713 1.43029 0
M  V30 2909 H 290.389 6.2426 1.7379 0
M  V30 2910 N 283.795 -0.628877 1.44509 0
M  V30 2911 C 285.041 -1.39045 1.47629 0
M  V30 2912 C 285.374 -1.93892 0.109343 0
M  V30 2913 O 284.649 -1.7379 -0.87334 0
M  V30 2914 C 284.932 -2.55408 2.53848 0
M  V30 2915 C 284.785 -2.05896 3.99909 0
M  V30 2916 C 286.104 -3.5759 2.56549 0
M  V30 2917 H 283.223 -0.504232 0.537512 0
M  V30 2918 H 285.865 -0.710854 1.76201 0
M  V30 2919 H 284.015 -3.13384 2.29615 0
M  V30 2920 H 285.687 -1.52734 4.35282 0
M  V30 2921 H 283.93 -1.37061 4.11578 0
M  V30 2922 H 284.601 -2.89681 4.69882 0
M  V30 2923 H 287.077 -3.09419 2.78207 0
M  V30 2924 H 285.953 -4.36527 3.32769 0
M  V30 2925 H 286.214 -4.11808 1.60832 0
M  V30 2926 N 285.273 -1.31445 -0.869486 0
M  V30 2927 C 286.203 -1.21727 -1.99261 0
M  V30 2928 C 287.184 -0.104359 -1.6978 0
M  V30 2929 O 288.369 -0.289038 -1.92037 0
M  V30 2930 C 285.499 -0.924317 -3.34774 0
M  V30 2931 C 284.453 -1.99685 -3.78563 0
M  V30 2932 C 283.779 -1.55658 -5.11541 0
M  V30 2933 C 285.079 -3.41003 -3.95619 0
M  V30 2934 H 286.773 -2.1569 -2.07649 0
M  V30 2935 H 284.319 -1.03839 -0.997675 0
M  V30 2936 H 286.272 -0.842934 -4.12883 0
M  V30 2937 H 284.996 0.0509793 -3.2656 0
M  V30 2938 H 283.655 -2.06813 -3.02694 0
M  V30 2939 H 283.303 -0.569132 -4.9977 0
M  V30 2940 H 283.003 -2.27409 -5.41811 0
M  V30 2941 H 284.527 -1.48928 -5.92159 0
M  V30 2942 H 285.941 -3.36547 -4.64122 0
M  V30 2943 H 284.338 -4.10975 -4.37286 0
M  V30 2944 H 285.408 -3.81754 -2.98985 0
M  V30 2945 N 286.751 1.08385 -1.14413 0
M  V30 2946 C 287.699 2.17406 -0.826888 0
M  V30 2947 C 288.693 1.6827 0.195312 0
M  V30 2948 O 289.899 1.79927 0.0513892 0
M  V30 2949 H 286.274 0.70934 -0.249681 0
M  V30 2950 H 288.245 2.41388 -1.75426 0
M  V30 2951 C 286.994 3.46215 -0.320979 0
M  V30 2952 H 286.317 3.84401 -1.0989 0
M  V30 2953 H 287.757 4.23777 -0.137549 0
M  V30 2954 C 286.216 3.23067 0.955472 0
M  V30 2955 O 286.746 3.4668 2.02918 0
M  V30 2956 N 284.952 2.7661 0.890798 0
M  V30 2957 H 284.499 2.57594 0.0168815 0
M  V30 2958 H 284.457 2.61501 1.74542 0
M  V30 2959 N 288.23 0.939286 1.26551 0
M  V30 2960 C 289.46 0.601663 1.97645 0
M  V30 2961 C 289.868 -0.827206 1.70159 0
M  V30 2962 O 289.211 -1.56291 0.965338 0
M  V30 2963 C 289.273 0.761725 3.51337 0
M  V30 2964 C 288.937 2.16487 4.0247 0
M  V30 2965 C 289.934 3.14016 4.14355 0
M  V30 2966 C 287.619 2.48494 4.36527 0
M  V30 2967 C 289.613 4.41654 4.59587 0
M  V30 2968 C 287.3 3.76364 4.81449 0
M  V30 2969 C 288.298 4.72758 4.92939 0
M  V30 2970 O 287.986 5.98352 5.36871 0
M  V30 2971 H 287.718 0.225758 0.637189 0
M  V30 2972 H 290.272 1.26178 1.62075 0
M  V30 2973 H 288.502 0.0444808 3.86674 0
M  V30 2974 H 290.191 0.427442 4.03643 0
M  V30 2975 H 290.957 2.90613 3.8829 0
M  V30 2976 H 286.836 1.74202 4.26819 0
M  V30 2977 H 290.38 5.16896 4.68471 0
M  V30 2978 H 286.277 3.99582 5.06956 0
M  V30 2979 H 287.045 6.01507 5.55096 0
M  V30 2980 N 289.708 -1.40897 0.706093 0
M  V30 2981 C 290.671 -2.29131 0.0562841 0
M  V30 2982 C 291.671 -1.44901 -0.697166 0
M  V30 2983 O 292.861 -1.65926 -0.530484 0
M  V30 2984 C 289.993 -3.27957 -0.93043 0
M  V30 2985 H 291.186 -2.88091 0.833284 0
M  V30 2986 H 288.739 -1.4906 0.470192 0
M  V30 2987 H 289.474 -2.73997 -1.73482 0
M  V30 2988 H 289.259 -3.90124 -0.393166 0
M  V30 2989 H 290.749 -3.94049 -1.38256 0
M  V30 2990 N 291.186 -0.45159 -1.50991 0
M  V30 2991 C 292.597 0.00818571 -1.86698 0
M  V30 2992 C 292.948 1.40661 -1.3678 0
M  V30 2993 O 292.073 2.0391 -0.724546 0
M  V30 2994 C 292.668 0.0216303 -3.38793 0
M  V30 2995 C 291.227 0.425865 -3.73983 0
M  V30 2996 C 290.374 -0.372163 -2.74791 0
M  V30 2997 H 293.325 -0.666785 -1.44013 0
M  V30 2998 H 293.346 0.828078 -3.7138 0
M  V30 2999 H 292.858 -0.996288 -3.75094 0
M  V30 3000 H 290.959 1.44886 -3.43277 0
M  V30 3001 H 291.072 0.140761 -4.78893 0
M  V30 3002 H 289.436 0.171498 -2.54122 0
M  V30 3003 H 290.219 -1.38922 -3.13935 0
M  V30 3004 N 292.664 1.56529 -0.183458 0
M  V30 3005 C 293.912 1.96855 0.457452 0
M  V30 3006 C 294.233 1.07104 1.62953 0
M  V30 3007 O 293.503 0.139887 1.954 0
M  V30 3008 H 292.083 0.72693 0.171992 0
M  V30 3009 H 294.745 1.93056 -0.267476 0
M  V30 3010 H 293.841 3.01423 0.809368 0
M  V30 3011 N 294.142 -0.090211 1.57342 0
M  V30 3012 C 295.553 -0.644173 1.75235 0
M  V30 3013 C 295.904 -1.78865 0.806335 0
M  V30 3014 O 295.029 -2.16395 -0.0140128 0
M  V30 3015 C 295.624 -1.17532 3.1776 0
M  V30 3016 C 294.183 -1.67531 3.37061 0
M  V30 3017 C 293.33 -0.58693 2.71017 0
M  V30 3018 H 296.281 0.135884 1.58117 0
M  V30 3019 H 296.302 -2.04455 3.20902 0
M  V30 3020 H 295.814 -0.342138 3.86589 0
M  V30 3021 H 293.915 -2.53234 2.73319 0
M  V30 3022 H 294.028 -1.76493 4.45406 0
M  V30 3023 H 292.392 -1.02756 2.33052 0
M  V30 3024 H 293.175 0.235758 3.4249 0
M  V30 3025 N 295.62 -1.53406 -0.361157 0
M  V30 3026 C 296.55 -1.83136 -1.44857 0
M  V30 3027 C 297.531 -0.685174 -1.5569 0
M  V30 3028 O 298.716 -0.93544 -1.70186 0
M  V30 3029 C 295.846 -2.02522 -2.82138 0
M  V30 3030 C 294.8 -3.18302 -2.86126 0
M  V30 3031 C 294.126 -3.22989 -4.26125 0
M  V30 3032 C 295.426 -4.56796 -2.53248 0
M  V30 3033 H 297.12 -2.74201 -1.20226 0
M  V30 3034 H 294.666 -1.31938 -0.576922 0
M  V30 3035 H 296.619 -2.21904 -3.58241 0
M  V30 3036 H 295.343 -1.08172 -3.08166 0
M  V30 3037 H 294.002 -2.98747 -2.12475 0
M  V30 3038 H 293.65 -2.26267 -4.49235 0
M  V30 3039 H 293.35 -4.00781 -4.29708 0
M  V30 3040 H 294.874 -3.44559 -5.04094 0
M  V30 3041 H 296.288 -4.7631 -3.19064 0
M  V30 3042 H 294.685 -5.36862 -2.68141 0
M  V30 3043 H 295.755 -4.61606 -1.48484 0
M  V30 3044 N 297.098 0.621204 -1.44841 0
M  V30 3045 C 298.375 1.38 -1.38619 0
M  V30 3046 C 298.755 2.11041 -0.0498935 0
M  V30 3047 O 298.103 2.06992 0.967816 0
M  V30 3048 C 298.313 2.33817 -2.59096 0
M  V30 3049 C 299.661 2.96844 -3.03593 0
M  V30 3050 O 300.685 2.44141 -2.59371 0
M  V30 3051 O 299.544 3.92476 -3.80296 0
M  V30 3052 H 296.638 0.61811 -0.549426 0
M  V30 3053 H 299.184 0.645429 -1.56947 0
M  V30 3054 H 297.956 1.79012 -3.47952 0
M  V30 3055 H 297.579 3.14676 -2.43032 0
M  V30 3056 N 298.576 1.31904 0.862503 0
M  V30 3057 C 299.804 1.24998 1.64873 0
M  V30 3058 C 300.219 -0.183425 1.87907 0
M  V30 3059 O 299.576 -1.11794 1.44251 0
M  V30 3060 C 299.627 1.99829 3.01248 0
M  V30 3061 O 299.348 3.37575 2.79239 0
M  V30 3062 C 300.849 1.99852 3.95694 0
M  V30 3063 H 298.069 0.431599 0.513773 0
M  V30 3064 H 300.613 1.73901 1.07604 0
M  V30 3065 H 298.768 1.54668 3.55185 0
M  V30 3066 H 299.182 3.75776 3.65914 0
M  V30 3067 H 300.656 2.56709 4.88676 0
M  V30 3068 H 301.133 0.982852 4.28062 0
M  V30 3069 H 301.739 2.44926 3.47694 0
M  V30 3070 N 300.054 -1.07777 1.14986 0
M  V30 3071 C 301.331 -1.7699 0.832695 0
M  V30 3072 C 301.711 -2.001 -0.672561 0
M  V30 3073 O 301.059 -1.61598 -1.6155 0
M  V30 3074 C 301.269 -3.08139 1.63863 0
M  V30 3075 C 302.617 -3.8256 1.84208 0
M  V30 3076 O 303.641 -3.17939 1.60603 0
M  V30 3077 O 302.5 -4.98612 2.23714 0
M  V30 3078 H 299.594 -0.768389 0.305791 0
M  V30 3079 H 302.14 -1.14182 1.25541 0
M  V30 3080 H 300.912 -2.86909 2.6608 0
M  V30 3081 H 300.535 -3.78678 1.21197 0
M  V30 3082 N 301.532 -0.945985 -1.26051 0
M  V30 3083 C 302.465 -0.403619 -2.24602 0
M  V30 3084 C 303.443 0.510241 -1.54387 0
M  V30 3085 O 304.627 0.446593 -1.83133 0
M  V30 3086 C 301.754 0.419564 -3.36091 0
M  V30 3087 C 300.8 -0.433454 -4.24292 0
M  V30 3088 S 301.633 -1.86037 -5.02146 0
M  V30 3089 C 302.789 -1.04538 -6.17108 0
M  V30 3090 H 303.022 -1.23883 -2.7026 0
M  V30 3091 H 300.555 -0.749438 -1.34992 0
M  V30 3092 H 302.513 0.888595 -4.00767 0
M  V30 3093 H 301.174 1.22951 -2.89036 0
M  V30 3094 H 300.367 0.197486 -5.03613 0
M  V30 3095 H 299.969 -0.837357 -3.64506 0
M  V30 3096 H 302.261 -0.289923 -6.76879 0
M  V30 3097 H 303.204 -1.81222 -6.84518 0
M  V30 3098 H 303.612 -0.579319 -5.61519 0
M  V30 3099 N 303.011 1.40521 -0.713556 0
M  V30 3100 C 303.943 2.29191 -0.0203126 0
M  V30 3101 C 304.956 1.45723 0.725864 0
M  V30 3102 O 306.145 1.69033 0.573581 0
M  V30 3103 C 303.245 3.2395 0.995486 0
M  V30 3104 C 302.418 4.36262 0.315256 0
M  V30 3105 C 301.477 5.11474 1.23616 0
M  V30 3106 O 300.503 5.64606 0.721719 0
M  V30 3107 N 301.705 5.20638 2.56743 0
M  V30 3108 H 304.47 2.89327 -0.781652 0
M  V30 3109 H 302.031 1.51869 -0.561022 0
M  V30 3110 H 304.023 3.71137 1.61368 0
M  V30 3111 H 302.593 2.64995 1.6582 0
M  V30 3112 H 301.813 3.91228 -0.483106 0
M  V30 3113 H 303.101 5.08558 -0.157004 0
M  V30 3114 H 302.499 4.7895 3.01037 0
M  V30 3115 H 301.056 5.71339 3.13712 0
M  V30 3116 N 304.489 0.459591 1.5075 0
M  V30 3117 C 305.421 -0.37665 2.26084 0
M  V30 3118 C 306.434 -0.967109 1.30961 0
M  V30 3119 O 307.623 -0.857468 1.56556 0
M  V30 3120 C 304.723 -1.54112 3.01832 0
M  V30 3121 C 303.896 -1.06553 4.24223 0
M  V30 3122 C 302.955 -2.1027 4.82362 0
M  V30 3123 O 301.981 -1.68798 5.43595 0
M  V30 3124 N 303.183 -3.42974 4.68347 0
M  V30 3125 H 305.948 0.269124 2.98489 0
M  V30 3126 H 303.509 0.28972 1.59287 0
M  V30 3127 H 305.501 -2.23165 3.37608 0
M  V30 3128 H 304.071 -2.0918 2.32298 0
M  V30 3129 H 303.291 -0.201274 3.93686 0
M  V30 3130 H 304.579 -0.725516 5.03601 0
M  V30 3131 H 303.977 -3.79385 4.19623 0
M  V30 3132 H 302.534 -4.07858 5.08424 0
M  V30 3133 N 305.967 -1.56429 0.191757 0
M  V30 3134 C 306.897 -2.21937 -0.725696 0
M  V30 3135 C 307.878 -1.1814 -1.2238 0
M  V30 3136 O 309.063 -1.46636 -1.27325 0
M  V30 3137 C 306.193 -2.87611 -1.94672 0
M  V30 3138 C 305.147 -3.97623 -1.58366 0
M  V30 3139 C 304.473 -4.50446 -2.88102 0
M  V30 3140 C 305.773 -5.16197 -0.796133 0
M  V30 3141 H 307.467 -2.98861 -0.179606 0
M  V30 3142 H 305.013 -1.43749 -0.0849464 0
M  V30 3143 H 306.966 -3.3212 -2.59373 0
M  V30 3144 H 305.69 -2.08087 -2.51728 0
M  V30 3145 H 304.349 -3.53801 -0.960247 0
M  V30 3146 H 303.997 -3.67688 -3.43241 0
M  V30 3147 H 303.697 -5.24675 -2.64556 0
M  V30 3148 H 305.221 -4.97654 -3.53798 0
M  V30 3149 H 306.635 -5.57271 -1.34618 0
M  V30 3150 H 305.032 -5.96471 -0.658928 0
M  V30 3151 H 306.102 -4.84473 0.203478 0
M  V30 3152 N 307.445 0.0818655 -1.57387 0
M  V30 3153 C 308.408 1.08265 -2.02018 0
M  V30 3154 C 309.408 1.32183 -0.915664 0
M  V30 3155 O 310.598 1.28073 -1.18081 0
M  V30 3156 C 307.73 2.42871 -2.39221 0
M  V30 3157 H 308.923 0.698204 -2.91659 0
M  V30 3158 H 306.476 0.327303 -1.52835 0
M  V30 3159 H 307.211 2.86167 -1.52575 0
M  V30 3160 H 306.996 2.26855 -3.19811 0
M  V30 3161 H 308.486 3.14826 -2.74362 0
M  V30 3162 N 308.923 1.53595 0.353017 0
M  V30 3163 C 310.339 1.43648 0.695516 0
M  V30 3164 C 310.539 0.585617 1.92802 0
M  V30 3165 O 309.595 0.0729223 2.52395 0
M  V30 3166 C 310.908 2.8701 0.896991 0
M  V30 3167 C 312.456 2.96723 0.996209 0
M  V30 3168 C 312.931 4.41173 1.23007 0
M  V30 3169 N 314.422 4.44657 1.29749 0
M  V30 3170 C 315.157 5.53547 1.49577 0
M  V30 3171 N 314.653 6.72461 1.66639 0
M  V30 3172 N 316.446 5.41145 1.52048 0
M  V30 3173 H 308.597 2.07415 -0.457481 0
M  V30 3174 H 310.86 0.9372 -0.142687 0
M  V30 3175 H 310.566 3.51644 0.0629938 0
M  V30 3176 H 310.44 3.31401 1.80148 0
M  V30 3177 H 312.827 2.32235 1.82074 0
M  V30 3178 H 312.908 2.55707 0.0688331 0
M  V30 3179 H 312.552 5.06238 0.410505 0
M  V30 3180 H 312.482 4.79772 2.17086 0
M  V30 3181 H 314.973 3.58963 1.18126 0
M  V30 3182 H 315.286 7.51214 1.81378 0
M  V30 3183 H 313.631 6.75423 1.63794 0
M  V30 3184 H 316.822 4.47205 1.38294 0
M  V30 3185 H 316.995 6.26068 1.67159 0
M  V30 3186 N 310.401 -0.613514 1.45168 0
M  V30 3187 C 311.311 -1.75296 1.55912 0
M  V30 3188 C 312.327 -1.68244 0.443856 0
M  V30 3189 O 313.503 -1.88706 0.70371 0
M  V30 3190 C 310.568 -3.1174 1.5172 0
M  V30 3191 C 309.629 -3.30291 2.74238 0
M  V30 3192 C 308.862 -4.60226 2.70236 0
M  V30 3193 O 309.085 -5.42168 1.77229 0
M  V30 3194 O 308.019 -4.81361 3.61352 0
M  V30 3195 H 311.845 -1.69183 2.52212 0
M  V30 3196 H 309.43 -0.776886 1.27612 0
M  V30 3197 H 311.312 -3.93044 1.51968 0
M  V30 3198 H 309.987 -3.18357 0.585697 0
M  V30 3199 H 308.894 -2.48598 2.79553 0
M  V30 3200 H 310.227 -3.28547 3.66494 0
M  V30 3201 N 311.879 -1.3236 -0.855495 0
M  V30 3202 C 313.107 -1.2587 -1.64208 0
M  V30 3203 C 313.522 0.173457 -1.88002 0
M  V30 3204 O 312.879 1.11027 -1.44842 0
M  V30 3205 C 312.93 -2.01424 -3.00184 0
M  V30 3206 O 312.651 -3.39051 -2.77445 0
M  V30 3207 C 314.152 -2.01948 -3.94629 0
M  V30 3208 H 311.372 -0.434318 -0.511477 0
M  V30 3209 H 313.916 -1.74469 -1.0668 0
M  V30 3210 H 312.071 -1.56549 -3.5436 0
M  V30 3211 H 312.485 -3.77711 -3.63916 0
M  V30 3212 H 313.959 -2.59297 -4.87308 0
M  V30 3213 H 314.436 -1.00554 -4.27534 0
M  V30 3214 H 315.042 -2.46767 -3.4639 0
M  V30 3215 N 313.357 1.07166 -1.15556 0
M  V30 3216 C 314.582 1.84053 -0.955988 0
M  V30 3217 C 315.007 1.81586 0.490739 0
M  V30 3218 O 314.365 1.21018 1.34997 0
M  V30 3219 C 314.413 3.28957 -1.47714 0
M  V30 3220 O 313.517 4.06795 -0.677593 0
M  V30 3221 H 312.858 0.569842 -0.340847 0
M  V30 3222 H 315.388 1.35178 -1.53584 0
M  V30 3223 H 315.398 3.79788 -1.4908 0
M  V30 3224 H 314.073 3.30068 -2.53037 0
M  V30 3225 H 312.65 3.6561 -0.733721 0
M  V30 3226 N 314.835 0.952656 1.25548 0
M  V30 3227 C 316.081 0.607272 1.93494 0
M  V30 3228 C 316.414 -0.853245 1.74452 0
M  V30 3229 O 315.689 -1.61194 1.08843 0
M  V30 3230 C 315.972 0.96435 3.46947 0
M  V30 3231 C 315.825 2.48045 3.75225 0
M  V30 3232 C 317.144 0.487987 4.37386 0
M  V30 3233 H 314.263 0.222096 0.702739 0
M  V30 3234 H 316.905 1.18895 1.48203 0
M  V30 3235 H 315.055 0.469361 3.85654 0
M  V30 3236 H 316.727 3.04905 3.46166 0
M  V30 3237 H 314.97 2.919 3.209 0
M  V30 3238 H 315.641 2.6808 4.82532 0
M  V30 3239 H 318.117 0.912558 4.0597 0
M  V30 3240 H 316.993 0.766547 5.43521 0
M  V30 3241 H 317.254 -0.612063 4.37843 0
M  V30 3242 N 316.313 -1.40141 0.720998 0
M  V30 3243 C 317.59 -1.94677 0.189757 0
M  V30 3244 C 317.97 -1.65879 -1.30566 0
M  V30 3245 O 317.318 -0.979391 -2.06447 0
M  V30 3246 C 317.528 -3.45279 0.508304 0
M  V30 3247 C 318.876 -4.22209 0.449934 0
M  V30 3248 O 319.9 -3.53413 0.444677 0
M  V30 3249 O 318.759 -5.44788 0.432189 0
M  V30 3250 H 315.853 -0.826459 0.0299026 0
M  V30 3251 H 318.399 -1.49719 0.7989 0
M  V30 3252 H 317.171 -3.59619 1.54239 0
M  V30 3253 H 316.794 -3.97386 -0.130525 0
M  V30 3254 N 317.792 -0.46758 -1.50504 0
M  V30 3255 C 319.203 -0.0116166 -1.86696 0
M  V30 3256 C 319.554 1.39202 -1.38265 0
M  V30 3257 O 318.679 2.0313 -0.746132 0
M  V30 3258 C 319.274 -0.0143044 -3.38797 0
M  V30 3259 C 317.833 0.386175 -3.74414 0
M  V30 3260 C 316.98 -0.401287 -2.74381 0
M  V30 3261 H 319.931 -0.682022 -1.43297 0
M  V30 3262 H 319.952 0.788641 -3.72237 0
M  V30 3263 H 319.464 -1.03602 -3.74016 0
M  V30 3264 H 317.565 1.41237 -3.44794 0
M  V30 3265 H 317.678 0.0899596 -4.79016 0
M  V30 3266 H 316.042 0.144536 -2.5429 0
M  V30 3267 H 316.825 -1.42244 -3.12444 0
M  V30 3268 N 319.27 1.56325 -0.20005 0
M  V30 3269 C 320.547 1.89484 0.48529 0
M  V30 3270 C 320.927 1.1143 1.79294 0
M  V30 3271 O 320.275 0.216919 2.27468 0
M  V30 3272 C 320.485 3.41923 0.699243 0
M  V30 3273 C 321.833 4.12256 1.01638 0
M  V30 3274 O 322.857 3.47402 0.786792 0
M  V30 3275 O 321.716 5.26887 1.45095 0
M  V30 3276 H 318.81 0.787144 0.253639 0
M  V30 3277 H 321.356 1.67985 -0.240633 0
M  V30 3278 H 320.128 3.90658 -0.224008 0
M  V30 3279 H 319.751 3.69131 1.47744 0
M  V30 3280 N 320.748 -0.0735177 1.57428 0
M  V30 3281 C 321.681 -1.11932 1.98863 0
M  V30 3282 C 322.659 -1.37666 0.865266 0
M  V30 3283 O 323.843 -1.51068 1.12742 0
M  V30 3284 C 320.97 -2.46403 2.32386 0
M  V30 3285 C 320.016 -2.36815 3.54713 0
M  V30 3286 S 320.849 -1.76392 5.05614 0
M  V30 3287 C 322.005 -3.12444 5.42337 0
M  V30 3288 H 322.238 -0.766212 2.87257 0
M  V30 3289 H 319.771 -0.281987 1.51803 0
M  V30 3290 H 321.729 -3.23755 2.52375 0
M  V30 3291 H 320.39 -2.78876 1.44524 0
M  V30 3292 H 319.583 -3.35977 3.7568 0
M  V30 3293 H 319.185 -1.67598 3.34345 0
M  V30 3294 H 321.477 -4.08753 5.40303 0
M  V30 3295 H 322.42 -2.96258 6.43146 0
M  V30 3296 H 322.828 -3.1297 4.69798 0
M  V30 3297 N 322.226 -1.5378 -0.344866 0
M  V30 3298 C 323.642 -1.44015 -0.687888 0
M  V30 3299 C 323.842 -0.595834 -1.92489 0
M  V30 3300 O 322.898 -0.0863064 -2.52352 0
M  V30 3301 C 324.211 -2.87481 -0.881758 0
M  V30 3302 C 325.759 -2.97247 -0.980459 0
M  V30 3303 C 326.234 -4.41819 -1.20665 0
M  V30 3304 N 327.725 -4.45339 -1.27389 0
M  V30 3305 C 328.46 -5.54333 -1.46639 0
M  V30 3306 N 327.956 -6.73335 -1.63071 0
M  V30 3307 N 329.749 -5.41944 -1.49176 0
M  V30 3308 H 321.9 -2.07169 0.468475 0
M  V30 3309 H 324.163 -0.93643 0.147655 0
M  V30 3310 H 323.869 -3.51672 -0.0443444 0
M  V30 3311 H 323.743 -3.32352 -1.78388 0
M  V30 3312 H 326.13 -2.33197 -1.8084 0
M  V30 3313 H 326.211 -2.5574 -0.0552713 0
M  V30 3314 H 325.855 -5.06449 -0.383652 0
M  V30 3315 H 325.785 -4.80917 -2.14539 0
M  V30 3316 H 328.276 -3.59585 -1.1622 0
M  V30 3317 H 328.589 -7.52165 -1.77391 0
M  V30 3318 H 326.934 -6.76282 -1.60209 0
M  V30 3319 H 330.125 -4.47932 -1.3592 0
M  V30 3320 H 330.298 -6.26946 -1.63837 0
M  V30 3321 N 323.704 0.605807 -1.45491 0
M  V30 3322 C 324.651 1.7164 -1.54299 0
M  V30 3323 C 325.621 1.61486 -0.388761 0
M  V30 3324 O 326.806 1.81039 -0.602445 0
M  V30 3325 C 323.946 3.09953 -1.51734 0
M  V30 3326 C 323.059 3.309 -2.77721 0
M  V30 3327 C 322.194 4.59329 -2.66816 0
M  V30 3328 C 321.233 4.7354 -3.87848 0
M  V30 3329 N 320.37 5.9327 -3.75467 0
M  V30 3330 H 325.21 1.63449 -2.49176 0
M  V30 3331 H 322.747 0.796957 -1.23641 0
M  V30 3332 H 324.705 3.89977 -1.48235 0
M  V30 3333 H 323.335 3.17098 -0.604068 0
M  V30 3334 H 322.387 2.44639 -2.913 0
M  V30 3335 H 323.699 3.37274 -3.67488 0
M  V30 3336 H 322.853 5.4755 -2.61292 0
M  V30 3337 H 321.592 4.55355 -1.74651 0
M  V30 3338 H 320.597 3.83741 -3.93729 0
M  V30 3339 H 321.822 4.79309 -4.81082 0
M  V30 3340 H 319.768 5.90338 -2.86072 0
M  V30 3341 H 319.685 6.00811 -4.5887 0
M  V30 3342 H 320.953 6.83984 -3.73879 0
M  V30 3343 N 325.182 1.32811 0.848464 0
M  V30 3344 C 326.43 1.23479 1.59991 0
M  V30 3345 C 326.751 -0.201853 1.93952 0
M  V30 3346 O 326.021 -1.12818 1.60153 0
M  V30 3347 H 324.601 0.454034 0.593179 0
M  V30 3348 H 327.263 1.66412 1.01455 0
M  V30 3349 H 326.359 1.82178 2.53412 0
M  V30 3350 N 326.66 -1.06551 1.16123 0
M  V30 3351 C 327.59 -2.15935 0.88851 0
M  V30 3352 C 328.571 -1.69306 -0.164135 0
M  V30 3353 O 329.756 -1.94193 -0.0167857 0
M  V30 3354 C 326.886 -3.45149 0.385942 0
M  V30 3355 C 325.84 -4.05271 1.3762 0
M  V30 3356 C 325.166 -5.29664 0.732137 0
M  V30 3357 C 326.466 -4.44355 2.74493 0
M  V30 3358 H 328.16 -2.39006 1.80323 0
M  V30 3359 H 325.706 -1.14866 0.868435 0
M  V30 3360 H 327.659 -4.21004 0.182647 0
M  V30 3361 H 326.383 -3.21689 -0.564274 0
M  V30 3362 H 325.042 -3.3147 1.56599 0
M  V30 3363 H 324.69 -5.02499 -0.224483 0
M  V30 3364 H 324.39 -5.70848 1.39307 0
M  V30 3365 H 325.914 -6.08218 0.538802 0
M  V30 3366 H 327.328 -5.11303 2.59311 0
M  V30 3367 H 325.725 -4.96515 3.37035 0
M  V30 3368 H 326.795 -3.55339 3.29943 0
M  V30 3369 N 328.138 -0.959301 -1.25041 0
M  V30 3370 C 329.07 -0.440543 -2.24926 0
M  V30 3371 C 330.083 0.446131 -1.56568 0
M  V30 3372 O 331.272 0.253657 -1.76689 0
M  V30 3373 C 328.372 0.38412 -3.36716 0
M  V30 3374 C 327.545 -0.490658 -4.34639 0
M  V30 3375 C 326.604 0.276587 -5.25473 0
M  V30 3376 O 325.63 -0.326614 -5.68262 0
M  V30 3377 N 326.832 1.56844 -5.5891 0
M  V30 3378 H 329.597 -1.29931 -2.70071 0
M  V30 3379 H 327.158 -0.830181 -1.38995 0
M  V30 3380 H 329.15 0.905228 -3.94446 0
M  V30 3381 H 327.72 1.14377 -2.90924 0
M  V30 3382 H 326.94 -1.19282 -3.7572 0
M  V30 3383 H 328.228 -1.08756 -4.97041 0
M  V30 3384 H 327.626 2.08036 -5.26059 0
M  V30 3385 H 326.183 2.03541 -6.19205 0
M  V30 3386 N 329.616 1.39756 -0.72842 0
M  V30 3387 C 330.526 2.34444 -0.0855374 0
M  V30 3388 C 331.542 1.57976 0.729356 0
M  V30 3389 O 332.718 1.90301 0.659346 0
M  V30 3390 C 329.783 3.36965 0.815798 0
M  V30 3391 C 328.844 4.29299 -0.0105996 0
M  V30 3392 C 328.077 5.26923 0.84781 0
M  V30 3393 O 328.3 5.30859 2.08673 0
M  V30 3394 O 327.234 6.01249 0.279969 0
M  V30 3395 H 331.06 2.91065 -0.866892 0
M  V30 3396 H 328.645 1.4117 -0.48902 0
M  V30 3397 H 330.527 3.99804 1.33171 0
M  V30 3398 H 329.202 2.82739 1.57608 0
M  V30 3399 H 328.109 3.69703 -0.571877 0
M  V30 3400 H 329.442 4.86712 -0.73295 0
M  V30 3401 N 331.094 0.475555 1.50254 0
M  V30 3402 C 332.024 -0.30611 2.31485 0
M  V30 3403 C 333.005 -0.986228 1.38591 0
M  V30 3404 O 334.19 -0.982541 1.67511 0
M  V30 3405 C 331.32 -1.38588 3.1845 0
M  V30 3406 C 330.274 -0.827115 4.19932 0
M  V30 3407 C 329.6 -2.00551 4.95665 0
M  V30 3408 C 330.9 0.16463 5.2204 0
M  V30 3409 H 332.594 0.371866 2.97082 0
M  V30 3410 H 330.14 0.180282 1.42867 0
M  V30 3411 H 332.093 -1.94023 3.74076 0
M  V30 3412 H 330.817 -2.09269 2.50747 0
M  V30 3413 H 329.476 -0.294702 3.65414 0
M  V30 3414 H 329.124 -2.6994 4.2443 0
M  V30 3415 H 328.824 -1.63784 5.64313 0
M  V30 3416 H 330.348 -2.56468 5.54127 0
M  V30 3417 H 331.762 -0.300699 5.72511 0
M  V30 3418 H 330.159 0.446813 5.98434 0
M  V30 3419 H 331.229 1.08905 4.72512 0
M  V30 3420 N 332.573 -1.56217 0.208337 0
M  V30 3421 C 333.52 -2.19699 -0.707192 0
M  V30 3422 C 334.49 -1.14836 -1.20008 0
M  V30 3423 O 335.675 -1.4314 -1.26157 0
M  V30 3424 C 332.815 -2.87061 -1.91546 0
M  V30 3425 C 331.928 -4.06483 -1.46271 0
M  V30 3426 C 331.063 -4.61665 -2.62752 0
M  V30 3427 C 330.102 -5.73417 -2.14147 0
M  V30 3428 N 329.239 -6.22948 -3.23853 0
M  V30 3429 H 334.079 -2.97575 -0.159111 0
M  V30 3430 H 331.616 -1.46948 -0.0667874 0
M  V30 3431 H 333.574 -3.24294 -2.62468 0
M  V30 3432 H 332.204 -2.11725 -2.43664 0
M  V30 3433 H 331.256 -3.74825 -0.648886 0
M  V30 3434 H 332.568 -4.87271 -1.06622 0
M  V30 3435 H 331.722 -5.01272 -3.41776 0
M  V30 3436 H 330.461 -3.80013 -3.05682 0
M  V30 3437 H 329.466 -5.33326 -1.33581 0
M  V30 3438 H 330.691 -6.56897 -1.72232 0
M  V30 3439 H 328.637 -5.44213 -3.6629 0
M  V30 3440 H 328.554 -6.98823 -2.88414 0
M  V30 3441 H 329.822 -6.6721 -4.03052 0
M  V30 3442 N 334.051 0.0651679 -1.57465 0
M  V30 3443 C 335.014 1.06117 -2.03155 0
M  V30 3444 C 336.014 1.31204 -0.929632 0
M  V30 3445 O 337.204 1.26813 -1.19432 0
M  V30 3446 C 334.336 2.4032 -2.41783 0
M  V30 3447 H 335.529 0.667231 -2.92383 0
M  V30 3448 H 333.082 0.311075 -1.53173 0
M  V30 3449 H 333.817 2.84532 -1.55601 0
M  V30 3450 H 333.602 2.23451 -3.22199 0
M  V30 3451 H 335.092 3.11898 -2.77685 0
M  V30 3452 N 335.529 1.53961 0.336706 0
M  V30 3453 C 336.476 1.82428 1.41381 0
M  V30 3454 C 337.446 0.670444 1.51968 0
M  V30 3455 O 338.631 0.915565 1.67398 0
M  V30 3456 C 335.771 2.04564 2.77934 0
M  V30 3457 C 334.884 3.32267 2.76084 0
M  V30 3458 C 334.019 3.44434 4.04399 0
M  V30 3459 C 333.058 4.66061 3.96804 0
M  V30 3460 N 332.195 4.75224 5.16823 0
M  V30 3461 H 337.035 2.74324 1.16405 0
M  V30 3462 H 334.572 1.35869 0.563752 0
M  V30 3463 H 336.53 2.15388 3.57301 0
M  V30 3464 H 335.16 1.15974 3.01247 0
M  V30 3465 H 334.212 3.3025 1.88784 0
M  V30 3466 H 335.524 4.21733 2.66351 0
M  V30 3467 H 334.678 3.54728 4.92192 0
M  V30 3468 H 333.417 2.53037 4.16921 0
M  V30 3469 H 332.422 4.55838 3.07396 0
M  V30 3470 H 333.647 5.58829 3.85858 0
M  V30 3471 H 331.593 3.86739 5.29876 0
M  V30 3472 H 331.51 5.58636 5.09374 0
M  V30 3473 H 332.778 4.89835 6.06367 0
M  V30 3474 N 337.007 -0.598083 1.45811 0
M  V30 3475 C 338.255 -1.35413 1.50026 0
M  V30 3476 C 338.576 -1.94444 0.147177 0
M  V30 3477 O 337.846 -1.77701 -0.824571 0
M  V30 3478 H 336.426 -0.502727 0.552517 0
M  V30 3479 H 339.088 -0.701606 1.81834 0
M  V30 3480 H 338.184 -2.16871 2.2444 0
M  V30 3481 N 338.485 -1.33259 -0.841409 0
M  V30 3482 C 339.432 -1.23302 -1.95103 0
M  V30 3483 C 340.402 -0.112204 -1.65721 0
M  V30 3484 O 341.587 -0.290038 -1.88583 0
M  V30 3485 C 338.727 -0.975583 -3.31023 0
M  V30 3486 C 337.84 -2.18243 -3.72819 0
M  V30 3487 C 336.975 -1.85936 -4.97595 0
M  V30 3488 C 336.014 -3.02866 -5.3192 0
M  V30 3489 N 335.151 -2.70565 -6.47873 0
M  V30 3490 H 339.991 -2.18207 -2.02952 0
M  V30 3491 H 337.528 -1.0851 -0.993173 0
M  V30 3492 H 339.486 -0.80677 -4.09325 0
M  V30 3493 H 338.116 -0.0632755 -3.22738 0
M  V30 3494 H 337.168 -2.46107 -2.90061 0
M  V30 3495 H 338.48 -3.05666 -3.94169 0
M  V30 3496 H 337.634 -1.65684 -5.83638 0
M  V30 3497 H 336.373 -0.957452 -4.78209 0
M  V30 3498 H 335.378 -3.23736 -4.44382 0
M  V30 3499 H 336.603 -3.93809 -5.53255 0
M  V30 3500 H 334.549 -1.8293 -6.29978 0
M  V30 3501 H 334.466 -3.51519 -6.69306 0
M  V30 3502 H 335.734 -2.53774 -7.37034 0
M  V30 3503 N 339.963 1.05934 -1.16686 0
M  V30 3504 C 340.893 2.1546 -0.899949 0
M  V30 3505 C 341.874 1.69391 0.155154 0
M  V30 3506 O 343.059 1.94199 0.00648693 0
M  V30 3507 C 340.189 3.44939 -0.404241 0
M  V30 3508 C 339.143 4.04536 -1.39767 0
M  V30 3509 C 338.469 5.29268 -0.760216 0
M  V30 3510 C 339.769 4.42893 -2.76845 0
M  V30 3511 H 341.463 2.38046 -1.81588 0
M  V30 3512 H 339.009 1.14404 -0.874514 0
M  V30 3513 H 340.962 4.20901 -0.204971 0
M  V30 3514 H 339.686 3.21983 0.547206 0
M  V30 3515 H 338.345 3.30635 -1.58355 0
M  V30 3516 H 337.993 5.02611 0.197831 0
M  V30 3517 H 337.693 5.70101 -1.42332 0
M  V30 3518 H 339.217 6.07924 -0.57105 0
M  V30 3519 H 340.631 5.09921 -2.62019 0
M  V30 3520 H 339.028 4.94721 -3.39663 0
M  V30 3521 H 340.098 3.53584 -3.31823 0
M  V30 3522 N 341.441 0.965919 1.2453 0
M  V30 3523 C 342.687 0.62776 1.92839 0
M  V30 3524 C 343.02 -0.834694 1.75347 0
M  V30 3525 O 342.295 -1.60031 1.10546 0
M  V30 3526 C 342.578 1.00109 3.45905 0
M  V30 3527 C 342.431 2.52011 3.72573 0
M  V30 3528 C 343.75 0.53435 4.36844 0
M  V30 3529 H 340.869 0.229537 0.700344 0
M  V30 3530 H 343.511 1.2046 1.46933 0
M  V30 3531 H 341.661 0.510238 3.85135 0
M  V30 3532 H 343.333 3.08559 3.42912 0
M  V30 3533 H 341.576 2.95287 3.17786 0
M  V30 3534 H 342.247 2.73183 4.79661 0
M  V30 3535 H 344.723 0.955565 4.04979 0
M  V30 3536 H 343.599 0.824152 5.42678 0
M  V30 3537 H 343.86 -0.565589 4.38467 0
M  V30 3538 N 342.919 -1.39368 0.735821 0
M  V30 3539 C 344.196 -1.94465 0.210395 0
M  V30 3540 C 344.576 -1.67254 -1.28799 0
M  V30 3541 O 343.924 -1.00123 -2.05396 0
M  V30 3542 C 344.134 -3.4472 0.544897 0
M  V30 3543 C 345.482 -4.21708 0.494689 0
M  V30 3544 O 346.506 -3.52922 0.482136 0
M  V30 3545 O 345.365 -5.44299 0.489947 0
M  V30 3546 H 342.459 -0.826096 0.0386666 0
M  V30 3547 H 345.005 -1.48863 0.814735 0
M  V30 3548 H 343.777 -3.57963 1.58045 0
M  V30 3549 H 343.4 -3.97502 -0.08837 0
M  V30 3550 N 344.397 -0.483516 -1.5 0
M  V30 3551 C 345.637 0.0657469 -2.04294 0
M  V30 3552 C 346.001 1.35869 -1.35659 0
M  V30 3553 O 347.202 1.99111 -1.80578 0
M  V30 3554 C 345.473 0.232758 -3.56641 0
M  V30 3555 S 347.032 0.738788 -4.32536 0
M  V30 3556 H 343.85 0.0100755 -0.710929 0
M  V30 3557 H 346.452 -0.653494 -1.84254 0
M  V30 3558 H 345.156 -0.713847 -4.04144 0
M  V30 3559 H 344.687 0.977751 -3.81056 0
M  V30 3560 H 346.702 2.01048 -4.53645 0
M  V30 3561 N 345.875 1.56104 -0.216619 0
M  V30 3562 C 346.822 2.2007 0.695531 0
M  V30 3563 C 347.792 1.15471 1.19397 0
M  V30 3564 O 348.977 1.43807 1.25396 0
M  V30 3565 C 346.117 2.88073 1.90021 0
M  V30 3566 C 345.23 4.07253 1.44113 0
M  V30 3567 C 344.365 4.63052 2.603 0
M  V30 3568 C 343.404 5.74545 2.11103 0
M  V30 3569 N 342.541 6.24656 3.20545 0
M  V30 3570 H 347.381 2.97655 0.143327 0
M  V30 3571 H 344.918 1.46982 0.0589934 0
M  V30 3572 H 346.876 3.25681 2.60745 0
M  V30 3573 H 345.506 2.13015 2.42538 0
M  V30 3574 H 344.558 3.75164 0.628999 0
M  V30 3575 H 345.87 4.8783 1.04036 0
M  V30 3576 H 345.024 5.03078 3.39113 0
M  V30 3577 H 343.763 3.81628 3.03663 0
M  V30 3578 H 342.768 5.34027 1.3075 0
M  V30 3579 H 343.993 6.57801 1.68746 0
M  V30 3580 H 341.939 5.46148 3.63399 0
M  V30 3581 H 341.856 7.00343 2.84704 0
M  V30 3582 H 343.124 6.69338 3.99508 0
M  V30 3583 N 347.353 -0.0568162 1.57498 0
M  V30 3584 C 348.599 -0.75422 1.88253 0
M  V30 3585 C 348.932 -1.76461 0.810865 0
M  V30 3586 O 348.207 -1.93691 -0.177259 0
M  V30 3587 C 348.49 -1.44878 3.2967 0
M  V30 3588 C 348.343 -0.453789 4.47505 0
M  V30 3589 C 349.662 -2.38994 3.69554 0
M  V30 3590 H 346.781 -0.272724 0.684683 0
M  V30 3591 H 349.423 -0.0172113 1.89992 0
M  V30 3592 H 347.573 -2.077 3.28318 0
M  V30 3593 H 349.245 0.170371 4.60985 0
M  V30 3594 H 347.488 0.229552 4.33192 0
M  V30 3595 H 348.159 -0.977699 5.43273 0
M  V30 3596 H 350.635 -1.86239 3.72095 0
M  V30 3597 H 349.511 -2.84587 4.69363 0
M  V30 3598 H 349.772 -3.24461 3.00296 0
M  V30 3599 N 348.832 -1.54138 -0.328536 0
M  V30 3600 C 350.057 -1.76378 -1.09112 0
M  V30 3601 C 350.482 -0.508596 -1.81094 0
M  V30 3602 O 349.84 0.539598 -1.73084 0
M  V30 3603 C 349.888 -2.95358 -2.06872 0
M  V30 3604 O 348.992 -2.66556 -3.14677 0
M  V30 3605 H 348.333 -0.584614 -0.314838 0
M  V30 3606 H 350.863 -2.01146 -0.374348 0
M  V30 3607 H 350.873 -3.22566 -2.4983 0
M  V30 3608 H 349.548 -3.86385 -1.5388 0
M  V30 3609 H 348.125 -2.50282 -2.7643 0
M  V30 3610 N 350.31 0.590341 -1.46126 0
M  V30 3611 C 351.273 1.68194 -1.55703 0
M  V30 3612 C 352.273 1.54808 -0.434868 0
M  V30 3613 O 353.463 1.59564 -0.698928 0
M  V30 3614 C 350.595 3.07575 -1.47005 0
M  V30 3615 H 351.788 1.61064 -2.52979 0
M  V30 3616 H 349.341 0.807541 -1.33823 0
M  V30 3617 H 350.076 3.20268 -0.509785 0
M  V30 3618 H 349.861 3.187 -2.28414 0
M  V30 3619 H 351.351 3.87055 -1.56776 0
M  V30 3620 N 351.788 1.33704 0.83433 0
M  V30 3621 C 352.72 1.20172 1.9517 0
M  V30 3622 C 353.733 0.131572 1.62267 0
M  V30 3623 O 354.922 0.382406 1.74356 0
M  V30 3624 C 352.022 0.821716 3.28787 0
M  V30 3625 C 351.195 1.98446 3.89792 0
M  V30 3626 C 350.254 1.58469 5.01771 0
M  V30 3627 O 349.28 2.29968 5.20676 0
M  V30 3628 N 350.482 0.492291 5.78409 0
M  V30 3629 H 353.247 2.16429 2.07313 0
M  V30 3630 H 350.808 1.26509 1.0103 0
M  V30 3631 H 352.8 0.536291 4.01131 0
M  V30 3632 H 351.37 -0.0503058 3.1256 0
M  V30 3633 H 350.59 2.43526 3.09982 0
M  V30 3634 H 351.878 2.76236 4.27283 0
M  V30 3635 H 351.276 -0.102349 5.65607 0
M  V30 3636 H 349.833 0.266555 6.51255 0
M  V30 3637 N 353.266 -1.05314 1.17247 0
M  V30 3638 C 354.213 -2.13031 0.888058 0
M  V30 3639 C 355.183 -1.65253 -0.167537 0
M  V30 3640 O 356.368 -1.90775 -0.0305974 0
M  V30 3641 C 353.508 -3.42702 0.406147 0
M  V30 3642 C 352.621 -4.04161 1.52572 0
M  V30 3643 C 351.756 -5.21744 0.997808 0
M  V30 3644 C 350.795 -5.75207 2.09291 0
M  V30 3645 N 349.932 -6.84094 1.57986 0
M  V30 3646 H 354.772 -2.36698 1.81048 0
M  V30 3647 H 352.309 -1.16121 0.903013 0
M  V30 3648 H 354.267 -4.17059 0.108305 0
M  V30 3649 H 352.897 -3.19222 -0.479313 0
M  V30 3650 H 351.949 -3.27253 1.93931 0
M  V30 3651 H 353.261 -4.39881 2.35172 0
M  V30 3652 H 352.415 -6.03168 0.653739 0
M  V30 3653 H 351.154 -4.87495 0.141232 0
M  V30 3654 H 350.159 -4.92414 2.44557 0
M  V30 3655 H 351.384 -6.11505 2.95362 0
M  V30 3656 H 349.33 -6.51745 0.74598 0
M  V30 3657 H 349.247 -7.18811 2.34195 0
M  V30 3658 H 350.515 -7.69172 1.26468 0
M  V30 3659 N 354.744 -0.972509 -1.24016 0
M  V30 3660 C 355.674 -0.525548 -2.27509 0
M  V30 3661 C 356.655 0.437262 -1.64384 0
M  V30 3662 O 357.84 0.332343 -1.91335 0
M  V30 3663 C 354.97 0.180448 -3.46831 0
M  V30 3664 C 353.924 -0.698859 -4.22256 0
M  V30 3665 C 353.25 0.138903 -5.3452 0
M  V30 3666 C 354.55 -1.98582 -4.83076 0
M  V30 3667 H 356.244 -1.39058 -2.65148 0
M  V30 3668 H 353.79 -0.67009 -1.27459 0
M  V30 3669 H 355.743 0.504387 -4.18371 0
M  V30 3670 H 354.467 1.07987 -3.08231 0
M  V30 3671 H 353.126 -1.00614 -3.52523 0
M  V30 3672 H 352.774 1.03862 -4.9216 0
M  V30 3673 H 352.474 -0.446259 -5.85903 0
M  V30 3674 H 353.998 0.457404 -6.08884 0
M  V30 3675 H 355.412 -1.72715 -5.46665 0
M  V30 3676 H 353.809 -2.5181 -5.44713 0
M  V30 3677 H 354.879 -2.67769 -4.04262 0
M  V30 3678 N 356.222 1.38976 -0.743202 0
M  V30 3679 C 357.152 2.33171 -0.123873 0
M  V30 3680 C 358.133 1.54336 0.71516 0
M  V30 3681 O 359.318 1.82696 0.658467 0
M  V30 3682 C 356.448 3.38474 0.777978 0
M  V30 3683 C 355.402 4.27979 0.0424758 0
M  V30 3684 C 354.728 5.2405 1.06189 0
M  V30 3685 C 356.028 5.10155 -1.1198 0
M  V30 3686 H 357.722 2.85213 -0.910709 0
M  V30 3687 H 355.268 1.37133 -0.439388 0
M  V30 3688 H 357.221 4.03328 1.22084 0
M  V30 3689 H 355.945 2.84891 1.59702 0
M  V30 3690 H 354.604 3.64616 -0.380853 0
M  V30 3691 H 354.252 4.66758 1.87472 0
M  V30 3692 H 353.952 5.84785 0.574485 0
M  V30 3693 H 355.476 5.9178 1.50428 0
M  V30 3694 H 356.89 5.68307 -0.75499 0
M  V30 3695 H 355.287 5.80073 -1.53738 0
M  V30 3696 H 356.357 4.44504 -1.93764 0
M  V30 3697 N 357.7 0.491464 1.49741 0
M  V30 3698 C 358.925 -0.0557177 2.07325 0
M  V30 3699 C 359.35 -1.30925 1.35056 0
M  V30 3700 O 358.708 -1.76733 0.404365 0
M  V30 3701 C 358.756 -0.302074 3.59333 0
M  V30 3702 O 357.86 -1.37868 3.88672 0
M  V30 3703 H 357.201 0.0219956 0.663636 0
M  V30 3704 H 359.731 0.688352 1.92673 0
M  V30 3705 H 359.741 -0.536464 4.04458 0
M  V30 3706 H 358.416 0.61383 4.11345 0
M  V30 3707 H 356.993 -1.12999 3.55367 0
M  V30 3708 N 359.178 -1.55987 0.224894 0
M  V30 3709 C 360.108 -2.23426 -0.678457 0
M  V30 3710 C 361.089 -1.20709 -1.19847 0
M  V30 3711 O 362.274 -1.49304 -1.24186 0
M  V30 3712 C 359.404 -2.91676 -1.88527 0
M  V30 3713 C 358.358 -4.00893 -1.49896 0
M  V30 3714 C 357.684 -4.56455 -2.78483 0
M  V30 3715 C 358.984 -5.17769 -0.686461 0
M  V30 3716 H 360.678 -2.99175 -0.116173 0
M  V30 3717 H 358.224 -1.43897 -0.054436 0
M  V30 3718 H 360.177 -3.37547 -2.5227 0
M  V30 3719 H 358.901 -2.1338 -2.47258 0
M  V30 3720 H 357.56 -3.55758 -0.884985 0
M  V30 3721 H 357.208 -3.74886 -3.35365 0
M  V30 3722 H 356.908 -5.30169 -2.53368 0
M  V30 3723 H 358.432 -5.05047 -3.43162 0
M  V30 3724 H 359.846 -5.60001 -1.22767 0
M  V30 3725 H 358.243 -5.97735 -0.532259 0
M  V30 3726 H 359.313 -4.83932 0.306196 0
M  V30 3727 N 360.656 0.0484629 -1.57525 0
M  V30 3728 C 361.586 1.0549 -2.08313 0
M  V30 3729 C 362.567 1.38929 -0.981463 0
M  V30 3730 O 363.752 1.48151 -1.25558 0
M  V30 3731 C 360.882 2.36162 -2.54646 0
M  V30 3732 C 359.836 2.17016 -3.68901 0
M  V30 3733 C 359.162 3.53278 -4.01371 0
M  V30 3734 C 360.462 1.57219 -4.98076 0
M  V30 3735 H 362.156 0.632195 -2.92649 0
M  V30 3736 H 359.702 0.302654 -1.40784 0
M  V30 3737 H 361.655 3.06882 -2.88793 0
M  V30 3738 H 360.379 2.80456 -1.67368 0
M  V30 3739 H 359.038 1.48733 -3.35073 0
M  V30 3740 H 358.686 3.95185 -3.11188 0
M  V30 3741 H 358.386 3.41299 -4.78318 0
M  V30 3742 H 359.91 4.25391 -4.38035 0
M  V30 3743 H 361.324 2.17832 -5.30304 0
M  V30 3744 H 359.721 1.55871 -5.79503 0
M  V30 3745 H 360.791 0.535956 -4.81929 0
M  V30 3746 N 362.134 1.5431 0.320358 0
M  V30 3747 C 363.044 1.86946 1.41734 0
M  V30 3748 C 364.06 0.761689 1.56443 0
M  V30 3749 O 365.236 1.05629 1.71477 0
M  V30 3750 C 362.301 2.09293 2.76401 0
M  V30 3751 C 361.362 3.33082 2.70841 0
M  V30 3752 C 360.595 3.54353 3.99086 0
M  V30 3753 O 360.818 2.79002 4.97508 0
M  V30 3754 O 359.752 4.47838 4.0215 0
M  V30 3755 H 363.578 2.80232 1.17062 0
M  V30 3756 H 361.163 1.40255 0.514673 0
M  V30 3757 H 363.045 2.25303 3.56113 0
M  V30 3758 H 361.72 1.19194 3.00956 0
M  V30 3759 H 360.627 3.22454 1.89668 0
M  V30 3760 H 361.96 4.23249 2.5124 0
M  V30 3761 N 363.613 -0.582584 1.46437 0
M  V30 3762 C 364.56 -1.69164 1.5701 0
M  V30 3763 C 365.53 -1.60847 0.414403 0
M  V30 3764 O 366.715 -1.80058 0.631171 0
M  V30 3765 C 363.855 -3.075 1.56646 0
M  V30 3766 C 362.968 -3.2644 2.82951 0
M  V30 3767 C 362.103 -4.55026 2.7409 0
M  V30 3768 C 361.142 -4.6731 3.95333 0
M  V30 3769 N 360.279 -5.87221 3.84858 0
M  V30 3770 H 365.119 -1.59464 2.51744 0
M  V30 3771 H 362.656 -0.777186 1.24893 0
M  V30 3772 H 364.614 -3.8757 1.5442 0
M  V30 3773 H 363.244 -3.16096 0.654439 0
M  V30 3774 H 362.296 -2.39974 2.95155 0
M  V30 3775 H 363.608 -3.31385 3.72808 0
M  V30 3776 H 362.762 -5.43324 2.6997 0
M  V30 3777 H 361.501 -4.52519 1.81873 0
M  V30 3778 H 360.506 -3.77429 3.99784 0
M  V30 3779 H 361.731 -4.71595 4.88646 0
M  V30 3780 H 359.677 -5.85712 2.95427 0
M  V30 3781 H 359.594 -5.93435 4.6837 0
M  V30 3782 H 360.862 -6.7795 3.84713 0
M  V30 3783 N 365.091 -1.34144 -0.827227 0
M  V30 3784 C 366.368 -1.16844 -1.56865 0
M  V30 3785 C 366.748 0.260654 -2.09485 0
M  V30 3786 O 366.096 1.26138 -1.9053 0
M  V30 3787 C 366.306 -2.21939 -2.6934 0
M  V30 3788 C 367.654 -2.56695 -3.3822 0
M  V30 3789 O 368.678 -2.20695 -2.79593 0
M  V30 3790 O 367.537 -3.18518 -4.44082 0
M  V30 3791 H 364.631 -0.452669 -0.692112 0
M  V30 3792 H 367.177 -1.45763 -0.868973 0
M  V30 3793 H 365.949 -3.17882 -2.28182 0
M  V30 3794 H 365.572 -1.94172 -3.46962 0
M  V30 3795 N 366.569 1.04691 -1.17803 0
M  V30 3796 C 367.479 2.16057 -0.914151 0
M  V30 3797 C 368.495 1.73589 0.119503 0
M  V30 3798 O 369.671 2.01308 -0.0609468 0
M  V30 3799 C 366.736 3.4394 -0.436603 0
M  V30 3800 C 365.797 4.00825 -1.53746 0
M  V30 3801 C 365.03 5.22604 -1.0826 0
M  V30 3802 O 365.253 5.70367 0.0612244 0
M  V30 3803 O 364.187 5.7186 -1.87775 0
M  V30 3804 H 368.013 2.41169 -1.84584 0
M  V30 3805 H 365.598 1.1453 -0.959334 0
M  V30 3806 H 367.48 4.21024 -0.178057 0
M  V30 3807 H 366.155 3.20316 0.466869 0
M  V30 3808 H 365.062 3.25158 -1.84995 0
M  V30 3809 H 366.395 4.28778 -2.41683 0
M  V30 3810 N 368.047 0.979072 1.23499 0
M  V30 3811 C 369.294 0.647219 1.91878 0
M  V30 3812 C 369.622 -0.819074 1.76413 0
M  V30 3813 O 368.877 -1.60616 1.11808 0
M  V30 3814 C 369.176 0.981932 3.43646 0
M  V30 3815 C 368.842 2.43822 3.79291 0
M  V30 3816 C 367.504 2.83622 3.88731 0
M  V30 3817 C 369.856 3.3828 3.96505 0
M  V30 3818 C 367.184 4.16897 4.12812 0
M  V30 3819 C 369.536 4.71197 4.22085 0
M  V30 3820 C 368.2 5.10758 4.29747 0
M  V30 3821 H 367.47 0.236834 0.702133 0
M  V30 3822 H 370.117 1.23268 1.46551 0
M  V30 3823 H 368.422 0.314365 3.90537 0
M  V30 3824 H 370.119 0.703395 3.94783 0
M  V30 3825 H 366.709 2.11966 3.72516 0
M  V30 3826 H 370.893 3.0871 3.88603 0
M  V30 3827 H 366.149 4.47157 4.16966 0
M  V30 3828 H 370.323 5.44348 4.34348 0
M  V30 3829 H 367.95 6.1405 4.48159 0
M  V30 3830 N 369.525 -1.3858 0.750561 0
M  V30 3831 C 370.472 -2.30483 0.120835 0
M  V30 3832 C 371.442 -1.50022 -0.712923 0
M  V30 3833 O 372.627 -1.78662 -0.669676 0
M  V30 3834 C 369.767 -3.36431 -0.768666 0
M  V30 3835 C 368.88 -4.31927 0.0793922 0
M  V30 3836 C 368.015 -5.24944 -0.81283 0
M  V30 3837 C 367.054 -6.12088 0.0390447 0
M  V30 3838 N 366.191 -6.97412 -0.809969 0
M  V30 3839 H 371.031 -2.83761 0.91015 0
M  V30 3840 H 368.568 -1.39707 0.460463 0
M  V30 3841 H 370.526 -3.96462 -1.29898 0
M  V30 3842 H 369.156 -2.8457 -1.5238 0
M  V30 3843 H 368.208 -3.73382 0.727303 0
M  V30 3844 H 369.52 -4.93319 0.737401 0
M  V30 3845 H 368.674 -5.90078 -1.41042 0
M  V30 3846 H 367.413 -4.63911 -1.50458 0
M  V30 3847 H 366.418 -5.45952 0.649328 0
M  V30 3848 H 367.643 -6.75189 0.727809 0
M  V30 3849 H 365.589 -6.38931 -1.48672 0
M  V30 3850 H 365.506 -7.55712 -0.208789 0
M  V30 3851 H 366.774 -7.66959 -1.39263 0
M  V30 3852 N 371.003 -0.499398 -1.49478 0
M  V30 3853 C 372.228 0.044722 -2.07352 0
M  V30 3854 C 372.653 1.30207 -1.35749 0
M  V30 3855 O 372.011 1.76516 -0.413732 0
M  V30 3856 C 372.059 0.283013 -3.59488 0
M  V30 3857 O 371.163 1.35804 -3.89398 0
M  V30 3858 H 370.504 -0.0255147 -0.66351 0
M  V30 3859 H 373.034 -0.698561 -1.92305 0
M  V30 3860 H 373.044 0.515007 -4.04737 0
M  V30 3861 H 371.719 -0.635636 -4.11014 0
M  V30 3862 H 370.296 1.11113 -3.55961 0
M  V30 3863 N 372.481 1.55866 -0.233164 0
M  V30 3864 C 373.729 1.9821 0.394593 0
M  V30 3865 C 374.05 1.12234 1.59463 0
M  V30 3866 O 373.32 0.201981 1.94856 0
M  V30 3867 H 371.9 0.732034 0.148778 0
M  V30 3868 H 374.562 1.92107 -0.32876 0
M  V30 3869 H 373.658 3.03845 0.713063 0
M  V30 3870 N 373.959 -0.0401083 1.57549 0
M  V30 3871 C 374.922 -1.02871 2.04817 0
M  V30 3872 C 375.922 -1.29708 0.950388 0
M  V30 3873 O 377.112 -1.24897 1.21435 0
M  V30 3874 C 374.244 -2.36443 2.45576 0
M  V30 3875 H 375.437 -0.620631 2.93408 0
M  V30 3876 H 372.99 -0.286667 1.53649 0
M  V30 3877 H 373.725 -2.82021 1.60108 0
M  V30 3878 H 373.51 -2.18296 3.25713 0
M  V30 3879 H 375 -3.07441 2.82612 0
M  V30 3880 N 375.437 -1.54477 -0.31217 0
M  V30 3881 C 376.387 -1.81037 -1.38598 0
M  V30 3882 C 377.371 -0.666941 -1.46426 0
M  V30 3883 O 378.563 -0.927269 -1.50767 0
M  V30 3884 C 375.692 -2.05127 -2.75277 0
M  V30 3885 C 374.778 -3.25624 -2.71716 0
M  V30 3886 N 375.169 -4.46428 -2.37773 0
M  V30 3887 C 373.467 -3.27427 -3.02833 0
M  V30 3888 C 374.168 -5.28406 -2.43232 0
M  V30 3889 N 373.144 -4.6586 -2.80135 0
M  V30 3890 H 376.946 -2.7201 -1.11301 0
M  V30 3891 H 374.46 -1.53826 -0.520705 0
M  V30 3892 H 376.457 -2.22299 -3.52688 0
M  V30 3893 H 375.117 -1.15416 -3.03495 0
M  V30 3894 H 376.128 -4.73227 -2.1042 0
M  V30 3895 H 372.805 -2.47786 -3.36018 0
M  V30 3896 H 374.195 -6.34903 -2.19882 0
M  V30 3897 N 376.915 0.57481 -1.46744 0
M  V30 3898 C 378.161 1.3347 -1.52688 0
M  V30 3899 C 378.494 1.93353 -0.181229 0
M  V30 3900 O 377.769 1.76912 0.808237 0
M  V30 3901 C 378.052 2.45811 -2.63152 0
M  V30 3902 C 377.905 1.90912 -4.07275 0
M  V30 3903 C 379.224 3.47822 -2.69644 0
M  V30 3904 H 376.343 0.483935 -0.555856 0
M  V30 3905 H 378.985 0.644968 -1.78718 0
M  V30 3906 H 377.135 3.04646 -2.41088 0
M  V30 3907 H 378.807 1.36473 -4.4065 0
M  V30 3908 H 377.05 1.21691 -4.16382 0
M  V30 3909 H 377.721 2.72042 -4.80309 0
M  V30 3910 H 380.197 2.9888 -2.895 0
M  V30 3911 H 379.073 4.23876 -3.48742 0
M  V30 3912 H 379.334 4.05555 -1.76005 0
M  V30 3913 N 378.394 1.34581 0.820102 0
M  V30 3914 C 379.671 1.17675 1.56244 0
M  V30 3915 C 380.051 -0.249541 2.0962 0
M  V30 3916 O 379.399 -1.25125 1.91196 0
M  V30 3917 C 379.609 2.23364 2.6816 0
M  V30 3918 C 380.957 2.58485 3.36854 0
M  V30 3919 O 381.981 2.22175 2.78418 0
M  V30 3920 O 380.84 3.20868 4.42386 0
M  V30 3921 H 377.934 0.456333 0.689702 0
M  V30 3922 H 380.48 1.46222 0.861231 0
M  V30 3923 H 379.252 3.19087 2.26493 0
M  V30 3924 H 378.875 1.96009 3.45928 0
M  V30 3925 N 379.872 -1.04064 1.18357 0
M  V30 3926 C 381.119 -1.77265 0.978947 0
M  V30 3927 C 381.447 -1.88189 -0.491428 0
M  V30 3928 O 380.702 -1.38653 -1.38108 0
M  V30 3929 C 381.001 -3.20634 1.57888 0
M  V30 3930 C 380.667 -3.29743 3.07539 0
M  V30 3931 C 379.329 -3.31937 3.48384 0
M  V30 3932 C 381.681 -3.29841 4.03552 0
M  V30 3933 C 379.009 -3.3187 4.83818 0
M  V30 3934 C 381.361 -3.31313 5.38901 0
M  V30 3935 C 380.025 -3.31799 5.79194 0
M  V30 3936 H 379.295 -0.648659 0.358222 0
M  V30 3937 H 381.942 -1.22225 1.47422 0
M  V30 3938 H 380.247 -3.78675 1.00561 0
M  V30 3939 H 381.944 -3.75917 1.39598 0
M  V30 3940 H 378.534 -3.28757 2.74986 0
M  V30 3941 H 382.718 -3.27337 3.73047 0
M  V30 3942 H 377.974 -3.30562 5.14333 0
M  V30 3943 H 382.148 -3.30338 6.13066 0
M  V30 3944 H 379.775 -3.315 6.84114 0
M  V30 3945 N 381.35 -0.985608 -1.22978 0
M  V30 3946 C 382.58 -0.674603 -1.95276 0
M  V30 3947 C 382.988 0.763483 -1.73111 0
M  V30 3948 O 382.331 1.52601 -1.02268 0
M  V30 3949 C 382.393 -0.891597 -3.48268 0
M  V30 3950 C 382.057 -2.31275 -3.94158 0
M  V30 3951 C 383.054 -3.29179 -4.02415 0
M  V30 3952 C 380.739 -2.64524 -4.27004 0
M  V30 3953 C 382.733 -4.58407 -4.42879 0
M  V30 3954 C 380.42 -3.93974 -4.67149 0
M  V30 3955 C 381.418 -4.90727 -4.75053 0
M  V30 3956 O 381.106 -6.17865 -5.14294 0
M  V30 3957 H 380.838 -0.249251 -0.628371 0
M  V30 3958 H 383.392 -1.32106 -1.5728 0
M  V30 3959 H 381.622 -0.187962 -3.86243 0
M  V30 3960 H 383.311 -0.576957 -4.01779 0
M  V30 3961 H 384.077 -3.04823 -3.77237 0
M  V30 3962 H 379.956 -1.89923 -4.2006 0
M  V30 3963 H 383.5 -5.33926 -4.48964 0
M  V30 3964 H 379.397 -4.18122 -4.91777 0
M  V30 3965 H 380.165 -6.21694 -5.32389 0
M  V30 3966 N 382.828 1.3818 -0.7579 0
M  V30 3967 C 384.105 1.94106 -0.241306 0
M  V30 3968 C 384.485 1.69282 1.26122 0
M  V30 3969 O 383.833 1.03378 2.03777 0
M  V30 3970 C 384.043 3.43809 -0.59967 0
M  V30 3971 C 385.391 4.20868 -0.561717 0
M  V30 3972 O 386.415 3.5211 -0.538222 0
M  V30 3973 O 385.274 5.43451 -0.576478 0
M  V30 3974 H 382.368 0.825376 -0.0518042 0
M  V30 3975 H 384.914 1.47548 -0.838315 0
M  V30 3976 H 383.686 3.55403 -1.6372 0
M  V30 3977 H 383.309 3.97592 0.0251197 0
M  V30 3978 N 384.306 0.507319 1.49211 0
M  V30 3979 C 385.253 -0.267728 2.29242 0
M  V30 3980 C 386.223 -0.954609 1.35928 0
M  V30 3981 O 387.408 -0.960046 1.64887 0
M  V30 3982 C 384.548 -1.32243 3.18756 0
M  V30 3983 C 383.661 -0.64669 4.27132 0
M  V30 3984 C 382.796 -1.68238 5.03855 0
M  V30 3985 C 381.835 -0.98885 6.0406 0
M  V30 3986 N 380.972 -1.96903 6.73924 0
M  V30 3987 H 385.812 0.420968 2.95012 0
M  V30 3988 H 383.349 0.219443 1.45454 0
M  V30 3989 H 385.307 -1.94599 3.69036 0
M  V30 3990 H 383.937 -1.97981 2.54958 0
M  V30 3991 H 382.989 0.0902926 3.80293 0
M  V30 3992 H 384.301 -0.101058 4.98698 0
M  V30 3993 H 383.455 -2.38081 5.58034 0
M  V30 3994 H 382.194 -2.26187 4.32077 0
M  V30 3995 H 381.199 -0.276222 5.49106 0
M  V30 3996 H 382.424 -0.415767 6.77826 0
M  V30 3997 H 380.37 -2.53803 6.04913 0
M  V30 3998 H 380.287 -1.47423 7.41487 0
M  V30 3999 H 381.555 -2.66015 7.32705 0
M  V30 4000 O 385.823 -1.56889 0.38316 0
M  V30 4001 H 386.514 -1.93009 -0.163415 0
M  V30 END ATOM
M  V30 BEGIN BOND
M  V30 END BOND
M  V30 END CTAB
M  END
$$$$
