drugbank_target|Q02127 Dihydroorotate dehydrogenase (quinone), mitochondrial (DB01097; DB01117; DB02262; DB02613; DB03247; DB03480; DB03523; DB04147; DB04281; DB04583; DB05125; DB06481; DB07443; DB07559; DB07561; DB07646; DB07975; DB07976; DB07977; DB07978; DB08006; DB08008; DB08169; DB08172; DB08249; DB08880)
 OpenBabel12092119303D

  0  0  0     0  0            999 V3000
M  V30 BEGIN CTAB
M  V30 COUNTS 6126 6177 0 0 0
M  V30 BEGIN ATOM
M  V30 1 H -0.908 1.98254 -0.117106 0
M  V30 2 N 0 1.576 0 0
M  V30 3 C 0.933 2.03868 1.02534 0
M  V30 4 C 1.911 0.928543 1.3348 0
M  V30 5 O 3.095 1.19667 1.45644 0
M  V30 6 C 0.222 2.43627 2.35294 0
M  V30 7 C -0.732 3.65373 2.2001 0
M  V30 8 S 0.101 5.13292 1.52614 0
M  V30 9 C 1.257 5.56322 2.86805 0
M  V30 10 H 1.49 2.90518 0.631377 0
M  V30 11 H -0.977 1.52953 0.210867 0
M  V30 12 H 0.981 2.67203 3.11629 0
M  V30 13 H -0.358 1.57376 2.7183 0
M  V30 14 H -1.165 3.90944 3.18086 0
M  V30 15 H -1.563 3.418 1.51819 0
M  V30 16 H 0.729 5.58782 3.83104 0
M  V30 17 H 1.672 6.56266 2.65933 0
M  V30 18 H 2.08 4.83886 2.90714 0
M  V30 19 N 1.4781 -0.272755 1.55222 0
M  V30 20 C 2.4411 -1.32041 1.87344 0
M  V30 21 C 3.4411 -1.42342 0.74803 0
M  V30 22 O 4.6311 -1.41488 1.0162 0
M  V30 23 C 1.7631 -2.70173 2.07893 0
M  V30 24 H 2.9561 -1.04789 2.80997 0
M  V30 25 H 0.5091 -0.51083 1.47717 0
M  V30 26 H 1.2441 -3.02605 1.16622 0
M  V30 27 H 1.0291 -2.64082 2.89833 0
M  V30 28 H 2.5191 -3.45869 2.34017 0
M  V30 29 N 2.9562 -1.48159 -0.537278 0
M  V30 30 C 4.2022 -1.57015 -1.29297 0
M  V30 31 C 4.5572 -0.237791 -1.90925 0
M  V30 32 O 3.8502 0.758621 -1.75942 0
M  V30 33 C 4.0442 -2.63956 -2.40961 0
M  V30 34 C 3.8732 -4.07461 -1.90278 0
M  V30 35 C 2.6432 -4.74685 -1.73213 0
M  V30 36 C 4.8412 -4.93858 -1.43556 0
M  V30 37 N 2.8232 -6.02633 -1.17078 0
M  V30 38 C 4.1942 -6.11993 -0.993204 0
M  V30 39 C 6.2492 -4.80141 -1.31792 0
M  V30 40 C 4.9522 -7.17923 -0.444872 0
M  V30 41 C 6.9782 -5.86186 -0.783585 0
M  V30 42 C 6.3402 -7.03524 -0.351261 0
M  V30 43 H 2.4392 -0.629154 -0.464423 0
M  V30 44 H 5.0232 -1.85006 -0.606705 0
M  V30 45 H 3.1942 -2.378 -3.07093 0
M  V30 46 H 4.9262 -2.62539 -3.07986 0
M  V30 47 H 1.6812 -4.30902 -1.9652 0
M  V30 48 H 2.1052 -6.7085 -0.910421 0
M  V30 49 H 6.7472 -3.89772 -1.63823 0
M  V30 50 H 4.4652 -8.08022 -0.11222 0
M  V30 51 H 8.0512 -5.77624 -0.695835 0
M  V30 52 H 6.9312 -7.8418 0.055777 0
M  V30 53 N 4.4343 0.785586 -1.36625 0
M  V30 54 C 5.8503 1.08419 -1.17122 0
M  V30 55 C 6.0503 2.015 0.00208491 0
M  V30 56 O 5.1063 2.43551 0.666278 0
M  V30 57 C 6.4193 1.69498 -2.48377 0
M  V30 58 C 7.9673 1.81821 -2.54775 0
M  V30 59 C 8.4423 2.46315 -3.86126 0
M  V30 60 N 9.9333 2.53779 -3.87492 0
M  V30 61 C 10.6683 3.045 -4.85868 0
M  V30 62 N 10.1643 3.55499 -5.94637 0
M  V30 63 N 11.9573 3.03247 -4.73284 0
M  V30 64 H 4.1083 0.167264 -2.1174 0
M  V30 65 H 6.3713 0.13682 -0.938075 0
M  V30 66 H 6.0773 1.08571 -3.34522 0
M  V30 67 H 5.9513 2.6896 -2.64462 0
M  V30 68 H 8.3383 2.41884 -1.69045 0
M  V30 69 H 8.4193 0.811532 -2.42586 0
M  V30 70 H 8.0633 1.86895 -4.72263 0
M  V30 71 H 7.9933 3.47561 -3.95612 0
M  V30 72 H 10.4843 2.17672 -3.08913 0
M  V30 73 H 10.7973 3.92562 -6.65669 0
M  V30 74 H 9.1423 3.5364 -5.98301 0
M  V30 75 H 12.3333 2.62696 -3.87438 0
M  V30 76 H 12.5063 3.42467 -5.50109 0
M  V30 77 N 5.9124 1.20967 1.01018 0
M  V30 78 C 6.8624 0.93182 2.08089 0
M  V30 79 C 7.8464 -0.110898 1.60517 0
M  V30 80 O 9.0384 0.0973392 1.76732 0
M  V30 81 C 6.1674 0.492719 3.39746 0
M  V30 82 C 5.2534 1.56922 3.94 0
M  V30 83 N 5.6444 2.79312 4.21686 0
M  V30 84 C 3.9424 1.43688 4.2222 0
M  V30 85 C 4.6434 3.48797 4.65527 0
M  V30 86 N 3.6194 2.76224 4.68189 0
M  V30 87 H 7.4214 1.86175 2.27412 0
M  V30 88 H 4.9354 1.10463 1.19045 0
M  V30 89 H 6.9324 0.275044 4.15992 0
M  V30 90 H 5.5924 -0.430509 3.21833 0
M  V30 91 H 6.6034 3.15903 4.10397 0
M  V30 92 H 3.2804 0.578548 4.13472 0
M  V30 93 H 4.6704 4.53561 4.95714 0
M  V30 94 N 7.3905 -1.2043 1.01659 0
M  V30 95 C 8.3205 -2.25466 0.607226 0
M  V30 96 C 9.3015 -1.65853 -0.377716 0
M  V30 97 O 10.4865 -1.92409 -0.263149 0
M  V30 98 C 7.6165 -3.47256 -0.0552949 0
M  V30 99 C 6.5705 -4.19462 0.850632 0
M  V30 100 C 5.8965 -5.34673 0.0538859 0
M  V30 101 C 7.1965 -4.75603 2.15868 0
M  V30 102 H 8.8905 -2.59962 1.48526 0
M  V30 103 H 6.4365 -1.2496 0.715605 0
M  V30 104 H 8.3895 -4.19917 -0.353233 0
M  V30 105 H 7.1135 -3.11924 -0.968045 0
M  V30 106 H 5.7725 -3.48667 1.13257 0
M  V30 107 H 5.4205 -4.95585 -0.860514 0
M  V30 108 H 5.1205 -5.83913 0.657192 0
M  V30 109 H 6.6445 -6.10138 -0.237598 0
M  V30 110 H 8.0585 -5.40083 1.92311 0
M  V30 111 H 6.4555 -5.3528 2.71284 0
M  V30 112 H 7.5255 -3.94346 2.82169 0
M  V30 113 N 8.8686 -0.792821 -1.36206 0
M  V30 114 C 9.8156 -0.191653 -2.30003 0
M  V30 115 C 10.7856 0.666453 -1.52143 0
M  V30 116 O 11.9706 0.61442 -1.80636 0
M  V30 117 C 9.1106 0.664848 -3.38635 0
M  V30 118 C 8.2236 -0.212175 -4.31479 0
M  V30 119 C 7.3586 0.651022 -5.27196 0
M  V30 120 C 6.3976 -0.227247 -6.11678 0
M  V30 121 N 5.5346 0.595127 -6.99573 0
M  V30 122 H 10.3746 -0.996978 -2.80828 0
M  V30 123 H 7.9116 -0.503206 -1.38225 0
M  V30 124 H 9.8696 1.17645 -4.00269 0
M  V30 125 H 8.4996 1.43557 -2.89122 0
M  V30 126 H 7.5516 -0.841777 -3.70969 0
M  V30 127 H 8.8636 -0.888751 -4.90818 0
M  V30 128 H 8.0176 1.2283 -5.94136 0
M  V30 129 H 6.7566 1.36121 -4.68319 0
M  V30 130 H 5.7616 -0.816904 -5.43697 0
M  V30 131 H 6.9866 -0.93509 -6.72631 0
M  V30 132 H 4.9326 1.28955 -6.432 0
M  V30 133 H 4.8496 -0.0236952 -7.55996 0
M  V30 134 H 6.1176 1.15613 -7.70879 0
M  V30 135 N 10.3467 1.47872 -0.545128 0
M  V30 136 C 11.2937 2.29849 0.2093 0
M  V30 137 C 12.2637 1.38313 0.919707 0
M  V30 138 O 13.4487 1.67277 0.917772 0
M  V30 139 C 10.5887 3.22019 1.24088 0
M  V30 140 C 9.7017 4.2864 0.537778 0
M  V30 141 C 8.8367 5.07973 1.5536 0
M  V30 142 C 7.8757 6.06381 0.8348 0
M  V30 143 N 7.0127 6.78717 1.79688 0
M  V30 144 H 11.8527 2.93845 -0.49591 0
M  V30 145 H 9.3897 1.44848 -0.256389 0
M  V30 146 H 11.3477 3.73868 1.85144 0
M  V30 147 H 9.9777 2.59914 1.91428 0
M  V30 148 H 9.0297 3.7994 -0.187046 0
M  V30 149 H 10.3417 4.98793 -0.0258907 0
M  V30 150 H 9.4957 5.63912 2.23803 0
M  V30 151 H 8.2347 4.37693 2.15118 0
M  V30 152 H 7.2397 5.49631 0.136388 0
M  V30 153 H 8.4647 6.78665 0.24313 0
M  V30 154 H 6.4107 6.11177 2.38326 0
M  V30 155 H 6.3277 7.44998 1.28505 0
M  V30 156 H 7.5957 7.39237 2.47282 0
M  V30 157 N 11.8248 0.280983 1.55075 0
M  V30 158 C 13.2408 -0.0729964 1.59433 0
M  V30 159 C 13.4408 -1.5411 1.29817 0
M  V30 160 O 12.4968 -2.29086 1.06187 0
M  V30 161 C 13.8098 0.306921 2.9913 0
M  V30 162 C 15.3578 0.254023 3.11968 0
M  V30 163 C 15.8328 0.608467 4.5394 0
M  V30 164 N 17.3238 0.560241 4.59799 0
M  V30 165 C 18.0588 0.80722 5.6769 0
M  V30 166 N 17.5548 1.11912 6.83701 0
M  V30 167 N 19.3478 0.735623 5.57266 0
M  V30 168 H 11.4988 1.238 1.7259 0
M  V30 169 H 13.7618 0.500547 0.805082 0
M  V30 170 H 13.4678 1.32816 3.25657 0
M  V30 171 H 13.3418 -0.349363 3.75579 0
M  V30 172 H 15.7288 -0.75794 2.852 0
M  V30 173 H 15.8098 0.944649 2.37718 0
M  V30 174 H 15.4538 1.61814 4.81434 0
M  V30 175 H 15.3838 -0.104013 5.26497 0
M  V30 176 H 17.8748 0.329288 3.76463 0
M  V30 177 H 18.1878 1.29409 7.61888 0
M  V30 178 H 16.5328 1.15695 6.85303 0
M  V30 179 H 19.7238 0.491752 4.6551 0
M  V30 180 H 19.8968 0.931482 6.4127 0
M  V30 181 N 13.3029 -1.57598 0.00835791 0
M  V30 182 C 14.2659 -2.07884 -0.965242 0
M  V30 183 C 15.2659 -0.989825 -1.26725 0
M  V30 184 O 16.4559 -1.25218 -1.21104 0
M  V30 185 C 13.5879 -2.52731 -2.28779 0
M  V30 186 H 14.7809 -2.95178 -0.530112 0
M  V30 187 H 12.3339 -1.54458 -0.239283 0
M  V30 188 H 13.0689 -1.68705 -2.76964 0
M  V30 189 H 12.8539 -3.32272 -2.08177 0
M  V30 190 H 14.3439 -2.91933 -2.98605 0
M  V30 191 N 14.781 0.264519 -1.55364 0
M  V30 192 C 15.713 1.34965 -1.85248 0
M  V30 193 C 16.726 1.45136 -0.737525 0
M  V30 194 O 17.915 1.46801 -1.01547 0
M  V30 195 C 15.015 2.73008 -2.00797 0
M  V30 196 C 14.188 2.85324 -3.31525 0
M  V30 197 C 13.247 4.04097 -3.37034 0
M  V30 198 O 12.273 3.94455 -4.10358 0
M  V30 199 N 13.475 5.16458 -2.65049 0
M  V30 200 H 16.24 1.09672 -2.78913 0
M  V30 201 H 13.801 0.454635 -1.55386 0
M  V30 202 H 15.793 3.50772 -2.01844 0
M  V30 203 H 14.363 2.91087 -1.1396 0
M  V30 204 H 13.583 1.94377 -3.42945 0
M  V30 205 H 14.871 2.9049 -4.17724 0
M  V30 206 H 14.269 5.27181 -2.05175 0
M  V30 207 H 12.826 5.92422 -2.71809 0
M  V30 208 N 16.2591 1.48442 0.529413 0
M  V30 209 C 17.5361 1.46978 1.29062 0
M  V30 210 C 17.9161 0.181769 2.10316 0
M  V30 211 O 17.2641 -0.836481 2.12639 0
M  V30 212 C 17.4741 2.7321 2.17157 0
M  V30 213 C 18.8221 3.21562 2.77278 0
M  V30 214 O 19.8461 2.74131 2.27444 0
M  V30 215 O 18.7051 4.04094 3.67927 0
M  V30 216 H 15.7991 0.587003 0.582543 0
M  V30 217 H 18.3451 1.60676 0.546021 0
M  V30 218 H 17.1171 3.58465 1.56903 0
M  V30 219 H 16.7401 2.62235 2.98862 0
M  V30 220 N 17.7372 -0.778329 1.37039 0
M  V30 221 C 18.7002 -1.87301 1.32102 0
M  V30 222 C 19.7002 -1.59198 0.226405 0
M  V30 223 O 20.8902 -1.67403 0.481861 0
M  V30 224 C 18.0222 -3.24309 1.05055 0
M  V30 225 H 19.2152 -1.93093 2.29467 0
M  V30 226 H 16.7682 -0.977358 1.21973 0
M  V30 227 H 17.5032 -3.24196 0.0819373 0
M  V30 228 H 17.2882 -3.46098 1.84279 0
M  V30 229 H 18.7782 -4.04382 1.04234 0
M  V30 230 N 19.2153 -1.21501 -1.00376 0
M  V30 231 C 20.4613 -1.03452 -1.74429 0
M  V30 232 C 20.7943 0.430764 -1.89362 0
M  V30 233 O 20.0693 1.31962 -1.42886 0
M  V30 234 C 20.3523 -1.73375 -3.15615 0
M  V30 235 C 20.2053 -3.27431 -3.08397 0
M  V30 236 C 21.5243 -1.47732 -4.14564 0
M  V30 237 H 18.6433 -0.377226 -0.633143 0
M  V30 238 H 21.2853 -1.49693 -1.17013 0
M  V30 239 H 19.4353 -1.34064 -3.64636 0
M  V30 240 H 21.1073 -3.76119 -2.67081 0
M  V30 241 H 19.3503 -3.5767 -2.45468 0
M  V30 242 H 20.0213 -3.71524 -4.08258 0
M  V30 243 H 22.4973 -1.8186 -3.74254 0
M  V30 244 H 21.3733 -1.99169 -5.11491 0
M  V30 245 H 21.6343 -0.407589 -4.40217 0
M  V30 246 N 20.6934 1.19889 -1.02296 0
M  V30 247 C 21.9424 1.88743 -0.711257 0
M  V30 248 C 22.2554 1.80112 0.762817 0
M  V30 249 O 23.4614 2.44161 1.18733 0
M  V30 250 C 21.9174 3.38525 -1.22185 0
M  V30 251 C 21.5254 3.55727 -2.72328 0
M  V30 252 C 23.2694 4.12893 -0.985864 0
M  V30 253 C 21.1764 4.99369 -3.16835 0
M  V30 254 H 20.1064 0.706885 -0.262353 0
M  V30 255 H 22.7574 1.35586 -1.23648 0
M  V30 256 H 21.1394 3.91044 -0.624571 0
M  V30 257 H 22.3134 3.13564 -3.3766 0
M  V30 258 H 20.6284 2.94739 -2.9414 0
M  V30 259 H 23.2254 5.18813 -1.29374 0
M  V30 260 H 23.5684 4.16228 0.0775055 0
M  V30 261 H 24.1014 3.66494 -1.54684 0
M  V30 262 H 20.8404 5.01193 -4.22476 0
M  V30 263 H 20.3604 5.42317 -2.56228 0
M  V30 264 H 22.0394 5.67988 -3.09837 0
M  V30 265 N 22.1715 0.800033 1.35784 0
M  V30 266 C 23.4205 0.37387 1.98205 0
M  V30 267 C 23.7335 -1.06302 1.64193 0
M  V30 268 O 24.9395 -1.59198 2.19928 0
M  V30 269 C 23.3955 0.617532 3.54562 0
M  V30 270 C 23.0035 2.06654 3.9749 0
M  V30 271 C 24.7475 0.256401 4.23725 0
M  V30 272 C 22.6545 2.2563 5.46667 0
M  V30 273 H 21.5845 0.136055 0.741623 0
M  V30 274 H 24.2355 0.983166 1.54939 0
M  V30 275 H 22.6175 -0.0616248 3.95952 0
M  V30 276 H 23.7915 2.78296 3.67271 0
M  V30 277 H 22.1065 2.38691 3.41197 0
M  V30 278 H 24.7035 0.376318 5.33374 0
M  V30 279 H 25.0465 -0.796692 4.08606 0
M  V30 280 H 25.5795 0.889214 3.87734 0
M  V30 281 H 22.3185 3.2936 5.66747 0
M  V30 282 H 21.8385 1.58504 5.78478 0
M  V30 283 H 23.5175 2.06861 6.1304 0
M  V30 284 N 23.6496 -1.47581 0.552962 0
M  V30 285 C 24.5796 -2.32762 -0.185451 0
M  V30 286 C 25.5606 -1.43527 -0.912905 0
M  V30 287 O 26.7456 -1.72388 -0.894201 0
M  V30 288 C 23.8756 -3.25219 -1.21859 0
M  V30 289 C 22.8296 -4.23661 -0.607864 0
M  V30 290 C 22.1556 -5.05413 -1.74533 0
M  V30 291 C 23.4556 -5.20481 0.435582 0
M  V30 292 H 25.1496 -2.94749 0.525684 0
M  V30 293 H 22.6956 -1.41738 0.254251 0
M  V30 294 H 24.6486 -3.8365 -1.7433 0
M  V30 295 H 23.3726 -2.61279 -1.95961 0
M  V30 296 H 22.0316 -3.66451 -0.104489 0
M  V30 297 H 21.6796 -4.3788 -2.47529 0
M  V30 298 H 21.3796 -5.72059 -1.34249 0
M  V30 299 H 22.9036 -5.66701 -2.27338 0
M  V30 300 H 24.3176 -5.733 -0.00290157 0
M  V30 301 H 22.7146 -5.95305 0.757067 0
M  V30 302 H 23.7846 -4.66217 1.33303 0
M  V30 303 N 25.1277 -0.289203 -1.54924 0
M  V30 304 C 26.3757 0.322879 -1.99504 0
M  V30 305 C 26.6967 1.55313 -1.1791 0
M  V30 306 O 25.9667 1.94001 -0.272097 0
M  V30 307 H 24.5467 0.122291 -0.736922 0
M  V30 308 H 27.2087 -0.397802 -1.90797 0
M  V30 309 H 26.3047 0.603061 -3.06218 0
M  V30 310 N 26.6058 1.57591 -0.0167156 0
M  V30 311 C 27.8538 1.90906 0.663285 0
M  V30 312 C 28.1748 0.892509 1.73376 0
M  V30 313 O 27.4448 -0.0677623 1.95783 0
M  V30 314 H 26.0248 0.704637 0.247983 0
M  V30 315 H 28.6868 1.94803 -0.0615909 0
M  V30 316 H 27.7828 2.9116 1.12393 0
M  V30 317 N 28.0839 -0.256276 1.55502 0
M  V30 318 C 29.3319 -0.983672 1.76545 0
M  V30 319 C 29.6529 -1.86206 0.578982 0
M  V30 320 O 28.9229 -1.91656 -0.405577 0
M  V30 321 H 27.5029 -0.366191 0.651086 0
M  V30 322 H 30.1649 -0.276479 1.92929 0
M  V30 323 H 29.2609 -1.61087 2.67315 0
M  V30 324 N 29.562 -1.4872 -0.521534 0
M  V30 325 C 30.81 -1.56857 -1.27437 0
M  V30 326 C 31.131 -0.247982 -1.93417 0
M  V30 327 O 30.401 0.731151 -1.81744 0
M  V30 328 H 28.981 -0.577885 -0.473347 0
M  V30 329 H 31.643 -1.85233 -0.606205 0
M  V30 330 H 30.739 -2.35402 -2.0492 0
M  V30 331 N 31.0401 0.771051 -1.3745 0
M  V30 332 C 31.9701 1.89827 -1.3597 0
M  V30 333 C 32.9511 1.68562 -0.228216 0
M  V30 334 O 34.1361 1.8941 -0.428675 0
M  V30 335 C 31.2661 3.2712 -1.16662 0
M  V30 336 C 30.2201 3.6295 -2.2683 0
M  V30 337 C 29.5461 4.98791 -1.92644 0
M  V30 338 C 30.8461 3.69627 -3.69017 0
M  V30 339 H 32.5401 1.91323 -2.30295 0
M  V30 340 H 30.0861 0.919082 -1.10855 0
M  V30 341 H 32.0391 4.05615 -1.14256 0
M  V30 342 H 30.7631 3.26059 -0.187926 0
M  V30 343 H 29.4221 2.86763 -2.28392 0
M  V30 344 H 29.0701 4.94271 -0.933021 0
M  V30 345 H 28.7701 5.23733 -2.66416 0
M  V30 346 H 30.2941 5.79685 -1.91826 0
M  V30 347 H 31.7081 4.38273 -3.69581 0
M  V30 348 H 30.1051 4.06067 -4.41848 0
M  V30 349 H 31.1751 2.70273 -4.02592 0
M  V30 350 N 32.5182 1.22032 0.997298 0
M  V30 351 C 33.4482 1.01065 2.10495 0
M  V30 352 C 34.4292 -0.0669542 1.69968 0
M  V30 353 O 35.6142 0.0943987 1.9397 0
M  V30 354 C 32.7442 0.582874 3.42374 0
M  V30 355 C 31.6982 1.60592 3.96729 0
M  V30 356 C 31.0242 1.03412 5.24605 0
M  V30 357 C 32.3242 2.99478 4.27914 0
M  V30 358 H 34.0182 1.93708 2.28292 0
M  V30 359 H 31.5642 0.932761 1.09707 0
M  V30 360 H 33.5172 0.423332 4.19268 0
M  V30 361 H 32.2412 -0.379213 3.24391 0
M  V30 362 H 30.9002 1.75316 3.21963 0
M  V30 363 H 30.5482 0.063518 5.0296 0
M  V30 364 H 30.2482 1.71754 5.61938 0
M  V30 365 H 31.7722 0.886066 6.04137 0
M  V30 366 H 33.1862 2.88153 4.95622 0
M  V30 367 H 31.5832 3.64903 4.76409 0
M  V30 368 H 32.6532 3.49742 3.3587 0
M  V30 369 N 33.9963 -1.19345 1.0293 0
M  V30 370 C 35.2433 -1.89038 0.726008 0
M  V30 371 C 35.5713 -1.79649 -0.745427 0
M  V30 372 O 34.8263 -1.18354 -1.55855 0
M  V30 373 C 35.1253 -3.39292 1.12319 0
M  V30 374 C 34.7913 -3.68885 2.59297 0
M  V30 375 C 33.4533 -3.76671 2.99453 0
M  V30 376 C 35.8053 -3.82178 3.54386 0
M  V30 377 C 33.1333 -3.9522 4.33611 0
M  V30 378 C 35.4853 -4.0224 4.88248 0
M  V30 379 C 34.1493 -4.08259 5.28092 0
M  V30 380 H 33.4193 -0.691739 0.265665 0
M  V30 381 H 36.0663 -1.41328 1.29223 0
M  V30 382 H 34.3713 -3.88903 0.475584 0
M  V30 383 H 36.0683 -3.91536 0.866037 0
M  V30 384 H 32.6583 -3.63433 2.27189 0
M  V30 385 H 36.8423 -3.75505 3.24514 0
M  V30 386 H 32.0983 -3.98119 4.64016 0
M  V30 387 H 36.2723 -4.11468 5.61843 0
M  V30 388 H 33.8993 -4.22384 6.32057 0
M  V30 389 N 35.4744 -0.807222 -1.35358 0
M  V30 390 C 36.4374 -0.223665 -2.28106 0
M  V30 391 C 37.4374 0.589354 -1.4961 0
M  V30 392 O 38.6274 0.407745 -1.69361 0
M  V30 393 C 35.7594 0.688149 -3.33882 0
M  V30 394 H 36.9524 -1.04169 -2.81227 0
M  V30 395 H 34.5054 -0.577921 -1.45223 0
M  V30 396 H 35.2404 1.52984 -2.85948 0
M  V30 397 H 35.0254 0.10687 -3.91954 0
M  V30 398 H 36.5154 1.09075 -4.03104 0
M  V30 399 N 36.9525 1.47285 -0.560781 0
M  V30 400 C 38.1775 2.07359 -0.0410566 0
M  V30 401 C 38.6025 1.41017 1.24483 0
M  V30 402 O 37.9605 0.486368 1.74654 0
M  V30 403 C 38.0085 3.6035 0.134123 0
M  V30 404 O 37.1125 3.94681 1.19587 0
M  V30 405 H 36.4535 0.661887 -0.0529291 0
M  V30 406 H 38.9835 1.89252 -0.777482 0
M  V30 407 H 38.9935 4.0652 0.347207 0
M  V30 408 H 37.6685 4.08034 -0.805047 0
M  V30 409 H 36.2455 3.60251 0.962987 0
M  V30 410 N 38.4306 0.297415 1.54768 0
M  V30 411 C 39.6606 -0.315165 2.04182 0
M  V30 412 C 40.0686 -1.4834 1.17439 0
M  V30 413 O 39.4116 -1.82695 0.191891 0
M  V30 414 C 39.4736 -0.837583 3.49607 0
M  V30 415 C 39.1376 0.204912 4.5654 0
M  V30 416 C 40.1346 1.03214 5.09552 0
M  V30 417 C 37.8196 0.345578 5.0111 0
M  V30 418 C 39.8136 1.986 6.05671 0
M  V30 419 C 37.5006 1.30289 5.97049 0
M  V30 420 C 38.4986 2.12159 6.49213 0
M  V30 421 O 38.1866 3.06268 7.43273 0
M  V30 422 H 37.9186 -0.0729646 0.672051 0
M  V30 423 H 40.4726 0.433907 2.00765 0
M  V30 424 H 38.7026 -1.63712 3.50336 0
M  V30 425 H 40.3916 -1.36566 3.82236 0
M  V30 426 H 41.1576 0.934312 4.75916 0
M  V30 427 H 37.0366 -0.28171 4.60138 0
M  V30 428 H 40.5806 2.62542 6.46311 0
M  V30 429 H 36.4776 1.40145 6.30103 0
M  V30 430 H 37.2456 3.01205 7.61064 0
M  V30 431 N 39.9087 -1.5758 0.0250728 0
M  V30 432 C 40.8387 -2.13007 -0.956575 0
M  V30 433 C 41.8197 -1.0452 -1.342 0
M  V30 434 O 43.0047 -1.32332 -1.42133 0
M  V30 435 C 40.1347 -2.65386 -2.24026 0
M  V30 436 C 39.0887 -3.78623 -1.99571 0
M  V30 437 C 38.4147 -4.17414 -3.3417 0
M  V30 438 C 39.7147 -5.04867 -1.33814 0
M  V30 439 H 41.4087 -2.9528 -0.494991 0
M  V30 440 H 38.9547 -1.42042 -0.236651 0
M  V30 441 H 40.9077 -3.02794 -2.93076 0
M  V30 442 H 39.6317 -1.80268 -2.72343 0
M  V30 443 H 38.2907 -3.41646 -1.32941 0
M  V30 444 H 37.9387 -3.29284 -3.80238 0
M  V30 445 H 37.6387 -4.93719 -3.18615 0
M  V30 446 H 39.1627 -4.57402 -4.04495 0
M  V30 447 H 40.5767 -5.39888 -1.92857 0
M  V30 448 H 38.9737 -5.86144 -1.28669 0
M  V30 449 H 40.0437 -4.83904 -0.310561 0
M  V30 450 N 41.3868 0.248026 -1.55636 0
M  V30 451 C 42.3198 1.3334 -1.85191 0
M  V30 452 C 43.2978 1.46429 -0.706906 0
M  V30 453 O 44.4818 1.62662 -0.952544 0
M  V30 454 C 41.6088 2.70703 -2.03562 0
M  V30 455 C 40.6548 2.7477 -3.26196 0
M  V30 456 S 41.4878 2.31493 -4.82878 0
M  V30 457 C 42.6438 3.70783 -5.04253 0
M  V30 458 H 42.8768 1.08072 -2.76962 0
M  V30 459 H 40.4098 0.448952 -1.47729 0
M  V30 460 H 42.3678 3.49798 -2.1483 0
M  V30 461 H 41.0288 2.9321 -1.12635 0
M  V30 462 H 40.2218 3.75648 -3.36013 0
M  V30 463 H 39.8238 2.03719 -3.13647 0
M  V30 464 H 42.1158 4.6627 -4.91527 0
M  V30 465 H 43.0588 3.65901 -6.06236 0
M  V30 466 H 43.4668 3.63244 -4.32105 0
M  V30 467 N 42.8649 1.48995 0.513639 0
M  V30 468 C 43.8279 1.64229 1.59879 0
M  V30 469 C 44.8279 0.514696 1.5234 0
M  V30 470 O 46.0179 0.78087 1.55718 0
M  V30 471 C 43.1499 1.62783 2.99524 0
M  V30 472 H 44.3429 2.61004 1.47705 0
M  V30 473 H 41.8959 1.37837 0.736936 0
M  V30 474 H 42.6309 0.675461 3.17188 0
M  V30 475 H 42.4159 2.4466 3.06404 0
M  V30 476 H 43.9059 1.76669 3.78388 0
M  V30 477 N 44.343 -0.763751 1.37857 0
M  V30 478 C 45.571 -1.55293 1.36718 0
M  V30 479 C 45.986 -1.88745 -0.0455434 0
M  V30 480 O 45.343 -1.52039 -1.00947 0
M  V30 481 C 45.394 -2.85831 2.2132 0
M  V30 482 O 45.115 -2.5381 3.57089 0
M  V30 483 C 46.616 -3.80023 2.28249 0
M  V30 484 H 43.836 -0.480841 0.468009 0
M  V30 485 H 46.38 -0.946009 1.81303 0
M  V30 486 H 44.535 -3.42926 1.80223 0
M  V30 487 H 44.949 -3.37459 4.01524 0
M  V30 488 H 46.423 -4.68599 2.91752 0
M  V30 489 H 46.9 -4.1973 1.2932 0
M  V30 490 H 47.506 -3.28855 2.69693 0
M  V30 491 N 45.8211 -1.22559 -0.990812 0
M  V30 492 C 47.0691 -1.04933 -1.72724 0
M  V30 493 C 47.3901 0.416158 -1.90508 0
M  V30 494 O 46.6601 1.29918 -1.46622 0
M  V30 495 H 45.2401 -0.385296 -0.639965 0
M  V30 496 H 47.9021 -1.54105 -1.19322 0
M  V30 497 H 46.9981 -1.52886 -2.72089 0
M  V30 498 N 47.2992 1.18797 -1.03562 0
M  V30 499 C 48.5762 1.84469 -0.650434 0
M  V30 500 C 48.9562 1.92319 0.870433 0
M  V30 501 O 48.3042 1.44528 1.76986 0
M  V30 502 C 48.5142 3.2306 -1.32036 0
M  V30 503 C 49.8622 3.9915 -1.44792 0
M  V30 504 O 50.8862 3.32481 -1.27806 0
M  V30 505 O 49.7452 5.18587 -1.72423 0
M  V30 506 H 46.8392 0.795251 -0.226946 0
M  V30 507 H 49.3852 1.26231 -1.13419 0
M  V30 508 H 48.1572 3.1222 -2.3587 0
M  V30 509 H 47.7802 3.88949 -0.8249 0
M  V30 510 N 48.7773 0.814389 1.34928 0
M  V30 511 C 49.6873 0.231978 2.3345 0
M  V30 512 C 50.7033 -0.629139 1.62228 0
M  V30 513 O 51.8793 -0.539052 1.94052 0
M  V30 514 C 48.9443 -0.603482 3.41407 0
M  V30 515 C 48.0053 0.279037 4.28392 0
M  V30 516 C 47.2383 -0.516643 5.31193 0
M  V30 517 O 47.4613 -1.75068 5.4287 0
M  V30 518 O 46.3953 0.0965652 6.01823 0
M  V30 519 H 50.2213 1.04721 2.85074 0
M  V30 520 H 47.8063 0.576343 1.37836 0
M  V30 521 H 49.6883 -1.07908 4.0735 0
M  V30 522 H 48.3633 -1.39618 2.92042 0
M  V30 523 H 47.2703 0.801948 3.65403 0
M  V30 524 H 48.6033 1.03588 4.81176 0
M  V30 525 N 50.2554 -1.46986 0.568584 0
M  V30 526 C 51.6714 -1.57946 0.229189 0
M  V30 527 C 51.8714 -1.56567 -1.26843 0
M  V30 528 O 50.9274 -1.47511 -2.04931 0
M  V30 529 C 52.2404 -2.87963 0.865909 0
M  V30 530 C 53.7884 -3.01568 0.838188 0
M  V30 531 C 54.2634 -4.34301 1.45419 0
M  V30 532 N 55.7544 -4.40965 1.41788 0
M  V30 533 C 56.4894 -5.42256 1.86403 0
M  V30 534 N 55.9854 -6.50297 2.38926 0
M  V30 535 N 57.7784 -5.3337 1.77405 0
M  V30 536 H 49.9294 -1.46126 1.54146 0
M  V30 537 H 52.1924 -0.696156 0.643484 0
M  V30 538 H 51.8984 -2.94742 1.91886 0
M  V30 539 H 51.7724 -3.75423 0.365687 0
M  V30 540 H 54.1594 -2.94379 -0.206106 0
M  V30 541 H 54.2404 -2.1562 1.37629 0
M  V30 542 H 53.8844 -4.42247 2.49761 0
M  V30 543 H 53.8144 -5.19 0.891435 0
M  V30 544 H 56.3054 -3.63484 1.03381 0
M  V30 545 H 56.6184 -7.23777 2.70863 0
M  V30 546 H 54.9634 -6.51155 2.42944 0
M  V30 547 H 58.1544 -4.47865 1.3614 0
M  V30 548 H 58.3274 -6.12169 2.12492 0
M  V30 549 N 51.7335 -0.305618 -1.54608 0
M  V30 550 C 52.9805 0.302298 -2.00231 0
M  V30 551 C 53.3085 1.5354 -1.19398 0
M  V30 552 O 52.5635 1.93973 -0.259423 0
M  V30 553 C 52.8625 0.698983 -3.50498 0
M  V30 554 C 52.5285 -0.432903 -4.48817 0
M  V30 555 C 51.1905 -0.743622 -4.75419 0
M  V30 556 C 53.5425 -1.19409 -5.07337 0
M  V30 557 C 50.8705 -1.81857 -5.57804 0
M  V30 558 C 53.2225 -2.25899 -5.90891 0
M  V30 559 C 51.8865 -2.57572 -6.15803 0
M  V30 560 H 51.1565 0.110619 -0.732697 0
M  V30 561 H 53.8035 -0.425674 -1.86709 0
M  V30 562 H 52.1085 1.50711 -3.61654 0
M  V30 563 H 53.8055 1.1806 -3.83227 0
M  V30 564 H 50.3955 -0.18063 -4.28219 0
M  V30 565 H 54.5795 -0.967295 -4.86782 0
M  V30 566 H 49.8355 -2.06864 -5.75341 0
M  V30 567 H 54.0095 -2.85335 -6.35261 0
M  V30 568 H 51.6365 -3.40998 -6.7943 0
M  V30 569 N 53.2116 1.57565 -0.0334293 0
M  V30 570 C 54.4416 1.95996 0.653398 0
M  V30 571 C 54.8496 0.908749 1.65947 0
M  V30 572 O 54.1926 -0.117471 1.83324 0
M  V30 573 C 54.2546 3.30589 1.41249 0
M  V30 574 C 53.9186 4.53503 0.564263 0
M  V30 575 C 54.9156 5.19647 -0.16225 0
M  V30 576 C 52.6006 4.99801 0.500398 0
M  V30 577 C 54.5946 6.30412 -0.941255 0
M  V30 578 C 52.2816 6.10448 -0.282308 0
M  V30 579 C 53.2796 6.75612 -1.00184 0
M  V30 580 O 52.9676 7.84134 -1.77171 0
M  V30 581 H 52.6996 0.65027 0.184728 0
M  V30 582 H 55.2536 2.05199 -0.0907841 0
M  V30 583 H 53.4836 3.17888 2.20191 0
M  V30 584 H 55.1726 3.53892 1.98784 0
M  V30 585 H 55.9386 4.84846 -0.12227 0
M  V30 586 H 51.8176 4.48883 1.05002 0
M  V30 587 H 55.3616 6.81208 -1.50339 0
M  V30 588 H 51.2586 6.44686 -0.323989 0
M  V30 589 H 52.0266 8.00822 -1.69194 0
M  V30 590 N 54.6897 -0.239769 1.55765 0
M  V30 591 C 55.6527 -1.28038 1.90103 0
M  V30 592 C 56.6527 -1.40723 0.778055 0
M  V30 593 O 57.8427 -1.39301 1.04599 0
M  V30 594 C 54.9747 -2.65702 2.13577 0
M  V30 595 H 56.1677 -0.988048 2.83157 0
M  V30 596 H 53.7207 -0.479382 1.48767 0
M  V30 597 H 54.4557 -3.00063 1.23015 0
M  V30 598 H 54.2407 -2.57875 2.95369 0
M  V30 599 H 55.7307 -3.40828 2.41301 0
M  V30 600 N 56.1678 -1.49265 -0.50573 0
M  V30 601 C 57.0778 -1.68312 -1.63427 0
M  V30 602 C 58.0938 -0.565682 -1.64548 0
M  V30 603 O 59.2698 -0.839801 -1.83055 0
M  V30 604 C 56.3348 -1.74107 -2.99813 0
M  V30 605 C 55.3958 -2.97653 -3.09356 0
M  V30 606 C 54.6288 -3.03163 -4.39236 0
M  V30 607 O 54.8518 -2.16396 -5.27758 0
M  V30 608 O 53.7858 -3.9558 -4.53652 0
M  V30 609 H 57.6118 -2.63907 -1.50289 0
M  V30 610 H 55.1968 -1.32951 -0.681502 0
M  V30 611 H 57.0788 -1.803 -3.80881 0
M  V30 612 H 55.7538 -0.816901 -3.13223 0
M  V30 613 H 54.6608 -2.96981 -2.27493 0
M  V30 614 H 55.9938 -3.89535 -3.00871 0
M  V30 615 N 57.6459 0.756429 -1.3826 0
M  V30 616 C 58.5959 1.86069 -1.31766 0
M  V30 617 C 59.5799 1.59621 -0.202483 0
M  V30 618 O 60.7719 1.7149 -0.438211 0
M  V30 619 C 57.9009 3.23742 -1.1422 0
M  V30 620 C 56.9869 3.56091 -2.30348 0
M  V30 621 N 57.3779 3.59517 -3.55783 0
M  V30 622 C 55.6759 3.86341 -2.22838 0
M  V30 623 C 56.3769 3.89052 -4.32451 0
M  V30 624 N 55.3529 4.05736 -3.61772 0
M  V30 625 H 59.1549 1.86992 -2.26741 0
M  V30 626 H 56.6689 0.953643 -1.31451 0
M  V30 627 H 58.6659 4.02761 -1.07652 0
M  V30 628 H 57.3259 3.24073 -0.201763 0
M  V30 629 H 58.3369 3.41347 -3.89491 0
M  V30 630 H 55.0139 3.94404 -1.36937 0
M  V30 631 H 56.4039 3.98349 -5.4108 0
M  V30 632 N 59.124 1.23083 0.984299 0
M  V30 633 C 60.054 1.03292 2.09411 0
M  V30 634 C 61.035 -0.048923 1.7003 0
M  V30 635 O 62.22 0.114967 1.93859 0
M  V30 636 C 59.35 0.619155 3.41736 0
M  V30 637 C 58.304 1.64791 3.95004 0
M  V30 638 C 57.63 1.0897 5.23478 0
M  V30 639 C 58.93 3.03999 4.24714 0
M  V30 640 H 60.624 1.96119 2.26225 0
M  V30 641 H 58.17 0.944344 1.08711 0
M  V30 642 H 60.123 0.467777 4.18796 0
M  V30 643 H 58.847 -0.344786 3.24775 0
M  V30 644 H 57.506 1.78721 3.20085 0
M  V30 645 H 57.154 0.11686 5.02864 0
M  V30 646 H 56.854 1.77704 5.60085 0
M  V30 647 H 58.378 0.950093 6.03163 0
M  V30 648 H 59.792 2.93393 4.92538 0
M  V30 649 H 58.189 3.69936 4.72512 0
M  V30 650 H 59.259 3.53285 3.32142 0
M  V30 651 N 60.6021 -1.18246 1.0419 0
M  V30 652 C 61.5351 -2.20746 0.578474 0
M  V30 653 C 62.5131 -1.57912 -0.387624 0
M  V30 654 O 63.6971 -1.86071 -0.301634 0
M  V30 655 C 60.8241 -3.38346 -0.154762 0
M  V30 656 C 59.8701 -4.19587 0.764782 0
M  V30 657 S 60.7031 -4.86014 2.24835 0
M  V30 658 C 61.8591 -6.07012 1.526 0
M  V30 659 H 62.0921 -2.59715 1.44691 0
M  V30 660 H 59.6251 -1.287 0.85297 0
M  V30 661 H 61.5831 -4.065 -0.571641 0
M  V30 662 H 60.2441 -2.97786 -0.999105 0
M  V30 663 H 59.4371 -5.03611 0.197976 0
M  V30 664 H 59.0391 -3.56818 1.12057 0
M  V30 665 H 61.3311 -6.72523 0.819733 0
M  V30 666 H 62.2741 -6.68202 2.34333 0
M  V30 667 H 62.6821 -5.55249 1.01779 0
M  V30 668 N 62.0802 -0.821533 -1.34494 0
M  V30 669 C 63.4912 -0.467956 -1.8074 0
M  V30 670 C 63.8422 1.01151 -1.68116 0
M  V30 671 O 62.9672 1.78707 -1.22036 0
M  V30 672 C 63.5622 -0.842627 -3.28154 0
M  V30 673 C 62.1212 -0.541439 -3.72485 0
M  V30 674 C 61.2682 -1.06028 -2.56229 0
M  V30 675 H 64.2192 -1.01183 -1.22261 0
M  V30 676 H 64.2402 -0.145876 -3.8022 0
M  V30 677 H 63.7522 -1.91945 -3.37311 0
M  V30 678 H 61.8532 0.526034 -3.68868 0
M  V30 679 H 61.9662 -1.08453 -4.66663 0
M  V30 680 H 60.3302 -0.481892 -2.501 0
M  V30 681 H 61.1132 -2.14352 -2.68157 0
M  V30 682 N 63.5583 1.46682 -0.576371 0
M  V30 683 C 64.7863 2.06798 -0.0649635 0
M  V30 684 C 65.2013 1.42612 1.23723 0
M  V30 685 O 64.5583 0.529203 1.74659 0
M  V30 686 C 64.6093 3.6132 0.114202 0
M  V30 687 O 64.3303 4.23104 -1.13644 0
M  V30 688 C 65.8313 4.38349 0.66069 0
M  V30 689 H 63.0513 0.668778 -0.0545616 0
M  V30 690 H 65.5953 1.88404 -0.795237 0
M  V30 691 H 63.7503 3.79162 0.794673 0
M  V30 692 H 64.1643 5.15894 -0.946253 0
M  V30 693 H 65.6383 5.47081 0.73526 0
M  V30 694 H 66.1153 4.05953 1.67627 0
M  V30 695 H 66.7213 4.25297 0.0152951 0
M  V30 696 N 65.0364 0.313813 1.54444 0
M  V30 697 C 65.9664 -0.549454 2.26943 0
M  V30 698 C 66.9474 -1.12741 1.27372 0
M  V30 699 O 68.1324 -1.15436 1.56167 0
M  V30 700 C 65.2624 -1.71523 3.01989 0
M  V30 701 C 64.2164 -1.26703 4.08816 0
M  V30 702 C 63.5424 -2.51898 4.71647 0
M  V30 703 C 64.8424 -0.388962 5.2085 0
M  V30 704 H 66.5364 0.0552661 2.99349 0
M  V30 705 H 64.0824 0.0280207 1.43973 0
M  V30 706 H 66.0354 -2.32535 3.51433 0
M  V30 707 H 64.7594 -2.34639 2.27183 0
M  V30 708 H 63.4184 -0.679896 3.6024 0
M  V30 709 H 63.0664 -3.13356 3.93468 0
M  V30 710 H 62.7664 -2.22605 5.43802 0
M  V30 711 H 64.2904 -3.1369 5.23861 0
M  V30 712 H 65.7044 -0.905107 5.6611 0
M  V30 713 H 64.1014 -0.18924 5.99802 0
M  V30 714 H 65.1714 0.582699 4.81386 0
M  V30 715 N 66.5145 -1.57545 0.0417849 0
M  V30 716 C 67.4465 -2.07904 -0.964799 0
M  V30 717 C 68.4595 -1.00497 -1.28079 0
M  V30 718 O 69.6485 -1.28087 -1.24322 0
M  V30 719 C 66.7485 -2.49928 -2.28887 0
M  V30 720 C 65.9215 -3.80562 -2.15619 0
M  V30 721 C 64.9805 -4.08999 -3.31069 0
M  V30 722 O 64.0065 -4.79061 -3.0739 0
M  V30 723 N 65.2085 -3.6017 -4.55256 0
M  V30 724 H 67.9735 -2.94886 -0.535029 0
M  V30 725 H 65.5345 -1.61252 -0.144681 0
M  V30 726 H 67.5265 -2.66034 -3.04972 0
M  V30 727 H 66.0965 -1.68245 -2.63463 0
M  V30 728 H 65.3165 -3.74129 -1.24183 0
M  V30 729 H 66.6045 -4.66126 -2.03971 0
M  V30 730 H 66.0025 -3.03512 -4.77386 0
M  V30 731 H 64.5595 -3.81532 -5.28466 0
M  V30 732 N 67.9926 0.231505 -1.5589 0
M  V30 733 C 69.2406 0.955461 -1.78088 0
M  V30 734 C 69.5616 1.85262 -0.608533 0
M  V30 735 O 68.8316 1.92277 0.375035 0
M  V30 736 H 67.4116 0.355787 -0.656829 0
M  V30 737 H 70.0736 0.245751 -1.93344 0
M  V30 738 H 69.1696 1.56814 -2.69844 0
M  V30 739 N 69.4707 1.49531 0.497807 0
M  V30 740 C 70.4007 1.6935 1.60757 0
M  V30 741 C 71.3817 0.542218 1.61227 0
M  V30 742 O 72.5667 0.778417 1.77917 0
M  V30 743 C 69.6967 1.76298 2.99226 0
M  V30 744 C 68.6507 2.91248 3.13622 0
M  V30 745 C 67.9767 2.83312 4.53474 0
M  V30 746 C 69.2767 4.3214 2.93346 0
M  V30 747 H 70.9707 2.62263 1.44425 0
M  V30 748 H 68.5167 1.26208 0.693367 0
M  V30 749 H 70.4697 1.88749 3.76765 0
M  V30 750 H 69.1937 0.799871 3.16654 0
M  V30 751 H 67.8527 2.78404 2.38509 0
M  V30 752 H 67.5007 1.84902 4.67782 0
M  V30 753 H 67.2007 3.60465 4.64046 0
M  V30 754 H 68.7247 2.97775 5.33069 0
M  V30 755 H 70.1387 4.45649 3.60652 0
M  V30 756 H 68.5357 5.1054 3.15387 0
M  V30 757 H 69.6057 4.46363 1.89441 0
M  V30 758 N 70.9488 -0.749086 1.3866 0
M  V30 759 C 71.8788 -1.8764 1.38973 0
M  V30 760 C 72.8598 -1.68178 0.255004 0
M  V30 761 O 74.0448 -1.88704 0.458754 0
M  V30 762 C 71.1748 -3.25222 1.21851 0
M  V30 763 C 70.1288 -3.59295 2.32575 0
M  V30 764 C 69.4548 -4.95663 2.00555 0
M  V30 765 C 70.7548 -3.63709 3.7485 0
M  V30 766 H 72.4488 -1.87635 2.3331 0
M  V30 767 H 69.9948 -0.901329 1.12303 0
M  V30 768 H 71.9478 -4.03746 1.20695 0
M  V30 769 H 70.6718 -3.25719 0.239775 0
M  V30 770 H 69.3308 -2.83093 2.32925 0
M  V30 771 H 68.9788 -4.92724 1.01154 0
M  V30 772 H 68.6788 -5.19429 2.74714 0
M  V30 773 H 70.2028 -5.7656 2.01024 0
M  V30 774 H 71.6168 -4.32338 3.76506 0
M  V30 775 H 70.0138 -3.98986 4.48252 0
M  V30 776 H 71.0838 -2.63834 4.06841 0
M  V30 777 N 72.4269 -1.23603 -0.977757 0
M  V30 778 C 73.7039 -0.977897 -1.69401 0
M  V30 779 C 74.0839 0.502738 -2.05026 0
M  V30 780 O 73.4319 1.47459 -1.74551 0
M  V30 781 C 73.6419 -1.89077 -2.93345 0
M  V30 782 C 74.9899 -2.15579 -3.65802 0
M  V30 783 O 76.0139 -1.86648 -3.03383 0
M  V30 784 O 74.8729 -2.64658 -4.78141 0
M  V30 785 H 71.9669 -0.369025 -0.740101 0
M  V30 786 H 74.5129 -1.34657 -1.03274 0
M  V30 787 H 73.2849 -2.89158 -2.63634 0
M  V30 788 H 72.9079 -1.52463 -3.67207 0
M  V30 789 N 73.905 1.17692 -1.04816 0
M  V30 790 C 75.316 1.69501 -0.782698 0
M  V30 791 C 75.667 1.83456 0.695577 0
M  V30 792 O 74.792 1.51942 1.54086 0
M  V30 793 C 75.387 3.07874 -1.41419 0
M  V30 794 C 73.946 3.56864 -1.19686 0
M  V30 795 C 73.093 2.3322 -1.50012 0
M  V30 796 H 76.044 1.02262 -1.2136 0
M  V30 797 H 76.065 3.71528 -0.821428 0
M  V30 798 H 75.577 2.97685 -2.49009 0
M  V30 799 H 73.678 3.72337 -0.140043 0
M  V30 800 H 73.791 4.39851 -1.89916 0
M  V30 801 H 72.155 2.37501 -0.920071 0
M  V30 802 H 72.938 2.25644 -2.58727 0
M  V30 803 N 75.3831 0.828654 1.34056 0
M  V30 804 C 76.2931 0.256725 2.33191 0
M  V30 805 C 77.3091 -0.611898 1.62886 0
M  V30 806 O 78.4851 -0.51844 1.94613 0
M  V30 807 C 75.5501 -0.567238 3.42028 0
M  V30 808 C 74.6111 0.324458 4.28072 0
M  V30 809 C 73.8441 -0.460274 5.31712 0
M  V30 810 O 74.0671 -1.693 5.44696 0
M  V30 811 O 73.0011 0.160391 6.01686 0
M  V30 812 H 76.8271 1.07739 2.83947 0
M  V30 813 H 74.4121 0.59093 1.37217 0
M  V30 814 H 76.2941 -1.03582 4.08471 0
M  V30 815 H 74.9691 -1.36513 2.93506 0
M  V30 816 H 73.8761 0.840659 3.64532 0
M  V30 817 H 75.2091 1.08685 4.8005 0
M  V30 818 N 76.8612 -1.46375 0.584142 0
M  V30 819 C 78.0862 -2.07268 0.0740405 0
M  V30 820 C 78.5112 -1.42979 -1.22223 0
M  V30 821 O 77.8692 -0.514092 -1.73859 0
M  V30 822 C 77.9172 -3.60518 -0.0767769 0
M  V30 823 O 77.0212 -3.96533 -1.13292 0
M  V30 824 H 76.3622 -0.660961 0.0634524 0
M  V30 825 H 78.8922 -1.87991 0.807492 0
M  V30 826 H 78.9022 -4.07021 -0.282489 0
M  V30 827 H 77.5772 -4.06702 0.86986 0
M  V30 828 H 76.1542 -3.61738 -0.905553 0
M  V30 829 N 78.3393 -0.321999 -1.54275 0
M  V30 830 C 79.3023 0.531975 -2.22941 0
M  V30 831 C 80.3023 1.04478 -1.22234 0
M  V30 832 O 81.4923 0.937452 -1.46825 0
M  V30 833 C 78.6243 1.73874 -2.93224 0
M  V30 834 H 79.8173 -0.0682612 -2.99822 0
M  V30 835 H 77.3703 -0.0730644 -1.56129 0
M  V30 836 H 78.1053 2.37825 -2.20476 0
M  V30 837 H 77.8903 1.37847 -3.6707 0
M  V30 838 H 79.3803 2.34496 -3.45545 0
M  V30 839 N 79.8174 1.5752 -0.0501392 0
M  V30 840 C 80.7674 2.07981 0.934231 0
M  V30 841 C 81.7514 0.984745 1.27246 0
M  V30 842 O 82.9434 1.24809 1.25506 0
M  V30 843 C 80.0724 2.62751 2.20945 0
M  V30 844 C 79.1584 3.79225 1.89865 0
M  V30 845 N 79.5494 4.89036 1.29142 0
M  V30 846 C 77.8474 3.88111 2.19741 0
M  V30 847 C 78.5484 5.70084 1.15669 0
M  V30 848 N 77.5244 5.17659 1.65923 0
M  V30 849 H 81.3264 2.90277 0.460053 0
M  V30 850 H 78.8404 1.61665 0.15434 0
M  V30 851 H 80.8374 2.97205 2.9236 0
M  V30 852 H 79.4974 1.81894 2.6897 0
M  V30 853 H 80.5084 5.08854 0.963756 0
M  V30 854 H 77.1854 3.18194 2.70293 0
M  V30 855 H 78.5754 6.68395 0.685356 0
M  V30 856 N 81.2955 -0.223234 1.56011 0
M  V30 857 C 82.7115 -0.572856 1.48965 0
M  V30 858 C 82.9115 -1.87225 0.74492 0
M  V30 859 O 81.9675 -2.50899 0.283896 0
M  V30 860 C 83.2805 -0.653646 2.9351 0
M  V30 861 C 84.8285 -0.744386 3.0402 0
M  V30 862 C 85.3035 -0.856535 4.49919 0
M  V30 863 N 86.7945 -0.9208 4.53955 0
M  V30 864 C 87.5295 -1.02726 5.64123 0
M  V30 865 N 87.0255 -1.09777 6.84047 0
M  V30 866 N 88.8185 -1.06226 5.51971 0
M  V30 867 H 80.9695 0.629462 2.02858 0
M  V30 868 H 83.2325 0.220621 0.921971 0
M  V30 869 H 82.9385 0.231518 3.50937 0
M  V30 870 H 82.8125 -1.51781 3.45315 0
M  V30 871 H 85.1995 -1.61999 2.46658 0
M  V30 872 H 85.2805 0.14541 2.55386 0
M  V30 873 H 84.9245 0.0146069 5.07898 0
M  V30 874 H 84.8545 -1.76172 4.96257 0
M  V30 875 H 87.3455 -0.876694 3.6759 0
M  V30 876 H 87.6585 -1.17872 7.63758 0
M  V30 877 H 86.0035 -1.06693 6.86762 0
M  V30 878 H 89.1945 -1.00382 4.5721 0
M  V30 879 H 89.3675 -1.14177 6.37862 0
M  V30 880 N 82.7736 -1.49793 -0.48987 0
M  V30 881 C 83.7036 -1.70201 -1.59856 0
M  V30 882 C 84.6846 -0.55076 -1.60937 0
M  V30 883 O 85.8696 -0.787841 -1.77501 0
M  V30 884 C 82.9996 -1.77882 -2.98287 0
M  V30 885 C 81.9536 -2.92907 -3.12073 0
M  V30 886 C 81.2796 -2.85712 -4.51965 0
M  V30 887 C 82.5796 -4.3369 -2.91051 0
M  V30 888 H 84.2736 -2.63025 -1.43032 0
M  V30 889 H 81.8196 -1.26574 -0.686664 0
M  V30 890 H 83.7726 -1.90744 -3.75759 0
M  V30 891 H 82.4966 -0.816653 -3.16225 0
M  V30 892 H 81.1556 -2.79665 -2.37029 0
M  V30 893 H 80.8036 -1.8738 -4.66795 0
M  V30 894 H 80.5036 -3.62921 -4.62128 0
M  V30 895 H 82.0276 -3.00598 -5.31482 0
M  V30 896 H 83.4416 -4.47555 -3.58284 0
M  V30 897 H 81.8386 -5.12205 -3.12675 0
M  V30 898 H 82.9086 -4.47362 -1.87071 0
M  V30 899 N 84.2517 0.741722 -1.39055 0
M  V30 900 C 85.2147 1.83733 -1.37021 0
M  V30 901 C 86.2147 1.58542 -0.268534 0
M  V30 902 O 87.4047 1.66067 -0.526076 0
M  V30 903 C 84.5367 3.2141 -1.13617 0
M  V30 904 H 85.7297 1.86941 -2.34506 0
M  V30 905 H 83.2827 0.944676 -1.24521 0
M  V30 906 H 84.0177 3.23865 -0.167863 0
M  V30 907 H 83.8027 3.4109 -1.93391 0
M  V30 908 H 85.2927 4.01477 -1.14918 0
M  V30 909 N 85.7298 1.2412 0.971189 0
M  V30 910 C 86.9758 1.08041 1.71625 0
M  V30 911 C 87.3088 -0.380407 1.90438 0
M  V30 912 O 86.5838 -1.28127 1.46334 0
M  V30 913 C 86.8668 1.81682 3.10908 0
M  V30 914 C 86.7198 3.35493 2.99608 0
M  V30 915 C 88.0388 1.58671 4.10501 0
M  V30 916 H 85.1578 0.39388 0.622919 0
M  V30 917 H 87.7998 1.52743 1.13003 0
M  V30 918 H 85.9498 1.43684 3.60953 0
M  V30 919 H 87.6218 3.83068 2.57015 0
M  V30 920 H 85.8648 3.64052 2.35899 0
M  V30 921 H 86.5358 3.82217 3.98264 0
M  V30 922 H 89.0118 1.91719 3.69301 0
M  V30 923 H 87.8878 2.1266 5.06031 0
M  V30 924 H 88.1488 0.524161 4.38982 0
M  V30 925 N 87.2079 -1.17134 1.05439 0
M  V30 926 C 88.6239 -1.39454 0.776201 0
M  V30 927 C 88.8239 -1.91454 -0.628307 0
M  V30 928 O 87.8799 -2.10777 -1.39031 0
M  V30 929 C 89.1929 -2.38305 1.83388 0
M  V30 930 C 90.7409 -2.52006 1.85639 0
M  V30 931 C 91.2159 -3.54133 2.90437 0
M  V30 932 N 92.7069 -3.61653 2.89415 0
M  V30 933 C 93.4419 -4.4044 3.67152 0
M  V30 934 N 92.9379 -5.22721 4.54681 0
M  V30 935 N 94.7309 -4.35337 3.55581 0
M  V30 936 H 86.8819 -0.817134 1.96053 0
M  V30 937 H 89.1449 -0.421626 0.849079 0
M  V30 938 H 88.8509 -2.07173 2.84204 0
M  V30 939 H 88.7249 -3.37841 1.67761 0
M  V30 940 H 91.1119 -2.82447 0.85486 0
M  V30 941 H 91.1929 -1.52537 2.05344 0
M  V30 942 H 90.8369 -3.24431 3.90777 0
M  V30 943 H 90.7669 -4.53313 2.67983 0
M  V30 944 H 93.2579 -3.02909 2.25952 0
M  V30 945 H 93.5709 -5.80027 5.10674 0
M  V30 946 H 91.9159 -5.22093 4.58741 0
M  V30 947 H 95.1069 -3.70112 2.86592 0
M  V30 948 H 95.2799 -4.96494 4.1641 0
M  V30 949 N 88.686 -0.835752 -1.33615 0
M  V30 950 C 89.933 -0.429959 -1.97883 0
M  V30 951 C 90.261 1.01006 -1.66217 0
M  V30 952 O 89.516 1.72047 -0.93265 0
M  V30 953 C 89.815 -0.593925 -3.52431 0
M  V30 954 C 89.481 -2.00158 -4.04039 0
M  V30 955 C 88.143 -2.38662 -4.17844 0
M  V30 956 C 90.495 -2.92117 -4.31644 0
M  V30 957 C 87.823 -3.68435 -4.56588 0
M  V30 958 C 90.175 -4.21368 -4.71838 0
M  V30 959 C 88.839 -4.59833 -4.83849 0
M  V30 960 H 88.109 -0.157333 -0.724104 0
M  V30 961 H 90.756 -1.06217 -1.59343 0
M  V30 962 H 89.061 0.121619 -3.91611 0
M  V30 963 H 90.758 -0.260282 -4.00154 0
M  V30 964 H 87.348 -1.69252 -3.93766 0
M  V30 965 H 91.532 -2.63608 -4.20505 0
M  V30 966 H 86.788 -3.98046 -4.64079 0
M  V30 967 H 90.962 -4.92703 -4.92155 0
M  V30 968 H 88.589 -5.60438 -5.13627 0
M  V30 969 N 90.1641 1.46063 -0.591896 0
M  V30 970 C 91.3921 2.06717 -0.0868936 0
M  V30 971 C 91.8071 1.43916 1.22203 0
M  V30 972 O 91.1641 0.547698 1.74088 0
M  V30 973 C 91.2151 3.6142 0.0758725 0
M  V30 974 O 90.9361 4.21874 -1.18126 0
M  V30 975 C 92.4371 4.39025 0.61416 0
M  V30 976 H 89.6571 0.668162 -0.0616518 0
M  V30 977 H 92.2011 1.8755 -0.815175 0
M  V30 978 H 90.3561 3.79983 0.754413 0
M  V30 979 H 90.7701 5.14861 -1.00092 0
M  V30 980 H 92.2441 5.4783 0.677193 0
M  V30 981 H 92.7211 4.07708 1.63312 0
M  V30 982 H 93.3271 4.2529 -0.0298142 0
M  V30 983 N 91.6422 0.330177 1.54103 0
M  V30 984 C 92.8672 -0.274893 2.0557 0
M  V30 985 C 93.2922 -1.44487 1.20437 0
M  V30 986 O 92.6502 -1.80021 0.214991 0
M  V30 987 C 92.6982 -0.68079 3.54115 0
M  V30 988 O 91.8022 -1.7824 3.71893 0
M  V30 989 H 91.1432 -0.0483849 0.662235 0
M  V30 990 H 93.6732 0.480508 1.98878 0
M  V30 991 H 93.6832 -0.961635 3.96505 0
M  V30 992 H 92.3582 0.174903 4.15532 0
M  V30 993 H 90.9352 -1.49985 3.41407 0
M  V30 994 N 93.1203 -1.57491 0.0584922 0
M  V30 995 C 94.0503 -2.14988 -0.911178 0
M  V30 996 C 95.0313 -1.07343 -1.31952 0
M  V30 997 O 96.2163 -1.35318 -1.39294 0
M  V30 998 C 93.3463 -2.70078 -2.18347 0
M  V30 999 C 92.3003 -3.82771 -1.91495 0
M  V30 1000 C 91.6263 -4.24408 -3.25241 0
M  V30 1001 C 92.9263 -5.07592 -1.23075 0
M  V30 1002 H 94.6203 -2.96263 -0.432246 0
M  V30 1003 H 92.1663 -1.42512 -0.206469 0
M  V30 1004 H 94.1193 -3.08943 -2.86587 0
M  V30 1005 H 92.8433 -1.86005 -2.68458 0
M  V30 1006 H 91.5023 -3.44389 -1.25664 0
M  V30 1007 H 91.1503 -3.37275 -3.73168 0
M  V30 1008 H 90.8503 -5.00366 -3.08071 0
M  V30 1009 H 92.3743 -4.65879 -3.94701 0
M  V30 1010 H 93.7883 -5.43857 -1.81362 0
M  V30 1011 H 92.1853 -5.88741 -1.16207 0
M  V30 1012 H 93.2553 -4.84454 -0.207847 0
M  V30 1013 N 94.5984 0.214957 -1.56127 0
M  V30 1014 C 95.8464 0.936518 -1.79091 0
M  V30 1015 C 96.1674 1.84606 -0.628148 0
M  V30 1016 O 95.4374 1.92664 0.35462 0
M  V30 1017 H 94.0174 0.3488 -0.660566 0
M  V30 1018 H 96.6794 0.22523 -1.93594 0
M  V30 1019 H 95.7754 1.53943 -2.71492 0
M  V30 1020 N 96.0765 1.50051 0.48192 0
M  V30 1021 C 97.0065 1.71046 1.58951 0
M  V30 1022 C 97.9875 0.559288 1.60642 0
M  V30 1023 O 99.1725 0.797243 1.77081 0
M  V30 1024 C 96.3025 1.79462 2.97339 0
M  V30 1025 C 95.2565 2.94558 3.10515 0
M  V30 1026 C 94.5825 2.88105 4.50444 0
M  V30 1027 C 95.8825 4.35227 2.88747 0
M  V30 1028 H 97.5765 2.6378 1.41635 0
M  V30 1029 H 95.1225 1.26936 0.679942 0
M  V30 1030 H 97.0755 1.92734 3.74742 0
M  V30 1031 H 95.7995 0.833412 3.15788 0
M  V30 1032 H 94.4585 2.80918 2.35543 0
M  V30 1033 H 94.1065 1.89853 4.65795 0
M  V30 1034 H 93.8065 3.65366 4.60197 0
M  V30 1035 H 95.3305 3.03412 5.29881 0
M  V30 1036 H 96.7445 4.49449 3.55905 0
M  V30 1037 H 95.1415 5.13856 3.09955 0
M  V30 1038 H 96.2115 4.48347 1.84696 0
M  V30 1039 N 97.5546 -0.734337 1.39446 0
M  V30 1040 C 98.4846 -1.86155 1.40955 0
M  V30 1041 C 99.4656 -1.67898 0.272827 0
M  V30 1042 O 100.651 -1.88207 0.478743 0
M  V30 1043 C 97.7806 -3.23912 1.25294 0
M  V30 1044 C 96.7346 -3.56808 2.36373 0
M  V30 1045 C 96.0606 -4.93508 2.058 0
M  V30 1046 C 97.3606 -3.59713 3.78687 0
M  V30 1047 H 99.0546 -1.8515 2.35287 0
M  V30 1048 H 96.6006 -0.889367 1.13253 0
M  V30 1049 H 98.5536 -4.02443 1.2497 0
M  V30 1050 H 97.2776 -3.25446 0.274308 0
M  V30 1051 H 95.9366 -2.80606 2.35914 0
M  V30 1052 H 95.5846 -4.91623 1.06374 0
M  V30 1053 H 95.2846 -5.16486 2.80208 0
M  V30 1054 H 96.8086 -5.74396 2.07128 0
M  V30 1055 H 98.2226 -4.2832 3.81071 0
M  V30 1056 H 96.6196 -3.94209 4.52459 0
M  V30 1057 H 97.6896 -2.59504 4.09617 0
M  V30 1058 N 99.0327 -1.24633 -0.964593 0
M  V30 1059 C 100.444 -1.08045 -1.5226 0
M  V30 1060 C 100.795 0.347116 -1.93105 0
M  V30 1061 O 99.9197 1.23588 -1.77637 0
M  V30 1062 C 100.515 -1.95514 -2.76695 0
M  V30 1063 C 99.0737 -1.8314 -3.28841 0
M  V30 1064 C 98.2207 -1.90262 -2.01732 0
M  V30 1065 H 101.172 -1.38064 -0.782553 0
M  V30 1066 H 101.193 -1.48925 -3.50145 0
M  V30 1067 H 100.705 -2.99407 -2.46936 0
M  V30 1068 H 98.8057 -0.82092 -3.63444 0
M  V30 1069 H 98.9187 -2.67406 -3.97531 0
M  V30 1070 H 97.2827 -1.34027 -2.16584 0
M  V30 1071 H 98.0657 -2.9574 -1.74334 0
M  V30 1072 N 100.511 1.16574 -1.06058 0
M  V30 1073 C 101.927 1.3904 -0.783585 0
M  V30 1074 C 102.127 1.91784 0.618145 0
M  V30 1075 O 101.183 2.11511 1.37911 0
M  V30 1076 C 102.496 2.37329 -1.84649 0
M  V30 1077 C 104.044 2.51018 -1.86973 0
M  V30 1078 C 104.519 3.52588 -2.92311 0
M  V30 1079 N 106.01 3.60113 -2.91329 0
M  V30 1080 C 106.745 4.38486 -3.69482 0
M  V30 1081 N 106.241 5.20302 -4.57447 0
M  V30 1082 N 108.034 4.33446 -3.57885 0
M  V30 1083 H 100.185 0.806725 -1.96483 0
M  V30 1084 H 102.448 0.417117 -0.851303 0
M  V30 1085 H 102.154 2.05663 -2.85299 0
M  V30 1086 H 102.028 3.36946 -1.6955 0
M  V30 1087 H 104.415 2.81989 -0.869827 0
M  V30 1088 H 104.496 1.51445 -2.0615 0
M  V30 1089 H 104.14 3.22354 -3.92492 0
M  V30 1090 H 104.07 4.51886 -2.70383 0
M  V30 1091 H 106.561 3.01707 -2.27555 0
M  V30 1092 H 106.874 5.77311 -5.13743 0
M  V30 1093 H 105.219 5.19653 -4.61503 0
M  V30 1094 H 108.41 3.68586 -2.88551 0
M  V30 1095 H 108.583 4.94279 -4.19037 0
M  V30 1096 N 101.989 0.842826 1.3317 0
M  V30 1097 C 102.952 0.284065 2.27433 0
M  V30 1098 C 103.952 -0.54948 1.5112 0
M  V30 1099 O 105.142 -0.362699 1.70382 0
M  V30 1100 C 102.274 -0.599384 3.35589 0
M  V30 1101 H 103.467 1.11589 2.78366 0
M  V30 1102 H 101.02 0.616221 1.4364 0
M  V30 1103 H 101.755 -1.45349 2.89904 0
M  V30 1104 H 101.54 -0.00291266 3.921 0
M  V30 1105 H 103.03 -0.983488 4.05854 0
M  V30 1106 N 103.467 -1.45747 0.599634 0
M  V30 1107 C 104.883 -1.57424 0.26264 0
M  V30 1108 C 105.083 -1.59222 -1.23493 0
M  V30 1109 O 104.139 -1.51825 -2.01756 0
M  V30 1110 C 105.452 -2.86061 0.926795 0
M  V30 1111 C 107 -2.99722 0.901967 0
M  V30 1112 C 107.475 -4.31119 1.54598 0
M  V30 1113 N 108.966 -4.37858 1.5111 0
M  V30 1114 C 109.701 -5.3818 1.97863 0
M  V30 1115 N 109.197 -6.45083 2.52666 0
M  V30 1116 N 110.99 -5.29487 1.88679 0
M  V30 1117 H 103.141 -1.42823 1.57211 0
M  V30 1118 H 105.404 -0.68235 0.658105 0
M  V30 1119 H 105.11 -2.90605 1.98095 0
M  V30 1120 H 104.984 -3.74563 0.445238 0
M  V30 1121 H 107.371 -2.9475 -0.143617 0
M  V30 1122 H 107.452 -2.12652 1.42171 0
M  V30 1123 H 107.096 -4.36849 2.59085 0
M  V30 1124 H 107.026 -5.16992 1.00132 0
M  V30 1125 H 109.517 -3.61209 1.11068 0
M  V30 1126 H 109.83 -7.17869 2.86155 0
M  V30 1127 H 108.175 -6.45856 2.56701 0
M  V30 1128 H 111.366 -4.44877 1.4561 0
M  V30 1129 H 111.539 -6.07524 2.25429 0
M  V30 1130 N 104.945 -0.338344 -1.53925 0
M  V30 1131 C 106.192 0.259758 -2.00827 0
M  V30 1132 C 106.52 1.50973 -1.22628 0
M  V30 1133 O 105.775 1.93379 -0.300509 0
M  V30 1134 C 106.074 0.62448 -3.51902 0
M  V30 1135 C 105.74 -0.528006 -4.47798 0
M  V30 1136 C 104.402 -0.844298 -4.73735 0
M  V30 1137 C 106.754 -1.30143 -5.0469 0
M  V30 1138 C 104.082 -1.93648 -5.53821 0
M  V30 1139 C 106.434 -2.38382 -5.85967 0
M  V30 1140 C 105.098 -2.70576 -6.10201 0
M  V30 1141 H 104.368 0.0950523 -0.734878 0
M  V30 1142 H 107.015 -0.465182 -1.85764 0
M  V30 1143 H 105.32 1.43006 -3.64769 0
M  V30 1144 H 107.017 1.09905 -3.85645 0
M  V30 1145 H 103.607 -0.271421 -4.2774 0
M  V30 1146 H 107.791 -1.07033 -4.84621 0
M  V30 1147 H 103.047 -2.19021 -5.70824 0
M  V30 1148 H 107.221 -2.98746 -6.29066 0
M  V30 1149 H 104.848 -3.55333 -6.72044 0
M  V30 1150 N 106.423 1.57458 -0.0668435 0
M  V30 1151 C 107.355 2.09413 0.931601 0
M  V30 1152 C 108.368 1.02522 1.26464 0
M  V30 1153 O 109.557 1.30049 1.22269 0
M  V30 1154 C 106.657 2.53537 2.24882 0
M  V30 1155 C 105.83 3.83944 2.09537 0
M  V30 1156 C 104.889 4.14214 3.2452 0
M  V30 1157 O 103.915 4.83891 2.9973 0
M  V30 1158 N 105.117 3.67367 4.49469 0
M  V30 1159 H 107.882 2.95699 0.488048 0
M  V30 1160 H 105.443 1.61462 0.119009 0
M  V30 1161 H 107.435 2.70853 3.00701 0
M  V30 1162 H 106.005 1.72415 2.60753 0
M  V30 1163 H 105.225 3.76057 1.18215 0
M  V30 1164 H 106.513 4.69312 1.96529 0
M  V30 1165 H 105.911 3.11068 4.72497 0
M  V30 1166 H 104.468 3.89891 5.2233 0
M  V30 1167 N 107.901 -0.206675 1.56239 0
M  V30 1168 C 109.178 -0.954051 1.70755 0
M  V30 1169 C 109.558 -2.01841 0.618353 0
M  V30 1170 O 108.906 -2.25444 -0.372434 0
M  V30 1171 C 109.116 -1.551 3.12642 0
M  V30 1172 C 110.464 -2.03757 3.72516 0
M  V30 1173 O 111.488 -1.64965 3.15698 0
M  V30 1174 O 110.347 -2.75103 4.72208 0
M  V30 1175 H 107.441 -0.446636 0.696021 0
M  V30 1176 H 109.987 -0.197283 1.68549 0
M  V30 1177 H 108.759 -0.783212 3.83382 0
M  V30 1178 H 108.382 -2.37291 3.19028 0
M  V30 1179 N 109.379 -1.50304 -0.473955 0
M  V30 1180 C 110.604 -1.65175 -1.25427 0
M  V30 1181 C 111.029 -0.333673 -1.85117 0
M  V30 1182 O 110.387 0.702114 -1.67153 0
M  V30 1183 C 110.435 -2.74295 -2.34082 0
M  V30 1184 O 109.539 -2.35349 -3.38651 0
M  V30 1185 H 108.88 -0.551944 -0.369126 0
M  V30 1186 H 111.41 -1.96662 -0.564364 0
M  V30 1187 H 111.42 -2.97285 -2.79438 0
M  V30 1188 H 110.095 -3.69959 -1.90008 0
M  V30 1189 H 108.672 -2.22794 -2.99027 0
M  V30 1190 N 110.857 0.726932 -1.39834 0
M  V30 1191 C 112.134 1.47902 -1.28001 0
M  V30 1192 C 112.514 2.1083 0.106789 0
M  V30 1193 O 111.862 1.99242 1.11869 0
M  V30 1194 C 112.072 2.52392 -2.41038 0
M  V30 1195 C 113.42 3.18546 -2.80737 0
M  V30 1196 O 114.444 2.62708 -2.40547 0
M  V30 1197 O 113.303 4.19604 -3.50135 0
M  V30 1198 H 110.397 0.657163 -0.502062 0
M  V30 1199 H 112.943 0.760071 -1.51727 0
M  V30 1200 H 111.715 2.04329 -3.33715 0
M  V30 1201 H 111.338 3.31837 -2.19021 0
M  V30 1202 N 112.336 1.25143 0.95797 0
M  V30 1203 C 113.269 0.995565 2.05338 0
M  V30 1204 C 114.247 -0.0740423 1.62431 0
M  V30 1205 O 115.431 0.0649212 1.88388 0
M  V30 1206 C 112.558 0.504298 3.34925 0
M  V30 1207 C 111.604 1.56393 3.96792 0
M  V30 1208 S 112.437 3.14815 4.33188 0
M  V30 1209 C 113.593 2.67415 5.65898 0
M  V30 1210 H 113.826 1.92309 2.26726 0
M  V30 1211 H 111.359 1.08635 1.09716 0
M  V30 1212 H 113.317 0.227497 4.09869 0
M  V30 1213 H 111.978 -0.402671 3.11508 0
M  V30 1214 H 111.171 1.17082 4.90212 0
M  V30 1215 H 110.773 1.79124 3.28315 0
M  V30 1216 H 113.065 2.10833 6.4386 0
M  V30 1217 H 114.008 3.59463 6.10076 0
M  V30 1218 H 114.416 2.07521 5.24972 0
M  V30 1219 N 113.814 -1.1601 1.06675 0
M  V30 1220 C 114.744 -2.22688 0.702307 0
M  V30 1221 C 115.725 -1.67306 -0.307032 0
M  V30 1222 O 116.91 -1.93352 -0.181305 0
M  V30 1223 C 114.04 -3.47178 0.092038 0
M  V30 1224 C 112.994 -4.15477 1.02777 0
M  V30 1225 C 112.32 -5.33963 0.28061 0
M  V30 1226 C 113.62 -4.66019 2.35846 0
M  V30 1227 H 115.314 -2.53429 1.59419 0
M  V30 1228 H 112.86 -1.21813 0.767961 0
M  V30 1229 H 114.813 -4.21037 -0.174814 0
M  V30 1230 H 113.537 -3.15749 -0.834877 0
M  V30 1231 H 112.196 -3.43549 1.27944 0
M  V30 1232 H 111.844 -4.98788 -0.649545 0
M  V30 1233 H 111.544 -5.806 0.904258 0
M  V30 1234 H 113.068 -6.10596 0.021396 0
M  V30 1235 H 114.482 -5.3144 2.15045 0
M  V30 1236 H 112.879 -5.23293 2.93743 0
M  V30 1237 H 113.949 -3.82023 2.98641 0
M  V30 1238 N 115.292 -0.849877 -1.32721 0
M  V30 1239 C 116.202 -0.293791 -2.32753 0
M  V30 1240 C 117.218 0.585906 -1.63839 0
M  V30 1241 O 118.394 0.487413 -1.95413 0
M  V30 1242 C 115.459 0.512752 -3.42887 0
M  V30 1243 C 114.52 -0.39252 -4.27502 0
M  V30 1244 C 113.753 0.375625 -5.32377 0
M  V30 1245 O 113.976 1.60613 -5.4732 0
M  V30 1246 O 112.91 -0.256094 -6.01355 0
M  V30 1247 H 116.736 -1.12242 -2.82197 0
M  V30 1248 H 114.321 -0.612685 -1.36259 0
M  V30 1249 H 116.203 0.970704 -4.10067 0
M  V30 1250 H 114.878 1.31826 -2.95641 0
M  V30 1251 H 113.785 -0.898547 -3.63149 0
M  V30 1252 H 115.118 -1.16309 -4.7826 0
M  V30 1253 N 116.77 1.45427 -0.607355 0
M  V30 1254 C 118.016 2.0254 -0.102607 0
M  V30 1255 C 118.349 1.47478 1.26348 0
M  V30 1256 O 117.624 0.64939 1.83339 0
M  V30 1257 C 117.907 3.60044 -0.0634347 0
M  V30 1258 C 117.76 4.2544 -1.46017 0
M  V30 1259 C 119.079 4.35646 0.624514 0
M  V30 1260 H 116.198 0.73598 -0.0387607 0
M  V30 1261 H 118.84 1.73284 -0.779282 0
M  V30 1262 H 116.99 3.85101 0.512808 0
M  V30 1263 H 118.662 4.11569 -2.08347 0
M  V30 1264 H 116.905 3.83849 -2.02094 0
M  V30 1265 H 117.576 5.34342 -1.385 0
M  V30 1266 H 120.052 4.15882 0.134723 0
M  V30 1267 H 118.928 5.45376 0.621028 0
M  V30 1268 H 119.189 4.08501 1.69055 0
M  V30 1269 N 118.248 0.346503 1.53744 0
M  V30 1270 C 119.664 -0.00530975 1.59599 0
M  V30 1271 C 119.864 -1.48465 1.36236 0
M  V30 1272 O 118.92 -2.24376 1.15808 0
M  V30 1273 C 120.233 0.433516 2.97559 0
M  V30 1274 C 121.781 0.386111 3.10609 0
M  V30 1275 C 122.256 0.800451 4.50951 0
M  V30 1276 N 123.747 0.754753 4.5701 0
M  V30 1277 C 124.482 1.04727 5.63755 0
M  V30 1278 N 123.978 1.4081 6.7834 0
M  V30 1279 N 125.771 0.971316 5.53644 0
M  V30 1280 H 117.922 1.31009 1.67184 0
M  V30 1281 H 120.185 0.534242 0.783128 0
M  V30 1282 H 119.891 1.46509 3.19731 0
M  V30 1283 H 119.765 -0.189753 3.76722 0
M  V30 1284 H 122.152 -0.636295 2.88158 0
M  V30 1285 H 122.233 1.04462 2.33498 0
M  V30 1286 H 121.877 1.82088 4.74137 0
M  V30 1287 H 121.807 0.119386 5.26465 0
M  V30 1288 H 124.298 0.488662 3.74727 0
M  V30 1289 H 124.611 1.61607 7.55714 0
M  V30 1290 H 122.956 1.44657 6.79779 0
M  V30 1291 H 126.147 0.688748 4.63005 0
M  V30 1292 H 126.32 1.20263 6.36742 0
M  V30 1293 N 119.726 -1.57421 0.075193 0
M  V30 1294 C 120.972 -1.93905 -0.594025 0
M  V30 1295 C 121.305 -0.955701 -1.69056 0
M  V30 1296 O 120.58 0.0145373 -1.94495 0
M  V30 1297 C 120.863 -3.40638 -1.1678 0
M  V30 1298 C 120.716 -4.49733 -0.0776792 0
M  V30 1299 C 122.035 -3.88259 -2.07228 0
M  V30 1300 H 119.154 -0.705105 -0.214466 0
M  V30 1301 H 121.796 -1.8947 0.141854 0
M  V30 1302 H 119.946 -3.44549 -1.79494 0
M  V30 1303 H 121.618 -4.57942 0.555573 0
M  V30 1304 H 119.861 -4.29751 0.591286 0
M  V30 1305 H 120.532 -5.49549 -0.519603 0
M  V30 1306 H 123.008 -3.86376 -1.54445 0
M  V30 1307 H 121.884 -4.91533 -2.44308 0
M  V30 1308 H 122.145 -3.26396 -2.98191 0
M  V30 1309 N 121.204 0.198386 -1.56346 0
M  V30 1310 C 122.134 1.24865 -1.9731 0
M  V30 1311 C 123.115 1.47651 -0.844576 0
M  V30 1312 O 124.3 1.59444 -1.10866 0
M  V30 1313 C 121.43 2.59358 -2.30977 0
M  V30 1314 C 120.384 2.5119 -3.46537 0
M  V30 1315 C 119.71 3.89926 -3.65871 0
M  V30 1316 C 121.01 2.03977 -4.80823 0
M  V30 1317 H 122.704 0.908252 -2.85291 0
M  V30 1318 H 120.25 0.435462 -1.37258 0
M  V30 1319 H 122.203 3.33011 -2.58228 0
M  V30 1320 H 120.927 2.95132 -1.39874 0
M  V30 1321 H 119.586 1.79993 -3.19371 0
M  V30 1322 H 119.234 4.23046 -2.72105 0
M  V30 1323 H 118.934 3.85336 -4.4361 0
M  V30 1324 H 120.458 4.65205 -3.95495 0
M  V30 1325 H 121.872 2.67386 -5.07127 0
M  V30 1326 H 120.269 2.10397 -5.62008 0
M  V30 1327 H 121.339 0.992861 -4.74626 0
M  V30 1328 N 122.682 1.50554 0.465978 0
M  V30 1329 C 123.93 1.61479 1.21528 0
M  V30 1330 C 124.251 0.319596 1.92363 0
M  V30 1331 O 123.521 -0.663194 1.84333 0
M  V30 1332 H 122.101 0.595055 0.451573 0
M  V30 1333 H 124.763 1.87355 0.53704 0
M  V30 1334 H 123.859 2.42846 1.96042 0
M  V30 1335 N 124.16 -0.719506 1.40217 0
M  V30 1336 C 125.11 -1.8251 1.36653 0
M  V30 1337 C 126.094 -1.59028 0.244732 0
M  V30 1338 O 127.286 -1.70268 0.483524 0
M  V30 1339 C 124.415 -3.20599 1.22763 0
M  V30 1340 C 123.501 -3.49858 2.39708 0
M  V30 1341 N 123.892 -3.49957 3.6519 0
M  V30 1342 C 122.19 -3.80297 2.33002 0
M  V30 1343 C 122.891 -3.77449 4.42614 0
M  V30 1344 N 121.867 -3.96002 3.72402 0
M  V30 1345 H 125.669 -1.80914 2.31619 0
M  V30 1346 H 123.183 -0.918455 1.33933 0
M  V30 1347 H 125.18 -3.99766 1.18292 0
M  V30 1348 H 123.84 -3.23424 0.287614 0
M  V30 1349 H 124.851 -3.309 3.98404 0
M  V30 1350 H 121.528 -3.90635 1.47346 0
M  V30 1351 H 122.918 -3.83863 5.51451 0
M  V30 1352 N 125.638 -1.25649 -0.95132 0
M  V30 1353 C 126.585 -1.06323 -2.04851 0
M  V30 1354 C 127.555 0.0286491 -1.66075 0
M  V30 1355 O 128.74 -0.12917 -1.90362 0
M  V30 1356 C 125.88 -0.691529 -3.381 0
M  V30 1357 C 124.993 -1.85861 -3.89974 0
M  V30 1358 C 124.128 -1.43096 -5.11563 0
M  V30 1359 C 123.167 -2.56696 -5.55674 0
M  V30 1360 N 122.304 -2.14684 -6.68472 0
M  V30 1361 H 127.144 -2.00222 -2.20715 0
M  V30 1362 H 124.681 -0.997027 -1.08156 0
M  V30 1363 H 126.639 -0.456963 -4.1469 0
M  V30 1364 H 125.269 0.210474 -3.22113 0
M  V30 1365 H 124.321 -2.20639 -3.09875 0
M  V30 1366 H 125.633 -2.71161 -4.18657 0
M  V30 1367 H 124.787 -1.15624 -5.9558 0
M  V30 1368 H 123.526 -0.548722 -4.84603 0
M  V30 1369 H 122.531 -2.84909 -4.7022 0
M  V30 1370 H 123.756 -3.45503 -5.8464 0
M  V30 1371 H 121.702 -1.28881 -6.43215 0
M  V30 1372 H 121.619 -2.9353 -6.96689 0
M  V30 1373 H 122.887 -1.90397 -7.5589 0
M  V30 1374 N 127.117 1.15442 -1.07289 0
M  V30 1375 C 128.364 1.86213 -0.795668 0
M  V30 1376 C 128.692 1.82291 0.678238 0
M  V30 1377 O 127.947 1.24057 1.51355 0
M  V30 1378 C 128.246 3.3489 -1.24834 0
M  V30 1379 C 127.912 3.59007 -2.72809 0
M  V30 1380 C 126.574 3.65298 -3.13227 0
M  V30 1381 C 128.926 3.68762 -3.68326 0
M  V30 1382 C 126.254 3.78854 -4.4798 0
M  V30 1383 C 128.606 3.83842 -5.0284 0
M  V30 1384 C 127.27 3.88378 -5.4288 0
M  V30 1385 H 126.54 0.681403 -0.291155 0
M  V30 1386 H 129.187 1.36435 -1.34379 0
M  V30 1387 H 127.492 3.8687 -0.619595 0
M  V30 1388 H 129.189 3.88052 -1.01076 0
M  V30 1389 H 125.779 3.5475 -2.40521 0
M  V30 1390 H 129.963 3.63202 -3.38227 0
M  V30 1391 H 125.219 3.80623 -4.78472 0
M  V30 1392 H 129.393 3.90332 -5.76727 0
M  V30 1393 H 127.02 3.98635 -6.47298 0
M  V30 1394 N 128.595 0.856903 1.32268 0
M  V30 1395 C 130.011 0.547061 1.49931 0
M  V30 1396 C 130.211 -0.921781 1.7918 0
M  V30 1397 O 129.267 -1.70469 1.8627 0
M  V30 1398 C 130.58 1.43599 2.64196 0
M  V30 1399 C 132.128 1.43665 2.78081 0
M  V30 1400 C 132.603 2.31085 3.95428 0
M  V30 1401 N 134.094 2.28893 4.02694 0
M  V30 1402 C 134.829 2.93262 4.92732 0
M  V30 1403 N 134.325 3.66751 5.87763 0
M  V30 1404 N 136.118 2.82638 4.85873 0
M  V30 1405 H 128.269 1.8075 1.11549 0
M  V30 1406 H 130.532 0.772144 0.549997 0
M  V30 1407 H 130.238 2.48058 2.49319 0
M  V30 1408 H 130.112 1.12502 3.60032 0
M  V30 1409 H 132.499 0.399701 2.92381 0
M  V30 1410 H 132.58 1.7878 1.82952 0
M  V30 1411 H 132.224 3.34849 3.81888 0
M  V30 1412 H 132.154 1.93302 4.89839 0
M  V30 1413 H 134.645 1.75466 3.34694 0
M  V30 1414 H 134.958 4.13027 6.53168 0
M  V30 1415 H 133.303 3.70859 5.87783 0
M  V30 1416 H 136.494 2.24774 4.10602 0
M  V30 1417 H 136.667 3.33084 5.55841 0
M  V30 1418 N 130.073 -1.45103 0.615059 0
M  V30 1419 C 131.021 -2.32331 -0.111791 0
M  V30 1420 C 132.015 -1.46409 -0.852102 0
M  V30 1421 O 133.221 -1.62849 -0.766821 0
M  V30 1422 H 129.596 -0.749993 -0.0549072 0
M  V30 1423 H 131.567 -2.91407 0.642225 0
M  V30 1424 C 130.316 -3.3015 -1.09071 0
M  V30 1425 H 129.639 -3.96265 -0.530485 0
M  V30 1426 H 131.079 -3.93898 -1.56908 0
M  V30 1427 C 129.538 -2.57875 -2.168 0
M  V30 1428 O 130.068 -2.36567 -3.24652 0
M  V30 1429 N 128.274 -2.17884 -1.92289 0
M  V30 1430 H 127.821 -2.35413 -1.04587 0
M  V30 1431 H 127.779 -1.6985 -2.64572 0
M  V30 1432 N 131.551 -0.354651 -1.53558 0
M  V30 1433 C 132.962 0.126902 -1.86268 0
M  V30 1434 C 133.313 1.49075 -1.27558 0
M  V30 1435 O 132.438 2.08105 -0.5934 0
M  V30 1436 C 133.033 0.237046 -3.3797 0
M  V30 1437 C 131.592 0.662842 -3.70518 0
M  V30 1438 C 130.739 -0.196652 -2.76602 0
M  V30 1439 H 133.69 -0.573849 -1.47962 0
M  V30 1440 H 133.711 1.06259 -3.65362 0
M  V30 1441 H 133.223 -0.755725 -3.80671 0
M  V30 1442 H 131.324 1.66424 -3.33367 0
M  V30 1443 H 131.437 0.445034 -4.77029 0
M  V30 1444 H 129.801 0.332763 -2.52517 0
M  V30 1445 H 130.584 -1.18676 -3.22135 0
M  V30 1446 N 133.029 1.57378 -0.0835403 0
M  V30 1447 C 134.275 1.94217 0.583733 0
M  V30 1448 C 134.608 0.964653 1.68547 0
M  V30 1449 O 133.883 -0.00422258 1.945 0
M  V30 1450 C 134.166 3.41253 1.14972 0
M  V30 1451 C 134.019 4.49768 0.0538277 0
M  V30 1452 C 135.338 3.89352 2.05166 0
M  V30 1453 H 132.457 0.706233 0.210724 0
M  V30 1454 H 135.099 1.89392 -0.1519 0
M  V30 1455 H 133.249 3.45496 1.77665 0
M  V30 1456 H 134.921 4.57641 -0.579851 0
M  V30 1457 H 133.164 4.29432 -0.614068 0
M  V30 1458 H 133.835 5.49817 0.490452 0
M  V30 1459 H 136.311 3.87189 1.52393 0
M  V30 1460 H 135.187 4.92822 2.41698 0
M  V30 1461 H 135.448 3.27973 2.96456 0
M  V30 1462 N 134.507 -0.190092 1.56449 0
M  V30 1463 C 135.755 -0.907908 1.80559 0
M  V30 1464 C 136.076 -1.83583 0.657438 0
M  V30 1465 O 135.346 -1.93203 -0.323924 0
M  V30 1466 H 133.926 -0.338247 0.666032 0
M  V30 1467 H 136.588 -0.194403 1.93928 0
M  V30 1468 H 135.684 -1.49604 2.73907 0
M  V30 1469 N 135.985 -1.50799 -0.457987 0
M  V30 1470 C 137.234 -1.6168 -1.20593 0
M  V30 1471 C 137.547 -0.32888 -1.92815 0
M  V30 1472 O 138.753 -0.316773 -2.69646 0
M  V30 1473 C 137.209 -2.8545 -2.19195 0
M  V30 1474 C 136.817 -4.21168 -1.52715 0
M  V30 1475 C 138.561 -3.05681 -2.94549 0
M  V30 1476 C 136.468 -5.3611 -2.4968 0
M  V30 1477 H 135.398 -0.602134 -0.453818 0
M  V30 1478 H 138.049 -1.77245 -0.475031 0
M  V30 1479 H 136.431 -2.63472 -2.95632 0
M  V30 1480 H 137.605 -4.53449 -0.819775 0
M  V30 1481 H 135.92 -4.06648 -0.895922 0
M  V30 1482 H 138.517 -3.88727 -3.67145 0
M  V30 1483 H 138.86 -2.17929 -3.54701 0
M  V30 1484 H 139.393 -3.27901 -2.25223 0
M  V30 1485 H 136.132 -6.26057 -1.94249 0
M  V30 1486 H 135.652 -5.0823 -3.18532 0
M  V30 1487 H 137.331 -5.6722 -3.11241 0
M  V30 1488 N 137.463 0.71206 -1.40597 0
M  V30 1489 C 138.426 1.80785 -1.40888 0
M  V30 1490 C 139.426 1.57937 -0.302103 0
M  V30 1491 O 140.616 1.64913 -0.561182 0
M  V30 1492 C 137.748 3.18927 -1.20409 0
M  V30 1493 H 138.941 1.81924 -2.38419 0
M  V30 1494 H 136.494 0.91805 -1.26497 0
M  V30 1495 H 137.229 3.23436 -0.236522 0
M  V30 1496 H 137.014 3.36911 -2.00582 0
M  V30 1497 H 138.504 3.98949 -1.23408 0
M  V30 1498 N 138.941 1.26152 0.944643 0
M  V30 1499 C 139.904 1.07474 2.0244 0
M  V30 1500 C 140.904 0.0242064 1.60782 0
M  V30 1501 O 142.094 0.267302 1.72137 0
M  V30 1502 C 139.226 0.633956 3.34953 0
M  V30 1503 H 140.419 2.03336 2.20442 0
M  V30 1504 H 137.972 1.087 1.12312 0
M  V30 1505 H 138.707 -0.326811 3.22649 0
M  V30 1506 H 138.492 1.39247 3.66542 0
M  V30 1507 H 139.982 0.52501 4.14287 0
M  V30 1508 N 140.419 -1.14872 1.07899 0
M  V30 1509 C 141.667 -1.85422 0.803941 0
M  V30 1510 C 141.988 -1.83051 -0.67211 0
M  V30 1511 O 141.258 -1.27532 -1.48703 0
M  V30 1512 H 139.838 -0.686537 0.294408 0
M  V30 1513 H 142.5 -1.39226 1.3639 0
M  V30 1514 H 141.596 -2.90399 1.14346 0
M  V30 1515 N 141.898 -0.863906 -1.31812 0
M  V30 1516 C 143.145 -0.471836 -1.96926 0
M  V30 1517 C 143.473 0.974578 -1.68322 0
M  V30 1518 O 142.728 1.7003 -0.968933 0
M  V30 1519 C 143.027 -0.668547 -3.51091 0
M  V30 1520 C 142.693 -2.08683 -3.99703 0
M  V30 1521 C 141.355 -2.47471 -4.12688 0
M  V30 1522 C 143.707 -3.01207 -4.25351 0
M  V30 1523 C 141.035 -3.78037 -4.4867 0
M  V30 1524 C 143.387 -4.31282 -4.62794 0
M  V30 1525 C 142.051 -4.69992 -4.73987 0
M  V30 1526 H 141.321 -0.172657 -0.720604 0
M  V30 1527 H 143.968 -1.09573 -1.57054 0
M  V30 1528 H 142.273 0.0385252 -3.91781 0
M  V30 1529 H 143.97 -0.345102 -3.99512 0
M  V30 1530 H 140.56 -1.77566 -3.90087 0
M  V30 1531 H 144.744 -2.72469 -4.14819 0
M  V30 1532 H 140 -4.078 -4.55532 0
M  V30 1533 H 144.174 -5.03031 -4.81594 0
M  V30 1534 H 141.801 -5.71207 -5.01624 0
M  V30 1535 N 143.376 1.44774 -0.622745 0
M  V30 1536 C 144.653 1.95522 -0.0551974 0
M  V30 1537 C 145.033 1.5649 1.41683 0
M  V30 1538 O 144.381 0.834848 2.12703 0
M  V30 1539 C 144.591 3.4796 -0.269242 0
M  V30 1540 C 145.939 4.24306 -0.158014 0
M  V30 1541 O 146.963 3.55637 -0.200162 0
M  V30 1542 O 145.822 5.46471 -0.0558693 0
M  V30 1543 H 142.916 0.826556 0.0271015 0
M  V30 1544 H 145.462 1.54866 -0.693864 0
M  V30 1545 H 144.234 3.6939 -1.29099 0
M  V30 1546 H 143.857 3.95543 0.403966 0
M  V30 1547 N 144.854 0.36279 1.53368 0
M  V30 1548 C 145.801 -0.485008 2.25646 0
M  V30 1549 C 146.771 -1.07982 1.2621 0
M  V30 1550 O 147.956 -1.11284 1.54986 0
M  V30 1551 C 145.096 -1.62023 3.04701 0
M  V30 1552 C 144.209 -1.05086 4.19024 0
M  V30 1553 C 143.344 -2.15496 4.85525 0
M  V30 1554 C 142.383 -1.5601 5.91884 0
M  V30 1555 N 141.52 -2.60241 6.52088 0
M  V30 1556 H 146.36 0.137864 2.97681 0
M  V30 1557 H 143.897 0.0798061 1.46883 0
M  V30 1558 H 145.855 -2.28887 3.48807 0
M  V30 1559 H 144.485 -2.2138 2.34927 0
M  V30 1560 H 143.537 -0.27259 3.79422 0
M  V30 1561 H 144.849 -0.575926 4.95464 0
M  V30 1562 H 144.003 -2.90186 5.32801 0
M  V30 1563 H 142.742 -2.66341 4.08551 0
M  V30 1564 H 141.747 -0.798338 5.43973 0
M  V30 1565 H 142.972 -1.05994 6.70777 0
M  V30 1566 H 140.918 -3.10304 5.77968 0
M  V30 1567 H 140.835 -2.17426 7.24059 0
M  V30 1568 H 142.103 -3.34641 7.04014 0
M  V30 1569 N 146.332 -1.57332 0.0918853 0
M  V30 1570 C 147.282 -2.10385 -0.87876 0
M  V30 1571 C 148.266 -1.01814 -1.24591 0
M  V30 1572 O 149.458 -1.28093 -1.22152 0
M  V30 1573 C 146.587 -2.68517 -2.13901 0
M  V30 1574 C 145.673 -3.84126 -1.79744 0
M  V30 1575 N 146.064 -4.92288 -1.1613 0
M  V30 1576 C 144.362 -3.93801 -2.09373 0
M  V30 1577 C 145.063 -5.7295 -1.00513 0
M  V30 1578 N 144.039 -5.21876 -1.5214 0
M  V30 1579 H 147.841 -2.91395 -0.38293 0
M  V30 1580 H 145.355 -1.62017 -0.111423 0
M  V30 1581 H 147.352 -3.04852 -2.84378 0
M  V30 1582 H 146.012 -1.88961 -2.64053 0
M  V30 1583 H 147.023 -5.1123 -0.828504 0
M  V30 1584 H 143.7 -3.25249 -2.61762 0
M  V30 1585 H 145.09 -6.69978 -0.507902 0
M  V30 1586 N 147.81 0.181792 -1.56548 0
M  V30 1587 C 149.058 0.89832 -1.81038 0
M  V30 1588 C 149.379 1.83232 -0.667164 0
M  V30 1589 O 148.649 1.93372 0.313673 0
M  V30 1590 H 147.229 0.33471 -0.667816 0
M  V30 1591 H 149.891 0.184116 -1.94028 0
M  V30 1592 H 148.987 1.4815 -2.74696 0
M  V30 1593 N 149.288 1.51039 0.449983 0
M  V30 1594 C 150.198 1.74261 1.57067 0
M  V30 1595 C 151.214 0.626363 1.62335 0
M  V30 1596 O 152.39 0.907162 1.79812 0
M  V30 1597 C 149.455 1.85114 2.93144 0
M  V30 1598 C 148.516 3.0893 2.98095 0
M  V30 1599 C 147.749 3.19256 4.27681 0
M  V30 1600 O 147.972 2.35835 5.19363 0
M  V30 1601 O 146.906 4.12144 4.38658 0
M  V30 1602 H 150.732 2.69303 1.40391 0
M  V30 1603 H 148.317 1.35389 0.631688 0
M  V30 1604 H 150.199 1.94311 3.73926 0
M  V30 1605 H 148.874 0.932588 3.09975 0
M  V30 1606 H 147.781 3.0522 2.16314 0
M  V30 1607 H 149.114 4.00433 2.86206 0
M  V30 1608 N 150.766 -0.704594 1.40972 0
M  V30 1609 C 151.729 -1.80035 1.41845 0
M  V30 1610 C 152.729 -1.57774 0.310474 0
M  V30 1611 O 153.919 -1.64613 0.56992 0
M  V30 1612 C 151.051 -3.18284 1.22098 0
M  V30 1613 H 152.244 -1.80658 2.3938 0
M  V30 1614 H 149.797 -0.911329 1.26982 0
M  V30 1615 H 150.532 -3.23306 0.253672 0
M  V30 1616 H 150.317 -3.35843 2.02366 0
M  V30 1617 H 151.807 -3.98289 1.25522 0
M  V30 1618 N 152.244 -1.26651 -0.937939 0
M  V30 1619 C 153.49 -1.12553 -1.687 0
M  V30 1620 C 153.823 0.329782 -1.91379 0
M  V30 1621 O 153.098 1.24202 -1.4968 0
M  V30 1622 C 153.381 -1.89862 -3.05981 0
M  V30 1623 C 153.234 -3.43318 -2.90607 0
M  V30 1624 C 154.553 -1.69499 -4.0615 0
M  V30 1625 H 151.672 -0.410257 -0.612257 0
M  V30 1626 H 154.314 -1.55685 -1.08913 0
M  V30 1627 H 152.464 -1.53204 -3.57017 0
M  V30 1628 H 154.136 -3.89747 -2.46769 0
M  V30 1629 H 152.379 -3.70179 -2.26164 0
M  V30 1630 H 153.05 -3.92642 -3.8799 0
M  V30 1631 H 155.526 -2.01442 -3.64088 0
M  V30 1632 H 154.402 -2.26002 -5.00214 0
M  V30 1633 H 154.663 -0.640365 -4.37438 0
M  V30 1634 N 153.722 1.14298 -1.08507 0
M  V30 1635 C 154.999 1.81544 -0.728088 0
M  V30 1636 C 155.379 1.95838 0.78808 0
M  V30 1637 O 154.727 1.51904 1.70697 0
M  V30 1638 C 154.937 3.17169 -1.45619 0
M  V30 1639 C 156.285 3.9265 -1.61591 0
M  V30 1640 O 157.309 3.26762 -1.41793 0
M  V30 1641 O 156.168 5.10807 -1.94263 0
M  V30 1642 H 153.262 0.78491 -0.260471 0
M  V30 1643 H 155.808 1.21307 -1.18671 0
M  V30 1644 H 154.58 3.01934 -2.489 0
M  V30 1645 H 154.203 3.851 -0.989124 0
M  V30 1646 N 155.201 0.870884 1.31352 0
M  V30 1647 C 156.449 0.48132 1.96285 0
M  V30 1648 C 156.77 -0.969813 1.69173 0
M  V30 1649 O 156.04 -1.67998 1.00764 0
M  V30 1650 H 154.62 0.175002 0.726212 0
M  V30 1651 H 157.282 1.11087 1.60143 0
M  V30 1652 H 156.378 0.639825 3.05471 0
M  V30 1653 N 156.679 -1.44442 0.630414 0
M  V30 1654 C 157.609 -2.33418 -0.0618083 0
M  V30 1655 C 158.59 -1.48165 -0.835541 0
M  V30 1656 O 159.775 -1.76886 -0.801564 0
M  V30 1657 C 156.905 -3.31222 -1.04449 0
M  V30 1658 C 155.859 -4.26288 -0.382436 0
M  V30 1659 C 155.185 -5.13954 -1.47497 0
M  V30 1660 C 156.485 -5.1744 0.710865 0
M  V30 1661 H 158.179 -2.91548 0.681184 0
M  V30 1662 H 155.725 -1.40191 0.329026 0
M  V30 1663 H 157.678 -3.92351 -1.53748 0
M  V30 1664 H 156.402 -2.71299 -1.81836 0
M  V30 1665 H 155.061 -3.6649 0.0899054 0
M  V30 1666 H 154.709 -4.50385 -2.2397 0
M  V30 1667 H 154.409 -5.7837 -1.03737 0
M  V30 1668 H 155.933 -5.77955 -1.96979 0
M  V30 1669 H 157.347 -5.72509 0.300996 0
M  V30 1670 H 155.744 -5.90455 1.07156 0
M  V30 1671 H 156.814 -4.58496 1.57829 0
M  V30 1672 N 158.157 -0.370918 -1.53173 0
M  V30 1673 C 159.387 0.217389 -2.05453 0
M  V30 1674 C 159.795 1.42568 -1.24382 0
M  V30 1675 O 159.138 1.81571 -0.278839 0
M  V30 1676 C 159.2 0.669827 -3.53205 0
M  V30 1677 C 158.864 -0.4225 -4.55043 0
M  V30 1678 C 159.861 -1.27407 -5.04047 0
M  V30 1679 C 157.546 -0.58427 -4.9889 0
M  V30 1680 C 159.54 -2.27271 -5.95505 0
M  V30 1681 C 157.227 -1.58627 -5.90153 0
M  V30 1682 C 158.225 -2.42892 -6.38351 0
M  V30 1683 O 157.913 -3.41382 -7.27814 0
M  V30 1684 H 157.645 0.0408171 -0.674767 0
M  V30 1685 H 160.199 -0.5292 -1.98466 0
M  V30 1686 H 158.429 1.4681 -3.57748 0
M  V30 1687 H 160.118 1.18173 -3.88317 0
M  V30 1688 H 160.884 -1.16031 -4.70916 0
M  V30 1689 H 156.763 0.061851 -4.60959 0
M  V30 1690 H 160.307 -2.93079 -6.33049 0
M  V30 1691 H 156.204 -1.70048 -6.22699 0
M  V30 1692 H 156.972 -3.37173 -7.45826 0
M  V30 1693 N 159.635 1.57281 -0.100228 0
M  V30 1694 C 160.582 2.14305 0.856858 0
M  V30 1695 C 161.552 1.06296 1.27634 0
M  V30 1696 O 162.737 1.34109 1.35718 0
M  V30 1697 C 159.877 2.73184 2.10866 0
M  V30 1698 C 158.99 3.95442 1.73925 0
M  V30 1699 C 158.125 4.42468 2.93931 0
M  V30 1700 C 157.164 5.57303 2.5314 0
M  V30 1701 N 156.301 5.99158 3.65997 0
M  V30 1702 H 161.141 2.95772 0.363726 0
M  V30 1703 H 158.678 1.46139 0.167858 0
M  V30 1704 H 160.636 3.05442 2.84185 0
M  V30 1705 H 159.266 1.94437 2.57671 0
M  V30 1706 H 158.318 3.69464 0.905554 0
M  V30 1707 H 159.63 4.78769 1.39935 0
M  V30 1708 H 158.784 4.76537 3.75496 0
M  V30 1709 H 157.523 3.58052 3.31134 0
M  V30 1710 H 156.528 5.22857 1.70003 0
M  V30 1711 H 157.753 6.43471 2.17075 0
M  V30 1712 H 155.699 5.17687 4.02909 0
M  V30 1713 H 155.616 6.77295 3.35869 0
M  V30 1714 H 156.884 6.3786 4.48057 0
M  V30 1715 N 161.113 -0.173488 1.56642 0
M  V30 1716 C 162.046 -1.24353 1.91342 0
M  V30 1717 C 163.024 -1.4289 0.775965 0
M  V30 1718 O 164.208 -1.57932 1.02907 0
M  V30 1719 C 161.335 -2.60683 2.16245 0
M  V30 1720 C 160.381 -2.58894 3.38934 0
M  V30 1721 S 161.214 -2.0819 4.93373 0
M  V30 1722 C 162.37 -3.46302 5.21369 0
M  V30 1723 H 162.603 -0.947345 2.81803 0
M  V30 1724 H 160.136 -0.377958 1.49703 0
M  V30 1725 H 162.094 -3.39149 2.31275 0
M  V30 1726 H 160.755 -2.87502 1.26496 0
M  V30 1727 H 159.948 -3.59188 3.53553 0
M  V30 1728 H 159.55 -1.88522 3.2301 0
M  V30 1729 H 161.842 -4.42287 5.13214 0
M  V30 1730 H 162.785 -3.3656 6.23003 0
M  V30 1731 H 163.193 -3.42214 4.48943 0
M  V30 1732 N 162.591 -1.51276 -0.441967 0
M  V30 1733 C 163.839 -1.63392 -1.18943 0
M  V30 1734 C 164.16 -0.350159 -1.9183 0
M  V30 1735 O 163.43 0.633784 -1.85364 0
M  V30 1736 H 162.01 -0.602164 -0.442049 0
M  V30 1737 H 164.672 -1.88186 -0.507165 0
M  V30 1738 H 163.768 -2.45934 -1.92154 0
M  V30 1739 N 164.069 0.697108 -1.41344 0
M  V30 1740 C 165.316 1.45714 -1.40619 0
M  V30 1741 C 165.644 1.94494 -0.0147907 0
M  V30 1742 O 164.899 1.69794 0.973066 0
M  V30 1743 C 165.198 2.68553 -2.35826 0
M  V30 1744 C 164.864 2.38438 -3.82698 0
M  V30 1745 C 163.526 2.29936 -4.22709 0
M  V30 1746 C 165.878 2.13567 -4.75435 0
M  V30 1747 C 163.206 1.94656 -5.53467 0
M  V30 1748 C 165.558 1.79797 -6.06511 0
M  V30 1749 C 164.222 1.69789 -6.45545 0
M  V30 1750 H 163.492 0.533206 -0.51456 0
M  V30 1751 H 166.139 0.796901 -1.74131 0
M  V30 1752 H 164.444 3.39503 -1.95563 0
M  V30 1753 H 166.141 3.2669 -2.32539 0
M  V30 1754 H 162.731 2.4595 -3.51008 0
M  V30 1755 H 166.915 2.19082 -4.45328 0
M  V30 1756 H 162.171 1.8546 -5.82593 0
M  V30 1757 H 166.345 1.59572 -6.77872 0
M  V30 1758 H 163.972 1.4222 -7.46778 0
M  V30 1759 N 165.547 1.27147 0.931209 0
M  V30 1760 C 166.795 1.13055 1.6752 0
M  V30 1761 C 167.116 -0.324791 1.92276 0
M  V30 1762 O 166.386 -1.22775 1.52654 0
M  V30 1763 H 164.966 0.415391 0.620854 0
M  V30 1764 H 167.628 1.59623 1.11833 0
M  V30 1765 H 166.724 1.65694 2.64485 0
M  V30 1766 N 167.025 -1.13721 1.09112 0
M  V30 1767 C 168.272 -1.84924 0.825192 0
M  V30 1768 C 168.6 -1.83347 -0.649151 0
M  V30 1769 O 167.855 -1.26449 -1.49362 0
M  V30 1770 C 168.154 -3.32861 1.30146 0
M  V30 1771 C 167.82 -3.54621 2.78486 0
M  V30 1772 C 166.482 -3.60268 3.18999 0
M  V30 1773 C 168.834 -3.62855 3.74146 0
M  V30 1774 C 166.162 -3.71679 4.53951 0
M  V30 1775 C 168.514 -3.75793 5.08883 0
M  V30 1776 C 167.178 -3.79692 5.4899 0
M  V30 1777 H 166.448 -0.676684 0.301959 0
M  V30 1778 H 169.095 -1.3428 1.36533 0
M  V30 1779 H 167.4 -3.85835 0.681064 0
M  V30 1780 H 169.097 -3.86395 1.07236 0
M  V30 1781 H 165.687 -3.50879 2.46134 0
M  V30 1782 H 169.871 -3.57775 3.43963 0
M  V30 1783 H 165.127 -3.72963 4.84467 0
M  V30 1784 H 169.301 -3.81107 5.82864 0
M  V30 1785 H 166.928 -3.88287 6.53558 0
M  V30 1786 N 168.503 -0.877838 -1.30888 0
M  V30 1787 C 169.749 -0.493426 -1.96706 0
M  V30 1788 C 170.082 0.953504 -1.6918 0
M  V30 1789 O 169.357 1.67266 -0.992594 0
M  V30 1790 C 169.64 -0.760429 -3.51979 0
M  V30 1791 C 169.493 -2.25747 -3.89048 0
M  V30 1792 C 170.812 -0.232148 -4.39487 0
M  V30 1793 H 167.931 -0.180746 -0.714493 0
M  V30 1794 H 170.573 -1.10052 -1.54882 0
M  V30 1795 H 168.723 -0.243715 -3.87735 0
M  V30 1796 H 170.395 -2.84204 -3.63354 0
M  V30 1797 H 168.638 -2.72694 -3.37373 0
M  V30 1798 H 169.309 -2.39491 -4.97341 0
M  V30 1799 H 171.785 -0.674314 -4.106 0
M  V30 1800 H 170.661 -0.448355 -5.47066 0
M  V30 1801 H 170.922 0.866297 -4.33529 0
M  V30 1802 N 169.982 1.44106 -0.638065 0
M  V30 1803 C 170.892 2.34513 0.0637334 0
M  V30 1804 C 171.908 1.53018 0.828346 0
M  V30 1805 O 173.084 1.85723 0.779036 0
M  V30 1806 C 170.149 3.31095 1.02844 0
M  V30 1807 C 169.21 4.28497 0.26244 0
M  V30 1808 C 168.443 5.20465 1.1812 0
M  V30 1809 O 168.666 5.16514 2.42011 0
M  V30 1810 O 167.6 5.98251 0.661774 0
M  V30 1811 H 171.426 2.95989 -0.68003 0
M  V30 1812 H 169.011 1.43994 -0.398252 0
M  V30 1813 H 170.893 3.90526 1.58327 0
M  V30 1814 H 169.568 2.72144 1.7527 0
M  V30 1815 H 168.475 3.72592 -0.335602 0
M  V30 1816 H 169.808 4.90388 -0.421936 0
M  V30 1817 N 171.46 0.379036 1.52974 0
M  V30 1818 C 172.709 -0.207612 2.00629 0
M  V30 1819 C 173.022 -1.48758 1.27006 0
M  V30 1820 O 174.228 -2.15365 1.65318 0
M  V30 1821 C 172.684 -0.42053 3.57435 0
M  V30 1822 C 172.292 0.845587 4.39948 0
M  V30 1823 C 174.036 -0.964102 4.13407 0
M  V30 1824 C 171.943 0.601513 5.88333 0
M  V30 1825 H 170.873 -0.0813591 0.749598 0
M  V30 1826 H 173.524 0.499853 1.76561 0
M  V30 1827 H 171.906 -1.18959 3.7771 0
M  V30 1828 H 173.08 1.61848 4.31442 0
M  V30 1829 H 171.395 1.31336 3.95145 0
M  V30 1830 H 173.992 -1.16225 5.21916 0
M  V30 1831 H 174.335 -1.93019 3.68849 0
M  V30 1832 H 174.868 -0.25487 3.96983 0
M  V30 1833 H 171.607 1.53831 6.37194 0
M  V30 1834 H 171.127 -0.132628 5.99653 0
M  V30 1835 H 172.806 0.232134 6.46583 0
M  V30 1836 N 172.938 -1.57226 0.108567 0
M  V30 1837 C 174.186 -1.94448 -0.550853 0
M  V30 1838 C 174.507 -0.992074 -1.67878 0
M  V30 1839 O 173.777 -0.0465 -1.95845 0
M  V30 1840 H 172.357 -0.717897 -0.206479 0
M  V30 1841 H 175.019 -1.94112 0.175062 0
M  V30 1842 H 174.115 -2.97218 -0.952259 0
M  V30 1843 N 174.416 0.165178 -1.56732 0
M  V30 1844 C 175.641 0.900253 -1.86843 0
M  V30 1845 C 176.066 1.74766 -0.695596 0
M  V30 1846 O 175.424 1.77786 0.35522 0
M  V30 1847 C 175.472 1.74777 -3.15413 0
M  V30 1848 O 174.576 2.85007 -2.98068 0
M  V30 1849 H 173.917 0.251832 -0.614391 0
M  V30 1850 H 176.447 0.161468 -2.03962 0
M  V30 1851 H 176.457 2.14646 -3.46974 0
M  V30 1852 H 175.132 1.12537 -4.00385 0
M  V30 1853 H 173.709 2.48676 -2.77875 0
M  V30 1854 N 175.894 1.51508 0.433938 0
M  V30 1855 C 177.14 1.64588 1.18484 0
M  V30 1856 C 177.473 0.362666 1.90784 0
M  V30 1857 O 176.748 -0.637892 1.83742 0
M  V30 1858 C 177.031 2.85149 2.19913 0
M  V30 1859 C 176.884 4.23456 1.51674 0
M  V30 1860 C 178.203 3.01227 3.20858 0
M  V30 1861 H 175.322 0.598994 0.429389 0
M  V30 1862 H 177.964 1.84002 0.473647 0
M  V30 1863 H 176.114 2.68729 2.80566 0
M  V30 1864 H 177.786 4.51552 0.943322 0
M  V30 1865 H 176.029 4.25998 0.819035 0
M  V30 1866 H 176.7 5.03812 2.2556 0
M  V30 1867 H 179.176 3.16382 2.70263 0
M  V30 1868 H 178.052 3.87141 3.89118 0
M  V30 1869 H 178.313 2.13447 3.8716 0
M  V30 1870 N 177.372 -0.689602 1.41712 0
M  V30 1871 C 178.6 -1.47827 1.44758 0
M  V30 1872 C 179.015 -1.88721 0.0545703 0
M  V30 1873 O 178.372 -1.57176 -0.927463 0
M  V30 1874 C 178.423 -2.73698 2.3616 0
M  V30 1875 O 178.144 -2.34524 3.7004 0
M  V30 1876 C 179.645 -3.67389 2.48072 0
M  V30 1877 H 176.865 -0.455357 0.49284 0
M  V30 1878 H 179.409 -0.848574 1.86063 0
M  V30 1879 H 177.564 -3.32891 1.98148 0
M  V30 1880 H 177.978 -3.15701 4.18847 0
M  V30 1881 H 179.452 -4.52475 3.16181 0
M  V30 1882 H 179.929 -4.12284 1.51388 0
M  V30 1883 H 180.535 -3.14097 2.86746 0
M  V30 1884 N 178.85 -1.27639 -0.924453 0
M  V30 1885 C 180.261 -1.12834 -1.48746 0
M  V30 1886 C 180.612 0.285505 -1.94112 0
M  V30 1887 O 179.737 1.17874 -1.81479 0
M  V30 1888 C 180.332 -2.04217 -2.70334 0
M  V30 1889 C 178.891 -1.93509 -3.22848 0
M  V30 1890 C 178.038 -1.96583 -1.95577 0
M  V30 1891 H 180.989 -1.40484 -0.738233 0
M  V30 1892 H 181.01 -1.59989 -3.4523 0
M  V30 1893 H 180.522 -3.07111 -2.37285 0
M  V30 1894 H 178.623 -0.936131 -3.60649 0
M  V30 1895 H 178.736 -2.79917 -3.88823 0
M  V30 1896 H 177.1 -1.4085 -2.12211 0
M  V30 1897 H 177.883 -3.01137 -1.64837 0
M  V30 1898 N 180.328 1.1314 -1.09713 0
M  V30 1899 C 181.275 2.18642 -0.739196 0
M  V30 1900 C 182.245 1.63706 0.280978 0
M  V30 1901 O 183.43 1.90111 0.161946 0
M  V30 1902 C 180.57 3.44685 -0.169102 0
M  V30 1903 C 179.683 4.13711 -1.24367 0
M  V30 1904 C 178.818 5.27379 -0.636019 0
M  V30 1905 C 177.857 5.88259 -1.69169 0
M  V30 1906 N 176.994 6.93352 -1.10485 0
M  V30 1907 H 181.834 2.48607 -1.64312 0
M  V30 1908 H 179.371 1.22066 -0.820875 0
M  V30 1909 H 181.329 4.16815 0.179256 0
M  V30 1910 H 179.959 3.15161 0.698079 0
M  V30 1911 H 179.011 3.39835 -1.70927 0
M  V30 1912 H 180.323 4.55037 -2.04311 0
M  V30 1913 H 179.477 6.06238 -0.236677 0
M  V30 1914 H 178.216 4.8731 0.194928 0
M  V30 1915 H 177.221 5.08092 -2.10055 0
M  V30 1916 H 178.446 6.30399 -2.52536 0
M  V30 1917 H 176.392 6.55335 -0.295234 0
M  V30 1918 H 176.309 7.33236 -1.84121 0
M  V30 1919 H 177.577 7.76057 -0.73181 0
M  V30 1920 N 181.806 0.884767 1.30421 0
M  V30 1921 C 183.217 0.553656 1.78302 0
M  V30 1922 C 183.568 -0.930153 1.7275 0
M  V30 1923 O 182.693 -1.72681 1.30423 0
M  V30 1924 C 183.288 0.998234 3.2376 0
M  V30 1925 C 181.847 0.71854 3.69478 0
M  V30 1926 C 180.994 1.18132 2.50879 0
M  V30 1927 H 183.945 1.06901 1.17294 0
M  V30 1928 H 183.966 0.327118 3.79091 0
M  V30 1929 H 183.478 2.0782 3.27769 0
M  V30 1930 H 181.579 -0.349444 3.70958 0
M  V30 1931 H 181.692 1.30595 4.60958 0
M  V30 1932 H 180.056 0.600669 2.47516 0
M  V30 1933 H 180.839 2.26902 2.57624 0
M  V30 1934 N 183.284 -1.43765 0.645699 0
M  V30 1935 C 184.216 -2.29027 -0.0890605 0
M  V30 1936 C 185.229 -1.42093 -0.794563 0
M  V30 1937 O 186.418 -1.66104 -0.653575 0
M  V30 1938 C 183.518 -3.18831 -1.14891 0
M  V30 1939 C 182.691 -4.34261 -0.523043 0
M  V30 1940 C 181.75 -5.04994 -1.47878 0
M  V30 1941 O 180.776 -5.6052 -0.990277 0
M  V30 1942 N 181.978 -5.07795 -2.81291 0
M  V30 1943 H 184.743 -2.92727 0.64272 0
M  V30 1944 H 182.304 -1.54373 0.487924 0
M  V30 1945 H 184.296 -3.63015 -1.78892 0
M  V30 1946 H 182.866 -2.56782 -1.78275 0
M  V30 1947 H 182.086 -3.93088 0.295896 0
M  V30 1948 H 183.374 -5.08728 -0.0858147 0
M  V30 1949 H 182.772 -4.64042 -3.23546 0
M  V30 1950 H 181.329 -5.55721 -3.40614 0
M  V30 1951 N 184.763 -0.387143 -1.52771 0
M  V30 1952 C 185.673 0.456442 -2.30117 0
M  V30 1953 C 186.689 1.07342 -1.36944 0
M  V30 1954 O 187.865 1.07971 -1.70013 0
M  V30 1955 C 184.93 1.56957 -3.09136 0
M  V30 1956 C 183.991 0.977916 -4.18014 0
M  V30 1957 C 183.224 2.038 -4.93256 0
M  V30 1958 O 183.447 3.25271 -4.68567 0
M  V30 1959 O 182.381 1.6565 -5.78657 0
M  V30 1960 H 186.207 -0.17359 -3.03203 0
M  V30 1961 H 183.792 -0.150919 -1.48636 0
M  V30 1962 H 185.674 2.21628 -3.58412 0
M  V30 1963 H 184.349 2.18461 -2.38865 0
M  V30 1964 H 183.256 0.294525 -3.72939 0
M  V30 1965 H 184.589 0.407128 -4.90513 0
M  V30 1966 N 186.241 1.57166 -0.116904 0
M  V30 1967 C 187.489 1.94737 0.540533 0
M  V30 1968 C 187.81 1.00096 1.67349 0
M  V30 1969 O 187.08 0.0568854 1.95817 0
M  V30 1970 H 185.66 0.718981 0.202669 0
M  V30 1971 H 188.322 1.94017 -0.185353 0
M  V30 1972 H 187.418 2.97719 0.936483 0
M  V30 1973 N 187.719 -0.156864 1.56817 0
M  V30 1974 C 188.667 -1.21319 1.98455 0
M  V30 1975 C 189.661 -1.45025 0.875444 0
M  V30 1976 O 190.867 -1.45435 1.0606 0
M  V30 1977 H 187.242 -0.408142 0.631605 0
M  V30 1978 H 189.213 -0.835244 2.86472 0
M  V30 1979 C 187.962 -2.54148 2.37285 0
M  V30 1980 H 187.285 -2.36733 3.22176 0
M  V30 1981 H 188.725 -3.26712 2.70251 0
M  V30 1982 C 187.184 -3.13967 1.22173 0
M  V30 1983 O 187.714 -3.98357 0.517149 0
M  V30 1984 N 185.92 -2.7327 0.988536 0
M  V30 1985 H 185.467 -2.04744 1.56326 0
M  V30 1986 H 185.425 -3.13628 0.220209 0
M  V30 1987 N 189.197 -1.51736 -0.425897 0
M  V30 1988 C 190.608 -1.5732 -1.00536 0
M  V30 1989 C 190.959 -0.403537 -1.92005 0
M  V30 1990 O 190.084 0.478256 -2.11049 0
M  V30 1991 C 190.679 -2.85119 -1.8301 0
M  V30 1992 C 189.238 -2.93236 -2.35987 0
M  V30 1993 C 188.385 -2.52098 -1.15508 0
M  V30 1994 H 191.336 -1.57348 -0.206739 0
M  V30 1995 H 191.357 -2.69526 -2.68581 0
M  V30 1996 H 190.869 -3.7023 -1.16411 0
M  V30 1997 H 188.97 -2.12581 -3.06007 0
M  V30 1998 H 189.083 -3.9713 -2.68001 0
M  V30 1999 H 187.447 -2.05558 -1.50393 0
M  V30 2000 H 188.23 -3.39565 -0.505014 0
M  V30 2001 N 190.675 0.682077 -1.42076 0
M  V30 2002 C 192.091 0.994324 -1.24841 0
M  V30 2003 C 192.291 2.0096 -0.147389 0
M  V30 2004 O 191.347 2.47822 0.483782 0
M  V30 2005 C 192.66 1.50607 -2.60265 0
M  V30 2006 C 194.208 1.62421 -2.6756 0
M  V30 2007 C 194.683 2.16994 -4.03333 0
M  V30 2008 N 196.174 2.24337 -4.0525 0
M  V30 2009 C 196.909 2.67621 -5.07116 0
M  V30 2010 N 196.405 3.1041 -6.19368 0
M  V30 2011 N 198.198 2.67305 -4.94474 0
M  V30 2012 H 190.349 0.00973908 -2.12398 0
M  V30 2013 H 192.612 0.0668593 -0.945639 0
M  V30 2014 H 192.318 0.834583 -3.41654 0
M  V30 2015 H 192.192 2.48602 -2.83684 0
M  V30 2016 H 194.579 2.28678 -1.86521 0
M  V30 2017 H 194.66 0.629352 -2.47937 0
M  V30 2018 H 194.304 1.51349 -4.84826 0
M  V30 2019 H 194.234 3.17258 -4.20304 0
M  V30 2020 H 196.725 1.94158 -3.24209 0
M  V30 2021 H 197.038 3.42103 -6.92954 0
M  V30 2022 H 195.383 3.08286 -6.22884 0
M  V30 2023 H 198.574 2.33233 -4.05857 0
M  V30 2024 H 198.747 3.00718 -5.73997 0
M  V30 2025 N 192.153 1.28127 0.917671 0
M  V30 2026 C 193.564 1.13622 1.48145 0
M  V30 2027 C 193.915 -0.275207 1.9426 0
M  V30 2028 O 193.04 -1.1691 1.82102 0
M  V30 2029 C 193.635 2.05648 2.69248 0
M  V30 2030 C 192.194 1.95219 3.21818 0
M  V30 2031 C 191.341 1.97618 1.94532 0
M  V30 2032 H 194.292 1.40874 0.730772 0
M  V30 2033 H 194.313 1.61818 3.44377 0
M  V30 2034 H 193.825 3.08365 2.35653 0
M  V30 2035 H 191.926 0.955244 3.60147 0
M  V30 2036 H 192.039 2.81976 3.87333 0
M  V30 2037 H 190.403 1.41973 2.11461 0
M  V30 2038 H 191.186 3.02007 1.63238 0
M  V30 2039 N 193.631 -1.12557 1.10312 0
M  V30 2040 C 195.047 -1.36036 0.834649 0
M  V30 2041 C 195.247 -1.93946 -0.546539 0
M  V30 2042 O 194.303 -2.16484 -1.29966 0
M  V30 2043 C 195.616 -2.30312 1.9333 0
M  V30 2044 C 197.164 -2.43906 1.9616 0
M  V30 2045 C 197.639 -3.41496 3.05195 0
M  V30 2046 N 199.13 -3.49053 3.04494 0
M  V30 2047 C 199.865 -4.24471 3.85502 0
M  V30 2048 N 199.361 -5.02966 4.76442 0
M  V30 2049 N 201.154 -4.19864 3.73725 0
M  V30 2050 H 193.305 -0.733246 1.99342 0
M  V30 2051 H 195.568 -0.385234 0.866198 0
M  V30 2052 H 195.274 -1.94933 2.92735 0
M  V30 2053 H 195.148 -3.30421 1.81939 0
M  V30 2054 H 197.535 -2.78567 0.973886 0
M  V30 2055 H 197.616 -1.4369 2.11629 0
M  V30 2056 H 197.26 -3.07565 4.04186 0
M  V30 2057 H 197.19 -4.41539 2.86968 0
M  V30 2058 H 199.681 -2.93053 2.38596 0
M  V30 2059 H 199.994 -5.57846 5.34815 0
M  V30 2060 H 198.339 -5.02167 4.80472 0
M  V30 2061 H 201.53 -3.57623 3.02032 0
M  V30 2062 H 201.703 -4.78386 4.37093 0
M  V30 2063 N 195.109 -0.891671 -1.2995 0
M  V30 2064 C 196.355 -0.514261 -1.96171 0
M  V30 2065 C 196.688 0.935506 -1.70182 0
M  V30 2066 O 195.963 1.66204 -1.01028 0
M  V30 2067 C 196.246 -0.797719 -3.51153 0
M  V30 2068 C 196.099 -2.2986 -3.86632 0
M  V30 2069 C 197.418 -0.278749 -4.39216 0
M  V30 2070 H 194.537 -0.188314 -0.712535 0
M  V30 2071 H 197.179 -1.11689 -1.53706 0
M  V30 2072 H 195.329 -0.284826 -3.87455 0
M  V30 2073 H 197.001 -2.88042 -3.60319 0
M  V30 2074 H 195.244 -2.76257 -3.34462 0
M  V30 2075 H 195.915 -2.44753 -4.94773 0
M  V30 2076 H 198.391 -0.717825 -4.09862 0
M  V30 2077 H 197.267 -0.506353 -5.46559 0
M  V30 2078 H 197.528 0.820266 -4.34424 0
M  V30 2079 N 196.587 1.43421 -0.653314 0
M  V30 2080 C 197.834 2.01812 -0.166745 0
M  V30 2081 C 198.162 1.51535 1.21931 0
M  V30 2082 O 197.417 0.698975 1.82792 0
M  V30 2083 C 197.716 3.57176 -0.126623 0
M  V30 2084 C 197.382 4.26798 -1.45444 0
M  V30 2085 C 196.044 4.45534 -1.81805 0
M  V30 2086 C 198.396 4.66225 -2.32989 0
M  V30 2087 C 195.724 5.00961 -3.05377 0
M  V30 2088 C 198.076 5.23021 -3.55853 0
M  V30 2089 C 196.74 5.39973 -3.9241 0
M  V30 2090 H 196.01 0.738484 -0.0610162 0
M  V30 2091 H 198.657 1.71896 -0.84404 0
M  V30 2092 H 196.962 3.86634 0.634123 0
M  V30 2093 H 198.659 4.00112 0.266723 0
M  V30 2094 H 195.249 4.12561 -1.16153 0
M  V30 2095 H 199.433 4.51443 -2.06187 0
M  V30 2096 H 194.689 5.12271 -3.3375 0
M  V30 2097 H 198.863 5.52518 -4.23907 0
M  V30 2098 H 196.49 5.82687 -4.88242 0
M  V30 2099 N 198.065 0.39524 1.52563 0
M  V30 2100 C 199.481 0.0454682 1.59535 0
M  V30 2101 C 199.681 -1.44056 1.4089 0
M  V30 2102 O 198.737 -2.20579 1.22888 0
M  V30 2103 C 200.05 0.527963 2.96029 0
M  V30 2104 C 201.598 0.484733 3.09224 0
M  V30 2105 C 202.073 0.943512 4.48176 0
M  V30 2106 N 203.564 0.899765 4.54377 0
M  V30 2107 C 204.299 1.22609 5.60138 0
M  V30 2108 N 203.795 1.62319 6.73516 0
M  V30 2109 N 205.588 1.14696 5.50274 0
M  V30 2110 H 197.739 1.36261 1.62931 0
M  V30 2111 H 200.002 0.558887 0.765735 0
M  V30 2112 H 199.708 1.56607 3.14908 0
M  V30 2113 H 199.582 -0.0698056 3.77135 0
M  V30 2114 H 201.969 -0.544298 2.90037 0
M  V30 2115 H 202.05 1.11838 2.30056 0
M  V30 2116 H 201.694 1.9708 4.68104 0
M  V30 2117 H 201.624 0.286817 5.25818 0
M  V30 2118 H 204.115 0.607632 3.72983 0
M  V30 2119 H 204.428 1.85567 7.5019 0
M  V30 2120 H 202.773 1.66211 6.74833 0
M  V30 2121 H 205.964 0.835701 4.6058 0
M  V30 2122 H 206.137 1.40459 6.32594 0
M  V30 2123 N 199.544 -1.57102 0.125237 0
M  V30 2124 C 200.474 -2.18659 -0.819174 0
M  V30 2125 C 201.455 -1.12843 -1.27281 0
M  V30 2126 O 202.64 -1.41104 -1.33429 0
M  V30 2127 C 199.77 -2.79096 -2.06695 0
M  V30 2128 C 198.724 -3.90548 -1.75088 0
M  V30 2129 C 198.05 -4.37821 -3.06948 0
M  V30 2130 C 199.35 -5.12356 -1.01435 0
M  V30 2131 H 201.044 -2.9783 -0.306202 0
M  V30 2132 H 198.59 -1.4326 -0.145839 0
M  V30 2133 H 200.543 -3.2082 -2.73226 0
M  V30 2134 H 199.267 -1.97223 -2.60328 0
M  V30 2135 H 197.926 -3.49409 -1.10944 0
M  V30 2136 H 197.574 -3.52799 -3.58527 0
M  V30 2137 H 197.274 -5.12982 -2.86571 0
M  V30 2138 H 198.798 -4.822 -3.74587 0
M  V30 2139 H 200.212 -5.5106 -1.58132 0
M  V30 2140 H 198.609 -5.9314 -0.911319 0
M  V30 2141 H 199.679 -4.849 -0.00218681 0
M  V30 2142 N 201.022 0.148545 -1.56898 0
M  V30 2143 C 202.433 0.708766 -1.72723 0
M  V30 2144 C 202.784 1.81734 -0.739395 0
M  V30 2145 O 201.909 2.16194 0.0943169 0
M  V30 2146 C 202.504 1.29245 -3.13179 0
M  V30 2147 C 201.063 1.79925 -3.30611 0
M  V30 2148 C 200.21 0.687111 -2.68652 0
M  V30 2149 H 203.161 -0.0771063 -1.58513 0
M  V30 2150 H 203.182 2.16224 -3.13093 0
M  V30 2151 H 202.694 0.485382 -3.85053 0
M  V30 2152 H 200.795 2.63203 -2.63732 0
M  V30 2153 H 200.908 1.92903 -4.38549 0
M  V30 2154 H 199.272 1.11335 -2.29078 0
M  V30 2155 H 200.055 -0.108483 -3.43129 0
M  V30 2156 N 202.5 1.5196 0.417844 0
M  V30 2157 C 203.41 1.77554 1.53336 0
M  V30 2158 C 204.426 0.660655 1.6097 0
M  V30 2159 O 205.602 0.945099 1.77848 0
M  V30 2160 C 202.667 1.91291 2.89152 0
M  V30 2161 C 201.728 3.15183 2.91475 0
M  V30 2162 C 200.961 3.28256 4.20813 0
M  V30 2163 O 201.184 2.46798 5.14244 0
M  V30 2164 O 200.118 4.21356 4.29817 0
M  V30 2165 H 203.944 2.7222 1.34647 0
M  V30 2166 H 201.529 1.36698 0.602828 0
M  V30 2167 H 203.411 2.02199 3.69721 0
M  V30 2168 H 202.086 0.998129 3.07927 0
M  V30 2169 H 200.993 3.09739 2.09791 0
M  V30 2170 H 202.326 4.06414 2.77648 0
M  V30 2171 N 203.978 -0.674533 1.42435 0
M  V30 2172 C 205.255 -1.4305 1.33402 0
M  V30 2173 C 205.635 -2.11081 -0.0284674 0
M  V30 2174 O 204.983 -2.03257 -1.04397 0
M  V30 2175 C 205.193 -2.43272 2.50239 0
M  V30 2176 C 206.541 -3.07907 2.92367 0
M  V30 2177 O 207.565 -2.53599 2.50132 0
M  V30 2178 O 206.424 -4.0632 3.65467 0
M  V30 2179 H 203.518 -0.638076 0.526106 0
M  V30 2180 H 206.064 -0.703235 1.54443 0
M  V30 2181 H 204.836 -1.91803 3.41068 0
M  V30 2182 H 204.459 -3.23479 2.31186 0
M  V30 2183 N 205.456 -1.28612 -0.910864 0
M  V30 2184 C 206.388 -1.08589 -2.01844 0
M  V30 2185 C 207.401 -0.0367419 -1.62759 0
M  V30 2186 O 208.59 -0.280101 -1.76289 0
M  V30 2187 C 205.69 -0.628626 -3.33019 0
M  V30 2188 C 204.863 -1.75382 -4.00699 0
M  V30 2189 C 203.922 -1.28945 -5.10156 0
M  V30 2190 O 202.948 -1.9922 -5.33198 0
M  V30 2191 N 204.15 -0.154224 -5.80295 0
M  V30 2192 H 206.915 -2.03973 -2.19579 0
M  V30 2193 H 204.476 -1.20403 -1.08234 0
M  V30 2194 H 206.468 -0.301508 -4.03575 0
M  V30 2195 H 205.038 0.232451 -3.11735 0
M  V30 2196 H 204.258 -2.25039 -3.23653 0
M  V30 2197 H 205.546 -2.50854 -4.42662 0
M  V30 2198 H 204.944 0.43194 -5.64049 0
M  V30 2199 H 203.501 0.113599 -6.51701 0
M  V30 2200 N 206.934 1.1197 -1.10907 0
M  V30 2201 C 207.897 2.16031 -0.765707 0
M  V30 2202 C 208.897 1.59393 0.212235 0
M  V30 2203 O 210.087 1.74196 -0.0115441 0
M  V30 2204 C 207.219 3.40632 -0.135053 0
M  V30 2205 H 208.412 2.47919 -1.68748 0
M  V30 2206 H 205.965 1.27061 -0.910226 0
M  V30 2207 H 206.7 3.14348 0.797218 0
M  V30 2208 H 206.485 3.8302 -0.838937 0
M  V30 2209 H 207.975 4.17505 0.0892469 0
M  V30 2210 N 208.412 0.89855 1.29475 0
M  V30 2211 C 209.658 0.524658 1.95896 0
M  V30 2212 C 209.991 -0.926468 1.70676 0
M  V30 2213 O 209.266 -1.65665 1.01908 0
M  V30 2214 C 209.549 0.81633 3.50725 0
M  V30 2215 C 209.402 2.31907 3.85408 0
M  V30 2216 C 210.721 0.302038 4.39062 0
M  V30 2217 H 207.84 0.19209 0.711527 0
M  V30 2218 H 210.482 1.12502 1.53112 0
M  V30 2219 H 208.632 0.305369 3.87298 0
M  V30 2220 H 210.304 2.89949 3.58786 0
M  V30 2221 H 208.547 2.78027 3.32992 0
M  V30 2222 H 209.218 2.47373 4.93468 0
M  V30 2223 H 211.694 0.739551 4.09475 0
M  V30 2224 H 210.57 0.535331 5.46283 0
M  V30 2225 H 210.831 -0.797216 4.34853 0
M  V30 2226 N 209.89 -1.43072 0.660911 0
M  V30 2227 C 211.139 -2.00942 0.174735 0
M  V30 2228 C 211.452 -1.52797 -1.22117 0
M  V30 2229 O 212.658 -2.02991 -1.80297 0
M  V30 2230 C 211.114 -3.58948 0.261559 0
M  V30 2231 C 210.722 -4.16085 1.66064 0
M  V30 2232 C 212.466 -4.24173 -0.166617 0
M  V30 2233 C 210.373 -5.6641 1.70098 0
M  V30 2234 H 209.303 -0.751483 0.0615631 0
M  V30 2235 H 211.954 -1.63955 0.824069 0
M  V30 2236 H 210.336 -3.93372 -0.455421 0
M  V30 2237 H 211.51 -3.93147 2.40359 0
M  V30 2238 H 209.825 -3.6326 2.03546 0
M  V30 2239 H 212.422 -5.34471 -0.156433 0
M  V30 2240 H 212.765 -3.98647 -1.19943 0
M  V30 2241 H 213.298 -3.94659 0.498875 0
M  V30 2242 H 210.037 -5.96715 2.71315 0
M  V30 2243 H 209.557 -5.91382 1.00139 0
M  V30 2244 H 211.236 -6.30585 1.44816 0
M  V30 2245 N 211.368 -0.403325 -1.52352 0
M  V30 2246 C 212.316 0.439752 -2.28405 0
M  V30 2247 C 213.31 1.05089 -1.32863 0
M  V30 2248 O 214.516 0.989759 -1.50345 0
M  V30 2249 H 210.891 0.160587 -0.734653 0
M  V30 2250 H 212.862 -0.222983 -2.97566 0
M  V30 2251 C 211.611 1.54736 -3.11371 0
M  V30 2252 H 210.934 1.08643 -3.84755 0
M  V30 2253 H 212.374 2.1112 -3.67701 0
M  V30 2254 C 210.833 2.51141 -2.24566 0
M  V30 2255 O 211.363 3.54887 -1.88196 0
M  V30 2256 N 209.569 2.21213 -1.8845 0
M  V30 2257 H 209.116 1.36878 -2.18225 0
M  V30 2258 H 209.074 2.85963 -1.30662 0
M  V30 2259 N 212.846 1.57033 -0.133567 0
M  V30 2260 C 214.262 1.58035 0.222944 0
M  V30 2261 C 214.462 1.14713 1.6566 0
M  V30 2262 O 213.518 0.841218 2.38075 0
M  V30 2263 C 214.831 3.00691 -0.0236116 0
M  V30 2264 C 216.379 3.12973 0.0411512 0
M  V30 2265 C 216.854 4.57654 -0.177899 0
M  V30 2266 N 218.345 4.63033 -0.124365 0
M  V30 2267 C 219.08 5.72771 -0.268553 0
M  V30 2268 N 218.576 6.91206 -0.46972 0
M  V30 2269 N 220.369 5.61718 -0.2071 0
M  V30 2270 H 212.52 1.8349 -1.06981 0
M  V30 2271 H 214.783 0.848677 -0.422436 0
M  V30 2272 H 214.489 3.36726 -1.0153 0
M  V30 2273 H 214.363 3.70614 0.701808 0
M  V30 2274 H 216.75 2.76787 1.02338 0
M  V30 2275 H 216.831 2.45564 -0.716383 0
M  V30 2276 H 216.475 4.94542 -1.15717 0
M  V30 2277 H 216.405 5.23173 0.599797 0
M  V30 2278 H 218.896 3.7789 0.027011 0
M  V30 2279 H 219.209 7.70693 -0.570212 0
M  V30 2280 H 217.554 6.93156 -0.505876 0
M  V30 2281 H 220.745 4.68072 -0.0507986 0
M  V30 2282 H 220.918 6.47195 -0.322909 0
M  V30 2283 N 214.325 -0.140222 1.56975 0
M  V30 2284 C 215.555 -0.865181 1.87612 0
M  V30 2285 C 215.963 -1.74942 0.72055 0
M  V30 2286 O 215.306 -1.80917 -0.318561 0
M  V30 2287 C 215.368 -1.76782 3.13031 0
M  V30 2288 C 215.032 -1.06005 4.44536 0
M  V30 2289 C 216.029 -0.410768 5.18275 0
M  V30 2290 C 213.714 -1.04754 4.91255 0
M  V30 2291 C 215.708 0.241572 6.36942 0
M  V30 2292 C 213.395 -0.391394 6.09845 0
M  V30 2293 C 214.393 0.252029 6.82535 0
M  V30 2294 O 214.081 0.897757 7.98871 0
M  V30 2295 H 213.813 -0.255188 0.625983 0
M  V30 2296 H 216.367 -0.135653 2.04952 0
M  V30 2297 H 214.597 -2.53846 2.91718 0
M  V30 2298 H 216.286 -2.36533 3.29859 0
M  V30 2299 H 217.052 -0.412195 4.83245 0
M  V30 2300 H 212.931 -1.53777 4.34596 0
M  V30 2301 H 216.475 0.744375 6.93617 0
M  V30 2302 H 212.372 -0.387656 6.44335 0
M  V30 2303 H 213.14 0.800102 8.1458 0
M  V30 2304 N 215.803 -1.52179 -0.40978 0
M  V30 2305 C 217.051 -1.65878 -1.15451 0
M  V30 2306 C 217.372 -0.390771 -1.91044 0
M  V30 2307 O 216.642 0.594323 -1.86667 0
M  V30 2308 H 215.222 -0.611405 -0.429177 0
M  V30 2309 H 217.884 -1.89219 -0.467134 0
M  V30 2310 H 216.98 -2.49954 -1.86894 0
M  V30 2311 N 217.281 0.66697 -1.42791 0
M  V30 2312 C 218.528 1.42699 -1.43678 0
M  V30 2313 C 218.856 1.94419 -0.0560425 0
M  V30 2314 O 218.111 1.7182 0.936831 0
M  V30 2315 C 218.41 2.6349 -2.4147 0
M  V30 2316 C 218.076 2.30267 -3.8767 0
M  V30 2317 C 216.738 2.20918 -4.27491 0
M  V30 2318 C 219.09 2.03435 -4.79858 0
M  V30 2319 C 216.418 1.82873 -5.57471 0
M  V30 2320 C 218.77 1.66892 -6.10188 0
M  V30 2321 C 217.434 1.56058 -6.49001 0
M  V30 2322 H 216.704 0.522171 -0.525755 0
M  V30 2323 H 219.351 0.759785 -1.75783 0
M  V30 2324 H 217.656 3.35279 -2.0272 0
M  V30 2325 H 219.353 3.21684 -2.39417 0
M  V30 2326 H 215.943 2.38449 -3.56146 0
M  V30 2327 H 220.127 2.09586 -4.49875 0
M  V30 2328 H 215.383 1.7306 -5.86396 0
M  V30 2329 H 219.557 1.45157 -6.81104 0
M  V30 2330 H 217.184 1.26348 -7.49627 0
M  V30 2331 N 218.759 1.29093 0.90403 0
M  V30 2332 C 219.707 1.13727 2.02901 0
M  V30 2333 C 220.701 0.0539853 1.69314 0
M  V30 2334 O 221.907 0.213469 1.7873 0
M  V30 2335 H 218.282 0.35117 0.664969 0
M  V30 2336 H 220.253 2.08982 2.13001 0
M  V30 2337 C 219.002 0.826066 3.37745 0
M  V30 2338 H 218.325 1.65164 3.64089 0
M  V30 2339 H 219.765 0.758559 4.17159 0
M  V30 2340 C 218.224 -0.470541 3.33598 0
M  V30 2341 O 218.754 -1.49792 3.72727 0
M  V30 2342 N 216.96 -0.474812 2.86695 0
M  V30 2343 H 216.507 0.361692 2.55048 0
M  V30 2344 H 216.465 -1.34236 2.84303 0
M  V30 2345 N 220.237 -1.11381 1.11499 0
M  V30 2346 C 221.462 -1.87475 0.887019 0
M  V30 2347 C 221.887 -1.79639 -0.557796 0
M  V30 2348 O 221.245 -1.15924 -1.39396 0
M  V30 2349 C 221.293 -3.34213 1.35403 0
M  V30 2350 O 220.397 -4.0903 0.526146 0
M  V30 2351 H 219.738 -0.582099 0.319463 0
M  V30 2352 H 222.268 -1.40785 1.48461 0
M  V30 2353 H 222.278 -3.8506 1.34881 0
M  V30 2354 H 220.953 -3.39232 2.40612 0
M  V30 2355 H 219.53 -3.68082 0.597522 0
M  V30 2356 N 221.715 -0.905404 -1.28997 0
M  V30 2357 C 222.665 -0.358713 -2.25161 0
M  V30 2358 C 223.649 0.524449 -1.52113 0
M  V30 2359 O 224.841 0.365534 -1.73184 0
M  V30 2360 C 221.97 0.407609 -3.40872 0
M  V30 2361 C 221.056 -0.490797 -4.21251 0
M  V30 2362 N 221.447 -1.60061 -4.79806 0
M  V30 2363 C 219.745 -0.289636 -4.45059 0
M  V30 2364 C 220.446 -2.15757 -5.40207 0
M  V30 2365 N 219.422 -1.44988 -5.23908 0
M  V30 2366 H 223.224 -1.20642 -2.67998 0
M  V30 2367 H 220.738 -0.757103 -1.43672 0
M  V30 2368 H 222.735 0.816046 -4.08835 0
M  V30 2369 H 221.395 1.25251 -2.9957 0
M  V30 2370 H 222.406 -1.98329 -4.7842 0
M  V30 2371 H 219.083 0.51643 -4.14294 0
M  V30 2372 H 220.473 -3.09069 -5.96595 0
M  V30 2373 N 223.193 1.4272 -0.668489 0
M  V30 2374 C 224.441 2.01226 -0.187769 0
M  V30 2375 C 224.762 1.53092 1.2078 0
M  V30 2376 O 224.032 0.74993 1.80977 0
M  V30 2377 H 222.612 0.744041 -0.0664272 0
M  V30 2378 H 225.274 1.74723 -0.863583 0
M  V30 2379 H 224.37 3.11556 -0.184166 0
M  V30 2380 N 224.671 0.411399 1.52136 0
M  V30 2381 C 225.601 -0.404015 2.29978 0
M  V30 2382 C 226.582 -1.04412 1.34284 0
M  V30 2383 O 227.767 -1.0527 1.63192 0
M  V30 2384 C 224.897 -1.5197 3.12286 0
M  V30 2385 C 223.851 -1.00448 4.16046 0
M  V30 2386 C 223.177 -2.21393 4.86712 0
M  V30 2387 C 224.477 -0.0569336 5.22269 0
M  V30 2388 H 226.171 0.245529 2.98392 0
M  V30 2389 H 223.717 0.119525 1.43503 0
M  V30 2390 H 225.67 -2.09715 3.6551 0
M  V30 2391 H 224.394 -2.19716 2.41646 0
M  V30 2392 H 223.053 -0.449421 3.63835 0
M  V30 2393 H 222.701 -2.87699 4.12599 0
M  V30 2394 H 222.401 -1.87571 5.56858 0
M  V30 2395 H 223.925 -2.7974 5.4275 0
M  V30 2396 H 225.339 -0.54325 5.7072 0
M  V30 2397 H 223.736 0.192594 5.99791 0
M  V30 2398 H 224.806 0.887663 4.76706 0
M  V30 2399 N 226.149 -1.5696 0.141893 0
M  V30 2400 C 227.374 -2.00754 -0.520838 0
M  V30 2401 C 227.799 -1.0213 -1.57959 0
M  V30 2402 O 227.157 0.00371324 -1.813 0
M  V30 2403 C 227.205 -3.43318 -1.10294 0
M  V30 2404 O 226.309 -3.47679 -2.21795 0
M  V30 2405 H 225.65 -0.651564 -0.127908 0
M  V30 2406 H 228.18 -2.03221 0.23712 0
M  V30 2407 H 228.19 -3.82012 -1.43287 0
M  V30 2408 H 226.865 -4.14608 -0.327574 0
M  V30 2409 H 225.442 -3.20824 -1.9007 0
M  V30 2410 N 227.627 0.131896 -1.57047 0
M  V30 2411 C 228.873 0.843179 -1.84441 0
M  V30 2412 C 229.206 1.80129 -0.725749 0
M  V30 2413 O 228.481 1.92624 0.269469 0
M  V30 2414 C 228.764 1.60442 -3.22382 0
M  V30 2415 C 228.617 0.666782 -4.4483 0
M  V30 2416 C 229.936 2.56354 -3.5773 0
M  V30 2417 H 227.055 0.305081 -0.670891 0
M  V30 2418 H 229.697 0.107839 -1.89694 0
M  V30 2419 H 227.847 2.23128 -3.18035 0
M  V30 2420 H 229.519 0.0497646 -4.61273 0
M  V30 2421 H 227.762 -0.022609 -4.33794 0
M  V30 2422 H 228.433 1.23579 -5.37989 0
M  V30 2423 H 230.909 2.0378 -3.62785 0
M  V30 2424 H 229.785 3.06657 -4.5525 0
M  V30 2425 H 230.046 3.38419 -2.84473 0
M  V30 2426 N 229.106 1.52395 0.401703 0
M  V30 2427 C 230.352 1.67065 1.14966 0
M  V30 2428 C 230.685 0.403052 1.89971 0
M  V30 2429 O 229.96 -0.598774 1.85054 0
M  V30 2430 C 230.243 2.8975 2.13815 0
M  V30 2431 C 230.096 4.26578 1.42658 0
M  V30 2432 C 231.415 3.07965 3.14397 0
M  V30 2433 H 228.534 0.607968 0.416587 0
M  V30 2434 H 231.176 1.84965 0.434511 0
M  V30 2435 H 229.326 2.74619 2.74803 0
M  V30 2436 H 230.998 4.53451 0.847329 0
M  V30 2437 H 229.241 4.27639 0.72849 0
M  V30 2438 H 229.912 5.08483 2.14823 0
M  V30 2439 H 232.388 3.22043 2.63491 0
M  V30 2440 H 231.264 3.95308 3.80819 0
M  V30 2441 H 231.525 2.21611 3.82545 0
M  V30 2442 N 230.584 -0.659388 1.43143 0
M  V30 2443 C 231.494 -1.80167 1.50256 0
M  V30 2444 C 232.51 -1.69571 0.390106 0
M  V30 2445 O 233.686 -1.90849 0.643319 0
M  V30 2446 C 230.751 -3.16409 1.41725 0
M  V30 2447 C 229.812 -3.38848 2.63591 0
M  V30 2448 C 229.045 -4.68591 2.55458 0
M  V30 2449 O 229.268 -5.47532 1.59891 0
M  V30 2450 O 228.202 -4.92614 3.45854 0
M  V30 2451 H 232.028 -1.77121 2.46702 0
M  V30 2452 H 229.613 -0.817092 1.25076 0
M  V30 2453 H 231.495 -3.9768 1.39387 0
M  V30 2454 H 230.17 -3.20059 0.484118 0
M  V30 2455 H 229.077 -2.57366 2.71502 0
M  V30 2456 H 230.41 -3.4004 3.55856 0
M  V30 2457 N 232.062 -1.29571 -0.897171 0
M  V30 2458 C 233.012 -1.11539 -1.98855 0
M  V30 2459 C 233.996 -0.0340716 -1.60864 0
M  V30 2460 O 235.188 -0.256062 -1.75138 0
M  V30 2461 C 232.317 -0.796603 -3.3393 0
M  V30 2462 C 231.403 -1.91758 -3.78272 0
M  V30 2463 N 231.794 -3.16143 -3.94826 0
M  V30 2464 C 230.092 -1.81119 -4.07568 0
M  V30 2465 C 230.793 -3.89293 -4.32233 0
M  V30 2466 N 229.769 -3.17255 -4.41419 0
M  V30 2467 H 233.571 -2.05894 -2.09726 0
M  V30 2468 H 231.085 -1.20732 -1.08616 0
M  V30 2469 H 233.082 -0.648459 -4.11826 0
M  V30 2470 H 231.742 0.139003 -3.24402 0
M  V30 2471 H 232.753 -3.5157 -3.80288 0
M  V30 2472 H 229.43 -0.948461 -4.06584 0
M  V30 2473 H 230.82 -4.9635 -4.52865 0
M  V30 2474 N 233.54 1.10788 -1.12088 0
M  V30 2475 C 234.956 1.34691 -0.856186 0
M  V30 2476 C 235.156 1.94791 0.515615 0
M  V30 2477 O 234.212 2.18524 1.26505 0
M  V30 2478 C 235.525 2.27208 -1.9697 0
M  V30 2479 C 237.073 2.40755 -2.00016 0
M  V30 2480 C 237.548 3.36598 -3.1059 0
M  V30 2481 N 239.039 3.44164 -3.10008 0
M  V30 2482 C 239.774 4.18284 -3.92206 0
M  V30 2483 N 239.27 4.95322 -4.84384 0
M  V30 2484 N 241.063 4.13865 -3.80357 0
M  V30 2485 H 233.214 0.70144 -2.00483 0
M  V30 2486 H 235.477 0.371405 -0.872217 0
M  V30 2487 H 235.183 1.90251 -2.958 0
M  V30 2488 H 235.057 3.27485 -1.87172 0
M  V30 2489 H 237.444 2.76982 -1.01808 0
M  V30 2490 H 237.525 1.40305 -2.13888 0
M  V30 2491 H 237.169 3.01096 -4.09028 0
M  V30 2492 H 237.099 4.36918 -2.93956 0
M  V30 2493 H 239.59 2.8922 -2.43228 0
M  V30 2494 H 239.903 5.49267 -5.43623 0
M  V30 2495 H 238.248 4.94459 -4.884 0
M  V30 2496 H 241.439 3.52773 -3.07683 0
M  V30 2497 H 241.612 4.71372 -4.44649 0
M  V30 2498 N 235.018 0.912232 1.28515 0
M  V30 2499 C 235.948 0.416403 2.29757 0
M  V30 2500 C 236.929 -0.515194 1.6211 0
M  V30 2501 O 238.114 -0.423253 1.89532 0
M  V30 2502 C 235.244 -0.34572 3.45575 0
M  V30 2503 C 234.198 0.496599 4.25109 0
M  V30 2504 C 233.524 -0.393771 5.33248 0
M  V30 2505 C 234.824 1.75307 4.92001 0
M  V30 2506 H 236.518 1.26249 2.7148 0
M  V30 2507 H 234.064 0.608515 1.30511 0
M  V30 2508 H 236.017 -0.703422 4.15488 0
M  V30 2509 H 234.741 -1.2257 3.02728 0
M  V30 2510 H 233.4 0.8368 3.56922 0
M  V30 2511 H 233.048 -1.27225 4.86644 0
M  V30 2512 H 232.748 0.166209 5.87365 0
M  V30 2513 H 234.272 -0.747389 6.06009 0
M  V30 2514 H 235.686 1.46437 5.54283 0
M  V30 2515 H 234.083 2.25534 5.56106 0
M  V30 2516 H 235.153 2.48176 4.16577 0
M  V30 2517 N 236.496 -1.42363 0.676048 0
M  V30 2518 C 237.912 -1.55811 0.345718 0
M  V30 2519 C 238.112 -1.65544 -1.14879 0
M  V30 2520 O 237.168 -1.62306 -1.93424 0
M  V30 2521 C 238.481 -2.80746 1.07713 0
M  V30 2522 C 240.029 -2.9452 1.05958 0
M  V30 2523 C 240.504 -4.22318 1.77233 0
M  V30 2524 N 241.995 -4.29233 1.74108 0
M  V30 2525 C 242.73 -5.26935 2.26113 0
M  V30 2526 N 242.226 -6.30783 2.86505 0
M  V30 2527 N 244.019 -5.18741 2.1648 0
M  V30 2528 H 236.17 -1.34289 1.6456 0
M  V30 2529 H 238.433 -0.646506 0.69335 0
M  V30 2530 H 238.139 -2.79696 2.13221 0
M  V30 2531 H 238.013 -3.71676 0.64316 0
M  V30 2532 H 240.4 -2.95097 0.0128255 0
M  V30 2533 H 240.481 -2.04817 1.53244 0
M  V30 2534 H 240.125 -4.22502 2.81877 0
M  V30 2535 H 240.055 -5.10958 1.27396 0
M  V30 2536 H 242.546 -3.54814 1.30059 0
M  V30 2537 H 242.859 -7.01691 3.23805 0
M  V30 2538 H 241.204 -6.31341 2.90575 0
M  V30 2539 H 244.395 -4.36533 1.68987 0
M  V30 2540 H 244.568 -5.94721 2.57316 0
M  V30 2541 N 237.974 -0.419461 -1.51915 0
M  V30 2542 C 238.937 0.389116 -2.25873 0
M  V30 2543 C 239.937 0.964924 -1.28631 0
M  V30 2544 O 241.127 0.842179 -1.52489 0
M  V30 2545 C 238.259 1.54874 -3.03689 0
M  V30 2546 H 239.452 -0.258799 -2.98781 0
M  V30 2547 H 237.005 -0.172209 -1.55348 0
M  V30 2548 H 237.74 2.23323 -2.35154 0
M  V30 2549 H 237.525 1.14223 -3.75094 0
M  V30 2550 H 239.015 2.12046 -3.59759 0
M  V30 2551 N 239.452 1.56882 -0.150215 0
M  V30 2552 C 240.868 1.58263 0.20617 0
M  V30 2553 C 241.068 1.16464 1.64434 0
M  V30 2554 O 240.124 0.866422 2.3717 0
M  V30 2555 C 241.437 3.00649 -0.0555025 0
M  V30 2556 C 242.985 3.12999 0.00795388 0
M  V30 2557 C 243.46 4.5744 -0.226429 0
M  V30 2558 N 244.951 4.62875 -0.173469 0
M  V30 2559 C 245.686 5.72454 -0.329288 0
M  V30 2560 N 245.182 6.90669 -0.543005 0
M  V30 2561 N 246.975 5.61467 -0.266666 0
M  V30 2562 H 239.126 1.82345 -1.08922 0
M  V30 2563 H 241.389 0.844149 -0.431413 0
M  V30 2564 H 241.095 3.3563 -1.05096 0
M  V30 2565 H 240.969 3.71337 0.66246 0
M  V30 2566 H 243.356 2.77857 0.993966 0
M  V30 2567 H 243.437 2.4479 -0.742388 0
M  V30 2568 H 243.081 4.93287 -1.20956 0
M  V30 2569 H 243.011 5.2378 0.544274 0
M  V30 2570 H 245.502 3.77898 -0.0130709 0
M  V30 2571 H 245.815 7.70045 -0.651922 0
M  V30 2572 H 244.16 6.92581 -0.579366 0
M  V30 2573 H 247.351 4.67992 -0.100441 0
M  V30 2574 H 247.524 6.46816 -0.391535 0
M  V30 2575 N 240.93 -0.123565 1.57115 0
M  V30 2576 C 241.862 -1.17739 1.96648 0
M  V30 2577 C 242.875 -1.37906 0.865201 0
M  V30 2578 O 244.064 -1.37062 1.14351 0
M  V30 2579 C 241.164 -2.53821 2.24562 0
M  V30 2580 C 240.337 -2.54317 3.55867 0
M  V30 2581 C 239.396 -3.72112 3.72047 0
M  V30 2582 O 238.422 -3.55907 4.44206 0
M  V30 2583 N 239.624 -4.90498 3.10471 0
M  V30 2584 H 242.389 -0.841147 2.87654 0
M  V30 2585 H 239.95 -0.31289 1.58848 0
M  V30 2586 H 241.942 -3.31175 2.32606 0
M  V30 2587 H 240.512 -2.79645 1.39705 0
M  V30 2588 H 239.732 -1.62711 3.59053 0
M  V30 2589 H 241.02 -2.51701 4.42181 0
M  V30 2590 H 240.418 -5.06567 2.51806 0
M  V30 2591 H 238.975 -5.65544 3.24043 0
M  V30 2592 N 242.408 -1.52605 -0.393616 0
M  V30 2593 C 243.34 -1.73303 -1.49995 0
M  V30 2594 C 244.353 -0.613473 -1.50799 0
M  V30 2595 O 245.542 -0.889049 -1.54784 0
M  V30 2596 C 242.642 -1.77245 -2.88855 0
M  V30 2597 C 241.815 -3.06483 -3.12069 0
M  V30 2598 C 240.874 -3.02033 -4.30886 0
M  V30 2599 O 239.9 -3.75907 -4.27414 0
M  V30 2600 N 241.102 -2.20897 -5.36828 0
M  V30 2601 H 243.867 -2.68756 -1.32629 0
M  V30 2602 H 241.428 -1.51036 -0.583083 0
M  V30 2603 H 243.42 -1.7178 -3.66434 0
M  V30 2604 H 241.99 -0.891993 -2.99603 0
M  V30 2605 H 241.21 -3.25474 -2.22396 0
M  V30 2606 H 242.498 -3.91947 -3.2443 0
M  V30 2607 H 241.896 -1.60336 -5.42502 0
M  V30 2608 H 240.453 -2.21275 -6.13091 0
M  V30 2609 N 243.887 0.651787 -1.4349 0
M  V30 2610 C 244.834 1.76462 -1.4876 0
M  V30 2611 C 245.804 1.62641 -0.337189 0
M  V30 2612 O 246.989 1.82864 -0.544544 0
M  V30 2613 C 244.129 3.14623 -1.41796 0
M  V30 2614 C 243.242 3.39568 -2.67053 0
M  V30 2615 C 242.377 4.67585 -2.52068 0
M  V30 2616 C 241.416 4.85639 -3.72587 0
M  V30 2617 N 240.553 6.04915 -3.56402 0
M  V30 2618 H 245.393 1.71293 -2.43849 0
M  V30 2619 H 242.93 0.835889 -1.21043 0
M  V30 2620 H 244.888 3.94496 -1.35753 0
M  V30 2621 H 243.518 3.18859 -0.50288 0
M  V30 2622 H 242.57 2.53783 -2.8337 0
M  V30 2623 H 243.882 3.48795 -3.56572 0
M  V30 2624 H 243.036 5.55586 -2.4374 0
M  V30 2625 H 241.775 4.60681 -1.60075 0
M  V30 2626 H 240.78 3.96073 -3.81321 0
M  V30 2627 H 242.005 4.94372 -4.65589 0
M  V30 2628 H 239.951 5.9914 -2.67146 0
M  V30 2629 H 239.868 6.15106 -4.39524 0
M  V30 2630 H 241.136 6.95533 -3.51929 0
M  V30 2631 N 245.365 1.30045 0.890287 0
M  V30 2632 C 246.297 1.11786 2.00091 0
M  V30 2633 C 247.31 0.0626307 1.62679 0
M  V30 2634 O 248.499 0.308112 1.75821 0
M  V30 2635 C 245.599 0.681527 3.31977 0
M  V30 2636 C 244.772 1.81735 3.97858 0
M  V30 2637 C 243.831 1.37045 5.08041 0
M  V30 2638 O 242.857 2.07677 5.29961 0
M  V30 2639 N 244.059 0.246525 5.79976 0
M  V30 2640 H 246.824 2.07441 2.16306 0
M  V30 2641 H 244.385 1.2211 1.06305 0
M  V30 2642 H 246.377 0.365675 4.03045 0
M  V30 2643 H 244.947 -0.182828 3.12065 0
M  V30 2644 H 244.167 2.30159 3.20032 0
M  V30 2645 H 245.455 2.57865 4.38615 0
M  V30 2646 H 244.853 -0.34215 5.64664 0
M  V30 2647 H 243.41 -0.00990438 6.51799 0
M  V30 2648 N 246.843 -1.10192 1.12674 0
M  V30 2649 C 247.806 -2.14786 0.799979 0
M  V30 2650 C 248.806 -1.59711 -0.18685 0
M  V30 2651 O 249.996 -1.74156 0.0392558 0
M  V30 2652 C 247.128 -3.40374 0.189228 0
M  V30 2653 H 248.321 -2.45203 1.72671 0
M  V30 2654 H 245.874 -1.25597 0.930326 0
M  V30 2655 H 246.609 -3.15577 -0.747107 0
M  V30 2656 H 246.394 -3.81637 0.899766 0
M  V30 2657 H 247.884 -4.17594 -0.0228143 0
M  V30 2658 N 248.321 -0.919034 -1.28029 0
M  V30 2659 C 249.268 -0.410005 -2.27129 0
M  V30 2660 C 250.238 0.518405 -1.57803 0
M  V30 2661 O 251.423 0.439451 -1.8567 0
M  V30 2662 C 248.563 0.339054 -3.4343 0
M  V30 2663 C 247.676 -0.622468 -4.27492 0
M  V30 2664 C 246.811 0.145567 -5.31001 0
M  V30 2665 C 245.85 -0.809226 -6.06727 0
M  V30 2666 N 244.987 -0.0743728 -7.02061 0
M  V30 2667 H 249.827 -1.26011 -2.70047 0
M  V30 2668 H 247.364 -0.632663 -1.328 0
M  V30 2669 H 249.322 0.789586 -4.0966 0
M  V30 2670 H 247.952 1.15346 -3.01488 0
M  V30 2671 H 247.004 -1.19153 -3.61257 0
M  V30 2672 H 248.316 -1.35252 -4.80113 0
M  V30 2673 H 247.47 0.656417 -6.03139 0
M  V30 2674 H 246.209 0.908643 -4.79161 0
M  V30 2675 H 245.214 -1.3314 -5.33436 0
M  V30 2676 H 246.439 -1.57194 -6.60656 0
M  V30 2677 H 244.385 0.670616 -6.52563 0
M  V30 2678 H 244.302 -0.744157 -7.52329 0
M  V30 2679 H 245.57 0.416109 -7.78389 0
M  V30 2680 N 249.799 1.42003 -0.683588 0
M  V30 2681 C 250.729 2.33487 -0.024866 0
M  V30 2682 C 251.71 1.51163 0.779975 0
M  V30 2683 O 252.895 1.79739 0.735362 0
M  V30 2684 C 250.025 3.3487 0.920836 0
M  V30 2685 C 248.979 4.27414 0.223958 0
M  V30 2686 C 248.305 5.19074 1.2832 0
M  V30 2687 C 249.605 5.14445 -0.90242 0
M  V30 2688 H 251.299 2.88819 -0.788921 0
M  V30 2689 H 248.845 1.38873 -0.38083 0
M  V30 2690 H 250.798 3.97787 1.39081 0
M  V30 2691 H 249.522 2.77861 1.71642 0
M  V30 2692 H 248.181 3.65904 -0.225864 0
M  V30 2693 H 247.829 4.58387 2.071 0
M  V30 2694 H 247.529 5.81822 0.821995 0
M  V30 2695 H 249.053 5.84867 1.75392 0
M  V30 2696 H 250.467 5.70998 -0.513272 0
M  V30 2697 H 248.864 5.86072 -1.28997 0
M  V30 2698 H 249.934 4.52322 -1.74737 0
M  V30 2699 N 251.277 0.427512 1.51691 0
M  V30 2700 C 252.505 -0.141191 2.06418 0
M  V30 2701 C 252.92 -1.37303 1.29589 0
M  V30 2702 O 252.277 -1.79059 0.352732 0
M  V30 2703 C 252.328 -0.473266 3.58389 0
M  V30 2704 O 252.049 0.709673 4.32314 0
M  V30 2705 C 253.55 -1.09371 4.29596 0
M  V30 2706 H 250.77 -0.0122747 0.670888 0
M  V30 2707 H 253.314 0.603764 1.95384 0
M  V30 2708 H 251.469 -1.16812 3.69369 0
M  V30 2709 H 251.883 0.42807 5.2275 0
M  V30 2710 H 253.357 -1.27613 5.37046 0
M  V30 2711 H 253.834 -2.072 3.87253 0
M  V30 2712 H 254.44 -0.43853 4.23033 0
M  V30 2713 N 252.755 -1.56801 0.158532 0
M  V30 2714 C 253.665 -2.20916 -0.789518 0
M  V30 2715 C 254.681 -1.1969 -1.26294 0
M  V30 2716 O 255.857 -1.52308 -1.31773 0
M  V30 2717 C 252.922 -2.82727 -2.00665 0
M  V30 2718 C 251.983 -3.99114 -1.58134 0
M  V30 2719 C 251.216 -4.57968 -2.74045 0
M  V30 2720 O 251.439 -4.15704 -3.90572 0
M  V30 2721 O 250.373 -5.48047 -2.48855 0
M  V30 2722 H 254.199 -3.02464 -0.273681 0
M  V30 2723 H 251.784 -1.4924 -0.0690548 0
M  V30 2724 H 253.666 -3.21968 -2.71872 0
M  V30 2725 H 252.341 -2.04184 -2.51179 0
M  V30 2726 H 251.248 -3.64567 -0.839155 0
M  V30 2727 H 252.581 -4.79212 -1.12325 0
M  V30 2728 N 254.233 0.115231 -1.57178 0
M  V30 2729 C 255.51 0.852873 -1.76027 0
M  V30 2730 C 255.89 1.97892 -0.73498 0
M  V30 2731 O 255.238 2.27232 0.24036 0
M  V30 2732 C 255.448 1.36608 -3.21153 0
M  V30 2733 C 256.796 1.81692 -3.83762 0
M  V30 2734 O 257.82 1.46278 -3.24779 0
M  V30 2735 O 256.679 2.47104 -4.87444 0
M  V30 2736 H 253.773 0.405296 -0.720877 0
M  V30 2737 H 256.319 0.0986785 -1.69413 0
M  V30 2738 H 255.091 0.558357 -3.87296 0
M  V30 2739 H 254.714 2.18287 -3.3232 0
M  V30 2740 N 255.711 1.52812 0.385517 0
M  V30 2741 C 256.959 1.67694 1.12797 0
M  V30 2742 C 257.28 0.421115 1.90399 0
M  V30 2743 O 256.55 -0.564551 1.87589 0
M  V30 2744 H 255.13 0.618155 0.419396 0
M  V30 2745 H 257.792 1.89938 0.436972 0
M  V30 2746 H 256.888 2.52896 1.82894 0
M  V30 2747 N 257.189 -0.644168 1.43834 0
M  V30 2748 C 258.119 -1.76814 1.52509 0
M  V30 2749 C 259.1 -1.65823 0.379052 0
M  V30 2750 O 260.285 -1.84781 0.597466 0
M  V30 2751 C 257.415 -3.15288 1.4564 0
M  V30 2752 C 256.369 -3.41053 2.58586 0
M  V30 2753 C 255.695 -4.79421 2.36769 0
M  V30 2754 C 256.995 -3.34902 4.00797 0
M  V30 2755 H 258.689 -1.69812 2.46586 0
M  V30 2756 H 256.235 -0.815542 1.1868 0
M  V30 2757 H 258.188 -3.93681 1.50311 0
M  V30 2758 H 256.912 -3.23043 0.480725 0
M  V30 2759 H 255.571 -2.65035 2.53282 0
M  V30 2760 H 255.219 -4.83863 1.37424 0
M  V30 2761 H 254.919 -4.9762 3.12487 0
M  V30 2762 H 256.443 -5.6006 2.43238 0
M  V30 2763 H 257.857 -4.03218 4.07539 0
M  V30 2764 H 256.254 -3.64637 4.76613 0
M  V30 2765 H 257.324 -2.32928 4.25291 0
M  V30 2766 N 258.668 -1.30515 -0.883378 0
M  V30 2767 C 260.079 -1.17509 -1.45081 0
M  V30 2768 C 260.43 0.223605 -1.94922 0
M  V30 2769 O 259.555 1.12041 -1.85137 0
M  V30 2770 C 260.15 -2.12715 -2.63701 0
M  V30 2771 C 258.709 -2.03682 -3.16529 0
M  V30 2772 C 257.856 -2.02706 -1.89224 0
M  V30 2773 H 260.807 -1.42762 -0.693165 0
M  V30 2774 H 260.828 -1.70891 -3.39965 0
M  V30 2775 H 260.34 -3.14505 -2.27395 0
M  V30 2776 H 258.441 -1.05039 -3.57488 0
M  V30 2777 H 258.554 -2.92146 -3.7972 0
M  V30 2778 H 256.918 -1.4753 -2.07622 0
M  V30 2779 H 257.701 -3.06229 -1.55174 0
M  V30 2780 N 260.146 1.09593 -1.13257 0
M  V30 2781 C 261.076 2.18214 -0.830946 0
M  V30 2782 C 262.057 1.68812 0.208966 0
M  V30 2783 O 263.242 1.9408 0.0682666 0
M  V30 2784 C 260.372 3.46051 -0.294296 0
M  V30 2785 C 259.326 4.08778 -1.26826 0
M  V30 2786 C 258.652 5.31419 -0.591449 0
M  V30 2787 C 259.952 4.51476 -2.62615 0
M  V30 2788 H 261.646 2.43703 -1.73923 0
M  V30 2789 H 259.192 1.17128 -0.837675 0
M  V30 2790 H 261.145 4.2134 -0.0709606 0
M  V30 2791 H 259.869 3.20079 0.649366 0
M  V30 2792 H 258.528 3.35505 -1.47756 0
M  V30 2793 H 258.176 5.01727 0.357633 0
M  V30 2794 H 257.876 5.74341 -1.24123 0
M  V30 2795 H 259.4 6.09433 -0.377355 0
M  V30 2796 H 260.814 5.17999 -2.45663 0
M  V30 2797 H 259.211 5.05277 -3.23752 0
M  V30 2798 H 260.281 3.63962 -3.20406 0
M  V30 2799 N 261.624 0.925811 1.2754 0
M  V30 2800 C 262.872 0.564138 1.94067 0
M  V30 2801 C 263.193 -0.897188 1.73134 0
M  V30 2802 O 262.463 -1.63573 1.07799 0
M  V30 2803 H 261.043 0.205645 0.718136 0
M  V30 2804 H 263.705 1.1778 1.55287 0
M  V30 2805 H 262.801 0.76881 3.02483 0
M  V30 2806 N 263.102 -1.41638 0.69111 0
M  V30 2807 C 264.348 -2.01598 0.220519 0
M  V30 2808 C 264.681 -1.54594 -1.17535 0
M  V30 2809 O 263.956 -0.755177 -1.79241 0
M  V30 2810 C 264.239 -3.59062 0.273243 0
M  V30 2811 C 264.092 -4.16203 1.70573 0
M  V30 2812 C 265.411 -4.38546 -0.369457 0
M  V30 2813 H 262.53 -0.732468 0.0816045 0
M  V30 2814 H 265.172 -1.68445 0.878986 0
M  V30 2815 H 263.322 -3.87435 -0.287411 0
M  V30 2816 H 264.994 -3.98722 2.31989 0
M  V30 2817 H 263.237 -3.71414 2.2413 0
M  V30 2818 H 263.908 -5.25358 1.69419 0
M  V30 2819 H 266.384 -4.1596 0.107977 0
M  V30 2820 H 265.26 -5.48069 -0.302002 0
M  V30 2821 H 265.521 -4.17662 -1.44951 0
M  V30 2822 N 264.58 -0.43555 -1.51462 0
M  V30 2823 C 265.528 0.391205 -2.29287 0
M  V30 2824 C 266.522 1.02247 -1.35062 0
M  V30 2825 O 267.728 0.957646 -1.52411 0
M  V30 2826 H 264.103 0.144968 -0.737895 0
M  V30 2827 H 266.074 -0.286051 -2.97026 0
M  V30 2828 C 264.823 1.48096 -3.14583 0
M  V30 2829 H 264.146 1.00457 -3.86973 0
M  V30 2830 H 265.586 2.03273 -3.72097 0
M  V30 2831 C 264.045 2.46321 -2.29843 0
M  V30 2832 O 264.575 3.50815 -1.95682 0
M  V30 2833 N 262.781 2.17166 -1.931 0
M  V30 2834 H 262.328 1.32218 -2.21079 0
M  V30 2835 H 262.286 2.83127 -1.36698 0
M  V30 2836 N 266.058 1.56714 -0.166846 0
M  V30 2837 C 266.988 2.20754 0.760913 0
M  V30 2838 C 267.969 1.16178 1.24244 0
M  V30 2839 O 269.154 1.44592 1.29641 0
M  V30 2840 C 266.284 2.84478 1.99223 0
M  V30 2841 C 265.238 3.95053 1.64672 0
M  V30 2842 C 264.564 4.45805 2.95232 0
M  V30 2843 C 265.864 5.14865 0.878155 0
M  V30 2844 H 267.558 2.98537 0.22713 0
M  V30 2845 H 265.104 1.43596 0.107805 0
M  V30 2846 H 267.057 3.27951 2.64624 0
M  V30 2847 H 265.781 2.04056 2.55007 0
M  V30 2848 H 264.44 3.52228 1.01641 0
M  V30 2849 H 264.088 3.62181 3.49047 0
M  V30 2850 H 263.788 5.204 2.7287 0
M  V30 2851 H 265.312 4.91962 3.6167 0
M  V30 2852 H 266.726 5.55059 1.43466 0
M  V30 2853 H 265.123 5.95348 0.753738 0
M  V30 2854 H 266.193 4.84735 -0.126377 0
M  V30 2855 N 267.536 -0.106894 1.57237 0
M  V30 2856 C 268.784 -0.810921 1.85117 0
M  V30 2857 C 269.105 -1.7984 0.753827 0
M  V30 2858 O 268.375 -1.94649 -0.221056 0
M  V30 2859 H 266.955 -0.302466 0.683025 0
M  V30 2860 H 269.617 -0.0913324 1.94686 0
M  V30 2861 H 268.713 -1.34875 2.81452 0
M  V30 2862 N 269.014 -1.53014 -0.377408 0
M  V30 2863 C 269.961 -1.78616 -1.46168 0
M  V30 2864 C 270.931 -0.629917 -1.53692 0
M  V30 2865 O 272.116 -0.870861 -1.69766 0
M  V30 2866 C 269.256 -1.97123 -2.8326 0
M  V30 2867 C 268.369 -3.24831 -2.84796 0
M  V30 2868 C 267.504 -3.33591 -4.13389 0
M  V30 2869 C 266.543 -4.55377 -4.09021 0
M  V30 2870 N 265.68 -4.61355 -5.29241 0
M  V30 2871 H 270.52 -2.71142 -1.23637 0
M  V30 2872 H 268.057 -1.34326 -0.599577 0
M  V30 2873 H 270.015 -2.05839 -3.62886 0
M  V30 2874 H 268.645 -1.07946 -3.04216 0
M  V30 2875 H 267.697 -3.25128 -1.97474 0
M  V30 2876 H 269.009 -4.14523 -2.77439 0
M  V30 2877 H 268.163 -3.41554 -5.01424 0
M  V30 2878 H 266.902 -2.41894 -4.23484 0
M  V30 2879 H 265.907 -4.47527 -3.19373 0
M  V30 2880 H 267.132 -5.48402 -4.00539 0
M  V30 2881 H 265.078 -3.72554 -5.39944 0
M  V30 2882 H 264.995 -5.44935 -5.24006 0
M  V30 2883 H 266.263 -4.73586 -6.19141 0
M  V30 2884 N 270.492 0.636531 -1.44174 0
M  V30 2885 C 271.44 1.76995 -1.50915 0
M  V30 2886 C 272.434 1.65053 -0.381295 0
M  V30 2887 O 273.64 1.71197 -0.55601 0
M  V30 2888 H 270.015 0.584247 -0.473455 0
M  V30 2889 H 271.986 1.68432 -2.4632 0
M  V30 2890 C 270.735 3.15314 -1.46534 0
M  V30 2891 H 270.058 3.25149 -2.32633 0
M  V30 2892 H 271.498 3.9453 -1.55312 0
M  V30 2893 C 269.957 3.3639 -0.185305 0
M  V30 2894 O 270.487 3.94699 0.746688 0
M  V30 2895 N 268.693 2.9046 -0.0901606 0
M  V30 2896 H 268.24 2.43193 -0.849416 0
M  V30 2897 H 268.198 3.04937 0.765553 0
M  V30 2898 N 271.97 1.30982 0.876444 0
M  V30 2899 C 272.917 1.18085 1.98304 0
M  V30 2900 C 273.887 0.0682263 1.6596 0
M  V30 2901 O 275.072 0.239937 1.89285 0
M  V30 2902 C 272.212 0.887475 3.33493 0
M  V30 2903 C 271.325 2.08281 3.78475 0
M  V30 2904 C 270.46 1.72678 5.0235 0
M  V30 2905 C 269.499 2.88657 5.39762 0
M  V30 2906 N 268.636 2.53292 6.54819 0
M  V30 2907 H 273.476 2.1275 2.08666 0
M  V30 2908 H 271.013 1.05839 1.02159 0
M  V30 2909 H 272.971 0.697961 4.1132 0
M  V30 2910 H 271.601 -0.022315 3.22792 0
M  V30 2911 H 270.653 2.3833 2.96484 0
M  V30 2912 H 271.965 2.95108 4.02135 0
M  V30 2913 H 271.119 1.50151 5.87826 0
M  V30 2914 H 269.858 0.830327 4.8058 0
M  V30 2915 H 268.863 3.1184 4.52809 0
M  V30 2916 H 270.088 3.79002 5.63502 0
M  V30 2917 H 268.034 1.66163 6.34607 0
M  V30 2918 H 267.951 3.3365 6.7839 0
M  V30 2919 H 269.219 2.34143 7.43503 0
M  V30 2920 N 273.449 -1.08991 1.13837 0
M  V30 2921 C 274.677 -1.85011 0.926202 0
M  V30 2922 C 275.092 -1.8135 -0.525127 0
M  V30 2923 O 274.449 -1.21287 -1.36366 0
M  V30 2924 C 274.5 -3.32802 1.41155 0
M  V30 2925 O 274.221 -3.36444 2.80601 0
M  V30 2926 C 275.722 -4.25649 1.23847 0
M  V30 2927 H 272.942 -0.584249 0.32999 0
M  V30 2928 H 275.486 -1.37688 1.51202 0
M  V30 2929 H 273.641 -3.77536 0.868631 0
M  V30 2930 H 274.055 -4.28657 3.02248 0
M  V30 2931 H 275.529 -5.27485 1.62675 0
M  V30 2932 H 276.006 -4.38828 0.18065 0
M  V30 2933 H 276.612 -3.86735 1.76964 0
M  V30 2934 N 274.927 -0.932562 -1.27047 0
M  V30 2935 C 276.152 -0.591474 -1.98787 0
M  V30 2936 C 276.577 0.824601 -1.69062 0
M  V30 2937 O 275.935 1.5541 -0.933677 0
M  V30 2938 C 275.983 -0.829808 -3.50922 0
M  V30 2939 O 275.087 0.102266 -4.12273 0
M  V30 2940 H 274.428 -0.227185 -0.623926 0
M  V30 2941 H 276.958 -1.25314 -1.61733 0
M  V30 2942 H 276.968 -0.747292 -4.01098 0
M  V30 2943 H 275.643 -1.86201 -3.7189 0
M  V30 2944 H 274.22 -0.0305761 -3.72887 0
M  V30 2945 N 276.405 1.4127 -0.698611 0
M  V30 2946 C 277.651 2.01478 -0.231207 0
M  V30 2947 C 277.984 1.55215 1.16713 0
M  V30 2948 O 277.259 0.764672 1.78838 0
M  V30 2949 C 277.542 3.58912 -0.292281 0
M  V30 2950 C 277.395 4.15293 -1.72778 0
M  V30 2951 C 278.714 4.38736 0.346194 0
M  V30 2952 H 275.833 0.732025 -0.0854878 0
M  V30 2953 H 278.475 1.67977 -0.887906 0
M  V30 2954 H 276.625 3.87582 0.26686 0
M  V30 2955 H 278.297 3.97486 -2.341 0
M  V30 2956 H 276.54 3.7022 -2.26096 0
M  V30 2957 H 277.211 5.24452 -1.72202 0
M  V30 2958 H 279.687 4.15897 -0.130035 0
M  V30 2959 H 278.563 5.48221 0.272932 0
M  V30 2960 H 278.824 4.18425 1.42734 0
M  V30 2961 N 277.883 0.443576 1.51229 0
M  V30 2962 C 279.16 -0.181038 1.9476 0
M  V30 2963 C 279.54 -1.59523 1.38259 0
M  V30 2964 O 278.888 -2.2122 0.572198 0
M  V30 2965 C 279.098 -0.152422 3.48667 0
M  V30 2966 C 280.446 -0.354923 4.23114 0
M  V30 2967 O 281.47 -0.230257 3.55455 0
M  V30 2968 O 280.329 -0.603674 5.43156 0
M  V30 2969 H 277.423 -0.1266 0.817252 0
M  V30 2970 H 279.969 0.502004 1.62105 0
M  V30 2971 H 278.741 0.836022 3.82265 0
M  V30 2972 H 278.364 -0.878107 3.87782 0
M  V30 2973 N 279.361 -1.56624 0.175154 0
M  V30 2974 C 280.324 -2.16934 -0.739738 0
M  V30 2975 C 281.324 -1.11842 -1.15533 0
M  V30 2976 O 282.514 -1.37335 -1.07167 0
M  V30 2977 C 279.646 -2.75531 -2.00738 0
M  V30 2978 H 280.839 -2.99131 -0.214639 0
M  V30 2979 H 278.392 -1.56123 -0.0744197 0
M  V30 2980 H 279.127 -1.97078 -2.57548 0
M  V30 2981 H 278.912 -3.52444 -1.71831 0
M  V30 2982 H 280.402 -3.21904 -2.66021 0
M  V30 2983 N 280.839 0.0985539 -1.57292 0
M  V30 2984 C 281.802 1.10402 -2.00858 0
M  V30 2985 C 282.802 1.33146 -0.901593 0
M  V30 2986 O 283.992 1.29318 -1.16716 0
M  V30 2987 C 281.124 2.45394 -2.36632 0
M  V30 2988 H 282.317 0.729099 -2.90902 0
M  V30 2989 H 279.87 0.343495 -1.52479 0
M  V30 2990 H 280.605 2.87769 -1.49531 0
M  V30 2991 H 280.39 2.30235 -3.17387 0
M  V30 2992 H 281.88 3.17718 -2.71007 0
M  V30 2993 N 282.317 1.53212 0.369288 0
M  V30 2994 C 283.227 1.82342 1.47609 0
M  V30 2995 C 284.243 0.711532 1.58787 0
M  V30 2996 O 285.419 1.0012 1.74751 0
M  V30 2997 C 282.484 2.00393 2.8292 0
M  V30 2998 C 281.545 3.24297 2.81301 0
M  V30 2999 C 280.778 3.41478 4.10157 0
M  V30 3000 O 281.001 2.63033 5.06132 0
M  V30 3001 O 279.935 4.34817 4.16194 0
M  V30 3002 H 283.761 2.76366 1.25918 0
M  V30 3003 H 281.346 1.38547 0.559034 0
M  V30 3004 H 283.228 2.13859 3.63101 0
M  V30 3005 H 281.903 1.09559 3.04596 0
M  V30 3006 H 280.81 3.16257 1.99831 0
M  V30 3007 H 282.143 4.15041 2.64578 0
M  V30 3008 N 283.795 -0.628877 1.44509 0
M  V30 3009 C 285.072 -1.38733 1.37886 0
M  V30 3010 C 285.452 -2.11065 0.0387008 0
M  V30 3011 O 284.8 -2.06476 -0.97878 0
M  V30 3012 C 285.01 -2.35188 2.57852 0
M  V30 3013 C 286.358 -2.9845 3.02014 0
M  V30 3014 O 287.382 -2.45513 2.58073 0
M  V30 3015 O 286.241 -3.94487 3.78209 0
M  V30 3016 H 283.335 -0.621015 0.54614 0
M  V30 3017 H 285.881 -0.653744 1.56602 0
M  V30 3018 H 284.653 -1.80855 3.46998 0
M  V30 3019 H 284.276 -3.1596 2.4136 0
M  V30 3020 N 285.273 -1.31445 -0.869486 0
M  V30 3021 C 286.503 -1.23942 -1.65294 0
M  V30 3022 C 286.911 0.197561 -1.88166 0
M  V30 3023 O 286.254 1.14019 -1.44033 0
M  V30 3024 C 286.316 -1.91385 -3.04322 0
M  V30 3025 C 285.98 -3.40726 -3.04557 0
M  V30 3026 C 286.977 -4.36464 -2.82481 0
M  V30 3027 C 284.662 -3.82425 -3.25663 0
M  V30 3028 C 286.656 -5.71876 -2.8149 0
M  V30 3029 C 284.343 -5.1795 -3.243 0
M  V30 3030 C 285.341 -6.12486 -3.02241 0
M  V30 3031 O 285.029 -7.45534 -3.00724 0
M  V30 3032 H 284.761 -0.429459 -0.522054 0
M  V30 3033 H 287.315 -1.73873 -1.0935 0
M  V30 3034 H 285.545 -1.36004 -3.61994 0
M  V30 3035 H 287.234 -1.77791 -3.64891 0
M  V30 3036 H 288 -4.05576 -2.65956 0
M  V30 3037 H 283.879 -3.09274 -3.41863 0
M  V30 3038 H 287.423 -6.45638 -2.64191 0
M  V30 3039 H 283.32 -5.48473 -3.40365 0
M  V30 3040 H 284.088 -7.54713 -3.16782 0
M  V30 3041 N 286.751 1.08385 -1.14413 0
M  V30 3042 C 287.714 2.13486 -0.834048 0
M  V30 3043 C 288.714 1.59988 0.161418 0
M  V30 3044 O 289.904 1.74071 -0.0669575 0
M  V30 3045 C 287.036 3.4003 -0.243354 0
M  V30 3046 H 288.229 2.42425 -1.7655 0
M  V30 3047 H 285.782 1.24101 -0.950189 0
M  V30 3048 H 286.517 3.16726 0.696807 0
M  V30 3049 H 286.302 3.80157 -0.960367 0
M  V30 3050 H 287.792 4.17577 -0.0436242 0
M  V30 3051 N 288.23 0.939286 1.26551 0
M  V30 3052 C 289.14 0.453432 2.30176 0
M  V30 3053 C 290.156 -0.471649 1.67486 0
M  V30 3054 O 291.332 -0.35164 1.98306 0
M  V30 3055 C 288.397 -0.275326 3.45605 0
M  V30 3056 C 287.458 0.686084 4.23782 0
M  V30 3057 C 286.691 -0.00798994 5.33699 0
M  V30 3058 O 286.914 -1.22528 5.57085 0
M  V30 3059 O 285.848 0.669746 5.98162 0
M  V30 3060 H 289.674 1.31416 2.73795 0
M  V30 3061 H 287.259 0.705095 1.31715 0
M  V30 3062 H 289.141 -0.685911 4.1578 0
M  V30 3063 H 287.816 -1.11147 3.0402 0
M  V30 3064 H 286.723 1.14658 3.56096 0
M  V30 3065 H 288.056 1.48979 4.69112 0
M  V30 3066 N 289.708 -1.40897 0.706093 0
M  V30 3067 C 290.956 -2.00657 0.241054 0
M  V30 3068 C 291.277 -1.56241 -1.16678 0
M  V30 3069 O 290.547 -0.79765 -1.78926 0
M  V30 3070 H 289.127 -0.742018 0.0861308 0
M  V30 3071 H 291.789 -1.72372 0.909604 0
M  V30 3072 H 290.885 -3.10958 0.266705 0
M  V30 3073 N 291.186 -0.45159 -1.50991 0
M  V30 3074 C 292.432 0.110237 -2.025 0
M  V30 3075 C 292.765 1.41109 -1.33424 0
M  V30 3076 O 292.04 1.89135 -0.453659 0
M  V30 3077 C 292.323 0.314271 -3.58726 0
M  V30 3078 C 292.176 -1.00623 -4.38401 0
M  V30 3079 C 293.495 1.07767 -4.26702 0
M  V30 3080 H 290.614 0.0385897 -0.735989 0
M  V30 3081 H 293.256 -0.593374 -1.80497 0
M  V30 3082 H 291.406 0.913601 -3.77605 0
M  V30 3083 H 293.078 -1.64064 -4.31139 0
M  V30 3084 H 291.321 -1.6075 -4.02917 0
M  V30 3085 H 291.992 -0.817341 -5.45915 0
M  V30 3086 H 294.468 0.56986 -4.12179 0
M  V30 3087 H 293.344 1.18921 -5.35863 0
M  V30 3088 H 293.605 2.10939 -3.88532 0
M  V30 3089 N 292.664 1.56529 -0.183458 0
M  V30 3090 C 294.08 1.58664 0.172554 0
M  V30 3091 C 294.28 1.19925 1.61926 0
M  V30 3092 O 293.336 0.916534 2.35278 0
M  V30 3093 C 294.649 3.00463 -0.119262 0
M  V30 3094 C 296.197 3.12945 -0.0584396 0
M  V30 3095 C 296.672 4.56857 -0.323408 0
M  V30 3096 N 298.163 4.62403 -0.271612 0
M  V30 3097 C 298.898 5.71626 -0.450639 0
M  V30 3098 N 298.394 6.89362 -0.689384 0
M  V30 3099 N 300.187 5.60775 -0.385701 0
M  V30 3100 H 292.338 1.79994 -1.12765 0
M  V30 3101 H 294.601 0.834808 -0.449222 0
M  V30 3102 H 294.307 3.33326 -1.12192 0
M  V30 3103 H 294.181 3.72659 0.583544 0
M  V30 3104 H 296.568 2.79902 0.934805 0
M  V30 3105 H 296.649 2.4316 -0.794144 0
M  V30 3106 H 296.293 4.9061 -1.31392 0
M  V30 3107 H 296.223 5.24816 0.43305 0
M  V30 3108 H 298.714 3.77785 -0.0932256 0
M  V30 3109 H 299.027 7.68489 -0.815113 0
M  V30 3110 H 297.372 6.91196 -0.726142 0
M  V30 3111 H 300.563 4.67674 -0.199687 0
M  V30 3112 H 300.736 6.4584 -0.528646 0
M  V30 3113 N 294.142 -0.090211 1.57342 0
M  V30 3114 C 295.388 -0.793982 1.86611 0
M  V30 3115 C 295.721 -1.78142 0.773252 0
M  V30 3116 O 294.996 -1.93271 -0.218304 0
M  V30 3117 C 295.279 -1.51839 3.26523 0
M  V30 3118 C 295.132 -0.548609 4.46442 0
M  V30 3119 C 296.451 -2.46779 3.64401 0
M  V30 3120 H 293.57 -0.287186 0.678744 0
M  V30 3121 H 296.212 -0.0575076 1.89913 0
M  V30 3122 H 294.362 -2.14617 3.23839 0
M  V30 3123 H 296.034 0.0725513 4.61243 0
M  V30 3124 H 294.277 0.137614 4.33582 0
M  V30 3125 H 294.948 -1.09271 5.41076 0
M  V30 3126 H 297.424 -1.94089 3.68061 0
M  V30 3127 H 296.3 -2.94479 4.63221 0
M  V30 3128 H 296.561 -3.30758 2.93346 0
M  V30 3129 N 295.62 -1.53406 -0.361157 0
M  V30 3130 C 296.55 -1.83136 -1.44857 0
M  V30 3131 C 297.531 -0.685174 -1.5569 0
M  V30 3132 O 298.716 -0.93544 -1.70186 0
M  V30 3133 C 295.846 -2.02522 -2.82138 0
M  V30 3134 C 294.8 -3.18302 -2.86126 0
M  V30 3135 C 294.126 -3.22989 -4.26125 0
M  V30 3136 C 295.426 -4.56796 -2.53248 0
M  V30 3137 H 297.12 -2.74201 -1.20226 0
M  V30 3138 H 294.666 -1.31938 -0.576922 0
M  V30 3139 H 296.619 -2.21904 -3.58241 0
M  V30 3140 H 295.343 -1.08172 -3.08166 0
M  V30 3141 H 294.002 -2.98747 -2.12475 0
M  V30 3142 H 293.65 -2.26267 -4.49235 0
M  V30 3143 H 293.35 -4.00781 -4.29708 0
M  V30 3144 H 294.874 -3.44559 -5.04094 0
M  V30 3145 H 296.288 -4.7631 -3.19064 0
M  V30 3146 H 294.685 -5.36862 -2.68141 0
M  V30 3147 H 295.755 -4.61606 -1.48484 0
M  V30 3148 N 297.098 0.621204 -1.44841 0
M  V30 3149 C 298.346 1.37783 -1.47852 0
M  V30 3150 C 298.667 1.94653 -0.116224 0
M  V30 3151 O 297.937 1.76367 0.852737 0
M  V30 3152 H 296.517 0.511453 -0.544449 0
M  V30 3153 H 299.179 0.730446 -1.80694 0
M  V30 3154 H 298.275 2.20414 -2.20961 0
M  V30 3155 N 298.576 1.31904 0.862503 0
M  V30 3156 C 299.987 1.19803 1.43193 0
M  V30 3157 C 300.338 -0.192567 1.95253 0
M  V30 3158 O 299.463 -1.09081 1.86896 0
M  V30 3159 C 300.058 2.16883 2.60283 0
M  V30 3160 C 298.617 2.08692 3.13248 0
M  V30 3161 C 297.764 2.05691 1.85975 0
M  V30 3162 H 300.715 1.43846 0.670365 0
M  V30 3163 H 300.736 1.76278 3.37204 0
M  V30 3164 H 300.248 3.18083 2.22363 0
M  V30 3165 H 298.349 1.10713 3.55771 0
M  V30 3166 H 298.462 2.9815 3.75025 0
M  V30 3167 H 296.826 1.50814 2.05249 0
M  V30 3168 H 297.609 3.08659 1.50282 0
M  V30 3169 N 300.054 -1.07777 1.14986 0
M  V30 3170 C 300.984 -2.16865 0.865557 0
M  V30 3171 C 301.965 -1.69123 -0.182083 0
M  V30 3172 O 303.15 -1.94164 -0.0373815 0
M  V30 3173 C 300.28 -3.45539 0.349313 0
M  V30 3174 C 299.234 -4.06708 1.33313 0
M  V30 3175 C 298.56 -5.30411 0.675918 0
M  V30 3176 C 299.86 -4.47241 2.69764 0
M  V30 3177 H 301.554 -2.40905 1.77778 0
M  V30 3178 H 299.1 -1.15781 0.856203 0
M  V30 3179 H 301.053 -4.21174 0.137983 0
M  V30 3180 H 299.777 -3.21072 -0.598362 0
M  V30 3181 H 298.436 -3.33112 1.53075 0
M  V30 3182 H 298.084 -5.02232 -0.277767 0
M  V30 3183 H 297.784 -5.72293 1.33244 0
M  V30 3184 H 299.308 -6.08755 0.474262 0
M  V30 3185 H 300.722 -5.14025 2.53873 0
M  V30 3186 H 299.119 -5.00062 3.3175 0
M  V30 3187 H 300.189 -3.58818 3.26156 0
M  V30 3188 N 301.532 -0.945985 -1.26051 0
M  V30 3189 C 302.495 -0.463897 -2.24456 0
M  V30 3190 C 303.495 0.427655 -1.55009 0
M  V30 3191 O 304.685 0.226157 -1.72726 0
M  V30 3192 C 301.817 0.330812 -3.39291 0
M  V30 3193 H 303.01 -1.33357 -2.68619 0
M  V30 3194 H 300.563 -0.728416 -1.38289 0
M  V30 3195 H 301.298 1.21852 -3.00537 0
M  V30 3196 H 301.083 -0.308679 -3.90883 0
M  V30 3197 H 302.573 0.657865 -4.12386 0
M  V30 3198 N 303.011 1.40521 -0.713556 0
M  V30 3199 C 304.288 1.94775 -0.17943 0
M  V30 3200 C 304.668 1.65184 1.31444 0
M  V30 3201 O 304.016 0.968429 2.06963 0
M  V30 3202 C 304.226 3.45543 -0.489986 0
M  V30 3203 C 305.574 4.22442 -0.427536 0
M  V30 3204 O 306.598 3.53644 -0.425929 0
M  V30 3205 O 305.457 5.4501 -0.403292 0
M  V30 3206 H 302.551 0.826606 -0.0255192 0
M  V30 3207 H 305.097 1.5014 -0.790949 0
M  V30 3208 H 303.869 3.60432 -1.5233 0
M  V30 3209 H 303.492 3.97311 0.151598 0
M  V30 3210 N 304.489 0.459591 1.5075 0
M  V30 3211 C 305.719 -0.0972338 2.06371 0
M  V30 3212 C 306.127 -1.35074 1.32483 0
M  V30 3213 O 305.47 -1.79637 0.384226 0
M  V30 3214 C 305.532 -0.462759 3.56509 0
M  V30 3215 C 305.196 0.687084 4.51805 0
M  V30 3216 C 306.193 1.56578 4.95761 0
M  V30 3217 C 303.878 0.874144 4.94635 0
M  V30 3218 C 305.872 2.61604 5.81242 0
M  V30 3219 C 303.559 1.92765 5.79901 0
M  V30 3220 C 304.557 2.79697 6.23104 0
M  V30 3221 O 304.245 3.83235 7.06673 0
M  V30 3222 H 303.977 -0.00140687 0.675999 0
M  V30 3223 H 306.531 0.644011 1.95043 0
M  V30 3224 H 304.761 -1.25703 3.65699 0
M  V30 3225 H 306.45 -0.953323 3.94546 0
M  V30 3226 H 307.216 1.4329 4.6335 0
M  V30 3227 H 303.095 0.207006 4.60535 0
M  V30 3228 H 306.639 3.29489 6.14884 0
M  V30 3229 H 302.536 2.06064 6.11725 0
M  V30 3230 H 303.304 3.80084 7.24899 0
M  V30 3231 N 305.967 -1.56429 0.191757 0
M  V30 3232 C 306.897 -2.21937 -0.725696 0
M  V30 3233 C 307.878 -1.1814 -1.2238 0
M  V30 3234 O 309.063 -1.46636 -1.27325 0
M  V30 3235 C 306.193 -2.87611 -1.94672 0
M  V30 3236 C 305.147 -3.97623 -1.58366 0
M  V30 3237 C 304.473 -4.50446 -2.88102 0
M  V30 3238 C 305.773 -5.16197 -0.796133 0
M  V30 3239 H 307.467 -2.98861 -0.179606 0
M  V30 3240 H 305.013 -1.43749 -0.0849464 0
M  V30 3241 H 306.966 -3.3212 -2.59373 0
M  V30 3242 H 305.69 -2.08087 -2.51728 0
M  V30 3243 H 304.349 -3.53801 -0.960247 0
M  V30 3244 H 303.997 -3.67688 -3.43241 0
M  V30 3245 H 303.697 -5.24675 -2.64556 0
M  V30 3246 H 305.221 -4.97654 -3.53798 0
M  V30 3247 H 306.635 -5.57271 -1.34618 0
M  V30 3248 H 305.032 -5.96471 -0.658928 0
M  V30 3249 H 306.102 -4.84473 0.203478 0
M  V30 3250 N 307.445 0.0818655 -1.57387 0
M  V30 3251 C 308.691 0.784074 -1.8703 0
M  V30 3252 C 309.024 1.77729 -0.782689 0
M  V30 3253 O 308.299 1.93384 0.208051 0
M  V30 3254 C 308.582 1.50105 -3.27323 0
M  V30 3255 C 308.435 0.524925 -4.46727 0
M  V30 3256 C 309.754 2.44843 -3.65705 0
M  V30 3257 H 306.873 0.283582 -0.680257 0
M  V30 3258 H 309.515 0.0474352 -1.89941 0
M  V30 3259 H 307.665 2.12897 -3.24972 0
M  V30 3260 H 309.337 -0.0970111 -4.61198 0
M  V30 3261 H 307.58 -0.160606 -4.33503 0
M  V30 3262 H 308.251 1.064 -5.41648 0
M  V30 3263 H 310.727 1.92135 -3.69085 0
M  V30 3264 H 309.603 2.92018 -4.64776 0
M  V30 3265 H 309.864 3.29197 -2.95096 0
M  V30 3266 N 308.923 1.53595 0.353017 0
M  V30 3267 C 310.169 1.70638 1.09593 0
M  V30 3268 C 310.502 0.463286 1.88593 0
M  V30 3269 O 309.777 -0.539597 1.86865 0
M  V30 3270 C 310.06 2.96406 2.04489 0
M  V30 3271 C 309.913 4.30901 1.29014 0
M  V30 3272 C 311.232 3.17812 3.0444 0
M  V30 3273 H 308.351 0.620913 0.397034 0
M  V30 3274 H 310.993 1.86254 0.375446 0
M  V30 3275 H 309.143 2.83223 2.65927 0
M  V30 3276 H 310.815 4.55917 0.702638 0
M  V30 3277 H 309.058 4.29741 0.592071 0
M  V30 3278 H 309.729 5.1506 1.98537 0
M  V30 3279 H 312.205 3.30263 2.53112 0
M  V30 3280 H 311.081 4.07223 3.6805 0
M  V30 3281 H 311.342 2.33669 3.75301 0
M  V30 3282 N 310.401 -0.613514 1.45168 0
M  V30 3283 C 311.349 -1.74572 1.53712 0
M  V30 3284 C 312.343 -1.64426 0.407505 0
M  V30 3285 O 313.549 -1.70291 0.583176 0
M  V30 3286 H 309.924 -0.576641 0.48269 0
M  V30 3287 H 311.895 -1.64492 2.48968 0
M  V30 3288 C 310.644 -3.12943 1.51532 0
M  V30 3289 H 309.967 -3.21407 2.37776 0
M  V30 3290 H 311.407 -3.9201 1.61569 0
M  V30 3291 C 309.866 -3.36053 0.238798 0
M  V30 3292 O 310.396 -3.95837 -0.6838 0
M  V30 3293 N 308.602 -2.9028 0.136359 0
M  V30 3294 H 308.149 -2.41811 0.887999 0
M  V30 3295 H 308.107 -3.06116 -0.716944 0
M  V30 3296 N 311.879 -1.3236 -0.855495 0
M  V30 3297 C 313.125 -1.23054 -1.612 0
M  V30 3298 C 313.458 0.207404 -1.93089 0
M  V30 3299 O 312.733 1.14432 -1.57275 0
M  V30 3300 C 313.016 -2.08937 -2.93287 0
M  V30 3301 C 312.869 -3.61105 -2.68185 0
M  V30 3302 C 314.188 -1.94986 -3.94549 0
M  V30 3303 H 311.307 -0.448364 -0.584926 0
M  V30 3304 H 313.949 -1.62297 -0.987917 0
M  V30 3305 H 312.099 -1.75599 -3.46551 0
M  V30 3306 H 313.771 -4.04652 -2.21483 0
M  V30 3307 H 312.014 -3.83813 -2.02164 0
M  V30 3308 H 312.685 -4.16522 -3.62234 0
M  V30 3309 H 315.161 -2.24189 -3.5054 0
M  V30 3310 H 314.037 -2.57356 -4.84829 0
M  V30 3311 H 314.298 -0.917263 -4.3248 0
M  V30 3312 N 313.357 1.07166 -1.15556 0
M  V30 3313 C 314.582 1.84053 -0.955988 0
M  V30 3314 C 315.007 1.81586 0.490739 0
M  V30 3315 O 314.365 1.21018 1.34997 0
M  V30 3316 C 314.413 3.28957 -1.47714 0
M  V30 3317 O 313.517 4.06795 -0.677593 0
M  V30 3318 H 312.858 0.569842 -0.340847 0
M  V30 3319 H 315.388 1.35178 -1.53584 0
M  V30 3320 H 315.398 3.79788 -1.4908 0
M  V30 3321 H 314.073 3.30068 -2.53037 0
M  V30 3322 H 312.65 3.6561 -0.733721 0
M  V30 3323 N 314.835 0.952656 1.25548 0
M  V30 3324 C 316.06 0.623025 1.97821 0
M  V30 3325 C 316.485 -0.7976 1.70352 0
M  V30 3326 O 315.843 -1.53905 0.958283 0
M  V30 3327 C 315.891 0.885532 3.49558 0
M  V30 3328 O 314.995 -0.0366641 4.12384 0
M  V30 3329 H 314.336 0.237082 0.620232 0
M  V30 3330 H 316.866 1.27871 1.59719 0
M  V30 3331 H 316.876 0.811009 3.99858 0
M  V30 3332 H 315.551 1.92094 3.6888 0
M  V30 3333 H 314.128 0.0898954 3.72792 0
M  V30 3334 N 316.313 -1.40141 0.720998 0
M  V30 3335 C 317.724 -1.83678 0.334553 0
M  V30 3336 C 318.075 -1.6027 -1.13173 0
M  V30 3337 O 317.2 -1.08643 -1.87152 0
M  V30 3338 C 317.795 -3.33437 0.600437 0
M  V30 3339 C 316.354 -3.75447 0.267642 0
M  V30 3340 C 315.501 -2.63296 0.870097 0
M  V30 3341 H 318.452 -1.29331 0.919732 0
M  V30 3342 H 318.473 -3.80269 -0.132517 0
M  V30 3343 H 317.985 -3.50442 1.66768 0
M  V30 3344 H 316.086 -3.64035 -0.794329 0
M  V30 3345 H 316.199 -4.73344 0.74042 0
M  V30 3346 H 314.563 -2.52954 0.297739 0
M  V30 3347 H 315.346 -2.83112 1.94172 0
M  V30 3348 N 317.792 -0.46758 -1.50504 0
M  V30 3349 C 318.74 0.342482 -2.30065 0
M  V30 3350 C 319.734 0.993596 -1.37201 0
M  V30 3351 O 320.94 0.925102 -1.54408 0
M  V30 3352 H 317.315 0.129283 -0.740803 0
M  V30 3353 H 319.286 -0.34899 -2.96352 0
M  V30 3354 C 318.035 1.4139 -3.17654 0
M  V30 3355 H 317.358 0.922264 -3.89017 0
M  V30 3356 H 318.798 1.95335 -3.76325 0
M  V30 3357 C 317.257 2.4139 -2.35016 0
M  V30 3358 O 317.787 3.46586 -2.03079 0
M  V30 3359 N 315.993 2.13021 -1.97662 0
M  V30 3360 H 315.54 1.27499 -2.23834 0
M  V30 3361 H 315.498 2.80164 -1.42673 0
M  V30 3362 N 319.27 1.56325 -0.20005 0
M  V30 3363 C 320.498 2.02105 0.442874 0
M  V30 3364 C 320.913 1.08014 1.5485 0
M  V30 3365 O 320.27 0.0858797 1.82298 0
M  V30 3366 C 320.321 3.47549 0.994583 0
M  V30 3367 O 320.042 4.38049 -0.0669322 0
M  V30 3368 C 321.543 4.0887 1.7129 0
M  V30 3369 H 318.763 0.661807 0.110691 0
M  V30 3370 H 321.307 2.02134 -0.310207 0
M  V30 3371 H 319.462 3.48204 1.69803 0
M  V30 3372 H 319.876 5.23368 0.344462 0
M  V30 3373 H 321.35 5.12475 2.05118 0
M  V30 3374 H 321.827 3.52615 2.61838 0
M  V30 3375 H 322.433 4.12002 1.05518 0
M  V30 3376 N 320.748 -0.0735177 1.57428 0
M  V30 3377 C 321.711 -1.07192 2.02589 0
M  V30 3378 C 322.711 -1.31695 0.922661 0
M  V30 3379 O 323.901 -1.27445 1.18758 0
M  V30 3380 C 321.033 -2.41599 2.40506 0
M  V30 3381 H 322.226 -0.682727 2.92025 0
M  V30 3382 H 319.779 -0.319193 1.53006 0
M  V30 3383 H 320.514 -2.85354 1.5409 0
M  V30 3384 H 320.299 -2.25156 3.21009 0
M  V30 3385 H 321.789 -3.13367 2.76027 0
M  V30 3386 N 322.226 -1.5378 -0.344866 0
M  V30 3387 C 323.474 -1.70625 -1.08311 0
M  V30 3388 C 323.795 -0.471447 -1.89215 0
M  V30 3389 O 323.065 0.514616 -1.8902 0
M  V30 3390 H 321.645 -0.629058 -0.402859 0
M  V30 3391 H 324.307 -1.9103 -0.386459 0
M  V30 3392 H 323.403 -2.57656 -1.76124 0
M  V30 3393 N 323.704 0.605807 -1.45491 0
M  V30 3394 C 324.634 1.72709 -1.57143 0
M  V30 3395 C 325.615 1.6476 -0.422884 0
M  V30 3396 O 326.8 1.83132 -0.646247 0
M  V30 3397 C 323.93 3.11316 -1.53948 0
M  V30 3398 C 322.884 3.34077 -2.67537 0
M  V30 3399 C 322.21 4.72975 -2.49397 0
M  V30 3400 C 323.51 3.24158 -4.09535 0
M  V30 3401 H 325.204 1.63214 -2.51001 0
M  V30 3402 H 322.75 0.78379 -1.208 0
M  V30 3403 H 324.703 3.89557 -1.60696 0
M  V30 3404 H 323.427 3.21655 -0.566205 0
M  V30 3405 H 322.086 2.58227 -2.6022 0
M  V30 3406 H 321.734 4.8005 -1.50205 0
M  V30 3407 H 321.434 4.8916 -3.25571 0
M  V30 3408 H 322.958 5.53414 -2.58002 0
M  V30 3409 H 324.372 3.92271 -4.18086 0
M  V30 3410 H 322.769 3.51872 -4.86113 0
M  V30 3411 H 323.839 2.2157 -4.31317 0
M  V30 3412 N 325.182 1.32811 0.848464 0
M  V30 3413 C 326.598 1.11937 1.13764 0
M  V30 3414 C 326.798 -0.0960789 2.01271 0
M  V30 3415 O 325.854 -0.779165 2.40178 0
M  V30 3416 C 327.167 2.402 1.809 0
M  V30 3417 C 328.715 2.46016 1.93508 0
M  V30 3418 C 329.19 3.74215 2.64059 0
M  V30 3419 N 330.681 3.75232 2.71579 0
M  V30 3420 C 331.416 4.71134 3.26833 0
M  V30 3421 N 330.912 5.77406 3.8285 0
M  V30 3422 N 332.705 4.58623 3.24995 0
M  V30 3423 H 324.856 2.1073 0.265855 0
M  V30 3424 H 327.119 0.930671 0.180431 0
M  V30 3425 H 326.825 3.29093 1.24058 0
M  V30 3426 H 326.699 2.51628 2.81004 0
M  V30 3427 H 329.086 1.57577 2.49506 0
M  V30 3428 H 329.167 2.38536 0.923811 0
M  V30 3429 H 328.811 4.63031 2.08722 0
M  V30 3430 H 328.741 3.78968 3.65637 0
M  V30 3431 H 331.232 2.98423 2.31845 0
M  V30 3432 H 331.545 6.46632 4.23187 0
M  V30 3433 H 329.89 5.81152 3.81165 0
M  V30 3434 H 333.081 3.74762 2.80484 0
M  V30 3435 H 333.254 5.33535 3.67756 0
M  V30 3436 N 326.66 -1.06551 1.16123 0
M  V30 3437 C 327.885 -1.83544 0.965735 0
M  V30 3438 C 328.31 -1.81843 -0.481102 0
M  V30 3439 O 327.668 -1.21732 -1.34354 0
M  V30 3440 C 327.716 -3.28169 1.49457 0
M  V30 3441 O 326.82 -4.0643 0.699157 0
M  V30 3442 H 326.161 -0.568026 0.343864 0
M  V30 3443 H 328.691 -1.34362 1.54299 0
M  V30 3444 H 328.701 -3.78992 1.51092 0
M  V30 3445 H 327.376 -3.28722 2.54784 0
M  V30 3446 H 325.953 -3.65216 0.7531 0
M  V30 3447 N 328.138 -0.959301 -1.25041 0
M  V30 3448 C 329.068 -0.501388 -2.28053 0
M  V30 3449 C 330.049 0.454673 -1.63911 0
M  V30 3450 O 331.234 0.352618 -1.90972 0
M  V30 3451 C 328.364 0.217224 -3.4662 0
M  V30 3452 C 327.318 -0.654034 -4.22973 0
M  V30 3453 C 326.644 0.195589 -5.34342 0
M  V30 3454 C 327.944 -1.93447 -4.85155 0
M  V30 3455 H 329.638 -1.36238 -2.66608 0
M  V30 3456 H 327.184 -0.656534 -1.28163 0
M  V30 3457 H 329.137 0.548732 -4.17812 0
M  V30 3458 H 327.861 1.1125 -3.07068 0
M  V30 3459 H 326.52 -0.968693 -3.5357 0
M  V30 3460 H 326.168 1.09076 -4.91031 0
M  V30 3461 H 325.868 -0.384091 -5.86343 0
M  V30 3462 H 327.392 0.521958 -6.08365 0
M  V30 3463 H 328.806 -1.66908 -5.48466 0
M  V30 3464 H 327.203 -2.46018 -5.47353 0
M  V30 3465 H 328.273 -2.63466 -4.07079 0
M  V30 3466 N 329.616 1.39756 -0.72842 0
M  V30 3467 C 330.548 2.29157 -0.0446202 0
M  V30 3468 C 331.561 1.46484 0.710367 0
M  V30 3469 O 332.75 1.69632 0.55562 0
M  V30 3470 C 329.85 3.24987 0.961071 0
M  V30 3471 C 329.023 4.36572 0.268967 0
M  V30 3472 C 328.082 5.12756 1.18184 0
M  V30 3473 O 327.108 5.6534 0.661794 0
M  V30 3474 N 328.31 5.23331 2.51206 0
M  V30 3475 H 331.075 2.88482 -0.812295 0
M  V30 3476 H 328.636 1.51265 -0.577098 0
M  V30 3477 H 330.628 3.72827 1.57423 0
M  V30 3478 H 329.198 2.66739 1.63 0
M  V30 3479 H 328.418 3.90694 -0.524574 0
M  V30 3480 H 329.706 5.08363 -0.210934 0
M  V30 3481 H 329.104 4.82116 2.9594 0
M  V30 3482 H 327.661 5.74634 3.07634 0
M  V30 3483 N 331.094 0.475555 1.50254 0
M  V30 3484 C 332.342 -0.077738 2.0195 0
M  V30 3485 C 332.663 -1.39813 1.35931 0
M  V30 3486 O 331.933 -1.89249 0.506123 0
M  V30 3487 H 330.513 -0.031719 0.746326 0
M  V30 3488 H 333.175 0.626995 1.84539 0
M  V30 3489 H 332.271 -0.225995 3.11281 0
M  V30 3490 N 332.573 -1.56217 0.208337 0
M  V30 3491 C 333.52 -2.19699 -0.707192 0
M  V30 3492 C 334.49 -1.14836 -1.20008 0
M  V30 3493 O 335.675 -1.4314 -1.26157 0
M  V30 3494 C 332.815 -2.87061 -1.91546 0
M  V30 3495 C 331.928 -4.06483 -1.46271 0
M  V30 3496 C 331.063 -4.61665 -2.62752 0
M  V30 3497 C 330.102 -5.73417 -2.14147 0
M  V30 3498 N 329.239 -6.22948 -3.23853 0
M  V30 3499 H 334.079 -2.97575 -0.159111 0
M  V30 3500 H 331.616 -1.46948 -0.0667874 0
M  V30 3501 H 333.574 -3.24294 -2.62468 0
M  V30 3502 H 332.204 -2.11725 -2.43664 0
M  V30 3503 H 331.256 -3.74825 -0.648886 0
M  V30 3504 H 332.568 -4.87271 -1.06622 0
M  V30 3505 H 331.722 -5.01272 -3.41776 0
M  V30 3506 H 330.461 -3.80013 -3.05682 0
M  V30 3507 H 329.466 -5.33326 -1.33581 0
M  V30 3508 H 330.691 -6.56897 -1.72232 0
M  V30 3509 H 328.637 -5.44213 -3.6629 0
M  V30 3510 H 328.554 -6.98823 -2.88414 0
M  V30 3511 H 329.822 -6.6721 -4.03052 0
M  V30 3512 N 334.051 0.0651679 -1.57465 0
M  V30 3513 C 335.014 1.06117 -2.03155 0
M  V30 3514 C 336.014 1.31204 -0.929632 0
M  V30 3515 O 337.204 1.26813 -1.19432 0
M  V30 3516 C 334.336 2.4032 -2.41783 0
M  V30 3517 H 335.529 0.667231 -2.92383 0
M  V30 3518 H 333.082 0.311075 -1.53173 0
M  V30 3519 H 333.817 2.84532 -1.55601 0
M  V30 3520 H 333.602 2.23451 -3.22199 0
M  V30 3521 H 335.092 3.11898 -2.77685 0
M  V30 3522 N 335.529 1.53961 0.336706 0
M  V30 3523 C 336.439 1.85432 1.43708 0
M  V30 3524 C 337.455 0.745053 1.57242 0
M  V30 3525 O 338.631 1.03804 1.72588 0
M  V30 3526 C 335.696 2.06349 2.78605 0
M  V30 3527 C 334.757 3.30191 2.74358 0
M  V30 3528 C 333.99 3.50101 4.02822 0
M  V30 3529 O 334.213 2.7371 5.00439 0
M  V30 3530 O 333.147 4.43547 4.06878 0
M  V30 3531 H 336.973 2.78975 1.20028 0
M  V30 3532 H 334.558 1.39701 0.52952 0
M  V30 3533 H 336.44 2.21513 3.58483 0
M  V30 3534 H 335.115 1.15995 3.02203 0
M  V30 3535 H 334.022 3.20425 1.93078 0
M  V30 3536 H 335.355 4.2056 2.55715 0
M  V30 3537 N 337.007 -0.598083 1.45811 0
M  V30 3538 C 337.937 -1.71873 1.58057 0
M  V30 3539 C 338.918 -1.64533 0.431615 0
M  V30 3540 O 340.103 -1.82787 0.65595 0
M  V30 3541 C 337.233 -3.10495 1.55597 0
M  V30 3542 C 336.187 -3.32654 2.69305 0
M  V30 3543 C 335.513 -4.71646 2.51902 0
M  V30 3544 C 336.813 -3.21981 4.11248 0
M  V30 3545 H 338.507 -1.61881 2.51863 0
M  V30 3546 H 336.053 -0.777372 1.21214 0
M  V30 3547 H 338.006 -3.88699 1.6276 0
M  V30 3548 H 336.73 -3.2135 0.583255 0
M  V30 3549 H 335.389 -2.56843 2.61586 0
M  V30 3550 H 335.037 -4.79246 1.52748 0
M  V30 3551 H 334.737 -4.87426 3.2816 0
M  V30 3552 H 336.261 -5.52038 2.60933 0
M  V30 3553 H 337.675 -3.90049 4.20161 0
M  V30 3554 H 336.072 -3.49289 4.87972 0
M  V30 3555 H 337.142 -2.1928 4.32486 0
M  V30 3556 N 338.485 -1.33259 -0.841409 0
M  V30 3557 C 339.901 -1.12538 -1.13169 0
M  V30 3558 C 340.101 0.0854037 -2.01319 0
M  V30 3559 O 339.157 0.766417 -2.40587 0
M  V30 3560 C 340.47 -2.41156 -1.79623 0
M  V30 3561 C 342.018 -2.47038 -1.922 0
M  V30 3562 C 342.493 -3.7561 -2.6207 0
M  V30 3563 N 343.984 -3.76667 -2.69585 0
M  V30 3564 C 344.719 -4.72861 -3.2433 0
M  V30 3565 N 344.215 -5.79428 -3.79783 0
M  V30 3566 N 346.008 -4.6034 -3.22558 0
M  V30 3567 H 338.159 -2.10868 -0.254676 0
M  V30 3568 H 340.422 -0.931615 -0.175493 0
M  V30 3569 H 340.128 -3.29747 -1.22311 0
M  V30 3570 H 340.002 -2.53114 -2.79666 0
M  V30 3571 H 342.389 -1.58898 -2.48667 0
M  V30 3572 H 342.47 -2.39022 -0.911148 0
M  V30 3573 H 342.114 -4.64131 -2.06263 0
M  V30 3574 H 342.044 -3.80902 -3.63622 0
M  V30 3575 H 344.535 -2.99648 -2.30259 0
M  V30 3576 H 344.848 -6.48867 -4.19752 0
M  V30 3577 H 343.193 -5.83166 -3.78078 0
M  V30 3578 H 346.384 -3.76244 -2.78492 0
M  V30 3579 H 346.557 -5.35478 -3.64921 0
M  V30 3580 N 339.963 1.05934 -1.16686 0
M  V30 3581 C 341.379 1.30938 -0.912542 0
M  V30 3582 C 341.579 1.96803 0.432533 0
M  V30 3583 O 340.635 2.23693 1.17123 0
M  V30 3584 C 341.948 2.18649 -2.06429 0
M  V30 3585 C 343.496 2.32055 -2.10047 0
M  V30 3586 C 343.971 3.23122 -3.24586 0
M  V30 3587 N 345.462 3.30706 -3.24327 0
M  V30 3588 C 346.197 4.01273 -4.09594 0
M  V30 3589 N 345.693 4.74332 -5.04956 0
M  V30 3590 N 347.486 3.97361 -3.97569 0
M  V30 3591 H 339.637 0.615777 -2.03278 0
M  V30 3592 H 341.9 0.334077 -0.887185 0
M  V30 3593 H 341.606 1.77534 -3.03603 0
M  V30 3594 H 341.48 3.19252 -2.00894 0
M  V30 3595 H 343.867 2.72415 -1.13464 0
M  V30 3596 H 343.948 1.31107 -2.19647 0
M  V30 3597 H 343.592 2.83477 -4.2143 0
M  V30 3598 H 343.522 4.24057 -3.12223 0
M  V30 3599 H 346.013 2.78644 -2.55276 0
M  V30 3600 H 346.326 5.25716 -5.6643 0
M  V30 3601 H 344.671 4.733 -5.08933 0
M  V30 3602 H 347.862 3.39405 -3.22369 0
M  V30 3603 H 348.035 4.52089 -4.64241 0
M  V30 3604 N 341.441 0.965919 1.2453 0
M  V30 3605 C 342.371 0.513476 2.27784 0
M  V30 3606 C 343.352 -0.445974 1.6415 0
M  V30 3607 O 344.537 -0.342485 1.91156 0
M  V30 3608 C 341.667 -0.198839 3.4673 0
M  V30 3609 C 340.621 0.676456 4.2262 0
M  V30 3610 C 339.947 -0.167248 5.34438 0
M  V30 3611 C 341.247 1.96017 4.84123 0
M  V30 3612 H 342.941 1.3765 2.65881 0
M  V30 3613 H 340.487 0.663321 1.27813 0
M  V30 3614 H 342.44 -0.526567 4.18097 0
M  V30 3615 H 341.164 -1.0962 3.07654 0
M  V30 3616 H 339.823 0.98743 3.53052 0
M  V30 3617 H 339.471 -1.0647 4.91603 0
M  V30 3618 H 339.171 0.415181 5.86131 0
M  V30 3619 H 340.695 -0.489688 6.08633 0
M  V30 3620 H 342.109 1.69814 5.47573 0
M  V30 3621 H 340.506 2.48918 5.4604 0
M  V30 3622 H 341.576 2.65622 4.05676 0
M  V30 3623 N 342.919 -1.39368 0.735821 0
M  V30 3624 C 343.849 -2.33234 0.111506 0
M  V30 3625 C 344.83 -1.53954 -0.723334 0
M  V30 3626 O 346.015 -1.82344 -0.668147 0
M  V30 3627 C 343.145 -3.38057 -0.795917 0
M  V30 3628 C 342.099 -4.2795 -0.065172 0
M  V30 3629 C 341.425 -5.23479 -1.08967 0
M  V30 3630 C 342.725 -5.10741 1.09273 0
M  V30 3631 H 344.419 -2.85692 0.895571 0
M  V30 3632 H 341.965 -1.37364 0.432109 0
M  V30 3633 H 343.918 -4.02675 -1.24221 0
M  V30 3634 H 342.642 -2.8404 -1.61211 0
M  V30 3635 H 341.301 -3.64813 0.361511 0
M  V30 3636 H 340.949 -4.65758 -1.89944 0
M  V30 3637 H 340.649 -5.84472 -0.605489 0
M  V30 3638 H 342.173 -5.90974 -1.53565 0
M  V30 3639 H 343.587 -5.68699 0.724841 0
M  V30 3640 H 341.984 -5.8088 1.50659 0
M  V30 3641 H 343.054 -4.45525 1.91404 0
M  V30 3642 N 344.397 -0.483516 -1.5 0
M  V30 3643 C 345.625 0.0644831 -2.06799 0
M  V30 3644 C 346.04 1.32399 -1.34596 0
M  V30 3645 O 345.397 1.77626 -0.418946 0
M  V30 3646 C 345.448 0.339927 -3.59898 0
M  V30 3647 O 345.169 -0.869635 -4.29382 0
M  V30 3648 C 346.67 0.933515 -4.33359 0
M  V30 3649 H 343.89 -0.0126333 -0.670881 0
M  V30 3650 H 346.434 -0.675864 -1.93009 0
M  V30 3651 H 344.589 1.03022 -3.7345 0
M  V30 3652 H 345.003 -0.62179 -5.20801 0
M  V30 3653 H 346.477 1.07593 -5.41413 0
M  V30 3654 H 346.954 1.92685 -3.94676 0
M  V30 3655 H 347.56 0.281221 -4.24369 0
M  V30 3656 N 345.875 1.56104 -0.216619 0
M  V30 3657 C 346.822 2.2007 0.695531 0
M  V30 3658 C 347.792 1.15471 1.19397 0
M  V30 3659 O 348.977 1.43807 1.25396 0
M  V30 3660 C 346.117 2.88073 1.90021 0
M  V30 3661 C 345.23 4.07253 1.44113 0
M  V30 3662 C 344.365 4.63052 2.603 0
M  V30 3663 C 343.404 5.74545 2.11103 0
M  V30 3664 N 342.541 6.24656 3.20545 0
M  V30 3665 H 347.381 2.97655 0.143327 0
M  V30 3666 H 344.918 1.46982 0.0589934 0
M  V30 3667 H 346.876 3.25681 2.60745 0
M  V30 3668 H 345.506 2.13015 2.42538 0
M  V30 3669 H 344.558 3.75164 0.628999 0
M  V30 3670 H 345.87 4.8783 1.04036 0
M  V30 3671 H 345.024 5.03078 3.39113 0
M  V30 3672 H 343.763 3.81628 3.03663 0
M  V30 3673 H 342.768 5.34027 1.3075 0
M  V30 3674 H 343.993 6.57801 1.68746 0
M  V30 3675 H 341.939 5.46148 3.63399 0
M  V30 3676 H 341.856 7.00343 2.84704 0
M  V30 3677 H 343.124 6.69338 3.99508 0
M  V30 3678 N 347.353 -0.0568162 1.57498 0
M  V30 3679 C 348.599 -0.75422 1.88253 0
M  V30 3680 C 348.932 -1.76461 0.810865 0
M  V30 3681 O 348.207 -1.93691 -0.177259 0
M  V30 3682 C 348.49 -1.44878 3.2967 0
M  V30 3683 C 348.343 -0.453789 4.47505 0
M  V30 3684 C 349.662 -2.38994 3.69554 0
M  V30 3685 H 346.781 -0.272724 0.684683 0
M  V30 3686 H 349.423 -0.0172113 1.89992 0
M  V30 3687 H 347.573 -2.077 3.28318 0
M  V30 3688 H 349.245 0.170371 4.60985 0
M  V30 3689 H 347.488 0.229552 4.33192 0
M  V30 3690 H 348.159 -0.977699 5.43273 0
M  V30 3691 H 350.635 -1.86239 3.72095 0
M  V30 3692 H 349.511 -2.84587 4.69363 0
M  V30 3693 H 349.772 -3.24461 3.00296 0
M  V30 3694 N 348.832 -1.54138 -0.328536 0
M  V30 3695 C 349.762 -1.86167 -1.40939 0
M  V30 3696 C 350.743 -0.718044 -1.54202 0
M  V30 3697 O 351.928 -0.971328 -1.68163 0
M  V30 3698 C 349.058 -2.08461 -2.77779 0
M  V30 3699 C 348.012 -3.24299 -2.7931 0
M  V30 3700 C 347.338 -3.31955 -4.19178 0
M  V30 3701 C 348.638 -4.62065 -2.43502 0
M  V30 3702 H 350.332 -2.76689 -1.14383 0
M  V30 3703 H 347.878 -1.33132 -0.548806 0
M  V30 3704 H 349.831 -2.29453 -3.53454 0
M  V30 3705 H 348.555 -1.14684 -3.05802 0
M  V30 3706 H 347.214 -3.03187 -2.0609 0
M  V30 3707 H 346.862 -2.35745 -4.44335 0
M  V30 3708 H 346.562 -4.09805 -4.2111 0
M  V30 3709 H 348.086 -3.55175 -4.96672 0
M  V30 3710 H 349.5 -4.8297 -3.08889 0
M  V30 3711 H 347.897 -5.42429 -2.56693 0
M  V30 3712 H 348.967 -4.64652 -1.38659 0
M  V30 3713 N 350.31 0.590341 -1.46126 0
M  V30 3714 C 351.242 1.71427 -1.52136 0
M  V30 3715 C 352.255 1.57542 -0.41042 0
M  V30 3716 O 353.444 1.65106 -0.678389 0
M  V30 3717 C 350.544 3.09605 -1.37834 0
M  V30 3718 C 349.717 3.49566 -2.62912 0
M  V30 3719 C 348.776 4.66773 -2.42918 0
M  V30 3720 O 347.802 4.73019 -3.1661 0
M  V30 3721 N 349.004 5.61161 -1.4859 0
M  V30 3722 H 351.769 1.66728 -2.49042 0
M  V30 3723 H 349.33 0.776113 -1.42085 0
M  V30 3724 H 351.322 3.85796 -1.22243 0
M  V30 3725 H 349.892 3.08714 -0.491393 0
M  V30 3726 H 349.112 2.63158 -2.93499 0
M  V30 3727 H 350.4 3.73028 -3.46017 0
M  V30 3728 H 349.798 5.58844 -0.87808 0
M  V30 3729 H 348.355 6.36814 -1.38965 0
M  V30 3730 N 351.788 1.33704 0.83433 0
M  V30 3731 C 352.698 1.26382 1.97648 0
M  V30 3732 C 353.714 0.173548 1.73132 0
M  V30 3733 O 354.89 0.397962 1.97429 0
M  V30 3734 C 351.955 1.00769 3.31733 0
M  V30 3735 C 351.016 2.1884 3.69334 0
M  V30 3736 C 350.249 1.9444 4.9702 0
M  V30 3737 O 350.472 0.896961 5.63303 0
M  V30 3738 O 349.406 2.81093 5.32231 0
M  V30 3739 H 353.232 2.22444 2.06767 0
M  V30 3740 H 350.817 1.13795 0.968037 0
M  V30 3741 H 352.699 0.882186 4.12062 0
M  V30 3742 H 351.374 0.0773783 3.23608 0
M  V30 3743 H 350.281 2.36946 2.89495 0
M  V30 3744 H 351.614 3.10221 3.82131 0
M  V30 3745 N 353.266 -1.05314 1.17247 0
M  V30 3746 C 354.682 -1.30452 0.919473 0
M  V30 3747 C 354.882 -1.9703 -0.42209 0
M  V30 3748 O 353.938 -2.24311 -1.15935 0
M  V30 3749 C 355.251 -2.17551 2.07586 0
M  V30 3750 C 356.799 -2.30937 2.11275 0
M  V30 3751 C 357.274 -3.21396 3.26296 0
M  V30 3752 N 358.765 -3.28981 3.26076 0
M  V30 3753 C 359.5 -3.99095 4.11716 0
M  V30 3754 N 358.996 -4.71648 5.07465 0
M  V30 3755 N 360.789 -3.95247 3.9967 0
M  V30 3756 H 352.94 -0.604988 2.03602 0
M  V30 3757 H 355.203 -0.329368 0.888944 0
M  V30 3758 H 354.909 -1.75921 3.0454 0
M  V30 3759 H 354.783 -3.18182 2.02584 0
M  V30 3760 H 357.17 -2.71809 1.14907 0
M  V30 3761 H 357.251 -1.2994 2.20339 0
M  V30 3762 H 356.895 -2.81238 4.22927 0
M  V30 3763 H 356.825 -4.22395 3.14467 0
M  V30 3764 H 359.316 -2.77286 2.5675 0
M  V30 3765 H 359.629 -5.22705 5.6921 0
M  V30 3766 H 357.974 -4.70594 5.11435 0
M  V30 3767 H 361.165 -3.37691 3.24164 0
M  V30 3768 H 361.338 -4.4962 4.66632 0
M  V30 3769 N 354.744 -0.972509 -1.24016 0
M  V30 3770 C 356.021 -0.553733 -1.87598 0
M  V30 3771 C 356.401 0.969158 -1.87538 0
M  V30 3772 O 355.749 1.84255 -1.35139 0
M  V30 3773 C 355.959 -1.15076 -3.29482 0
M  V30 3774 C 357.307 -1.23862 -4.06132 0
M  V30 3775 O 358.331 -1.10363 -3.38672 0
M  V30 3776 O 357.19 -1.45252 -5.26844 0
M  V30 3777 H 354.284 -0.185331 -0.805966 0
M  V30 3778 H 356.83 -1.06709 -1.31952 0
M  V30 3779 H 355.602 -2.19333 -3.2405 0
M  V30 3780 H 355.225 -0.621746 -3.92709 0
M  V30 3781 N 356.222 1.38976 -0.743202 0
M  V30 3782 C 357.47 1.99948 -0.29417 0
M  V30 3783 C 357.791 1.59279 1.12495 0
M  V30 3784 O 357.061 0.844808 1.76748 0
M  V30 3785 H 355.641 0.739473 -0.105774 0
M  V30 3786 H 358.303 1.699 -0.954986 0
M  V30 3787 H 357.399 3.10142 -0.349056 0
M  V30 3788 N 357.7 0.491464 1.49741 0
M  V30 3789 C 358.63 -0.28154 2.31796 0
M  V30 3790 C 359.611 -0.971473 1.3963 0
M  V30 3791 O 360.796 -0.964719 1.68543 0
M  V30 3792 C 357.926 -1.35203 3.19902 0
M  V30 3793 C 356.88 -0.782529 4.20786 0
M  V30 3794 C 356.206 -1.95283 4.97764 0
M  V30 3795 C 357.506 0.21999 5.21837 0
M  V30 3796 H 359.2 0.403355 2.96671 0
M  V30 3797 H 356.746 0.195425 1.42668 0
M  V30 3798 H 358.699 -1.90045 3.76113 0
M  V30 3799 H 357.423 -2.06598 2.52953 0
M  V30 3800 H 356.082 -0.255928 3.65706 0
M  V30 3801 H 355.73 -2.65423 4.2727 0
M  V30 3802 H 355.43 -1.57789 5.66018 0
M  V30 3803 H 356.954 -2.50577 5.56816 0
M  V30 3804 H 358.368 -0.23996 5.72798 0
M  V30 3805 H 356.765 0.51026 5.97927 0
M  V30 3806 H 357.835 1.13911 4.7133 0
M  V30 3807 N 359.178 -1.55987 0.224894 0
M  V30 3808 C 360.594 -1.59066 -0.130426 0
M  V30 3809 C 360.794 -1.24176 -1.5869 0
M  V30 3810 O 359.85 -0.978592 -2.32766 0
M  V30 3811 C 361.163 -3.00042 0.198883 0
M  V30 3812 C 362.711 -3.1268 0.141391 0
M  V30 3813 C 363.186 -4.55839 0.444422 0
M  V30 3814 N 364.677 -4.6152 0.394115 0
M  V30 3815 C 365.412 -5.70231 0.602038 0
M  V30 3816 N 364.908 -6.87291 0.871914 0
M  V30 3817 N 366.701 -5.59555 0.534245 0
M  V30 3818 H 358.852 -1.76941 1.17497 0
M  V30 3819 H 361.115 -0.822604 0.471197 0
M  V30 3820 H 360.821 -3.30234 1.2099 0
M  V30 3821 H 360.695 -3.74075 -0.484535 0
M  V30 3822 H 363.082 -2.82283 -0.860265 0
M  V30 3823 H 363.163 -2.40969 0.858335 0
M  V30 3824 H 362.807 -4.86954 1.44353 0
M  V30 3825 H 362.737 -5.2578 -0.293752 0
M  V30 3826 H 365.228 -3.77405 0.193356 0
M  V30 3827 H 365.541 -7.66058 1.01858 0
M  V30 3828 H 363.886 -6.89028 0.909145 0
M  V30 3829 H 367.077 -4.6698 0.323612 0
M  V30 3830 H 367.25 -6.44211 0.699693 0
M  V30 3831 N 360.656 0.0484629 -1.57525 0
M  V30 3832 C 362.072 0.40375 -1.54409 0
M  V30 3833 C 362.272 1.77786 -0.948384 0
M  V30 3834 O 361.328 2.46189 -0.560983 0
M  V30 3835 C 362.641 0.323394 -2.98956 0
M  V30 3836 C 364.189 0.401892 -3.10409 0
M  V30 3837 C 364.664 0.351195 -4.56652 0
M  V30 3838 N 366.155 0.410576 -4.61377 0
M  V30 3839 C 366.89 0.393933 -5.72045 0
M  V30 3840 N 366.386 0.330724 -6.9201 0
M  V30 3841 N 368.179 0.442227 -5.60358 0
M  V30 3842 H 360.33 -0.851016 -1.94606 0
M  V30 3843 H 362.593 -0.321721 -0.89174 0
M  V30 3844 H 362.299 -0.62011 -3.4619 0
M  V30 3845 H 362.173 1.12463 -3.60044 0
M  V30 3846 H 364.56 1.33582 -2.63134 0
M  V30 3847 H 364.641 -0.428342 -2.52188 0
M  V30 3848 H 364.285 -0.578987 -5.04589 0
M  V30 3849 H 364.215 1.19928 -5.12762 0
M  V30 3850 H 366.706 0.462729 -3.75056 0
M  V30 3851 H 367.019 0.322592 -7.72126 0
M  V30 3852 H 365.364 0.29706 -6.94365 0
M  V30 3853 H 368.555 0.489464 -4.65534 0
M  V30 3854 H 368.728 0.425788 -6.466 0
M  V30 3855 N 362.134 1.5431 0.320358 0
M  V30 3856 C 363.38 1.72924 1.05949 0
M  V30 3857 C 363.713 0.503185 1.87568 0
M  V30 3858 O 362.988 -0.499839 1.87968 0
M  V30 3859 C 363.271 3.00676 1.98156 0
M  V30 3860 C 363.124 4.3354 1.19845 0
M  V30 3861 C 364.443 3.24198 2.9763 0
M  V30 3862 H 361.562 0.629195 0.383774 0
M  V30 3863 H 364.204 1.87008 0.335854 0
M  V30 3864 H 362.354 2.888 2.59859 0
M  V30 3865 H 364.026 4.57305 0.605773 0
M  V30 3866 H 362.269 4.309 0.500784 0
M  V30 3867 H 362.94 5.19156 1.87567 0
M  V30 3868 H 365.416 3.35557 2.4605 0
M  V30 3869 H 364.292 4.14938 3.59329 0
M  V30 3870 H 364.553 2.41577 3.7026 0
M  V30 3871 N 363.613 -0.582584 1.46437 0
M  V30 3872 C 364.563 -1.68654 1.53426 0
M  V30 3873 C 365.547 -1.55971 0.395194 0
M  V30 3874 O 366.739 -1.64884 0.643612 0
M  V30 3875 C 363.868 -3.07439 1.52762 0
M  V30 3876 C 362.954 -3.25418 2.71963 0
M  V30 3877 N 363.345 -3.13556 3.96883 0
M  V30 3878 C 361.643 -3.56357 2.68189 0
M  V30 3879 C 362.344 -3.33543 4.76575 0
M  V30 3880 N 361.32 -3.58704 4.08451 0
M  V30 3881 H 365.122 -1.58014 2.47808 0
M  V30 3882 H 362.636 -0.786617 1.42078 0
M  V30 3883 H 364.633 -3.86671 1.55857 0
M  V30 3884 H 363.293 -3.1921 0.594573 0
M  V30 3885 H 364.304 -2.9142 4.28129 0
M  V30 3886 H 360.981 -3.74812 1.83908 0
M  V30 3887 H 362.371 -3.29555 5.85528 0
M  V30 3888 N 365.091 -1.34144 -0.827227 0
M  V30 3889 C 366.507 -1.13732 -1.11969 0
M  V30 3890 C 366.707 0.0640463 -2.01398 0
M  V30 3891 O 365.763 0.740856 -2.41387 0
M  V30 3892 C 367.076 -2.43047 -1.77055 0
M  V30 3893 C 368.624 -2.49063 -1.89569 0
M  V30 3894 C 369.099 -3.78369 -2.58072 0
M  V30 3895 N 370.59 -3.79505 -2.65575 0
M  V30 3896 C 371.325 -4.76274 -3.19297 0
M  V30 3897 N 370.821 -5.83424 -3.73616 0
M  V30 3898 N 372.614 -4.63735 -3.17658 0
M  V30 3899 H 364.765 -2.11126 -0.232296 0
M  V30 3900 H 367.028 -0.933424 -0.165602 0
M  V30 3901 H 366.734 -3.31025 -1.18807 0
M  V30 3902 H 366.608 -2.56066 -2.76966 0
M  V30 3903 H 368.995 -1.61527 -2.46968 0
M  V30 3904 H 369.076 -2.39975 -0.885745 0
M  V30 3905 H 368.72 -4.66293 -2.01329 0
M  V30 3906 H 368.65 -3.84737 -3.59562 0
M  V30 3907 H 371.141 -3.02074 -2.27068 0
M  V30 3908 H 371.454 -6.53282 -4.12846 0
M  V30 3909 H 369.799 -5.87143 -3.71871 0
M  V30 3910 H 372.99 -3.79177 -2.74486 0
M  V30 3911 H 373.163 -5.39318 -3.59221 0
M  V30 3912 N 366.569 1.04691 -1.17803 0
M  V30 3913 C 367.98 1.59238 -0.974689 0
M  V30 3914 C 368.331 1.90306 0.477292 0
M  V30 3915 O 367.456 1.68846 1.35352 0
M  V30 3916 C 368.051 2.89318 -1.76296 0
M  V30 3917 C 366.61 3.40506 -1.60414 0
M  V30 3918 C 365.757 2.14172 -1.76141 0
M  V30 3919 H 368.708 0.874395 -1.32439 0
M  V30 3920 H 368.729 3.5944 -1.24833 0
M  V30 3921 H 368.241 2.66675 -2.81968 0
M  V30 3922 H 366.342 3.68175 -0.572519 0
M  V30 3923 H 366.455 4.14753 -2.39827 0
M  V30 3924 H 364.819 2.25176 -1.19028 0
M  V30 3925 H 365.602 1.93992 -2.83235 0
M  V30 3926 N 368.047 0.979072 1.23499 0
M  V30 3927 C 369.01 0.523244 2.23147 0
M  V30 3928 C 370.01 -0.386406 1.56088 0
M  V30 3929 O 371.2 -0.180283 1.73265 0
M  V30 3930 C 368.332 -0.240739 3.40049 0
M  V30 3931 H 369.525 1.40432 2.64989 0
M  V30 3932 H 367.078 0.764824 1.36309 0
M  V30 3933 H 367.813 -1.13841 3.03662 0
M  V30 3934 H 367.598 0.412207 3.89927 0
M  V30 3935 H 369.088 -0.548297 4.13985 0
M  V30 3936 N 369.525 -1.3858 0.750561 0
M  V30 3937 C 370.771 -2.00481 0.305825 0
M  V30 3938 C 371.104 -1.5944 -1.10872 0
M  V30 3939 O 370.379 -0.83052 -1.75877 0
M  V30 3940 C 370.662 -3.5758 0.425287 0
M  V30 3941 C 370.515 -4.08594 1.88072 0
M  V30 3942 C 371.834 -4.39719 -0.183122 0
M  V30 3943 H 368.953 -0.728348 0.112598 0
M  V30 3944 H 371.595 -1.64566 0.949638 0
M  V30 3945 H 369.745 -3.88306 -0.122828 0
M  V30 3946 H 371.417 -3.88523 2.48691 0
M  V30 3947 H 369.66 -3.61574 2.39681 0
M  V30 3948 H 370.331 -5.177 1.91548 0
M  V30 3949 H 372.807 -4.15128 0.284303 0
M  V30 3950 H 371.683 -5.48856 -0.0692757 0
M  V30 3951 H 371.944 -4.23434 -1.27106 0
M  V30 3952 N 371.003 -0.499398 -1.49478 0
M  V30 3953 C 371.933 0.269244 -2.31943 0
M  V30 3954 C 372.914 0.964054 -1.40143 0
M  V30 3955 O 374.099 0.955767 -1.69052 0
M  V30 3956 C 371.229 1.33504 -3.20615 0
M  V30 3957 C 370.183 0.760202 -4.21195 0
M  V30 3958 C 369.509 1.9264 -4.98792 0
M  V30 3959 C 370.809 -0.247661 -5.21712 0
M  V30 3960 H 372.503 -0.419082 -2.96452 0
M  V30 3961 H 370.049 -0.202988 -1.42562 0
M  V30 3962 H 372.002 1.88048 -3.77115 0
M  V30 3963 H 370.726 2.05253 -2.54045 0
M  V30 3964 H 369.385 0.23653 -3.65836 0
M  V30 3965 H 369.033 2.63154 -4.28671 0
M  V30 3966 H 368.733 1.54785 -5.66847 0
M  V30 3967 H 370.257 2.4762 -5.58137 0
M  V30 3968 H 371.671 0.209579 -5.72917 0
M  V30 3969 H 370.068 -0.541962 -5.97648 0
M  V30 3970 H 371.138 -1.16409 -4.7072 0
M  V30 3971 N 372.481 1.55866 -0.233164 0
M  V30 3972 C 373.727 1.98897 0.395959 0
M  V30 3973 C 374.06 1.12091 1.58585 0
M  V30 3974 O 373.335 0.181182 1.93654 0
M  V30 3975 C 373.618 3.50658 0.819224 0
M  V30 3976 C 373.471 4.48233 -0.375109 0
M  V30 3977 C 374.79 4.07135 1.67121 0
M  V30 3978 H 371.909 0.723102 0.142451 0
M  V30 3979 H 374.551 1.87082 -0.331725 0
M  V30 3980 H 372.701 3.60857 1.43925 0
M  V30 3981 H 374.373 4.50031 -1.01341 0
M  V30 3982 H 372.616 4.21624 -1.02058 0
M  V30 3983 H 373.287 5.51988 -0.0358328 0
M  V30 3984 H 375.763 3.99952 1.14795 0
M  V30 3985 H 374.639 5.13615 1.93625 0
M  V30 3986 H 374.9 3.54736 2.63846 0
M  V30 3987 N 373.959 -0.0401083 1.57549 0
M  V30 3988 C 374.906 -1.04413 2.05831 0
M  V30 3989 C 375.876 -1.36585 0.945184 0
M  V30 3990 O 377.061 -1.47112 1.21502 0
M  V30 3991 C 374.201 -2.34336 2.53339 0
M  V30 3992 C 373.314 -2.08419 3.78398 0
M  V30 3993 C 372.449 -3.32133 4.14561 0
M  V30 3994 C 371.488 -3.01721 5.3257 0
M  V30 3995 N 370.625 -4.17855 5.64218 0
M  V30 3996 H 375.465 -0.625442 2.91363 0
M  V30 3997 H 373.002 -0.297218 1.44066 0
M  V30 3998 H 374.96 -3.10234 2.78946 0
M  V30 3999 H 373.59 -2.73948 1.7074 0
M  V30 4000 H 372.642 -1.23069 3.59942 0
M  V30 4001 H 373.954 -1.81978 4.64419 0
M  V30 4002 H 373.108 -4.16406 4.41238 0
M  V30 4003 H 371.847 -3.61678 3.2717 0
M  V30 4004 H 370.852 -2.15849 5.05657 0
M  V30 4005 H 372.077 -2.73466 6.21605 0
M  V30 4006 H 370.023 -4.47372 4.79786 0
M  V30 4007 H 369.94 -3.94798 6.44725 0
M  V30 4008 H 371.208 -5.03033 5.95465 0
M  V30 4009 N 375.437 -1.54477 -0.31217 0
M  V30 4010 C 376.686 -1.72438 -1.04633 0
M  V30 4011 C 376.999 -0.511163 -1.88803 0
M  V30 4012 O 378.205 -0.572341 -2.65399 0
M  V30 4013 C 376.661 -3.05043 -1.9099 0
M  V30 4014 C 376.269 -4.33806 -1.11877 0
M  V30 4015 C 378.013 -3.32364 -2.64073 0
M  V30 4016 C 375.92 -5.57467 -1.97445 0
M  V30 4017 H 374.85 -0.642647 -0.394361 0
M  V30 4018 H 377.501 -1.80966 -0.303929 0
M  V30 4019 H 375.883 -2.90451 -2.69173 0
M  V30 4020 H 377.057 -4.59199 -0.383843 0
M  V30 4021 H 375.372 -4.13336 -0.504252 0
M  V30 4022 H 377.969 -4.21951 -3.28423 0
M  V30 4023 H 378.312 -2.50745 -3.32314 0
M  V30 4024 H 378.845 -3.47875 -1.92944 0
M  V30 4025 H 375.584 -6.41722 -1.33692 0
M  V30 4026 H 375.104 -5.36277 -2.6864 0
M  V30 4027 H 376.783 -5.94303 -2.5576 0
M  V30 4028 N 376.915 0.57481 -1.46744 0
M  V30 4029 C 377.878 1.66533 -1.57478 0
M  V30 4030 C 378.878 1.54338 -0.451263 0
M  V30 4031 O 380.068 1.58814 -0.715813 0
M  V30 4032 C 377.2 3.05999 -1.50259 0
M  V30 4033 H 378.393 1.58372 -2.54673 0
M  V30 4034 H 375.946 0.793301 -1.34672 0
M  V30 4035 H 376.681 3.19709 -0.543725 0
M  V30 4036 H 376.466 3.16259 -2.31781 0
M  V30 4037 H 377.956 3.8537 -1.60872 0
M  V30 4038 N 378.394 1.34581 0.820102 0
M  V30 4039 C 379.805 1.24298 1.39309 0
M  V30 4040 C 380.156 -0.130351 1.95767 0
M  V30 4041 O 379.281 -1.0308 1.90272 0
M  V30 4042 C 379.876 2.25054 2.53251 0
M  V30 4043 C 378.435 2.18552 3.0645 0
M  V30 4044 C 377.582 2.11503 1.79337 0
M  V30 4045 H 380.533 1.45906 0.624262 0
M  V30 4046 H 380.554 1.86917 3.31425 0
M  V30 4047 H 380.066 3.24996 2.1213 0
M  V30 4048 H 378.167 1.21976 3.52069 0
M  V30 4049 H 378.28 3.0993 3.65349 0
M  V30 4050 H 376.644 1.57268 2.00347 0
M  V30 4051 H 377.427 3.13284 1.40386 0
M  V30 4052 N 379.872 -1.04064 1.18357 0
M  V30 4053 C 381.149 -1.74252 0.888581 0
M  V30 4054 C 381.529 -2.02138 -0.60856 0
M  V30 4055 O 380.877 -1.66656 -1.56327 0
M  V30 4056 C 381.087 -3.0277 1.73584 0
M  V30 4057 C 382.435 -3.76506 1.96286 0
M  V30 4058 O 383.459 -3.12668 1.70637 0
M  V30 4059 O 382.318 -4.91243 2.39464 0
M  V30 4060 H 379.412 -0.758271 0.330082 0
M  V30 4061 H 381.958 -1.1013 1.2911 0
M  V30 4062 H 380.73 -2.78299 2.75073 0
M  V30 4063 H 380.353 -3.74631 1.33183 0
M  V30 4064 N 381.35 -0.985608 -1.22978 0
M  V30 4065 C 382.28 -0.549649 -2.26939 0
M  V30 4066 C 383.261 0.419803 -1.64838 0
M  V30 4067 O 384.446 0.31203 -1.91677 0
M  V30 4068 C 381.576 0.143652 -3.47003 0
M  V30 4069 C 380.53 -0.743606 -4.21491 0
M  V30 4070 C 379.856 0.0822027 -5.34637 0
M  V30 4071 C 381.156 -2.03694 -4.80943 0
M  V30 4072 H 382.85 -1.41862 -2.63658 0
M  V30 4073 H 380.396 -0.683571 -1.26741 0
M  V30 4074 H 382.349 0.459985 -4.18882 0
M  V30 4075 H 381.073 1.04711 -3.09359 0
M  V30 4076 H 379.732 -1.04347 -3.51436 0
M  V30 4077 H 379.38 0.986359 -4.93234 0
M  V30 4078 H 379.08 -0.508377 -5.85397 0
M  V30 4079 H 380.604 0.392797 -6.09335 0
M  V30 4080 H 382.018 -1.78504 -5.44802 0
M  V30 4081 H 380.415 -2.57573 -5.42011 0
M  V30 4082 H 381.485 -2.72042 -4.01399 0
M  V30 4083 N 382.828 1.3818 -0.7579 0
M  V30 4084 C 384.056 2.04301 -0.326937 0
M  V30 4085 C 384.471 1.57163 1.0462 0
M  V30 4086 O 383.828 0.746626 1.66529 0
M  V30 4087 C 383.879 3.59846 -0.345363 0
M  V30 4088 O 383.6 4.05256 -1.66432 0
M  V30 4089 C 385.101 4.4319 0.098927 0
M  V30 4090 H 382.321 0.656443 -0.139012 0
M  V30 4091 H 384.865 1.76786 -1.02796 0
M  V30 4092 H 383.02 3.86182 0.306955 0
M  V30 4093 H 383.434 4.99709 -1.59345 0
M  V30 4094 H 384.908 5.51989 0.0348745 0
M  V30 4095 H 385.385 4.23947 1.14741 0
M  V30 4096 H 385.991 4.22051 -0.52468 0
M  V30 4097 N 384.306 0.507319 1.49211 0
M  V30 4098 C 385.531 -0.033725 2.07373 0
M  V30 4099 C 385.956 -1.29485 1.36437 0
M  V30 4100 O 385.314 -1.76294 0.423087 0
M  V30 4101 C 385.362 -0.263945 3.59633 0
M  V30 4102 O 384.466 -1.33737 3.90113 0
M  V30 4103 H 383.807 0.0290331 0.663365 0
M  V30 4104 H 386.337 0.708749 1.91932 0
M  V30 4105 H 386.347 -0.493536 4.05004 0
M  V30 4106 H 385.022 0.657424 4.10671 0
M  V30 4107 H 383.599 -1.09224 3.56545 0
M  V30 4108 N 385.784 -1.5574 0.241426 0
M  V30 4109 C 386.716 -2.18469 -0.693091 0
M  V30 4110 C 387.729 -1.15942 -1.14286 0
M  V30 4111 O 388.918 -1.42832 -1.07058 0
M  V30 4112 C 386.018 -2.7696 -1.95311 0
M  V30 4113 C 385.191 -4.04853 -1.65568 0
M  V30 4114 C 384.25 -4.47715 -2.76474 0
M  V30 4115 O 383.276 -5.14205 -2.44094 0
M  V30 4116 N 384.478 -4.15044 -4.05855 0
M  V30 4117 H 387.243 -2.99292 -0.156388 0
M  V30 4118 H 384.804 -1.61784 0.0611752 0
M  V30 4119 H 386.796 -3.02594 -2.68736 0
M  V30 4120 H 385.366 -2.00326 -2.39975 0
M  V30 4121 H 384.586 -3.86865 -0.756886 0
M  V30 4122 H 385.874 -4.88246 -1.43153 0
M  V30 4123 H 385.272 -3.61654 -4.34998 0
M  V30 4124 H 383.829 -4.45526 -4.75762 0
M  V30 4125 N 387.262 0.0317525 -1.57568 0
M  V30 4126 C 388.539 0.758366 -1.803 0
M  V30 4127 C 388.919 1.93718 -0.838845 0
M  V30 4128 O 388.267 2.28187 0.119571 0
M  V30 4129 C 388.477 1.19392 -3.27943 0
M  V30 4130 C 389.825 1.61094 -3.92854 0
M  V30 4131 O 390.849 1.28857 -3.32076 0
M  V30 4132 O 389.708 2.20918 -4.99858 0
M  V30 4133 H 386.802 0.366514 -0.741348 0
M  V30 4134 H 389.348 0.00873765 -1.69698 0
M  V30 4135 H 388.12 0.352275 -3.89711 0
M  V30 4136 H 387.743 2.00365 -3.43424 0
M  V30 4137 N 388.74 1.54641 0.303973 0
M  V30 4138 C 389.687 1.85386 1.37479 0
M  V30 4139 C 390.657 0.702528 1.50512 0
M  V30 4140 O 391.842 0.950867 1.65418 0
M  V30 4141 C 388.982 2.10413 2.73533 0
M  V30 4142 C 388.095 3.38049 2.68974 0
M  V30 4143 C 387.23 3.52934 3.97002 0
M  V30 4144 C 386.269 4.74373 3.86829 0
M  V30 4145 N 385.406 4.8608 5.06627 0
M  V30 4146 H 390.246 2.76732 1.1056 0
M  V30 4147 H 387.783 1.37034 0.534805 0
M  V30 4148 H 389.741 2.22919 3.52652 0
M  V30 4149 H 388.371 1.22338 2.98719 0
M  V30 4150 H 387.423 3.3418 1.81736 0
M  V30 4151 H 388.735 4.27288 2.57346 0
M  V30 4152 H 387.889 3.65088 4.84557 0
M  V30 4153 H 386.628 2.61824 4.1146 0
M  V30 4154 H 385.633 4.62255 2.97658 0
M  V30 4155 H 386.858 5.66888 3.73918 0
M  V30 4156 H 384.804 3.97891 5.21554 0
M  V30 4157 H 384.721 5.69315 4.9741 0
M  V30 4158 H 385.989 5.02587 5.95841 0
M  V30 4159 N 390.218 -0.567019 1.47046 0
M  V30 4160 C 391.128 -1.70247 1.6141 0
M  V30 4161 C 392.144 -1.66746 0.497157 0
M  V30 4162 O 393.32 -1.86371 0.763389 0
M  V30 4163 C 390.385 -3.06756 1.61561 0
M  V30 4164 C 389.446 -3.21399 2.84607 0
M  V30 4165 C 388.679 -4.51396 2.84741 0
M  V30 4166 O 388.902 -5.36255 1.94388 0
M  V30 4167 O 387.836 -4.69621 3.76483 0
M  V30 4168 H 391.662 -1.61073 2.57467 0
M  V30 4169 H 389.247 -0.735894 1.30019 0
M  V30 4170 H 391.129 -3.8801 1.64396 0
M  V30 4171 H 389.804 -3.16333 0.686684 0
M  V30 4172 H 388.711 -2.39579 2.8732 0
M  V30 4173 H 390.044 -3.16721 3.76761 0
M  V30 4174 N 391.696 -1.35014 -0.812953 0
M  V30 4175 C 392.973 -1.18502 -1.55617 0
M  V30 4176 C 393.353 0.238421 -2.09749 0
M  V30 4177 O 392.701 1.2411 -1.91857 0
M  V30 4178 C 392.911 -2.24783 -2.66971 0
M  V30 4179 C 394.259 -2.60268 -3.35478 0
M  V30 4180 O 395.283 -2.23648 -2.77236 0
M  V30 4181 O 394.142 -3.2321 -4.40678 0
M  V30 4182 H 391.236 -0.459984 -0.687272 0
M  V30 4183 H 393.782 -1.46677 -0.853464 0
M  V30 4184 H 392.554 -3.20284 -2.24798 0
M  V30 4185 H 392.177 -1.97841 -3.44884 0
M  V30 4186 N 393.175 1.03435 -1.18907 0
M  V30 4187 C 394.424 1.76143 -0.982669 0
M  V30 4188 C 394.737 1.89416 0.487953 0
M  V30 4189 O 395.943 2.59041 0.813036 0
M  V30 4190 C 394.399 3.16722 -1.70924 0
M  V30 4191 C 394.007 3.11522 -3.21959 0
M  V30 4192 C 395.751 3.93764 -1.58588 0
M  V30 4193 C 393.658 4.46999 -3.87228 0
M  V30 4194 H 392.588 0.660292 -0.364047 0
M  V30 4195 H 395.239 1.158 -1.42347 0
M  V30 4196 H 393.621 3.775 -1.19623 0
M  V30 4197 H 394.795 2.60158 -3.80335 0
M  V30 4198 H 393.11 2.47978 -3.34508 0
M  V30 4199 H 395.707 4.93963 -2.04707 0
M  V30 4200 H 396.05 4.12794 -0.539142 0
M  V30 4201 H 396.583 3.39576 -2.07203 0
M  V30 4202 H 393.322 4.33174 -4.91976 0
M  V30 4203 H 392.842 4.98441 -3.33642 0
M  V30 4204 H 394.521 5.15898 -3.90459 0
M  V30 4205 N 394.653 0.992116 1.22453 0
M  V30 4206 C 395.616 0.546883 2.2258 0
M  V30 4207 C 396.616 -0.369829 1.56489 0
M  V30 4208 O 397.806 -0.161896 1.73446 0
M  V30 4209 C 394.938 -0.204659 3.40285 0
M  V30 4210 H 396.131 1.43234 2.63484 0
M  V30 4211 H 393.684 0.779239 1.3549 0
M  V30 4212 H 394.419 -1.10614 3.04853 0
M  V30 4213 H 394.204 0.45354 3.89468 0
M  V30 4214 H 395.694 -0.504358 4.14543 0
M  V30 4215 N 396.131 -1.37776 0.765217 0
M  V30 4216 C 397.356 -2.04651 0.336537 0
M  V30 4217 C 397.781 -1.57337 -1.03086 0
M  V30 4218 O 397.139 -0.730621 -1.65927 0
M  V30 4219 C 397.187 -3.58577 0.381468 0
M  V30 4220 O 396.291 -4.07706 -0.62042 0
M  V30 4221 H 395.632 -0.64756 0.146838 0
M  V30 4222 H 398.162 -1.76221 1.03959 0
M  V30 4223 H 398.172 -4.07314 0.236448 0
M  V30 4224 H 396.847 -3.9237 1.37907 0
M  V30 4225 H 395.424 -3.70306 -0.439056 0
M  V30 4226 N 397.609 -0.515225 -1.4894 0
M  V30 4227 C 398.855 0.0242508 -2.02785 0
M  V30 4228 C 399.188 1.35323 -1.39289 0
M  V30 4229 O 398.463 1.87041 -0.533469 0
M  V30 4230 C 398.746 0.16184 -3.59736 0
M  V30 4231 C 398.599 -1.19127 -4.33738 0
M  V30 4232 C 399.918 0.895719 -4.30888 0
M  V30 4233 H 397.037 0.00733914 -0.736963 0
M  V30 4234 H 399.679 -0.669395 -1.77818 0
M  V30 4235 H 397.829 0.752624 -3.8114 0
M  V30 4236 H 399.501 -1.82202 -4.23792 0
M  V30 4237 H 397.744 -1.77695 -3.95736 0
M  V30 4238 H 398.415 -1.04815 -5.41957 0
M  V30 4239 H 400.891 0.394528 -4.14225 0
M  V30 4240 H 399.767 0.960859 -5.40425 0
M  V30 4241 H 400.028 1.9427 -3.97129 0
M  V30 4242 N 399.087 1.5561 -0.249682 0
M  V30 4243 C 400.333 1.99306 0.374841 0
M  V30 4244 C 400.666 1.13767 1.57387 0
M  V30 4245 O 399.941 0.201711 1.93451 0
M  V30 4246 C 400.224 3.51507 0.781986 0
M  V30 4247 C 400.077 4.4781 -0.422629 0
M  V30 4248 C 401.396 4.08884 1.62793 0
M  V30 4249 H 398.515 0.724572 0.134773 0
M  V30 4250 H 401.157 1.86719 -0.351549 0
M  V30 4251 H 399.307 3.62363 1.4009 0
M  V30 4252 H 400.979 4.48931 -1.06108 0
M  V30 4253 H 399.222 4.20518 -1.06524 0
M  V30 4254 H 399.893 5.51919 -0.0943766 0
M  V30 4255 H 402.369 4.01147 1.10547 0
M  V30 4256 H 401.245 5.1564 1.88166 0
M  V30 4257 H 401.506 3.57515 2.60068 0
M  V30 4258 N 400.565 -0.0233959 1.57583 0
M  V30 4259 C 401.512 -1.02224 2.06927 0
M  V30 4260 C 402.482 -1.35575 0.959617 0
M  V30 4261 O 403.667 -1.45815 1.23055 0
M  V30 4262 C 400.807 -2.31636 2.5581 0
M  V30 4263 C 399.92 -2.04394 3.80588 0
M  V30 4264 C 399.055 -3.27717 4.18061 0
M  V30 4265 C 398.094 -2.96056 5.3574 0
M  V30 4266 N 397.231 -4.11847 5.68618 0
M  V30 4267 H 402.071 -0.594504 2.9201 0
M  V30 4268 H 399.608 -0.281921 1.44373 0
M  V30 4269 H 401.566 -3.07258 2.82221 0
M  V30 4270 H 400.196 -2.72122 1.73636 0
M  V30 4271 H 399.248 -1.19244 3.61227 0
M  V30 4272 H 400.56 -1.77042 4.66323 0
M  V30 4273 H 399.714 -4.11702 4.4563 0
M  V30 4274 H 398.453 -3.58188 3.30988 0
M  V30 4275 H 397.458 -2.10474 5.07918 0
M  V30 4276 H 398.683 -2.66857 6.24471 0
M  V30 4277 H 396.629 -4.42258 4.84504 0
M  V30 4278 H 396.546 -3.87938 6.48876 0
M  V30 4279 H 397.814 -4.96689 6.00766 0
M  V30 4280 N 402.043 -1.548 -0.295768 0
M  V30 4281 C 402.953 -1.89177 -1.38742 0
M  V30 4282 C 403.969 -0.786481 -1.55211 0
M  V30 4283 O 405.145 -1.08344 -1.69775 0
M  V30 4284 C 402.21 -2.13663 -2.73036 0
M  V30 4285 C 401.271 -3.37349 -2.65508 0
M  V30 4286 C 400.504 -3.60658 -3.93398 0
M  V30 4287 O 400.727 -2.86882 -4.93006 0
M  V30 4288 O 399.661 -4.54179 -3.94975 0
M  V30 4289 H 403.487 -2.82059 -1.12589 0
M  V30 4290 H 401.072 -1.41056 -0.492295 0
M  V30 4291 H 402.954 -2.3094 -3.52484 0
M  V30 4292 H 401.629 -1.23967 -2.99022 0
M  V30 4293 H 400.536 -3.25431 -1.84514 0
M  V30 4294 H 401.869 -4.27192 -2.44474 0
M  V30 4295 N 403.521 0.559213 -1.47345 0
M  V30 4296 C 404.451 1.67622 -1.62558 0
M  V30 4297 C 405.432 1.63331 -0.475087 0
M  V30 4298 O 406.617 1.80983 -0.704182 0
M  V30 4299 C 403.747 3.0626 -1.63774 0
M  V30 4300 C 402.701 3.25397 -2.7803 0
M  V30 4301 C 402.027 4.64801 -2.64318 0
M  V30 4302 C 403.327 3.10965 -4.19641 0
M  V30 4303 H 405.021 1.55146 -2.56067 0
M  V30 4304 H 402.567 0.744961 -1.23233 0
M  V30 4305 H 404.52 3.84247 -1.73008 0
M  V30 4306 H 403.244 3.1969 -0.66825 0
M  V30 4307 H 401.903 2.49817 -2.68304 0
M  V30 4308 H 401.551 4.75028 -1.65401 0
M  V30 4309 H 401.251 4.78555 -3.40968 0
M  V30 4310 H 402.775 5.44926 -2.75478 0
M  V30 4311 H 404.189 3.78772 -4.30354 0
M  V30 4312 H 402.586 3.36229 -4.97062 0
M  V30 4313 H 403.656 2.07736 -4.38148 0
M  V30 4314 N 404.999 1.35443 0.805782 0
M  V30 4315 C 406.247 1.28507 1.55982 0
M  V30 4316 C 406.568 -0.140046 1.94496 0
M  V30 4317 O 405.838 -1.07666 1.63661 0
M  V30 4318 H 404.418 0.472676 0.578434 0
M  V30 4319 H 407.08 1.69555 0.961098 0
M  V30 4320 H 406.176 1.90148 2.47488 0
M  V30 4321 N 406.477 -1.02803 1.19454 0
M  V30 4322 C 407.726 -1.7562 0.991996 0
M  V30 4323 C 408.039 -1.89672 -0.477901 0
M  V30 4324 O 409.245 -2.59468 -0.799287 0
M  V30 4325 C 407.701 -3.15812 1.72601 0
M  V30 4326 C 407.309 -3.0981 3.23607 0
M  V30 4327 C 409.053 -3.92918 1.60674 0
M  V30 4328 C 406.96 -4.44939 3.89594 0
M  V30 4329 H 405.89 -0.658352 0.367543 0
M  V30 4330 H 408.541 -1.15044 1.42959 0
M  V30 4331 H 406.923 -3.7686 1.21624 0
M  V30 4332 H 408.097 -2.58138 3.81709 0
M  V30 4333 H 406.412 -2.46201 3.35819 0
M  V30 4334 H 409.009 -4.9287 2.07323 0
M  V30 4335 H 409.352 -4.12502 0.561025 0
M  V30 4336 H 409.885 -3.38472 2.09001 0
M  V30 4337 H 406.624 -4.30559 4.94267 0
M  V30 4338 H 406.144 -4.96664 3.36281 0
M  V30 4339 H 407.823 -5.1382 3.93189 0
M  V30 4340 N 407.956 -0.998596 -1.21925 0
M  V30 4341 C 409.233 -0.593401 -1.86382 0
M  V30 4342 C 409.613 0.92916 -1.89552 0
M  V30 4343 O 408.961 1.81347 -1.39017 0
M  V30 4344 C 409.171 -1.22039 -3.26967 0
M  V30 4345 C 410.519 -1.32449 -4.03413 0
M  V30 4346 O 411.543 -1.17522 -3.36254 0
M  V30 4347 O 410.402 -1.56395 -5.23644 0
M  V30 4348 H 407.496 -0.202385 -0.801854 0
M  V30 4349 H 410.042 -1.09484 -1.29659 0
M  V30 4350 H 408.814 -2.26158 -3.19325 0
M  V30 4351 H 408.437 -0.704906 -3.91301 0
M  V30 4352 N 409.434 1.37368 -0.772513 0
M  V30 4353 C 410.682 1.99279 -0.336516 0
M  V30 4354 C 411.003 1.6163 1.09091 0
M  V30 4355 O 410.273 0.882109 1.74916 0
M  V30 4356 H 408.853 0.737063 -0.121435 0
M  V30 4357 H 411.515 1.67836 -0.990809 0
M  V30 4358 H 410.611 3.09332 -0.414763 0
M  V30 4359 N 410.912 0.523116 1.48665 0
M  V30 4360 C 411.842 -0.23231 2.32342 0
M  V30 4361 C 412.823 -0.941637 1.41659 0
M  V30 4362 O 414.008 -0.928751 1.70552 0
M  V30 4363 C 411.138 -1.28387 3.22698 0
M  V30 4364 C 410.092 -0.693098 4.22351 0
M  V30 4365 C 409.418 -1.8468 5.01794 0
M  V30 4366 C 410.718 0.33063 5.21252 0
M  V30 4367 H 412.412 0.466192 2.95748 0
M  V30 4368 H 409.958 0.225643 1.42221 0
M  V30 4369 H 411.911 -1.82024 3.80059 0
M  V30 4370 H 410.635 -2.01186 2.57278 0
M  V30 4371 H 409.294 -0.178299 3.66166 0
M  V30 4372 H 408.942 -2.56301 4.32804 0
M  V30 4373 H 408.642 -1.45747 5.69238 0
M  V30 4374 H 410.166 -2.38709 5.62006 0
M  V30 4375 H 411.58 -0.118407 5.73178 0
M  V30 4376 H 409.977 0.636974 5.9671 0
M  V30 4377 H 411.047 1.23883 4.68808 0
M  V30 4378 N 412.39 -1.55475 0.257931 0
M  V30 4379 C 413.639 -1.98383 -0.364275 0
M  V30 4380 C 413.952 -1.14952 -1.58258 0
M  V30 4381 O 415.158 -1.47924 -2.27664 0
M  V30 4382 C 413.614 -3.53037 -0.699479 0
M  V30 4383 C 413.222 -4.45223 0.498046 0
M  V30 4384 C 414.966 -4.04575 -1.28526 0
M  V30 4385 C 412.873 -5.91238 0.138383 0
M  V30 4386 H 411.803 -0.740911 -0.13988 0
M  V30 4387 H 414.454 -1.79936 0.359883 0
M  V30 4388 H 412.836 -3.6722 -1.48207 0
M  V30 4389 H 414.01 -4.42803 1.27522 0
M  V30 4390 H 412.325 -4.04226 0.999503 0
M  V30 4391 H 414.922 -5.11196 -1.56788 0
M  V30 4392 H 415.265 -3.5258 -2.21344 0
M  V30 4393 H 415.798 -3.93762 -0.565337 0
M  V30 4394 H 412.537 -6.47294 1.03398 0
M  V30 4395 H 412.057 -5.96768 -0.602374 0
M  V30 4396 H 413.736 -6.46413 -0.27553 0
M  V30 4397 N 413.868 0.0150385 -1.57593 0
M  V30 4398 C 415.114 0.704043 -1.90187 0
M  V30 4399 C 415.447 1.74249 -0.857366 0
M  V30 4400 O 414.722 1.94092 0.125843 0
M  V30 4401 C 415.005 1.36087 -3.33395 0
M  V30 4402 C 414.858 0.334981 -4.48551 0
M  V30 4403 C 416.177 2.29112 -3.7576 0
M  V30 4404 H 413.296 0.254475 -0.691673 0
M  V30 4405 H 415.938 -0.0331678 -1.89971 0
M  V30 4406 H 414.088 1.98922 -3.3371 0
M  V30 4407 H 415.76 -0.292534 -4.60372 0
M  V30 4408 H 414.003 -0.344325 -4.32431 0
M  V30 4409 H 414.674 0.833316 -5.45674 0
M  V30 4410 H 417.15 1.76308 -3.76902 0
M  V30 4411 H 416.026 2.72043 -4.76743 0
M  V30 4412 H 416.287 3.16385 -3.08793 0
M  V30 4413 N 415.346 1.54954 0.287554 0
M  V30 4414 C 416.574 1.78881 1.03967 0
M  V30 4415 C 416.989 0.554894 1.80462 0
M  V30 4416 O 416.346 -0.475676 1.76192 0
M  V30 4417 C 416.397 3.00488 2.0097 0
M  V30 4418 O 416.118 4.19113 1.27577 0
M  V30 4419 C 417.619 3.36907 2.88112 0
M  V30 4420 H 414.839 0.596259 0.307761 0
M  V30 4421 H 417.383 2.01937 0.322749 0
M  V30 4422 H 415.538 2.79601 2.68145 0
M  V30 4423 H 415.952 4.87765 1.92835 0
M  V30 4424 H 417.426 4.25205 3.52001 0
M  V30 4425 H 417.903 2.55659 3.57121 0
M  V30 4426 H 418.509 3.60001 2.26449 0
M  V30 4427 N 416.824 -0.551391 1.4764 0
M  V30 4428 C 417.772 -1.67896 1.60978 0
M  V30 4429 C 418.766 -1.62549 0.476877 0
M  V30 4430 O 419.972 -1.67664 0.654878 0
M  V30 4431 H 416.347 -0.555649 0.506713 0
M  V30 4432 H 418.318 -1.53784 2.55721 0
M  V30 4433 C 417.067 -3.06234 1.64669 0
M  V30 4434 H 416.39 -3.11033 2.51194 0
M  V30 4435 H 417.83 -3.84804 1.7805 0
M  V30 4436 C 416.289 -3.34737 0.381115 0
M  V30 4437 O 416.819 -3.98381 -0.515297 0
M  V30 4438 N 415.025 -2.8944 0.259354 0
M  V30 4439 H 414.572 -2.37827 0.98976 0
M  V30 4440 H 414.53 -3.08882 -0.586464 0
M  V30 4441 N 418.302 -1.35869 -0.798587 0
M  V30 4442 C 419.53 -1.32722 -1.58722 0
M  V30 4443 C 419.945 0.0935631 -1.88568 0
M  V30 4444 O 419.302 1.04784 -1.49421 0
M  V30 4445 C 419.353 -2.13974 -2.91371 0
M  V30 4446 O 419.074 -3.50514 -2.62815 0
M  V30 4447 C 420.575 -2.18504 -3.85708 0
M  V30 4448 H 417.795 -0.45562 -0.492596 0
M  V30 4449 H 420.339 -1.78837 -0.991843 0
M  V30 4450 H 418.494 -1.71438 -3.47402 0
M  V30 4451 H 418.908 -3.92806 -3.47568 0
M  V30 4452 H 420.382 -2.79732 -4.75872 0
M  V30 4453 H 420.859 -1.18597 -4.22885 0
M  V30 4454 H 421.465 -2.61236 -3.35612 0
M  V30 4455 N 419.78 1.02168 -1.19998 0
M  V30 4456 C 421.008 1.79296 -1.03249 0
M  V30 4457 C 421.423 1.84103 0.418502 0
M  V30 4458 O 420.78 1.29031 1.29063 0
M  V30 4459 C 420.831 3.24007 -1.60319 0
M  V30 4460 O 420.552 3.19512 -2.99739 0
M  V30 4461 C 422.053 4.17704 -1.48453 0
M  V30 4462 H 419.273 0.564016 -0.363493 0
M  V30 4463 H 421.817 1.28639 -1.58973 0
M  V30 4464 H 419.972 3.7183 -1.08727 0
M  V30 4465 H 420.386 4.10306 -3.26725 0
M  V30 4466 H 421.86 5.17104 -1.93153 0
M  V30 4467 H 422.337 4.37029 -0.436193 0
M  V30 4468 H 422.943 3.7576 -1.99211 0
M  V30 4469 N 421.258 1.00505 1.21394 0
M  V30 4470 C 422.504 0.688793 1.90745 0
M  V30 4471 C 422.837 -0.778486 1.77914 0
M  V30 4472 O 422.112 -1.56433 1.15581 0
M  V30 4473 C 422.395 1.11063 3.42545 0
M  V30 4474 C 422.248 2.63737 3.64367 0
M  V30 4475 C 423.567 0.673059 4.34923 0
M  V30 4476 H 420.686 0.251702 0.692687 0
M  V30 4477 H 423.328 1.25074 1.43026 0
M  V30 4478 H 421.478 0.632508 3.83317 0
M  V30 4479 H 423.15 3.19313 3.32922 0
M  V30 4480 H 421.393 3.05248 3.08231 0
M  V30 4481 H 422.064 2.88305 4.70727 0
M  V30 4482 H 424.54 1.08392 4.01734 0
M  V30 4483 H 423.416 0.996383 5.39781 0
M  V30 4484 H 423.677 -0.425808 4.40045 0
M  V30 4485 N 422.737 -1.36956 0.779787 0
M  V30 4486 C 423.962 -2.04283 0.358224 0
M  V30 4487 C 424.387 -1.58422 -1.01411 0
M  V30 4488 O 423.745 -0.748179 -1.65142 0
M  V30 4489 C 423.793 -3.58152 0.419479 0
M  V30 4490 O 422.897 -4.08342 -0.577142 0
M  V30 4491 H 422.238 -0.645967 0.153698 0
M  V30 4492 H 424.768 -1.75108 1.05822 0
M  V30 4493 H 424.778 -4.07041 0.279636 0
M  V30 4494 H 423.453 -3.90886 1.42061 0
M  V30 4495 H 422.03 -3.70751 -0.399755 0
M  V30 4496 N 424.215 -0.530993 -1.48385 0
M  V30 4497 C 425.631 -0.188919 -1.58478 0
M  V30 4498 C 425.831 1.30786 -1.53288 0
M  V30 4499 O 424.887 2.08619 -1.42248 0
M  V30 4500 C 426.2 -0.792343 -2.90073 0
M  V30 4501 C 427.748 -0.76117 -3.03604 0
M  V30 4502 C 428.223 -1.34319 -4.37861 0
M  V30 4503 N 429.714 -1.3052 -4.44431 0
M  V30 4504 C 430.449 -1.72543 -5.46824 0
M  V30 4505 N 429.945 -2.22299 -6.56167 0
M  V30 4506 N 431.738 -1.63773 -5.37712 0
M  V30 4507 H 423.889 -1.50377 -1.50002 0
M  V30 4508 H 426.152 -0.625559 -0.712306 0
M  V30 4509 H 425.858 -1.84323 -2.99529 0
M  V30 4510 H 425.732 -0.270026 -3.76232 0
M  V30 4511 H 428.119 0.280957 -2.93759 0
M  V30 4512 H 428.2 -1.32097 -2.19053 0
M  V30 4513 H 427.844 -2.38425 -4.4846 0
M  V30 4514 H 427.774 -0.759064 -5.21101 0
M  V30 4515 H 430.265 -0.940973 -3.65997 0
M  V30 4516 H 430.578 -2.52356 -7.30436 0
M  V30 4517 H 428.923 -2.26293 -6.57127 0
M  V30 4518 H 432.114 -1.24698 -4.51185 0
M  V30 4519 H 432.287 -1.96844 -6.17379 0
M  V30 4520 N 425.693 1.55336 -0.266172 0
M  V30 4521 C 427.104 1.85236 0.233315 0
M  V30 4522 C 427.455 1.18816 1.56132 0
M  V30 4523 O 426.58 0.473307 2.11161 0
M  V30 4524 C 427.175 3.36059 0.430113 0
M  V30 4525 C 425.734 3.66116 0.873842 0
M  V30 4526 C 424.881 2.77274 -0.0380016 0
M  V30 4527 H 427.832 1.51004 -0.488214 0
M  V30 4528 H 427.853 3.58681 1.26998 0
M  V30 4529 H 427.365 3.84373 -0.536588 0
M  V30 4530 H 425.466 3.23295 1.85233 0
M  V30 4531 H 425.579 4.73699 0.717358 0
M  V30 4532 H 423.943 2.50198 0.476759 0
M  V30 4533 H 424.726 3.284 -1.00042 0
M  V30 4534 N 427.171 -0.0066808 1.57599 0
M  V30 4535 C 428.134 -0.985035 2.06953 0
M  V30 4536 C 429.134 -1.27663 0.977687 0
M  V30 4537 O 430.324 -1.22293 1.24057 0
M  V30 4538 C 427.456 -2.3118 2.50536 0
M  V30 4539 H 428.649 -0.558255 2.94658 0
M  V30 4540 H 426.202 -0.254011 1.54222 0
M  V30 4541 H 426.937 -2.78561 1.66054 0
M  V30 4542 H 426.722 -2.11338 3.3027 0
M  V30 4543 H 428.212 -3.01377 2.8907 0
M  V30 4544 N 428.649 -1.55105 -0.279332 0
M  V30 4545 C 429.897 -1.75066 -1.00977 0
M  V30 4546 C 430.218 -0.551276 -1.87045 0
M  V30 4547 O 429.488 0.433984 -1.91032 0
M  V30 4548 H 428.068 -0.645578 -0.375816 0
M  V30 4549 H 430.73 -1.92497 -0.305089 0
M  V30 4550 H 429.826 -2.64894 -1.65038 0
M  V30 4551 N 430.127 0.543554 -1.4793 0
M  V30 4552 C 431.057 1.65888 -1.64327 0
M  V30 4553 C 432.038 1.62818 -0.492383 0
M  V30 4554 O 433.223 1.80226 -0.723338 0
M  V30 4555 C 430.353 3.04506 -1.67013 0
M  V30 4556 C 429.307 3.2243 -2.81466 0
M  V30 4557 C 428.633 4.61972 -2.69233 0
M  V30 4558 C 429.933 3.06496 -4.22915 0
M  V30 4559 H 431.627 1.52421 -2.57698 0
M  V30 4560 H 429.173 0.731849 -1.24016 0
M  V30 4561 H 431.126 3.82391 -1.77074 0
M  V30 4562 H 429.85 3.18964 -0.70212 0
M  V30 4563 H 428.509 2.46957 -2.70938 0
M  V30 4564 H 428.157 4.73247 -1.7043 0
M  V30 4565 H 427.857 4.74911 -3.46025 0
M  V30 4566 H 429.381 5.41974 -2.81242 0
M  V30 4567 H 430.795 3.74186 -4.34348 0
M  V30 4568 H 429.192 3.30938 -5.006 0
M  V30 4569 H 430.262 2.03077 -4.40327 0
M  V30 4570 N 431.605 1.3629 0.791371 0
M  V30 4571 C 432.537 1.26321 1.91248 0
M  V30 4572 C 433.55 0.18313 1.61767 0
M  V30 4573 O 434.739 0.437682 1.73051 0
M  V30 4574 C 431.839 0.925901 3.26007 0
M  V30 4575 C 431.012 2.10746 3.83281 0
M  V30 4576 C 430.071 1.74352 4.96475 0
M  V30 4577 O 429.097 2.46416 5.13096 0
M  V30 4578 N 430.299 0.676058 5.7655 0
M  V30 4579 H 433.064 2.22915 2.00323 0
M  V30 4580 H 430.625 1.29659 0.969546 0
M  V30 4581 H 432.617 0.663636 3.99222 0
M  V30 4582 H 431.187 0.0491581 3.12561 0
M  V30 4583 H 430.407 2.53264 3.02077 0
M  V30 4584 H 431.695 2.8969 4.18279 0
M  V30 4585 H 431.093 0.0776467 5.65647 0
M  V30 4586 H 429.65 0.473612 6.50077 0
M  V30 4587 N 433.083 -1.0153 1.20538 0
M  V30 4588 C 434.331 -1.74803 1.01432 0
M  V30 4589 C 434.652 -1.8963 -0.454456 0
M  V30 4590 O 433.922 -1.43975 -1.32846 0
M  V30 4591 H 432.502 -0.647598 0.372324 0
M  V30 4592 H 435.164 -1.22402 1.5167 0
M  V30 4593 H 434.26 -2.75114 1.47373 0
M  V30 4594 N 434.561 -1.01147 -1.20859 0
M  V30 4595 C 435.524 -0.582224 -2.21682 0
M  V30 4596 C 436.524 0.344887 -1.57058 0
M  V30 4597 O 437.714 0.134281 -1.73682 0
M  V30 4598 C 434.846 0.150496 -3.40568 0
M  V30 4599 H 436.039 -1.47408 -2.61172 0
M  V30 4600 H 433.592 -0.800695 -1.34233 0
M  V30 4601 H 434.327 1.0575 -3.06574 0
M  V30 4602 H 434.112 -0.515444 -3.88697 0
M  V30 4603 H 435.602 0.438344 -4.15293 0
M  V30 4604 N 436.039 1.36541 -0.78704 0
M  V30 4605 C 436.969 2.32659 -0.197992 0
M  V30 4606 C 437.95 1.56533 0.665697 0
M  V30 4607 O 439.135 1.84698 0.60001 0
M  V30 4608 C 436.265 3.40778 0.669901 0
M  V30 4609 C 435.219 4.27897 -0.0937039 0
M  V30 4610 C 434.545 5.27163 0.894629 0
M  V30 4611 C 435.845 5.06334 -1.28154 0
M  V30 4612 H 437.539 2.82171 -1.00099 0
M  V30 4613 H 435.085 1.35665 -0.482793 0
M  V30 4614 H 437.038 4.07008 1.09191 0
M  V30 4615 H 435.762 2.89827 1.50558 0
M  V30 4616 H 434.421 3.6322 -0.49666 0
M  V30 4617 H 434.069 4.72486 1.72527 0
M  V30 4618 H 433.769 5.86317 0.388149 0
M  V30 4619 H 435.293 5.96266 1.31525 0
M  V30 4620 H 436.707 5.65617 -0.93541 0
M  V30 4621 H 435.104 5.74888 -1.72115 0
M  V30 4622 H 436.174 4.38114 -2.07807 0
M  V30 4623 N 437.518 0.538854 1.48102 0
M  V30 4624 C 438.934 0.19732 1.58376 0
M  V30 4625 C 439.134 -1.29971 1.5398 0
M  V30 4626 O 438.19 -2.07861 1.43352 0
M  V30 4627 C 439.503 0.807716 2.89649 0
M  V30 4628 C 441.051 0.77726 3.03196 0
M  V30 4629 C 441.526 1.36639 4.37143 0
M  V30 4630 N 443.017 1.32875 4.43732 0
M  V30 4631 C 443.752 1.7544 5.45901 0
M  V30 4632 N 443.248 2.25776 6.54979 0
M  V30 4633 N 445.041 1.66623 5.36836 0
M  V30 4634 H 437.192 1.5117 1.49202 0
M  V30 4635 H 439.455 0.629327 0.708979 0
M  V30 4636 H 439.161 1.85909 2.98548 0
M  V30 4637 H 439.035 0.289975 3.76084 0
M  V30 4638 H 441.422 -0.265374 2.93904 0
M  V30 4639 H 441.503 1.33256 2.18349 0
M  V30 4640 H 441.147 2.408 4.47189 0
M  V30 4641 H 441.077 0.786689 5.20691 0
M  V30 4642 H 443.568 0.96037 3.65493 0
M  V30 4643 H 443.881 2.56226 7.29087 0
M  V30 4644 H 442.226 2.29775 6.55918 0
M  V30 4645 H 445.417 1.27089 4.50517 0
M  V30 4646 H 445.59 2.00115 6.16326 0
M  V30 4647 N 438.996 -1.55193 0.274407 0
M  V30 4648 C 440.221 -2.04446 -0.348824 0
M  V30 4649 C 440.646 -1.15149 -1.48735 0
M  V30 4650 O 440.004 -0.149952 -1.80679 0
M  V30 4651 C 440.052 -3.51431 -0.808009 0
M  V30 4652 O 439.156 -3.65225 -1.91531 0
M  V30 4653 H 438.497 -0.66006 -0.0722276 0
M  V30 4654 H 441.027 -2.00481 0.408498 0
M  V30 4655 H 441.037 -3.92781 -1.10395 0
M  V30 4656 H 439.712 -4.15892 0.0249865 0
M  V30 4657 H 438.289 -3.35778 -1.62196 0
M  V30 4658 N 440.474 -0.00167713 -1.576 0
M  V30 4659 C 441.384 1.00548 -2.1196 0
M  V30 4660 C 442.4 1.3758 -1.06526 0
M  V30 4661 O 443.576 1.46278 -1.38436 0
M  V30 4662 C 440.641 2.27809 -2.6135 0
M  V30 4663 C 439.702 1.97074 -3.81393 0
M  V30 4664 C 438.935 3.18267 -4.28417 0
M  V30 4665 O 439.158 4.30009 -3.74765 0
M  V30 4666 O 438.092 3.02167 -5.20556 0
M  V30 4667 H 441.918 0.573373 -2.98238 0
M  V30 4668 H 439.503 0.217255 -1.47812 0
M  V30 4669 H 441.385 3.02568 -2.93309 0
M  V30 4670 H 440.06 2.70254 -1.78169 0
M  V30 4671 H 438.967 1.19785 -3.54404 0
M  V30 4672 H 440.3 1.59464 -4.65652 0
M  V30 4673 N 441.952 1.55251 0.271103 0
M  V30 4674 C 443.18 1.79974 1.02064 0
M  V30 4675 C 443.595 0.574003 1.79863 0
M  V30 4676 O 442.952 -0.456962 1.76686 0
M  V30 4677 C 443.003 3.02603 1.97772 0
M  V30 4678 O 442.724 4.20443 1.23124 0
M  V30 4679 C 444.225 3.39944 2.84522 0
M  V30 4680 H 441.445 0.599489 0.301419 0
M  V30 4681 H 443.989 2.02268 0.301313 0
M  V30 4682 H 442.144 2.8243 2.65165 0
M  V30 4683 H 442.558 4.89783 1.87651 0
M  V30 4684 H 444.032 4.28915 3.47471 0
M  V30 4685 H 444.509 2.59432 3.54389 0
M  V30 4686 H 445.115 3.62383 2.22618 0
M  V30 4687 N 443.43 -0.535701 1.48216 0
M  V30 4688 C 444.678 -1.28928 1.55634 0
M  V30 4689 C 444.999 -1.93645 0.229514 0
M  V30 4690 O 444.269 -1.81038 -0.74846 0
M  V30 4691 H 442.849 -0.47884 0.573342 0
M  V30 4692 H 445.511 -0.623853 1.84646 0
M  V30 4693 H 444.607 -2.07157 2.33436 0
M  V30 4694 N 444.908 -1.36708 -0.784132 0
M  V30 4695 C 446.156 -1.30972 -1.53918 0
M  V30 4696 C 446.477 0.109086 -1.94695 0
M  V30 4697 O 445.747 1.05048 -1.65353 0
M  V30 4698 H 444.327 -0.481819 -0.570841 0
M  V30 4699 H 446.989 -1.71063 -0.934002 0
M  V30 4700 H 446.085 -1.94061 -2.44431 0
M  V30 4701 N 446.386 1.0089 -1.21074 0
M  V30 4702 C 447.316 2.1145 -0.990523 0
M  V30 4703 C 448.297 1.69897 0.0831699 0
M  V30 4704 O 449.482 1.94052 -0.0758853 0
M  V30 4705 C 446.612 3.42914 -0.550177 0
M  V30 4706 C 445.566 3.98244 -1.56799 0
M  V30 4707 C 444.892 5.25568 -0.984013 0
M  V30 4708 C 446.192 4.30752 -2.95381 0
M  V30 4709 H 447.886 2.3013 -1.91521 0
M  V30 4710 H 445.432 1.10592 -0.92225 0
M  V30 4711 H 447.385 4.19653 -0.383305 0
M  V30 4712 H 446.109 3.24014 0.41015 0
M  V30 4713 H 444.768 3.23621 -1.72236 0
M  V30 4714 H 444.416 5.02998 -0.0155216 0
M  V30 4715 H 444.116 5.63551 -1.66384 0
M  V30 4716 H 445.64 6.04955 -0.828378 0
M  V30 4717 H 447.054 4.98349 -2.8341 0
M  V30 4718 H 445.451 4.79869 -3.60341 0
M  V30 4719 H 446.521 3.39192 -3.46521 0
M  V30 4720 N 447.864 1.01787 1.20321 0
M  V30 4721 C 449.089 0.727009 1.9424 0
M  V30 4722 C 449.514 -0.706179 1.74341 0
M  V30 4723 O 448.872 -1.48609 1.03852 0
M  V30 4724 C 448.92 1.06958 3.44372 0
M  V30 4725 O 448.024 0.181983 4.11998 0
M  V30 4726 H 447.365 0.269626 0.606793 0
M  V30 4727 H 449.895 1.36158 1.52716 0
M  V30 4728 H 449.905 1.02182 3.94997 0
M  V30 4729 H 448.58 2.11378 3.58179 0
M  V30 4730 H 447.157 0.287378 3.71791 0
M  V30 4731 N 449.342 -1.36122 0.79427 0
M  V30 4732 C 450.59 -1.98718 0.368177 0
M  V30 4733 C 450.911 -1.63345 -1.06506 0
M  V30 4734 O 450.181 -0.909825 -1.73491 0
M  V30 4735 H 448.761 -0.735038 0.133146 0
M  V30 4736 H 451.423 -1.66239 1.01739 0
M  V30 4737 H 450.519 -3.08633 0.463923 0
M  V30 4738 N 450.82 -0.546701 -1.47814 0
M  V30 4739 C 451.767 0.206854 -2.29871 0
M  V30 4740 C 452.737 0.918235 -1.38411 0
M  V30 4741 O 453.922 0.915991 -1.67375 0
M  V30 4742 C 451.062 1.23746 -3.22151 0
M  V30 4743 C 450.175 0.533216 -4.28697 0
M  V30 4744 C 449.31 1.5482 -5.08138 0
M  V30 4745 C 448.349 0.828347 -6.06469 0
M  V30 4746 N 447.486 1.78966 -6.78908 0
M  V30 4747 H 452.326 -0.499037 -2.93792 0
M  V30 4748 H 449.863 -0.25793 -1.44821 0
M  V30 4749 H 451.821 1.84746 -3.74065 0
M  V30 4750 H 450.451 1.91151 -2.60117 0
M  V30 4751 H 449.503 -0.191089 -3.7992 0
M  V30 4752 H 450.815 -0.0311987 -4.9879 0
M  V30 4753 H 449.969 2.23202 -5.6415 0
M  V30 4754 H 448.708 2.14652 -4.37922 0
M  V30 4755 H 447.713 0.130539 -5.49645 0
M  V30 4756 H 448.938 0.235907 -6.7869 0
M  V30 4757 H 446.884 2.37675 -6.1143 0
M  V30 4758 H 446.801 1.27712 -7.45135 0
M  V30 4759 H 448.069 2.46496 -7.395 0
M  V30 4760 N 452.299 1.55045 -0.282633 0
M  V30 4761 C 453.71 1.85473 0.213655 0
M  V30 4762 C 454.061 1.20465 1.54863 0
M  V30 4763 O 453.186 0.495676 2.10647 0
M  V30 4764 C 453.781 3.36496 0.394445 0
M  V30 4765 C 452.34 3.67022 0.834961 0
M  V30 4766 C 451.487 2.77218 -0.0674081 0
M  V30 4767 H 454.438 1.50478 -0.504202 0
M  V30 4768 H 454.459 3.60007 1.23186 0
M  V30 4769 H 453.971 3.83782 -0.577326 0
M  V30 4770 H 452.072 3.25241 1.81794 0
M  V30 4771 H 452.185 4.74433 0.667075 0
M  V30 4772 H 450.549 2.5069 0.450196 0
M  V30 4773 H 451.332 3.2732 -1.0352 0
M  V30 4774 N 453.777 0.010035 1.57597 0
M  V30 4775 C 454.707 -0.976857 2.12084 0
M  V30 4776 C 455.688 -1.35191 1.03235 0
M  V30 4777 O 456.873 -1.43389 1.3097 0
M  V30 4778 C 454.003 -2.26548 2.63236 0
M  V30 4779 C 452.957 -2.03175 3.76701 0
M  V30 4780 C 452.283 -3.38138 4.14206 0
M  V30 4781 C 453.583 -1.38625 5.03568 0
M  V30 4782 H 455.277 -0.523145 2.94794 0
M  V30 4783 H 452.823 -0.250195 1.4181 0
M  V30 4784 H 454.776 -2.95952 2.99984 0
M  V30 4785 H 453.5 -2.74051 1.77661 0
M  V30 4786 H 452.159 -1.36195 3.40362 0
M  V30 4787 H 451.807 -3.83363 3.25641 0
M  V30 4788 H 451.507 -3.23312 4.90656 0
M  V30 4789 H 453.031 -4.08841 4.53521 0
M  V30 4790 H 454.445 -1.98 5.38023 0
M  V30 4791 H 452.842 -1.34256 5.84889 0
M  V30 4792 H 453.912 -0.356722 4.83586 0
M  V30 4793 N 455.255 -1.55392 -0.262866 0
M  V30 4794 C 456.671 -1.47459 -0.610582 0
M  V30 4795 C 456.871 -0.697031 -1.8906 0
M  V30 4796 O 455.927 -0.219952 -2.5154 0
M  V30 4797 C 457.24 -2.91751 -0.728131 0
M  V30 4798 C 458.788 -3.02027 -0.821517 0
M  V30 4799 C 459.263 -4.47594 -0.97076 0
M  V30 4800 N 460.754 -4.51465 -1.03603 0
M  V30 4801 C 461.489 -5.61326 -1.17049 0
M  V30 4802 N 460.985 -6.81032 -1.2715 0
M  V30 4803 N 462.778 -5.49089 -1.20239 0
M  V30 4804 H 454.929 -2.04395 0.577632 0
M  V30 4805 H 457.192 -0.927287 0.197086 0
M  V30 4806 H 456.898 -3.51413 0.142132 0
M  V30 4807 H 456.772 -3.4134 -1.6052 0
M  V30 4808 H 459.159 -2.42456 -1.68224 0
M  V30 4809 H 459.24 -2.55674 0.0803688 0
M  V30 4810 H 458.884 -5.07771 -0.114655 0
M  V30 4811 H 458.814 -4.91613 -1.88745 0
M  V30 4812 H 461.305 -3.6524 -0.96996 0
M  V30 4813 H 461.618 -7.60511 -1.37271 0
M  V30 4814 H 459.963 -6.83824 -1.24136 0
M  V30 4815 H 463.154 -4.54507 -1.11985 0
M  V30 4816 H 463.327 -6.34749 -1.30373 0
M  V30 4817 N 456.733 0.527833 -1.48498 0
M  V30 4818 C 458.01 1.28905 -1.47115 0
M  V30 4819 C 458.39 2.10297 -0.184007 0
M  V30 4820 O 457.738 2.12728 0.834218 0
M  V30 4821 C 457.948 2.16866 -2.73441 0
M  V30 4822 C 459.296 2.76936 -3.21857 0
M  V30 4823 O 460.32 2.27152 -2.74373 0
M  V30 4824 O 459.179 3.67496 -4.04486 0
M  V30 4825 H 456.273 0.581918 -0.587623 0
M  V30 4826 H 458.819 0.544311 -1.60734 0
M  V30 4827 H 457.591 1.56521 -3.58632 0
M  V30 4828 H 457.214 2.98583 -2.62553 0
M  V30 4829 N 458.211 1.37122 0.776871 0
M  V30 4830 C 459.141 1.35164 1.90402 0
M  V30 4831 C 460.122 0.221069 1.68657 0
M  V30 4832 O 461.307 0.420642 1.8959 0
M  V30 4833 C 458.437 1.15274 3.27611 0
M  V30 4834 C 457.391 2.25289 3.63908 0
M  V30 4835 C 456.717 1.90527 4.99603 0
M  V30 4836 C 458.017 3.67446 3.71188 0
M  V30 4837 H 459.711 2.29482 1.92297 0
M  V30 4838 H 457.257 1.10465 0.923773 0
M  V30 4839 H 459.21 1.12536 4.06096 0
M  V30 4840 H 457.934 0.174102 3.26136 0
M  V30 4841 H 456.593 2.27174 2.87728 0
M  V30 4842 H 456.241 0.91206 4.94662 0
M  V30 4843 H 455.941 2.64193 5.24858 0
M  V30 4844 H 457.465 1.89367 5.80493 0
M  V30 4845 H 458.879 3.67719 4.39836 0
M  V30 4846 H 457.276 4.40123 4.07936 0
M  V30 4847 H 458.346 4.01443 2.71977 0
M  V30 4848 N 459.689 -1.00246 1.21608 0
M  V30 4849 C 460.914 -1.78167 1.06167 0
M  V30 4850 C 461.339 -1.84138 -0.384035 0
M  V30 4851 O 460.697 -1.28683 -1.27712 0
M  V30 4852 C 460.745 -3.19786 1.66642 0
M  V30 4853 O 459.849 -4.02153 0.913613 0
M  V30 4854 H 459.19 -0.549 0.37349 0
M  V30 4855 H 461.72 -1.25994 1.61204 0
M  V30 4856 H 461.73 -3.70451 1.70969 0
M  V30 4857 H 460.405 -3.14754 2.7185 0
M  V30 4858 H 458.982 -3.60711 0.945635 0
M  V30 4859 N 461.167 -1.02423 -1.1978 0
M  V30 4860 C 462.395 -0.737456 -1.93311 0
M  V30 4861 C 462.81 0.703023 -1.75223 0
M  V30 4862 O 462.167 1.47761 -1.07112 0
M  V30 4863 C 462.218 -1.0733 -3.45199 0
M  V30 4864 O 461.939 -2.4572 -3.62702 0
M  V30 4865 C 463.44 -0.80866 -4.35862 0
M  V30 4866 H 460.66 -0.2702 -0.614193 0
M  V30 4867 H 463.204 -1.36747 -1.52054 0
M  V30 4868 H 461.359 -0.488545 -3.84307 0
M  V30 4869 H 461.773 -2.58081 -4.56612 0
M  V30 4870 H 463.247 -1.09365 -5.41057 0
M  V30 4871 H 463.724 0.257025 -4.38447 0
M  V30 4872 H 464.33 -1.37592 -4.02428 0
M  V30 4873 N 462.645 1.35699 -0.801477 0
M  V30 4874 C 463.577 2.28598 -0.166028 0
M  V30 4875 C 464.59 1.50044 0.631721 0
M  V30 4876 O 465.779 1.72339 0.464921 0
M  V30 4877 C 462.879 3.29625 0.787451 0
M  V30 4878 C 462.052 4.37384 0.037171 0
M  V30 4879 C 461.111 5.183 0.908375 0
M  V30 4880 O 460.137 5.68053 0.361189 0
M  V30 4881 N 461.339 5.35912 2.23112 0
M  V30 4882 H 464.104 2.83771 -0.964071 0
M  V30 4883 H 461.665 1.47994 -0.656469 0
M  V30 4884 H 463.657 3.80648 1.37439 0
M  V30 4885 H 462.227 2.75004 1.48632 0
M  V30 4886 H 461.447 3.87364 -0.730935 0
M  V30 4887 H 462.735 5.0653 -0.480109 0
M  V30 4888 H 462.133 4.97125 2.69968 0
M  V30 4889 H 460.69 5.90133 2.76741 0
M  V30 4890 N 464.123 0.554532 1.47522 0
M  V30 4891 C 465.351 0.034257 2.06872 0
M  V30 4892 C 465.766 -1.25826 1.40759 0
M  V30 4893 O 465.123 -1.75425 0.503217 0
M  V30 4894 C 465.174 -0.167827 3.6111 0
M  V30 4895 O 464.895 1.07351 4.24744 0
M  V30 4896 C 466.396 -0.72569 4.3732 0
M  V30 4897 H 463.616 0.0446275 0.669514 0
M  V30 4898 H 466.16 0.767181 1.89564 0
M  V30 4899 H 464.315 -0.850872 3.7794 0
M  V30 4900 H 464.729 0.869563 5.17242 0
M  V30 4901 H 466.203 -0.816394 5.45929 0
M  V30 4902 H 466.68 -1.73635 4.0342 0
M  V30 4903 H 467.286 -0.0784292 4.25228 0
M  V30 4904 N 465.601 -1.54893 0.290851 0
M  V30 4905 C 466.85 -1.99111 -0.322113 0
M  V30 4906 C 467.163 -1.18283 -1.55784 0
M  V30 4907 O 468.369 -1.5272 -2.24475 0
M  V30 4908 C 466.825 -3.54442 -0.624438 0
M  V30 4909 C 466.433 -4.44066 0.592373 0
M  V30 4910 C 468.177 -4.07211 -1.19916 0
M  V30 4911 C 466.084 -5.90812 0.263762 0
M  V30 4912 H 465.014 -0.743712 -0.124133 0
M  V30 4913 H 467.665 -1.79132 0.39797 0
M  V30 4914 H 466.047 -3.70281 -1.40384 0
M  V30 4915 H 467.221 -4.39999 1.36886 0
M  V30 4916 H 465.536 -4.02015 1.08502 0
M  V30 4917 H 468.133 -5.14407 -1.45909 0
M  V30 4918 H 468.476 -3.57196 -2.13815 0
M  V30 4919 H 469.009 -3.94873 -0.481687 0
M  V30 4920 H 465.748 -6.44955 1.17105 0
M  V30 4921 H 465.268 -5.97911 -0.475655 0
M  V30 4922 H 466.947 -6.46852 -0.138354 0
M  V30 4923 N 467.08 -0.0183926 -1.57589 0
M  V30 4924 C 468.496 0.337897 -1.55982 0
M  V30 4925 C 468.696 1.73604 -1.02294 0
M  V30 4926 O 467.752 2.43589 -0.664895 0
M  V30 4927 C 469.065 0.196305 -3.00059 0
M  V30 4928 C 470.613 0.269875 -3.11834 0
M  V30 4929 C 471.088 0.157197 -4.5773 0
M  V30 4930 N 472.579 0.214521 -4.62703 0
M  V30 4931 C 473.314 0.150955 -5.73201 0
M  V30 4932 N 472.81 0.0369212 -6.9279 0
M  V30 4933 N 474.603 0.204162 -5.61729 0
M  V30 4934 H 466.754 -0.93279 -1.90821 0
M  V30 4935 H 469.017 -0.359253 -0.877292 0
M  V30 4936 H 468.723 -0.766383 -3.43248 0
M  V30 4937 H 468.597 0.970908 -3.6449 0
M  V30 4938 H 470.984 1.22302 -2.68563 0
M  V30 4939 H 471.065 -0.534918 -2.50144 0
M  V30 4940 H 470.709 -0.792479 -5.01679 0
M  V30 4941 H 470.639 0.980717 -5.17387 0
M  V30 4942 H 473.13 0.303238 -3.76681 0
M  V30 4943 H 473.443 -0.00518321 -7.728 0
M  V30 4944 H 471.788 0.0022886 -6.95 0
M  V30 4945 H 474.979 0.291575 -4.67191 0
M  V30 4946 H 475.152 0.15116 -6.47824 0
M  V30 4947 N 468.558 1.5553 0.254621 0
M  V30 4948 C 469.468 1.92789 1.33677 0
M  V30 4949 C 470.484 0.827356 1.53071 0
M  V30 4950 O 471.66 1.12807 1.66843 0
M  V30 4951 C 468.725 2.20827 2.67275 0
M  V30 4952 C 467.786 3.4427 2.5647 0
M  V30 4953 C 467.019 3.70961 3.83697 0
M  V30 4954 O 467.242 2.99852 4.85227 0
M  V30 4955 O 466.176 4.64491 3.82794 0
M  V30 4956 H 470.002 2.84945 1.05071 0
M  V30 4957 H 467.587 1.42312 0.454723 0
M  V30 4958 H 469.469 2.40204 3.46237 0
M  V30 4959 H 468.144 1.31851 2.9563 0
M  V30 4960 H 467.051 3.30209 1.75821 0
M  V30 4961 H 468.384 4.33524 2.33062 0
M  V30 4962 N 470.036 -0.519951 1.48776 0
M  V30 4963 C 470.969 -1.64053 1.58625 0
M  V30 4964 C 471.947 -1.5664 0.43618 0
M  V30 4965 O 473.131 -1.76969 0.649159 0
M  V30 4966 C 470.258 -3.02497 1.52359 0
M  V30 4967 C 469.304 -3.28235 2.72331 0
M  V30 4968 S 470.137 -3.13414 4.34203 0
M  V30 4969 C 471.293 -4.54287 4.30551 0
M  V30 4970 H 471.526 -1.5545 2.53422 0
M  V30 4971 H 469.059 -0.703681 1.37433 0
M  V30 4972 H 471.017 -3.82336 1.4943 0
M  V30 4973 H 469.678 -3.08531 0.588824 0
M  V30 4974 H 468.871 -4.29256 2.64113 0
M  V30 4975 H 468.473 -2.56085 2.72574 0
M  V30 4976 H 470.765 -5.46006 4.01103 0
M  V30 4977 H 471.708 -4.67558 5.31785 0
M  V30 4978 H 472.116 -4.34079 3.60881 0
M  V30 4979 N 471.514 -1.37532 -0.769588 0
M  V30 4980 C 472.744 -1.35861 -1.55645 0
M  V30 4981 C 473.152 0.0574398 -1.89113 0
M  V30 4982 O 472.495 1.03021 -1.52093 0
M  V30 4983 C 472.557 -2.13431 -2.89288 0
M  V30 4984 C 472.221 -3.62378 -2.78444 0
M  V30 4985 C 473.218 -4.56215 -2.49326 0
M  V30 4986 C 470.903 -4.05529 -2.96398 0
M  V30 4987 C 472.897 -5.91181 -2.38294 0
M  V30 4988 C 470.584 -5.40579 -2.84987 0
M  V30 4989 C 471.582 -6.33218 -2.55975 0
M  V30 4990 O 471.27 -7.65787 -2.44594 0
M  V30 4991 H 471.002 -0.467001 -0.48876 0
M  V30 4992 H 473.556 -1.81505 -0.961515 0
M  V30 4993 H 471.786 -1.62481 -3.50909 0
M  V30 4994 H 473.475 -2.04368 -3.50697 0
M  V30 4995 H 474.241 -4.24187 -2.35139 0
M  V30 4996 H 470.12 -3.33781 -3.1798 0
M  V30 4997 H 473.664 -6.63457 -2.15571 0
M  V30 4998 H 469.561 -5.72209 -2.98743 0
M  V30 4999 H 470.329 -7.76132 -2.59927 0
M  V30 5000 N 472.992 0.995999 -1.22138 0
M  V30 5001 C 473.955 2.06711 -0.990109 0
M  V30 5002 C 474.955 1.60744 0.0422978 0
M  V30 5003 O 476.145 1.73095 -0.195895 0
M  V30 5004 C 473.277 3.37288 -0.49491 0
M  V30 5005 H 474.47 2.28661 -1.94047 0
M  V30 5006 H 472.023 1.16711 -1.03963 0
M  V30 5007 H 472.758 3.21022 0.459948 0
M  V30 5008 H 472.543 3.71986 -1.23971 0
M  V30 5009 H 474.033 4.16103 -0.353253 0
M  V30 5010 N 474.47 1.03057 1.19235 0
M  V30 5011 C 475.4 0.633497 2.24742 0
M  V30 5012 C 476.381 -0.358335 1.66283 0
M  V30 5013 O 477.566 -0.240676 1.92703 0
M  V30 5014 C 474.696 -0.0147648 3.47297 0
M  V30 5015 C 473.65 0.899527 4.18441 0
M  V30 5016 C 472.976 0.116281 5.34574 0
M  V30 5017 C 474.276 2.21404 4.73051 0
M  V30 5018 H 475.97 1.5155 2.58211 0
M  V30 5019 H 473.516 0.73014 1.24117 0
M  V30 5020 H 475.469 -0.304202 4.20301 0
M  V30 5021 H 474.193 -0.931577 3.13032 0
M  V30 5022 H 472.852 1.17319 3.47321 0
M  V30 5023 H 472.5 -0.802619 4.96555 0
M  V30 5024 H 472.2 0.725293 5.83107 0
M  V30 5025 H 473.724 -0.166376 6.10373 0
M  V30 5026 H 475.138 1.98601 5.37802 0
M  V30 5027 H 473.535 2.77512 5.32078 0
M  V30 5028 H 474.605 2.86752 3.91026 0
M  V30 5029 N 475.948 -1.35272 0.808662 0
M  V30 5030 C 477.176 -2.02946 0.402537 0
M  V30 5031 C 477.591 -1.60937 -0.987147 0
M  V30 5032 O 476.948 -0.807917 -1.63643 0
M  V30 5033 C 476.999 -3.58317 0.47868 0
M  V30 5034 O 476.72 -3.98799 1.81358 0
M  V30 5035 C 478.221 -4.43251 0.0656281 0
M  V30 5036 H 475.441 -0.650831 0.163279 0
M  V30 5037 H 477.985 -1.72849 1.09286 0
M  V30 5038 H 476.14 -3.87055 -0.163415 0
M  V30 5039 H 476.554 -4.93451 1.77781 0
M  V30 5040 H 478.028 -5.51738 0.170017 0
M  V30 5041 H 478.505 -4.27913 -0.989278 0
M  V30 5042 H 479.111 -4.19813 0.68096 0
M  V30 5043 N 477.426 -0.562348 -1.47226 0
M  V30 5044 C 478.358 0.220011 -2.28142 0
M  V30 5045 C 479.371 0.874596 -1.37312 0
M  V30 5046 O 480.56 0.747583 -1.62091 0
M  V30 5047 C 477.66 1.32953 -3.11732 0
M  V30 5048 C 476.833 0.770759 -4.30556 0
M  V30 5049 C 475.892 1.76541 -4.95701 0
M  V30 5050 O 474.918 1.3095 -5.53932 0
M  V30 5051 N 476.12 3.09896 -4.90861 0
M  V30 5052 H 478.885 -0.474107 -2.95926 0
M  V30 5053 H 476.446 -0.398761 -1.56912 0
M  V30 5054 H 478.438 1.99378 -3.5218 0
M  V30 5055 H 477.008 1.92681 -2.46156 0
M  V30 5056 H 476.228 -0.0704056 -3.94137 0
M  V30 5057 H 477.516 0.376872 -5.07402 0
M  V30 5058 H 476.914 3.49577 -4.44761 0
M  V30 5059 H 475.471 3.71865 -5.35313 0
M  V30 5060 N 478.904 1.54736 -0.299062 0
M  V30 5061 C 480.152 1.99706 0.31017 0
M  V30 5062 C 480.473 1.18896 1.54559 0
M  V30 5063 O 479.743 0.284445 1.93824 0
M  V30 5064 H 478.323 0.737686 0.117596 0
M  V30 5065 H 480.985 1.9054 -0.409943 0
M  V30 5066 H 480.081 3.06596 0.58355 0
M  V30 5067 N 480.382 0.0267497 1.57577 0
M  V30 5068 C 481.798 -0.32962 1.56159 0
M  V30 5069 C 481.998 -1.73059 1.03213 0
M  V30 5070 O 481.054 -2.43233 0.677804 0
M  V30 5071 C 482.367 -0.18039 3.00158 0
M  V30 5072 C 483.915 -0.253334 3.11973 0
M  V30 5073 C 484.39 -0.132921 4.57807 0
M  V30 5074 N 485.881 -0.189979 4.6281 0
M  V30 5075 C 486.616 -0.120554 5.73273 0
M  V30 5076 N 486.112 -0.000180315 6.928 0
M  V30 5077 N 487.905 -0.174369 5.61829 0
M  V30 5078 H 480.056 0.942896 1.90324 0
M  V30 5079 H 482.319 0.3639 0.875375 0
M  V30 5080 H 482.025 0.784576 3.42837 0
M  V30 5081 H 481.899 -0.951565 3.65 0
M  V30 5082 H 484.286 -1.20876 2.69208 0
M  V30 5083 H 484.367 0.548177 2.49857 0
M  V30 5084 H 484.011 0.819073 5.01252 0
M  V30 5085 H 483.941 -0.953264 5.179 0
M  V30 5086 H 486.432 -0.283257 3.76837 0
M  V30 5087 H 486.745 0.0461666 7.72786 0
M  V30 5088 H 485.09 0.034569 6.94991 0
M  V30 5089 H 488.281 -0.266794 4.67339 0
M  V30 5090 H 488.454 -0.116802 6.47895 0
M  V30 5091 N 481.861 -1.55662 -0.24637 0
M  V30 5092 C 483.107 -1.77782 -0.975779 0
M  V30 5093 C 483.44 -0.592103 -1.84953 0
M  V30 5094 O 482.715 0.409588 -1.90138 0
M  V30 5095 C 482.998 -3.09788 -1.83584 0
M  V30 5096 C 482.851 -4.38764 -0.990241 0
M  V30 5097 C 484.17 -3.38029 -2.81823 0
M  V30 5098 H 481.289 -0.646789 -0.353317 0
M  V30 5099 H 483.931 -1.88398 -0.246248 0
M  V30 5100 H 482.081 -3.00869 -2.45784 0
M  V30 5101 H 483.753 -4.59675 -0.386897 0
M  V30 5102 H 481.996 -4.32798 -0.294626 0
M  V30 5103 H 482.667 -5.27514 -1.62584 0
M  V30 5104 H 485.143 -3.46915 -2.2976 0
M  V30 5105 H 484.019 -4.3161 -3.39122 0
M  V30 5106 H 484.28 -2.58968 -3.58313 0
M  V30 5107 N 483.339 0.512053 -1.4905 0
M  V30 5108 C 484.75 1.09376 -1.51307 0
M  V30 5109 C 485.101 1.94 -0.292971 0
M  V30 5110 O 484.226 2.07965 0.598277 0
M  V30 5111 C 484.821 1.99031 -2.74176 0
M  V30 5112 C 483.38 2.52385 -2.79247 0
M  V30 5113 C 482.527 1.29749 -2.45073 0
M  V30 5114 H 485.478 0.296467 -1.55906 0
M  V30 5115 H 485.499 2.83569 -2.53711 0
M  V30 5116 H 485.011 1.37412 -3.62959 0
M  V30 5117 H 483.112 3.17673 -1.94716 0
M  V30 5118 H 483.225 2.90293 -3.81139 0
M  V30 5119 H 481.589 1.61912 -1.96612 0
M  V30 5120 H 482.372 0.698555 -3.36118 0
M  V30 5121 N 484.817 1.37938 0.762283 0
M  V30 5122 C 486.066 1.32989 1.51647 0
M  V30 5123 C 486.379 -0.0802922 1.95435 0
M  V30 5124 O 487.585 -0.252295 2.70325 0
M  V30 5125 C 486.041 2.33485 2.73885 0
M  V30 5126 C 485.649 3.80079 2.37157 0
M  V30 5127 C 487.393 2.37563 3.51801 0
M  V30 5128 C 485.3 4.72283 3.55954 0
M  V30 5129 H 484.23 0.494301 0.56937 0
M  V30 5130 H 486.881 1.63448 0.834083 0
M  V30 5131 H 485.263 1.96056 3.44061 0
M  V30 5132 H 486.437 4.26398 1.74704 0
M  V30 5133 H 484.752 3.79037 1.72395 0
M  V30 5134 H 487.349 3.0365 4.40114 0
M  V30 5135 H 487.692 1.39199 3.92338 0
M  V30 5136 H 488.225 2.73747 2.8863 0
M  V30 5137 H 484.964 5.7181 3.2049 0
M  V30 5138 H 484.484 4.30663 4.1748 0
M  V30 5139 H 486.163 4.89876 4.22647 0
M  V30 5140 N 486.295 -0.989507 1.22664 0
M  V30 5141 C 487.544 -1.72375 1.04737 0
M  V30 5142 C 487.857 -1.91096 -0.417316 0
M  V30 5143 O 489.063 -2.6188 -0.716334 0
M  V30 5144 C 487.519 -3.10161 1.82561 0
M  V30 5145 C 487.127 -2.99358 3.333 0
M  V30 5146 C 488.871 -3.87607 1.73093 0
M  V30 5147 C 486.778 -4.32319 4.03552 0
M  V30 5148 H 485.708 -0.646326 0.388302 0
M  V30 5149 H 488.359 -1.10437 1.46546 0
M  V30 5150 H 486.741 -3.728 1.33552 0
M  V30 5151 H 487.915 -2.45863 3.89728 0
M  V30 5152 H 486.23 -2.35392 3.43481 0
M  V30 5153 H 488.827 -4.86025 2.22899 0
M  V30 5154 H 489.17 -4.10509 0.691976 0
M  V30 5155 H 489.703 -3.31652 2.19663 0
M  V30 5156 H 486.442 -4.14616 5.07714 0
M  V30 5157 H 485.962 -4.85714 3.51911 0
M  V30 5158 H 487.641 -5.01051 4.09337 0
M  V30 5159 N 487.773 -1.03688 -1.18687 0
M  V30 5160 C 489.021 -0.736572 -1.88199 0
M  V30 5161 C 489.342 0.737665 -1.80509 0
M  V30 5162 O 488.612 1.53204 -1.22088 0
M  V30 5163 H 487.192 -0.269466 -0.696704 0
M  V30 5164 H 489.854 -1.31282 -1.44052 0
M  V30 5165 H 488.95 -1.03802 -2.94332 0
M  V30 5166 N 489.251 1.34841 -0.815825 0
M  V30 5167 C 490.497 1.98793 -0.401129 0
M  V30 5168 C 490.83 1.64548 1.03139 0
M  V30 5169 O 490.105 0.913487 1.71714 0
M  V30 5170 C 490.388 3.55143 -0.595409 0
M  V30 5171 C 490.241 3.99155 -2.07352 0
M  V30 5172 C 491.56 4.40092 -0.0268823 0
M  V30 5173 H 488.679 0.722146 -0.14722 0
M  V30 5174 H 491.321 1.59847 -1.02707 0
M  V30 5175 H 489.471 3.8845 -0.0625779 0
M  V30 5176 H 491.143 3.76216 -2.66945 0
M  V30 5177 H 489.386 3.49726 -2.56659 0
M  V30 5178 H 490.057 5.07971 -2.1603 0
M  V30 5179 H 492.533 4.13298 -0.482042 0
M  V30 5180 H 491.409 5.48562 -0.19267 0
M  V30 5181 H 491.67 4.29016 1.06759 0
M  V30 5182 N 490.729 0.570148 1.46925 0
M  V30 5183 C 491.977 0.0508523 2.02036 0
M  V30 5184 C 492.298 -1.30885 1.44548 0
M  V30 5185 O 491.568 -1.85647 0.625453 0
M  V30 5186 H 490.148 0.0158088 0.746833 0
M  V30 5187 H 492.81 0.743086 1.80178 0
M  V30 5188 H 491.906 -0.027575 3.12088 0
M  V30 5189 N 492.207 -1.54576 0.307264 0
M  V30 5190 C 493.455 -1.99867 -0.299574 0
M  V30 5191 C 493.776 -1.19714 -1.53927 0
M  V30 5192 O 493.046 -0.29472 -1.9367 0
M  V30 5193 H 491.626 -0.738299 -0.113683 0
M  V30 5194 H 494.288 -1.9032 0.420042 0
M  V30 5195 H 493.384 -3.06901 -0.567283 0
M  V30 5196 N 493.685 -0.035106 -1.57561 0
M  V30 5197 C 494.931 0.64318 -1.92331 0
M  V30 5198 C 495.264 1.71434 -0.912368 0
M  V30 5199 O 494.539 1.94395 0.0640303 0
M  V30 5200 C 494.822 1.25411 -3.37556 0
M  V30 5201 C 494.675 0.192109 -4.4939 0
M  V30 5202 C 495.994 2.17041 -3.82859 0
M  V30 5203 H 493.113 0.232341 -0.699419 0
M  V30 5204 H 495.755 -0.0935889 -1.89769 0
M  V30 5205 H 493.905 1.88205 -3.39869 0
M  V30 5206 H 495.577 -0.438849 -4.59208 0
M  V30 5207 H 493.82 -0.481725 -4.31117 0
M  V30 5208 H 494.491 0.659292 -5.48049 0
M  V30 5209 H 496.967 1.64228 -3.8232 0
M  V30 5210 H 495.843 2.56738 -4.85157 0
M  V30 5211 H 496.104 3.06401 -3.18702 0
M  V30 5212 N 495.163 1.55791 0.238111 0
M  V30 5213 C 496.388 1.8244 0.986432 0
M  V30 5214 C 496.813 0.613314 1.7782 0
M  V30 5215 O 496.171 -0.437767 1.75935 0
M  V30 5216 C 496.219 3.06917 1.893 0
M  V30 5217 O 495.323 2.84449 2.98601 0
M  V30 5218 H 494.664 0.601975 0.280218 0
M  V30 5219 H 497.194 2.02987 0.256437 0
M  V30 5220 H 497.204 3.36583 2.30598 0
M  V30 5221 H 495.879 3.947 1.31091 0
M  V30 5222 H 494.456 2.65972 2.61368 0
M  V30 5223 N 496.642 -0.504142 1.49319 0
M  V30 5224 C 497.867 -1.28729 1.62615 0
M  V30 5225 C 498.292 -1.85752 0.296309 0
M  V30 5226 O 497.65 -1.65704 -0.735649 0
M  V30 5227 C 497.698 -2.39561 2.69524 0
M  V30 5228 O 496.802 -3.43324 2.28478 0
M  V30 5229 H 496.143 -0.380172 0.544395 0
M  V30 5230 H 498.673 -0.603872 1.95485 0
M  V30 5231 H 498.683 -2.8537 2.91595 0
M  V30 5232 H 497.358 -1.97423 3.66056 0
M  V30 5233 H 495.935 -3.03455 2.16725 0
M  V30 5234 N 498.12 -1.38341 -0.754957 0
M  V30 5235 C 499.368 -1.34208 -1.51105 0
M  V30 5236 C 499.689 0.0677634 -1.94882 0
M  V30 5237 O 498.959 1.01517 -1.67544 0
M  V30 5238 H 497.539 -0.493819 -0.560493 0
M  V30 5239 H 500.201 -1.73005 -0.897507 0
M  V30 5240 H 499.297 -1.99203 -2.4026 0
M  V30 5241 N 499.598 0.982988 -1.23187 0
M  V30 5242 C 500.53 2.07729 -0.968572 0
M  V30 5243 C 501.543 1.62702 0.0564821 0
M  V30 5244 O 502.732 1.77603 -0.178733 0
M  V30 5245 C 499.832 3.36071 -0.436974 0
M  V30 5246 C 499.005 4.10081 -1.52159 0
M  V30 5247 C 498.064 5.16701 -0.99532 0
M  V30 5248 O 497.09 5.43727 -1.68373 0
M  V30 5249 N 498.292 5.80226 0.178192 0
M  V30 5250 H 501.057 2.30894 -1.9107 0
M  V30 5251 H 498.618 1.14949 -1.1401 0
M  V30 5252 H 500.61 4.04639 -0.0700051 0
M  V30 5253 H 499.18 3.09893 0.410509 0
M  V30 5254 H 498.4 3.36004 -2.06144 0
M  V30 5255 H 499.688 4.56295 -2.25105 0
M  V30 5256 H 499.086 5.60651 0.754096 0
M  V30 5257 H 497.643 6.49982 0.486449 0
M  V30 5258 N 501.076 1.04316 1.18135 0
M  V30 5259 C 502.353 0.662166 1.84051 0
M  V30 5260 C 502.733 -0.858169 1.9287 0
M  V30 5261 O 502.081 -1.76062 1.45652 0
M  V30 5262 C 502.291 1.3409 3.22212 0
M  V30 5263 C 503.639 1.4733 3.9822 0
M  V30 5264 O 504.663 1.29921 3.31661 0
M  V30 5265 O 503.522 1.75722 5.17479 0
M  V30 5266 H 500.616 0.232005 0.79379 0
M  V30 5267 H 503.162 1.1422 1.25506 0
M  V30 5268 H 501.934 2.37853 3.10711 0
M  V30 5269 H 501.557 0.849649 3.88416 0
M  V30 5270 N 502.554 -1.34406 0.822964 0
M  V30 5271 C 503.517 -2.2783 0.250271 0
M  V30 5272 C 504.517 -1.50288 -0.571854 0
M  V30 5273 O 505.707 -1.69825 -0.387952 0
M  V30 5274 C 502.839 -3.34663 -0.649137 0
M  V30 5275 H 504.032 -2.79992 1.07444 0
M  V30 5276 H 501.585 -1.44539 0.594829 0
M  V30 5277 H 502.32 -2.87714 -1.49637 0
M  V30 5278 H 502.105 -3.92052 -0.0611199 0
M  V30 5279 H 503.595 -4.04349 -1.04363 0
M  V30 5280 N 504.032 -0.577932 -1.46621 0
M  V30 5281 C 504.962 0.145917 -2.33044 0
M  V30 5282 C 505.943 0.888412 -1.45056 0
M  V30 5283 O 507.128 0.864812 -1.73881 0
M  V30 5284 C 504.258 1.16322 -3.27241 0
M  V30 5285 C 503.212 0.535868 -4.24632 0
M  V30 5286 C 502.538 1.65929 -5.08303 0
M  V30 5287 C 503.838 -0.523861 -5.19666 0
M  V30 5288 H 505.532 -0.575636 -2.93814 0
M  V30 5289 H 503.078 -0.278272 -1.41286 0
M  V30 5290 H 505.031 1.67793 -3.86553 0
M  V30 5291 H 503.755 1.91498 -2.64567 0
M  V30 5292 H 502.414 0.0422759 -3.66576 0
M  V30 5293 H 502.062 2.40061 -4.42018 0
M  V30 5294 H 501.762 1.2452 -5.74255 0
M  V30 5295 H 503.286 2.17686 -5.70478 0
M  V30 5296 H 504.7 -0.0944059 -5.73222 0
M  V30 5297 H 503.097 -0.858 -5.93935 0
M  V30 5298 H 504.167 -1.41197 -4.63887 0
M  V30 5299 N 505.51 1.54411 -0.315457 0
M  V30 5300 C 506.42 2.27737 0.56329 0
M  V30 5301 C 507.436 1.31787 1.13614 0
M  V30 5302 O 508.612 1.64791 1.15784 0
M  V30 5303 C 505.677 3.01478 1.71207 0
M  V30 5304 C 504.738 4.12997 1.17185 0
M  V30 5305 C 503.971 4.83212 2.26588 0
M  V30 5306 O 504.194 4.52884 3.46775 0
M  V30 5307 O 503.128 5.70299 1.92463 0
M  V30 5308 H 506.954 3.03683 -0.0319614 0
M  V30 5309 H 504.539 1.49178 -0.0814188 0
M  V30 5310 H 506.421 3.47683 2.38106 0
M  V30 5311 H 505.096 2.28414 2.29366 0
M  V30 5312 H 504.003 3.71159 0.468174 0
M  V30 5313 H 505.336 4.8808 0.635501 0
M  V30 5314 N 506.988 0.0434614 1.5754 0
M  V30 5315 C 507.935 -0.93356 2.11077 0
M  V30 5316 C 508.905 -1.31383 1.01626 0
M  V30 5317 O 510.09 -1.40465 1.29129 0
M  V30 5318 C 507.23 -2.20578 2.65404 0
M  V30 5319 C 506.343 -1.88068 3.88914 0
M  V30 5320 C 505.478 -3.09691 4.31584 0
M  V30 5321 C 504.517 -2.73067 5.47815 0
M  V30 5322 N 503.654 -3.87359 5.85574 0
M  V30 5323 H 508.494 -0.470118 2.94268 0
M  V30 5324 H 506.031 -0.220434 1.45439 0
M  V30 5325 H 507.989 -2.95011 2.94999 0
M  V30 5326 H 506.619 -2.64513 1.85021 0
M  V30 5327 H 505.671 -1.03816 3.6596 0
M  V30 5328 H 506.983 -1.57104 4.73413 0
M  V30 5329 H 506.137 -3.92431 4.62691 0
M  V30 5330 H 504.876 -3.43827 3.45882 0
M  V30 5331 H 503.881 -1.88742 5.16388 0
M  V30 5332 H 505.106 -2.40131 6.35227 0
M  V30 5333 H 503.052 -4.21311 5.02825 0
M  V30 5334 H 502.969 -3.60068 6.64746 0
M  V30 5335 H 504.237 -4.70761 6.21292 0
M  V30 5336 N 508.466 -1.55915 -0.229846 0
M  V30 5337 C 509.715 -1.77742 -0.953455 0
M  V30 5338 C 510.028 -0.610524 -1.85828 0
M  V30 5339 O 511.234 -0.712219 -2.61992 0
M  V30 5340 C 509.69 -3.14738 -1.74551 0
M  V30 5341 C 509.298 -4.39126 -0.887242 0
M  V30 5342 C 511.042 -3.45895 -2.46084 0
M  V30 5343 C 508.949 -5.67149 -1.67617 0
M  V30 5344 H 507.879 -0.662648 -0.359741 0
M  V30 5345 H 510.53 -1.82322 -0.207576 0
M  V30 5346 H 508.912 -3.04311 -2.53399 0
M  V30 5347 H 510.086 -4.60588 -0.139892 0
M  V30 5348 H 508.401 -4.15427 -0.284443 0
M  V30 5349 H 510.998 -4.38767 -3.05594 0
M  V30 5350 H 511.341 -2.68007 -3.18556 0
M  V30 5351 H 511.874 -3.57614 -1.74233 0
M  V30 5352 H 508.613 -6.47906 -0.994881 0
M  V30 5353 H 508.133 -5.49763 -2.39836 0
M  V30 5354 H 509.812 -6.07025 -2.23898 0
M  V30 5355 N 509.944 0.496216 -1.49584 0
M  V30 5356 C 511.36 0.827814 -1.36453 0
M  V30 5357 C 511.56 1.97464 -0.401285 0
M  V30 5358 O 510.616 2.51958 0.165296 0
M  V30 5359 C 511.929 1.16352 -2.77277 0
M  V30 5360 C 513.477 1.27145 -2.86013 0
M  V30 5361 C 513.952 1.64042 -4.27615 0
M  V30 5362 N 515.443 1.71082 -4.30448 0
M  V30 5363 C 516.178 2.01085 -5.36984 0
M  V30 5364 N 515.674 2.2928 -6.5376 0
M  V30 5365 N 517.467 2.02376 -5.24405 0
M  V30 5366 H 509.618 -0.259947 -2.10803 0
M  V30 5367 H 511.881 -0.0537163 -0.946477 0
M  V30 5368 H 511.587 0.394153 -3.49484 0
M  V30 5369 H 511.461 2.10582 -3.12946 0
M  V30 5370 H 513.848 2.03152 -2.1404 0
M  V30 5371 H 513.929 0.309542 -2.5392 0
M  V30 5372 H 513.573 0.88583 -5.00115 0
M  V30 5373 H 513.503 2.6134 -4.57175 0
M  V30 5374 H 515.994 1.51434 -3.46232 0
M  V30 5375 H 516.307 2.51376 -7.30774 0
M  V30 5376 H 514.652 2.26726 -6.56978 0
M  V30 5377 H 517.843 1.79829 -4.32179 0
M  V30 5378 H 518.016 2.25425 -6.07526 0
M  V30 5379 N 511.423 1.38739 0.74761 0
M  V30 5380 C 512.386 1.36241 1.84312 0
M  V30 5381 C 513.386 0.261811 1.58654 0
M  V30 5382 O 514.576 0.519031 1.66288 0
M  V30 5383 C 511.708 1.12253 3.21888 0
M  V30 5384 H 512.901 2.33712 1.87933 0
M  V30 5385 H 510.454 1.2412 0.949946 0
M  V30 5386 H 511.189 0.154133 3.23934 0
M  V30 5387 H 510.974 1.91943 3.41907 0
M  V30 5388 H 512.464 1.13215 4.0196 0
M  V30 5389 N 512.901 -0.976442 1.23707 0
M  V30 5390 C 514.149 -1.71487 1.06942 0
M  V30 5391 C 514.47 -1.9098 -0.393897 0
M  V30 5392 O 513.74 -1.48128 -1.28198 0
M  V30 5393 H 512.32 -0.635425 0.392739 0
M  V30 5394 H 514.982 -1.17515 1.55487 0
M  V30 5395 H 514.078 -2.70286 1.56051 0
M  V30 5396 N 514.379 -1.04941 -1.1758 0
M  V30 5397 C 515.342 -0.652456 -2.19717 0
M  V30 5398 C 516.342 0.294745 -1.58076 0
M  V30 5399 O 517.532 0.0789579 -1.74021 0
M  V30 5400 C 514.664 0.0420712 -3.40874 0
M  V30 5401 H 515.857 -1.55642 -2.5635 0
M  V30 5402 H 513.41 -0.842995 -1.31618 0
M  V30 5403 H 514.145 0.95943 -3.09783 0
M  V30 5404 H 513.93 -0.638844 -3.86861 0
M  V30 5405 H 515.42 0.306 -4.16477 0
M  V30 5406 N 515.857 1.33968 -0.830081 0
M  V30 5407 C 517.082 2.02813 -0.433796 0
M  V30 5408 C 517.507 1.62076 0.954614 0
M  V30 5409 O 516.865 0.808955 1.62252 0
M  V30 5410 C 516.913 3.56348 -0.552115 0
M  V30 5411 O 516.017 4.10202 0.425191 0
M  V30 5412 H 515.358 0.639817 -0.177567 0
M  V30 5413 H 517.888 1.7106 -1.12248 0
M  V30 5414 H 517.898 4.05722 -0.430513 0
M  V30 5415 H 516.573 3.85344 -1.56471 0
M  V30 5416 H 515.15 3.71979 0.261878 0
M  V30 5417 N 517.335 0.585699 1.46312 0
M  V30 5418 C 518.265 -0.133556 2.33118 0
M  V30 5419 C 519.246 -0.880707 1.45525 0
M  V30 5420 O 520.431 -0.855579 1.74337 0
M  V30 5421 C 517.561 -1.14585 3.27853 0
M  V30 5422 C 516.515 -0.513341 4.2491 0
M  V30 5423 C 515.841 -1.63231 5.09175 0
M  V30 5424 C 517.141 0.551413 5.19381 0
M  V30 5425 H 518.835 0.59121 2.93505 0
M  V30 5426 H 516.381 0.285761 1.41136 0
M  V30 5427 H 518.334 -1.65741 3.87438 0
M  V30 5428 H 517.058 -1.90093 2.65579 0
M  V30 5429 H 515.717 -0.0228349 3.66593 0
M  V30 5430 H 515.365 -2.37713 4.43285 0
M  V30 5431 H 515.065 -1.21473 5.74907 0
M  V30 5432 H 516.589 -2.14658 5.71624 0
M  V30 5433 H 518.003 0.124804 5.73164 0
M  V30 5434 H 516.4 0.889486 5.93471 0
M  V30 5435 H 517.47 1.43655 4.63132 0
M  V30 5436 N 518.813 -1.54241 0.323641 0
M  V30 5437 C 520.059 -2.00867 -0.279323 0
M  V30 5438 C 520.392 -1.21146 -1.5178 0
M  V30 5439 O 519.667 -0.29378 -1.92269 0
M  V30 5440 C 519.95 -3.54837 -0.613387 0
M  V30 5441 C 519.803 -4.45284 0.635803 0
M  V30 5442 C 521.122 -4.16186 -1.43099 0
M  V30 5443 H 518.241 -0.730177 -0.100049 0
M  V30 5444 H 520.883 -1.84829 0.440235 0
M  V30 5445 H 519.033 -3.68634 -1.22641 0
M  V30 5446 H 520.705 -4.43357 1.27406 0
M  V30 5447 H 518.948 -4.14956 1.26466 0
M  V30 5448 H 519.619 -5.5084 0.357597 0
M  V30 5449 H 522.095 -4.05964 -0.912814 0
M  V30 5450 H 520.971 -5.24031 -1.6335 0
M  V30 5451 H 521.232 -3.69516 -2.42715 0
M  V30 5452 N 520.291 -0.0518155 -1.57515 0
M  V30 5453 C 521.223 0.951542 -2.08515 0
M  V30 5454 C 522.236 1.27436 -1.01311 0
M  V30 5455 O 523.425 1.23504 -1.28876 0
M  V30 5456 C 520.525 2.27291 -2.5138 0
M  V30 5457 C 519.698 2.13191 -3.81927 0
M  V30 5458 C 518.757 3.28458 -4.11098 0
M  V30 5459 O 517.783 3.04334 -4.81009 0
M  V30 5460 N 518.985 4.52954 -3.63061 0
M  V30 5461 H 521.75 0.516242 -2.9522 0
M  V30 5462 H 519.311 0.13441 -1.61341 0
M  V30 5463 H 521.303 3.03272 -2.67971 0
M  V30 5464 H 519.873 2.62386 -1.69919 0
M  V30 5465 H 519.093 1.21798 -3.74912 0
M  V30 5466 H 520.381 2.00999 -4.67415 0
M  V30 5467 H 519.779 4.75444 -3.06545 0
M  V30 5468 H 518.336 5.26026 -3.84889 0
M  V30 5469 N 521.769 1.56035 0.221574 0
M  V30 5470 C 522.699 1.95434 1.2778 0
M  V30 5471 C 523.68 0.822564 1.48889 0
M  V30 5472 O 524.865 1.08486 1.61072 0
M  V30 5473 C 521.995 2.27102 2.62759 0
M  V30 5474 C 520.949 3.4277 2.56306 0
M  V30 5475 C 520.275 3.60043 3.95314 0
M  V30 5476 C 521.575 4.77742 2.11093 0
M  V30 5477 H 523.269 2.83912 0.950504 0
M  V30 5478 H 520.815 1.36596 0.455791 0
M  V30 5479 H 522.768 2.53256 3.36807 0
M  V30 5480 H 521.492 1.35478 2.97176 0
M  V30 5481 H 520.151 3.16664 1.84715 0
M  V30 5482 H 519.799 2.65794 4.27039 0
M  V30 5483 H 519.499 4.37841 3.91879 0
M  V30 5484 H 521.023 3.88545 4.71025 0
M  V30 5485 H 522.437 5.03102 2.74885 0
M  V30 5486 H 520.834 5.58823 2.18716 0
M  V30 5487 H 521.904 4.731 1.06321 0
M  V30 5488 N 523.247 -0.488276 1.49845 0
M  V30 5489 C 524.477 -1.26344 1.63465 0
M  V30 5490 C 524.885 -1.86637 0.310379 0
M  V30 5491 O 524.228 -1.69184 -0.715712 0
M  V30 5492 C 524.29 -2.42407 2.65479 0
M  V30 5493 C 523.954 -2.02886 4.09495 0
M  V30 5494 C 524.951 -1.56124 4.95904 0
M  V30 5495 C 522.636 -2.12131 4.55308 0
M  V30 5496 C 524.63 -1.19129 6.26169 0
M  V30 5497 C 522.317 -1.74747 5.85582 0
M  V30 5498 C 523.315 -1.28322 6.70837 0
M  V30 5499 O 523.003 -0.914491 7.98682 0
M  V30 5500 H 522.735 -0.388921 0.552916 0
M  V30 5501 H 525.289 -0.591288 1.96705 0
M  V30 5502 H 523.519 -3.12739 2.27445 0
M  V30 5503 H 525.208 -3.04409 2.68495 0
M  V30 5504 H 525.974 -1.48417 4.61733 0
M  V30 5505 H 521.853 -2.47217 3.89107 0
M  V30 5506 H 525.397 -0.828211 6.92666 0
M  V30 5507 H 521.294 -1.82109 6.19279 0
M  V30 5508 H 522.062 -1.04485 8.11804 0
M  V30 5509 N 524.725 -1.39134 -0.740242 0
M  V30 5510 C 525.953 -1.39334 -1.5295 0
M  V30 5511 C 526.368 0.0135008 -1.88795 0
M  V30 5512 O 525.725 0.983524 -1.5373 0
M  V30 5513 C 525.776 -2.2614 -2.82034 0
M  V30 5514 O 525.497 -3.61345 -2.47712 0
M  V30 5515 C 526.998 -2.34666 -3.76094 0
M  V30 5516 H 524.218 -0.476103 -0.472828 0
M  V30 5517 H 526.762 -1.82883 -0.9151 0
M  V30 5518 H 524.917 -1.86018 -3.39818 0
M  V30 5519 H 525.331 -4.07194 -3.30595 0
M  V30 5520 H 526.805 -2.99663 -4.63579 0
M  V30 5521 H 527.282 -1.36426 -4.17474 0
M  V30 5522 H 527.888 -2.75236 -3.2423 0
M  V30 5523 N 526.204 0.969867 -1.24223 0
M  V30 5524 C 527.167 2.04564 -1.03373 0
M  V30 5525 C 528.167 1.60798 0.00819206 0
M  V30 5526 O 529.357 1.72641 -0.232567 0
M  V30 5527 C 526.489 3.36163 -0.566343 0
M  V30 5528 H 527.682 2.24494 -1.98853 0
M  V30 5529 H 525.235 1.1448 -1.06415 0
M  V30 5530 H 525.97 3.21925 0.391751 0
M  V30 5531 H 525.755 3.69273 -1.31834 0
M  V30 5532 H 527.245 4.1526 -0.441435 0
M  V30 5533 N 527.682 1.05563 1.17022 0
M  V30 5534 C 528.612 0.681026 2.23348 0
M  V30 5535 C 529.593 -0.322983 1.67005 0
M  V30 5536 O 530.778 -0.199746 1.9317 0
M  V30 5537 C 527.908 0.0589053 3.4725 0
M  V30 5538 C 526.862 0.988082 4.16438 0
M  V30 5539 C 526.188 0.229646 5.34207 0
M  V30 5540 C 527.488 2.31388 4.68249 0
M  V30 5541 H 529.182 1.56993 2.54938 0
M  V30 5542 H 526.728 0.756302 1.2254 0
M  V30 5543 H 528.681 -0.214982 4.20851 0
M  V30 5544 H 527.405 -0.864968 3.14938 0
M  V30 5545 H 526.064 1.24659 3.44754 0
M  V30 5546 H 525.712 -0.697111 4.98146 0
M  V30 5547 H 525.412 0.848815 5.81437 0
M  V30 5548 H 526.936 -0.0368694 6.10589 0
M  V30 5549 H 528.35 2.09964 5.33468 0
M  V30 5550 H 526.747 2.88736 5.26072 0
M  V30 5551 H 527.817 2.94982 3.84855 0
M  V30 5552 N 529.16 -1.33526 0.837174 0
M  V30 5553 C 530.388 -2.02047 0.445494 0
M  V30 5554 C 530.803 -1.62995 -0.952788 0
M  V30 5555 O 530.16 -0.842447 -1.61892 0
M  V30 5556 C 530.211 -3.57221 0.554577 0
M  V30 5557 O 529.932 -3.94863 1.89776 0
M  V30 5558 C 531.433 -4.43012 0.159634 0
M  V30 5559 H 528.653 -0.647221 0.177048 0
M  V30 5560 H 531.197 -1.70492 1.12928 0
M  V30 5561 H 529.352 -3.87315 -0.0812781 0
M  V30 5562 H 529.766 -4.89569 1.88208 0
M  V30 5563 H 531.24 -5.51253 0.28701 0
M  V30 5564 H 531.717 -4.29916 -0.898289 0
M  V30 5565 H 532.323 -4.18274 0.769855 0
M  V30 5566 N 530.638 -0.59345 -1.46 0
M  V30 5567 C 531.885 -0.0831523 -2.02329 0
M  V30 5568 C 532.213 1.28093 -1.46364 0
M  V30 5569 O 531.468 1.85526 -0.622793 0
M  V30 5570 C 531.767 0.021178 -3.57394 0
M  V30 5571 C 531.433 -1.27671 -4.32448 0
M  V30 5572 C 530.095 -1.63227 -4.5267 0
M  V30 5573 C 532.447 -2.13511 -4.7546 0
M  V30 5574 C 529.775 -2.84401 -5.1316 0
M  V30 5575 C 532.127 -3.33922 -5.37289 0
M  V30 5576 C 530.791 -3.69747 -5.55737 0
M  V30 5577 H 530.061 -0.0304276 -0.740375 0
M  V30 5578 H 532.708 -0.772239 -1.75239 0
M  V30 5579 H 531.013 0.793454 -3.83682 0
M  V30 5580 H 532.71 0.431942 -3.98667 0
M  V30 5581 H 529.3 -0.989937 -4.17011 0
M  V30 5582 H 533.484 -1.87344 -4.59582 0
M  V30 5583 H 528.74 -3.12282 -5.25633 0
M  V30 5584 H 532.914 -4.00698 -5.69574 0
M  V30 5585 H 530.541 -4.6373 -6.02377 0
M  V30 5586 N 532.116 1.54067 -0.331816 0
M  V30 5587 C 533.362 2.01713 0.261395 0
M  V30 5588 C 533.717 1.21566 1.49129 0
M  V30 5589 O 533.01 0.291867 1.89364 0
M  V30 5590 C 533.204 3.51634 0.639392 0
M  V30 5591 C 533.033 4.46295 -0.552321 0
M  V30 5592 C 531.803 4.94185 -1.05399 0
M  V30 5593 C 534.001 4.94677 -1.40711 0
M  V30 5594 N 531.983 5.7277 -2.20925 0
M  V30 5595 C 533.354 5.71267 -2.40943 0
M  V30 5596 C 535.409 4.76805 -1.43392 0
M  V30 5597 C 534.112 6.31889 -3.4367 0
M  V30 5598 C 536.138 5.38268 -2.44994 0
M  V30 5599 C 535.5 6.14716 -3.43952 0
M  V30 5600 H 531.599 0.77975 0.0592729 0
M  V30 5601 H 534.183 1.88974 -0.468726 0
M  V30 5602 H 532.354 3.64603 1.33863 0
M  V30 5603 H 534.086 3.86038 1.21478 0
M  V30 5604 H 530.841 4.69472 -0.623952 0
M  V30 5605 H 531.265 6.16737 -2.79222 0
M  V30 5606 H 535.907 4.17255 -0.682489 0
M  V30 5607 H 533.625 6.90554 -4.19715 0
M  V30 5608 H 537.211 5.26352 -2.4788 0
M  V30 5609 H 536.091 6.6143 -4.21283 0
M  V30 5610 N 533.594 0.0601682 1.57485 0
M  V30 5611 C 534.842 -0.610386 1.92662 0
M  V30 5612 C 535.163 -1.70849 0.939981 0
M  V30 5613 O 534.433 -1.95895 -0.0137455 0
M  V30 5614 H 533.013 -0.228457 0.711208 0
M  V30 5615 H 535.675 0.115288 1.94559 0
M  V30 5616 H 534.771 -1.0432 2.94149 0
M  V30 5617 N 535.072 -1.5615 -0.213296 0
M  V30 5618 C 536.483 -1.69645 -0.779582 0
M  V30 5619 C 536.834 -0.663615 -1.84636 0
M  V30 5620 O 535.959 0.183633 -2.15619 0
M  V30 5621 C 536.554 -3.07567 -1.42084 0
M  V30 5622 C 535.113 -3.22889 -1.93442 0
M  V30 5623 C 534.26 -2.65581 -0.797612 0
M  V30 5624 H 537.211 -1.58696 0.0114951 0
M  V30 5625 H 537.232 -3.03884 -2.28986 0
M  V30 5626 H 536.744 -3.82716 -0.644187 0
M  V30 5627 H 534.845 -2.52623 -2.73884 0
M  V30 5628 H 534.958 -4.30197 -2.10872 0
M  V30 5629 H 533.322 -2.24278 -1.20712 0
M  V30 5630 H 534.105 -3.43284 -0.033494 0
M  V30 5631 N 536.55 0.480323 -1.50102 0
M  V30 5632 C 537.961 1.06142 -1.53593 0
M  V30 5633 C 538.312 1.93335 -0.334055 0
M  V30 5634 O 537.437 2.09188 0.55403 0
M  V30 5635 C 538.032 1.9317 -2.78336 0
M  V30 5636 C 536.591 2.46405 -2.84538 0
M  V30 5637 C 535.738 1.24521 -2.4777 0
M  V30 5638 H 538.689 0.26333 -1.565 0
M  V30 5639 H 538.71 2.78123 -2.59669 0
M  V30 5640 H 538.222 1.29683 -3.65792 0
M  V30 5641 H 536.323 3.13472 -2.01411 0
M  V30 5642 H 536.436 2.82143 -3.87211 0
M  V30 5643 H 534.8 1.57706 -2.00003 0
M  V30 5644 H 535.583 0.627102 -3.37524 0
M  V30 5645 N 538.028 1.39524 0.732853 0
M  V30 5646 C 539.274 1.37068 1.49467 0
M  V30 5647 C 539.607 -0.0327166 1.94172 0
M  V30 5648 O 538.882 -0.998071 1.66939 0
M  V30 5649 C 539.165 2.34494 2.73285 0
M  V30 5650 C 539.018 3.83784 2.34585 0
M  V30 5651 C 540.337 2.29717 3.75391 0
M  V30 5652 H 537.456 0.499206 0.542183 0
M  V30 5653 H 540.098 1.70532 0.837783 0
M  V30 5654 H 538.248 2.06087 3.29333 0
M  V30 5655 H 539.92 4.22949 1.84151 0
M  V30 5656 H 538.163 4.00455 1.66787 0
M  V30 5657 H 538.834 4.47444 3.23262 0
M  V30 5658 H 541.31 2.54839 3.28932 0
M  V30 5659 H 540.186 2.99962 4.59689 0
M  V30 5660 H 540.447 1.30291 4.22465 0
M  V30 5661 N 539.506 -0.963266 1.24736 0
M  V30 5662 C 540.752 -1.70933 1.09131 0
M  V30 5663 C 541.085 -1.90676 -0.368273 0
M  V30 5664 O 540.36 -1.47147 -1.27193 0
M  V30 5665 C 540.643 -3.09744 1.83658 0
M  V30 5666 C 540.496 -2.97465 3.37394 0
M  V30 5667 C 541.815 -4.09483 1.61282 0
M  V30 5668 H 538.934 -0.620398 0.397838 0
M  V30 5669 H 541.576 -1.12028 1.53459 0
M  V30 5670 H 539.726 -3.60031 1.4598 0
M  V30 5671 H 541.398 -2.54571 3.84696 0
M  V30 5672 H 539.641 -2.33576 3.65547 0
M  V30 5673 H 540.312 -3.95822 3.84745 0
M  V30 5674 H 542.788 -3.68073 1.94066 0
M  V30 5675 H 541.664 -5.04666 2.15878 0
M  V30 5676 H 541.925 -4.38639 0.552102 0
M  V30 5677 N 540.985 -1.06182 -1.16461 0
M  V30 5678 C 542.233 -0.776326 -1.86595 0
M  V30 5679 C 542.554 0.69921 -1.82033 0
M  V30 5680 O 541.824 1.50579 -1.2531 0
M  V30 5681 H 540.404 -0.284184 -0.690832 0
M  V30 5682 H 543.066 -1.34308 -1.41235 0
M  V30 5683 H 542.162 -1.10022 -2.92064 0
M  V30 5684 N 542.463 1.3308 -0.844243 0
M  V30 5685 C 543.41 2.29104 -0.279323 0
M  V30 5686 C 544.38 1.54577 0.607882 0
M  V30 5687 O 545.565 1.8285 0.545009 0
M  V30 5688 C 542.705 3.40927 0.53508 0
M  V30 5689 C 541.818 4.30354 -0.376749 0
M  V30 5690 C 540.953 5.29297 0.449276 0
M  V30 5691 C 539.992 6.10365 -0.460606 0
M  V30 5692 N 539.129 7.01335 0.327612 0
M  V30 5693 H 543.969 2.76817 -1.10346 0
M  V30 5694 H 541.506 1.36203 -0.555611 0
M  V30 5695 H 543.464 4.04469 1.02278 0
M  V30 5696 H 542.094 2.94391 1.32414 0
M  V30 5697 H 541.146 3.67485 -0.982791 0
M  V30 5698 H 542.458 4.87067 -1.07549 0
M  V30 5699 H 541.612 5.98392 1.00058 0
M  V30 5700 H 540.351 4.73174 1.18143 0
M  V30 5701 H 539.356 5.40182 -1.02388 0
M  V30 5702 H 540.581 6.68571 -1.1912 0
M  V30 5703 H 538.527 6.47655 1.04305 0
M  V30 5704 H 538.444 7.55355 -0.3123 0
M  V30 5705 H 539.712 7.74731 0.86098 0
M  V30 5706 N 543.941 0.601185 1.45683 0
M  V30 5707 C 545.187 0.0940202 2.02582 0
M  V30 5708 C 545.52 -1.26972 1.46941 0
M  V30 5709 O 544.795 -1.83613 0.641612 0
M  V30 5710 C 545.078 0.0481715 3.60068 0
M  V30 5711 C 544.931 1.44212 4.26055 0
M  V30 5712 C 546.25 -0.642975 4.35378 0
M  V30 5713 H 543.369 0.0356404 0.736138 0
M  V30 5714 H 546.011 0.771929 1.73612 0
M  V30 5715 H 544.161 -0.529128 3.8488 0
M  V30 5716 H 545.833 2.06601 4.12449 0
M  V30 5717 H 544.076 2.00465 3.84703 0
M  V30 5718 H 544.747 1.36234 5.34925 0
M  V30 5719 H 547.223 -0.152351 4.15821 0
M  V30 5720 H 546.099 -0.644141 5.45107 0
M  V30 5721 H 546.36 -1.70785 4.0778 0
M  V30 5722 N 545.419 -1.53889 0.339982 0
M  V30 5723 C 546.366 -2.24902 -0.518452 0
M  V30 5724 C 547.336 -1.24593 -1.09844 0
M  V30 5725 O 548.521 -1.53317 -1.13572 0
M  V30 5726 C 545.661 -3.02262 -1.66529 0
M  V30 5727 C 544.774 -4.17418 -1.11295 0
M  V30 5728 C 543.909 -4.82273 -2.2268 0
M  V30 5729 C 542.948 -5.89503 -1.6478 0
M  V30 5730 N 542.085 -6.48153 -2.69893 0
M  V30 5731 H 546.925 -2.97853 0.0936579 0
M  V30 5732 H 544.462 -1.46986 0.0579924 0
M  V30 5733 H 546.42 -3.45371 -2.3404 0
M  V30 5734 H 545.05 -2.31614 -2.24844 0
M  V30 5735 H 544.102 -3.78976 -0.328886 0
M  V30 5736 H 545.414 -4.94554 -0.649414 0
M  V30 5737 H 544.568 -5.28435 -2.98063 0
M  V30 5738 H 543.307 -4.04552 -2.72376 0
M  V30 5739 H 542.312 -5.42728 -0.879004 0
M  V30 5740 H 543.537 -6.6913 -1.1594 0
M  V30 5741 H 541.483 -5.73298 -3.1885 0
M  V30 5742 H 541.4 -7.20752 -2.28151 0
M  V30 5743 H 542.668 -6.98968 -3.45056 0
M  V30 5744 N 546.897 -0.0685191 -1.57451 0
M  V30 5745 C 548.313 0.288101 -1.56978 0
M  V30 5746 C 548.513 1.70262 -1.07765 0
M  V30 5747 O 547.569 2.4135 -0.742054 0
M  V30 5748 C 548.882 0.100745 -3.00531 0
M  V30 5749 C 550.43 0.170531 -3.12535 0
M  V30 5750 C 550.905 0.0114944 -4.57999 0
M  V30 5751 N 552.396 0.0672065 -4.63151 0
M  V30 5752 C 553.131 -0.0314813 -5.73391 0
M  V30 5753 N 552.627 -0.183503 -6.92557 0
M  V30 5754 N 554.42 0.0253489 -5.62094 0
M  V30 5755 H 546.571 -0.993026 -1.87757 0
M  V30 5756 H 548.834 -0.386981 -0.865419 0
M  V30 5757 H 548.54 -0.875197 -3.40636 0
M  V30 5758 H 548.414 0.854457 -3.67395 0
M  V30 5759 H 550.801 1.13696 -2.72318 0
M  V30 5760 H 550.882 -0.614229 -2.48316 0
M  V30 5761 H 550.526 -0.951684 -4.98904 0
M  V30 5762 H 550.456 0.815617 -5.20245 0
M  V30 5763 H 552.947 0.183246 -3.77455 0
M  V30 5764 H 553.26 -0.251041 -7.72392 0
M  V30 5765 H 551.605 -0.218822 -6.94655 0
M  V30 5766 H 554.796 0.142794 -4.67882 0
M  V30 5767 H 554.969 -0.0550166 -6.47977 0
M  V30 5768 N 548.375 1.56261 0.205012 0
M  V30 5769 C 549.285 1.96944 1.27476 0
M  V30 5770 C 550.301 0.875636 1.50362 0
M  V30 5771 O 551.477 1.18058 1.6317 0
M  V30 5772 C 548.542 2.29219 2.60115 0
M  V30 5773 C 547.603 3.52255 2.45387 0
M  V30 5774 C 546.836 3.8298 3.71701 0
M  V30 5775 O 547.059 3.15138 4.75441 0
M  V30 5776 O 545.993 4.76435 3.67823 0
M  V30 5777 H 549.819 2.88144 0.959527 0
M  V30 5778 H 547.404 1.43686 0.409217 0
M  V30 5779 H 549.286 2.51098 3.3842 0
M  V30 5780 H 547.961 1.4119 2.91285 0
M  V30 5781 H 546.868 3.35635 1.65227 0
M  V30 5782 H 548.201 4.40719 2.19152 0
M  V30 5783 N 549.853 -0.472356 1.50355 0
M  V30 5784 C 550.783 -1.57859 1.72055 0
M  V30 5785 C 551.764 -1.60283 0.569505 0
M  V30 5786 O 552.949 -1.7657 0.808503 0
M  V30 5787 C 550.079 -2.96191 1.81351 0
M  V30 5788 C 549.033 -3.08633 2.96529 0
M  V30 5789 C 548.359 -4.486 2.90968 0
M  V30 5790 C 549.659 -2.85969 4.37057 0
M  V30 5791 H 551.353 -1.39953 2.64676 0
M  V30 5792 H 548.899 -0.671846 1.27367 0
M  V30 5793 H 550.852 -3.73507 1.95117 0
M  V30 5794 H 549.576 -3.15251 0.853502 0
M  V30 5795 H 548.235 -2.33749 2.82413 0
M  V30 5796 H 547.883 -4.64577 1.92815 0
M  V30 5797 H 547.583 -4.57861 3.68289 0
M  V30 5798 H 549.107 -5.27938 3.0678 0
M  V30 5799 H 550.521 -3.53036 4.51706 0
M  V30 5800 H 548.918 -3.06677 5.15819 0
M  V30 5801 H 549.988 -1.81838 4.49514 0
M  V30 5802 N 551.331 -1.39911 -0.725443 0
M  V30 5803 C 552.241 -1.41688 -1.8698 0
M  V30 5804 C 553.257 -0.310579 -1.71206 0
M  V30 5805 O 554.433 -0.55359 -1.93642 0
M  V30 5806 C 551.498 -1.26811 -3.22676 0
M  V30 5807 C 550.559 -2.47497 -3.50776 0
M  V30 5808 C 549.792 -2.3332 -4.79997 0
M  V30 5809 O 550.015 -1.34175 -5.54394 0
M  V30 5810 O 548.949 -3.22498 -5.08211 0
M  V30 5811 H 552.775 -2.38171 -1.88436 0
M  V30 5812 H 550.36 -1.21128 -0.874548 0
M  V30 5813 H 552.242 -1.20684 -4.03749 0
M  V30 5814 H 550.917 -0.334289 -3.21969 0
M  V30 5815 H 549.824 -2.59201 -2.69751 0
M  V30 5816 H 551.157 -3.39606 -3.5627 0
M  V30 5817 N 552.809 0.956637 -1.25245 0
M  V30 5818 C 553.772 2.03457 -1.05537 0
M  V30 5819 C 554.772 1.60798 -0.00886317 0
M  V30 5820 O 555.962 1.72384 -0.250865 0
M  V30 5821 C 553.094 3.35543 -0.601965 0
M  V30 5822 H 554.287 2.22372 -2.01223 0
M  V30 5823 H 551.84 1.13344 -1.07623 0
M  V30 5824 H 552.575 3.22323 0.357584 0
M  V30 5825 H 552.36 3.67854 -1.35743 0
M  V30 5826 H 553.85 4.14769 -0.485454 0
M  V30 5827 N 554.287 1.06798 1.15896 0
M  V30 5828 C 555.217 0.704677 2.22613 0
M  V30 5829 C 556.198 -0.305252 1.67339 0
M  V30 5830 O 557.383 -0.179247 1.93371 0
M  V30 5831 C 554.513 0.0957325 3.47168 0
M  V30 5832 C 553.467 1.0322 4.15367 0
M  V30 5833 C 552.793 0.286293 5.33933 0
M  V30 5834 C 554.093 2.36341 4.65768 0
M  V30 5835 H 555.787 1.59688 2.53259 0
M  V30 5836 H 553.333 0.769257 1.21731 0
M  V30 5837 H 555.286 -0.170333 4.21056 0
M  V30 5838 H 554.01 -0.831516 3.15838 0
M  V30 5839 H 552.669 1.28309 3.43413 0
M  V30 5840 H 552.317 -0.644237 4.98857 0
M  V30 5841 H 552.017 0.910436 5.80504 0
M  V30 5842 H 553.541 0.0278938 6.10594 0
M  V30 5843 H 554.955 2.1561 5.31211 0
M  V30 5844 H 553.352 2.94299 5.2298 0
M  V30 5845 H 554.422 2.99047 3.81705 0
M  V30 5846 N 555.766 -1.3263 0.851289 0
M  V30 5847 C 556.696 -2.31449 0.308771 0
M  V30 5848 C 557.677 -1.59531 -0.590255 0
M  V30 5849 O 558.862 -1.87351 -0.511205 0
M  V30 5850 C 555.992 -3.43586 -0.506548 0
M  V30 5851 C 554.946 -4.26963 0.297753 0
M  V30 5852 C 554.272 -5.30831 -0.642094 0
M  V30 5853 C 555.572 -4.99643 1.52166 0
M  V30 5854 H 557.266 -2.77074 1.13447 0
M  V30 5855 H 554.812 -1.33207 0.546971 0
M  V30 5856 H 556.765 -4.11754 -0.896474 0
M  V30 5857 H 555.489 -2.96681 -1.36558 0
M  V30 5858 H 554.148 -3.60437 0.669391 0
M  V30 5859 H 553.796 -4.8018 -1.49788 0
M  V30 5860 H 553.496 -5.87501 -0.107968 0
M  V30 5861 H 555.02 -6.01862 -1.02927 0
M  V30 5862 H 556.434 -5.6051 1.20421 0
M  V30 5863 H 554.831 -5.66022 1.99347 0
M  V30 5864 H 555.901 -4.27701 2.28474 0
M  V30 5865 N 557.244 -0.608902 -1.45362 0
M  V30 5866 C 558.191 0.109172 -2.30542 0
M  V30 5867 C 559.161 0.858704 -1.42181 0
M  V30 5868 O 560.346 0.844178 -1.71109 0
M  V30 5869 C 557.486 1.09971 -3.27109 0
M  V30 5870 C 556.599 0.350911 -4.30572 0
M  V30 5871 C 555.734 1.33129 -5.14247 0
M  V30 5872 C 554.773 0.570377 -6.09437 0
M  V30 5873 N 553.91 1.5001 -6.85887 0
M  V30 5874 H 558.75 -0.623195 -2.91411 0
M  V30 5875 H 556.287 -0.319122 -1.43597 0
M  V30 5876 H 558.245 1.68714 -3.81564 0
M  V30 5877 H 556.875 1.79947 -2.67991 0
M  V30 5878 H 555.927 -0.352054 -3.78767 0
M  V30 5879 H 557.239 -0.242725 -4.98209 0
M  V30 5880 H 556.393 1.99074 -5.73109 0
M  V30 5881 H 555.132 1.95885 -4.46632 0
M  V30 5882 H 554.137 -0.102702 -5.49704 0
M  V30 5883 H 555.362 -0.0521607 -6.7908 0
M  V30 5884 H 553.308 2.11529 -6.2096 0
M  V30 5885 H 553.225 0.959934 -7.49881 0
M  V30 5886 H 554.493 2.14909 -7.49289 0
M  V30 5887 N 558.722 1.53707 -0.348139 0
M  V30 5888 C 559.632 2.28881 0.514857 0
M  V30 5889 C 560.648 1.34168 1.10793 0
M  V30 5890 O 561.824 1.6721 1.12262 0
M  V30 5891 C 558.889 3.05042 1.64774 0
M  V30 5892 C 557.95 4.15389 1.08398 0
M  V30 5893 C 557.183 4.87909 2.16287 0
M  V30 5894 O 557.406 4.60137 3.3709 0
M  V30 5895 O 556.34 5.74254 1.80323 0
M  V30 5896 H 560.166 3.03547 -0.0963699 0
M  V30 5897 H 557.751 1.48972 -0.113043 0
M  V30 5898 H 559.633 3.52656 2.30677 0
M  V30 5899 H 558.308 2.33228 2.24469 0
M  V30 5900 H 557.215 3.72068 0.389341 0
M  V30 5901 H 558.548 4.89318 0.531829 0
M  V30 5902 N 560.2 0.0768682 1.57412 0
M  V30 5903 C 561.132 -0.918248 2.10002 0
M  V30 5904 C 562.145 -1.25808 1.03325 0
M  V30 5905 O 563.334 -1.21438 1.30824 0
M  V30 5906 C 560.434 -2.23263 2.54964 0
M  V30 5907 C 559.607 -2.07088 3.8527 0
M  V30 5908 C 558.666 -3.21876 4.16272 0
M  V30 5909 O 557.692 -2.96643 4.8579 0
M  V30 5910 N 558.894 -4.4712 3.70221 0
M  V30 5911 H 561.659 -0.469209 2.96004 0
M  V30 5912 H 559.22 -0.108725 1.61535 0
M  V30 5913 H 561.212 -2.9897 2.72762 0
M  V30 5914 H 559.782 -2.59649 1.74072 0
M  V30 5915 H 559.002 -1.15818 3.76802 0
M  V30 5916 H 560.29 -1.93537 4.70554 0
M  V30 5917 H 559.688 -4.70506 3.1407 0
M  V30 5918 H 558.245 -5.19837 3.93209 0
M  V30 5919 N 561.678 -1.56367 -0.196722 0
M  V30 5920 C 562.926 -1.80172 -0.915554 0
M  V30 5921 C 563.247 -0.649649 -1.8386 0
M  V30 5922 O 562.517 0.332111 -1.93064 0
M  V30 5923 H 561.097 -0.664592 -0.341067 0
M  V30 5924 H 563.759 -1.93844 -0.202622 0
M  V30 5925 H 562.855 -2.7327 -1.50764 0
M  V30 5926 N 563.156 0.464375 -1.50603 0
M  V30 5927 C 564.403 1.21596 -1.61928 0
M  V30 5928 C 564.731 1.91804 -0.322737 0
M  V30 5929 O 563.986 1.83065 0.691776 0
M  V30 5930 C 564.285 2.278 -2.75394 0
M  V30 5931 C 563.951 1.74797 -4.1564 0
M  V30 5932 C 562.613 1.60063 -4.53799 0
M  V30 5933 C 564.965 1.35548 -5.03266 0
M  V30 5934 C 562.293 1.04514 -5.77316 0
M  V30 5935 C 564.645 0.814381 -6.27336 0
M  V30 5936 C 563.309 0.653726 -6.64291 0
M  V30 5937 H 562.579 0.444951 -0.592536 0
M  V30 5938 H 565.226 0.510964 -1.84557 0
M  V30 5939 H 563.531 3.04233 -2.46879 0
M  V30 5940 H 565.228 2.85723 -2.81359 0
M  V30 5941 H 561.818 1.87234 -3.8554 0
M  V30 5942 H 566.002 1.45763 -4.74412 0
M  V30 5943 H 561.258 0.908186 -6.04617 0
M  V30 5944 H 565.432 0.501626 -6.94591 0
M  V30 5945 H 563.059 0.22114 -7.59878 0
M  V30 5946 N 564.634 1.40294 0.718013 0
M  V30 5947 C 565.882 1.38167 1.47494 0
M  V30 5948 C 566.203 -0.01607 1.94993 0
M  V30 5949 O 565.473 -0.970396 1.70177 0
M  V30 5950 H 564.053 0.508505 0.547203 0
M  V30 5951 H 566.715 1.75324 0.851322 0
M  V30 5952 H 565.811 2.05503 2.34894 0
M  V30 5953 N 566.112 -0.949982 1.2575 0
M  V30 5954 C 567.36 -1.6918 1.10555 0
M  V30 5955 C 567.681 -1.91773 -0.353298 0
M  V30 5956 O 566.951 -1.50814 -1.25027 0
M  V30 5957 H 565.531 -0.626952 0.406129 0
M  V30 5958 H 568.193 -1.1419 1.57945 0
M  V30 5959 H 567.289 -2.66915 1.61749 0
M  V30 5960 N 567.59 -1.07411 -1.15328 0
M  V30 5961 C 568.836 -0.798831 -1.86404 0
M  V30 5962 C 569.169 0.673433 -1.8215 0
M  V30 5963 O 568.444 1.49428 -1.24505 0
M  V30 5964 C 568.727 -1.30846 -3.35487 0
M  V30 5965 C 568.58 -2.84532 -3.4837 0
M  V30 5966 C 569.899 -0.925486 -4.30259 0
M  V30 5967 H 567.018 -0.291659 -0.676834 0
M  V30 5968 H 569.66 -1.332 -1.35491 0
M  V30 5969 H 567.81 -0.854916 -3.78977 0
M  V30 5970 H 569.482 -3.3818 -3.13739 0
M  V30 5971 H 567.725 -3.22699 -2.8991 0
M  V30 5972 H 568.396 -3.15259 -4.53118 0
M  V30 5973 H 570.872 -1.3163 -3.94731 0
M  V30 5974 H 569.748 -1.3094 -5.33053 0
M  V30 5975 H 570.009 0.168525 -4.41779 0
M  V30 5976 N 569.068 1.32177 -0.85831 0
M  V30 5977 C 570.296 2.01313 -0.477582 0
M  V30 5978 C 570.711 1.6449 0.926736 0
M  V30 5979 O 570.068 0.868096 1.60531 0
M  V30 5980 C 570.119 3.56293 -0.611337 0
M  V30 5981 O 569.84 3.91794 -1.96034 0
M  V30 5982 C 571.341 4.42702 -0.230093 0
M  V30 5983 H 568.561 0.644323 -0.187322 0
M  V30 5984 H 571.105 1.68674 -1.15626 0
M  V30 5985 H 569.26 3.87395 0.0196494 0
M  V30 5986 H 569.674 4.86513 -1.95973 0
M  V30 5987 H 571.148 5.50727 -0.374674 0
M  V30 5988 H 571.625 4.3129 0.829779 0
M  V30 5989 H 572.231 4.16997 -0.836302 0
M  V30 5990 N 570.547 0.616602 1.45037 0
M  V30 5991 C 571.824 0.0469086 1.95544 0
M  V30 5992 C 572.204 -1.42345 1.55888 0
M  V30 5993 O 571.552 -2.13055 0.825824 0
M  V30 5994 C 571.762 0.254489 3.48071 0
M  V30 5995 C 573.11 0.140025 4.24369 0
M  V30 5996 O 574.134 0.185084 3.55719 0
M  V30 5997 O 572.993 0.0327034 5.4649 0
M  V30 5998 H 570.087 -0.0306051 0.826433 0
M  V30 5999 H 572.633 0.687293 1.55159 0
M  V30 6000 H 571.405 1.27532 3.69934 0
M  V30 6001 H 571.028 -0.42073 3.95368 0
M  V30 6002 N 572.025 -1.5352 0.356285 0
M  V30 6003 C 572.988 -2.24071 -0.482182 0
M  V30 6004 C 573.988 -1.24531 -1.01729 0
M  V30 6005 O 575.178 -1.48876 -0.904513 0
M  V30 6006 C 572.31 -2.97025 -1.67299 0
M  V30 6007 H 573.503 -2.99596 0.135031 0
M  V30 6008 H 571.056 -1.55928 0.107825 0
M  V30 6009 H 571.791 -2.25719 -2.32855 0
M  V30 6010 H 571.576 -3.7005 -1.29636 0
M  V30 6011 H 573.066 -3.50683 -2.26741 0
M  V30 6012 N 573.503 -0.0852151 -1.57369 0
M  V30 6013 C 574.752 0.580443 -1.93168 0
M  V30 6014 C 575.065 1.6995 -0.968319 0
M  V30 6015 O 576.271 2.42564 -1.21963 0
M  V30 6016 C 574.727 1.08386 -3.43192 0
M  V30 6017 C 574.335 -0.00491388 -4.48 0
M  V30 6018 C 576.079 1.72281 -3.87968 0
M  V30 6019 C 573.986 0.513299 -5.89168 0
M  V30 6020 H 572.916 0.22059 -0.72101 0
M  V30 6021 H 575.567 -0.159621 -1.82804 0
M  V30 6022 H 573.949 1.8773 -3.48674 0
M  V30 6023 H 575.123 -0.780032 -4.5415 0
M  V30 6024 H 573.438 -0.548453 -4.12772 0
M  V30 6025 H 576.035 2.12108 -4.9083 0
M  V30 6026 H 576.378 2.58811 -3.26071 0
M  V30 6027 H 576.911 0.995359 -3.85146 0
M  V30 6028 H 573.65 -0.315153 -6.54742 0
M  V30 6029 H 573.17 1.25564 -5.8651 0
M  V30 6030 H 574.849 0.985433 -6.39451 0
M  V30 6031 N 574.981 1.5647 0.188427 0
M  V30 6032 C 576.229 1.80655 0.905986 0
M  V30 6033 C 576.55 0.659391 1.83513 0
M  V30 6034 O 575.82 -0.321868 1.93238 0
M  V30 6035 H 574.4 0.666391 0.337538 0
M  V30 6036 H 577.062 1.93949 0.192339 0
M  V30 6037 H 576.158 2.74066 1.49313 0
M  V30 6038 N 576.459 -0.456382 1.50847 0
M  V30 6039 C 577.422 -1.53493 1.70213 0
M  V30 6040 C 578.422 -1.50264 0.572481 0
M  V30 6041 O 579.612 -1.52623 0.839751 0
M  V30 6042 C 576.744 -2.93091 1.741 0
M  V30 6043 H 577.937 -1.37633 2.66453 0
M  V30 6044 H 575.49 -0.683776 1.4055 0
M  V30 6045 H 576.225 -3.14378 0.796063 0
M  V30 6046 H 576.01 -2.9684 2.5618 0
M  V30 6047 H 577.5 -3.71368 1.90987 0
M  V30 6048 N 577.937 -1.40673 -0.710563 0
M  V30 6049 C 579.214 -1.29718 -1.46398 0
M  V30 6050 C 579.594 0.082177 -2.1094 0
M  V30 6051 O 578.942 1.09536 -2.00534 0
M  V30 6052 C 579.152 -2.43967 -2.49562 0
M  V30 6053 C 580.5 -2.84436 -3.15248 0
M  V30 6054 O 581.524 -2.43597 -2.59883 0
M  V30 6055 O 580.383 -3.55008 -4.1549 0
M  V30 6056 H 577.477 -0.509697 -0.651258 0
M  V30 6057 H 580.023 -1.52603 -0.742312 0
M  V30 6058 H 578.795 -3.36076 -2.0042 0
M  V30 6059 H 578.418 -2.22879 -3.29258 0
M  V30 6060 N 579.415 0.9433 -1.26252 0
M  V30 6061 C 580.365 2.02746 -1.04297 0
M  V30 6062 C 581.349 1.60882 0.0239435 0
M  V30 6063 O 582.541 1.75947 -0.192757 0
M  V30 6064 C 579.67 3.36585 -0.6757 0
M  V30 6065 C 578.756 3.84939 -1.77996 0
M  V30 6066 N 579.147 4.05966 -3.01704 0
M  V30 6067 C 577.445 4.13833 -1.66308 0
M  V30 6068 C 578.146 4.45987 -3.73458 0
M  V30 6069 N 577.122 4.52569 -3.01135 0
M  V30 6070 H 580.924 2.17012 -1.98199 0
M  V30 6071 H 578.438 1.12898 -1.16738 0
M  V30 6072 H 580.435 4.13896 -0.499571 0
M  V30 6073 H 579.095 3.2369 0.255863 0
M  V30 6074 H 580.106 3.92716 -3.37631 0
M  V30 6075 H 576.783 4.09739 -0.801267 0
M  V30 6076 H 578.173 4.70465 -4.79701 0
M  V30 6077 N 580.893 1.08022 1.14757 0
M  V30 6078 C 582.309 0.807072 1.3769 0
M  V30 6079 C 582.509 -0.585504 1.92806 0
M  V30 6080 O 581.565 -1.34301 2.13821 0
M  V30 6081 C 582.878 1.88651 2.34161 0
M  V30 6082 C 584.426 1.91206 2.47809 0
M  V30 6083 C 584.901 2.98253 3.47576 0
M  V30 6084 N 586.392 2.974 3.55117 0
M  V30 6085 C 587.127 3.76872 4.32152 0
M  V30 6086 N 586.623 4.66212 5.12463 0
M  V30 6087 N 588.416 3.6519 4.27309 0
M  V30 6088 H 580.567 1.97824 0.77326 0
M  V30 6089 H 582.83 0.85826 0.402608 0
M  V30 6090 H 582.536 2.88749 2.00791 0
M  V30 6091 H 582.41 1.75244 3.3402 0
M  V30 6092 H 584.797 0.917564 2.80472 0
M  V30 6093 H 584.878 2.08691 1.47925 0
M  V30 6094 H 584.522 3.97907 3.15646 0
M  V30 6095 H 584.452 2.78014 4.47231 0
M  V30 6096 H 586.943 2.32643 2.97801 0
M  V30 6097 H 587.256 5.23468 5.68508 0
M  V30 6098 H 585.601 4.70257 5.11745 0
M  V30 6099 H 588.792 2.94765 3.63636 0
M  V30 6100 H 588.965 4.27366 4.87095 0
M  V30 6101 N 582.371 -1.3172 0.865308 0
M  V30 6102 C 583.787 -1.4958 0.556596 0
M  V30 6103 C 583.987 -1.79763 -0.910353 0
M  V30 6104 O 583.043 -1.87351 -1.6928 0
M  V30 6105 C 584.356 -2.63277 1.45279 0
M  V30 6106 C 585.904 -2.77161 1.45433 0
M  V30 6107 C 586.379 -3.93949 2.33598 0
M  V30 6108 N 587.87 -4.01228 2.31453 0
M  V30 6109 C 588.605 -4.90855 2.96393 0
M  V30 6110 N 588.101 -5.85416 3.70486 0
M  V30 6111 N 589.894 -4.84063 2.85726 0
M  V30 6112 H 582.045 -1.10396 1.81456 0
M  V30 6113 H 584.308 -0.54507 0.775631 0
M  V30 6114 H 584.014 -2.47734 2.49641 0
M  V30 6115 H 583.888 -3.59309 1.14792 0
M  V30 6116 H 586.275 -2.9212 0.41831 0
M  V30 6117 H 586.356 -1.8181 1.79941 0
M  V30 6118 H 586 -3.79748 3.37274 0
M  V30 6119 H 585.93 -4.88598 1.96417 0
M  V30 6120 H 588.421 -3.3357 1.77593 0
M  V30 6121 H 588.734 -6.50525 4.17178 0
M  V30 6122 H 587.079 -5.85409 3.74594 0
M  V30 6123 H 590.27 -4.09163 2.27384 0
M  V30 6124 H 590.443 -5.53708 3.36617 0
M  V30 6125 O 583.888 -0.764371 -1.42266 0
M  V30 6126 H 584.579 -0.325849 -1.9094 0
M  V30 END ATOM
M  V30 BEGIN BOND
M  V30 END BOND
M  V30 END CTAB
M  END
$$$$
