drugbank_target|P07498 Kappa-casein (DB12010)
 OpenBabel12092121143D

  0  0  0     0  0            999 V3000
M  V30 BEGIN CTAB
M  V30 COUNTS 2882 2931 0 0 0
M  V30 BEGIN ATOM
M  V30 1 H -0.908 1.98254 -0.117106 0
M  V30 2 N 0 1.576 0 0
M  V30 3 C 0.933 2.03868 1.02534 0
M  V30 4 C 1.911 0.928543 1.3348 0
M  V30 5 O 3.095 1.19667 1.45644 0
M  V30 6 C 0.222 2.43627 2.35294 0
M  V30 7 C -0.732 3.65373 2.2001 0
M  V30 8 S 0.101 5.13292 1.52614 0
M  V30 9 C 1.257 5.56322 2.86805 0
M  V30 10 H 1.49 2.90518 0.631377 0
M  V30 11 H -0.977 1.52953 0.210867 0
M  V30 12 H 0.981 2.67203 3.11629 0
M  V30 13 H -0.358 1.57376 2.7183 0
M  V30 14 H -1.165 3.90944 3.18086 0
M  V30 15 H -1.563 3.418 1.51819 0
M  V30 16 H 0.729 5.58782 3.83104 0
M  V30 17 H 1.672 6.56266 2.65933 0
M  V30 18 H 2.08 4.83886 2.90714 0
M  V30 19 N 1.4781 -0.272755 1.55222 0
M  V30 20 C 2.4251 -1.33716 1.88119 0
M  V30 21 C 3.3951 -1.49066 0.73271 0
M  V30 22 O 4.5801 -1.63469 0.984002 0
M  V30 23 C 1.7201 -2.69238 2.15882 0
M  V30 24 C 0.8331 -2.62108 3.43399 0
M  V30 25 C -0.0319 -3.89811 3.60861 0
M  V30 26 C -0.9929 -3.77193 4.8207 0
M  V30 27 N -1.8559 -4.9673 4.96189 0
M  V30 28 H 2.9841 -1.04962 2.78903 0
M  V30 29 H 0.5211 -0.507088 1.38083 0
M  V30 30 H 2.4791 -3.48089 2.29978 0
M  V30 31 H 1.1091 -2.96194 1.28331 0
M  V30 32 H 0.1611 -1.74967 3.37773 0
M  V30 33 H 1.4731 -2.48685 4.32386 0
M  V30 34 H 0.6271 -4.77103 3.74777 0
M  V30 35 H -0.6339 -4.06102 2.7006 0
M  V30 36 H -1.6289 -2.88284 4.68159 0
M  V30 37 H -0.4039 -3.62421 5.74307 0
M  V30 38 H -2.4579 -5.13431 4.08319 0
M  V30 39 H -2.5409 -4.85839 5.79221 0
M  V30 40 H -1.2729 -5.85594 5.1449 0
M  V30 41 N 2.9562 -1.48159 -0.537278 0
M  V30 42 C 4.1812 -1.59707 -1.32319 0
M  V30 43 C 4.6062 -0.254859 -1.86365 0
M  V30 44 O 3.9642 0.772378 -1.64024 0
M  V30 45 C 4.0122 -2.6412 -2.45505 0
M  V30 46 O 3.1162 -2.20774 -3.48328 0
M  V30 47 H 2.4572 -0.535791 -0.392204 0
M  V30 48 H 4.9872 -1.94092 -0.647268 0
M  V30 49 H 4.9972 -2.85166 -2.91795 0
M  V30 50 H 3.6722 -3.61567 -2.05528 0
M  V30 51 H 2.2492 -2.09911 -3.08207 0
M  V30 52 N 4.4343 0.785586 -1.36625 0
M  V30 53 C 5.6813 1.54362 -1.31067 0
M  V30 54 C 6.0093 1.94195 0.10893 0
M  V30 55 O 5.2643 1.63262 1.07908 0
M  V30 56 C 5.5633 2.83007 -2.1827 0
M  V30 57 C 5.2293 2.62294 -3.6676 0
M  V30 58 C 3.8913 2.56353 -4.0723 0
M  V30 59 C 6.2433 2.43371 -4.6089 0
M  V30 60 C 3.5713 2.29461 -5.39967 0
M  V30 61 C 5.9233 2.18005 -5.93849 0
M  V30 62 C 4.5873 2.105 -6.3344 0
M  V30 63 H 3.8573 0.564851 -0.479609 0
M  V30 64 H 6.5043 0.906028 -1.68711 0
M  V30 65 H 4.8093 3.51253 -1.73576 0
M  V30 66 H 6.5063 3.40817 -2.11292 0
M  V30 67 H 3.0963 2.67774 -3.34656 0
M  V30 68 H 7.2803 2.46959 -4.30494 0
M  V30 69 H 2.5363 2.22135 -5.69619 0
M  V30 70 H 6.7103 2.02359 -6.66351 0
M  V30 71 H 4.3373 1.89425 -7.36222 0
M  V30 72 N 5.9124 1.20967 1.01018 0
M  V30 73 C 6.8424 0.988272 2.11555 0
M  V30 74 C 7.8234 -0.0849778 1.69888 0
M  V30 75 O 9.0084 0.0738202 1.9406 0
M  V30 76 C 6.1384 0.546528 3.42973 0
M  V30 77 C 5.0924 1.56375 3.9841 0
M  V30 78 C 4.4184 0.97842 5.25672 0
M  V30 79 C 5.7184 2.94922 4.31066 0
M  V30 80 H 7.4124 1.91276 2.30334 0
M  V30 81 H 4.9584 0.921073 1.1069 0
M  V30 82 H 6.9114 0.378839 4.19694 0
M  V30 83 H 5.6354 -0.413598 3.23971 0
M  V30 84 H 4.2944 1.71891 3.23804 0
M  V30 85 H 3.9424 0.0101688 5.02999 0
M  V30 86 H 3.6424 1.65784 5.63728 0
M  V30 87 H 5.1664 0.821939 6.05043 0
M  V30 88 H 6.5804 2.8288 4.9865 0
M  V30 89 H 4.9774 3.5983 4.80253 0
M  V30 90 H 6.0474 3.4616 3.39561 0
M  V30 91 N 7.3905 -1.2043 1.01659 0
M  V30 92 C 8.3205 -2.25466 0.607226 0
M  V30 93 C 9.3015 -1.65853 -0.377716 0
M  V30 94 O 10.4865 -1.92409 -0.263149 0
M  V30 95 C 7.6165 -3.47256 -0.0552949 0
M  V30 96 C 6.5705 -4.19462 0.850632 0
M  V30 97 C 5.8965 -5.34673 0.0538859 0
M  V30 98 C 7.1965 -4.75603 2.15868 0
M  V30 99 H 8.8905 -2.59962 1.48526 0
M  V30 100 H 6.4365 -1.2496 0.715605 0
M  V30 101 H 8.3895 -4.19917 -0.353233 0
M  V30 102 H 7.1135 -3.11924 -0.968045 0
M  V30 103 H 5.7725 -3.48667 1.13257 0
M  V30 104 H 5.4205 -4.95585 -0.860514 0
M  V30 105 H 5.1205 -5.83913 0.657192 0
M  V30 106 H 6.6445 -6.10138 -0.237598 0
M  V30 107 H 8.0585 -5.40083 1.92311 0
M  V30 108 H 6.4555 -5.3528 2.71284 0
M  V30 109 H 7.5255 -3.94346 2.82169 0
M  V30 110 N 8.8686 -0.792821 -1.36206 0
M  V30 111 C 10.1146 -0.36733 -1.99446 0
M  V30 112 C 10.4476 1.05917 -1.62774 0
M  V30 113 O 9.7226 1.7324 -0.88421 0
M  V30 114 C 10.0056 -0.535044 -3.56103 0
M  V30 115 C 9.8586 -2.00548 -4.02617 0
M  V30 116 C 11.1776 0.0478191 -4.40074 0
M  V30 117 H 8.2966 -0.134941 -0.724541 0
M  V30 118 H 10.9386 -0.999794 -1.61568 0
M  V30 119 H 9.0886 0.00336329 -3.885 0
M  V30 120 H 10.7606 -2.60521 -3.80692 0
M  V30 121 H 9.0036 -2.50686 -3.54032 0
M  V30 122 H 9.6746 -2.07377 -5.11565 0
M  V30 123 H 12.1506 -0.411822 -4.14057 0
M  V30 124 H 11.0266 -0.0995336 -5.4881 0
M  V30 125 H 11.2876 1.14025 -4.27142 0
M  V30 126 N 10.3467 1.47872 -0.545128 0
M  V30 127 C 11.5927 2.02793 -0.0166104 0
M  V30 128 C 11.9257 1.41987 1.32489 0
M  V30 129 O 11.2007 0.571045 1.85928 0
M  V30 130 C 11.4837 3.59989 0.0893294 0
M  V30 131 C 11.3367 4.3125 -1.27841 0
M  V30 132 C 12.6557 4.32606 0.808724 0
M  V30 133 H 9.7747 0.736962 -0.00751035 0
M  V30 134 H 12.4167 1.76433 -0.705085 0
M  V30 135 H 10.5667 3.82579 0.675681 0
M  V30 136 H 12.2387 4.20035 -1.90704 0
M  V30 137 H 10.4817 3.92076 -1.85632 0
M  V30 138 H 11.1527 5.39736 -1.15713 0
M  V30 139 H 13.6287 4.14936 0.310992 0
M  V30 140 H 12.5047 5.42251 0.851782 0
M  V30 141 H 12.7657 4.00963 1.86229 0
M  V30 142 N 11.8248 0.280983 1.55075 0
M  V30 143 C 12.7728 -0.619864 2.24188 0
M  V30 144 C 13.7668 -1.15315 1.24092 0
M  V30 145 O 14.9728 -1.1061 1.42005 0
M  V30 146 H 11.3478 -0.218459 0.719569 0
M  V30 147 H 13.3188 -0.0141831 2.98397 0
M  V30 148 C 12.0678 -1.7899 2.98091 0
M  V30 149 H 11.3908 -1.38874 3.74905 0
M  V30 150 H 12.8308 -2.39672 3.49762 0
M  V30 151 C 11.2898 -2.68192 2.03899 0
M  V30 152 O 11.8198 -3.6872 1.594 0
M  V30 153 N 10.0258 -2.35488 1.70275 0
M  V30 154 H 9.5728 -1.53787 2.06658 0
M  V30 155 H 9.5308 -2.95442 1.07524 0
M  V30 156 N 13.3029 -1.57598 0.00835791 0
M  V30 157 C 14.2659 -2.07884 -0.965242 0
M  V30 158 C 15.2659 -0.989825 -1.26725 0
M  V30 159 O 16.4559 -1.25218 -1.21104 0
M  V30 160 C 13.5879 -2.52731 -2.28779 0
M  V30 161 H 14.7809 -2.95178 -0.530112 0
M  V30 162 H 12.3339 -1.54458 -0.239283 0
M  V30 163 H 13.0689 -1.68705 -2.76964 0
M  V30 164 H 12.8539 -3.32272 -2.08177 0
M  V30 165 H 14.3439 -2.91933 -2.98605 0
M  V30 166 N 14.781 0.264519 -1.55364 0
M  V30 167 C 15.711 1.33121 -1.91836 0
M  V30 168 C 16.692 1.51101 -0.781192 0
M  V30 169 O 17.877 1.64003 -1.04003 0
M  V30 170 C 15.007 2.68921 -2.19769 0
M  V30 171 C 13.961 2.65661 -3.35571 0
M  V30 172 C 13.287 4.05093 -3.49004 0
M  V30 173 C 14.587 2.24187 -4.71739 0
M  V30 174 H 16.281 1.02844 -2.81182 0
M  V30 175 H 13.827 0.493286 -1.35287 0
M  V30 176 H 15.78 3.43663 -2.43872 0
M  V30 177 H 14.504 3.00799 -1.27231 0
M  V30 178 H 13.163 1.93377 -3.1145 0
M  V30 179 H 12.811 4.34206 -2.53917 0
M  V30 180 H 12.511 4.03804 -4.26868 0
M  V30 181 H 14.035 4.81561 -3.75408 0
M  V30 182 H 15.449 2.88654 -4.9533 0
M  V30 183 H 13.846 2.34044 -5.52579 0
M  V30 184 H 14.916 1.19327 -4.69988 0
M  V30 185 N 16.2591 1.48442 0.529413 0
M  V30 186 C 17.2221 1.62524 1.61612 0
M  V30 187 C 18.2221 0.498509 1.52877 0
M  V30 188 O 19.4121 0.76431 1.56537 0
M  V30 189 C 16.5441 1.59597 3.01233 0
M  V30 190 H 17.7371 2.59423 1.50465 0
M  V30 191 H 15.2901 1.37047 0.751514 0
M  V30 192 H 16.0251 0.641781 3.17886 0
M  V30 193 H 15.8101 2.41397 3.08982 0
M  V30 194 H 17.3001 1.72646 3.80241 0
M  V30 195 N 17.7372 -0.778329 1.37039 0
M  V30 196 C 18.6672 -1.90546 1.34962 0
M  V30 197 C 19.6482 -1.68681 0.219274 0
M  V30 198 O 20.8332 -1.89634 0.418624 0
M  V30 199 C 17.9632 -3.27734 1.14925 0
M  V30 200 C 16.9172 -3.64147 2.24902 0
M  V30 201 C 16.2432 -4.99806 1.89996 0
M  V30 202 C 17.5432 -3.71579 3.67051 0
M  V30 203 H 19.2372 -1.92541 2.29277 0
M  V30 204 H 16.7832 -0.924948 1.10366 0
M  V30 205 H 18.7362 -4.06215 1.12104 0
M  V30 206 H 17.4602 -3.26154 0.170631 0
M  V30 207 H 16.1192 -2.8797 2.26868 0
M  V30 208 H 15.7672 -4.94759 0.906796 0
M  V30 209 H 15.4672 -5.25139 2.63634 0
M  V30 210 H 16.9912 -5.80694 1.88749 0
M  V30 211 H 18.4052 -4.40227 3.67251 0
M  V30 212 H 16.8022 -4.08405 4.39688 0
M  V30 213 H 17.8722 -2.72404 4.01154 0
M  V30 214 N 19.2153 -1.21501 -1.00376 0
M  V30 215 C 20.4433 -1.059 -1.77744 0
M  V30 216 C 20.8583 0.391125 -1.84704 0
M  V30 217 O 20.2153 1.27133 -1.30933 0
M  V30 218 C 20.2663 -1.65111 -3.21591 0
M  V30 219 O 19.9873 -3.0445 -3.15027 0
M  V30 220 C 21.4883 -1.54637 -4.15454 0
M  V30 221 H 18.7083 -0.371825 -0.558558 0
M  V30 222 H 21.2523 -1.60865 -1.26264 0
M  V30 223 H 19.4073 -1.14235 -3.70175 0
M  V30 224 H 19.8213 -3.3278 -4.0541 0
M  V30 225 H 21.2953 -2.00808 -5.14179 0
M  V30 226 H 21.7723 -0.501022 -4.36333 0
M  V30 227 H 22.3783 -2.04767 -3.72761 0
M  V30 228 N 20.6934 1.19889 -1.02296 0
M  V30 229 C 21.6234 2.25141 -0.619174 0
M  V30 230 C 22.6044 1.66051 0.368915 0
M  V30 231 O 23.7894 1.92546 0.252941 0
M  V30 232 C 20.9194 3.4728 0.0368783 0
M  V30 233 C 19.8734 4.19005 -0.872865 0
M  V30 234 C 19.1994 5.34637 -0.0822402 0
M  V30 235 C 20.4994 4.74452 -2.18387 0
M  V30 236 H 22.1934 2.59171 -1.49903 0
M  V30 237 H 19.7394 1.24579 -0.722222 0
M  V30 238 H 21.6924 4.20098 0.330958 0
M  V30 239 H 20.4164 3.12433 0.95149 0
M  V30 240 H 19.0754 3.48061 -1.15105 0
M  V30 241 H 18.7234 4.96034 0.83422 0
M  V30 242 H 18.4234 5.83557 -0.688149 0
M  V30 243 H 19.9474 6.10255 0.205238 0
M  V30 244 H 21.3614 5.39055 -1.95172 0
M  V30 245 H 19.7584 5.33834 -2.74119 0
M  V30 246 H 20.8284 3.92844 -2.84257 0
M  V30 247 N 22.1715 0.800033 1.35784 0
M  V30 248 C 23.5825 0.439142 1.81462 0
M  V30 249 C 23.9335 -1.03813 1.66485 0
M  V30 250 O 23.0585 -1.80626 1.19177 0
M  V30 251 C 23.6535 0.790314 3.29453 0
M  V30 252 C 22.2125 0.482111 3.733 0
M  V30 253 C 21.3595 1.01938 2.57883 0
M  V30 254 H 24.3105 0.992254 1.23855 0
M  V30 255 H 24.3315 0.0853677 3.80404 0
M  V30 256 H 23.8435 1.86554 3.40322 0
M  V30 257 H 21.9445 -0.584652 3.67984 0
M  V30 258 H 22.0575 1.01015 4.6833 0
M  V30 259 H 20.4215 0.442043 2.50835 0
M  V30 260 H 21.2045 2.10059 2.71533 0
M  V30 261 N 23.6496 -1.47581 0.552962 0
M  V30 262 C 24.8966 -2.02482 0.0273243 0
M  V30 263 C 25.2246 -1.42776 -1.32081 0
M  V30 264 O 24.4796 -0.571393 -1.87173 0
M  V30 265 C 24.7786 -3.57199 -0.119728 0
M  V30 266 C 24.4446 -4.35804 1.15697 0
M  V30 267 C 23.1066 -4.57 1.50681 0
M  V30 268 C 25.4586 -4.81167 2.00319 0
M  V30 269 C 22.7866 -5.20807 2.70142 0
M  V30 270 C 25.1386 -5.46293 3.18978 0
M  V30 271 C 23.8026 -5.65722 3.54281 0
M  V30 272 H 23.0726 -0.740933 0.00999866 0
M  V30 273 H 25.7196 -1.77302 0.72362 0
M  V30 274 H 24.0246 -3.81348 -0.89896 0
M  V30 275 H 25.7216 -3.97324 -0.541718 0
M  V30 276 H 22.3116 -4.19582 0.874561 0
M  V30 277 H 26.4956 -4.64574 1.74599 0
M  V30 278 H 21.7516 -5.34045 2.97668 0
M  V30 279 H 25.9256 -5.80407 3.84838 0
M  V30 280 H 23.5526 -6.14936 4.46942 0
M  V30 281 N 25.1277 -0.289203 -1.54924 0
M  V30 282 C 26.0577 0.58549 -2.2604 0
M  V30 283 C 27.0387 1.14753 -1.25562 0
M  V30 284 O 28.2237 1.17906 -1.54311 0
M  V30 285 C 25.3537 1.76305 -2.99222 0
M  V30 286 C 24.3077 1.33191 -4.06748 0
M  V30 287 C 23.6337 2.5937 -4.6758 0
M  V30 288 C 24.9337 0.471775 -5.20165 0
M  V30 289 H 26.6277 -0.00763532 -2.99399 0
M  V30 290 H 24.1737 -0.00511229 -1.43999 0
M  V30 291 H 26.1267 2.38097 -3.47689 0
M  V30 292 H 24.8507 2.38223 -2.23422 0
M  V30 293 H 23.5097 0.737121 -3.59113 0
M  V30 294 H 23.1577 3.19576 -3.88433 0
M  V30 295 H 22.8577 2.31228 -5.40192 0
M  V30 296 H 24.3817 3.21985 -5.18804 0
M  V30 297 H 25.7957 0.995056 -5.64599 0
M  V30 298 H 24.1927 0.284639 -5.99425 0
M  V30 299 H 25.2627 -0.506041 -4.82252 0
M  V30 300 N 26.6058 1.57591 -0.0167156 0
M  V30 301 C 27.5688 2.08393 0.954204 0
M  V30 302 C 28.5688 0.996531 1.26198 0
M  V30 303 O 29.7588 1.25858 1.20438 0
M  V30 304 C 26.8908 2.5394 2.27436 0
M  V30 305 H 28.0838 2.95455 0.514451 0
M  V30 306 H 25.6368 1.54582 0.231089 0
M  V30 307 H 26.3718 1.70171 2.76066 0
M  V30 308 H 26.1568 3.33371 2.06412 0
M  V30 309 H 27.6468 2.93512 2.97053 0
M  V30 310 N 28.0839 -0.256276 1.55502 0
M  V30 311 C 29.3299 -0.987079 1.77157 0
M  V30 312 C 29.6629 -1.85327 0.580315 0
M  V30 313 O 28.9379 -1.89874 -0.421686 0
M  V30 314 C 29.2209 -1.85553 3.08613 0
M  V30 315 C 29.0739 -1.01816 4.38125 0
M  V30 316 C 30.3929 -2.8397 3.36228 0
M  V30 317 H 27.5119 -0.357428 0.644526 0
M  V30 318 H 30.1539 -0.258239 1.88237 0
M  V30 319 H 28.3039 -2.47695 2.99298 0
M  V30 320 H 29.9759 -0.416159 4.59419 0
M  V30 321 H 28.2189 -0.322178 4.32602 0
M  V30 322 H 28.8899 -1.65939 5.26468 0
M  V30 323 H 31.3659 -2.31964 3.45445 0
M  V30 324 H 30.2419 -3.41864 4.29442 0
M  V30 325 H 30.5029 -3.59955 2.56681 0
M  V30 326 N 29.562 -1.4872 -0.521534 0
M  V30 327 C 30.472 -1.66569 -1.65203 0
M  V30 328 C 31.488 -0.548197 -1.65139 0
M  V30 329 O 32.664 -0.820339 -1.83936 0
M  V30 330 C 29.729 -1.70917 -3.01642 0
M  V30 331 C 28.79 -2.94356 -3.12495 0
M  V30 332 C 28.023 -2.98487 -4.42426 0
M  V30 333 O 28.246 -2.10786 -5.30024 0
M  V30 334 O 27.18 -3.90746 -4.57822 0
M  V30 335 H 31.006 -2.62298 -1.5308 0
M  V30 336 H 28.591 -1.3222 -0.695565 0
M  V30 337 H 30.473 -1.7625 -3.82771 0
M  V30 338 H 29.148 -0.783633 -3.14071 0
M  V30 339 H 28.055 -2.94552 -2.3063 0
M  V30 340 H 29.388 -3.86322 -3.04986 0
M  V30 341 N 31.0401 0.771051 -1.3745 0
M  V30 342 C 32.2861 1.5319 -1.32894 0
M  V30 343 C 32.6191 1.94008 0.0862511 0
M  V30 344 O 31.8941 1.64124 1.04373 0
M  V30 345 C 32.1771 2.79648 -2.26868 0
M  V30 346 C 32.0301 2.45079 -3.77169 0
M  V30 347 C 33.3491 3.81583 -2.19277 0
M  V30 348 H 30.4681 0.555744 -0.484064 0
M  V30 349 H 33.1101 0.884492 -1.68157 0
M  V30 350 H 31.2601 3.34891 -1.96926 0
M  V30 351 H 32.9321 1.95745 -4.1771 0
M  V30 352 H 31.1751 1.77767 -3.95704 0
M  V30 353 H 31.8461 3.35478 -4.38359 0
M  V30 354 H 34.3221 3.35835 -2.45671 0
M  V30 355 H 33.1981 4.67787 -2.87171 0
M  V30 356 H 33.4591 4.25897 -1.18592 0
M  V30 357 N 32.5182 1.22032 0.997298 0
M  V30 358 C 33.4502 0.944263 2.08845 0
M  V30 359 C 34.4632 -0.0754663 1.62625 0
M  V30 360 O 35.6522 0.157994 1.77799 0
M  V30 361 C 32.7522 0.397723 3.36558 0
M  V30 362 C 31.9252 1.47362 4.11829 0
M  V30 363 C 30.9842 0.934951 5.17827 0
M  V30 364 O 30.0102 1.62016 5.45655 0
M  V30 365 N 31.2122 -0.245895 5.79979 0
M  V30 366 H 33.9772 1.88363 2.33109 0
M  V30 367 H 31.5382 1.12661 1.16272 0
M  V30 368 H 33.5302 0.0227771 4.04694 0
M  V30 369 H 32.1002 -0.446646 3.09393 0
M  V30 370 H 31.3202 2.02208 3.38386 0
M  V30 371 H 32.6082 2.19764 4.58891 0
M  V30 372 H 32.0062 -0.819475 5.59733 0
M  V30 373 H 30.5632 -0.562272 6.4937 0
M  V30 374 N 33.9963 -1.19345 1.0293 0
M  V30 375 C 34.9443 -2.24621 0.604001 0
M  V30 376 C 35.9383 -1.65452 -0.363587 0
M  V30 377 O 37.1443 -1.78497 -0.23212 0
M  V30 378 H 33.5193 -0.730858 0.177061 0
M  V30 379 H 35.4903 -2.5781 1.50255 0
M  V30 380 C 34.2393 -3.47688 -0.0289127 0
M  V30 381 H 33.5623 -3.93505 0.706651 0
M  V30 382 H 35.0023 -4.23011 -0.289432 0
M  V30 383 C 33.4613 -3.11817 -1.2756 0
M  V30 384 O 33.9913 -3.2451 -2.36762 0
M  V30 385 N 32.1973 -2.66246 -1.16453 0
M  V30 386 H 31.7443 -2.56118 -0.275914 0
M  V30 387 H 31.7023 -2.42617 -1.99961 0
M  V30 388 N 35.4744 -0.807222 -1.35358 0
M  V30 389 C 36.4064 -0.175717 -2.28525 0
M  V30 390 C 37.4194 0.625354 -1.5031 0
M  V30 391 O 38.6084 0.457611 -1.72535 0
M  V30 392 C 35.7084 0.773471 -3.29956 0
M  V30 393 C 34.8814 0.0186296 -4.37396 0
M  V30 394 C 33.9404 0.886395 -5.18681 0
M  V30 395 O 32.9664 0.337106 -5.68201 0
M  V30 396 N 34.1684 2.20839 -5.36852 0
M  V30 397 H 36.9334 -0.976091 -2.83359 0
M  V30 398 H 34.4944 -0.662737 -1.47714 0
M  V30 399 H 36.4864 1.35824 -3.81227 0
M  V30 400 H 35.0564 1.47465 -2.75632 0
M  V30 401 H 34.2764 -0.747349 -3.87051 0
M  V30 402 H 35.5644 -0.501577 -5.06322 0
M  V30 403 H 34.9624 2.67858 -4.98265 0
M  V30 404 H 33.5194 2.74237 -5.91301 0
M  V30 405 N 36.9525 1.47285 -0.560781 0
M  V30 406 C 37.8995 2.30058 0.18491 0
M  V30 407 C 38.8695 1.39281 0.904986 0
M  V30 408 O 40.0545 1.68241 0.899979 0
M  V30 409 C 37.1945 3.23317 1.20666 0
M  V30 410 C 36.3075 4.29186 0.492285 0
M  V30 411 C 35.4425 5.09592 1.49964 0
M  V30 412 C 34.4815 6.07232 0.770439 0
M  V30 413 N 33.6185 6.80584 1.72479 0
M  V30 414 H 38.4585 2.93302 -0.527048 0
M  V30 415 H 35.9955 1.44568 -0.271738 0
M  V30 416 H 37.9535 3.75811 1.81168 0
M  V30 417 H 36.5835 2.61929 1.88661 0
M  V30 418 H 35.6355 3.7972 -0.227333 0
M  V30 419 H 36.9475 4.98738 -0.0787929 0
M  V30 420 H 36.1015 5.66254 2.17809 0
M  V30 421 H 34.8405 4.3995 2.10464 0
M  V30 422 H 33.8455 5.49745 0.0780846 0
M  V30 423 H 35.0705 6.78884 0.171134 0
M  V30 424 H 33.0165 6.1367 2.3183 0
M  V30 425 H 32.9335 7.46319 1.20596 0
M  V30 426 H 34.2015 7.41818 2.39428 0
M  V30 427 N 38.4306 0.297415 1.54768 0
M  V30 428 C 39.3626 -0.613881 2.20826 0
M  V30 429 C 40.3756 -1.10032 1.19987 0
M  V30 430 O 41.5646 -1.01839 1.46598 0
M  V30 431 C 38.6646 -1.852 2.83821 0
M  V30 432 C 37.8376 -1.50865 4.10559 0
M  V30 433 C 36.8966 -2.60154 4.57391 0
M  V30 434 O 35.9226 -2.25398 5.2267 0
M  V30 435 N 37.1246 -3.90629 4.29406 0
M  V30 436 H 39.8896 -0.048389 2.99661 0
M  V30 437 H 37.4506 0.11946 1.61459 0
M  V30 438 H 39.4426 -2.57652 3.12086 0
M  V30 439 H 38.0126 -2.32597 2.08847 0
M  V30 440 H 37.2326 -0.616925 3.89343 0
M  V30 441 H 38.5206 -1.25458 4.9309 0
M  V30 442 H 37.9186 -4.21677 3.77101 0
M  V30 443 H 36.4756 -4.59391 4.62388 0
M  V30 444 N 39.9087 -1.5758 0.0250728 0
M  V30 445 C 41.3197 -1.79476 -0.514323 0
M  V30 446 C 41.6707 -0.934956 -1.72491 0
M  V30 447 O 40.7957 -0.144245 -2.15919 0
M  V30 448 C 41.3907 -3.25503 -0.939842 0
M  V30 449 C 39.9497 -3.48408 -1.42438 0
M  V30 450 C 39.0967 -2.74583 -0.387201 0
M  V30 451 H 42.0477 -1.567 0.25113 0
M  V30 452 H 42.0687 -3.34992 -1.80445 0
M  V30 453 H 41.5807 -3.88056 -0.0585628 0
M  V30 454 H 39.6817 -2.91103 -2.32572 0
M  V30 455 H 39.7947 -4.57119 -1.43455 0
M  V30 456 H 38.1587 -2.39942 -0.854409 0
M  V30 457 H 38.9417 -3.39849 0.485543 0
M  V30 458 N 41.3868 0.248026 -1.55636 0
M  V30 459 C 42.3498 1.29044 -1.89421 0
M  V30 460 C 43.3498 1.41134 -0.770581 0
M  V30 461 O 44.5398 1.39854 -1.03858 0
M  V30 462 C 41.6718 2.66831 -2.12165 0
M  V30 463 H 42.8648 1.00305 -2.82629 0
M  V30 464 H 40.4178 0.487265 -1.48511 0
M  V30 465 H 41.1528 3.00711 -1.21422 0
M  V30 466 H 40.9378 2.59438 -2.93997 0
M  V30 467 H 42.4278 3.42103 -2.3949 0
M  V30 468 N 42.8649 1.48995 0.513639 0
M  V30 469 C 44.1049 1.59452 1.27885 0
M  V30 470 C 44.4689 0.269479 1.90099 0
M  V30 471 O 45.6699 0.249139 2.67643 0
M  V30 472 C 43.9409 2.71277 2.32688 0
M  V30 473 S 45.4999 3.01604 3.18717 0
M  V30 474 H 42.3179 0.562565 0.434789 0
M  V30 475 H 44.9199 1.86595 0.583301 0
M  V30 476 H 43.6239 3.66089 1.8549 0
M  V30 477 H 43.1549 2.46086 3.06929 0
M  V30 478 H 45.1699 2.42155 4.331 0
M  V30 479 N 44.343 -0.763751 1.37857 0
M  V30 480 C 45.293 -1.86765 1.30777 0
M  V30 481 C 46.277 -1.59726 0.194015 0
M  V30 482 O 47.469 -1.7172 0.42911 0
M  V30 483 C 44.598 -3.24343 1.12502 0
M  V30 484 C 43.684 -3.57307 2.28456 0
M  V30 485 N 44.075 -3.61398 3.53871 0
M  V30 486 C 42.373 -3.87517 2.20786 0
M  V30 487 C 43.074 -3.91339 4.30382 0
M  V30 488 N 42.05 -4.07649 3.59615 0
M  V30 489 H 45.852 -1.88191 2.25746 0
M  V30 490 H 43.366 -0.9606 1.30944 0
M  V30 491 H 45.363 -4.03327 1.05514 0
M  V30 492 H 44.023 -3.24175 0.184574 0
M  V30 493 H 45.034 -3.43407 3.87675 0
M  V30 494 H 41.711 -3.95125 1.34844 0
M  V30 495 H 43.101 -4.01213 5.3896 0
M  V30 496 N 45.8211 -1.22559 -0.990812 0
M  V30 497 C 46.7311 -1.01394 -2.11557 0
M  V30 498 C 47.7471 0.0383962 -1.73958 0
M  V30 499 O 48.9231 -0.154787 -2.00804 0
M  V30 500 C 45.9881 -0.596569 -3.41529 0
M  V30 501 C 45.0491 -1.72276 -3.93217 0
M  V30 502 C 44.2821 -1.32521 -5.16985 0
M  V30 503 O 44.5051 -0.204909 -5.70032 0
M  V30 504 O 43.4391 -2.14247 -5.62478 0
M  V30 505 H 47.2651 -1.95633 -2.32296 0
M  V30 506 H 44.8501 -1.01172 -1.0993 0
M  V30 507 H 46.7321 -0.374263 -4.19735 0
M  V30 508 H 45.4071 0.316939 -3.22145 0
M  V30 509 H 44.3141 -1.99961 -3.16174 0
M  V30 510 H 45.6471 -2.61421 -4.17037 0
M  V30 511 N 47.2992 1.18797 -1.03562 0
M  V30 512 C 48.2472 2.24297 -0.615905 0
M  V30 513 C 49.2412 1.65643 0.354808 0
M  V30 514 O 50.4472 1.78618 0.22265 0
M  V30 515 H 46.8222 0.729909 -0.180934 0
M  V30 516 H 48.7932 2.5701 -1.5162 0
M  V30 517 C 47.5422 3.47698 0.0104735 0
M  V30 518 H 46.8652 3.93125 -0.727509 0
M  V30 519 H 48.3052 4.23159 0.266995 0
M  V30 520 C 46.7642 3.12489 1.25905 0
M  V30 521 O 47.2942 3.25761 2.35038 0
M  V30 522 N 45.5002 2.6686 1.15039 0
M  V30 523 H 45.0472 2.56261 0.262328 0
M  V30 524 H 45.0052 2.43674 1.98672 0
M  V30 525 N 48.7773 0.814389 1.34928 0
M  V30 526 C 50.0543 0.321363 1.92942 0
M  V30 527 C 50.4343 -1.19014 1.74353 0
M  V30 528 O 49.7823 -1.99328 1.11716 0
M  V30 529 C 49.9923 0.741323 3.41036 0
M  V30 530 C 51.3403 0.735266 4.18185 0
M  V30 531 O 52.3643 0.68336 3.49584 0
M  V30 532 O 51.2233 0.800703 5.40602 0
M  V30 533 H 48.3173 0.0858893 0.822528 0
M  V30 534 H 50.8633 0.898609 1.43955 0
M  V30 535 H 49.6353 1.78276 3.4833 0
M  V30 536 H 49.2583 0.139307 3.97356 0
M  V30 537 N 50.2554 -1.46986 0.568584 0
M  V30 538 C 51.1654 -2.33942 -0.17555 0
M  V30 539 C 52.1814 -1.48891 -0.90041 0
M  V30 540 O 53.3574 -1.81794 -0.86676 0
M  V30 541 C 50.4224 -3.25811 -1.18524 0
M  V30 542 C 49.4834 -4.26757 -0.466582 0
M  V30 543 C 48.7164 -5.14236 -1.42817 0
M  V30 544 O 48.9394 -5.04379 -2.66379 0
M  V30 545 O 47.8734 -5.94412 -0.946453 0
M  V30 546 H 51.6994 -2.98896 0.538036 0
M  V30 547 H 49.2844 -1.4573 0.329097 0
M  V30 548 H 51.1664 -3.82527 -1.76779 0
M  V30 549 H 49.8414 -2.63471 -1.88055 0
M  V30 550 H 48.7484 -3.73769 0.157451 0
M  V30 551 H 50.0814 -4.91843 0.187485 0
M  V30 552 N 51.7335 -0.305618 -1.54608 0
M  V30 553 C 53.1495 0.0476228 -1.59529 0
M  V30 554 C 53.3495 1.52025 -1.32252 0
M  V30 555 O 52.4055 2.27368 -1.09818 0
M  V30 556 C 53.7185 -0.354471 -2.98603 0
M  V30 557 C 55.2665 -0.303622 -3.11524 0
M  V30 558 C 55.7415 -0.680608 -4.52915 0
M  V30 559 N 57.2325 -0.63332 -4.5885 0
M  V30 560 C 57.9675 -0.897432 -5.66334 0
M  V30 561 N 57.4635 -1.22775 -6.81834 0
M  V30 562 N 59.2565 -0.824186 -5.56025 0
M  V30 563 H 51.4075 -1.2653 -1.70599 0
M  V30 564 H 53.6705 -0.513291 -0.797017 0
M  V30 565 H 53.3765 -1.3798 -3.23503 0
M  V30 566 H 53.2505 0.289568 -3.76087 0
M  V30 567 H 55.6375 0.712472 -2.8637 0
M  V30 568 H 55.7185 -0.982348 -2.36185 0
M  V30 569 H 55.3625 -1.69453 -4.78799 0
M  V30 570 H 55.2925 0.0202385 -5.26596 0
M  V30 571 H 57.7835 -0.389138 -3.75891 0
M  V30 572 H 58.0965 -1.41513 -7.59733 0
M  V30 573 H 56.4415 -1.26583 -6.83375 0
M  V30 574 H 59.6325 -0.565748 -4.64669 0
M  V30 575 H 59.8055 -1.03338 -6.39707 0
M  V30 576 N 53.2116 1.57565 -0.0334293 0
M  V30 577 C 54.6226 1.79746 0.504798 0
M  V30 578 C 54.9736 0.944091 1.71992 0
M  V30 579 O 54.0986 0.155694 2.15839 0
M  V30 580 C 54.6936 3.25997 0.922567 0
M  V30 581 C 53.2526 3.49159 1.40588 0
M  V30 582 C 52.3996 2.74785 0.372633 0
M  V30 583 H 55.3506 1.56565 -0.259436 0
M  V30 584 H 55.3716 3.35945 1.78666 0
M  V30 585 H 54.8836 3.88081 0.0379825 0
M  V30 586 H 52.9846 2.92332 2.31025 0
M  V30 587 H 53.0976 4.57873 1.41028 0
M  V30 588 H 51.4616 2.40391 0.841672 0
M  V30 589 H 52.2446 3.39587 -0.503559 0
M  V30 590 N 54.6897 -0.239769 1.55765 0
M  V30 591 C 55.9367 -0.966801 1.7793 0
M  V30 592 C 56.2647 -1.85046 0.599015 0
M  V30 593 O 55.5197 -1.91197 -0.417395 0
M  V30 594 C 55.8187 -1.852 3.05672 0
M  V30 595 C 55.4847 -1.1231 4.36689 0
M  V30 596 C 54.1467 -0.921689 4.72291 0
M  V30 597 C 56.4987 -0.607019 5.17653 0
M  V30 598 C 53.8267 -0.191996 5.86386 0
M  V30 599 C 56.1787 0.109241 6.32506 0
M  V30 600 C 54.8427 0.322073 6.66723 0
M  V30 601 H 54.1127 -0.353778 0.651093 0
M  V30 602 H 56.7597 -0.23634 1.90036 0
M  V30 603 H 55.0647 -2.64975 2.8861 0
M  V30 604 H 56.7617 -2.41635 3.20021 0
M  V30 605 H 53.3517 -1.29004 4.08725 0
M  V30 606 H 57.5357 -0.750153 4.90598 0
M  V30 607 H 52.7917 -0.0166949 6.11398 0
M  V30 608 H 56.9657 0.516737 6.9448 0
M  V30 609 H 54.5927 0.88944 7.54979 0
M  V30 610 N 56.1678 -1.49265 -0.50573 0
M  V30 611 C 57.3978 -1.61979 -1.28243 0
M  V30 612 C 57.8058 -0.288576 -1.86986 0
M  V30 613 O 57.1488 0.735408 -1.68337 0
M  V30 614 C 57.2108 -2.62632 -2.45489 0
M  V30 615 C 56.8748 -4.071 -2.07651 0
M  V30 616 C 57.8718 -4.94049 -1.61901 0
M  V30 617 C 55.5568 -4.52801 -2.17431 0
M  V30 618 C 57.5508 -6.24736 -1.26428 0
M  V30 619 C 55.2378 -5.83503 -1.8157 0
M  V30 620 C 56.2358 -6.69294 -1.36142 0
M  V30 621 O 55.9238 -7.9756 -1.00764 0
M  V30 622 H 55.6558 -0.54834 -0.395347 0
M  V30 623 H 58.2098 -1.96002 -0.614204 0
M  V30 624 H 56.4398 -2.2378 -3.15372 0
M  V30 625 H 58.1288 -2.64925 -3.07522 0
M  V30 626 H 58.8948 -4.5997 -1.53795 0
M  V30 627 H 54.7738 -3.86196 -2.51742 0
M  V30 628 H 58.3178 -6.91652 -0.908992 0
M  V30 629 H 54.2148 -6.17112 -1.89324 0
M  V30 630 H 54.9828 -8.10529 -1.13952 0
M  V30 631 N 57.6459 0.756429 -1.3826 0
M  V30 632 C 58.5779 1.87971 -1.31147 0
M  V30 633 C 59.5909 1.61248 -0.224239 0
M  V30 634 O 60.7799 1.71881 -0.481581 0
M  V30 635 C 57.8799 3.23545 -1.00857 0
M  V30 636 C 57.0529 3.77794 -2.20432 0
M  V30 637 C 56.1119 4.91877 -1.86931 0
M  V30 638 O 55.1379 5.06659 -2.59395 0
M  V30 639 N 56.3399 5.74643 -0.822568 0
M  V30 640 H 59.1049 1.94585 -2.2794 0
M  V30 641 H 56.6659 0.936234 -1.32084 0
M  V30 642 H 58.6579 3.97403 -0.765021 0
M  V30 643 H 57.2279 3.12335 -0.128687 0
M  V30 644 H 56.4479 2.95534 -2.6087 0
M  V30 645 H 57.7359 4.10771 -3.00241 0
M  V30 646 H 57.1339 5.65266 -0.221575 0
M  V30 647 H 55.6909 6.48661 -0.638899 0
M  V30 648 N 59.124 1.23083 0.984299 0
M  V30 649 C 60.071 1.00854 2.07598 0
M  V30 650 C 61.041 -0.0726709 1.65941 0
M  V30 651 O 62.226 0.0786535 1.90638 0
M  V30 652 C 59.366 0.601645 3.39815 0
M  V30 653 C 58.479 1.75456 3.94765 0
M  V30 654 C 57.614 1.29482 5.15177 0
M  V30 655 C 56.653 2.41873 5.62284 0
M  V30 656 N 55.79 1.96885 6.73929 0
M  V30 657 H 60.63 1.943 2.25946 0
M  V30 658 H 58.167 0.968001 1.10762 0
M  V30 659 H 60.125 0.346854 4.15756 0
M  V30 660 H 58.755 -0.295803 3.21442 0
M  V30 661 H 57.807 2.12346 3.15616 0
M  V30 662 H 59.119 2.59965 4.25699 0
M  V30 663 H 58.273 0.997923 5.98437 0
M  V30 664 H 57.012 0.420046 4.85888 0
M  V30 665 H 56.017 2.72342 4.77608 0
M  V30 666 H 57.242 3.29881 5.93595 0
M  V30 667 H 55.188 1.11782 6.46406 0
M  V30 668 H 55.105 2.74956 7.04227 0
M  V30 669 H 56.373 1.70289 7.60672 0
M  V30 670 N 60.6021 -1.18246 1.0419 0
M  V30 671 C 61.8301 -1.92195 0.766072 0
M  V30 672 C 62.2451 -1.76247 -0.676933 0
M  V30 673 O 61.6021 -1.09293 -1.46155 0
M  V30 674 C 61.6531 -3.43568 1.12442 0
M  V30 675 O 61.3741 -3.59015 2.51078 0
M  V30 676 C 62.8751 -4.34613 0.873275 0
M  V30 677 H 60.0951 -0.610114 0.279288 0
M  V30 678 H 62.6391 -1.50007 1.38989 0
M  V30 679 H 60.7941 -3.8354 0.545542 0
M  V30 680 H 61.2081 -4.5273 2.64831 0
M  V30 681 H 62.6821 -5.39374 1.17385 0
M  V30 682 H 63.1591 -4.38781 -0.191909 0
M  V30 683 H 63.7651 -4.00341 1.43551 0
M  V30 684 N 62.0802 -0.821533 -1.34494 0
M  V30 685 C 63.0432 -0.247847 -2.27856 0
M  V30 686 C 64.0432 0.573453 -1.50227 0
M  V30 687 O 65.2332 0.389759 -1.69784 0
M  V30 688 C 62.3652 0.652698 -3.34593 0
M  V30 689 H 63.5582 -1.07146 -2.80107 0
M  V30 690 H 61.1112 -0.593291 -1.44602 0
M  V30 691 H 61.8462 1.49943 -2.87555 0
M  V30 692 H 61.6312 0.065292 -3.92046 0
M  V30 693 H 63.1212 1.04793 -4.04238 0
M  V30 694 N 63.5583 1.46682 -0.576371 0
M  V30 695 C 64.9693 1.86112 -0.148091 0
M  V30 696 C 65.3203 1.48073 1.2872 0
M  V30 697 O 64.4453 0.892656 1.97131 0
M  V30 698 C 65.0403 3.37786 -0.261982 0
M  V30 699 C 63.5993 3.76235 0.111384 0
M  V30 700 C 62.7463 2.70713 -0.60083 0
M  V30 701 H 65.6973 1.37927 -0.78497 0
M  V30 702 H 65.7183 3.77007 0.514364 0
M  V30 703 H 65.2303 3.6544 -1.30671 0
M  V30 704 H 63.3313 3.54198 1.15649 0
M  V30 705 H 63.4443 4.78391 -0.26052 0
M  V30 706 H 61.8083 2.54666 -0.0417783 0
M  V30 707 H 62.5913 3.01208 -1.64708 0
M  V30 708 N 65.0364 0.313813 1.54444 0
M  V30 709 C 66.2664 -0.293491 2.04505 0
M  V30 710 C 66.6744 -1.47086 1.19005 0
M  V30 711 O 66.0174 -1.82481 0.211257 0
M  V30 712 C 66.0794 -0.800455 3.50475 0
M  V30 713 C 65.7434 0.253322 4.56297 0
M  V30 714 C 66.7404 1.08612 5.08428 0
M  V30 715 C 64.4254 0.398708 5.00715 0
M  V30 716 C 66.4194 2.05013 6.0353 0
M  V30 717 C 64.1064 1.36614 5.95634 0
M  V30 718 C 65.1044 2.19033 6.46926 0
M  V30 719 O 64.7924 3.14134 7.39983 0
M  V30 720 H 64.5244 -0.0658325 0.672787 0
M  V30 721 H 67.0784 0.455177 2.00293 0
M  V30 722 H 65.3084 -1.59987 3.52053 0
M  V30 723 H 66.9974 -1.32504 3.83663 0
M  V30 724 H 67.7634 0.984736 4.74898 0
M  V30 725 H 63.6424 -0.23289 4.60411 0
M  V30 726 H 67.1864 2.69382 6.4349 0
M  V30 727 H 63.0834 1.4682 6.28581 0
M  V30 728 H 63.8514 3.0926 7.57826 0
M  V30 729 N 66.5145 -1.57545 0.0417849 0
M  V30 730 C 67.7605 -1.92601 -0.635021 0
M  V30 731 C 68.0935 -0.919627 -1.71045 0
M  V30 732 O 67.3685 0.0557892 -1.9442 0
M  V30 733 C 67.6515 -3.38085 -1.23979 0
M  V30 734 C 67.5045 -4.49467 -0.173057 0
M  V30 735 C 68.8235 -3.83776 -2.15416 0
M  V30 736 H 65.9425 -0.700397 -0.229374 0
M  V30 737 H 68.5845 -1.89728 0.101633 0
M  V30 738 H 66.7345 -3.40664 -1.86762 0
M  V30 739 H 68.4065 -4.59018 0.458312 0
M  V30 740 H 66.6495 -4.30909 0.499996 0
M  V30 741 H 67.3205 -5.48323 -0.636054 0
M  V30 742 H 69.7965 -3.83013 -1.62605 0
M  V30 743 H 68.6725 -4.8624 -2.54679 0
M  V30 744 H 68.9335 -3.19998 -3.05047 0
M  V30 745 N 67.9926 0.231505 -1.5589 0
M  V30 746 C 69.4036 0.799327 -1.68724 0
M  V30 747 C 69.7546 1.85398 -0.642022 0
M  V30 748 O 68.8796 2.1539 0.208784 0
M  V30 749 C 69.4746 1.45664 -3.05888 0
M  V30 750 C 68.0336 1.97197 -3.20609 0
M  V30 751 C 67.1806 0.828552 -2.64632 0
M  V30 752 H 70.1316 0.00702616 -1.58698 0
M  V30 753 H 70.1526 2.32517 -3.01191 0
M  V30 754 H 69.6646 0.688808 -3.81939 0
M  V30 755 H 67.7656 2.76813 -2.4941 0
M  V30 756 H 67.8786 2.15878 -4.27707 0
M  V30 757 H 66.2426 1.23321 -2.22854 0
M  V30 758 H 67.0256 0.0735544 -3.43221 0
M  V30 759 N 69.4707 1.49531 0.497807 0
M  V30 760 C 70.4037 1.61043 1.6168 0
M  V30 761 C 71.3817 0.459386 1.55976 0
M  V30 762 O 72.5657 0.675358 1.75986 0
M  V30 763 C 69.6927 1.56833 3.00202 0
M  V30 764 C 68.7387 2.77173 3.24156 0
M  V30 765 S 69.5717 4.38808 3.06933 0
M  V30 766 C 70.7277 4.37248 4.47845 0
M  V30 767 H 70.9607 2.55702 1.51671 0
M  V30 768 H 68.4937 1.38462 0.683201 0
M  V30 769 H 70.4517 1.55089 3.80076 0
M  V30 770 H 69.1127 0.634561 3.07623 0
M  V30 771 H 68.3057 2.70456 4.25288 0
M  V30 772 H 67.9077 2.76346 2.5201 0
M  V30 773 H 70.1997 4.09164 5.39992 0
M  V30 774 H 71.1427 5.38668 4.59612 0
M  V30 775 H 71.5507 3.67286 4.28674 0
M  V30 776 N 70.9488 -0.749086 1.3866 0
M  V30 777 C 72.1788 -1.53611 1.38157 0
M  V30 778 C 72.5868 -1.89177 -0.0293595 0
M  V30 779 O 71.9298 -1.53606 -1.00752 0
M  V30 780 C 71.9918 -2.86087 2.17702 0
M  V30 781 C 71.6558 -2.73034 3.66472 0
M  V30 782 C 72.6528 -2.42526 4.59866 0
M  V30 783 C 70.3378 -2.90345 4.09884 0
M  V30 784 C 72.3318 -2.29492 5.94653 0
M  V30 785 C 70.0188 -2.7693 5.4475 0
M  V30 786 C 71.0168 -2.46547 6.36949 0
M  V30 787 O 70.7048 -2.33199 7.69333 0
M  V30 788 H 70.4368 -0.481773 0.474205 0
M  V30 789 H 72.9908 -0.934465 1.82912 0
M  V30 790 H 71.2208 -3.48458 1.67672 0
M  V30 791 H 72.9098 -3.47625 2.09551 0
M  V30 792 H 73.6758 -2.28816 4.27631 0
M  V30 793 H 69.5548 -3.1299 3.38464 0
M  V30 794 H 73.0988 -2.05698 6.66584 0
M  V30 795 H 68.9958 -2.90215 5.76581 0
M  V30 796 H 69.7638 -2.48376 7.79905 0
M  V30 797 N 72.4269 -1.23603 -0.977757 0
M  V30 798 C 73.6569 -1.09487 -1.75203 0
M  V30 799 C 74.0649 0.356321 -1.85814 0
M  V30 800 O 73.4079 1.25816 -1.33851 0
M  V30 801 C 73.4699 -1.64905 -3.19447 0
M  V30 802 C 73.1339 -3.13688 -3.32338 0
M  V30 803 C 74.1309 -4.10953 -3.18455 0
M  V30 804 C 71.8159 -3.53449 -3.56902 0
M  V30 805 C 73.8099 -5.45962 -3.28944 0
M  V30 806 C 71.4969 -4.88602 -3.6703 0
M  V30 807 C 72.4949 -5.84668 -3.53062 0
M  V30 808 O 72.1829 -7.17365 -3.62826 0
M  V30 809 H 71.9149 -0.38367 -0.556573 0
M  V30 810 H 74.4689 -1.6398 -1.23693 0
M  V30 811 H 72.6989 -1.04835 -3.72218 0
M  V30 812 H 74.3879 -1.46226 -3.78646 0
M  V30 813 H 75.1539 -3.81577 -2.99372 0
M  V30 814 H 71.0329 -2.79188 -3.66844 0
M  V30 815 H 74.5769 -6.20925 -3.17958 0
M  V30 816 H 70.4739 -5.17653 -3.85623 0
M  V30 817 H 71.2419 -7.2515 -3.79605 0
M  V30 818 N 73.905 1.17692 -1.04816 0
M  V30 819 C 75.151 1.88137 -0.75711 0
M  V30 820 C 75.484 1.80604 0.713841 0
M  V30 821 O 74.759 1.21146 1.52164 0
M  V30 822 C 75.042 3.38318 -1.2334 0
M  V30 823 C 74.895 3.54622 -2.76701 0
M  V30 824 C 76.214 4.32214 -0.829415 0
M  V30 825 H 73.333 0.683163 -0.27651 0
M  V30 826 H 75.975 1.38424 -1.30149 0
M  V30 827 H 74.125 3.80787 -0.770286 0
M  V30 828 H 75.797 3.21194 -3.31107 0
M  V30 829 H 74.04 2.97026 -3.16161 0
M  V30 830 H 74.711 4.60028 -3.05088 0
M  V30 831 H 77.187 3.97565 -1.22805 0
M  V30 832 H 76.063 5.35838 -1.19033 0
M  V30 833 H 76.324 4.41294 0.266891 0
M  V30 834 N 75.3831 0.828654 1.34056 0
M  V30 835 C 76.7941 0.477534 1.8049 0
M  V30 836 C 77.1451 -1.00258 1.6865 0
M  V30 837 O 76.2701 -1.78057 1.22982 0
M  V30 838 C 76.8651 0.860018 3.27703 0
M  V30 839 C 75.4241 0.561185 3.72193 0
M  V30 840 C 74.5711 1.07385 2.55663 0
M  V30 841 H 77.5221 1.0183 1.21722 0
M  V30 842 H 77.5431 0.166038 3.80138 0
M  V30 843 H 77.0551 1.93731 3.36288 0
M  V30 844 H 75.1561 -0.506465 3.69142 0
M  V30 845 H 75.2691 1.10926 4.66082 0
M  V30 846 H 73.6331 0.495149 2.49841 0
M  V30 847 H 74.4161 2.15771 2.67016 0
M  V30 848 N 76.8612 -1.46375 0.584142 0
M  V30 849 C 77.8092 -2.32042 -0.161047 0
M  V30 850 C 78.8032 -1.44569 -0.882966 0
M  V30 851 O 80.0092 -1.61186 -0.801191 0
M  V30 852 H 76.3842 -0.748659 -0.0708033 0
M  V30 853 H 78.3552 -2.92704 0.580269 0
M  V30 854 C 77.1042 -3.27762 -1.1605 0
M  V30 855 H 76.4272 -3.95051 -0.614419 0
M  V30 856 H 77.8672 -3.90481 -1.65228 0
M  V30 857 C 76.3262 -2.53218 -2.22221 0
M  V30 858 O 76.8562 -2.29628 -3.29597 0
M  V30 859 N 75.0622 -2.13756 -1.96868 0
M  V30 860 H 74.6092 -2.33142 -1.09557 0
M  V30 861 H 74.5672 -1.642 -2.68115 0
M  V30 862 N 78.3393 -0.321999 -1.54275 0
M  V30 863 C 79.5643 0.285791 -2.05422 0
M  V30 864 C 79.9893 1.45124 -1.19669 0
M  V30 865 O 79.3473 1.80132 -0.205441 0
M  V30 866 C 79.3953 0.69956 -3.53749 0
M  V30 867 O 78.4993 1.8021 -3.70942 0
M  V30 868 H 77.8403 0.0518962 -0.661969 0
M  V30 869 H 80.3703 -0.469954 -1.9913 0
M  V30 870 H 80.3803 0.982649 -3.9599 0
M  V30 871 H 79.0553 -0.152864 -4.15619 0
M  V30 872 H 77.6323 1.51794 -3.40607 0
M  V30 873 N 79.8174 1.5752 -0.0501392 0
M  V30 874 C 81.0474 1.96678 0.632573 0
M  V30 875 C 81.4554 0.926298 1.64974 0
M  V30 876 O 80.7984 -0.09802 1.83438 0
M  V30 877 C 80.8604 3.32068 1.37735 0
M  V30 878 C 80.5244 4.54076 0.516131 0
M  V30 879 C 81.5214 5.19445 -0.217357 0
M  V30 880 C 79.2064 5.00304 0.44736 0
M  V30 881 C 81.2004 6.29378 -1.00807 0
M  V30 882 C 78.8874 6.10114 -0.347038 0
M  V30 883 C 79.8854 6.74512 -1.07344 0
M  V30 884 O 79.5734 7.82211 -1.85477 0
M  V30 885 H 79.3054 0.652193 0.177821 0
M  V30 886 H 81.8594 2.05091 -0.112543 0
M  V30 887 H 80.0894 3.20206 2.16807 0
M  V30 888 H 81.7784 3.55981 1.95019 0
M  V30 889 H 82.5444 4.84689 -0.173688 0
M  V30 890 H 78.4234 4.49971 1.00235 0
M  V30 891 H 81.9674 6.79575 -1.57556 0
M  V30 892 H 77.8644 6.44307 -0.392349 0
M  V30 893 H 78.6324 7.98982 -1.77678 0
M  V30 894 N 81.2955 -0.223234 1.56011 0
M  V30 895 C 82.7065 -0.790368 1.69145 0
M  V30 896 C 83.0575 -1.85055 0.651845 0
M  V30 897 O 82.1825 -2.15498 -0.197359 0
M  V30 898 C 82.7775 -1.4404 3.06656 0
M  V30 899 C 81.3365 -1.95494 3.2165 0
M  V30 900 C 80.4835 -0.814506 2.65068 0
M  V30 901 H 83.4345 0.00139011 1.587 0
M  V30 902 H 83.4555 -2.30916 3.0242 0
M  V30 903 H 82.9675 -0.668543 3.82298 0
M  V30 904 H 81.0685 -2.75487 2.50874 0
M  V30 905 H 81.1815 -2.13607 4.28846 0
M  V30 906 H 79.5455 -1.22137 2.23505 0
M  V30 907 H 80.3285 -0.0553515 3.43255 0
M  V30 908 N 82.7736 -1.49793 -0.48987 0
M  V30 909 C 84.0036 -1.6333 -1.26518 0
M  V30 910 C 84.4116 -0.308392 -1.8667 0
M  V30 911 O 83.7546 0.717512 -1.69108 0
M  V30 912 C 83.8166 -2.6522 -2.4269 0
M  V30 913 C 83.4806 -4.09279 -2.03321 0
M  V30 914 C 84.4776 -4.95738 -1.56652 0
M  V30 915 C 82.1626 -4.55082 -2.12616 0
M  V30 916 C 84.1566 -6.26041 -1.19795 0
M  V30 917 C 81.8436 -5.85396 -1.75371 0
M  V30 918 C 82.8416 -6.707 -1.29036 0
M  V30 919 O 82.5296 -7.98584 -0.92299 0
M  V30 920 H 82.2616 -0.552502 -0.389509 0
M  V30 921 H 84.8156 -1.96642 -0.593381 0
M  V30 922 H 83.0456 -2.27112 -3.12981 0
M  V30 923 H 84.7346 -2.68171 -3.04695 0
M  V30 924 H 85.5006 -4.61575 -1.48908 0
M  V30 925 H 81.3796 -3.88844 -2.47631 0
M  V30 926 H 84.9236 -6.92578 -0.835582 0
M  V30 927 H 80.8206 -6.19085 -1.82768 0
M  V30 928 H 81.5886 -8.11692 -1.05349 0
M  V30 929 N 84.2517 0.741722 -1.39055 0
M  V30 930 C 85.4817 1.52876 -1.3897 0
M  V30 931 C 85.8897 1.8919 0.0193266 0
M  V30 932 O 85.2327 1.54138 0.999356 0
M  V30 933 C 85.2947 2.84929 -2.19216 0
M  V30 934 C 84.9587 2.71086 -3.67915 0
M  V30 935 C 85.9557 2.40084 -4.61146 0
M  V30 936 C 83.6407 2.88168 -4.11418 0
M  V30 937 C 85.6347 2.26335 -5.95862 0
M  V30 938 C 83.3217 2.74037 -5.46211 0
M  V30 939 C 84.3197 2.43166 -6.38247 0
M  V30 940 O 84.0077 2.29115 -7.70559 0
M  V30 941 H 83.7397 0.479252 -0.476753 0
M  V30 942 H 86.2937 0.924751 -1.83405 0
M  V30 943 H 84.5237 3.47564 -1.69518 0
M  V30 944 H 86.2127 3.46509 -2.11392 0
M  V30 945 H 86.9787 2.26545 -4.28838 0
M  V30 946 H 82.8577 3.11191 -3.40119 0
M  V30 947 H 86.4017 2.0216 -6.67665 0
M  V30 948 H 82.2987 2.87153 -5.78112 0
M  V30 949 H 83.0667 2.44237 -7.81211 0
M  V30 950 N 85.7298 1.2412 0.971189 0
M  V30 951 C 86.9778 1.07668 1.71032 0
M  V30 952 C 87.2988 -0.385797 1.91146 0
M  V30 953 O 86.5688 -1.27569 1.4867 0
M  V30 954 H 85.1488 0.395429 0.633755 0
M  V30 955 H 87.8108 1.55984 1.16855 0
M  V30 956 H 86.9068 1.57195 2.69622 0
M  V30 957 N 87.2079 -1.17134 1.05439 0
M  V30 958 C 88.4359 -1.91372 0.786414 0
M  V30 959 C 88.8509 -1.76955 -0.658202 0
M  V30 960 O 88.2079 -1.10838 -1.44987 0
M  V30 961 C 88.2589 -3.42356 1.1608 0
M  V30 962 O 87.9799 -3.56332 2.54871 0
M  V30 963 C 89.4809 -4.33663 0.919322 0
M  V30 964 H 86.7009 -0.607118 0.285743 0
M  V30 965 H 89.2449 -1.48525 1.40572 0
M  V30 966 H 87.3999 -3.82939 0.586191 0
M  V30 967 H 87.8139 -4.49896 2.69618 0
M  V30 968 H 89.2879 -5.38099 1.231 0
M  V30 969 H 89.7649 -4.38959 -0.145359 0
M  V30 970 H 90.3709 -3.98796 1.47789 0
M  V30 971 N 88.686 -0.835752 -1.33615 0
M  V30 972 C 89.634 -0.255238 -2.31195 0
M  V30 973 C 90.628 0.61107 -1.57995 0
M  V30 974 O 91.834 0.500979 -1.72888 0
M  V30 975 H 88.209 -0.0638085 -0.749288 0
M  V30 976 H 90.18 -1.09283 -2.77669 0
M  V30 977 C 88.929 0.55754 -3.43201 0
M  V30 978 H 88.252 -0.0997553 -3.99676 0
M  V30 979 H 89.692 0.929622 -4.13683 0
M  V30 980 C 88.151 1.73515 -2.88781 0
M  V30 981 O 88.681 2.83376 -2.84712 0
M  V30 982 N 86.887 1.55603 -2.4543 0
M  V30 983 H 86.434 0.662354 -2.48939 0
M  V30 984 H 86.392 2.34545 -2.09371 0
M  V30 985 N 90.1641 1.46063 -0.591896 0
M  V30 986 C 91.0941 2.33172 0.123673 0
M  V30 987 C 92.0751 1.45897 0.87453 0
M  V30 988 O 93.2601 1.74698 0.848181 0
M  V30 989 C 90.3901 3.28336 1.13194 0
M  V30 990 C 89.3441 4.25124 0.495324 0
M  V30 991 C 88.6701 5.09863 1.61071 0
M  V30 992 C 89.9701 5.19143 -0.573425 0
M  V30 993 H 91.6641 2.93252 -0.603646 0
M  V30 994 H 89.2101 1.41014 -0.291741 0
M  V30 995 H 91.1631 3.88137 1.64097 0
M  V30 996 H 89.8871 2.66383 1.88965 0
M  V30 997 H 88.5461 3.66599 0.00729452 0
M  V30 998 H 88.1941 4.44288 2.35832 0
M  V30 999 H 87.8941 5.75417 1.19035 0
M  V30 1000 H 89.4181 5.72529 2.12233 0
M  V30 1001 H 90.8321 5.73106 -0.1491 0
M  V30 1002 H 89.2291 5.93089 -0.914636 0
M  V30 1003 H 90.2991 4.62519 -1.45617 0
M  V30 1004 N 91.6422 0.330177 1.54103 0
M  V30 1005 C 92.8722 -0.271784 2.04805 0
M  V30 1006 C 93.2802 -1.45816 1.20559 0
M  V30 1007 O 92.6232 -1.82247 0.2306 0
M  V30 1008 C 92.6852 -0.763238 3.51305 0
M  V30 1009 C 92.3492 0.301705 4.56003 0
M  V30 1010 C 93.3462 1.13999 5.07248 0
M  V30 1011 C 91.0312 0.451793 5.00264 0
M  V30 1012 C 93.0252 2.11402 6.01322 0
M  V30 1013 C 90.7122 1.42924 5.94151 0
M  V30 1014 C 91.7102 2.25882 6.44567 0
M  V30 1015 O 91.3982 3.21965 7.3661 0
M  V30 1016 H 91.1302 -0.058693 0.673447 0
M  V30 1017 H 93.6842 0.476395 1.99799 0
M  V30 1018 H 91.9142 -1.56244 3.5373 0
M  V30 1019 H 93.6032 -1.28427 3.85047 0
M  V30 1020 H 94.3692 1.03505 4.73827 0
M  V30 1021 H 90.2482 -0.184044 4.60632 0
M  V30 1022 H 93.7922 2.76192 6.40596 0
M  V30 1023 H 89.6892 1.53479 6.26988 0
M  V30 1024 H 90.4572 3.17281 7.54503 0
M  V30 1025 N 93.1203 -1.57491 0.0584922 0
M  V30 1026 C 94.0523 -2.08916 -0.942694 0
M  V30 1027 C 95.0653 -1.0185 -1.27006 0
M  V30 1028 O 96.2543 -1.29398 -1.22957 0
M  V30 1029 C 93.3543 -2.52341 -2.26224 0
M  V30 1030 C 92.5273 -3.82827 -2.1157 0
M  V30 1031 C 91.5863 -4.12487 -3.26712 0
M  V30 1032 O 90.6123 -4.82295 -3.02292 0
M  V30 1033 N 91.8143 -3.64978 -4.5141 0
M  V30 1034 H 94.5793 -2.95437 -0.503722 0
M  V30 1035 H 92.1403 -1.61397 -0.12757 0
M  V30 1036 H 94.1323 -2.69254 -3.02133 0
M  V30 1037 H 92.7023 -1.7103 -2.61663 0
M  V30 1038 H 91.9223 -3.75425 -1.20208 0
M  V30 1039 H 93.2103 -4.68263 -1.99015 0
M  V30 1040 H 92.6083 -3.08558 -4.7414 0
M  V30 1041 H 91.1653 -3.87115 -5.2439 0
M  V30 1042 N 94.5984 0.214957 -1.56127 0
M  V30 1043 C 96.0144 0.564948 -1.49267 0
M  V30 1044 C 96.2144 1.86827 -0.754838 0
M  V30 1045 O 95.2704 2.50745 -0.297198 0
M  V30 1046 C 96.5834 0.638071 -2.93852 0
M  V30 1047 C 98.1314 0.728253 -3.0441 0
M  V30 1048 C 98.6064 0.832663 -4.50367 0
M  V30 1049 N 100.097 0.896712 -4.54437 0
M  V30 1050 C 100.832 0.997324 -5.6466 0
M  V30 1051 N 100.328 1.06147 -6.8462 0
M  V30 1052 N 102.121 1.03297 -5.52527 0
M  V30 1053 H 94.2724 -0.640211 -2.02522 0
M  V30 1054 H 96.5354 -0.225507 -0.920788 0
M  V30 1055 H 96.2414 -0.250126 -3.50809 0
M  V30 1056 H 96.1154 1.49947 -3.46115 0
M  V30 1057 H 98.5024 1.60689 -2.47514 0
M  V30 1058 H 98.5834 -0.158952 -2.55306 0
M  V30 1059 H 98.2274 -0.0415417 -5.07883 0
M  V30 1060 H 98.1574 1.73538 -4.97184 0
M  V30 1061 H 100.648 0.857188 -3.6805 0
M  V30 1062 H 100.961 1.1382 -7.64372 0
M  V30 1063 H 99.3064 1.03049 -6.87318 0
M  V30 1064 H 102.497 0.979558 -4.57736 0
M  V30 1065 H 102.67 1.10793 -6.38458 0
M  V30 1066 N 96.0765 1.50051 0.48192 0
M  V30 1067 C 97.4925 1.37237 0.814756 0
M  V30 1068 C 97.6925 0.420109 1.97072 0
M  V30 1069 O 96.7485 -0.141246 2.52105 0
M  V30 1070 C 98.0615 2.78375 1.13701 0
M  V30 1071 C 99.6095 2.87213 1.2441 0
M  V30 1072 C 100.084 4.29161 1.59954 0
M  V30 1073 N 101.575 4.32061 1.66967 0
M  V30 1074 C 102.31 5.38879 1.95952 0
M  V30 1075 N 101.806 6.55918 2.23031 0
M  V30 1076 N 103.599 5.26312 1.97363 0
M  V30 1077 H 95.7505 2.10546 -0.28005 0
M  V30 1078 H 98.0135 0.945921 -0.0627454 0
M  V30 1079 H 97.7195 3.49845 0.360787 0
M  V30 1080 H 97.5935 3.14941 2.07586 0
M  V30 1081 H 99.9805 2.15969 2.01101 0
M  V30 1082 H 100.061 2.54204 0.285299 0
M  V30 1083 H 99.7055 5.00938 0.838067 0
M  V30 1084 H 99.6355 4.59648 2.56966 0
M  V30 1085 H 102.126 3.47661 1.48123 0
M  V30 1086 H 102.439 7.33139 2.44391 0
M  V30 1087 H 100.784 6.59112 2.20447 0
M  V30 1088 H 103.975 4.33876 1.75697 0
M  V30 1089 H 104.148 6.09649 2.19618 0
M  V30 1090 N 97.5546 -0.734337 1.39446 0
M  V30 1091 C 98.9656 -1.31264 1.32766 0
M  V30 1092 C 99.3166 -1.96198 -0.00767497 0
M  V30 1093 O 98.4416 -1.96346 -0.909796 0
M  V30 1094 C 99.0366 -2.38682 2.4045 0
M  V30 1095 C 97.5956 -2.92184 2.37288 0
M  V30 1096 C 96.7426 -1.6576 2.22304 0
M  V30 1097 H 99.6936 -0.531799 1.49525 0
M  V30 1098 H 99.7146 -3.19087 2.07276 0
M  V30 1099 H 99.2266 -1.91392 3.37625 0
M  V30 1100 H 97.3276 -3.43752 1.43754 0
M  V30 1101 H 97.4406 -3.45253 3.3217 0
M  V30 1102 H 95.8046 -1.9012 1.69489 0
M  V30 1103 H 96.5876 -1.20521 3.21449 0
M  V30 1104 N 99.0327 -1.24633 -0.964593 0
M  V30 1105 C 99.9957 -1.0424 -2.04124 0
M  V30 1106 C 100.996 0.00137563 -1.608 0
M  V30 1107 O 102.186 -0.239883 -1.7254 0
M  V30 1108 C 99.3177 -0.580588 -3.3592 0
M  V30 1109 H 100.511 -1.99803 -2.23649 0
M  V30 1110 H 98.0637 -1.06899 -1.14027 0
M  V30 1111 H 98.7987 0.3781 -3.22088 0
M  V30 1112 H 98.5837 -1.33398 -3.6871 0
M  V30 1113 H 100.074 -0.459034 -4.15069 0
M  V30 1114 N 100.511 1.16574 -1.06058 0
M  V30 1115 C 101.76 1.86385 -0.770944 0
M  V30 1116 C 102.073 1.82448 0.705129 0
M  V30 1117 O 103.279 2.47815 1.10905 0
M  V30 1118 C 101.735 3.34466 -1.32893 0
M  V30 1119 C 101.343 3.46883 -2.83507 0
M  V30 1120 C 103.087 4.09548 -1.11672 0
M  V30 1121 C 100.994 4.89036 -3.32562 0
M  V30 1122 H 99.9238 0.698181 -0.284709 0
M  V30 1123 H 102.575 1.31583 -1.27899 0
M  V30 1124 H 100.957 3.88859 -0.748662 0
M  V30 1125 H 102.131 3.02663 -3.47465 0
M  V30 1126 H 100.446 2.85232 -3.03368 0
M  V30 1127 H 103.043 5.14434 -1.45814 0
M  V30 1128 H 103.386 4.16264 -0.0549535 0
M  V30 1129 H 103.919 3.61387 -1.66265 0
M  V30 1130 H 100.658 4.87499 -4.38207 0
M  V30 1131 H 100.178 5.3389 -2.73351 0
M  V30 1132 H 101.857 5.57843 -3.2775 0
M  V30 1133 N 101.989 0.842826 1.3317 0
M  V30 1134 C 102.952 0.284065 2.27433 0
M  V30 1135 C 103.952 -0.54948 1.5112 0
M  V30 1136 O 105.142 -0.362699 1.70382 0
M  V30 1137 C 102.274 -0.599384 3.35589 0
M  V30 1138 H 103.467 1.11589 2.78366 0
M  V30 1139 H 101.02 0.616221 1.4364 0
M  V30 1140 H 101.755 -1.45349 2.89904 0
M  V30 1141 H 101.54 -0.00291266 3.921 0
M  V30 1142 H 103.03 -0.983488 4.05854 0
M  V30 1143 N 103.467 -1.45747 0.599634 0
M  V30 1144 C 104.716 -2.01502 0.0893511 0
M  V30 1145 C 105.029 -1.4748 -1.28488 0
M  V30 1146 O 106.235 -1.95161 -1.88745 0
M  V30 1147 C 104.691 -3.59735 0.109082 0
M  V30 1148 C 104.299 -4.22754 1.48267 0
M  V30 1149 C 106.043 -4.23085 -0.346374 0
M  V30 1150 C 103.95 -5.73115 1.45921 0
M  V30 1151 H 102.88 -0.753417 0.0296347 0
M  V30 1152 H 105.531 -1.67303 0.753788 0
M  V30 1153 H 103.913 -3.91087 -0.621854 0
M  V30 1154 H 105.087 -4.02987 2.23468 0
M  V30 1155 H 103.402 -3.71567 1.87955 0
M  V30 1156 H 105.999 -5.33327 -0.38298 0
M  V30 1157 H 106.342 -3.93201 -1.36743 0
M  V30 1158 H 106.875 -3.9642 0.331038 0
M  V30 1159 H 103.614 -6.07685 2.45762 0
M  V30 1160 H 103.134 -5.95097 0.749665 0
M  V30 1161 H 104.813 -6.3616 1.17941 0
M  V30 1162 N 104.945 -0.338344 -1.53925 0
M  V30 1163 C 105.893 0.536231 -2.26335 0
M  V30 1164 C 106.887 1.1063 -1.28286 0
M  V30 1165 O 108.093 1.05264 -1.46012 0
M  V30 1166 H 104.468 0.191602 -0.727181 0
M  V30 1167 H 106.439 -0.0965747 -2.98244 0
M  V30 1168 C 105.188 1.67803 -3.04528 0
M  V30 1169 H 104.511 1.24864 -3.79801 0
M  V30 1170 H 105.951 2.26526 -3.58416 0
M  V30 1171 C 104.41 2.60439 -2.13712 0
M  V30 1172 O 104.94 3.6255 -1.72975 0
M  V30 1173 N 103.146 2.29006 -1.78898 0
M  V30 1174 H 102.693 1.46011 -2.12223 0
M  V30 1175 H 102.651 2.91248 -1.18416 0
M  V30 1176 N 106.423 1.57458 -0.0668435 0
M  V30 1177 C 107.371 2.13639 0.919851 0
M  V30 1178 C 108.365 1.07204 1.31163 0
M  V30 1179 O 109.571 1.25591 1.28945 0
M  V30 1180 H 105.946 0.683048 0.314562 0
M  V30 1181 H 107.917 2.95415 0.421047 0
M  V30 1182 C 106.666 2.70892 2.17975 0
M  V30 1183 H 105.989 3.5246 1.88711 0
M  V30 1184 H 107.429 3.13803 2.85138 0
M  V30 1185 C 105.888 1.65414 2.93496 0
M  V30 1186 O 106.418 1.07619 3.87015 0
M  V30 1187 N 104.624 1.36564 2.56512 0
M  V30 1188 H 104.171 1.83751 1.80536 0
M  V30 1189 H 104.129 0.66223 3.07347 0
M  V30 1190 N 107.901 -0.206675 1.56239 0
M  V30 1191 C 109.312 -0.772383 1.69974 0
M  V30 1192 C 109.663 -1.84353 0.671436 0
M  V30 1193 O 108.788 -2.15695 -0.174491 0
M  V30 1194 C 109.383 -1.40779 3.08167 0
M  V30 1195 C 107.942 -1.92072 3.23706 0
M  V30 1196 C 107.089 -0.786347 2.65917 0
M  V30 1197 H 110.04 0.0182223 1.5869 0
M  V30 1198 H 110.061 -2.27696 3.04852 0
M  V30 1199 H 109.573 -0.627958 3.82986 0
M  V30 1200 H 107.674 -2.7281 2.53782 0
M  V30 1201 H 107.787 -2.09046 4.31087 0
M  V30 1202 H 106.151 -1.1976 2.24788 0
M  V30 1203 H 106.934 -0.0189416 3.43295 0
M  V30 1204 N 109.379 -1.50304 -0.473955 0
M  V30 1205 C 110.609 -1.64663 -1.24778 0
M  V30 1206 C 111.017 -0.328174 -1.86332 0
M  V30 1207 O 110.36 0.699536 -1.69859 0
M  V30 1208 C 110.422 -2.6778 -2.39863 0
M  V30 1209 C 110.086 -4.11413 -1.98969 0
M  V30 1210 C 111.083 -4.97372 -1.51385 0
M  V30 1211 C 108.768 -4.57312 -2.07777 0
M  V30 1212 C 110.762 -6.27277 -1.13148 0
M  V30 1213 C 108.449 -5.87223 -1.69152 0
M  V30 1214 C 109.447 -6.72031 -1.21915 0
M  V30 1215 O 109.135 -7.99518 -0.838237 0
M  V30 1216 H 108.867 -0.556602 -0.383627 0
M  V30 1217 H 111.421 -1.9726 -0.572491 0
M  V30 1218 H 109.651 -2.30419 -3.10554 0
M  V30 1219 H 111.34 -2.71388 -3.01833 0
M  V30 1220 H 112.106 -4.63128 -1.44004 0
M  V30 1221 H 107.985 -3.91449 -2.43493 0
M  V30 1222 H 111.529 -6.93425 -0.762077 0
M  V30 1223 H 107.426 -6.20989 -1.76191 0
M  V30 1224 H 108.194 -8.12764 -0.967339 0
M  V30 1225 N 110.857 0.726932 -1.39834 0
M  V30 1226 C 112.103 1.48884 -1.377 0
M  V30 1227 C 112.436 1.94185 0.0244852 0
M  V30 1228 O 111.711 1.67361 0.990986 0
M  V30 1229 C 111.994 2.72288 -2.3565 0
M  V30 1230 C 111.847 2.32956 -3.84775 0
M  V30 1231 C 113.166 3.74414 -2.31306 0
M  V30 1232 H 110.285 0.540062 -0.5015 0
M  V30 1233 H 112.927 0.830547 -1.70886 0
M  V30 1234 H 111.077 3.28457 -2.07481 0
M  V30 1235 H 112.749 1.82356 -4.23726 0
M  V30 1236 H 110.992 1.65088 -4.01159 0
M  V30 1237 H 111.663 3.21362 -4.4881 0
M  V30 1238 H 114.139 3.27849 -2.56231 0
M  V30 1239 H 113.015 4.58414 -3.01907 0
M  V30 1240 H 113.276 4.21909 -1.32081 0
M  V30 1241 N 112.336 1.25143 0.95797 0
M  V30 1242 C 113.747 1.08851 1.51685 0
M  V30 1243 C 114.098 -0.33687 1.93286 0
M  V30 1244 O 113.223 -1.22644 1.7829 0
M  V30 1245 C 113.818 1.96978 2.75654 0
M  V30 1246 C 112.377 1.84881 3.27866 0
M  V30 1247 C 111.524 1.91329 2.0072 0
M  V30 1248 H 114.475 1.38478 0.77522 0
M  V30 1249 H 114.496 1.5078 3.4935 0
M  V30 1250 H 114.008 3.00712 2.45345 0
M  V30 1251 H 112.109 0.840182 3.63004 0
M  V30 1252 H 112.222 2.6951 3.96107 0
M  V30 1253 H 110.586 1.35174 2.15871 0
M  V30 1254 H 111.369 2.96661 1.72764 0
M  V30 1255 N 113.814 -1.1601 1.06675 0
M  V30 1256 C 115.23 -1.38622 0.790948 0
M  V30 1257 C 115.43 -1.92109 -0.607965 0
M  V30 1258 O 114.486 -2.12239 -1.36787 0
M  V30 1259 C 115.799 -2.36347 1.85905 0
M  V30 1260 C 117.347 -2.50023 1.88301 0
M  V30 1261 C 117.822 -3.51033 2.94176 0
M  V30 1262 N 119.313 -3.58563 2.93235 0
M  V30 1263 C 120.048 -4.36521 3.71803 0
M  V30 1264 N 119.544 -5.17869 4.602 0
M  V30 1265 N 121.337 -4.31541 3.60178 0
M  V30 1266 H 113.488 -0.796294 1.96908 0
M  V30 1267 H 115.751 -0.412597 0.853503 0
M  V30 1268 H 115.457 -2.04147 2.86386 0
M  V30 1269 H 115.331 -3.36042 1.71334 0
M  V30 1270 H 117.718 -2.81524 0.884769 0
M  V30 1271 H 117.799 -1.5035 2.06951 0
M  V30 1272 H 117.443 -3.20268 3.94196 0
M  V30 1273 H 117.373 -4.50445 2.72776 0
M  V30 1274 H 119.864 -3.00496 2.29152 0
M  V30 1275 H 120.177 -5.74578 5.16797 0
M  V30 1276 H 118.522 -5.17199 4.64253 0
M  V30 1277 H 121.713 -3.67051 2.90502 0
M  V30 1278 H 121.886 -4.9205 4.21653 0
M  V30 1279 N 115.292 -0.849877 -1.32721 0
M  V30 1280 C 116.52 -0.464754 -2.01613 0
M  V30 1281 C 116.935 0.937191 -1.63897 0
M  V30 1282 O 116.292 1.61081 -0.857856 0
M  V30 1283 C 116.343 -0.588638 -3.56675 0
M  V30 1284 O 116.064 -1.93535 -3.93034 0
M  V30 1285 C 117.565 -0.2019 -4.4284 0
M  V30 1286 H 114.785 -0.183215 -0.645502 0
M  V30 1287 H 117.329 -1.1455 -1.69407 0
M  V30 1288 H 115.484 0.0443159 -3.87375 0
M  V30 1289 H 115.898 -1.92871 -4.87751 0
M  V30 1290 H 117.372 -0.339599 -5.50954 0
M  V30 1291 H 117.849 0.857224 -4.30753 0
M  V30 1292 H 118.455 -0.809733 -4.17521 0
M  V30 1293 N 116.77 1.45427 -0.607355 0
M  V30 1294 C 118 2.06314 -0.108656 0
M  V30 1295 C 118.408 1.45269 1.21217 0
M  V30 1296 O 117.751 0.561115 1.74921 0
M  V30 1297 C 117.813 3.59345 0.105618 0
M  V30 1298 C 117.477 4.42723 -1.13337 0
M  V30 1299 C 118.474 4.77715 -2.05145 0
M  V30 1300 C 116.159 4.83478 -1.36213 0
M  V30 1301 C 118.153 5.52317 -3.18158 0
M  V30 1302 C 115.84 5.57835 -2.49527 0
M  V30 1303 C 116.838 5.92171 -3.40327 0
M  V30 1304 O 116.526 6.65019 -4.51669 0
M  V30 1305 H 116.258 0.672782 -0.0658842 0
M  V30 1306 H 118.812 1.87664 -0.834945 0
M  V30 1307 H 117.042 3.76394 0.886796 0
M  V30 1308 H 118.731 4.02076 0.555886 0
M  V30 1309 H 119.497 4.46787 -1.88697 0
M  V30 1310 H 115.376 4.56188 -0.664362 0
M  V30 1311 H 118.92 5.79036 -3.89054 0
M  V30 1312 H 114.817 5.88177 -2.65928 0
M  V30 1313 H 115.585 6.83469 -4.50348 0
M  V30 1314 N 118.248 0.346503 1.53744 0
M  V30 1315 C 119.478 -0.250047 2.05081 0
M  V30 1316 C 119.886 -1.44529 1.22098 0
M  V30 1317 O 119.229 -1.81992 0.249917 0
M  V30 1318 C 119.291 -0.725934 3.52094 0
M  V30 1319 C 118.955 0.350053 4.55657 0
M  V30 1320 C 119.952 1.19372 5.0601 0
M  V30 1321 C 117.637 0.504827 4.99757 0
M  V30 1322 C 119.631 2.17768 5.99046 0
M  V30 1323 C 117.318 1.49218 5.92602 0
M  V30 1324 C 118.316 2.32706 6.42135 0
M  V30 1325 O 118.004 3.2976 7.33153 0
M  V30 1326 H 117.736 -0.0515469 0.674032 0
M  V30 1327 H 120.29 0.497559 1.99282 0
M  V30 1328 H 118.52 -1.52483 3.55367 0
M  V30 1329 H 120.209 -1.24336 3.86388 0
M  V30 1330 H 120.975 1.08525 4.72702 0
M  V30 1331 H 116.854 -0.135178 4.60802 0
M  V30 1332 H 120.398 2.82971 6.37631 0
M  V30 1333 H 116.295 1.6012 6.25325 0
M  V30 1334 H 117.063 3.25265 7.51096 0
M  V30 1335 N 119.726 -1.57421 0.075193 0
M  V30 1336 C 120.689 -2.11791 -0.876203 0
M  V30 1337 C 121.689 -1.04268 -1.22412 0
M  V30 1338 O 122.879 -1.30242 -1.15684 0
M  V30 1339 C 120.011 -2.62207 -2.17854 0
M  V30 1340 H 121.204 -2.9716 -0.40444 0
M  V30 1341 H 118.757 -1.55333 -0.173557 0
M  V30 1342 H 119.492 -1.803 -2.6956 0
M  V30 1343 H 119.277 -3.40802 -1.93897 0
M  V30 1344 H 120.767 -3.04335 -2.85955 0
M  V30 1345 N 121.204 0.198386 -1.56346 0
M  V30 1346 C 122.152 1.26538 -1.95169 0
M  V30 1347 C 123.146 1.47295 -0.836685 0
M  V30 1348 O 124.352 1.48195 -1.02167 0
M  V30 1349 H 120.727 0.424744 -0.620561 0
M  V30 1350 H 122.698 0.910904 -2.84157 0
M  V30 1351 C 121.447 2.6035 -2.30463 0
M  V30 1352 H 120.77 2.45192 -3.15786 0
M  V30 1353 H 122.21 3.33762 -2.61494 0
M  V30 1354 C 120.669 3.17096 -1.13806 0
M  V30 1355 O 121.199 3.99588 -0.41135 0
M  V30 1356 N 119.405 2.75795 -0.915736 0
M  V30 1357 H 118.952 2.08816 -1.50843 0
M  V30 1358 H 118.91 3.14101 -0.136979 0
M  V30 1359 N 122.682 1.50554 0.465978 0
M  V30 1360 C 124.093 1.54599 1.04671 0
M  V30 1361 C 124.444 0.352488 1.93008 0
M  V30 1362 O 123.569 -0.534044 2.09707 0
M  V30 1363 C 124.164 2.80166 1.90505 0
M  V30 1364 C 122.723 2.86876 2.43678 0
M  V30 1365 C 121.87 2.48947 1.22151 0
M  V30 1366 H 124.821 1.56744 0.248384 0
M  V30 1367 H 124.842 2.62311 2.75633 0
M  V30 1368 H 124.354 3.67013 1.26186 0
M  V30 1369 H 122.455 2.04393 3.11536 0
M  V30 1370 H 122.568 3.89885 2.78436 0
M  V30 1371 H 120.932 2.01498 1.5579 0
M  V30 1372 H 121.715 3.38107 0.594866 0
M  V30 1373 N 124.16 -0.719506 1.40217 0
M  V30 1374 C 125.123 -1.8153 1.39927 0
M  V30 1375 C 126.123 -1.58095 0.293723 0
M  V30 1376 O 127.313 -1.65209 0.552429 0
M  V30 1377 C 124.445 -3.19561 1.18716 0
M  V30 1378 H 125.638 -1.83186 2.37451 0
M  V30 1379 H 123.191 -0.924746 1.26008 0
M  V30 1380 H 123.926 -3.23557 0.219366 0
M  V30 1381 H 123.711 -3.3797 1.98793 0
M  V30 1382 H 125.201 -3.99598 1.21291 0
M  V30 1383 N 125.638 -1.25649 -0.95132 0
M  V30 1384 C 126.884 -1.10757 -1.69884 0
M  V30 1385 C 127.217 0.350061 -1.91019 0
M  V30 1386 O 126.492 1.25783 -1.48354 0
M  V30 1387 C 126.775 -1.86606 -3.07978 0
M  V30 1388 C 126.628 -3.40217 -2.94232 0
M  V30 1389 C 127.947 -1.65182 -4.07925 0
M  V30 1390 H 125.066 -0.40374 -0.616574 0
M  V30 1391 H 127.708 -1.54521 -1.10558 0
M  V30 1392 H 125.858 -1.49409 -3.58621 0
M  V30 1393 H 127.53 -3.87108 -2.50889 0
M  V30 1394 H 125.773 -3.67759 -2.30078 0
M  V30 1395 H 126.444 -3.88505 -3.92133 0
M  V30 1396 H 128.92 -1.9757 -3.66204 0
M  V30 1397 H 127.796 -2.20683 -5.02583 0
M  V30 1398 H 128.057 -0.593933 -4.38092 0
M  V30 1399 N 127.117 1.15442 -1.07289 0
M  V30 1400 C 128.363 1.86489 -0.796846 0
M  V30 1401 C 128.696 1.82078 0.675371 0
M  V30 1402 O 127.971 1.24346 1.4956 0
M  V30 1403 C 128.254 3.35626 -1.30489 0
M  V30 1404 C 128.107 3.48673 -2.84161 0
M  V30 1405 C 129.426 4.30357 -0.920907 0
M  V30 1406 H 126.545 0.677144 -0.290939 0
M  V30 1407 H 129.187 1.35633 -1.33056 0
M  V30 1408 H 127.337 3.79068 -0.850883 0
M  V30 1409 H 129.009 3.14099 -3.37846 0
M  V30 1410 H 127.252 2.90253 -3.22391 0
M  V30 1411 H 127.923 4.53453 -3.14777 0
M  V30 1412 H 130.399 3.94871 -1.3121 0
M  V30 1413 H 129.275 5.33193 -1.30372 0
M  V30 1414 H 129.536 4.4176 0.173226 0
M  V30 1415 N 128.595 0.856903 1.32268 0
M  V30 1416 C 130.011 0.547061 1.49931 0
M  V30 1417 C 130.211 -0.921781 1.7918 0
M  V30 1418 O 129.267 -1.70469 1.8627 0
M  V30 1419 C 130.58 1.43599 2.64196 0
M  V30 1420 C 132.128 1.43665 2.78081 0
M  V30 1421 C 132.603 2.31085 3.95428 0
M  V30 1422 N 134.094 2.28893 4.02694 0
M  V30 1423 C 134.829 2.93262 4.92732 0
M  V30 1424 N 134.325 3.66751 5.87763 0
M  V30 1425 N 136.118 2.82638 4.85873 0
M  V30 1426 H 128.269 1.8075 1.11549 0
M  V30 1427 H 130.532 0.772144 0.549997 0
M  V30 1428 H 130.238 2.48058 2.49319 0
M  V30 1429 H 130.112 1.12502 3.60032 0
M  V30 1430 H 132.499 0.399701 2.92381 0
M  V30 1431 H 132.58 1.7878 1.82952 0
M  V30 1432 H 132.224 3.34849 3.81888 0
M  V30 1433 H 132.154 1.93302 4.89839 0
M  V30 1434 H 134.645 1.75466 3.34694 0
M  V30 1435 H 134.958 4.13027 6.53168 0
M  V30 1436 H 133.303 3.70859 5.87783 0
M  V30 1437 H 136.494 2.24774 4.10602 0
M  V30 1438 H 136.667 3.33084 5.55841 0
M  V30 1439 N 130.073 -1.45103 0.615059 0
M  V30 1440 C 131.484 -1.85654 0.197383 0
M  V30 1441 C 131.835 -1.51433 -1.24749 0
M  V30 1442 O 130.96 -0.944608 -1.94695 0
M  V30 1443 C 131.555 -3.36972 0.351448 0
M  V30 1444 C 130.114 -3.76398 -0.011593 0
M  V30 1445 C 129.261 -2.69024 0.672394 0
M  V30 1446 H 132.212 -1.35797 0.821263 0
M  V30 1447 H 132.233 -3.78239 -0.414227 0
M  V30 1448 H 131.745 -3.61847 1.40314 0
M  V30 1449 H 129.846 -3.5714 -1.06217 0
M  V30 1450 H 129.959 -4.77532 0.387265 0
M  V30 1451 H 128.323 -2.54465 0.109284 0
M  V30 1452 H 129.106 -2.96735 1.72636 0
M  V30 1453 N 131.551 -0.354651 -1.53558 0
M  V30 1454 C 132.501 0.513179 -2.2215 0
M  V30 1455 C 133.485 1.05734 -1.21281 0
M  V30 1456 O 134.677 0.989202 -1.46778 0
M  V30 1457 C 131.806 1.65798 -3.00609 0
M  V30 1458 C 130.892 1.12722 -4.08845 0
M  V30 1459 N 131.283 0.318563 -5.04796 0
M  V30 1460 C 129.581 1.40307 -4.23356 0
M  V30 1461 C 130.282 0.0292224 -5.81693 0
M  V30 1462 N 129.258 0.623891 -5.40008 0
M  V30 1463 H 133.06 -0.111586 -2.93688 0
M  V30 1464 H 130.574 -0.162091 -1.61589 0
M  V30 1465 H 132.571 2.29176 -3.48258 0
M  V30 1466 H 131.231 2.28591 -2.306 0
M  V30 1467 H 132.242 -0.0413091 -5.17884 0
M  V30 1468 H 128.919 2.03458 -3.6457 0
M  V30 1469 H 130.309 -0.623808 -6.68998 0
M  V30 1470 N 133.029 1.57378 -0.0835403 0
M  V30 1471 C 133.992 2.12252 0.864959 0
M  V30 1472 C 134.992 1.04916 1.21858 0
M  V30 1473 O 136.182 1.30853 1.14991 0
M  V30 1474 C 133.314 2.63358 2.16461 0
M  V30 1475 H 134.507 2.97371 0.388676 0
M  V30 1476 H 132.06 1.55423 0.165317 0
M  V30 1477 H 132.795 1.81727 2.686 0
M  V30 1478 H 132.58 3.41826 1.92087 0
M  V30 1479 H 134.07 3.05847 2.84337 0
M  V30 1480 N 134.507 -0.190092 1.56449 0
M  V30 1481 C 135.439 -1.25973 1.91477 0
M  V30 1482 C 136.452 -1.41452 0.805931 0
M  V30 1483 O 137.641 -1.41789 1.08435 0
M  V30 1484 C 134.741 -2.63117 2.13594 0
M  V30 1485 C 133.914 -2.69182 3.4476 0
M  V30 1486 C 132.973 -3.87557 3.5593 0
M  V30 1487 O 131.999 -3.74427 4.28711 0
M  V30 1488 N 133.201 -5.03224 2.89388 0
M  V30 1489 H 135.966 -0.962394 2.83828 0
M  V30 1490 H 133.527 -0.379981 1.57378 0
M  V30 1491 H 135.519 -3.40742 2.1835 0
M  V30 1492 H 134.089 -2.85319 1.27719 0
M  V30 1493 H 133.309 -1.77793 3.51828 0
M  V30 1494 H 134.597 -2.70229 4.31107 0
M  V30 1495 H 133.995 -5.16791 2.30094 0
M  V30 1496 H 132.552 -5.78778 2.99764 0
M  V30 1497 N 135.985 -1.50799 -0.457987 0
M  V30 1498 C 137.234 -1.6168 -1.20593 0
M  V30 1499 C 137.547 -0.32888 -1.92815 0
M  V30 1500 O 138.753 -0.316773 -2.69646 0
M  V30 1501 C 137.209 -2.8545 -2.19195 0
M  V30 1502 C 136.817 -4.21168 -1.52715 0
M  V30 1503 C 138.561 -3.05681 -2.94549 0
M  V30 1504 C 136.468 -5.3611 -2.4968 0
M  V30 1505 H 135.398 -0.602134 -0.453818 0
M  V30 1506 H 138.049 -1.77245 -0.475031 0
M  V30 1507 H 136.431 -2.63472 -2.95632 0
M  V30 1508 H 137.605 -4.53449 -0.819775 0
M  V30 1509 H 135.92 -4.06648 -0.895922 0
M  V30 1510 H 138.517 -3.88727 -3.67145 0
M  V30 1511 H 138.86 -2.17929 -3.54701 0
M  V30 1512 H 139.393 -3.27901 -2.25223 0
M  V30 1513 H 136.132 -6.26057 -1.94249 0
M  V30 1514 H 135.652 -5.0823 -3.18532 0
M  V30 1515 H 137.331 -5.6722 -3.11241 0
M  V30 1516 N 137.463 0.71206 -1.40597 0
M  V30 1517 C 138.874 1.29135 -1.34837 0
M  V30 1518 C 139.225 1.96186 -0.0235395 0
M  V30 1519 O 138.35 1.97768 0.878444 0
M  V30 1520 C 138.945 2.34827 -2.44217 0
M  V30 1521 C 137.504 2.88371 -2.41907 0
M  V30 1522 C 136.651 1.62202 -2.24913 0
M  V30 1523 H 139.602 0.507944 -1.50352 0
M  V30 1524 H 139.623 3.15749 -2.12327 0
M  V30 1525 H 139.135 1.85996 -3.40627 0
M  V30 1526 H 137.236 3.41422 -1.49204 0
M  V30 1527 H 137.349 3.39925 -3.37621 0
M  V30 1528 H 135.713 1.874 -1.72492 0
M  V30 1529 H 136.496 1.15391 -3.23326 0
M  V30 1530 N 138.941 1.26152 0.944643 0
M  V30 1531 C 139.873 1.03199 2.04652 0
M  V30 1532 C 140.886 -0.00642356 1.62799 0
M  V30 1533 O 142.075 0.233263 1.76969 0
M  V30 1534 C 139.175 0.540111 3.34568 0
M  V30 1535 C 138.348 1.64697 4.05208 0
M  V30 1536 C 137.407 1.15374 5.13396 0
M  V30 1537 O 136.433 1.85013 5.38293 0
M  V30 1538 N 137.635 0.00031529 5.805 0
M  V30 1539 H 140.4 1.9808 2.2491 0
M  V30 1540 H 137.961 1.17491 1.11389 0
M  V30 1541 H 139.953 0.194401 4.04233 0
M  V30 1542 H 138.523 -0.315021 3.11009 0
M  V30 1543 H 137.743 2.16379 3.29506 0
M  V30 1544 H 139.031 2.3903 4.49157 0
M  V30 1545 H 138.429 -0.581336 5.62705 0
M  V30 1546 H 136.986 -0.286346 6.51171 0
M  V30 1547 N 140.419 -1.14872 1.07899 0
M  V30 1548 C 141.835 -1.37776 0.805606 0
M  V30 1549 C 142.035 -1.92743 -0.587555 0
M  V30 1550 O 141.091 -2.13678 -1.34528 0
M  V30 1551 C 142.404 -2.34361 1.88402 0
M  V30 1552 C 143.952 -2.48012 1.90942 0
M  V30 1553 C 144.427 -3.47893 2.97883 0
M  V30 1554 N 145.918 -3.55433 2.97021 0
M  V30 1555 C 146.653 -4.32553 3.76412 0
M  V30 1556 N 146.149 -5.12959 4.65666 0
M  V30 1557 N 147.942 -4.27697 3.64735 0
M  V30 1558 H 140.093 -0.775365 1.97742 0
M  V30 1559 H 142.356 -0.403521 0.857831 0
M  V30 1560 H 142.062 -2.01098 2.88535 0
M  V30 1561 H 141.936 -3.34206 1.74889 0
M  V30 1562 H 144.323 -2.8057 0.914579 0
M  V30 1563 H 144.404 -1.48147 2.08534 0
M  V30 1564 H 144.048 -3.16069 3.97571 0
M  V30 1565 H 143.978 -4.47527 2.77538 0
M  V30 1566 H 146.469 -2.98048 2.32326 0
M  V30 1567 H 146.782 -5.69065 5.22862 0
M  V30 1568 H 145.127 -5.12245 4.69712 0
M  V30 1569 H 148.318 -3.63949 2.94378 0
M  V30 1570 H 148.491 -4.8755 4.26848 0
M  V30 1571 N 141.898 -0.863906 -1.31812 0
M  V30 1572 C 142.83 -0.272485 -2.27575 0
M  V30 1573 C 143.843 0.56104 -1.52827 0
M  V30 1574 O 145.032 0.384021 -1.7432 0
M  V30 1575 C 142.132 0.63283 -3.32939 0
M  V30 1576 C 141.305 -0.166902 -4.37081 0
M  V30 1577 C 140.364 0.665608 -5.21973 0
M  V30 1578 O 139.39 0.0958091 -5.69119 0
M  V30 1579 N 140.592 1.9787 -5.45736 0
M  V30 1580 H 143.357 -1.0954 -2.78964 0
M  V30 1581 H 140.918 -0.724791 -1.4477 0
M  V30 1582 H 142.91 1.19532 -3.86645 0
M  V30 1583 H 141.48 1.35642 -2.81638 0
M  V30 1584 H 140.7 -0.910838 -3.83533 0
M  V30 1585 H 141.988 -0.715874 -5.03739 0
M  V30 1586 H 141.386 2.46484 -5.09178 0
M  V30 1587 H 139.943 2.48911 -6.024 0
M  V30 1588 N 143.376 1.44774 -0.622745 0
M  V30 1589 C 144.606 2.06187 -0.130532 0
M  V30 1590 C 145.014 1.46547 1.19669 0
M  V30 1591 O 144.357 0.579636 1.74316 0
M  V30 1592 C 144.419 3.59437 0.0674983 0
M  V30 1593 C 144.083 4.41496 -1.18026 0
M  V30 1594 C 145.08 4.75512 -2.102 0
M  V30 1595 C 142.765 4.82007 -1.41333 0
M  V30 1596 C 144.759 5.48912 -3.23998 0
M  V30 1597 C 142.446 5.55157 -2.55429 0
M  V30 1598 C 143.444 5.88528 -3.46589 0
M  V30 1599 O 143.132 6.60191 -4.58697 0
M  V30 1600 H 142.864 0.672045 -0.0730162 0
M  V30 1601 H 145.418 1.86768 -0.854802 0
M  V30 1602 H 143.648 3.77314 0.846825 0
M  V30 1603 H 145.337 4.02642 0.513209 0
M  V30 1604 H 146.103 4.4476 -1.93425 0
M  V30 1605 H 141.982 4.55457 -0.712709 0
M  V30 1606 H 145.526 5.74877 -3.95174 0
M  V30 1607 H 141.423 5.85324 -2.72151 0
M  V30 1608 H 142.191 6.78654 -4.57571 0
M  V30 1609 N 144.854 0.36279 1.53368 0
M  V30 1610 C 145.784 -0.476976 2.28576 0
M  V30 1611 C 146.765 -1.08631 1.30894 0
M  V30 1612 O 147.95 -1.10409 1.59761 0
M  V30 1613 C 145.08 -1.61828 3.07293 0
M  V30 1614 C 144.034 -1.13633 4.1264 0
M  V30 1615 C 143.36 -2.36766 4.79423 0
M  V30 1616 C 144.66 -0.223061 5.21823 0
M  V30 1617 H 146.354 0.150474 2.99022 0
M  V30 1618 H 143.9 0.0738103 1.43811 0
M  V30 1619 H 145.853 -2.21237 3.58653 0
M  V30 1620 H 144.577 -2.27292 2.34533 0
M  V30 1621 H 143.236 -0.564945 3.62221 0
M  V30 1622 H 142.884 -3.0068 4.03238 0
M  V30 1623 H 142.584 -2.05192 5.50609 0
M  V30 1624 H 144.108 -2.96865 5.33576 0
M  V30 1625 H 145.522 -0.724545 5.68703 0
M  V30 1626 H 143.919 0.001678 6.001 0
M  V30 1627 H 144.989 0.735553 4.79289 0
M  V30 1628 N 146.332 -1.57332 0.0918853 0
M  V30 1629 C 147.743 -1.81496 -0.437739 0
M  V30 1630 C 148.094 -1.00727 -1.6837 0
M  V30 1631 O 147.219 -0.235694 -2.15113 0
M  V30 1632 C 147.814 -3.29197 -0.800939 0
M  V30 1633 C 146.373 -3.54136 -1.27532 0
M  V30 1634 C 145.52 -2.75979 -0.270392 0
M  V30 1635 H 148.471 -1.55494 0.317366 0
M  V30 1636 H 148.492 -3.42344 -1.66074 0
M  V30 1637 H 148.004 -3.87955 0.106078 0
M  V30 1638 H 146.105 -3.00705 -2.20016 0
M  V30 1639 H 146.218 -4.62792 -1.23938 0
M  V30 1640 H 144.582 -2.43349 -0.751872 0
M  V30 1641 H 145.365 -3.37484 0.629248 0
M  V30 1642 N 147.81 0.181792 -1.56548 0
M  V30 1643 C 148.758 1.24461 -1.965 0
M  V30 1644 C 149.752 1.464 -0.852261 0
M  V30 1645 O 150.958 1.47103 -1.03733 0
M  V30 1646 H 147.333 0.418138 -0.625031 0
M  V30 1647 H 149.304 0.880714 -2.85107 0
M  V30 1648 C 148.053 2.57891 -2.33212 0
M  V30 1649 H 147.376 2.41829 -3.18369 0
M  V30 1650 H 148.816 3.3097 -2.65019 0
M  V30 1651 C 147.275 3.15871 -1.17163 0
M  V30 1652 O 147.805 3.9913 -0.453708 0
M  V30 1653 N 146.011 2.74808 -0.944936 0
M  V30 1654 H 145.558 2.07205 -1.53049 0
M  V30 1655 H 145.516 3.13939 -0.170286 0
M  V30 1656 N 149.288 1.51039 0.449983 0
M  V30 1657 C 150.513 1.6715 1.22783 0
M  V30 1658 C 150.938 0.363081 1.84563 0
M  V30 1659 O 150.296 -0.675433 1.68249 0
M  V30 1660 C 150.344 2.77985 2.29689 0
M  V30 1661 O 149.448 2.40707 3.34864 0
M  V30 1662 H 148.789 0.557746 0.360299 0
M  V30 1663 H 151.319 1.97535 0.533005 0
M  V30 1664 H 151.329 3.01693 2.74673 0
M  V30 1665 H 150.004 3.72935 1.84098 0
M  V30 1666 H 148.581 2.27523 2.95445 0
M  V30 1667 N 150.766 -0.704594 1.40972 0
M  V30 1668 C 151.716 -1.81051 1.38581 0
M  V30 1669 C 152.7 -1.58759 0.261585 0
M  V30 1670 O 153.892 -1.69745 0.501556 0
M  V30 1671 C 151.021 -3.19279 1.26157 0
M  V30 1672 C 150.107 -3.47296 2.43405 0
M  V30 1673 N 150.498 -3.46064 3.68881 0
M  V30 1674 C 148.796 -3.77804 2.37023 0
M  V30 1675 C 149.497 -3.72733 4.46592 0
M  V30 1676 N 148.473 -3.9203 3.76581 0
M  V30 1677 H 152.275 -1.78448 2.33525 0
M  V30 1678 H 149.789 -0.904198 1.349 0
M  V30 1679 H 151.786 -3.98488 1.22526 0
M  V30 1680 H 150.446 -3.231 0.321902 0
M  V30 1681 H 151.457 -3.26656 4.01891 0
M  V30 1682 H 148.134 -3.8905 1.51481 0
M  V30 1683 H 149.524 -3.77993 5.55492 0
M  V30 1684 N 152.244 -1.26651 -0.937939 0
M  V30 1685 C 153.655 -1.1125 -1.49934 0
M  V30 1686 C 154.006 0.306077 -1.93798 0
M  V30 1687 O 153.131 1.19792 -1.80219 0
M  V30 1688 C 153.726 -2.01339 -2.72485 0
M  V30 1689 C 152.285 -1.90074 -3.24883 0
M  V30 1690 C 151.432 -1.94498 -1.97651 0
M  V30 1691 H 154.383 -1.39693 -0.753091 0
M  V30 1692 H 154.404 -1.56319 -3.46907 0
M  V30 1693 H 153.916 -3.04577 -2.40529 0
M  V30 1694 H 152.017 -0.897827 -3.61621 0
M  V30 1695 H 152.13 -2.75778 -3.9177 0
M  V30 1696 H 150.494 -1.38591 -2.13693 0
M  V30 1697 H 151.277 -2.99372 -1.68022 0
M  V30 1698 N 153.722 1.14298 -1.08507 0
M  V30 1699 C 155.133 1.66926 -0.836227 0
M  V30 1700 C 155.484 1.85576 0.63686 0
M  V30 1701 O 154.609 1.56767 1.49175 0
M  V30 1702 C 155.204 3.03219 -1.51142 0
M  V30 1703 C 153.763 3.52876 -1.30979 0
M  V30 1704 C 152.91 2.2833 -1.57356 0
M  V30 1705 H 155.861 0.983491 -1.24552 0
M  V30 1706 H 155.882 3.68726 -0.939211 0
M  V30 1707 H 155.394 2.89612 -2.58353 0
M  V30 1708 H 153.495 3.71703 -0.258429 0
M  V30 1709 H 153.608 4.33586 -2.03814 0
M  V30 1710 H 151.972 2.34454 -0.995164 0
M  V30 1711 H 152.755 2.17298 -2.65775 0
M  V30 1712 N 155.201 0.870884 1.31352 0
M  V30 1713 C 156.429 0.49677 2.00848 0
M  V30 1714 C 156.844 -0.910998 1.65367 0
M  V30 1715 O 156.201 -1.59696 0.883374 0
M  V30 1716 C 156.252 0.645308 3.55694 0
M  V30 1717 O 155.973 1.99764 3.89905 0
M  V30 1718 C 157.474 0.272326 4.42463 0
M  V30 1719 H 154.694 0.193462 0.642506 0
M  V30 1720 H 157.238 1.1723 1.67563 0
M  V30 1721 H 155.393 0.0173176 3.87396 0
M  V30 1722 H 155.807 2.00607 4.84621 0
M  V30 1723 H 157.281 0.427208 5.50344 0
M  V30 1724 H 157.758 -0.788587 4.32062 0
M  V30 1725 H 158.364 0.876054 4.1618 0
M  V30 1726 N 156.679 -1.44442 0.630414 0
M  V30 1727 C 157.925 -2.02351 0.134816 0
M  V30 1728 C 158.258 -1.4947 -1.23986 0
M  V30 1729 O 157.533 -0.678475 -1.82283 0
M  V30 1730 C 157.816 -3.59898 0.120707 0
M  V30 1731 C 157.669 -4.23063 1.52767 0
M  V30 1732 C 158.988 -4.36585 -0.555127 0
M  V30 1733 H 156.107 -0.73527 0.0504646 0
M  V30 1734 H 158.749 -1.72022 0.806751 0
M  V30 1735 H 156.899 -3.85868 -0.451477 0
M  V30 1736 H 158.571 -4.08202 2.14869 0
M  V30 1737 H 156.814 -3.80586 2.08175 0
M  V30 1738 H 157.485 -5.32071 1.46984 0
M  V30 1739 H 159.961 -4.16044 -0.0685429 0
M  V30 1740 H 158.837 -5.46294 -0.534185 0
M  V30 1741 H 159.098 -4.11138 -1.62535 0
M  V30 1742 N 158.157 -0.370918 -1.53173 0
M  V30 1743 C 159.403 0.217423 -2.01631 0
M  V30 1744 C 159.736 1.47983 -1.25756 0
M  V30 1745 O 159.011 1.91274 -0.352764 0
M  V30 1746 C 159.294 0.503982 -3.56556 0
M  V30 1747 C 159.147 -0.77243 -4.43118 0
M  V30 1748 C 160.466 1.30234 -4.20389 0
M  V30 1749 H 157.585 0.0775486 -0.732909 0
M  V30 1750 H 160.227 -0.496863 -1.83388 0
M  V30 1751 H 158.377 1.11248 -3.72231 0
M  V30 1752 H 160.049 -1.4098 -4.39229 0
M  V30 1753 H 158.292 -1.39167 -4.10871 0
M  V30 1754 H 158.963 -0.526815 -5.4948 0
M  V30 1755 H 161.439 0.787546 -4.08579 0
M  V30 1756 H 160.315 1.47158 -5.28806 0
M  V30 1757 H 160.576 2.31237 -3.76805 0
M  V30 1758 N 159.635 1.57281 -0.100228 0
M  V30 1759 C 161.051 1.57527 0.256416 0
M  V30 1760 C 161.251 1.11173 1.68056 0
M  V30 1761 O 160.307 0.79053 2.39806 0
M  V30 1762 C 161.62 3.00673 0.0401747 0
M  V30 1763 C 163.168 3.12815 0.107528 0
M  V30 1764 C 163.643 4.57929 -0.0807834 0
M  V30 1765 N 165.134 4.63193 -0.0261207 0
M  V30 1766 C 165.869 5.73212 -0.146999 0
M  V30 1767 N 165.365 6.92047 -0.322999 0
M  V30 1768 N 167.158 5.62031 -0.0879044 0
M  V30 1769 H 159.309 1.85718 -1.03065 0
M  V30 1770 H 161.572 0.857446 -0.404339 0
M  V30 1771 H 161.278 3.38804 -0.943649 0
M  V30 1772 H 161.152 3.69042 0.780262 0
M  V30 1773 H 163.539 2.74554 1.08186 0
M  V30 1774 H 163.62 2.47028 -0.664134 0
M  V30 1775 H 163.264 4.96886 -1.05201 0
M  V30 1776 H 163.194 5.21783 0.710635 0
M  V30 1777 H 165.685 3.77748 0.107161 0
M  V30 1778 H 165.998 7.7173 -0.406608 0
M  V30 1779 H 164.343 6.94074 -0.358733 0
M  V30 1780 H 167.534 4.68075 0.048498 0
M  V30 1781 H 167.707 6.47734 -0.185557 0
M  V30 1782 N 161.113 -0.173488 1.56642 0
M  V30 1783 C 162.529 -0.525174 1.50712 0
M  V30 1784 C 162.729 -1.8476 0.804107 0
M  V30 1785 O 161.785 -2.49869 0.363574 0
M  V30 1786 C 163.098 -0.559937 2.95441 0
M  V30 1787 C 164.646 -0.647288 3.06234 0
M  V30 1788 C 165.121 -0.712963 4.52417 0
M  V30 1789 N 166.612 -0.775911 4.56655 0
M  V30 1790 C 167.347 -0.847264 5.67106 0
M  V30 1791 N 166.843 -0.879585 6.87194 0
M  V30 1792 N 168.636 -0.886117 5.55071 0
M  V30 1793 H 160.787 0.693681 2.00753 0
M  V30 1794 H 163.05 0.249841 0.914485 0
M  V30 1795 H 162.756 0.343049 3.50023 0
M  V30 1796 H 162.63 -1.40718 3.49969 0
M  V30 1797 H 165.017 -1.5407 2.51687 0
M  V30 1798 H 165.098 0.226586 2.54794 0
M  V30 1799 H 164.742 0.176183 5.07594 0
M  V30 1800 H 164.672 -1.60295 5.0161 0
M  V30 1801 H 167.163 -0.759304 3.70193 0
M  V30 1802 H 167.476 -0.935144 7.67121 0
M  V30 1803 H 165.821 -0.847898 6.89808 0
M  V30 1804 H 169.012 -0.857853 4.60172 0
M  V30 1805 H 169.185 -0.938263 6.41171 0
M  V30 1806 N 162.591 -1.51276 -0.441967 0
M  V30 1807 C 164.002 -1.56244 -1.02199 0
M  V30 1808 C 164.353 -0.383149 -1.92422 0
M  V30 1809 O 163.478 0.500613 -2.1053 0
M  V30 1810 C 164.073 -2.83162 -1.86024 0
M  V30 1811 C 162.632 -2.90716 -2.39084 0
M  V30 1812 C 161.779 -2.50858 -1.18175 0
M  V30 1813 H 164.73 -1.5712 -0.223416 0
M  V30 1814 H 164.751 -2.66663 -2.71425 0
M  V30 1815 H 164.263 -3.68974 -1.20331 0
M  V30 1816 H 162.364 -2.09323 -3.08244 0
M  V30 1817 H 162.477 -3.94266 -2.72198 0
M  V30 1818 H 160.841 -2.03951 -1.52565 0
M  V30 1819 H 161.624 -3.3901 -0.541001 0
M  V30 1820 N 164.069 0.697108 -1.41344 0
M  V30 1821 C 165.017 1.83237 -1.43272 0
M  V30 1822 C 166.011 1.66522 -0.310947 0
M  V30 1823 O 167.217 1.73402 -0.482899 0
M  V30 1824 H 163.592 0.603802 -0.448249 0
M  V30 1825 H 165.563 1.78727 -2.38954 0
M  V30 1826 C 164.312 3.21245 -1.33029 0
M  V30 1827 H 163.635 3.34723 -2.18633 0
M  V30 1828 H 165.075 4.00763 -1.38439 0
M  V30 1829 C 163.534 3.36873 -0.0424635 0
M  V30 1830 O 164.064 3.91177 0.913421 0
M  V30 1831 N 162.27 2.90581 0.0331145 0
M  V30 1832 H 161.817 2.46577 -0.745506 0
M  V30 1833 H 161.775 3.01416 0.894199 0
M  V30 1834 N 165.547 1.27147 0.931209 0
M  V30 1835 C 166.477 1.12081 2.04842 0
M  V30 1836 C 167.458 0.0232364 1.70084 0
M  V30 1837 O 168.643 0.197085 1.93197 0
M  V30 1838 C 165.773 0.76354 3.38803 0
M  V30 1839 C 164.727 1.81396 3.87659 0
M  V30 1840 C 164.053 1.31075 5.18385 0
M  V30 1841 C 165.353 3.21739 4.11438 0
M  V30 1842 H 167.047 2.05537 2.17703 0
M  V30 1843 H 164.593 0.989603 1.04608 0
M  V30 1844 H 166.546 0.644982 4.16435 0
M  V30 1845 H 165.27 -0.206727 3.25945 0
M  V30 1846 H 163.929 1.92136 3.12217 0
M  V30 1847 H 163.577 0.330037 5.01916 0
M  V30 1848 H 163.277 2.013 5.52044 0
M  V30 1849 H 164.801 1.20506 5.98591 0
M  V30 1850 H 166.215 3.14019 4.79651 0
M  V30 1851 H 164.612 3.89644 4.56397 0
M  V30 1852 H 165.682 3.67054 3.16859 0
M  V30 1853 N 167.025 -1.13721 1.09112 0
M  V30 1854 C 167.975 -2.17082 0.697091 0
M  V30 1855 C 168.959 -1.58321 -0.286923 0
M  V30 1856 O 170.151 -1.7673 -0.0978008 0
M  V30 1857 C 167.28 -3.43105 0.115729 0
M  V30 1858 C 166.366 -4.0888 1.12596 0
M  V30 1859 N 166.757 -4.4987 2.31195 0
M  V30 1860 C 165.055 -4.35471 0.963366 0
M  V30 1861 C 165.756 -5.01094 2.95431 0
M  V30 1862 N 164.732 -4.95751 2.23006 0
M  V30 1863 H 168.534 -2.46524 1.6001 0
M  V30 1864 H 166.048 -1.30481 0.966869 0
M  V30 1865 H 168.045 -4.16491 -0.184555 0
M  V30 1866 H 166.705 -3.15138 -0.78217 0
M  V30 1867 H 167.716 -4.42678 2.68806 0
M  V30 1868 H 164.393 -4.17328 0.119878 0
M  V30 1869 H 165.783 -5.4263 3.96236 0
M  V30 1870 N 168.503 -0.877838 -1.30888 0
M  V30 1871 C 169.914 -0.544193 -1.78593 0
M  V30 1872 C 170.265 0.939301 -1.72254 0
M  V30 1873 O 169.39 1.7337 -1.29505 0
M  V30 1874 C 169.985 -0.98105 -3.24285 0
M  V30 1875 C 168.544 -0.698935 -3.69854 0
M  V30 1876 C 167.691 -1.168 -2.51502 0
M  V30 1877 H 170.642 -1.06278 -1.17859 0
M  V30 1878 H 170.663 -0.307009 -3.79259 0
M  V30 1879 H 170.175 -2.06079 -3.28866 0
M  V30 1880 H 168.276 0.369112 -3.70767 0
M  V30 1881 H 168.389 -1.28148 -4.61644 0
M  V30 1882 H 166.753 -0.587535 -2.47831 0
M  V30 1883 H 167.536 -2.25533 -2.58824 0
M  V30 1884 N 169.982 1.44106 -0.638065 0
M  V30 1885 C 171.207 2.0685 -0.150916 0
M  V30 1886 C 171.632 1.47417 1.16833 0
M  V30 1887 O 170.99 0.578264 1.71831 0
M  V30 1888 C 171.038 3.60555 -0.05708 0
M  V30 1889 O 170.142 4.00465 0.984972 0
M  V30 1890 H 169.483 0.658151 -0.0879399 0
M  V30 1891 H 172.013 1.84865 -0.876707 0
M  V30 1892 H 172.023 4.07789 0.131232 0
M  V30 1893 H 170.698 4.03193 -1.02021 0
M  V30 1894 H 169.275 3.64849 0.770672 0
M  V30 1895 N 171.46 0.379036 1.52974 0
M  V30 1896 C 172.707 -0.206421 2.01445 0
M  V30 1897 C 173.035 -1.47668 1.26587 0
M  V30 1898 O 172.29 -1.92514 0.351675 0
M  V30 1899 C 172.589 -0.53096 3.53434 0
M  V30 1900 C 172.255 0.646546 4.46241 0
M  V30 1901 C 170.917 0.969604 4.7133 0
M  V30 1902 C 173.269 1.43479 5.01062 0
M  V30 1903 C 170.597 2.08263 5.48492 0
M  V30 1904 C 172.949 2.53834 5.7944 0
M  V30 1905 C 171.613 2.86659 6.02812 0
M  V30 1906 H 170.883 -0.0755349 0.73714 0
M  V30 1907 H 173.53 0.514271 1.84465 0
M  V30 1908 H 171.835 -1.33285 3.68432 0
M  V30 1909 H 173.532 -0.996417 3.88423 0
M  V30 1910 H 170.122 0.384734 4.2687 0
M  V30 1911 H 174.306 1.19844 4.81613 0
M  V30 1912 H 169.562 2.34078 5.64816 0
M  V30 1913 H 173.736 3.15319 6.20924 0
M  V30 1914 H 171.363 3.73026 6.62387 0
M  V30 1915 N 172.938 -1.57226 0.108567 0
M  V30 1916 C 174.187 -1.94008 -0.551703 0
M  V30 1917 C 174.5 -0.993442 -1.68494 0
M  V30 1918 O 175.706 -1.25551 -2.40726 0
M  V30 1919 C 174.162 -3.44763 -1.03279 0
M  V30 1920 C 173.77 -4.47943 0.0714193 0
M  V30 1921 C 175.514 -3.90483 -1.66503 0
M  V30 1922 C 173.421 -5.89865 -0.425779 0
M  V30 1923 H 172.351 -0.724206 -0.209863 0
M  V30 1924 H 175.002 -1.82547 0.186741 0
M  V30 1925 H 173.384 -3.51422 -1.82533 0
M  V30 1926 H 174.558 -4.52942 0.847365 0
M  V30 1927 H 172.873 -4.11913 0.609669 0
M  V30 1928 H 175.47 -4.93925 -2.04798 0
M  V30 1929 H 175.813 -3.29877 -2.53942 0
M  V30 1930 H 176.346 -3.86581 -0.938074 0
M  V30 1931 H 173.085 -6.54202 0.412316 0
M  V30 1932 H 172.605 -5.88309 -1.16843 0
M  V30 1933 H 174.284 -6.40844 -0.890397 0
M  V30 1934 N 174.416 0.165178 -1.56732 0
M  V30 1935 C 175.379 1.18822 -1.95995 0
M  V30 1936 C 176.379 1.3685 -0.84431 0
M  V30 1937 O 177.569 1.34152 -1.11126 0
M  V30 1938 C 174.701 2.5521 -2.26011 0
M  V30 1939 H 175.894 0.851825 -2.87548 0
M  V30 1940 H 173.447 0.407857 -1.50885 0
M  V30 1941 H 174.182 2.93852 -1.37191 0
M  V30 1942 H 173.967 2.43489 -3.07336 0
M  V30 1943 H 175.457 3.28927 -2.57288 0
M  V30 1944 N 175.894 1.51508 0.433938 0
M  V30 1945 C 177.143 1.63578 1.18005 0
M  V30 1946 C 177.456 0.359514 1.92268 0
M  V30 1947 O 178.662 0.359632 2.69108 0
M  V30 1948 C 177.118 2.88901 2.14626 0
M  V30 1949 C 176.726 4.23544 1.45995 0
M  V30 1950 C 178.47 3.10328 2.89649 0
M  V30 1951 C 176.377 5.40014 2.4112 0
M  V30 1952 H 175.307 0.609277 0.444182 0
M  V30 1953 H 177.958 1.77978 0.446773 0
M  V30 1954 H 176.34 2.68142 2.91403 0
M  V30 1955 H 177.514 4.54696 0.747532 0
M  V30 1956 H 175.829 4.08021 0.831115 0
M  V30 1957 H 178.426 3.94518 3.60915 0
M  V30 1958 H 178.769 2.23544 3.51189 0
M  V30 1959 H 179.302 3.31443 2.19978 0
M  V30 1960 H 176.041 6.29068 1.84264 0
M  V30 1961 H 175.561 5.13233 3.10406 0
M  V30 1962 H 177.24 5.72099 3.02177 0
M  V30 1963 N 177.372 -0.689602 1.41712 0
M  V30 1964 C 178.783 -1.26973 1.36875 0
M  V30 1965 C 179.134 -1.96124 0.054748 0
M  V30 1966 O 178.259 -1.99141 -0.84687 0
M  V30 1967 C 178.854 -2.30912 2.47922 0
M  V30 1968 C 177.413 -2.84486 2.46464 0
M  V30 1969 C 176.56 -1.58603 2.27465 0
M  V30 1970 H 179.511 -0.48396 1.51141 0
M  V30 1971 H 179.532 -3.12331 2.17323 0
M  V30 1972 H 179.044 -1.80554 3.43543 0
M  V30 1973 H 177.145 -3.39005 1.54617 0
M  V30 1974 H 177.258 -3.34511 3.42986 0
M  V30 1975 H 175.622 -1.84632 1.75451 0
M  V30 1976 H 176.405 -1.10233 3.25121 0
M  V30 1977 N 178.85 -1.27639 -0.924453 0
M  V30 1978 C 180.261 -1.12834 -1.48746 0
M  V30 1979 C 180.612 0.285505 -1.94112 0
M  V30 1980 O 179.737 1.17874 -1.81479 0
M  V30 1981 C 180.332 -2.04217 -2.70334 0
M  V30 1982 C 178.891 -1.93509 -3.22848 0
M  V30 1983 C 178.038 -1.96583 -1.95577 0
M  V30 1984 H 180.989 -1.40484 -0.738233 0
M  V30 1985 H 181.01 -1.59989 -3.4523 0
M  V30 1986 H 180.522 -3.07111 -2.37285 0
M  V30 1987 H 178.623 -0.936131 -3.60649 0
M  V30 1988 H 178.736 -2.79917 -3.88823 0
M  V30 1989 H 177.1 -1.4085 -2.12211 0
M  V30 1990 H 177.883 -3.01137 -1.64837 0
M  V30 1991 N 180.328 1.1314 -1.09713 0
M  V30 1992 C 181.275 2.18642 -0.739196 0
M  V30 1993 C 182.245 1.63706 0.280978 0
M  V30 1994 O 183.43 1.90111 0.161946 0
M  V30 1995 C 180.57 3.44685 -0.169102 0
M  V30 1996 C 179.683 4.13711 -1.24367 0
M  V30 1997 C 178.818 5.27379 -0.636019 0
M  V30 1998 C 177.857 5.88259 -1.69169 0
M  V30 1999 N 176.994 6.93352 -1.10485 0
M  V30 2000 H 181.834 2.48607 -1.64312 0
M  V30 2001 H 179.371 1.22066 -0.820875 0
M  V30 2002 H 181.329 4.16815 0.179256 0
M  V30 2003 H 179.959 3.15161 0.698079 0
M  V30 2004 H 179.011 3.39835 -1.70927 0
M  V30 2005 H 180.323 4.55037 -2.04311 0
M  V30 2006 H 179.477 6.06238 -0.236677 0
M  V30 2007 H 178.216 4.8731 0.194928 0
M  V30 2008 H 177.221 5.08092 -2.10055 0
M  V30 2009 H 178.446 6.30399 -2.52536 0
M  V30 2010 H 176.392 6.55335 -0.295234 0
M  V30 2011 H 176.309 7.33236 -1.84121 0
M  V30 2012 H 177.577 7.76057 -0.73181 0
M  V30 2013 N 181.806 0.884767 1.30421 0
M  V30 2014 C 182.753 0.349642 2.28136 0
M  V30 2015 C 183.723 -0.560061 1.56373 0
M  V30 2016 O 184.908 -0.488524 1.8444 0
M  V30 2017 C 182.048 -0.42999 3.42411 0
M  V30 2018 C 181.161 0.508907 4.28992 0
M  V30 2019 C 180.296 -0.286301 5.30428 0
M  V30 2020 C 179.335 0.648079 6.08659 0
M  V30 2021 N 178.472 -0.111792 7.02011 0
M  V30 2022 H 183.312 1.18807 2.73293 0
M  V30 2023 H 180.849 0.597231 1.3443 0
M  V30 2024 H 182.807 -0.897923 4.07423 0
M  V30 2025 H 181.437 -1.23299 2.98324 0
M  V30 2026 H 180.489 1.09533 3.64289 0
M  V30 2027 H 181.801 1.22475 4.8353 0
M  V30 2028 H 180.955 -0.816098 6.01186 0
M  V30 2029 H 179.694 -1.03536 4.76583 0
M  V30 2030 H 178.699 1.18951 5.36778 0
M  V30 2031 H 179.924 1.39623 6.64592 0
M  V30 2032 H 177.87 -0.843395 6.50556 0
M  V30 2033 H 177.787 0.544429 7.54037 0
M  V30 2034 H 179.055 -0.622339 7.77012 0
M  V30 2035 N 183.284 -1.43765 0.645699 0
M  V30 2036 C 184.533 -2.01116 0.153412 0
M  V30 2037 C 184.846 -1.51493 -1.23731 0
M  V30 2038 O 186.052 -2.01067 -1.8244 0
M  V30 2039 C 184.508 -3.59206 0.223473 0
M  V30 2040 C 184.116 -4.17823 1.61642 0
M  V30 2041 C 185.86 -4.23972 -0.211597 0
M  V30 2042 C 183.767 -5.68183 1.64081 0
M  V30 2043 H 182.697 -0.752093 0.0535891 0
M  V30 2044 H 185.348 -1.6482 0.806633 0
M  V30 2045 H 183.73 -3.92867 -0.497118 0
M  V30 2046 H 184.904 -3.95674 2.36176 0
M  V30 2047 H 183.219 -3.65399 1.99681 0
M  V30 2048 H 185.816 -5.34275 -0.213112 0
M  V30 2049 H 186.159 -3.97352 -1.24165 0
M  V30 2050 H 186.692 -3.95166 0.456988 0
M  V30 2051 H 183.431 -5.99559 2.64971 0
M  V30 2052 H 182.951 -5.9241 0.938611 0
M  V30 2053 H 184.63 -6.32085 1.3812 0
M  V30 2054 N 184.763 -0.387143 -1.52771 0
M  V30 2055 C 185.695 0.484089 -2.2403 0
M  V30 2056 C 186.708 1.02849 -1.26198 0
M  V30 2057 O 187.897 0.931186 -1.52286 0
M  V30 2058 C 184.997 1.68337 -2.94136 0
M  V30 2059 C 184.17 1.26672 -4.18656 0
M  V30 2060 C 183.229 2.33045 -4.7178 0
M  V30 2061 O 182.255 1.94541 -5.34923 0
M  V30 2062 N 183.457 3.64929 -4.5145 0
M  V30 2063 H 186.222 -0.126404 -2.99433 0
M  V30 2064 H 183.783 -0.213392 -1.60488 0
M  V30 2065 H 185.775 2.39019 -3.26577 0
M  V30 2066 H 184.345 2.20025 -2.22053 0
M  V30 2067 H 183.565 0.388878 -3.92277 0
M  V30 2068 H 184.853 0.964964 -4.99566 0
M  V30 2069 H 184.251 3.98974 -4.01044 0
M  V30 2070 H 182.808 4.31651 -4.88386 0
M  V30 2071 N 186.241 1.57166 -0.116904 0
M  V30 2072 C 187.518 1.86645 0.585049 0
M  V30 2073 C 187.898 1.0177 1.84949 0
M  V30 2074 O 187.246 0.0960379 2.28298 0
M  V30 2075 C 187.456 3.37736 0.879507 0
M  V30 2076 C 188.804 4.06289 1.23348 0
M  V30 2077 O 189.828 3.42743 0.969836 0
M  V30 2078 O 188.687 5.18455 1.7282 0
M  V30 2079 H 185.781 0.772593 0.295007 0
M  V30 2080 H 188.327 1.69025 -0.151249 0
M  V30 2081 H 187.099 3.91296 -0.0166136 0
M  V30 2082 H 186.722 3.6078 1.67103 0
M  V30 2083 N 187.719 -0.156864 1.56817 0
M  V30 2084 C 188.666 -1.19394 1.97519 0
M  V30 2085 C 189.636 -1.4322 0.841265 0
M  V30 2086 O 190.821 -1.55719 1.10255 0
M  V30 2087 C 187.961 -2.52483 2.35258 0
M  V30 2088 C 187.074 -2.35914 3.61896 0
M  V30 2089 C 186.209 -3.61969 3.88782 0
M  V30 2090 C 185.248 -3.40395 5.08722 0
M  V30 2091 N 184.385 -4.58556 5.31668 0
M  V30 2092 H 189.225 -0.839845 2.85921 0
M  V30 2093 H 186.762 -0.403264 1.41464 0
M  V30 2094 H 188.72 -3.30071 2.55165 0
M  V30 2095 H 187.35 -2.85859 1.49949 0
M  V30 2096 H 186.402 -1.49429 3.49821 0
M  V30 2097 H 187.714 -2.15926 4.49641 0
M  V30 2098 H 186.868 -4.47989 4.09135 0
M  V30 2099 H 185.607 -3.84951 2.9944 0
M  V30 2100 H 184.612 -2.52763 4.88253 0
M  V30 2101 H 185.837 -3.18822 5.99608 0
M  V30 2102 H 183.783 -4.81729 4.45279 0
M  V30 2103 H 183.7 -4.41535 6.13664 0
M  V30 2104 H 184.968 -5.45817 5.5651 0
M  V30 2105 N 189.197 -1.51736 -0.425897 0
M  V30 2106 C 190.446 -1.64201 -1.17136 0
M  V30 2107 C 190.759 -0.369705 -1.92074 0
M  V30 2108 O 191.965 -0.373898 -2.68913 0
M  V30 2109 C 190.421 -2.90035 -2.13091 0
M  V30 2110 C 190.029 -4.24312 -1.43747 0
M  V30 2111 C 191.773 -3.1186 -2.87999 0
M  V30 2112 C 189.68 -5.41285 -2.38253 0
M  V30 2113 H 188.61 -0.611624 -0.440944 0
M  V30 2114 H 191.261 -1.78212 -0.437328 0
M  V30 2115 H 189.643 -2.69684 -2.89977 0
M  V30 2116 H 190.817 -4.55086 -0.723408 0
M  V30 2117 H 189.132 -4.08456 -0.809465 0
M  V30 2118 H 191.729 -3.96427 -3.58817 0
M  V30 2119 H 192.072 -2.25403 -3.49999 0
M  V30 2120 H 192.605 -3.32605 -2.18217 0
M  V30 2121 H 189.344 -6.30037 -1.80925 0
M  V30 2122 H 188.864 -5.14872 -3.0768 0
M  V30 2123 H 190.543 -5.73694 -2.99139 0
M  V30 2124 N 190.675 0.682077 -1.42076 0
M  V30 2125 C 191.924 1.43786 -1.41451 0
M  V30 2126 C 192.237 1.95574 -0.0317074 0
M  V30 2127 O 193.443 2.71326 0.0971462 0
M  V30 2128 C 191.899 2.60071 -2.48779 0
M  V30 2129 C 191.507 2.15013 -3.93031 0
M  V30 2130 C 193.251 3.37626 -2.57311 0
M  V30 2131 C 191.158 3.28336 -4.91883 0
M  V30 2132 H 190.088 0.540143 -0.526082 0
M  V30 2133 H 192.739 0.739157 -1.67955 0
M  V30 2134 H 191.121 3.32275 -2.15429 0
M  V30 2135 H 192.295 1.5001 -4.35699 0
M  V30 2136 H 190.61 1.50416 -3.88284 0
M  V30 2137 H 193.207 4.22012 -3.28345 0
M  V30 2138 H 193.55 3.83727 -1.61429 0
M  V30 2139 H 194.083 2.72488 -2.89819 0
M  V30 2140 H 190.822 2.87234 -5.89217 0
M  V30 2141 H 190.342 3.92145 -4.53853 0
M  V30 2142 H 192.021 3.93913 -5.13265 0
M  V30 2143 N 192.153 1.28127 0.917671 0
M  V30 2144 C 193.402 1.14432 1.66097 0
M  V30 2145 C 193.715 -0.307247 1.93172 0
M  V30 2146 O 194.921 -0.565259 2.65551 0
M  V30 2147 C 193.377 2.00015 2.99202 0
M  V30 2148 C 192.985 3.49889 2.79789 0
M  V30 2149 C 194.729 1.94996 3.77064 0
M  V30 2150 C 192.636 4.27636 4.08511 0
M  V30 2151 H 191.566 0.424662 0.62304 0
M  V30 2152 H 194.217 1.52628 1.01868 0
M  V30 2153 H 192.599 1.54672 3.64544 0
M  V30 2154 H 193.773 4.03162 2.23152 0
M  V30 2155 H 192.088 3.56392 2.15345 0
M  V30 2156 H 194.685 2.50354 4.72469 0
M  V30 2157 H 195.028 0.925819 4.05875 0
M  V30 2158 H 195.561 2.38287 3.18534 0
M  V30 2159 H 192.3 5.30615 3.84874 0
M  V30 2160 H 191.82 3.79137 4.64774 0
M  V30 2161 H 193.499 4.37346 4.76799 0
M  V30 2162 N 193.631 -1.12557 1.10312 0
M  V30 2163 C 195.042 -1.65574 0.862678 0
M  V30 2164 C 195.393 -1.86566 -0.607256 0
M  V30 2165 O 194.518 -1.59121 -1.46662 0
M  V30 2166 C 195.113 -3.00776 1.55947 0
M  V30 2167 C 193.672 -3.50748 1.36576 0
M  V30 2168 C 192.819 -2.25797 1.60968 0
M  V30 2169 H 195.77 -0.963552 1.26101 0
M  V30 2170 H 195.791 -3.67185 0.997753 0
M  V30 2171 H 195.303 -2.85465 2.62928 0
M  V30 2172 H 193.404 -3.71245 0.317531 0
M  V30 2173 H 193.517 -4.30289 2.10686 0
M  V30 2174 H 191.881 -2.32841 1.03234 0
M  V30 2175 H 192.664 -2.13043 2.69198 0
M  V30 2176 N 195.109 -0.891671 -1.2995 0
M  V30 2177 C 196.337 -0.52866 -2.00032 0
M  V30 2178 C 196.752 0.884574 -1.66795 0
M  V30 2179 O 196.109 1.5827 -0.908669 0
M  V30 2180 C 196.16 -0.701814 -3.54622 0
M  V30 2181 O 195.881 -2.05942 -3.86678 0
M  V30 2182 C 197.382 -0.342683 -4.41973 0
M  V30 2183 H 194.602 -0.203659 -0.639347 0
M  V30 2184 H 197.146 -1.19881 -1.65677 0
M  V30 2185 H 195.301 -0.0789468 -3.8732 0
M  V30 2186 H 195.715 -2.08291 -4.81368 0
M  V30 2187 H 197.189 -0.514709 -5.49595 0
M  V30 2188 H 197.666 0.71975 -4.33262 0
M  V30 2189 H 198.272 -0.942154 -4.14733 0
M  V30 2190 N 196.587 1.43421 -0.653314 0
M  V30 2191 C 197.836 2.01032 -0.164076 0
M  V30 2192 C 198.149 1.52147 1.22926 0
M  V30 2193 O 199.355 2.02031 1.81371 0
M  V30 2194 C 197.811 3.59082 -0.24252 0
M  V30 2195 C 197.419 4.1696 -1.63855 0
M  V30 2196 C 199.163 4.24079 0.18911 0
M  V30 2197 C 197.07 5.67304 -1.67092 0
M  V30 2198 H 196 0.751798 -0.0575769 0
M  V30 2199 H 198.651 1.6439 -0.815362 0
M  V30 2200 H 197.033 3.93125 0.476276 0
M  V30 2201 H 198.207 3.94416 -2.38271 0
M  V30 2202 H 196.522 3.64335 -2.01616 0
M  V30 2203 H 199.119 5.34381 0.184775 0
M  V30 2204 H 199.462 3.98005 1.22056 0
M  V30 2205 H 199.995 3.94918 -0.477938 0
M  V30 2206 H 196.734 5.98145 -2.68146 0
M  V30 2207 H 196.254 5.91904 -0.970014 0
M  V30 2208 H 197.933 6.31344 -1.4147 0
M  V30 2209 N 198.065 0.39524 1.52563 0
M  V30 2210 C 199.013 -0.451859 2.28169 0
M  V30 2211 C 200.007 -1.05792 1.32304 0
M  V30 2212 O 201.213 -0.997718 1.49818 0
M  V30 2213 H 197.588 -0.164481 0.733792 0
M  V30 2214 H 199.559 0.207199 2.9768 0
M  V30 2215 C 198.308 -1.56385 3.10546 0
M  V30 2216 H 197.631 -1.10682 3.84174 0
M  V30 2217 H 199.071 -2.13067 3.66577 0
M  V30 2218 C 197.53 -2.52328 2.23231 0
M  V30 2219 O 198.06 -3.5588 1.86312 0
M  V30 2220 N 196.266 -2.22209 1.87274 0
M  V30 2221 H 195.813 -1.38033 2.17496 0
M  V30 2222 H 195.771 -2.86652 1.29143 0
M  V30 2223 N 199.544 -1.57102 0.125237 0
M  V30 2224 C 200.772 -1.99761 -0.538797 0
M  V30 2225 C 201.187 -1.00503 -1.59827 0
M  V30 2226 O 200.544 0.00119474 -1.825 0
M  V30 2227 C 200.595 -3.42408 -1.15927 0
M  V30 2228 O 200.316 -4.37869 -0.142143 0
M  V30 2229 C 201.817 -4.00232 -1.90602 0
M  V30 2230 H 199.037 -0.655772 -0.14214 0
M  V30 2231 H 201.581 -2.03383 0.213413 0
M  V30 2232 H 199.736 -3.39706 -1.86223 0
M  V30 2233 H 200.15 -5.21128 -0.593775 0
M  V30 2234 H 201.624 -5.02105 -2.29335 0
M  V30 2235 H 202.101 -3.39721 -2.78363 0
M  V30 2236 H 202.707 -4.06499 -1.25055 0
M  V30 2237 N 201.022 0.148545 -1.56898 0
M  V30 2238 C 202.271 0.85984 -1.82454 0
M  V30 2239 C 202.584 1.82406 -0.706229 0
M  V30 2240 O 203.79 2.57938 -0.847349 0
M  V30 2241 C 202.246 1.57967 -3.2338 0
M  V30 2242 C 201.854 0.65794 -4.43142 0
M  V30 2243 C 203.598 2.27784 -3.58211 0
M  V30 2244 C 201.505 1.3793 -5.75091 0
M  V30 2245 H 200.435 0.324834 -0.68044 0
M  V30 2246 H 203.086 0.112588 -1.83154 0
M  V30 2247 H 201.468 2.37249 -3.17063 0
M  V30 2248 H 202.642 -0.0995497 -4.60692 0
M  V30 2249 H 200.957 0.0682643 -4.16344 0
M  V30 2250 H 203.554 2.8239 -4.54048 0
M  V30 2251 H 203.897 3.04204 -2.84193 0
M  V30 2252 H 204.43 1.55421 -3.66182 0
M  V30 2253 H 201.169 0.656982 -6.52199 0
M  V30 2254 H 200.689 2.10954 -5.61479 0
M  V30 2255 H 202.368 1.92063 -6.17835 0
M  V30 2256 N 202.5 1.5196 0.417844 0
M  V30 2257 C 203.463 1.74065 1.49111 0
M  V30 2258 C 204.463 0.610537 1.48758 0
M  V30 2259 O 205.653 0.87832 1.50437 0
M  V30 2260 C 202.785 1.81502 2.88565 0
M  V30 2261 H 203.978 2.69869 1.30807 0
M  V30 2262 H 201.531 1.42244 0.647785 0
M  V30 2263 H 202.266 0.875813 3.1225 0
M  V30 2264 H 202.051 2.63651 2.90225 0
M  V30 2265 H 203.541 2.00376 3.66387 0
M  V30 2266 N 203.978 -0.674533 1.42435 0
M  V30 2267 C 205.206 -1.46283 1.46317 0
M  V30 2268 C 205.621 -1.88653 0.0745836 0
M  V30 2269 O 204.978 -1.58151 -0.91074 0
M  V30 2270 C 205.029 -2.71178 2.3905 0
M  V30 2271 O 204.75 -2.30586 3.72507 0
M  V30 2272 C 206.251 -3.64738 2.51955 0
M  V30 2273 H 203.471 -0.450104 0.497642 0
M  V30 2274 H 206.015 -0.828792 1.86953 0
M  V30 2275 H 204.17 -3.3077 2.01667 0
M  V30 2276 H 204.584 -3.11241 4.22172 0
M  V30 2277 H 206.058 -4.49096 3.20962 0
M  V30 2278 H 206.535 -4.10656 1.55752 0
M  V30 2279 H 207.141 -3.11038 2.90061 0
M  V30 2280 N 205.456 -1.28612 -0.910864 0
M  V30 2281 C 206.702 -1.16106 -1.66274 0
M  V30 2282 C 207.035 0.289113 -1.92036 0
M  V30 2283 O 206.31 1.21 -1.52281 0
M  V30 2284 C 206.593 -1.96309 -3.01885 0
M  V30 2285 C 206.446 -3.49405 -2.8326 0
M  V30 2286 C 207.765 -1.78076 -4.02463 0
M  V30 2287 H 204.884 -0.423152 -0.603417 0
M  V30 2288 H 207.526 -1.57961 -1.05586 0
M  V30 2289 H 205.676 -1.60742 -3.53687 0
M  V30 2290 H 207.348 -3.94894 -2.38446 0
M  V30 2291 H 205.591 -3.74893 -2.18261 0
M  V30 2292 H 206.262 -4.00784 -3.79574 0
M  V30 2293 H 208.738 -2.0912 -3.59733 0
M  V30 2294 H 207.614 -2.36561 -4.95308 0
M  V30 2295 H 207.875 -0.733008 -4.35981 0
M  V30 2296 N 206.934 1.1197 -1.10907 0
M  V30 2297 C 207.844 2.21433 -0.774896 0
M  V30 2298 C 208.86 1.72478 0.229657 0
M  V30 2299 O 210.036 2.01288 0.0672008 0
M  V30 2300 C 207.101 3.4602 -0.216986 0
M  V30 2301 C 206.162 4.09791 -1.27944 0
M  V30 2302 C 205.395 5.28431 -0.748055 0
M  V30 2303 O 205.618 5.68823 0.423833 0
M  V30 2304 O 204.552 5.82644 -1.51027 0
M  V30 2305 H 208.378 2.5242 -1.68873 0
M  V30 2306 H 205.963 1.20399 -0.884555 0
M  V30 2307 H 207.845 4.21304 0.090059 0
M  V30 2308 H 206.52 3.16698 0.669633 0
M  V30 2309 H 205.427 3.36265 -1.63941 0
M  V30 2310 H 206.76 4.4328 -2.13925 0
M  V30 2311 N 208.412 0.89855 1.29475 0
M  V30 2312 C 209.823 0.572537 1.77705 0
M  V30 2313 C 210.174 -0.911778 1.73727 0
M  V30 2314 O 209.299 -1.71288 1.32247 0
M  V30 2315 C 209.894 1.03252 3.22683 0
M  V30 2316 C 208.453 0.757687 3.68695 0
M  V30 2317 C 207.6 1.20787 2.49612 0
M  V30 2318 H 210.551 1.08139 1.16153 0
M  V30 2319 H 210.572 0.367307 3.78723 0
M  V30 2320 H 210.084 2.11285 3.25546 0
M  V30 2321 H 208.185 -0.310079 3.71308 0
M  V30 2322 H 208.298 1.35476 4.59547 0
M  V30 2323 H 206.662 0.626888 2.46865 0
M  V30 2324 H 207.445 2.29622 2.55203 0
M  V30 2325 N 209.89 -1.43072 0.660911 0
M  V30 2326 C 211.118 -2.06067 0.185422 0
M  V30 2327 C 211.533 -1.49582 -1.15198 0
M  V30 2328 O 210.89 -0.630134 -1.71276 0
M  V30 2329 C 210.941 -3.61371 0.0966523 0
M  V30 2330 O 210.662 -4.15758 1.38119 0
M  V30 2331 C 212.163 -4.41455 -0.403996 0
M  V30 2332 H 209.383 -0.664459 0.0934604 0
M  V30 2333 H 211.927 -1.83447 0.90373 0
M  V30 2334 H 210.082 -3.8315 -0.572259 0
M  V30 2335 H 210.496 -5.09499 1.24542 0
M  V30 2336 H 211.97 -5.50437 -0.415045 0
M  V30 2337 H 212.447 -4.15036 -1.43674 0
M  V30 2338 H 213.053 -4.24663 0.232691 0
M  V30 2339 N 211.368 -0.403325 -1.52352 0
M  V30 2340 C 212.779 0.0675782 -1.86578 0
M  V30 2341 C 213.13 1.44941 -1.32236 0
M  V30 2342 O 212.255 2.06112 -0.659307 0
M  V30 2343 C 212.85 0.129404 -3.38553 0
M  V30 2344 C 211.409 0.544629 -3.72439 0
M  V30 2345 C 210.556 -0.284551 -2.75836 0
M  V30 2346 H 213.507 -0.620631 -1.46061 0
M  V30 2347 H 213.528 0.94581 -3.68558 0
M  V30 2348 H 213.04 -0.87645 -3.78074 0
M  V30 2349 H 211.141 1.55734 -3.38493 0
M  V30 2350 H 211.254 0.293046 -4.78203 0
M  V30 2351 H 209.618 0.252258 -2.53448 0
M  V30 2352 H 210.401 -1.28865 -3.18196 0
M  V30 2353 N 212.846 1.57033 -0.133567 0
M  V30 2354 C 213.809 2.14897 0.796995 0
M  V30 2355 C 214.809 1.0874 1.18458 0
M  V30 2356 O 215.999 1.34446 1.1077 0
M  V30 2357 C 213.131 2.70112 2.07973 0
M  V30 2358 H 214.324 2.98457 0.293873 0
M  V30 2359 H 211.877 1.55871 0.115787 0
M  V30 2360 H 212.612 1.9018 2.62682 0
M  V30 2361 H 212.397 3.47764 1.81115 0
M  V30 2362 H 213.887 3.14738 2.74462 0
M  V30 2363 N 214.325 -0.140222 1.56975 0
M  V30 2364 C 215.736 -0.699596 1.73097 0
M  V30 2365 C 216.087 -1.8134 0.749022 0
M  V30 2366 O 215.212 -2.16241 -0.0828503 0
M  V30 2367 C 215.807 -1.27582 3.1386 0
M  V30 2368 C 214.366 -1.78169 3.31561 0
M  V30 2369 C 213.513 -0.672855 2.69013 0
M  V30 2370 H 216.464 0.0855115 1.58469 0
M  V30 2371 H 216.485 -2.14561 3.14235 0
M  V30 2372 H 215.997 -0.464955 3.85305 0
M  V30 2373 H 214.098 -2.61801 2.65124 0
M  V30 2374 H 214.211 -1.90574 4.39566 0
M  V30 2375 H 212.575 -1.10118 2.29665 0
M  V30 2376 H 213.358 0.126679 3.43066 0
M  V30 2377 N 215.803 -1.52179 -0.40978 0
M  V30 2378 C 216.766 -1.74853 -1.48186 0
M  V30 2379 C 217.766 -0.618417 -1.48433 0
M  V30 2380 O 218.956 -0.886286 -1.49969 0
M  V30 2381 C 216.088 -1.8303 -2.87598 0
M  V30 2382 H 217.281 -2.70559 -1.29374 0
M  V30 2383 H 214.834 -1.42586 -0.640233 0
M  V30 2384 H 215.569 -0.89236 -3.11781 0
M  V30 2385 H 215.354 -2.65187 -2.88822 0
M  V30 2386 H 216.844 -2.02316 -3.65319 0
M  V30 2387 N 217.281 0.66697 -1.42791 0
M  V30 2388 C 218.509 1.45505 -1.47091 0
M  V30 2389 C 218.924 1.8861 -0.0845873 0
M  V30 2390 O 218.281 1.58632 0.90234 0
M  V30 2391 C 218.332 2.69906 -2.40485 0
M  V30 2392 O 218.053 2.28608 -3.73725 0
M  V30 2393 C 219.554 3.63396 -2.53886 0
M  V30 2394 H 216.774 0.447459 -0.500022 0
M  V30 2395 H 219.318 0.818866 -1.8739 0
M  V30 2396 H 217.473 3.29696 -2.03419 0
M  V30 2397 H 217.887 3.08997 -4.23817 0
M  V30 2398 H 219.361 4.47387 -3.2334 0
M  V30 2399 H 219.838 4.09824 -1.57927 0
M  V30 2400 H 220.444 3.09495 -2.91706 0
M  V30 2401 N 218.759 1.29093 0.90403 0
M  V30 2402 C 219.669 1.15727 2.0407 0
M  V30 2403 C 220.685 0.0815308 1.73809 0
M  V30 2404 O 221.861 0.292749 1.99261 0
M  V30 2405 C 218.926 0.830424 3.36608 0
M  V30 2406 C 217.987 1.98955 3.80415 0
M  V30 2407 C 217.22 1.6782 5.06628 0
M  V30 2408 O 217.443 0.597105 5.67266 0
M  V30 2409 O 216.377 2.52486 5.46383 0
M  V30 2410 H 220.203 2.11171 2.18267 0
M  V30 2411 H 217.788 1.08504 1.027 0
M  V30 2412 H 219.67 0.662521 4.16159 0
M  V30 2413 H 218.345 -0.0942678 3.23563 0
M  V30 2414 H 217.252 2.21267 3.01648 0
M  V30 2415 H 218.585 2.89529 3.98037 0
M  V30 2416 N 220.237 -1.11381 1.11499 0
M  V30 2417 C 221.648 -1.6465 0.880191 0
M  V30 2418 C 221.999 -1.87199 -0.587434 0
M  V30 2419 O 221.124 -1.60667 -1.44966 0
M  V30 2420 C 221.719 -2.99105 1.59128 0
M  V30 2421 C 220.278 -3.49279 1.40289 0
M  V30 2422 C 219.425 -2.24077 1.63354 0
M  V30 2423 H 222.376 -0.950123 1.27116 0
M  V30 2424 H 222.397 -3.66107 1.03664 0
M  V30 2425 H 221.909 -2.82661 2.65941 0
M  V30 2426 H 220.01 -3.70887 0.356888 0
M  V30 2427 H 220.123 -4.2803 2.15238 0
M  V30 2428 H 218.487 -2.31733 1.05698 0
M  V30 2429 H 219.27 -2.10175 2.71443 0
M  V30 2430 N 221.715 -0.905404 -1.28997 0
M  V30 2431 C 222.943 -0.549846 -1.9946 0
M  V30 2432 C 223.358 0.866834 -1.67724 0
M  V30 2433 O 222.715 1.57298 -0.925404 0
M  V30 2434 C 222.766 -0.739387 -3.53858 0
M  V30 2435 O 222.487 -2.10031 -3.84472 0
M  V30 2436 C 223.988 -0.389541 -4.41585 0
M  V30 2437 H 221.208 -0.210429 -0.637151 0
M  V30 2438 H 223.752 -1.21632 -1.64396 0
M  V30 2439 H 221.907 -0.120023 -3.87214 0
M  V30 2440 H 222.321 -2.13385 -4.79132 0
M  V30 2441 H 223.795 -0.572972 -5.49018 0
M  V30 2442 H 224.272 0.673756 -4.34001 0
M  V30 2443 H 224.878 -0.986089 -4.1371 0
M  V30 2444 N 223.193 1.4272 -0.668489 0
M  V30 2445 C 224.439 2.01923 -0.188419 0
M  V30 2446 C 224.772 1.52704 1.19979 0
M  V30 2447 O 224.047 0.726566 1.8042 0
M  V30 2448 C 224.33 3.59451 -0.216085 0
M  V30 2449 C 224.183 4.18864 -1.6393 0
M  V30 2450 C 225.502 4.37903 0.439179 0
M  V30 2451 H 222.621 0.733674 -0.0699412 0
M  V30 2452 H 225.263 1.69822 -0.852076 0
M  V30 2453 H 223.413 3.86929 0.349012 0
M  V30 2454 H 225.085 4.02362 -2.25616 0
M  V30 2455 H 223.328 3.74933 -2.18193 0
M  V30 2456 H 223.999 5.27987 -1.61039 0
M  V30 2457 H 226.475 4.16079 -0.0417878 0
M  V30 2458 H 225.351 5.47519 0.389157 0
M  V30 2459 H 225.612 4.15303 1.51577 0
M  V30 2460 N 224.671 0.411399 1.52136 0
M  V30 2461 C 225.948 -0.222308 1.94333 0
M  V30 2462 C 226.328 -1.6242 1.34844 0
M  V30 2463 O 225.676 -2.22384 0.525145 0
M  V30 2464 C 225.886 -0.226345 3.48265 0
M  V30 2465 C 227.234 -0.444592 4.22266 0
M  V30 2466 O 228.258 -0.305602 3.54887 0
M  V30 2467 O 227.117 -0.718749 5.41753 0
M  V30 2468 H 224.211 -0.143907 0.814383 0
M  V30 2469 H 226.757 0.467506 1.63133 0
M  V30 2470 H 225.529 0.75475 3.83952 0
M  V30 2471 H 225.152 -0.960163 3.85832 0
M  V30 2472 N 226.149 -1.5696 0.141893 0
M  V30 2473 C 227.374 -2.00754 -0.520838 0
M  V30 2474 C 227.799 -1.0213 -1.57959 0
M  V30 2475 O 227.157 0.00371324 -1.813 0
M  V30 2476 C 227.205 -3.43318 -1.10294 0
M  V30 2477 O 226.309 -3.47679 -2.21795 0
M  V30 2478 H 225.65 -0.651564 -0.127908 0
M  V30 2479 H 228.18 -2.03221 0.23712 0
M  V30 2480 H 228.19 -3.82012 -1.43287 0
M  V30 2481 H 226.865 -4.14608 -0.327574 0
M  V30 2482 H 225.442 -3.20824 -1.9007 0
M  V30 2483 N 227.627 0.131896 -1.57047 0
M  V30 2484 C 228.873 0.843179 -1.84441 0
M  V30 2485 C 229.206 1.80129 -0.725749 0
M  V30 2486 O 228.481 1.92624 0.269469 0
M  V30 2487 C 228.764 1.60442 -3.22382 0
M  V30 2488 C 228.617 0.666782 -4.4483 0
M  V30 2489 C 229.936 2.56354 -3.5773 0
M  V30 2490 H 227.055 0.305081 -0.670891 0
M  V30 2491 H 229.697 0.107839 -1.89694 0
M  V30 2492 H 227.847 2.23128 -3.18035 0
M  V30 2493 H 229.519 0.0497646 -4.61273 0
M  V30 2494 H 227.762 -0.022609 -4.33794 0
M  V30 2495 H 228.433 1.23579 -5.37989 0
M  V30 2496 H 230.909 2.0378 -3.62785 0
M  V30 2497 H 229.785 3.06657 -4.5525 0
M  V30 2498 H 230.046 3.38419 -2.84473 0
M  V30 2499 N 229.106 1.52395 0.401703 0
M  V30 2500 C 230.352 1.67065 1.14966 0
M  V30 2501 C 230.685 0.403052 1.89971 0
M  V30 2502 O 229.96 -0.598774 1.85054 0
M  V30 2503 C 230.243 2.8975 2.13815 0
M  V30 2504 C 230.096 4.26578 1.42658 0
M  V30 2505 C 231.415 3.07965 3.14397 0
M  V30 2506 H 228.534 0.607968 0.416587 0
M  V30 2507 H 231.176 1.84965 0.434511 0
M  V30 2508 H 229.326 2.74619 2.74803 0
M  V30 2509 H 230.998 4.53451 0.847329 0
M  V30 2510 H 229.241 4.27639 0.72849 0
M  V30 2511 H 229.912 5.08483 2.14823 0
M  V30 2512 H 232.388 3.22043 2.63491 0
M  V30 2513 H 231.264 3.95308 3.80819 0
M  V30 2514 H 231.525 2.21611 3.82545 0
M  V30 2515 N 230.584 -0.659388 1.43143 0
M  V30 2516 C 231.812 -1.44723 1.47861 0
M  V30 2517 C 232.227 -1.88563 0.0945886 0
M  V30 2518 O 231.584 -1.59108 -0.893915 0
M  V30 2519 C 231.635 -2.68627 2.41913 0
M  V30 2520 O 231.356 -2.26623 3.74932 0
M  V30 2521 C 232.857 -3.62045 2.55809 0
M  V30 2522 H 230.077 -0.444801 0.502387 0
M  V30 2523 H 232.621 -0.808916 1.87821 0
M  V30 2524 H 230.776 -3.28613 2.05164 0
M  V30 2525 H 231.19 -3.06745 4.2545 0
M  V30 2526 H 232.664 -4.45666 3.25708 0
M  V30 2527 H 233.141 -4.08981 1.60099 0
M  V30 2528 H 233.747 -3.07944 2.93344 0
M  V30 2529 N 232.062 -1.29571 -0.897171 0
M  V30 2530 C 233.473 -1.15964 -1.46319 0
M  V30 2531 C 233.824 0.244267 -1.94674 0
M  V30 2532 O 232.949 1.13998 -1.83939 0
M  V30 2533 C 233.544 -2.09906 -2.65942 0
M  V30 2534 C 232.103 -2.00314 -3.18671 0
M  V30 2535 C 231.25 -2.00687 -1.91363 0
M  V30 2536 H 234.201 -1.42019 -0.708268 0
M  V30 2537 H 234.222 -1.67276 -3.41759 0
M  V30 2538 H 233.734 -3.12075 -2.30718 0
M  V30 2539 H 231.835 -1.01242 -3.58582 0
M  V30 2540 H 231.948 -2.88102 -3.82798 0
M  V30 2541 H 230.312 -1.45319 -2.09175 0
M  V30 2542 H 231.095 -3.04566 -1.58413 0
M  V30 2543 N 233.54 1.10788 -1.12088 0
M  V30 2544 C 234.45 2.20599 -0.798338 0
M  V30 2545 C 235.466 1.72712 0.21135 0
M  V30 2546 O 236.642 2.01348 0.0458477 0
M  V30 2547 C 233.707 3.45771 -0.253674 0
M  V30 2548 C 232.768 4.08411 -1.32283 0
M  V30 2549 C 232.001 5.27608 -0.80406 0
M  V30 2550 O 232.224 5.69241 0.363478 0
M  V30 2551 O 231.158 5.8101 -1.57198 0
M  V30 2552 H 234.984 2.50614 -1.7154 0
M  V30 2553 H 232.569 1.19454 -0.897275 0
M  V30 2554 H 234.451 4.21376 0.0453691 0
M  V30 2555 H 233.126 3.1739 0.636005 0
M  V30 2556 H 232.033 3.34507 -1.67499 0
M  V30 2557 H 233.366 4.40986 -2.18614 0
M  V30 2558 N 235.018 0.912232 1.28515 0
M  V30 2559 C 235.981 0.404223 2.25607 0
M  V30 2560 C 236.981 -0.468602 1.53821 0
M  V30 2561 O 238.171 -0.271873 1.72065 0
M  V30 2562 C 235.303 -0.420653 3.38295 0
M  V30 2563 H 236.496 1.26188 2.7206 0
M  V30 2564 H 234.049 0.691495 1.40171 0
M  V30 2565 H 234.784 -1.29777 2.97201 0
M  V30 2566 H 234.569 0.204935 3.91564 0
M  V30 2567 H 236.059 -0.766971 4.10496 0
M  V30 2568 N 236.496 -1.42363 0.676048 0
M  V30 2569 C 237.743 -2.01522 0.19883 0
M  V30 2570 C 238.071 -1.53456 -1.19505 0
M  V30 2571 O 237.326 -0.727967 -1.81657 0
M  V30 2572 C 237.625 -3.56929 0.183431 0
M  V30 2573 C 237.291 -4.24431 1.52215 0
M  V30 2574 C 235.953 -4.42585 1.8887 0
M  V30 2575 C 238.305 -4.62459 2.40377 0
M  V30 2576 C 235.633 -4.96039 3.13309 0
M  V30 2577 C 237.985 -5.17294 3.64129 0
M  V30 2578 C 236.649 -5.33661 4.00951 0
M  V30 2579 H 235.919 -0.737419 0.0727571 0
M  V30 2580 H 238.566 -1.70531 0.871281 0
M  V30 2581 H 236.871 -3.87594 -0.572532 0
M  V30 2582 H 238.568 -4.00486 -0.203035 0
M  V30 2583 H 235.158 -4.10661 1.22701 0
M  V30 2584 H 239.342 -4.48105 2.13343 0
M  V30 2585 H 234.598 -5.06896 3.41857 0
M  V30 2586 H 238.772 -5.45704 4.32644 0
M  V30 2587 H 236.399 -5.74845 4.9745 0
M  V30 2588 N 237.974 -0.419461 -1.51915 0
M  V30 2589 C 239.199 0.154572 -2.06823 0
M  V30 2590 C 239.624 1.3722 -1.28656 0
M  V30 2591 O 238.982 1.78461 -0.319583 0
M  V30 2592 C 239.03 0.473172 -3.57482 0
M  V30 2593 O 238.134 1.56255 -3.81652 0
M  V30 2594 H 237.475 0.0096924 -0.663929 0
M  V30 2595 H 240.005 -0.595642 -1.95738 0
M  V30 2596 H 240.015 0.728825 -4.01438 0
M  V30 2597 H 238.69 -0.416873 -4.13805 0
M  V30 2598 H 237.267 1.29825 -3.49571 0
M  V30 2599 N 239.452 1.56882 -0.150215 0
M  V30 2600 C 240.362 2.20494 0.801222 0
M  V30 2601 C 241.378 1.19019 1.26927 0
M  V30 2602 O 242.554 1.51607 1.32579 0
M  V30 2603 C 239.619 2.81659 2.02161 0
M  V30 2604 C 238.68 3.9827 1.60249 0
M  V30 2605 C 237.913 4.56508 2.7647 0
M  V30 2606 O 238.136 4.13627 3.92771 0
M  V30 2607 O 237.07 5.46719 2.51757 0
M  V30 2608 H 240.896 3.02315 0.289717 0
M  V30 2609 H 238.481 1.49202 0.0769684 0
M  V30 2610 H 240.363 3.20522 2.73576 0
M  V30 2611 H 239.038 2.02849 2.52258 0
M  V30 2612 H 237.945 3.64117 0.858477 0
M  V30 2613 H 239.278 4.78609 1.14864 0
M  V30 2614 N 240.93 -0.123565 1.57115 0
M  V30 2615 C 242.155 -0.850398 1.89164 0
M  V30 2616 C 242.58 -1.7286 0.741688 0
M  V30 2617 O 241.938 -1.78665 -0.307958 0
M  V30 2618 C 241.986 -1.66353 3.19936 0
M  V30 2619 O 241.09 -2.77004 3.0552 0
M  V30 2620 H 240.431 -0.235454 0.620852 0
M  V30 2621 H 242.961 -0.107335 2.04318 0
M  V30 2622 H 242.971 -2.05372 3.52543 0
M  V30 2623 H 241.646 -1.01881 4.03228 0
M  V30 2624 H 240.223 -2.41221 2.84371 0
M  V30 2625 N 242.408 -1.52605 -0.393616 0
M  V30 2626 C 243.657 -1.66649 -1.13627 0
M  V30 2627 C 243.97 -0.410364 -1.91247 0
M  V30 2628 O 245.176 -0.430854 -2.68059 0
M  V30 2629 C 243.632 -2.9449 -2.06891 0
M  V30 2630 C 243.24 -4.27266 -1.34714 0
M  V30 2631 C 244.984 -3.17899 -2.81319 0
M  V30 2632 C 242.891 -5.46217 -2.26717 0
M  V30 2633 H 241.821 -0.62084 -0.427871 0
M  V30 2634 H 244.472 -1.791 -0.399428 0
M  V30 2635 H 242.854 -2.75774 -2.84191 0
M  V30 2636 H 244.028 -4.56518 -0.626714 0
M  V30 2637 H 242.343 -4.10081 -0.722643 0
M  V30 2638 H 244.94 -4.03949 -3.50328 0
M  V30 2639 H 245.283 -2.32777 -3.45139 0
M  V30 2640 H 245.816 -3.37159 -2.11113 0
M  V30 2641 H 242.555 -6.33733 -1.67521 0
M  V30 2642 H 242.075 -5.21283 -2.96689 0
M  V30 2643 H 243.754 -5.7991 -2.86903 0
M  V30 2644 N 243.887 0.651787 -1.4349 0
M  V30 2645 C 245.136 1.40754 -1.44469 0
M  V30 2646 C 245.449 1.95463 -0.0731845 0
M  V30 2647 O 246.655 2.71471 0.0395721 0
M  V30 2648 C 245.111 2.54735 -2.5424 0
M  V30 2649 C 244.719 2.06628 -3.97504 0
M  V30 2650 C 246.463 3.32092 -2.64414 0
M  V30 2651 C 244.37 3.17829 -4.98737 0
M  V30 2652 H 243.3 0.528862 -0.53742 0
M  V30 2653 H 245.951 0.703365 -1.69485 0
M  V30 2654 H 244.333 3.2763 -2.22428 0
M  V30 2655 H 245.507 1.40734 -4.38783 0
M  V30 2656 H 243.822 1.42146 -3.91387 0
M  V30 2657 H 246.419 4.14952 -3.37223 0
M  V30 2658 H 246.762 3.80217 -1.69532 0
M  V30 2659 H 247.295 2.66279 -2.95534 0
M  V30 2660 H 244.034 2.74671 -5.95177 0
M  V30 2661 H 243.554 3.82429 -4.62069 0
M  V30 2662 H 245.233 3.82937 -5.21505 0
M  V30 2663 N 245.365 1.30045 0.890287 0
M  V30 2664 C 246.593 1.21472 1.67487 0
M  V30 2665 C 247.008 -0.223241 1.87476 0
M  V30 2666 O 246.365 -1.14828 1.41847 0
M  V30 2667 C 246.416 1.93394 3.05419 0
M  V30 2668 O 246.137 3.31576 2.86337 0
M  V30 2669 C 247.638 1.91414 3.99844 0
M  V30 2670 H 244.858 0.420604 0.522813 0
M  V30 2671 H 247.402 1.7158 1.11268 0
M  V30 2672 H 245.557 1.47099 3.58386 0
M  V30 2673 H 245.971 3.67929 3.73802 0
M  V30 2674 H 247.445 2.46285 4.94012 0
M  V30 2675 H 247.922 0.891833 4.3005 0
M  V30 2676 H 248.528 2.37496 3.52811 0
M  V30 2677 N 246.843 -1.10192 1.12674 0
M  V30 2678 C 248.068 -1.86523 0.906853 0
M  V30 2679 C 248.493 -1.80221 -0.538711 0
M  V30 2680 O 247.851 -1.17396 -1.38158 0
M  V30 2681 C 247.899 -3.32758 1.3894 0
M  V30 2682 O 247.003 -4.08449 0.5695 0
M  V30 2683 H 246.344 -0.578678 0.325619 0
M  V30 2684 H 248.874 -1.39203 1.49946 0
M  V30 2685 H 248.884 -3.83608 1.38958 0
M  V30 2686 H 247.559 -3.36661 2.44197 0
M  V30 2687 H 246.136 -3.67427 0.636528 0
M  V30 2688 N 248.321 -0.919034 -1.28029 0
M  V30 2689 C 249.549 -0.570971 -1.98866 0
M  V30 2690 C 249.964 0.848996 -1.68634 0
M  V30 2691 O 249.321 1.56307 -0.942036 0
M  V30 2692 C 249.372 -0.776876 -3.53054 0
M  V30 2693 O 249.093 -2.14097 -3.82222 0
M  V30 2694 C 250.594 -0.436356 -4.41147 0
M  V30 2695 H 247.814 -0.217175 -0.634883 0
M  V30 2696 H 250.358 -1.23368 -1.63097 0
M  V30 2697 H 248.513 -0.161085 -3.87065 0
M  V30 2698 H 248.927 -2.18455 -4.76841 0
M  V30 2699 H 250.401 -0.63117 -5.4838 0
M  V30 2700 H 250.878 0.627686 -4.34692 0
M  V30 2701 H 251.484 -1.02991 -4.12641 0
M  V30 2702 N 249.799 1.42003 -0.683588 0
M  V30 2703 C 251.21 1.84501 -0.285736 0
M  V30 2704 C 251.561 1.57213 1.17382 0
M  V30 2705 O 250.686 1.03642 1.89966 0
M  V30 2706 C 251.281 3.34912 -0.511821 0
M  V30 2707 C 249.84 3.76025 -0.168005 0
M  V30 2708 C 248.987 2.6551 -0.799983 0
M  V30 2709 H 251.938 1.31724 -0.885119 0
M  V30 2710 H 251.959 3.79784 0.233292 0
M  V30 2711 H 251.471 3.54741 -1.57418 0
M  V30 2712 H 249.572 3.61801 0.890567 0
M  V30 2713 H 249.685 4.75141 -0.614661 0
M  V30 2714 H 248.049 2.53654 -0.230568 0
M  V30 2715 H 248.832 2.8816 -1.86597 0
M  V30 2716 N 251.277 0.427512 1.51691 0
M  V30 2717 C 252.187 -0.39527 2.31246 0
M  V30 2718 C 253.203 -1.03674 1.39742 0
M  V30 2719 O 254.379 -1.03425 1.72816 0
M  V30 2720 C 251.444 -1.48706 3.13189 0
M  V30 2721 C 250.505 -0.866743 4.20459 0
M  V30 2722 C 249.738 -1.90651 4.98486 0
M  V30 2723 O 249.961 -3.12733 4.77026 0
M  V30 2724 O 248.895 -1.5025 5.82845 0
M  V30 2725 H 252.721 0.253918 3.02637 0
M  V30 2726 H 250.306 0.190274 1.48183 0
M  V30 2727 H 252.188 -2.12047 3.64162 0
M  V30 2728 H 250.863 -2.12051 2.44573 0
M  V30 2729 H 249.77 -0.195544 3.73589 0
M  V30 2730 H 251.103 -0.276934 4.9142 0
M  V30 2731 N 252.755 -1.56801 0.158532 0
M  V30 2732 C 253.983 -2.00859 -0.496303 0
M  V30 2733 C 254.398 -1.03871 -1.57659 0
M  V30 2734 O 253.755 -0.0375165 -1.82461 0
M  V30 2735 C 253.806 -3.4479 -1.08638 0
M  V30 2736 O 253.527 -4.38072 -0.0492322 0
M  V30 2737 C 255.028 -4.04185 -1.8207 0
M  V30 2738 H 252.248 -0.65864 -0.128199 0
M  V30 2739 H 254.792 -2.02885 0.256506 0
M  V30 2740 H 252.947 -3.43579 -1.78975 0
M  V30 2741 H 253.361 -5.2227 -0.483102 0
M  V30 2742 H 254.835 -5.06857 -2.18633 0
M  V30 2743 H 255.312 -3.45549 -2.71095 0
M  V30 2744 H 255.918 -4.0906 -1.16405 0
M  V30 2745 N 254.233 0.115231 -1.57178 0
M  V30 2746 C 255.461 0.836437 -1.89239 0
M  V30 2747 C 255.876 1.73256 -0.750175 0
M  V30 2748 O 255.233 1.80357 0.278832 0
M  V30 2749 C 255.284 1.66671 -3.20785 0
M  V30 2750 O 255.005 0.806652 -4.3061 0
M  V30 2751 C 256.506 2.49274 -3.66575 0
M  V30 2752 H 253.726 0.240253 -0.626514 0
M  V30 2753 H 256.27 0.0984932 -2.04263 0
M  V30 2754 H 254.425 2.35737 -3.0742 0
M  V30 2755 H 254.839 1.37969 -5.06028 0
M  V30 2756 H 256.313 3.03055 -4.6137 0
M  V30 2757 H 256.79 3.26807 -2.93417 0
M  V30 2758 H 257.396 1.85443 -3.82741 0
M  V30 2759 N 255.711 1.52812 0.385517 0
M  V30 2760 C 256.939 1.71907 1.15133 0
M  V30 2761 C 257.354 0.439004 1.83625 0
M  V30 2762 O 256.711 -0.586765 1.7281 0
M  V30 2763 C 256.762 2.87099 2.19673 0
M  V30 2764 O 256.483 4.10151 1.53973 0
M  V30 2765 C 257.984 3.17902 3.08955 0
M  V30 2766 H 255.204 0.575479 0.345057 0
M  V30 2767 H 257.748 1.99476 0.45052 0
M  V30 2768 H 255.903 2.61982 2.85384 0
M  V30 2769 H 256.317 4.74514 2.23465 0
M  V30 2770 H 257.791 4.01959 3.7833 0
M  V30 2771 H 258.268 2.3243 3.72657 0
M  V30 2772 H 258.874 3.44871 2.48885 0
M  V30 2773 N 257.189 -0.644168 1.43834 0
M  V30 2774 C 258.435 -1.40603 1.46146 0
M  V30 2775 C 258.768 -1.93997 0.0887717 0
M  V30 2776 O 258.043 -1.72854 -0.891724 0
M  V30 2777 C 258.326 -2.58086 2.51124 0
M  V30 2778 C 258.179 -2.10126 3.97702 0
M  V30 2779 C 259.498 -3.60291 2.52742 0
M  V30 2780 H 256.617 -0.509905 0.532134 0
M  V30 2781 H 259.259 -0.729502 1.75437 0
M  V30 2782 H 257.409 -3.15801 2.26278 0
M  V30 2783 H 259.081 -1.57342 4.33637 0
M  V30 2784 H 257.324 -1.41419 4.10101 0
M  V30 2785 H 257.995 -2.94649 4.66783 0
M  V30 2786 H 260.471 -3.12352 2.7491 0
M  V30 2787 H 259.347 -4.40032 3.28121 0
M  V30 2788 H 259.608 -4.1349 1.56455 0
M  V30 2789 N 258.668 -1.30515 -0.883378 0
M  V30 2790 C 259.631 -1.1701 -1.97082 0
M  V30 2791 C 260.631 -0.10089 -1.60483 0
M  V30 2792 O 261.821 -0.349127 -1.70666 0
M  V30 2793 C 258.953 -0.793045 -3.31547 0
M  V30 2794 H 260.146 -2.13622 -2.10489 0
M  V30 2795 H 257.699 -1.13935 -1.06998 0
M  V30 2796 H 258.434 0.172499 -3.23841 0
M  V30 2797 H 258.219 -1.56576 -3.5948 0
M  V30 2798 H 259.709 -0.722073 -4.1131 0
M  V30 2799 N 260.146 1.09593 -1.13257 0
M  V30 2800 C 261.392 1.82003 -0.89458 0
M  V30 2801 C 261.725 1.85402 0.577906 0
M  V30 2802 O 261 1.32099 1.42759 0
M  V30 2803 C 261.283 3.28237 -1.48096 0
M  V30 2804 C 261.136 3.3312 -3.02244 0
M  V30 2805 C 262.455 4.24871 -1.14774 0
M  V30 2806 H 259.574 0.66077 -0.326424 0
M  V30 2807 H 262.216 1.28389 -1.40058 0
M  V30 2808 H 260.366 3.74024 -1.05062 0
M  V30 2809 H 262.038 2.95748 -3.54021 0
M  V30 2810 H 260.281 2.72756 -3.37323 0
M  V30 2811 H 260.952 4.3613 -3.38371 0
M  V30 2812 H 263.428 3.87361 -1.51957 0
M  V30 2813 H 262.304 5.25532 -1.58452 0
M  V30 2814 H 262.565 4.42058 -0.0611849 0
M  V30 2815 N 261.624 0.925811 1.2754 0
M  V30 2816 C 262.852 0.581509 1.9856 0
M  V30 2817 C 263.267 -0.840041 1.69082 0
M  V30 2818 O 262.624 -1.55805 0.950312 0
M  V30 2819 C 262.675 0.795589 3.52637 0
M  V30 2820 O 262.396 2.16121 3.81082 0
M  V30 2821 C 263.897 0.459744 4.4091 0
M  V30 2822 H 261.117 0.220538 0.633722 0
M  V30 2823 H 263.661 1.24232 1.6244 0
M  V30 2824 H 261.816 0.18161 3.86974 0
M  V30 2825 H 262.23 2.2098 4.75676 0
M  V30 2826 H 263.704 0.660244 5.48037 0
M  V30 2827 H 264.181 -0.604625 4.35018 0
M  V30 2828 H 264.787 1.05178 4.12089 0
M  V30 2829 N 263.102 -1.41638 0.69111 0
M  V30 2830 C 264.513 -1.84346 0.295517 0
M  V30 2831 C 264.864 -1.57833 -1.16547 0
M  V30 2832 O 263.989 -1.04648 -1.89414 0
M  V30 2833 C 264.584 -3.34636 0.529575 0
M  V30 2834 C 263.143 -3.7593 0.187944 0
M  V30 2835 C 262.29 -2.65082 0.814052 0
M  V30 2836 H 265.241 -1.31253 0.892092 0
M  V30 2837 H 265.262 -3.79903 -0.213148 0
M  V30 2838 H 264.774 -3.53901 1.59297 0
M  V30 2839 H 262.875 -3.62268 -0.871367 0
M  V30 2840 H 262.988 -4.74808 0.63985 0
M  V30 2841 H 261.352 -2.53528 0.244017 0
M  V30 2842 H 262.135 -2.87167 1.88123 0
M  V30 2843 N 264.58 -0.43555 -1.51462 0
M  V30 2844 C 265.991 0.0279871 -1.86679 0
M  V30 2845 C 266.342 1.42104 -1.35281 0
M  V30 2846 O 265.467 2.04667 -0.702878 0
M  V30 2847 C 266.062 0.0575626 -3.38751 0
M  V30 2848 C 264.621 0.465507 -3.7351 0
M  V30 2849 C 263.768 -0.342996 -2.75171 0
M  V30 2850 H 266.719 -0.651473 -1.44712 0
M  V30 2851 H 266.74 0.867421 -3.70481 0
M  V30 2852 H 266.252 -0.956448 -3.7613 0
M  V30 2853 H 264.353 1.48519 -3.41721 0
M  V30 2854 H 264.466 0.191546 -4.78717 0
M  V30 2855 H 262.83 0.198442 -2.53926 0
M  V30 2856 H 263.613 -1.35585 -3.15391 0
M  V30 2857 N 266.058 1.56714 -0.166846 0
M  V30 2858 C 267.286 2.0112 0.485644 0
M  V30 2859 C 267.701 1.04705 1.57106 0
M  V30 2860 O 267.058 0.0471923 1.82439 0
M  V30 2861 C 267.109 3.45361 1.06808 0
M  V30 2862 O 266.83 4.38092 0.0259995 0
M  V30 2863 C 268.331 4.05145 1.79924 0
M  V30 2864 H 265.551 0.65931 0.124704 0
M  V30 2865 H 268.095 2.02746 -0.267262 0
M  V30 2866 H 266.25 3.44524 1.7715 0
M  V30 2867 H 266.664 5.22519 0.455398 0
M  V30 2868 H 268.138 5.08009 2.15942 0
M  V30 2869 H 268.615 3.46982 2.69258 0
M  V30 2870 H 269.221 4.09672 1.14234 0
M  V30 2871 N 267.536 -0.106894 1.57237 0
M  V30 2872 C 268.499 -1.11466 2.0027 0
M  V30 2873 C 269.499 -1.33623 0.894519 0
M  V30 2874 O 270.689 -1.29935 1.16028 0
M  V30 2875 C 267.821 -2.46646 2.35327 0
M  V30 2876 H 269.014 -0.744516 2.90512 0
M  V30 2877 H 266.567 -0.351576 1.52295 0
M  V30 2878 H 267.302 -2.88558 1.48003 0
M  V30 2879 H 267.087 -2.31915 3.16161 0
M  V30 2880 H 268.577 -3.19151 2.69318 0
M  V30 2881 O 269.053 -1.59537 -0.25105 0
M  V30 2882 H 269.744 -1.71804 -0.894607 0
M  V30 END ATOM
M  V30 BEGIN BOND
M  V30 END BOND
M  V30 END CTAB
M  END
$$$$
