drugbank_target|Q9RUZ0 Citrate lyase subunit beta-like protein (DB02637)
 OpenBabel12092120253D

  0  0  0     0  0            999 V3000
M  V30 BEGIN CTAB
M  V30 COUNTS 4223 4266 0 0 0
M  V30 BEGIN ATOM
M  V30 1 H -0.908 1.98254 -0.117106 0
M  V30 2 N 0 1.576 0 0
M  V30 3 C 0.933 2.03868 1.02534 0
M  V30 4 C 1.911 0.928543 1.3348 0
M  V30 5 O 3.095 1.19667 1.45644 0
M  V30 6 C 0.222 2.43627 2.35294 0
M  V30 7 C -0.732 3.65373 2.2001 0
M  V30 8 S 0.101 5.13292 1.52614 0
M  V30 9 C 1.257 5.56322 2.86805 0
M  V30 10 H 1.49 2.90518 0.631377 0
M  V30 11 H -0.977 1.52953 0.210867 0
M  V30 12 H 0.981 2.67203 3.11629 0
M  V30 13 H -0.358 1.57376 2.7183 0
M  V30 14 H -1.165 3.90944 3.18086 0
M  V30 15 H -1.563 3.418 1.51819 0
M  V30 16 H 0.729 5.58782 3.83104 0
M  V30 17 H 1.672 6.56266 2.65933 0
M  V30 18 H 2.08 4.83886 2.90714 0
M  V30 19 N 1.4781 -0.272755 1.55222 0
M  V30 20 C 2.4261 -1.35705 1.88909 0
M  V30 21 C 3.4201 -1.5112 0.765456 0
M  V30 22 O 4.6261 -1.52901 0.949802 0
M  V30 23 H 1.0011 -0.453868 0.59959 0
M  V30 24 H 2.9721 -1.04544 2.79487 0
M  V30 25 C 1.7211 -2.71049 2.17779 0
M  V30 26 H 1.0441 -2.59979 3.03728 0
M  V30 27 H 2.4841 -3.45858 2.45272 0
M  V30 28 C 0.9431 -3.22165 0.985473 0
M  V30 29 O 1.4731 -4.01096 0.220233 0
M  V30 30 N -0.3209 -2.7985 0.783108 0
M  V30 31 H -0.7739 -2.15775 1.40708 0
M  V30 32 H -0.8159 -3.14397 -0.0130392 0
M  V30 33 N 2.9562 -1.48159 -0.537278 0
M  V30 34 C 3.9192 -1.61665 -1.62472 0
M  V30 35 C 4.9192 -0.490395 -1.5314 0
M  V30 36 O 6.1092 -0.755998 -1.5694 0
M  V30 37 C 3.2412 -1.57997 -3.02076 0
M  V30 38 H 4.4342 -2.58621 -1.51839 0
M  V30 39 H 1.9872 -1.36647 -0.758771 0
M  V30 40 H 2.7222 -0.624913 -3.18222 0
M  V30 41 H 2.5072 -2.39755 -3.10258 0
M  V30 42 H 3.9972 -1.70627 -3.81151 0
M  V30 43 N 4.4343 0.785586 -1.36625 0
M  V30 44 C 5.8453 1.36101 -1.27803 0
M  V30 45 C 6.1963 1.96035 0.0804875 0
M  V30 46 O 5.3213 1.92834 0.982042 0
M  V30 47 C 5.9163 2.47442 -2.31426 0
M  V30 48 C 4.4753 3.00789 -2.26281 0
M  V30 49 C 3.6223 1.73896 -2.15999 0
M  V30 50 H 6.5733 0.586928 -1.47448 0
M  V30 51 H 6.5943 3.2656 -1.95291 0
M  V30 52 H 6.1063 2.03791 -3.30289 0
M  V30 53 H 4.2073 3.48851 -1.30896 0
M  V30 54 H 4.3203 3.57343 -3.19128 0
M  V30 55 H 2.6843 1.9628 -1.62316 0
M  V30 56 H 3.4673 1.32368 -3.16755 0
M  V30 57 N 5.9124 1.20967 1.01018 0
M  V30 58 C 7.3234 1.02319 1.56165 0
M  V30 59 C 7.6744 -0.418546 1.91684 0
M  V30 60 O 6.7994 -1.30096 1.72928 0
M  V30 61 C 7.3944 1.85109 2.8376 0
M  V30 62 C 5.9534 1.70809 3.35412 0
M  V30 63 C 5.1004 1.82643 2.08655 0
M  V30 64 H 8.0514 1.35065 0.833255 0
M  V30 65 H 8.0724 1.35827 3.55431 0
M  V30 66 H 7.5844 2.90035 2.57878 0
M  V30 67 H 5.6854 0.685464 3.66241 0
M  V30 68 H 5.7984 2.52467 4.07182 0
M  V30 69 H 4.1624 1.25896 2.21409 0
M  V30 70 H 4.9454 2.89066 1.85191 0
M  V30 71 N 7.3905 -1.2043 1.01659 0
M  V30 72 C 8.3535 -2.21433 0.591616 0
M  V30 73 C 9.3535 -1.57203 -0.338226 0
M  V30 74 O 10.5435 -1.73737 -0.126918 0
M  V30 75 C 7.6755 -3.40628 -0.136058 0
M  V30 76 H 8.8685 -2.60545 1.48514 0
M  V30 77 H 6.4215 -1.33893 0.806379 0
M  V30 78 H 7.1565 -3.07019 -1.04449 0
M  V30 79 H 6.9415 -3.88475 0.531917 0
M  V30 80 H 8.4315 -4.15475 -0.420735 0
M  V30 81 N 8.8686 -0.792821 -1.36206 0
M  V30 82 C 9.7986 -0.207853 -2.32573 0
M  V30 83 C 10.7796 0.659055 -1.56813 0
M  V30 84 O 11.9646 0.592176 -1.84951 0
M  V30 85 C 9.0946 0.655449 -3.41059 0
M  V30 86 C 8.0486 -0.111842 -4.27854 0
M  V30 87 C 7.3746 0.872274 -5.27537 0
M  V30 88 C 8.6746 -1.30299 -5.05786 0
M  V30 89 H 10.3686 -1.01294 -2.81744 0
M  V30 90 H 7.9146 -0.48854 -1.3546 0
M  V30 91 H 9.8676 1.07464 -4.07467 0
M  V30 92 H 8.5916 1.49328 -2.90463 0
M  V30 93 H 7.2506 -0.512053 -3.63006 0
M  V30 94 H 6.8986 1.70523 -4.73214 0
M  V30 95 H 6.5986 0.363291 -5.86476 0
M  V30 96 H 8.1226 1.28996 -5.96818 0
M  V30 97 H 9.5366 -0.959379 -5.65216 0
M  V30 98 H 7.9336 -1.7455 -5.74154 0
M  V30 99 H 9.0036 -2.09663 -4.37229 0
M  V30 100 N 10.3467 1.47872 -0.545128 0
M  V30 101 C 11.2767 2.32661 0.197793 0
M  V30 102 C 12.2577 1.43041 0.920504 0
M  V30 103 O 13.4427 1.71912 0.90333 0
M  V30 104 C 10.5727 3.24569 1.23582 0
M  V30 105 C 9.5267 4.23333 0.630323 0
M  V30 106 C 8.8527 5.0448 1.77211 0
M  V30 107 C 10.1527 5.20704 -0.407974 0
M  V30 108 H 11.8467 2.95024 -0.510045 0
M  V30 109 H 9.3927 1.4187 -0.246731 0
M  V30 110 H 11.3457 3.8272 1.76362 0
M  V30 111 H 10.0697 2.60236 1.97344 0
M  V30 112 H 8.7287 3.6639 0.123922 0
M  V30 113 H 8.3767 4.36561 2.49847 0
M  V30 114 H 8.0767 5.71339 1.37281 0
M  V30 115 H 9.6007 5.65487 2.3034 0
M  V30 116 H 11.0147 5.7329 0.033305 0
M  V30 117 H 9.4117 5.95699 -0.725486 0
M  V30 118 H 10.4817 4.66917 -1.30828 0
M  V30 119 N 11.8248 0.280983 1.55075 0
M  V30 120 C 13.2408 -0.0729964 1.59433 0
M  V30 121 C 13.4408 -1.5411 1.29817 0
M  V30 122 O 12.4968 -2.29086 1.06187 0
M  V30 123 C 13.8098 0.306921 2.9913 0
M  V30 124 C 15.3578 0.254023 3.11968 0
M  V30 125 C 15.8328 0.608467 4.5394 0
M  V30 126 N 17.3238 0.560241 4.59799 0
M  V30 127 C 18.0588 0.80722 5.6769 0
M  V30 128 N 17.5548 1.11912 6.83701 0
M  V30 129 N 19.3478 0.735623 5.57266 0
M  V30 130 H 11.4988 1.238 1.7259 0
M  V30 131 H 13.7618 0.500547 0.805082 0
M  V30 132 H 13.4678 1.32816 3.25657 0
M  V30 133 H 13.3418 -0.349363 3.75579 0
M  V30 134 H 15.7288 -0.75794 2.852 0
M  V30 135 H 15.8098 0.944649 2.37718 0
M  V30 136 H 15.4538 1.61814 4.81434 0
M  V30 137 H 15.3838 -0.104013 5.26497 0
M  V30 138 H 17.8748 0.329288 3.76463 0
M  V30 139 H 18.1878 1.29409 7.61888 0
M  V30 140 H 16.5328 1.15695 6.85303 0
M  V30 141 H 19.7238 0.491752 4.6551 0
M  V30 142 H 19.8968 0.931482 6.4127 0
M  V30 143 N 13.3029 -1.57598 0.00835791 0
M  V30 144 C 14.5279 -1.95617 -0.689103 0
M  V30 145 C 14.9529 -0.883753 -1.66046 0
M  V30 146 O 14.3109 0.157352 -1.80616 0
M  V30 147 C 14.3589 -3.32736 -1.38994 0
M  V30 148 O 13.4629 -3.27631 -2.50463 0
M  V30 149 H 12.8039 -0.638379 -0.182668 0
M  V30 150 H 15.3339 -2.045 0.064036 0
M  V30 151 H 15.3439 -3.68494 -1.75147 0
M  V30 152 H 14.0189 -4.1034 -0.677778 0
M  V30 153 H 12.5959 -3.03561 -2.16576 0
M  V30 154 N 14.781 0.264519 -1.55364 0
M  V30 155 C 16.027 0.99646 -1.76631 0
M  V30 156 C 16.36 1.85632 -0.570478 0
M  V30 157 O 15.635 1.89647 0.43175 0
M  V30 158 C 15.918 1.87187 -3.07625 0
M  V30 159 C 15.771 1.04138 -4.37579 0
M  V30 160 C 17.09 2.85749 -3.34717 0
M  V30 161 H 14.209 0.360841 -0.642622 0
M  V30 162 H 16.851 0.268218 -1.88097 0
M  V30 163 H 15.001 2.49279 -2.9798 0
M  V30 164 H 16.673 0.440517 -4.59192 0
M  V30 165 H 14.916 0.345115 -4.32425 0
M  V30 166 H 15.587 1.68729 -5.2558 0
M  V30 167 H 18.063 2.33793 -3.4421 0
M  V30 168 H 16.939 3.44136 -4.27623 0
M  V30 169 H 17.2 3.61311 -2.54768 0
M  V30 170 N 16.2591 1.48442 0.529413 0
M  V30 171 C 17.1891 1.65902 1.64313 0
M  V30 172 C 18.1701 0.507897 1.6234 0
M  V30 173 O 19.3551 0.740503 1.79528 0
M  V30 174 C 16.4851 1.69911 3.02898 0
M  V30 175 C 15.4391 2.8453 3.19729 0
M  V30 176 C 14.7651 2.73629 4.59381 0
M  V30 177 C 16.0651 4.25821 3.02447 0
M  V30 178 H 17.7591 2.5914 1.49955 0
M  V30 179 H 15.3051 1.24709 0.719982 0
M  V30 180 H 17.2581 1.80715 3.80684 0
M  V30 181 H 15.9821 0.732524 3.18279 0
M  V30 182 H 14.6411 2.73283 2.44361 0
M  V30 183 H 14.2891 1.74938 4.71599 0
M  V30 184 H 13.9891 3.50541 4.71588 0
M  V30 185 H 15.5131 2.86401 5.39265 0
M  V30 186 H 16.9271 4.37898 3.70024 0
M  V30 187 H 15.3241 5.03735 3.26146 0
M  V30 188 H 16.3941 4.42244 1.98867 0
M  V30 189 N 17.7372 -0.778329 1.37039 0
M  V30 190 C 18.9842 -1.53665 1.31884 0
M  V30 191 C 19.3122 -1.9425 -0.0986303 0
M  V30 192 O 18.5672 -1.63832 -1.07041 0
M  V30 193 C 18.8662 -2.81845 2.19768 0
M  V30 194 C 18.5322 -2.60345 3.68146 0
M  V30 195 C 17.1942 -2.5419 4.08584 0
M  V30 196 C 19.5462 -2.40923 4.62175 0
M  V30 197 C 16.8742 -2.26594 5.41177 0
M  V30 198 C 19.2262 -2.14852 5.94997 0
M  V30 199 C 17.8902 -2.07137 6.34547 0
M  V30 200 H 17.1602 -0.562299 0.482598 0
M  V30 201 H 19.8072 -0.897069 1.69189 0
M  V30 202 H 18.1122 -3.50328 1.75436 0
M  V30 203 H 19.8092 -3.39692 2.13097 0
M  V30 204 H 16.3992 -2.65996 3.36072 0
M  V30 205 H 20.5832 -2.44673 4.31797 0
M  V30 206 H 15.8392 -2.19111 5.70789 0
M  V30 207 H 20.0132 -1.98822 6.67415 0
M  V30 208 H 17.6402 -1.85518 7.37216 0
M  V30 209 N 19.2153 -1.21501 -1.00376 0
M  V30 210 C 20.1783 -0.976927 -2.07337 0
M  V30 211 C 21.1783 0.0525322 -1.60714 0
M  V30 212 O 22.3683 -0.184869 -1.73216 0
M  V30 213 C 19.5003 -0.473423 -3.37597 0
M  V30 214 H 20.6933 -1.92587 -2.29892 0
M  V30 215 H 18.2463 -1.03217 -1.17371 0
M  V30 216 H 18.9813 0.480379 -3.20722 0
M  V30 217 H 18.7663 -1.216 -3.72768 0
M  V30 218 H 20.2563 -0.32675 -4.1632 0
M  V30 219 N 20.6934 1.19889 -1.02296 0
M  V30 220 C 22.1044 1.71124 -0.746568 0
M  V30 221 C 22.4554 1.81939 0.734335 0
M  V30 222 O 21.5804 1.48639 1.57275 0
M  V30 223 C 22.1754 3.10804 -1.34857 0
M  V30 224 C 20.7344 3.59323 -1.1209 0
M  V30 225 C 19.8814 2.3635 -1.45031 0
M  V30 226 H 22.8324 1.04813 -1.19163 0
M  V30 227 H 22.8534 3.73186 -0.742437 0
M  V30 228 H 22.3654 3.029 -2.42638 0
M  V30 229 H 20.4664 3.7255 -0.0610337 0
M  V30 230 H 20.5794 4.4378 -1.80544 0
M  V30 231 H 18.9434 2.39399 -0.869487 0
M  V30 232 H 19.7264 2.31081 -2.53883 0
M  V30 233 N 22.1715 0.800033 1.35784 0
M  V30 234 C 23.4195 0.376597 1.9856 0
M  V30 235 C 23.7405 -1.05812 1.63795 0
M  V30 236 O 23.0105 -1.73103 0.917171 0
M  V30 237 H 21.5905 0.136261 0.734467 0
M  V30 238 H 24.2525 1.02442 1.65806 0
M  V30 239 H 23.3485 0.477002 3.08433 0
M  V30 240 N 23.6496 -1.47581 0.552962 0
M  V30 241 C 24.5976 -2.31648 -0.21023 0
M  V30 242 C 25.5916 -1.42663 -0.913432 0
M  V30 243 O 26.7976 -1.5945 -0.835201 0
M  V30 244 H 23.1726 -0.746989 -0.0866676 0
M  V30 245 H 25.1436 -2.93869 0.518051 0
M  V30 246 C 23.8926 -3.25226 -1.22976 0
M  V30 247 H 23.2156 -3.93658 -0.698077 0
M  V30 248 H 24.6556 -3.86889 -1.73473 0
M  V30 249 C 23.1146 -2.48448 -2.27542 0
M  V30 250 O 23.6446 -2.22585 -3.34393 0
M  V30 251 N 21.8506 -2.09532 -2.01357 0
M  V30 252 H 21.3976 -2.30765 -1.14478 0
M  V30 253 H 21.3556 -1.58476 -2.71538 0
M  V30 254 N 25.1277 -0.289203 -1.54924 0
M  V30 255 C 26.5437 0.0645403 -1.59469 0
M  V30 256 C 26.7437 1.53419 -1.30632 0
M  V30 257 O 25.7997 2.2852 -1.074 0
M  V30 258 C 27.1127 -0.32278 -2.98963 0
M  V30 259 C 28.6607 -0.270564 -3.11828 0
M  V30 260 C 29.1357 -0.632532 -4.53611 0
M  V30 261 N 30.6267 -0.584617 -4.59496 0
M  V30 262 C 31.3617 -0.837314 -5.67254 0
M  V30 263 N 30.8577 -1.15536 -6.83098 0
M  V30 264 N 32.6507 -0.765166 -5.56868 0
M  V30 265 H 24.8017 -1.24714 -1.71931 0
M  V30 266 H 27.0647 -0.504809 -0.802416 0
M  V30 267 H 26.7707 -1.34541 -3.24948 0
M  V30 268 H 26.6447 0.32944 -3.75759 0
M  V30 269 H 29.0317 0.742805 -2.85598 0
M  V30 270 H 29.1127 -0.957242 -2.37214 0
M  V30 271 H 28.7567 -1.64365 -4.80569 0
M  V30 272 H 28.6867 0.07609 -5.26545 0
M  V30 273 H 31.1777 -0.349248 -3.76283 0
M  V30 274 H 31.4907 -1.33447 -7.61191 0
M  V30 275 H 29.8357 -1.19328 -6.84679 0
M  V30 276 H 33.0267 -0.516432 -4.65243 0
M  V30 277 H 33.1997 -0.965477 -6.40767 0
M  V30 278 N 26.6058 1.57591 -0.0167156 0
M  V30 279 C 27.5688 2.08393 0.954204 0
M  V30 280 C 28.5688 0.996531 1.26198 0
M  V30 281 O 29.7588 1.25858 1.20438 0
M  V30 282 C 26.8908 2.5394 2.27436 0
M  V30 283 H 28.0838 2.95455 0.514451 0
M  V30 284 H 25.6368 1.54582 0.231089 0
M  V30 285 H 26.3718 1.70171 2.76066 0
M  V30 286 H 26.1568 3.33371 2.06412 0
M  V30 287 H 27.6468 2.93512 2.97053 0
M  V30 288 N 28.0839 -0.256276 1.55502 0
M  V30 289 C 29.3609 -1.00789 1.67633 0
M  V30 290 C 29.7409 -2.03706 0.553826 0
M  V30 291 O 29.0889 -2.24145 -0.443969 0
M  V30 292 C 29.2989 -1.64968 3.07549 0
M  V30 293 C 30.6469 -2.15505 3.65845 0
M  V30 294 O 31.6709 -1.74925 3.1029 0
M  V30 295 O 30.5299 -2.89986 4.63217 0
M  V30 296 H 27.6239 -0.468553 0.681459 0
M  V30 297 H 30.1699 -0.250806 1.67836 0
M  V30 298 H 28.9419 -0.904785 3.80696 0
M  V30 299 H 28.5649 -2.47321 3.11317 0
M  V30 300 N 29.562 -1.4872 -0.521534 0
M  V30 301 C 30.492 -1.66771 -1.63431 0
M  V30 302 C 31.473 -0.516499 -1.62069 0
M  V30 303 O 32.658 -0.750013 -1.79132 0
M  V30 304 C 29.788 -1.71515 -3.01993 0
M  V30 305 C 28.742 -2.86222 -3.18216 0
M  V30 306 C 28.068 -2.76061 -4.57924 0
M  V30 307 C 29.368 -4.27419 -3.00184 0
M  V30 308 H 31.062 -2.59932 -1.48579 0
M  V30 309 H 28.608 -1.25089 -0.713358 0
M  V30 310 H 30.561 -1.82731 -3.7972 0
M  V30 311 H 29.285 -0.749393 -3.17886 0
M  V30 312 H 27.944 -2.74575 -2.42908 0
M  V30 313 H 27.592 -1.77437 -4.70665 0
M  V30 314 H 27.292 -3.53037 -4.69722 0
M  V30 315 H 28.816 -2.89256 -5.37739 0
M  V30 316 H 30.23 -4.39855 -3.67697 0
M  V30 317 H 28.627 -5.05458 -3.2347 0
M  V30 318 H 29.697 -4.43293 -1.96518 0
M  V30 319 N 31.0401 0.771051 -1.3745 0
M  V30 320 C 32.2891 1.52491 -1.3202 0
M  V30 321 C 32.6021 1.9538 0.0927347 0
M  V30 322 O 33.8081 2.70159 0.269503 0
M  V30 323 C 32.2641 2.75366 -2.31736 0
M  V30 324 C 31.8721 2.39573 -3.78562 0
M  V30 325 C 33.6161 3.53307 -2.35318 0
M  V30 326 C 31.5231 3.58954 -4.70007 0
M  V30 327 H 30.4531 0.572506 -0.490666 0
M  V30 328 H 33.1041 0.844474 -1.62914 0
M  V30 329 H 31.4861 3.45303 -1.93861 0
M  V30 330 H 32.6601 1.77415 -4.25277 0
M  V30 331 H 30.9751 1.74805 -3.77932 0
M  V30 332 H 33.5721 4.42039 -3.00842 0
M  V30 333 H 33.9151 3.93217 -1.36698 0
M  V30 334 H 34.4481 2.90367 -2.71904 0
M  V30 335 H 31.1871 3.24125 -5.69757 0
M  V30 336 H 30.7071 4.20214 -4.27996 0
M  V30 337 H 32.3861 4.25758 -4.87175 0
M  V30 338 N 32.5182 1.22032 0.997298 0
M  V30 339 C 33.4812 0.987909 2.06816 0
M  V30 340 C 34.4812 -0.0440084 1.6074 0
M  V30 341 O 35.6712 0.194053 1.73116 0
M  V30 342 C 32.8032 0.49132 3.37341 0
M  V30 343 H 33.9962 1.93803 2.28868 0
M  V30 344 H 31.5492 1.03838 1.16822 0
M  V30 345 H 32.2842 -0.463364 3.20973 0
M  V30 346 H 32.0692 1.23575 3.72118 0
M  V30 347 H 33.5592 0.348824 4.16141 0
M  V30 348 N 33.9963 -1.19345 1.0293 0
M  V30 349 C 34.9433 -2.2258 0.610464 0
M  V30 350 C 35.9133 -1.6179 -0.375946 0
M  V30 351 O 37.0983 -1.88844 -0.272511 0
M  V30 352 C 34.2383 -3.45085 -0.0321473 0
M  V30 353 C 33.3513 -4.20258 1.00035 0
M  V30 354 C 32.4863 -5.3019 0.32746 0
M  V30 355 C 31.5253 -5.97121 1.34584 0
M  V30 356 N 30.6623 -6.98615 0.698726 0
M  V30 357 H 35.5023 -2.57764 1.49538 0
M  V30 358 H 33.0393 -1.26644 0.748311 0
M  V30 359 H 34.9973 -4.15061 -0.421966 0
M  V30 360 H 33.6273 -3.10555 -0.88064 0
M  V30 361 H 32.6793 -3.49223 1.50823 0
M  V30 362 H 33.9913 -4.66175 1.77433 0
M  V30 363 H 33.1453 -6.06587 -0.11718 0
M  V30 364 H 31.8843 -4.85345 -0.478713 0
M  V30 365 H 30.8893 -5.19474 1.80074 0
M  V30 366 H 32.1143 -6.4405 2.15352 0
M  V30 367 H 30.0603 -6.55942 -0.0873471 0
M  V30 368 H 29.9773 -7.42724 1.41058 0
M  V30 369 H 31.2453 -7.79004 0.278102 0
M  V30 370 N 35.4744 -0.807222 -1.35358 0
M  V30 371 C 36.4044 -0.232509 -2.3234 0
M  V30 372 C 37.3854 0.642386 -1.57504 0
M  V30 373 O 38.5704 0.572526 -1.85569 0
M  V30 374 C 35.7004 0.619238 -3.41735 0
M  V30 375 C 34.6544 -0.157215 -4.27711 0
M  V30 376 C 33.9804 0.816273 -5.28433 0
M  V30 377 C 35.2804 -1.35656 -5.04376 0
M  V30 378 H 36.9744 -1.04276 -2.80654 0
M  V30 379 H 34.5204 -0.50288 -1.34934 0
M  V30 380 H 36.4734 1.03137 -4.08584 0
M  V30 381 H 35.1974 1.46239 -2.92031 0
M  V30 382 H 33.8564 -0.550525 -3.62443 0
M  V30 383 H 33.5044 1.65494 -4.74996 0
M  V30 384 H 33.2044 0.301067 -5.86828 0
M  V30 385 H 34.7284 1.22659 -5.98153 0
M  V30 386 H 36.1424 -1.01927 -5.64166 0
M  V30 387 H 34.5394 -1.8063 -5.7227 0
M  V30 388 H 35.6094 -2.14288 -4.34981 0
M  V30 389 N 36.9525 1.47285 -0.560781 0
M  V30 390 C 38.3635 1.86258 -0.128343 0
M  V30 391 C 38.7145 1.46699 1.30284 0
M  V30 392 O 37.8395 0.871698 1.98067 0
M  V30 393 C 38.4345 3.38044 -0.22614 0
M  V30 394 C 36.9935 3.76096 0.151283 0
M  V30 395 C 36.1405 2.71335 -0.572084 0
M  V30 396 H 39.0915 1.38752 -0.770297 0
M  V30 397 H 39.1125 3.76441 0.554322 0
M  V30 398 H 38.6245 3.66806 -1.26788 0
M  V30 399 H 36.7255 3.52951 1.19399 0
M  V30 400 H 36.8385 4.78641 -0.209765 0
M  V30 401 H 35.2025 2.54696 -0.0147653 0
M  V30 402 H 35.9855 3.02938 -1.61504 0
M  V30 403 N 38.4306 0.297415 1.54768 0
M  V30 404 C 39.8466 -0.0560823 1.59501 0
M  V30 405 C 40.0466 -1.52725 1.31444 0
M  V30 406 O 39.1026 -2.27947 1.08611 0
M  V30 407 C 40.4156 0.338631 2.98787 0
M  V30 408 C 41.9636 0.287097 3.11681 0
M  V30 409 C 42.4386 0.656579 4.53269 0
M  V30 410 N 43.9296 0.608977 4.59179 0
M  V30 411 C 44.6646 0.867385 5.66802 0
M  V30 412 N 44.1606 1.19157 6.82476 0
M  V30 413 N 45.9536 0.794687 5.56454 0
M  V30 414 H 38.1046 1.25624 1.71267 0
M  V30 415 H 40.3676 0.509057 0.799728 0
M  V30 416 H 40.0736 1.36263 3.2423 0
M  V30 417 H 39.9476 -0.309508 3.75928 0
M  V30 418 H 42.3346 -0.727649 2.85988 0
M  V30 419 H 42.4156 0.969809 2.36703 0
M  V30 420 H 42.0596 1.66912 4.7969 0
M  V30 421 H 41.9896 -0.0481649 5.26578 0
M  V30 422 H 44.4806 0.369198 3.76092 0
M  V30 423 H 44.7936 1.37482 7.60473 0
M  V30 424 H 43.1386 1.22958 6.84037 0
M  V30 425 H 46.3296 0.541098 4.64962 0
M  V30 426 H 46.5026 0.999445 6.40246 0
M  V30 427 N 39.9087 -1.5758 0.0250728 0
M  V30 428 C 41.1337 -1.96337 -0.668317 0
M  V30 429 C 41.5587 -0.901314 -1.651 0
M  V30 430 O 40.9167 0.138187 -1.80773 0
M  V30 431 C 40.9647 -3.34191 -1.35457 0
M  V30 432 O 40.0687 -3.30269 -2.46974 0
M  V30 433 H 39.4097 -0.640281 -0.175887 0
M  V30 434 H 41.9397 -2.0442 0.0857224 0
M  V30 435 H 41.9497 -3.70331 -1.71228 0
M  V30 436 H 40.6247 -4.11036 -0.634218 0
M  V30 437 H 39.2017 -3.05841 -2.13344 0
M  V30 438 N 41.3868 0.248026 -1.55636 0
M  V30 439 C 42.3498 1.29044 -1.89421 0
M  V30 440 C 43.3498 1.41134 -0.770581 0
M  V30 441 O 44.5398 1.39854 -1.03858 0
M  V30 442 C 41.6718 2.66831 -2.12165 0
M  V30 443 H 42.8648 1.00305 -2.82629 0
M  V30 444 H 40.4178 0.487265 -1.48511 0
M  V30 445 H 41.1528 3.00711 -1.21422 0
M  V30 446 H 40.9378 2.59438 -2.93997 0
M  V30 447 H 42.4278 3.42103 -2.3949 0
M  V30 448 N 42.8649 1.48995 0.513639 0
M  V30 449 C 44.2759 1.5119 1.09537 0
M  V30 450 C 44.6269 0.290906 1.94031 0
M  V30 451 O 43.7519 -0.60049 2.07902 0
M  V30 452 C 44.3469 2.73964 1.99322 0
M  V30 453 C 42.9059 2.78978 2.52682 0
M  V30 454 C 42.0529 2.44934 1.30009 0
M  V30 455 H 45.0039 1.55875 0.298125 0
M  V30 456 H 45.0249 2.53409 2.83838 0
M  V30 457 H 44.5369 3.62813 1.37799 0
M  V30 458 H 42.6379 1.94378 3.1788 0
M  V30 459 H 42.7509 3.8083 2.90698 0
M  V30 460 H 41.1149 1.9644 1.62122 0
M  V30 461 H 41.8979 3.36043 0.702131 0
M  V30 462 N 44.343 -0.763751 1.37857 0
M  V30 463 C 45.62 -1.51244 1.24035 0
M  V30 464 C 46 -2.10472 -0.162649 0
M  V30 465 O 45.348 -1.96206 -1.17112 0
M  V30 466 C 45.558 -2.58694 2.34261 0
M  V30 467 C 46.906 -3.25878 2.72193 0
M  V30 468 O 47.93 -2.68993 2.33497 0
M  V30 469 O 46.789 -4.2874 3.38887 0
M  V30 470 H 43.883 -0.670243 0.484462 0
M  V30 471 H 46.429 -0.800031 1.49658 0
M  V30 472 H 45.201 -2.13105 3.2818 0
M  V30 473 H 44.824 -3.37527 2.10146 0
M  V30 474 N 45.8211 -1.22559 -0.990812 0
M  V30 475 C 46.7841 -0.998863 -2.0629 0
M  V30 476 C 47.7841 0.0354834 -1.60761 0
M  V30 477 O 48.9741 -0.203231 -1.7301 0
M  V30 478 C 46.1061 -0.509203 -3.37076 0
M  V30 479 H 47.2991 -1.95014 -2.27837 0
M  V30 480 H 44.8521 -1.04456 -1.16269 0
M  V30 481 H 45.5871 0.446335 -3.21214 0
M  V30 482 H 45.3721 -1.25547 -3.71457 0
M  V30 483 H 46.8621 -0.370888 -4.1595 0
M  V30 484 N 47.2992 1.18797 -1.03562 0
M  V30 485 C 48.5452 1.8893 -0.737113 0
M  V30 486 C 48.8782 1.79837 0.732956 0
M  V30 487 O 48.1532 1.19525 1.5344 0
M  V30 488 C 48.4362 3.39607 -1.19745 0
M  V30 489 C 48.2892 3.57537 -2.72924 0
M  V30 490 C 49.6082 4.33069 -0.783526 0
M  V30 491 H 46.7272 0.686057 -0.269249 0
M  V30 492 H 49.3692 1.39797 -1.28673 0
M  V30 493 H 47.5192 3.81583 -0.729855 0
M  V30 494 H 49.1912 3.24688 -3.27682 0
M  V30 495 H 47.4342 3.00363 -3.12993 0
M  V30 496 H 48.1052 4.63238 -3.00191 0
M  V30 497 H 50.5812 3.98846 -1.18581 0
M  V30 498 H 49.4572 5.3707 -1.13343 0
M  V30 499 H 49.7182 4.40986 0.313681 0
M  V30 500 N 48.7773 0.814389 1.34928 0
M  V30 501 C 50.0233 0.399013 1.98836 0
M  V30 502 C 50.3563 -1.03314 1.64438 0
M  V30 503 O 49.6313 -1.71811 0.911659 0
M  V30 504 C 49.9143 0.591629 3.55207 0
M  V30 505 C 49.7673 2.06928 3.99376 0
M  V30 506 C 51.0863 0.022199 4.40094 0
M  V30 507 H 48.2053 0.146451 0.722303 0
M  V30 508 H 50.8473 1.02537 1.59957 0
M  V30 509 H 48.9973 0.0584441 3.88456 0
M  V30 510 H 50.6693 2.66544 3.76499 0
M  V30 511 H 48.9123 2.56287 3.49999 0
M  V30 512 H 49.5833 2.1549 5.08201 0
M  V30 513 H 52.0593 0.477643 4.13349 0
M  V30 514 H 50.9353 0.186832 5.48582 0
M  V30 515 H 51.1963 -1.07215 4.28902 0
M  V30 516 N 50.2554 -1.46986 0.568584 0
M  V30 517 C 51.5044 -2.01646 0.0465894 0
M  V30 518 C 51.8174 -1.44721 -1.31587 0
M  V30 519 O 53.0234 -1.91113 -1.92842 0
M  V30 520 C 51.4794 -3.59885 0.032752 0
M  V30 521 C 51.0874 -4.25804 1.39266 0
M  V30 522 C 52.8314 -4.22255 -0.436038 0
M  V30 523 C 50.7384 -5.76081 1.33732 0
M  V30 524 H 49.6684 -0.753876 0.013647 0
M  V30 525 H 52.3194 -1.68864 0.718131 0
M  V30 526 H 50.7014 -3.8968 -0.704669 0
M  V30 527 H 51.8754 -4.07637 2.1487 0
M  V30 528 H 50.1904 -3.7547 1.80032 0
M  V30 529 H 52.7874 -5.32394 -0.49602 0
M  V30 530 H 53.1304 -3.90212 -1.45053 0
M  V30 531 H 53.6634 -3.97033 0.246877 0
M  V30 532 H 50.4024 -6.12761 2.32817 0
M  V30 533 H 49.9224 -5.96553 0.623267 0
M  V30 534 H 51.6014 -6.38518 1.0442 0
M  V30 535 N 51.7335 -0.305618 -1.54608 0
M  V30 536 C 53.0105 0.355652 -1.92339 0
M  V30 537 C 53.3905 1.71324 -1.23335 0
M  V30 538 O 52.7385 2.25473 -0.370702 0
M  V30 539 C 52.9485 0.46572 -3.45879 0
M  V30 540 C 54.2965 0.734426 -4.182 0
M  V30 541 O 55.3205 0.54935 -3.51938 0
M  V30 542 O 54.1795 1.09024 -5.35515 0
M  V30 543 H 51.2735 0.199666 -0.802535 0
M  V30 544 H 53.8195 -0.354017 -1.65966 0
M  V30 545 H 52.5915 -0.488461 -3.88239 0
M  V30 546 H 52.2145 1.22367 -3.78301 0
M  V30 547 N 53.2116 1.57565 -0.0334293 0
M  V30 548 C 54.1416 2.13511 0.945265 0
M  V30 549 C 55.1226 1.05231 1.33643 0
M  V30 550 O 56.3076 1.33084 1.41429 0
M  V30 551 C 53.4376 2.6657 2.22616 0
M  V30 552 C 52.3916 3.79676 1.97561 0
M  V30 553 C 51.7176 4.1918 3.31952 0
M  V30 554 C 53.0176 5.0557 1.31135 0
M  V30 555 H 54.7116 2.95538 0.479325 0
M  V30 556 H 52.2576 1.42166 0.229115 0
M  V30 557 H 54.2106 3.04344 2.91466 0
M  V30 558 H 52.9346 1.8171 2.71384 0
M  V30 559 H 51.5936 3.42347 1.31127 0
M  V30 560 H 51.2416 3.31296 3.78487 0
M  V30 561 H 50.9416 4.95402 3.15992 0
M  V30 562 H 52.4656 4.59541 4.02063 0
M  V30 563 H 53.8796 5.40903 1.89992 0
M  V30 564 H 52.2766 5.86818 1.25559 0
M  V30 565 H 53.3466 4.84062 0.284894 0
M  V30 566 N 54.6897 -0.239769 1.55765 0
M  V30 567 C 55.5997 -1.31831 1.94056 0
M  V30 568 C 56.6157 -1.52275 0.841925 0
M  V30 569 O 57.7917 -1.65759 1.14394 0
M  V30 570 C 54.8567 -2.65156 2.23368 0
M  V30 571 C 53.9177 -2.53173 3.46701 0
M  V30 572 C 53.1507 -3.8014 3.74606 0
M  V30 573 O 53.3737 -4.82343 3.04469 0
M  V30 574 O 52.3077 -3.78344 4.68123 0
M  V30 575 H 56.1337 -1.02347 2.85935 0
M  V30 576 H 53.7187 -0.441123 1.42739 0
M  V30 577 H 55.6007 -3.43929 2.43497 0
M  V30 578 H 54.2757 -2.94358 1.34666 0
M  V30 579 H 53.1827 -1.72662 3.31871 0
M  V30 580 H 54.5157 -2.28915 4.35728 0
M  V30 581 N 56.1678 -1.49265 -0.50573 0
M  V30 582 C 57.4448 -1.49012 -1.26707 0
M  V30 583 C 57.8248 -0.215205 -2.1 0
M  V30 584 O 57.1728 0.802547 -2.13943 0
M  V30 585 C 57.3828 -2.7663 -2.12783 0
M  V30 586 C 58.7308 -3.25932 -2.72127 0
M  V30 587 O 59.7548 -2.77715 -2.23054 0
M  V30 588 O 58.6138 -4.09897 -3.61451 0
M  V30 589 H 55.7078 -0.596197 -0.57313 0
M  V30 590 H 58.2538 -1.61524 -0.52039 0
M  V30 591 H 57.0258 -3.60916 -1.5118 0
M  V30 592 H 56.6488 -2.66956 -2.94653 0
M  V30 593 N 57.6459 0.756429 -1.3826 0
M  V30 594 C 58.6089 1.85176 -1.35065 0
M  V30 595 C 59.6089 1.58818 -0.251703 0
M  V30 596 O 60.7989 1.66615 -0.508433 0
M  V30 597 C 57.9309 3.22596 -1.10201 0
M  V30 598 H 59.1239 1.89417 -2.3251 0
M  V30 599 H 56.6769 0.95783 -1.23512 0
M  V30 600 H 57.4119 3.24025 -0.133504 0
M  V30 601 H 57.1969 3.43122 -1.89762 0
M  V30 602 H 58.6869 4.02673 -1.10654 0
M  V30 603 N 59.124 1.23083 0.984299 0
M  V30 604 C 60.37 1.06214 1.72761 0
M  V30 605 C 60.703 -0.400584 1.90024 0
M  V30 606 O 59.978 -1.29672 1.44967 0
M  V30 607 C 60.261 1.78375 3.12817 0
M  V30 608 C 60.114 3.32296 3.03149 0
M  V30 609 C 61.433 1.54309 4.12161 0
M  V30 610 H 58.552 0.387251 0.627061 0
M  V30 611 H 61.194 1.51536 1.14616 0
M  V30 612 H 59.344 1.39848 3.62457 0
M  V30 613 H 61.016 3.8032 2.61064 0
M  V30 614 H 59.259 3.6153 2.39747 0
M  V30 615 H 59.93 3.77972 4.02295 0
M  V30 616 H 62.406 1.87791 3.71314 0
M  V30 617 H 61.282 2.07281 5.08258 0
M  V30 618 H 61.543 0.477572 4.39513 0
M  V30 619 N 60.6021 -1.18246 1.0419 0
M  V30 620 C 62.0131 -1.69914 0.773698 0
M  V30 621 C 62.3641 -1.83085 -0.705297 0
M  V30 622 O 61.4891 -1.51123 -1.5489 0
M  V30 623 C 62.0841 -3.08619 1.39784 0
M  V30 624 C 60.6431 -3.57494 1.17792 0
M  V30 625 C 59.7901 -2.34013 1.48773 0
M  V30 626 H 62.7411 -1.02904 1.20816 0
M  V30 627 H 62.7621 -3.71958 0.801714 0
M  V30 628 H 62.2741 -2.99001 2.47426 0
M  V30 629 H 60.3751 -3.72406 0.120295 0
M  V30 630 H 60.4881 -4.40852 1.87581 0
M  V30 631 H 58.8521 -2.37986 0.907463 0
M  V30 632 H 59.6351 -2.27013 2.57527 0
M  V30 633 N 62.0802 -0.821533 -1.34494 0
M  V30 634 C 63.3282 -0.408139 -1.97936 0
M  V30 635 C 63.6492 1.03193 -1.65457 0
M  V30 636 O 62.9192 1.71622 -0.944595 0
M  V30 637 H 61.4992 -0.147928 -0.732206 0
M  V30 638 H 64.1612 -1.05067 -1.64155 0
M  V30 639 H 63.2572 -0.52601 -3.07635 0
M  V30 640 N 63.5583 1.46682 -0.576371 0
M  V30 641 C 64.7863 2.06798 -0.0649635 0
M  V30 642 C 65.2013 1.42612 1.23723 0
M  V30 643 O 64.5583 0.529203 1.74659 0
M  V30 644 C 64.6093 3.6132 0.114202 0
M  V30 645 O 64.3303 4.23104 -1.13644 0
M  V30 646 C 65.8313 4.38349 0.66069 0
M  V30 647 H 63.0513 0.668778 -0.0545616 0
M  V30 648 H 65.5953 1.88404 -0.795237 0
M  V30 649 H 63.7503 3.79162 0.794673 0
M  V30 650 H 64.1643 5.15894 -0.946253 0
M  V30 651 H 65.6383 5.47081 0.73526 0
M  V30 652 H 66.1153 4.05953 1.67627 0
M  V30 653 H 66.7213 4.25297 0.0152951 0
M  V30 654 N 65.0364 0.313813 1.54444 0
M  V30 655 C 65.9994 -0.54379 2.22656 0
M  V30 656 C 66.9994 -1.05124 1.21678 0
M  V30 657 O 68.1894 -0.945225 1.46325 0
M  V30 658 C 65.3214 -1.75427 2.92298 0
M  V30 659 H 66.5144 0.0523599 2.99854 0
M  V30 660 H 64.0674 0.0647834 1.56166 0
M  V30 661 H 64.8024 -2.38991 2.19211 0
M  V30 662 H 64.5874 -1.39791 3.66334 0
M  V30 663 H 66.0774 -2.36325 3.44297 0
M  V30 664 N 66.5145 -1.57545 0.0417849 0
M  V30 665 C 67.4245 -2.14451 -0.951213 0
M  V30 666 C 68.4405 -1.09992 -1.34825 0
M  V30 667 O 69.6165 -1.42114 -1.42708 0
M  V30 668 C 66.6815 -2.67063 -2.21084 0
M  V30 669 C 65.7425 -3.86284 -1.87304 0
M  V30 670 C 64.9755 -4.36378 -3.07261 0
M  V30 671 O 65.1985 -3.85587 -4.20332 0
M  V30 672 O 64.1325 -5.28077 -2.88822 0
M  V30 673 H 67.9585 -2.99601 -0.497287 0
M  V30 674 H 65.5435 -1.48317 -0.179567 0
M  V30 675 H 67.4255 -3.00914 -2.95006 0
M  V30 676 H 66.1005 -1.84989 -2.65633 0
M  V30 677 H 65.0075 -3.57338 -1.10727 0
M  V30 678 H 66.3405 -4.6956 -1.47562 0
M  V30 679 N 67.9926 0.231505 -1.5589 0
M  V30 680 C 68.9556 1.27028 -1.90779 0
M  V30 681 C 69.9556 1.40308 -0.785507 0
M  V30 682 O 71.1456 1.38744 -1.05336 0
M  V30 683 C 68.2776 2.64566 -2.14983 0
M  V30 684 H 69.4706 0.973017 -2.83677 0
M  V30 685 H 67.0236 0.471486 -1.49019 0
M  V30 686 H 67.7586 2.99406 -1.24604 0
M  V30 687 H 67.5436 2.56305 -2.96732 0
M  V30 688 H 69.0336 3.39543 -2.43105 0
M  V30 689 N 69.4707 1.49531 0.497807 0
M  V30 690 C 70.4177 1.66436 1.59899 0
M  V30 691 C 71.3877 0.505793 1.58212 0
M  V30 692 O 72.5727 0.733202 1.7615 0
M  V30 693 C 69.7127 1.7399 2.98029 0
M  V30 694 C 68.8257 3.01172 3.09708 0
M  V30 695 C 67.9607 2.99686 4.38591 0
M  V30 696 C 66.9997 4.21434 4.43914 0
M  V30 697 N 66.1367 4.1784 5.64229 0
M  V30 698 H 70.9767 2.60459 1.44793 0
M  V30 699 H 68.5137 1.29137 0.704423 0
M  V30 700 H 70.4717 1.76352 3.78095 0
M  V30 701 H 69.1017 0.834301 3.11832 0
M  V30 702 H 68.1537 3.08408 2.22685 0
M  V30 703 H 69.4657 3.91165 3.09502 0
M  V30 704 H 68.6197 3.00628 5.2698 0
M  V30 705 H 67.3587 2.07477 4.41367 0
M  V30 706 H 66.3637 4.20733 3.53926 0
M  V30 707 H 67.5887 5.14839 4.42851 0
M  V30 708 H 65.5347 3.28469 5.67841 0
M  V30 709 H 65.4517 5.01571 5.65652 0
M  V30 710 H 66.7197 4.22889 6.54817 0
M  V30 711 N 70.9488 -0.749086 1.3866 0
M  V30 712 C 71.9118 -1.84457 1.36045 0
M  V30 713 C 72.9118 -1.58682 0.260122 0
M  V30 714 O 74.1018 -1.66343 0.517261 0
M  V30 715 C 71.2338 -3.22008 1.11911 0
M  V30 716 H 72.4268 -1.88182 2.33512 0
M  V30 717 H 69.9798 -0.951266 1.24019 0
M  V30 718 H 70.7148 -3.2395 0.150686 0
M  V30 719 H 70.4998 -3.42111 1.91579 0
M  V30 720 H 71.9898 -4.0208 1.12788 0
M  V30 721 N 72.4269 -1.23603 -0.977757 0
M  V30 722 C 73.3899 -1.02069 -2.05218 0
M  V30 723 C 74.3899 0.0184305 -1.60789 0
M  V30 724 O 75.5799 -0.221569 -1.72785 0
M  V30 725 C 72.7119 -0.544926 -3.36517 0
M  V30 726 H 73.9049 -1.9742 -2.25755 0
M  V30 727 H 71.4579 -1.05684 -1.15155 0
M  V30 728 H 72.1929 0.412241 -3.21669 0
M  V30 729 H 71.9779 -1.2948 -3.70105 0
M  V30 730 H 73.4679 -0.414985 -4.15533 0
M  V30 731 N 73.905 1.17692 -1.04816 0
M  V30 732 C 74.868 2.19787 -0.650117 0
M  V30 733 C 75.868 1.58044 0.296427 0
M  V30 734 O 77.058 1.74012 0.0808097 0
M  V30 735 C 74.19 3.40869 0.0456987 0
M  V30 736 H 75.383 2.56516 -1.5537 0
M  V30 737 H 72.936 1.31708 -0.841594 0
M  V30 738 H 73.671 3.09681 0.962726 0
M  V30 739 H 73.456 3.86928 -0.634727 0
M  V30 740 H 74.946 4.16445 0.310432 0
M  V30 741 N 75.3831 0.828654 1.34056 0
M  V30 742 C 76.7991 0.515135 1.51058 0
M  V30 743 C 76.9991 -0.959581 1.77184 0
M  V30 744 O 76.0551 -1.74382 1.82612 0
M  V30 745 C 77.3681 1.37963 2.67183 0
M  V30 746 C 78.9161 1.37735 2.81066 0
M  V30 747 C 79.3911 2.22645 4.00241 0
M  V30 748 N 80.8821 2.203 4.07458 0
M  V30 749 C 81.6171 2.82744 4.98842 0
M  V30 750 N 81.1131 3.54201 5.9541 0
M  V30 751 N 82.9061 2.72268 4.91759 0
M  V30 752 H 75.0571 1.78343 1.15358 0
M  V30 753 H 77.3201 0.760304 0.566252 0
M  V30 754 H 77.0261 2.42714 2.54525 0
M  V30 755 H 76.9001 1.0484 3.62338 0
M  V30 756 H 79.2871 0.337593 2.93163 0
M  V30 757 H 79.3681 1.74859 1.86703 0
M  V30 758 H 79.0121 3.26674 3.88905 0
M  V30 759 H 78.9421 1.82869 4.93829 0
M  V30 760 H 81.4331 1.68327 3.38341 0
M  V30 761 H 81.7461 3.9908 6.61782 0
M  V30 762 H 80.0911 3.58308 5.95517 0
M  V30 763 H 83.2821 2.16014 4.15278 0
M  V30 764 H 83.4551 3.21219 5.62781 0
M  V30 765 N 76.8612 -1.46375 0.584142 0
M  V30 766 C 78.2722 -1.86031 0.157959 0
M  V30 767 C 78.6232 -1.48753 -1.27933 0
M  V30 768 O 77.7482 -0.903098 -1.96655 0
M  V30 769 C 78.3432 -3.37642 0.279892 0
M  V30 770 C 76.9022 -3.76289 -0.09143 0
M  V30 771 C 76.0492 -2.7039 0.615178 0
M  V30 772 H 79.0002 -1.37509 0.792274 0
M  V30 773 H 79.0212 -3.77275 -0.494364 0
M  V30 774 H 78.5332 -3.64742 1.32607 0
M  V30 775 H 76.6342 -3.54806 -1.13769 0
M  V30 776 H 76.7472 -4.78246 0.285886 0
M  V30 777 H 75.1112 -2.5464 0.0552833 0
M  V30 778 H 75.8942 -3.0033 1.66303 0
M  V30 779 N 78.3393 -0.321999 -1.54275 0
M  V30 780 C 79.5853 0.281461 -2.00837 0
M  V30 781 C 79.9183 1.51909 -1.20985 0
M  V30 782 O 79.1933 1.923 -0.291733 0
M  V30 783 C 79.4763 0.617162 -3.54772 0
M  V30 784 C 79.3293 -0.631064 -4.45351 0
M  V30 785 C 80.6483 1.43542 -4.16033 0
M  V30 786 H 77.7673 0.100826 -0.730071 0
M  V30 787 H 80.4093 -0.438268 -1.84876 0
M  V30 788 H 78.5593 1.23034 -3.68504 0
M  V30 789 H 80.2313 -1.26934 -4.43492 0
M  V30 790 H 78.4743 -1.26025 -4.15091 0
M  V30 791 H 79.1453 -0.351735 -5.50878 0
M  V30 792 H 81.6213 0.917134 -4.05867 0
M  V30 793 H 80.4973 1.63907 -5.23856 0
M  V30 794 H 80.7583 2.43108 -3.69257 0
M  V30 795 N 79.8174 1.5752 -0.0501392 0
M  V30 796 C 80.7804 2.1037 0.909786 0
M  V30 797 C 81.7804 1.02308 1.24056 0
M  V30 798 O 82.9704 1.28385 1.17741 0
M  V30 799 C 80.1024 2.58708 2.21998 0
M  V30 800 H 81.2954 2.96479 0.451665 0
M  V30 801 H 78.8484 1.55038 0.198248 0
M  V30 802 H 79.5834 1.75989 2.72394 0
M  V30 803 H 79.3684 3.37675 1.99295 0
M  V30 804 H 80.8584 2.99747 2.9076 0
M  V30 805 N 81.2955 -0.223234 1.56011 0
M  V30 806 C 82.2455 -1.28008 1.88674 0
M  V30 807 C 83.2295 -1.42369 0.749663 0
M  V30 808 O 84.4215 -1.45212 1.01205 0
M  V30 809 C 81.5505 -2.63084 2.20548 0
M  V30 810 C 80.6365 -2.52632 3.40643 0
M  V30 811 N 81.0275 -2.11829 4.59306 0
M  V30 812 C 79.3255 -2.83594 3.44224 0
M  V30 813 C 80.0265 -2.12587 5.41463 0
M  V30 814 N 79.0025 -2.5301 4.81131 0
M  V30 815 H 82.8045 -0.955487 2.77935 0
M  V30 816 H 80.3185 -0.431801 1.56554 0
M  V30 817 H 82.3155 -3.39385 2.42122 0
M  V30 818 H 80.9755 -2.96391 1.32599 0
M  V30 819 H 81.9865 -1.82988 4.84496 0
M  V30 820 H 78.6635 -3.21284 2.66614 0
M  V30 821 H 80.0535 -1.83179 6.46448 0
M  V30 822 N 82.7736 -1.49793 -0.48987 0
M  V30 823 C 84.0506 -1.50348 -1.25119 0
M  V30 824 C 84.4306 -0.237466 -2.0976 0
M  V30 825 O 83.7786 0.77981 -2.14782 0
M  V30 826 C 83.9886 -2.78872 -2.09837 0
M  V30 827 C 85.3366 -3.288 -2.68655 0
M  V30 828 O 86.3606 -2.80065 -2.20096 0
M  V30 829 O 85.2196 -4.13707 -3.57083 0
M  V30 830 H 82.3136 -0.602242 -0.566775 0
M  V30 831 H 84.8596 -1.62067 -0.503229 0
M  V30 832 H 83.6316 -3.62499 -1.47343 0
M  V30 833 H 83.2546 -2.70066 -2.91805 0
M  V30 834 N 84.2517 0.741722 -1.39055 0
M  V30 835 C 85.2147 1.83733 -1.37021 0
M  V30 836 C 86.2147 1.58542 -0.268534 0
M  V30 837 O 87.4047 1.66067 -0.526076 0
M  V30 838 C 84.5367 3.2141 -1.13617 0
M  V30 839 H 85.7297 1.86941 -2.34506 0
M  V30 840 H 83.2827 0.944676 -1.24521 0
M  V30 841 H 84.0177 3.23865 -0.167863 0
M  V30 842 H 83.8027 3.4109 -1.93391 0
M  V30 843 H 85.2927 4.01477 -1.14918 0
M  V30 844 N 85.7298 1.2412 0.971189 0
M  V30 845 C 86.6928 1.03156 2.04674 0
M  V30 846 C 87.6928 -0.00990322 1.60797 0
M  V30 847 O 88.8828 0.230729 1.72665 0
M  V30 848 C 86.0148 0.562765 3.36223 0
M  V30 849 H 87.2078 1.98614 2.24705 0
M  V30 850 H 84.7608 1.06293 1.14593 0
M  V30 851 H 85.4958 -0.395176 3.21883 0
M  V30 852 H 85.2808 1.31441 3.69413 0
M  V30 853 H 86.7708 0.437015 4.15307 0
M  V30 854 N 87.2079 -1.17134 1.05439 0
M  V30 855 C 88.6239 -1.39454 0.776201 0
M  V30 856 C 88.8239 -1.91454 -0.628307 0
M  V30 857 O 87.8799 -2.10777 -1.39031 0
M  V30 858 C 89.1929 -2.38305 1.83388 0
M  V30 859 C 90.7409 -2.52006 1.85639 0
M  V30 860 C 91.2159 -3.54133 2.90437 0
M  V30 861 N 92.7069 -3.61653 2.89415 0
M  V30 862 C 93.4419 -4.4044 3.67152 0
M  V30 863 N 92.9379 -5.22721 4.54681 0
M  V30 864 N 94.7309 -4.35337 3.55581 0
M  V30 865 H 86.8819 -0.817134 1.96053 0
M  V30 866 H 89.1449 -0.421626 0.849079 0
M  V30 867 H 88.8509 -2.07173 2.84204 0
M  V30 868 H 88.7249 -3.37841 1.67761 0
M  V30 869 H 91.1119 -2.82447 0.85486 0
M  V30 870 H 91.1929 -1.52537 2.05344 0
M  V30 871 H 90.8369 -3.24431 3.90777 0
M  V30 872 H 90.7669 -4.53313 2.67983 0
M  V30 873 H 93.2579 -3.02909 2.25952 0
M  V30 874 H 93.5709 -5.80027 5.10674 0
M  V30 875 H 91.9159 -5.22093 4.58741 0
M  V30 876 H 95.1069 -3.70112 2.86592 0
M  V30 877 H 95.2799 -4.96494 4.1641 0
M  V30 878 N 88.686 -0.835752 -1.33615 0
M  V30 879 C 89.963 -0.352017 -1.92406 0
M  V30 880 C 90.343 1.16225 -1.76224 0
M  V30 881 O 89.691 1.97526 -1.14873 0
M  V30 882 C 89.901 -0.795485 -3.39813 0
M  V30 883 C 91.249 -0.801703 -4.16963 0
M  V30 884 O 92.273 -0.738889 -3.48452 0
M  V30 885 O 91.132 -0.886607 -5.3926 0
M  V30 886 H 88.226 -0.0989641 -0.821057 0
M  V30 887 H 90.772 -0.921397 -1.42507 0
M  V30 888 H 89.544 -1.83795 -3.45449 0
M  V30 889 H 89.167 -0.202505 -3.97084 0
M  V30 890 N 90.1641 1.46063 -0.591896 0
M  V30 891 C 91.0941 2.33172 0.123673 0
M  V30 892 C 92.0751 1.45897 0.87453 0
M  V30 893 O 93.2601 1.74698 0.848181 0
M  V30 894 C 90.3901 3.28336 1.13194 0
M  V30 895 C 89.3441 4.25124 0.495324 0
M  V30 896 C 88.6701 5.09863 1.61071 0
M  V30 897 C 89.9701 5.19143 -0.573425 0
M  V30 898 H 91.6641 2.93252 -0.603646 0
M  V30 899 H 89.2101 1.41014 -0.291741 0
M  V30 900 H 91.1631 3.88137 1.64097 0
M  V30 901 H 89.8871 2.66383 1.88965 0
M  V30 902 H 88.5461 3.66599 0.00729452 0
M  V30 903 H 88.1941 4.44288 2.35832 0
M  V30 904 H 87.8941 5.75417 1.19035 0
M  V30 905 H 89.4181 5.72529 2.12233 0
M  V30 906 H 90.8321 5.73106 -0.1491 0
M  V30 907 H 89.2291 5.93089 -0.914636 0
M  V30 908 H 90.2991 4.62519 -1.45617 0
M  V30 909 N 91.6422 0.330177 1.54103 0
M  V30 910 C 92.8912 -0.271336 1.99867 0
M  V30 911 C 93.2042 -1.52723 1.22209 0
M  V30 912 O 94.4102 -2.20515 1.58383 0
M  V30 913 C 92.8662 -0.534032 3.55916 0
M  V30 914 C 92.4742 0.705193 4.42415 0
M  V30 915 C 94.2182 -1.09514 4.1013 0
M  V30 916 C 92.1252 0.414035 5.89949 0
M  V30 917 H 91.0552 -0.105166 0.74663 0
M  V30 918 H 93.7062 0.443429 1.78062 0
M  V30 919 H 92.0882 -1.30915 3.73734 0
M  V30 920 H 93.2622 1.4804 4.36372 0
M  V30 921 H 91.5772 1.18698 3.99124 0
M  V30 922 H 94.1742 -1.3277 5.17954 0
M  V30 923 H 94.5172 -2.04656 3.62521 0
M  V30 924 H 95.0502 -0.381038 3.95971 0
M  V30 925 H 91.7892 1.33481 6.41766 0
M  V30 926 H 91.3092 -0.323336 5.98928 0
M  V30 927 H 92.9882 0.0263105 6.46995 0
M  V30 928 N 93.1203 -1.57491 0.0584922 0
M  V30 929 C 94.0833 -2.1085 -0.898617 0
M  V30 930 C 95.0833 -1.02964 -1.23511 0
M  V30 931 O 96.2733 -1.29007 -1.17059 0
M  V30 932 C 93.4053 -2.59881 -2.20623 0
M  V30 933 H 94.5983 -2.96715 -0.435936 0
M  V30 934 H 92.1513 -1.55141 -0.190023 0
M  V30 935 H 92.8863 -1.77431 -2.71457 0
M  V30 936 H 92.6713 -3.38727 -1.97501 0
M  V30 937 H 94.1613 -3.01285 -2.89166 0
M  V30 938 N 94.5984 0.214957 -1.56127 0
M  V30 939 C 95.5614 1.24997 -1.92116 0
M  V30 940 C 96.5614 1.39467 -0.800344 0
M  V30 941 O 97.7514 1.37619 -1.06802 0
M  V30 942 C 94.8834 2.62271 -2.17777 0
M  V30 943 H 96.0764 0.942875 -2.84693 0
M  V30 944 H 93.6294 0.455654 -1.49511 0
M  V30 945 H 94.3644 2.98068 -1.27773 0
M  V30 946 H 94.1494 2.53143 -2.99434 0
M  V30 947 H 95.6394 3.36946 -2.46693 0
M  V30 948 N 96.0765 1.50051 0.48192 0
M  V30 949 C 97.0395 1.67584 1.5636 0
M  V30 950 C 98.0395 0.546894 1.51214 0
M  V30 951 O 99.2295 0.813725 1.54026 0
M  V30 952 C 96.3615 1.691 2.96003 0
M  V30 953 H 97.5545 2.64078 1.42136 0
M  V30 954 H 95.1075 1.39369 0.707533 0
M  V30 955 H 95.8425 0.742589 3.15684 0
M  V30 956 H 95.6275 2.51105 3.01146 0
M  V30 957 H 97.1175 1.84656 3.74556 0
M  V30 958 N 97.5546 -0.734337 1.39446 0
M  V30 959 C 98.9656 -1.31264 1.32766 0
M  V30 960 C 99.3166 -1.96198 -0.00767497 0
M  V30 961 O 98.4416 -1.96346 -0.909796 0
M  V30 962 C 99.0366 -2.38682 2.4045 0
M  V30 963 C 97.5956 -2.92184 2.37288 0
M  V30 964 C 96.7426 -1.6576 2.22304 0
M  V30 965 H 99.6936 -0.531799 1.49525 0
M  V30 966 H 99.7146 -3.19087 2.07276 0
M  V30 967 H 99.2266 -1.91392 3.37625 0
M  V30 968 H 97.3276 -3.43752 1.43754 0
M  V30 969 H 97.4406 -3.45253 3.3217 0
M  V30 970 H 95.8046 -1.9012 1.69489 0
M  V30 971 H 96.5876 -1.20521 3.21449 0
M  V30 972 N 99.0327 -1.24633 -0.964593 0
M  V30 973 C 99.9827 -1.00841 -2.04487 0
M  V30 974 C 100.967 0.0512468 -1.60818 0
M  V30 975 O 102.159 -0.162865 -1.76249 0
M  V30 976 C 99.2877 -0.618474 -3.37683 0
M  V30 977 C 98.3737 -1.71437 -3.87905 0
M  V30 978 N 98.7647 -2.9477 -4.11029 0
M  V30 979 C 97.0627 -1.5926 -4.16596 0
M  V30 980 C 97.7637 -3.65834 -4.52261 0
M  V30 981 N 96.7397 -2.9341 -4.57615 0
M  V30 982 H 100.542 -1.94487 -2.20345 0
M  V30 983 H 98.0557 -1.14805 -1.14863 0
M  V30 984 H 100.053 -0.429247 -4.14684 0
M  V30 985 H 98.7127 0.310766 -3.23209 0
M  V30 986 H 99.7237 -3.30917 -3.9839 0
M  V30 987 H 96.4007 -0.731606 -4.1104 0
M  V30 988 H 97.7907 -4.71646 -4.78539 0
M  V30 989 N 100.511 1.16574 -1.06058 0
M  V30 990 C 101.441 2.23057 -0.690488 0
M  V30 991 C 102.422 1.67141 0.315901 0
M  V30 992 O 103.607 1.93253 0.191556 0
M  V30 993 C 100.737 3.47222 -0.073625 0
M  V30 994 C 99.6908 4.16016 -1.00573 0
M  V30 995 C 99.0168 5.34104 -0.252289 0
M  V30 996 C 100.317 4.67264 -2.33371 0
M  V30 997 H 102.011 2.54271 -1.58072 0
M  V30 998 H 99.5568 1.22218 -0.76149 0
M  V30 999 H 101.51 4.20939 0.19714 0
M  V30 1000 H 100.234 3.15302 0.85161 0
M  V30 1001 H 98.8928 3.44223 -1.2612 0
M  V30 1002 H 98.5408 4.98437 0.675988 0
M  V30 1003 H 98.2408 5.81072 -0.873455 0
M  V30 1004 H 99.7648 6.10599 0.0109857 0
M  V30 1005 H 101.179 5.32573 -2.12223 0
M  V30 1006 H 99.5758 5.24843 -2.90963 0
M  V30 1007 H 100.646 3.83602 -2.96611 0
M  V30 1008 N 101.989 0.842826 1.3317 0
M  V30 1009 C 102.952 0.284065 2.27433 0
M  V30 1010 C 103.952 -0.54948 1.5112 0
M  V30 1011 O 105.142 -0.362699 1.70382 0
M  V30 1012 C 102.274 -0.599384 3.35589 0
M  V30 1013 H 103.467 1.11589 2.78366 0
M  V30 1014 H 101.02 0.616221 1.4364 0
M  V30 1015 H 101.755 -1.45349 2.89904 0
M  V30 1016 H 101.54 -0.00291266 3.921 0
M  V30 1017 H 103.03 -0.983488 4.05854 0
M  V30 1018 N 103.467 -1.45747 0.599634 0
M  V30 1019 C 104.713 -2.02592 0.0918643 0
M  V30 1020 C 105.046 -1.46806 -1.27128 0
M  V30 1021 O 104.321 -0.639658 -1.83681 0
M  V30 1022 C 104.604 -3.60073 0.0443398 0
M  V30 1023 C 104.457 -4.26208 1.43759 0
M  V30 1024 C 105.776 -4.35309 -0.647608 0
M  V30 1025 H 102.895 -0.736175 0.034857 0
M  V30 1026 H 105.537 -1.73694 0.770081 0
M  V30 1027 H 103.687 -3.84823 -0.533224 0
M  V30 1028 H 105.359 -4.12668 2.06162 0
M  V30 1029 H 103.602 -3.84916 2.00056 0
M  V30 1030 H 104.273 -5.35069 1.35665 0
M  V30 1031 H 106.749 -4.15805 -0.156776 0
M  V30 1032 H 105.625 -5.45038 -0.649942 0
M  V30 1033 H 105.886 -4.07598 -1.71219 0
M  V30 1034 N 104.945 -0.338344 -1.53925 0
M  V30 1035 C 106.192 0.259758 -2.00827 0
M  V30 1036 C 106.52 1.50973 -1.22628 0
M  V30 1037 O 105.775 1.93379 -0.300509 0
M  V30 1038 C 106.074 0.62448 -3.51902 0
M  V30 1039 C 105.74 -0.528006 -4.47798 0
M  V30 1040 C 104.402 -0.844298 -4.73735 0
M  V30 1041 C 106.754 -1.30143 -5.0469 0
M  V30 1042 C 104.082 -1.93648 -5.53821 0
M  V30 1043 C 106.434 -2.38382 -5.85967 0
M  V30 1044 C 105.098 -2.70576 -6.10201 0
M  V30 1045 H 104.368 0.0950523 -0.734878 0
M  V30 1046 H 107.015 -0.465182 -1.85764 0
M  V30 1047 H 105.32 1.43006 -3.64769 0
M  V30 1048 H 107.017 1.09905 -3.85645 0
M  V30 1049 H 103.607 -0.271421 -4.2774 0
M  V30 1050 H 107.791 -1.07033 -4.84621 0
M  V30 1051 H 103.047 -2.19021 -5.70824 0
M  V30 1052 H 107.221 -2.98746 -6.29066 0
M  V30 1053 H 104.848 -3.55333 -6.72044 0
M  V30 1054 N 106.423 1.57458 -0.0668435 0
M  V30 1055 C 107.669 1.93587 0.6043 0
M  V30 1056 C 108.002 0.946722 1.69561 0
M  V30 1057 O 107.277 -0.0248516 1.94484 0
M  V30 1058 C 107.56 3.40014 1.18585 0
M  V30 1059 C 107.413 4.49685 0.101529 0
M  V30 1060 C 108.732 3.87154 2.09284 0
M  V30 1061 H 105.851 0.703958 0.218202 0
M  V30 1062 H 108.493 1.89542 -0.131804 0
M  V30 1063 H 106.643 3.43592 1.81319 0
M  V30 1064 H 108.315 4.5823 -0.531279 0
M  V30 1065 H 106.558 4.30059 -0.568487 0
M  V30 1066 H 107.229 5.49266 0.54874 0
M  V30 1067 H 109.705 3.85551 1.56491 0
M  V30 1068 H 108.581 4.90231 2.46911 0
M  V30 1069 H 108.842 3.2481 2.99918 0
M  V30 1070 N 107.901 -0.206675 1.56239 0
M  V30 1071 C 109.317 -0.557025 1.49564 0
M  V30 1072 C 109.517 -1.86424 0.764735 0
M  V30 1073 O 108.573 -2.50584 0.310491 0
M  V30 1074 C 109.886 -0.622478 2.94186 0
M  V30 1075 C 111.434 -0.712099 3.04792 0
M  V30 1076 C 111.909 -0.808767 4.50803 0
M  V30 1077 N 113.4 -0.8726 4.54907 0
M  V30 1078 C 114.135 -0.967365 5.65181 0
M  V30 1079 N 113.631 -1.02515 6.85173 0
M  V30 1080 N 115.424 -1.00366 5.53067 0
M  V30 1081 H 107.575 0.650943 2.02179 0
M  V30 1082 H 109.838 0.230387 0.919579 0
M  V30 1083 H 109.544 0.268727 3.50672 0
M  V30 1084 H 109.418 -1.4811 3.46905 0
M  V30 1085 H 111.805 -1.59374 2.48363 0
M  V30 1086 H 111.886 0.172489 2.55218 0
M  V30 1087 H 111.53 0.0684754 5.07854 0
M  V30 1088 H 111.46 -1.70899 4.98098 0
M  V30 1089 H 113.951 -0.837657 3.68499 0
M  V30 1090 H 114.264 -1.09765 7.64965 0
M  V30 1091 H 112.609 -0.994026 6.87855 0
M  V30 1092 H 115.8 -0.95527 4.58249 0
M  V30 1093 H 115.973 -1.07405 6.39037 0
M  V30 1094 N 109.379 -1.50304 -0.473955 0
M  V30 1095 C 110.625 -1.61389 -1.22806 0
M  V30 1096 C 110.958 -0.311955 -1.91678 0
M  V30 1097 O 110.233 0.686384 -1.81986 0
M  V30 1098 C 110.516 -2.79219 -2.27396 0
M  V30 1099 C 110.369 -4.19286 -1.62848 0
M  V30 1100 C 111.688 -2.92614 -3.28732 0
M  V30 1101 H 108.807 -0.587399 -0.445119 0
M  V30 1102 H 111.449 -1.82681 -0.522265 0
M  V30 1103 H 109.599 -2.61195 -2.87592 0
M  V30 1104 H 111.271 -4.48892 -1.06271 0
M  V30 1105 H 109.514 -4.23677 -0.931693 0
M  V30 1106 H 110.185 -4.97655 -2.38838 0
M  V30 1107 H 112.661 -3.09105 -2.78556 0
M  V30 1108 H 111.537 -3.76688 -3.99246 0
M  V30 1109 H 111.798 -2.03107 -3.92683 0
M  V30 1110 N 110.857 0.726932 -1.39834 0
M  V30 1111 C 111.805 1.86235 -1.39353 0
M  V30 1112 C 112.799 1.67144 -0.275555 0
M  V30 1113 O 114.005 1.74387 -0.44601 0
M  V30 1114 H 110.38 0.613174 -0.43534 0
M  V30 1115 H 112.351 1.83756 -2.35109 0
M  V30 1116 C 111.1 3.23995 -1.26185 0
M  V30 1117 H 110.423 3.39285 -2.11484 0
M  V30 1118 H 111.863 4.03609 -1.29907 0
M  V30 1119 C 110.322 3.36888 0.0290018 0
M  V30 1120 O 110.852 3.89152 0.99619 0
M  V30 1121 N 109.058 2.90446 0.0947437 0
M  V30 1122 H 108.605 2.48102 -0.693035 0
M  V30 1123 H 108.563 2.99451 0.957932 0
M  V30 1124 N 112.336 1.25143 0.95797 0
M  V30 1125 C 113.299 1.05321 2.03569 0
M  V30 1126 C 114.299 0.007152 1.60798 0
M  V30 1127 O 115.489 0.24903 1.72411 0
M  V30 1128 C 112.621 0.598394 3.35607 0
M  V30 1129 H 113.814 2.00986 2.22586 0
M  V30 1130 H 111.367 1.07502 1.13459 0
M  V30 1131 H 112.102 -0.361014 3.22284 0
M  V30 1132 H 111.887 1.35351 3.67998 0
M  V30 1133 H 113.377 0.48104 4.1482 0
M  V30 1134 N 113.814 -1.1601 1.06675 0
M  V30 1135 C 114.744 -2.22688 0.702307 0
M  V30 1136 C 115.725 -1.67306 -0.307032 0
M  V30 1137 O 116.91 -1.93352 -0.181305 0
M  V30 1138 C 114.04 -3.47178 0.092038 0
M  V30 1139 C 112.994 -4.15477 1.02777 0
M  V30 1140 C 112.32 -5.33963 0.28061 0
M  V30 1141 C 113.62 -4.66019 2.35846 0
M  V30 1142 H 115.314 -2.53429 1.59419 0
M  V30 1143 H 112.86 -1.21813 0.767961 0
M  V30 1144 H 114.813 -4.21037 -0.174814 0
M  V30 1145 H 113.537 -3.15749 -0.834877 0
M  V30 1146 H 112.196 -3.43549 1.27944 0
M  V30 1147 H 111.844 -4.98788 -0.649545 0
M  V30 1148 H 111.544 -5.806 0.904258 0
M  V30 1149 H 113.068 -6.10596 0.021396 0
M  V30 1150 H 114.482 -5.3144 2.15045 0
M  V30 1151 H 112.879 -5.23293 2.93743 0
M  V30 1152 H 113.949 -3.82023 2.98641 0
M  V30 1153 N 115.292 -0.849877 -1.32721 0
M  V30 1154 C 116.242 -0.262892 -2.26479 0
M  V30 1155 C 117.226 0.588493 -1.49752 0
M  V30 1156 O 118.418 0.438659 -1.71478 0
M  V30 1157 C 115.547 0.551818 -3.38836 0
M  V30 1158 C 114.633 -0.311689 -4.22953 0
M  V30 1159 N 115.024 -1.39567 -4.86163 0
M  V30 1160 C 113.322 -0.100611 -4.45887 0
M  V30 1161 C 114.023 -1.92651 -5.48872 0
M  V30 1162 N 112.999 -1.22637 -5.29586 0
M  V30 1163 H 116.801 -1.09166 -2.72873 0
M  V30 1164 H 114.315 -0.695486 -1.46754 0
M  V30 1165 H 116.312 0.988713 -4.05006 0
M  V30 1166 H 114.972 1.37844 -2.93988 0
M  V30 1167 H 115.983 -1.77859 -4.86402 0
M  V30 1168 H 112.66 0.691681 -4.11731 0
M  V30 1169 H 114.05 -2.83487 -6.09167 0
M  V30 1170 N 116.77 1.45427 -0.607355 0
M  V30 1171 C 117.995 2.07124 -0.107006 0
M  V30 1172 C 118.42 1.44906 1.19933 0
M  V30 1173 O 117.778 0.541687 1.73019 0
M  V30 1174 C 117.826 3.60595 0.0194119 0
M  V30 1175 O 116.93 3.98285 1.0697 0
M  V30 1176 H 116.271 0.659868 -0.0739597 0
M  V30 1177 H 118.801 1.86683 -0.837297 0
M  V30 1178 H 118.811 4.07419 0.2177 0
M  V30 1179 H 117.486 4.05266 -0.934453 0
M  V30 1180 H 116.063 3.63133 0.847889 0
M  V30 1181 N 118.248 0.346503 1.53744 0
M  V30 1182 C 119.659 -0.136779 1.86198 0
M  V30 1183 C 120.01 -1.49749 1.26766 0
M  V30 1184 O 119.135 -2.08417 0.582355 0
M  V30 1185 C 119.73 -0.254966 3.37839 0
M  V30 1186 C 118.289 -0.682482 3.70161 0
M  V30 1187 C 117.436 0.181981 2.76702 0
M  V30 1188 H 120.387 0.565994 1.48264 0
M  V30 1189 H 120.408 -1.08195 3.64793 0
M  V30 1190 H 119.92 0.735526 3.81066 0
M  V30 1191 H 118.021 -1.68189 3.3248 0
M  V30 1192 H 118.134 -0.470326 4.76786 0
M  V30 1193 H 116.498 -0.34615 2.52337 0
M  V30 1194 H 117.281 1.16966 3.2276 0
M  V30 1195 N 119.726 -1.57421 0.075193 0
M  V30 1196 C 120.956 -1.97659 -0.601203 0
M  V30 1197 C 121.364 -0.952427 -1.63479 0
M  V30 1198 O 120.707 0.0688241 -1.83571 0
M  V30 1199 C 120.769 -3.34218 -1.32434 0
M  V30 1200 C 120.433 -4.5484 -0.443826 0
M  V30 1201 C 121.43 -5.19034 0.299969 0
M  V30 1202 C 119.115 -5.00952 -0.367709 0
M  V30 1203 C 121.109 -6.27695 1.10807 0
M  V30 1204 C 118.796 -6.09484 0.444058 0
M  V30 1205 C 119.794 -6.72719 1.18061 0
M  V30 1206 O 119.482 -7.79161 1.97898 0
M  V30 1207 H 119.214 -0.65494 -0.167422 0
M  V30 1208 H 121.768 -2.04886 0.145157 0
M  V30 1209 H 119.998 -3.23615 -2.11685 0
M  V30 1210 H 121.687 -3.59038 -1.89331 0
M  V30 1211 H 122.453 -4.84351 0.250776 0
M  V30 1212 H 118.332 -4.51509 -0.930638 0
M  V30 1213 H 121.876 -6.76982 1.68347 0
M  V30 1214 H 117.773 -6.43601 0.494803 0
M  V30 1215 H 118.541 -7.96055 1.90367 0
M  V30 1216 N 121.204 0.198386 -1.56346 0
M  V30 1217 C 122.451 0.919286 -1.80431 0
M  V30 1218 C 122.779 1.83393 -0.647866 0
M  V30 1219 O 122.034 1.92236 0.366556 0
M  V30 1220 C 122.333 1.77031 -3.10475 0
M  V30 1221 C 121.999 1.00693 -4.39513 0
M  V30 1222 C 120.661 0.796145 -4.74568 0
M  V30 1223 C 123.013 0.469559 -5.19081 0
M  V30 1224 C 120.341 0.0364588 -5.86689 0
M  V30 1225 C 122.693 -0.2769 -6.31994 0
M  V30 1226 C 121.357 -0.49873 -6.65634 0
M  V30 1227 H 120.627 0.336391 -0.660244 0
M  V30 1228 H 123.274 0.185872 -1.90596 0
M  V30 1229 H 121.579 2.5723 -2.95533 0
M  V30 1230 H 123.276 2.33065 -3.26315 0
M  V30 1231 H 119.866 1.18122 -4.12001 0
M  V30 1232 H 124.05 0.619816 -4.92414 0
M  V30 1233 H 119.306 -0.145412 -6.11227 0
M  V30 1234 H 123.48 -0.700684 -6.92866 0
M  V30 1235 H 121.107 -1.0893 -7.52355 0
M  V30 1236 N 122.682 1.50554 0.465978 0
M  V30 1237 C 123.592 1.72585 1.58907 0
M  V30 1238 C 124.608 0.60911 1.6299 0
M  V30 1239 O 125.784 0.88804 1.80765 0
M  V30 1240 C 122.849 1.81995 2.95091 0
M  V30 1241 C 121.91 3.05751 3.01355 0
M  V30 1242 C 121.143 3.14702 4.31043 0
M  V30 1243 O 121.366 2.30313 5.21835 0
M  V30 1244 O 120.3 4.07468 4.43005 0
M  V30 1245 H 124.126 2.67799 1.43239 0
M  V30 1246 H 121.711 1.34711 0.646013 0
M  V30 1247 H 123.593 1.90335 3.75966 0
M  V30 1248 H 122.268 0.899659 3.10947 0
M  V30 1249 H 121.175 3.02908 2.19539 0
M  V30 1250 H 122.508 3.97375 2.90437 0
M  V30 1251 N 124.16 -0.719506 1.40217 0
M  V30 1252 C 125.437 -1.47221 1.28784 0
M  V30 1253 C 125.817 -2.10883 -0.0956067 0
M  V30 1254 O 125.165 -1.99833 -1.10811 0
M  V30 1255 C 125.375 -2.5111 2.42373 0
M  V30 1256 C 126.723 -3.17053 2.82423 0
M  V30 1257 O 127.747 -2.61429 2.41937 0
M  V30 1258 O 126.606 -4.17742 3.52355 0
M  V30 1259 H 123.7 -0.654491 0.50554 0
M  V30 1260 H 126.246 -0.752014 1.52128 0
M  V30 1261 H 125.018 -2.02556 3.34793 0
M  V30 1262 H 124.641 -3.3067 2.20778 0
M  V30 1263 N 125.638 -1.25649 -0.95132 0
M  V30 1264 C 126.915 -1.01361 -1.67288 0
M  V30 1265 C 127.295 0.459135 -2.06046 0
M  V30 1266 O 126.643 1.43723 -1.7764 0
M  V30 1267 C 126.853 -1.95256 -2.89268 0
M  V30 1268 C 128.201 -2.23289 -3.61147 0
M  V30 1269 O 129.225 -1.93041 -2.99355 0
M  V30 1270 O 128.084 -2.74741 -4.72419 0
M  V30 1271 H 125.178 -0.38464 -0.732107 0
M  V30 1272 H 127.724 -1.36817 -1.00395 0
M  V30 1273 H 126.496 -2.94685 -2.57442 0
M  V30 1274 H 126.119 -1.60218 -3.6389 0
M  V30 1275 N 127.117 1.15442 -1.07289 0
M  V30 1276 C 128.047 2.22312 -0.714107 0
M  V30 1277 C 129.028 1.67467 0.298155 0
M  V30 1278 O 130.213 1.93445 0.171048 0
M  V30 1279 C 127.343 3.47124 -0.110448 0
M  V30 1280 C 126.297 4.14926 -1.04979 0
M  V30 1281 C 125.623 5.33807 -0.308924 0
M  V30 1282 C 126.923 4.64762 -2.38314 0
M  V30 1283 H 128.617 2.5258 -1.6076 0
M  V30 1284 H 126.163 1.21404 -0.77441 0
M  V30 1285 H 128.116 4.21124 0.152482 0
M  V30 1286 H 126.84 3.16187 0.81812 0
M  V30 1287 H 125.499 3.42866 -1.29764 0
M  V30 1288 H 125.147 4.99126 0.623084 0
M  V30 1289 H 124.847 5.80113 -0.935036 0
M  V30 1290 H 126.371 6.10576 -0.0537771 0
M  V30 1291 H 127.785 5.30292 -2.1786 0
M  V30 1292 H 126.182 5.21728 -2.96514 0
M  V30 1293 H 127.252 3.80434 -3.00663 0
M  V30 1294 N 128.595 0.856903 1.32268 0
M  V30 1295 C 129.82 0.474569 2.01897 0
M  V30 1296 C 130.245 -0.921766 1.63967 0
M  V30 1297 O 129.603 -1.60589 0.84148 0
M  V30 1298 C 129.651 0.623799 3.55164 0
M  V30 1299 O 128.755 -0.342459 4.10976 0
M  V30 1300 H 128.096 0.190422 0.63611 0
M  V30 1301 H 130.626 1.15672 1.68764 0
M  V30 1302 H 130.636 0.512169 4.04773 0
M  V30 1303 H 129.311 1.64202 3.82113 0
M  V30 1304 H 127.888 -0.18688 3.72431 0
M  V30 1305 N 130.073 -1.45103 0.615059 0
M  V30 1306 C 131.319 -2.02483 0.113347 0
M  V30 1307 C 131.652 -1.48146 -1.25564 0
M  V30 1308 O 130.927 -0.659104 -1.82992 0
M  V30 1309 C 131.21 -3.60005 0.0825278 0
M  V30 1310 C 131.063 -4.2466 1.48271 0
M  V30 1311 C 132.382 -4.35972 -0.601401 0
M  V30 1312 H 129.501 -0.735764 0.0426632 0
M  V30 1313 H 132.143 -1.72868 0.788461 0
M  V30 1314 H 130.293 -3.85367 -0.492378 0
M  V30 1315 H 131.965 -4.10458 2.10527 0
M  V30 1316 H 130.208 -3.82772 2.04127 0
M  V30 1317 H 130.879 -5.336 1.41332 0
M  V30 1318 H 133.355 -4.15947 -0.112666 0
M  V30 1319 H 132.231 -5.45697 -0.592097 0
M  V30 1320 H 132.492 -4.09391 -1.66887 0
M  V30 1321 N 131.551 -0.354651 -1.53558 0
M  V30 1322 C 132.481 0.489091 -2.2832 0
M  V30 1323 C 133.462 1.09324 -1.30316 0
M  V30 1324 O 134.647 1.11255 -1.59173 0
M  V30 1325 C 131.777 1.63456 -3.0643 0
M  V30 1326 C 130.731 1.1582 -4.12031 0
M  V30 1327 C 130.057 2.39305 -4.7816 0
M  V30 1328 C 131.357 0.250731 -5.21698 0
M  V30 1329 H 133.051 -0.134614 -2.99097 0
M  V30 1330 H 130.597 -0.0661826 -1.43848 0
M  V30 1331 H 132.55 2.23136 -3.57475 0
M  V30 1332 H 131.274 2.28533 -2.33325 0
M  V30 1333 H 129.933 0.584146 -3.61916 0
M  V30 1334 H 129.581 3.02814 -4.01637 0
M  V30 1335 H 129.281 2.08109 -5.49513 0
M  V30 1336 H 130.805 2.99691 -5.31994 0
M  V30 1337 H 132.219 0.754695 -5.68311 0
M  V30 1338 H 130.616 0.0301468 -6.00092 0
M  V30 1339 H 131.686 -0.710125 -4.79672 0
M  V30 1340 N 133.029 1.57378 -0.0835403 0
M  V30 1341 C 134.257 1.98263 0.59157 0
M  V30 1342 C 134.672 0.962302 1.62435 0
M  V30 1343 O 134.029 -0.049581 1.82433 0
M  V30 1344 C 134.08 3.39214 1.24965 0
M  V30 1345 O 133.801 4.37339 0.258186 0
M  V30 1346 C 135.302 3.95038 2.01147 0
M  V30 1347 H 132.522 0.651773 0.159477 0
M  V30 1348 H 135.066 2.03878 -0.159415 0
M  V30 1349 H 133.221 3.34649 1.95164 0
M  V30 1350 H 133.635 5.19371 0.731734 0
M  V30 1351 H 135.109 4.95848 2.42567 0
M  V30 1352 H 135.586 3.32222 2.87272 0
M  V30 1353 H 136.192 4.0304 1.35789 0
M  V30 1354 N 134.507 -0.190092 1.56449 0
M  V30 1355 C 135.918 -0.754312 1.70784 0
M  V30 1356 C 136.269 -1.83631 0.690951 0
M  V30 1357 O 135.394 -2.15868 -0.151604 0
M  V30 1358 C 135.989 -1.37503 3.09642 0
M  V30 1359 C 134.548 -1.88628 3.25725 0
M  V30 1360 C 133.695 -0.758098 2.66736 0
M  V30 1361 H 136.646 0.0350524 1.58661 0
M  V30 1362 H 136.667 -2.2445 3.0725 0
M  V30 1363 H 136.179 -0.587302 3.83631 0
M  V30 1364 H 134.28 -2.70103 2.56661 0
M  V30 1365 H 134.393 -2.04462 4.3328 0
M  V30 1366 H 132.757 -1.17369 2.26046 0
M  V30 1367 H 133.54 0.0174705 3.43296 0
M  V30 1368 N 135.985 -1.50799 -0.457987 0
M  V30 1369 C 136.895 -1.73426 -1.57989 0
M  V30 1370 C 137.911 -0.617745 -1.62665 0
M  V30 1371 O 139.087 -0.897614 -1.80291 0
M  V30 1372 C 136.152 -1.83557 -2.94122 0
M  V30 1373 C 135.213 -3.07345 -2.99729 0
M  V30 1374 C 134.446 -3.16983 -4.29368 0
M  V30 1375 O 134.669 -2.33077 -5.20607 0
M  V30 1376 O 133.603 -4.09812 -4.40837 0
M  V30 1377 H 137.429 -2.68555 -1.41817 0
M  V30 1378 H 135.014 -1.35052 -0.638859 0
M  V30 1379 H 136.896 -1.92326 -3.74952 0
M  V30 1380 H 135.571 -0.916137 -3.10465 0
M  V30 1381 H 134.478 -3.04068 -2.1793 0
M  V30 1382 H 135.811 -3.9891 -2.88326 0
M  V30 1383 N 137.463 0.71206 -1.40597 0
M  V30 1384 C 138.393 1.83889 -1.43899 0
M  V30 1385 C 139.374 1.67442 -0.299504 0
M  V30 1386 O 140.559 1.87421 -0.508624 0
M  V30 1387 C 137.689 3.21877 -1.30431 0
M  V30 1388 C 136.643 3.53002 -2.42019 0
M  V30 1389 C 135.969 4.90172 -2.13626 0
M  V30 1390 C 137.269 3.53643 -3.84362 0
M  V30 1391 H 138.963 1.81383 -2.38203 0
M  V30 1392 H 136.509 0.871237 -1.14654 0
M  V30 1393 H 138.462 4.00404 -1.31357 0
M  V30 1394 H 137.186 3.24968 -0.326049 0
M  V30 1395 H 135.845 2.76818 -2.40349 0
M  V30 1396 H 135.493 4.89869 -1.14182 0
M  V30 1397 H 135.193 5.11962 -2.88389 0
M  V30 1398 H 136.717 5.71028 -2.1624 0
M  V30 1399 H 138.131 4.22203 -3.87837 0
M  V30 1400 H 136.528 3.86961 -4.58673 0
M  V30 1401 H 137.598 2.52954 -4.13693 0
M  V30 1402 N 138.941 1.26152 0.944643 0
M  V30 1403 C 140.166 1.14363 1.7302 0
M  V30 1404 C 140.591 -0.29772 1.85729 0
M  V30 1405 O 139.949 -1.2157 1.34501 0
M  V30 1406 C 139.997 1.81378 3.11664 0
M  V30 1407 O 139.101 1.10022 3.97453 0
M  V30 1408 H 138.442 0.398694 0.53098 0
M  V30 1409 H 140.972 1.66906 1.18337 0
M  V30 1410 H 140.982 1.88064 3.62072 0
M  V30 1411 H 139.657 2.86237 3.0173 0
M  V30 1412 H 138.234 1.11287 3.55907 0
M  V30 1413 N 140.419 -1.14872 1.07899 0
M  V30 1414 C 141.667 -1.85422 0.803941 0
M  V30 1415 C 141.988 -1.83051 -0.67211 0
M  V30 1416 O 141.258 -1.27532 -1.48703 0
M  V30 1417 H 139.838 -0.686537 0.294408 0
M  V30 1418 H 142.5 -1.39226 1.3639 0
M  V30 1419 H 141.596 -2.90399 1.14346 0
M  V30 1420 N 141.898 -0.863906 -1.31812 0
M  V30 1421 C 143.144 -0.472535 -1.97218 0
M  V30 1422 C 143.477 0.971394 -1.68159 0
M  V30 1423 O 142.752 1.68309 -0.974798 0
M  V30 1424 C 143.035 -0.723054 -3.52766 0
M  V30 1425 C 142.888 -2.21608 -3.91421 0
M  V30 1426 C 144.207 -0.185522 -4.39709 0
M  V30 1427 H 141.326 -0.173158 -0.71637 0
M  V30 1428 H 143.968 -1.08403 -1.56041 0
M  V30 1429 H 142.118 -0.202577 -3.87971 0
M  V30 1430 H 143.79 -2.80334 -3.66347 0
M  V30 1431 H 142.033 -2.691 -3.40246 0
M  V30 1432 H 142.704 -2.34203 -4.99853 0
M  V30 1433 H 145.18 -0.630726 -4.11292 0
M  V30 1434 H 144.056 -0.390306 -5.47511 0
M  V30 1435 H 144.317 0.912229 -4.32586 0
M  V30 1436 N 143.376 1.44774 -0.622745 0
M  V30 1437 C 144.622 2.0242 -0.124083 0
M  V30 1438 C 144.955 1.4881 1.24777 0
M  V30 1439 O 144.23 0.668799 1.8264 0
M  V30 1440 C 144.513 3.59957 -0.101619 0
M  V30 1441 C 144.366 4.23867 -1.50521 0
M  V30 1442 C 145.685 4.36284 0.578272 0
M  V30 1443 H 142.804 0.735528 -0.0465645 0
M  V30 1444 H 145.446 1.72447 -0.797617 0
M  V30 1445 H 143.596 3.85623 0.471934 0
M  V30 1446 H 145.268 4.09336 -2.12701 0
M  V30 1447 H 143.511 3.81684 -2.06154 0
M  V30 1448 H 144.182 5.32843 -1.4416 0
M  V30 1449 H 146.658 4.16001 0.0906057 0
M  V30 1450 H 145.534 5.46004 0.563149 0
M  V30 1451 H 145.795 4.10271 1.64713 0
M  V30 1452 N 144.854 0.36279 1.53368 0
M  V30 1453 C 146.1 -0.228113 2.01513 0
M  V30 1454 C 146.433 -1.48648 1.2497 0
M  V30 1455 O 145.708 -1.91459 0.342616 0
M  V30 1456 C 145.991 -0.522884 3.56284 0
M  V30 1457 C 145.844 0.74892 4.43521 0
M  V30 1458 C 147.163 -1.32461 4.19693 0
M  V30 1459 H 144.282 -0.0814343 0.732487 0
M  V30 1460 H 146.924 0.48713 1.83649 0
M  V30 1461 H 145.074 -1.1322 3.71636 0
M  V30 1462 H 146.746 1.38648 4.39971 0
M  V30 1463 H 144.989 1.36986 4.11603 0
M  V30 1464 H 145.66 0.497667 5.49752 0
M  V30 1465 H 148.136 -0.809203 4.08156 0
M  V30 1466 H 147.012 -1.49961 5.28018 0
M  V30 1467 H 147.273 -2.33232 3.75573 0
M  V30 1468 N 146.332 -1.57332 0.0918853 0
M  V30 1469 C 147.743 -1.81496 -0.437739 0
M  V30 1470 C 148.094 -1.00727 -1.6837 0
M  V30 1471 O 147.219 -0.235694 -2.15113 0
M  V30 1472 C 147.814 -3.29197 -0.800939 0
M  V30 1473 C 146.373 -3.54136 -1.27532 0
M  V30 1474 C 145.52 -2.75979 -0.270392 0
M  V30 1475 H 148.471 -1.55494 0.317366 0
M  V30 1476 H 148.492 -3.42344 -1.66074 0
M  V30 1477 H 148.004 -3.87955 0.106078 0
M  V30 1478 H 146.105 -3.00705 -2.20016 0
M  V30 1479 H 146.218 -4.62792 -1.23938 0
M  V30 1480 H 144.582 -2.43349 -0.751872 0
M  V30 1481 H 145.365 -3.37484 0.629248 0
M  V30 1482 N 147.81 0.181792 -1.56548 0
M  V30 1483 C 148.757 1.22521 -1.95595 0
M  V30 1484 C 149.727 1.4454 -0.818373 0
M  V30 1485 O 150.912 1.57454 -1.07763 0
M  V30 1486 C 148.052 2.56193 -2.31212 0
M  V30 1487 C 147.165 2.41641 -3.58097 0
M  V30 1488 C 146.3 3.68108 -3.82975 0
M  V30 1489 C 145.339 3.48445 -5.03242 0
M  V30 1490 N 144.476 4.66956 -5.24306 0
M  V30 1491 H 149.316 0.885226 -2.84548 0
M  V30 1492 H 146.853 0.425718 -1.40805 0
M  V30 1493 H 148.811 3.34088 -2.49882 0
M  V30 1494 H 147.441 2.88208 -1.45382 0
M  V30 1495 H 146.493 1.54976 -3.474 0
M  V30 1496 H 147.805 2.23052 -4.46149 0
M  V30 1497 H 146.959 4.54441 -4.01956 0
M  V30 1498 H 145.698 3.89666 -2.93278 0
M  V30 1499 H 144.703 2.60499 -4.8417 0
M  V30 1500 H 145.928 3.2832 -5.9446 0
M  V30 1501 H 143.874 4.88752 -4.37559 0
M  V30 1502 H 143.791 4.51242 -6.06561 0
M  V30 1503 H 145.059 5.54602 -5.47756 0
M  V30 1504 N 149.288 1.51039 0.449983 0
M  V30 1505 C 150.218 1.74379 1.55288 0
M  V30 1506 C 151.199 0.593236 1.5942 0
M  V30 1507 O 152.384 0.834625 1.7535 0
M  V30 1508 C 149.514 1.85728 2.93466 0
M  V30 1509 C 148.468 3.01078 3.04197 0
M  V30 1510 C 147.794 2.97595 4.44231 0
M  V30 1511 C 149.094 4.41254 2.7945 0
M  V30 1512 H 150.788 2.66725 1.36008 0
M  V30 1513 H 148.334 1.2835 0.652864 0
M  V30 1514 H 150.287 2.0064 3.70569 0
M  V30 1515 H 149.011 0.900207 3.13949 0
M  V30 1516 H 147.67 2.85851 2.29531 0
M  V30 1517 H 147.318 1.99691 4.61663 0
M  V30 1518 H 147.018 3.75046 4.52343 0
M  V30 1519 H 148.542 3.14583 5.23326 0
M  V30 1520 H 149.956 4.56897 3.46292 0
M  V30 1521 H 148.353 5.20315 2.98985 0
M  V30 1522 H 149.423 4.52164 1.75144 0
M  V30 1523 N 150.766 -0.704594 1.40972 0
M  V30 1524 C 151.676 -1.84856 1.44448 0
M  V30 1525 C 152.692 -1.70726 0.335961 0
M  V30 1526 O 153.868 -1.92799 0.582276 0
M  V30 1527 C 150.933 -3.20758 1.31587 0
M  V30 1528 C 149.994 -3.47063 2.52677 0
M  V30 1529 C 149.227 -4.76481 2.4042 0
M  V30 1530 O 149.45 -5.52341 1.42391 0
M  V30 1531 O 148.384 -5.03367 3.30007 0
M  V30 1532 H 152.21 -1.8488 2.40942 0
M  V30 1533 H 149.795 -0.85647 1.22413 0
M  V30 1534 H 151.677 -4.01913 1.26665 0
M  V30 1535 H 150.352 -3.21438 0.382049 0
M  V30 1536 H 149.259 -2.65873 2.63177 0
M  V30 1537 H 150.592 -3.5119 3.44858 0
M  V30 1538 N 152.244 -1.26651 -0.937939 0
M  V30 1539 C 153.177 -1.02811 -2.03728 0
M  V30 1540 C 154.155 0.0481915 -1.62529 0
M  V30 1541 O 155.339 -0.0948839 -1.88261 0
M  V30 1542 C 152.466 -0.557517 -3.3408 0
M  V30 1543 C 151.512 -1.62686 -3.94253 0
M  V30 1544 S 152.345 -3.21667 -4.28125 0
M  V30 1545 C 153.501 -2.76384 -5.61572 0
M  V30 1546 H 153.734 -1.95891 -2.23638 0
M  V30 1547 H 151.267 -1.10367 -1.07974 0
M  V30 1548 H 153.225 -0.292674 -4.09455 0
M  V30 1549 H 151.886 0.353062 -3.12109 0
M  V30 1550 H 151.079 -1.24866 -4.88287 0
M  V30 1551 H 150.681 -1.84324 -3.25424 0
M  V30 1552 H 152.973 -2.2105 -6.40424 0
M  V30 1553 H 153.916 -3.69123 -6.0428 0
M  V30 1554 H 154.324 -2.15847 -5.21604 0
M  V30 1555 N 153.722 1.14298 -1.08507 0
M  V30 1556 C 154.97 1.84993 -0.813763 0
M  V30 1557 C 155.291 1.83405 0.662393 0
M  V30 1558 O 154.561 1.28319 1.48024 0
M  V30 1559 H 153.141 0.684966 -0.298045 0
M  V30 1560 H 155.803 1.385 -1.37126 0
M  V30 1561 H 154.899 2.89788 -1.15884 0
M  V30 1562 N 155.201 0.870884 1.31352 0
M  V30 1563 C 156.164 0.332243 2.26779 0
M  V30 1564 C 157.164 -0.517302 1.52252 0
M  V30 1565 O 158.354 -0.326477 1.71113 0
M  V30 1566 C 155.486 -0.528066 3.36785 0
M  V30 1567 H 156.679 1.17469 2.75937 0
M  V30 1568 H 154.232 0.64655 1.423 0
M  V30 1569 H 154.967 -1.39167 2.92922 0
M  V30 1570 H 154.752 0.0802582 3.92018 0
M  V30 1571 H 156.242 -0.897179 4.07849 0
M  V30 1572 N 156.679 -1.44442 0.630414 0
M  V30 1573 C 157.589 -2.34476 -0.0761693 0
M  V30 1574 C 158.605 -1.52576 -0.836449 0
M  V30 1575 O 159.781 -1.85307 -0.788874 0
M  V30 1576 C 156.846 -3.30545 -1.04599 0
M  V30 1577 C 155.907 -4.28352 -0.28516 0
M  V30 1578 C 155.14 -5.19831 -1.20878 0
M  V30 1579 O 155.363 -5.15223 -2.44747 0
M  V30 1580 O 154.297 -5.97892 -0.693491 0
M  V30 1581 H 158.123 -2.96345 0.664324 0
M  V30 1582 H 155.708 -1.44203 0.39061 0
M  V30 1583 H 157.59 -3.89681 -1.60396 0
M  V30 1584 H 156.265 -2.7121 -1.76711 0
M  V30 1585 H 155.172 -3.72764 0.315837 0
M  V30 1586 H 156.505 -4.90605 0.395924 0
M  V30 1587 N 158.157 -0.370918 -1.53173 0
M  V30 1588 C 159.12 0.460778 -2.24521 0
M  V30 1589 C 160.12 1.00536 -1.25496 0
M  V30 1590 O 161.31 0.890266 -1.49733 0
M  V30 1591 C 158.442 1.64457 -2.98608 0
M  V30 1592 H 159.635 -0.163613 -2.99453 0
M  V30 1593 H 157.188 -0.122699 -1.55818 0
M  V30 1594 H 157.923 2.30691 -2.2793 0
M  V30 1595 H 157.708 1.26099 -3.7127 0
M  V30 1596 H 159.198 2.23384 -3.5283 0
M  V30 1597 N 159.635 1.57281 -0.100228 0
M  V30 1598 C 161.051 1.57527 0.256416 0
M  V30 1599 C 161.251 1.11173 1.68056 0
M  V30 1600 O 160.307 0.79053 2.39806 0
M  V30 1601 C 161.62 3.00673 0.0401747 0
M  V30 1602 C 163.168 3.12815 0.107528 0
M  V30 1603 C 163.643 4.57929 -0.0807834 0
M  V30 1604 N 165.134 4.63193 -0.0261207 0
M  V30 1605 C 165.869 5.73212 -0.146999 0
M  V30 1606 N 165.365 6.92047 -0.322999 0
M  V30 1607 N 167.158 5.62031 -0.0879044 0
M  V30 1608 H 159.309 1.85718 -1.03065 0
M  V30 1609 H 161.572 0.857446 -0.404339 0
M  V30 1610 H 161.278 3.38804 -0.943649 0
M  V30 1611 H 161.152 3.69042 0.780262 0
M  V30 1612 H 163.539 2.74554 1.08186 0
M  V30 1613 H 163.62 2.47028 -0.664134 0
M  V30 1614 H 163.264 4.96886 -1.05201 0
M  V30 1615 H 163.194 5.21783 0.710635 0
M  V30 1616 H 165.685 3.77748 0.107161 0
M  V30 1617 H 165.998 7.7173 -0.406608 0
M  V30 1618 H 164.343 6.94074 -0.358733 0
M  V30 1619 H 167.534 4.68075 0.048498 0
M  V30 1620 H 167.707 6.47734 -0.185557 0
M  V30 1621 N 161.113 -0.173488 1.56642 0
M  V30 1622 C 162.045 -1.23935 1.92802 0
M  V30 1623 C 163.058 -1.40589 0.820889 0
M  V30 1624 O 164.247 -1.40631 1.09933 0
M  V30 1625 C 161.347 -2.60837 2.16373 0
M  V30 1626 C 160.52 -2.6551 3.47596 0
M  V30 1627 C 159.579 -3.8376 3.60021 0
M  V30 1628 O 158.605 -3.69859 4.32658 0
M  V30 1629 N 159.807 -5.00127 2.94709 0
M  V30 1630 H 162.572 -0.932236 2.84832 0
M  V30 1631 H 160.133 -0.363268 1.57772 0
M  V30 1632 H 162.125 -3.38407 2.21952 0
M  V30 1633 H 160.695 -2.83948 1.30738 0
M  V30 1634 H 159.915 -1.74052 3.53694 0
M  V30 1635 H 161.203 -2.65641 4.33949 0
M  V30 1636 H 160.601 -5.14322 2.35563 0
M  V30 1637 H 159.158 -5.75567 3.05886 0
M  V30 1638 N 162.591 -1.51276 -0.441967 0
M  V30 1639 C 163.837 -1.63958 -1.19355 0
M  V30 1640 C 164.17 -0.352543 -1.90973 0
M  V30 1641 O 163.445 0.647627 -1.83401 0
M  V30 1642 C 163.728 -2.83979 -2.21422 0
M  V30 1643 C 163.581 -4.22646 -1.53918 0
M  V30 1644 C 164.9 -2.99521 -3.22451 0
M  V30 1645 H 162.019 -0.596709 -0.432559 0
M  V30 1646 H 164.661 -1.83748 -0.483398 0
M  V30 1647 H 162.811 -2.67237 -2.81987 0
M  V30 1648 H 164.483 -4.51045 -0.967256 0
M  V30 1649 H 162.726 -4.25558 -0.841615 0
M  V30 1650 H 163.397 -5.02609 -2.28229 0
M  V30 1651 H 165.873 -3.14944 -2.71937 0
M  V30 1652 H 164.749 -3.85072 -3.91166 0
M  V30 1653 H 165.01 -2.11391 -3.88287 0
M  V30 1654 N 164.069 0.697108 -1.41344 0
M  V30 1655 C 165.032 1.79281 -1.42797 0
M  V30 1656 C 166.032 1.57607 -0.318837 0
M  V30 1657 O 167.222 1.64309 -0.578642 0
M  V30 1658 C 164.354 3.17632 -1.23785 0
M  V30 1659 H 165.547 1.79385 -2.40335 0
M  V30 1660 H 163.1 0.904582 -1.27464 0
M  V30 1661 H 163.835 3.23167 -0.270814 0
M  V30 1662 H 163.62 3.34765 -2.04144 0
M  V30 1663 H 165.11 3.97617 -1.27633 0
M  V30 1664 N 165.547 1.27147 0.931209 0
M  V30 1665 C 166.479 1.05364 2.03546 0
M  V30 1666 C 167.492 0.0108438 1.62796 0
M  V30 1667 O 168.681 0.25202 1.76712 0
M  V30 1668 C 165.781 0.575566 3.33977 0
M  V30 1669 C 164.954 1.68985 4.03439 0
M  V30 1670 C 164.013 1.20813 5.12143 0
M  V30 1671 O 163.039 1.90712 5.363 0
M  V30 1672 N 164.241 0.0618851 5.80467 0
M  V30 1673 H 167.006 2.00454 2.22796 0
M  V30 1674 H 164.567 1.18666 1.10136 0
M  V30 1675 H 166.559 0.237264 4.04004 0
M  V30 1676 H 165.129 -0.282016 3.11325 0
M  V30 1677 H 164.349 2.19861 3.27192 0
M  V30 1678 H 165.637 2.4378 4.46597 0
M  V30 1679 H 165.035 -0.521621 5.6329 0
M  V30 1680 H 163.592 -0.217264 6.51438 0
M  V30 1681 N 167.025 -1.13721 1.09112 0
M  V30 1682 C 167.958 -2.18094 0.67158 0
M  V30 1683 C 168.936 -1.59414 -0.320299 0
M  V30 1684 O 170.12 -1.87183 -0.222444 0
M  V30 1685 C 167.247 -3.38698 -0.0111189 0
M  V30 1686 C 166.293 -4.15966 0.942055 0
M  V30 1687 S 167.126 -4.7604 2.45246 0
M  V30 1688 C 168.282 -5.99994 1.78208 0
M  V30 1689 H 168.515 -2.53344 1.55577 0
M  V30 1690 H 166.048 -1.24967 0.906789 0
M  V30 1691 H 168.006 -4.08559 -0.398716 0
M  V30 1692 H 166.667 -3.01756 -0.871905 0
M  V30 1693 H 165.86 -5.02318 0.411396 0
M  V30 1694 H 165.462 -3.51745 1.2709 0
M  V30 1695 H 167.754 -6.68441 1.10424 0
M  V30 1696 H 168.697 -6.57662 2.62463 0
M  V30 1697 H 169.105 -5.50432 1.25238 0
M  V30 1698 N 168.503 -0.877838 -1.30888 0
M  V30 1699 C 169.433 -0.35534 -2.3078 0
M  V30 1700 C 170.414 0.557994 -1.60687 0
M  V30 1701 O 171.599 0.473355 -1.88343 0
M  V30 1702 C 168.729 0.437221 -3.44537 0
M  V30 1703 C 167.683 -0.383715 -4.26276 0
M  V30 1704 C 167.009 0.535014 -5.32017 0
M  V30 1705 C 168.309 -1.62201 -4.96476 0
M  V30 1706 H 170.003 -1.19007 -2.74732 0
M  V30 1707 H 167.549 -0.573698 -1.32078 0
M  V30 1708 H 169.502 0.813334 -4.13477 0
M  V30 1709 H 168.226 1.30553 -2.99372 0
M  V30 1710 H 166.885 -0.741874 -3.59015 0
M  V30 1711 H 166.533 1.40083 -4.831 0
M  V30 1712 H 166.233 -0.0104211 -5.87599 0
M  V30 1713 H 167.757 0.907799 -6.03814 0
M  V30 1714 H 169.171 -1.31689 -5.5797 0
M  V30 1715 H 167.568 -2.10711 -5.61891 0
M  V30 1716 H 168.638 -2.37044 -4.23011 0
M  V30 1717 N 169.982 1.44106 -0.638065 0
M  V30 1718 C 170.914 2.28976 0.101205 0
M  V30 1719 C 171.927 1.4167 0.802088 0
M  V30 1720 O 173.116 1.65755 0.662375 0
M  V30 1721 C 170.216 3.18217 1.16581 0
M  V30 1722 C 169.389 4.33978 0.546066 0
M  V30 1723 C 168.448 5.04202 1.50554 0
M  V30 1724 O 167.474 5.59986 1.01999 0
M  V30 1725 N 168.676 5.06296 2.8398 0
M  V30 1726 H 171.441 2.93064 -0.627186 0
M  V30 1727 H 169.002 1.54629 -0.479731 0
M  V30 1728 H 170.994 3.62061 1.80815 0
M  V30 1729 H 169.564 2.55833 1.79634 0
M  V30 1730 H 168.784 3.93239 -0.275046 0
M  V30 1731 H 170.072 5.08675 0.112793 0
M  V30 1732 H 169.47 4.62319 3.26002 0
M  V30 1733 H 168.027 5.53907 3.43556 0
M  V30 1734 N 171.46 0.379036 1.52974 0
M  V30 1735 C 172.37 -0.468639 2.29872 0
M  V30 1736 C 173.386 -1.08067 1.36373 0
M  V30 1737 O 174.562 -1.08871 1.69438 0
M  V30 1738 C 171.627 -1.58594 3.083 0
M  V30 1739 C 170.688 -1.00007 4.17489 0
M  V30 1740 C 169.921 -2.06413 4.92168 0
M  V30 1741 O 170.144 -3.27751 4.66835 0
M  V30 1742 O 169.078 -1.68717 5.7777 0
M  V30 1743 H 172.904 0.157508 3.03291 0
M  V30 1744 H 170.489 0.143035 1.48714 0
M  V30 1745 H 172.371 -2.23525 3.57232 0
M  V30 1746 H 171.046 -2.19724 2.37703 0
M  V30 1747 H 169.953 -0.314299 3.72777 0
M  V30 1748 H 171.286 -0.433135 4.90291 0
M  V30 1749 N 172.938 -1.57226 0.108567 0
M  V30 1750 C 174.354 -1.5766 -0.248058 0
M  V30 1751 C 174.554 -1.12063 -1.67464 0
M  V30 1752 O 173.61 -0.803236 -2.39383 0
M  V30 1753 C 174.923 -3.0069 -0.0242287 0
M  V30 1754 C 176.471 -3.12868 -0.0909372 0
M  V30 1755 C 176.946 -4.57879 0.105067 0
M  V30 1756 N 178.437 -4.63172 0.0506846 0
M  V30 1757 C 179.172 -5.73126 0.177396 0
M  V30 1758 N 178.668 -6.91866 0.359696 0
M  V30 1759 N 180.461 -5.61977 0.117709 0
M  V30 1760 H 172.612 -1.85169 1.04049 0
M  V30 1761 H 174.875 -0.85529 0.40888 0
M  V30 1762 H 174.581 -3.38299 0.961604 0
M  V30 1763 H 174.455 -3.6945 -0.76068 0
M  V30 1764 H 176.842 -2.75124 -1.06729 0
M  V30 1765 H 176.923 -2.46672 0.677225 0
M  V30 1766 H 176.567 -4.96321 1.07834 0
M  V30 1767 H 176.497 -5.22153 -0.682954 0
M  V30 1768 H 178.988 -3.778 -0.0871266 0
M  V30 1769 H 179.301 -7.71503 0.447529 0
M  V30 1770 H 177.646 -6.93874 0.395536 0
M  V30 1771 H 180.837 -4.68094 -0.0236741 0
M  V30 1772 H 181.01 -6.47627 0.219905 0
M  V30 1773 N 174.416 0.165178 -1.56732 0
M  V30 1774 C 175.641 0.900253 -1.86843 0
M  V30 1775 C 176.066 1.74766 -0.695596 0
M  V30 1776 O 175.424 1.77786 0.35522 0
M  V30 1777 C 175.472 1.74777 -3.15413 0
M  V30 1778 O 174.576 2.85007 -2.98068 0
M  V30 1779 H 173.917 0.251832 -0.614391 0
M  V30 1780 H 176.447 0.161468 -2.03962 0
M  V30 1781 H 176.457 2.14646 -3.46974 0
M  V30 1782 H 175.132 1.12537 -4.00385 0
M  V30 1783 H 173.709 2.48676 -2.77875 0
M  V30 1784 N 175.894 1.51508 0.433938 0
M  V30 1785 C 176.824 1.76016 1.53429 0
M  V30 1786 C 177.805 0.610112 1.58782 0
M  V30 1787 O 178.99 0.853177 1.74455 0
M  V30 1788 C 176.12 1.88831 2.9148 0
M  V30 1789 C 175.074 3.04288 3.00987 0
M  V30 1790 C 174.4 3.0229 4.4105 0
M  V30 1791 C 175.7 4.44193 2.74754 0
M  V30 1792 H 177.394 2.68152 1.33171 0
M  V30 1793 H 174.94 1.29035 0.639214 0
M  V30 1794 H 176.893 2.04559 3.6842 0
M  V30 1795 H 175.617 0.933455 3.12976 0
M  V30 1796 H 174.276 2.8827 2.26486 0
M  V30 1797 H 173.924 2.04576 4.59519 0
M  V30 1798 H 173.624 3.79822 4.4834 0
M  V30 1799 H 175.148 3.20116 5.1996 0
M  V30 1800 H 176.562 4.60544 3.41426 0
M  V30 1801 H 174.959 5.23457 2.9345 0
M  V30 1802 H 176.029 4.53996 1.70339 0
M  V30 1803 N 177.372 -0.689602 1.41712 0
M  V30 1804 C 178.783 -1.26973 1.36875 0
M  V30 1805 C 179.134 -1.96124 0.054748 0
M  V30 1806 O 178.259 -1.99141 -0.84687 0
M  V30 1807 C 178.854 -2.30912 2.47922 0
M  V30 1808 C 177.413 -2.84486 2.46464 0
M  V30 1809 C 176.56 -1.58603 2.27465 0
M  V30 1810 H 179.511 -0.48396 1.51141 0
M  V30 1811 H 179.532 -3.12331 2.17323 0
M  V30 1812 H 179.044 -1.80554 3.43543 0
M  V30 1813 H 177.145 -3.39005 1.54617 0
M  V30 1814 H 177.258 -3.34511 3.42986 0
M  V30 1815 H 175.622 -1.84632 1.75451 0
M  V30 1816 H 176.405 -1.10233 3.25121 0
M  V30 1817 N 178.85 -1.27639 -0.924453 0
M  V30 1818 C 179.78 -1.13166 -2.04244 0
M  V30 1819 C 180.761 -0.032256 -1.70069 0
M  V30 1820 O 181.946 -0.207328 -1.9309 0
M  V30 1821 C 179.076 -0.781496 -3.38393 0
M  V30 1822 C 178.03 -1.83449 -3.86692 0
M  V30 1823 C 177.356 -1.33822 -5.17683 0
M  V30 1824 C 178.656 -3.23917 -4.09726 0
M  V30 1825 H 180.35 -2.06689 -2.1661 0
M  V30 1826 H 177.896 -0.995136 -1.04082 0
M  V30 1827 H 179.849 -0.667057 -4.16087 0
M  V30 1828 H 178.573 0.189439 -3.2605 0
M  V30 1829 H 177.232 -1.93789 -3.11193 0
M  V30 1830 H 176.88 -0.35665 -5.01734 0
M  V30 1831 H 176.58 -2.04224 -5.50968 0
M  V30 1832 H 178.104 -1.23679 -5.97943 0
M  V30 1833 H 179.518 -3.16559 -4.77978 0
M  V30 1834 H 177.915 -3.92059 -4.54324 0
M  V30 1835 H 178.985 -3.68729 -3.14908 0
M  V30 1836 N 180.328 1.1314 -1.09713 0
M  V30 1837 C 181.739 1.66029 -0.853885 0
M  V30 1838 C 182.09 1.86241 0.617142 0
M  V30 1839 O 181.215 1.5834 1.47503 0
M  V30 1840 C 181.81 3.01599 -1.5435 0
M  V30 1841 C 180.369 3.51467 -1.34714 0
M  V30 1842 C 179.516 2.26648 -1.59769 0
M  V30 1843 H 182.467 0.970226 -1.25588 0
M  V30 1844 H 182.488 3.67709 -0.978267 0
M  V30 1845 H 182 2.86856 -2.6141 0
M  V30 1846 H 180.101 3.71408 -0.297838 0
M  V30 1847 H 180.214 4.314 -2.08401 0
M  V30 1848 H 178.578 2.33385 -1.01998 0
M  V30 1849 H 179.361 2.14467 -2.68065 0
M  V30 1850 N 181.806 0.884767 1.30421 0
M  V30 1851 C 183.055 0.499164 1.95426 0
M  V30 1852 C 183.368 -0.95645 1.70621 0
M  V30 1853 O 184.574 -1.44889 2.29607 0
M  V30 1854 C 183.03 0.84177 3.49917 0
M  V30 1855 C 182.638 2.31514 3.83543 0
M  V30 1856 C 184.382 0.525355 4.21237 0
M  V30 1857 C 182.289 2.59939 5.31212 0
M  V30 1858 H 181.219 0.182944 0.73147 0
M  V30 1859 H 183.87 1.07971 1.48373 0
M  V30 1860 H 182.252 0.190311 3.95542 0
M  V30 1861 H 183.426 3.0109 3.48829 0
M  V30 1862 H 181.741 2.59907 3.25326 0
M  V30 1863 H 184.338 0.714762 5.29901 0
M  V30 1864 H 184.681 -0.535222 4.12845 0
M  V30 1865 H 185.214 1.134 3.81294 0
M  V30 1866 H 181.953 3.64736 5.44654 0
M  V30 1867 H 181.473 1.94972 5.67227 0
M  V30 1868 H 183.152 2.45429 5.98643 0
M  V30 1869 N 183.284 -1.43765 0.645699 0
M  V30 1870 C 184.214 -2.33471 -0.0370477 0
M  V30 1871 C 185.195 -1.49042 -0.819779 0
M  V30 1872 O 186.38 -1.77726 -0.782758 0
M  V30 1873 C 183.51 -3.32311 -1.0093 0
M  V30 1874 C 182.464 -4.2667 -0.337201 0
M  V30 1875 C 181.79 -5.1549 -1.42037 0
M  V30 1876 C 183.09 -5.16657 0.765706 0
M  V30 1877 H 184.784 -2.90809 0.712069 0
M  V30 1878 H 182.33 -1.39834 0.343876 0
M  V30 1879 H 184.283 -3.9396 -1.49578 0
M  V30 1880 H 183.007 -2.73213 -1.78948 0
M  V30 1881 H 181.666 -3.66374 0.128771 0
M  V30 1882 H 181.314 -4.52735 -2.1918 0
M  V30 1883 H 181.014 -5.79438 -0.975966 0
M  V30 1884 H 182.538 -5.80012 -1.90838 0
M  V30 1885 H 183.952 -5.72158 0.361702 0
M  V30 1886 H 182.349 -5.89286 1.13413 0
M  V30 1887 H 183.419 -4.56796 1.62683 0
M  V30 1888 N 184.763 -0.387143 -1.52771 0
M  V30 1889 C 185.726 0.436939 -2.24997 0
M  V30 1890 C 186.726 0.991991 -1.26555 0
M  V30 1891 O 187.916 0.874335 -1.50669 0
M  V30 1892 C 185.048 1.61281 -3.00335 0
M  V30 1893 H 186.241 -0.195365 -2.99263 0
M  V30 1894 H 183.794 -0.139218 -1.55679 0
M  V30 1895 H 184.529 2.2826 -2.30364 0
M  V30 1896 H 184.314 1.22154 -3.72587 0
M  V30 1897 H 185.804 2.19629 -3.5518 0
M  V30 1898 N 186.241 1.57166 -0.116904 0
M  V30 1899 C 187.489 1.94737 0.540533 0
M  V30 1900 C 187.81 1.00096 1.67349 0
M  V30 1901 O 187.08 0.0568854 1.95817 0
M  V30 1902 H 185.66 0.718981 0.202669 0
M  V30 1903 H 188.322 1.94017 -0.185353 0
M  V30 1904 H 187.418 2.97719 0.936483 0
M  V30 1905 N 187.719 -0.156864 1.56817 0
M  V30 1906 C 188.649 -1.19589 2.00551 0
M  V30 1907 C 189.63 -1.4536 0.883426 0
M  V30 1908 O 190.815 -1.56449 1.15054 0
M  V30 1909 C 187.945 -2.53143 2.37773 0
M  V30 1910 C 186.899 -2.41913 3.53075 0
M  V30 1911 C 186.225 -3.80088 3.76081 0
M  V30 1912 C 187.525 -1.91157 4.86062 0
M  V30 1913 H 189.219 -0.832293 2.87599 0
M  V30 1914 H 186.765 -0.398918 1.38364 0
M  V30 1915 H 188.718 -3.26047 2.66967 0
M  V30 1916 H 187.442 -2.91319 1.4765 0
M  V30 1917 H 186.101 -1.71462 3.24031 0
M  V30 1918 H 185.749 -4.15683 2.83225 0
M  V30 1919 H 185.449 -3.73439 4.53671 0
M  V30 1920 H 186.973 -4.54556 4.0769 0
M  V30 1921 H 188.387 -2.53846 5.14038 0
M  V30 1922 H 186.784 -1.95422 5.67389 0
M  V30 1923 H 187.854 -0.866673 4.77092 0
M  V30 1924 N 189.197 -1.51736 -0.425897 0
M  V30 1925 C 190.107 -1.76738 -1.54275 0
M  V30 1926 C 191.123 -0.65211 -1.61318 0
M  V30 1927 O 192.299 -0.935654 -1.78346 0
M  V30 1928 C 189.364 -1.89755 -2.90162 0
M  V30 1929 C 188.425 -3.13633 -2.93143 0
M  V30 1930 C 187.658 -3.2602 -4.22548 0
M  V30 1931 O 187.881 -2.44067 -5.15546 0
M  V30 1932 O 186.815 -4.19071 -4.32046 0
M  V30 1933 H 190.641 -2.71502 -1.36089 0
M  V30 1934 H 188.226 -1.36376 -0.610069 0
M  V30 1935 H 190.108 -2.00236 -3.70788 0
M  V30 1936 H 188.783 -0.981785 -3.08452 0
M  V30 1937 H 187.69 -3.08622 -2.11431 0
M  V30 1938 H 189.023 -4.04936 -2.798 0
M  V30 1939 N 190.675 0.682077 -1.42076 0
M  V30 1940 C 191.903 1.47057 -1.4554 0
M  V30 1941 C 192.318 1.8869 -0.0645779 0
M  V30 1942 O 191.675 1.57666 0.919115 0
M  V30 1943 C 191.726 2.72442 -2.37609 0
M  V30 1944 O 191.447 2.32559 -3.71279 0
M  V30 1945 C 192.948 3.66069 -2.50017 0
M  V30 1946 H 190.168 0.452737 -0.495248 0
M  V30 1947 H 192.712 0.838695 -1.8651 0
M  V30 1948 H 190.867 3.31835 -1.9991 0
M  V30 1949 H 191.281 3.13475 -4.20516 0
M  V30 1950 H 192.755 4.50792 -3.18576 0
M  V30 1951 H 193.232 4.11476 -1.53572 0
M  V30 1952 H 193.838 3.12572 -2.88407 0
M  V30 1953 N 192.153 1.28127 0.917671 0
M  V30 1954 C 193.401 1.14825 1.66312 0
M  V30 1955 C 193.722 -0.304379 1.9261 0
M  V30 1956 O 192.992 -1.21149 1.53947 0
M  V30 1957 H 191.572 0.421953 0.616413 0
M  V30 1958 H 194.234 1.608 1.10134 0
M  V30 1959 H 193.33 1.68489 2.62712 0
M  V30 1960 N 193.631 -1.12557 1.10312 0
M  V30 1961 C 194.594 -2.16434 0.75424 0
M  V30 1962 C 195.594 -1.59278 -0.220685 0
M  V30 1963 O 196.784 -1.742 0.00230591 0
M  V30 1964 C 193.916 -3.40699 0.116987 0
M  V30 1965 H 195.109 -2.48811 1.67431 0
M  V30 1966 H 192.662 -1.27542 0.903475 0
M  V30 1967 H 193.397 -3.13921 -0.813877 0
M  V30 1968 H 193.182 -3.83459 0.818613 0
M  V30 1969 H 194.672 -4.17451 -0.111387 0
M  V30 1970 N 195.109 -0.891671 -1.2995 0
M  V30 1971 C 196.357 -0.512486 -1.95494 0
M  V30 1972 C 196.678 0.942776 -1.70695 0
M  V30 1973 O 195.948 1.66374 -1.03424 0
M  V30 1974 H 194.528 -0.186533 -0.723336 0
M  V30 1975 H 197.19 -1.13621 -1.58355 0
M  V30 1976 H 196.286 -0.688342 -3.04415 0
M  V30 1977 N 196.587 1.43421 -0.653314 0
M  V30 1978 C 197.833 2.02111 -0.166992 0
M  V30 1979 C 198.166 1.51423 1.21592 0
M  V30 1980 O 197.441 0.707389 1.8118 0
M  V30 1981 C 197.724 3.5966 -0.177948 0
M  V30 1982 C 197.577 4.20579 -1.59478 0
M  V30 1983 C 198.896 4.37413 0.4856 0
M  V30 1984 H 196.015 0.734374 -0.0621557 0
M  V30 1985 H 198.657 1.70717 -0.834016 0
M  V30 1986 H 196.807 3.86537 0.390032 0
M  V30 1987 H 198.479 4.04732 -2.21336 0
M  V30 1988 H 196.722 3.77226 -2.14204 0
M  V30 1989 H 197.393 5.29665 -1.5543 0
M  V30 1990 H 199.869 4.161 0.00234528 0
M  V30 1991 H 198.745 5.47075 0.447207 0
M  V30 1992 H 199.006 4.13672 1.55974 0
M  V30 1993 N 198.065 0.39524 1.52563 0
M  V30 1994 C 199.311 -0.177763 2.02622 0
M  V30 1995 C 199.666 -1.43974 1.27629 0
M  V30 1996 O 198.959 -1.87995 0.36992 0
M  V30 1997 C 199.153 -0.493444 3.53977 0
M  V30 1998 C 198.982 0.736392 4.4363 0
M  V30 1999 C 197.752 1.25744 4.89404 0
M  V30 2000 C 199.95 1.61046 4.88435 0
M  V30 2001 N 197.932 2.44421 5.63145 0
M  V30 2002 C 199.303 2.64359 5.60816 0
M  V30 2003 C 201.358 1.62985 4.70468 0
M  V30 2004 C 200.061 3.69505 6.17137 0
M  V30 2005 C 202.087 2.67042 5.27677 0
M  V30 2006 C 201.449 3.69077 5.99968 0
M  V30 2007 H 197.548 -0.0269794 0.781534 0
M  V30 2008 H 200.132 0.546466 1.86874 0
M  V30 2009 H 198.303 -1.18672 3.69826 0
M  V30 2010 H 200.035 -1.05412 3.90731 0
M  V30 2011 H 196.79 0.817546 4.6649 0
M  V30 2012 H 197.214 3.04485 6.04663 0
M  V30 2013 H 201.856 0.854442 4.14076 0
M  V30 2014 H 199.574 4.4791 6.72608 0
M  V30 2015 H 203.16 2.69433 5.15652 0
M  V30 2016 H 202.04 4.48273 6.43444 0
M  V30 2017 N 199.544 -1.57102 0.125237 0
M  V30 2018 C 200.492 -2.16905 -0.839927 0
M  V30 2019 C 201.486 -1.11998 -1.27094 0
M  V30 2020 O 202.692 -1.3029 -1.24195 0
M  V30 2021 H 199.067 -0.694252 -0.288995 0
M  V30 2022 H 201.038 -2.96774 -0.311115 0
M  V30 2023 C 199.787 -2.78795 -2.07771 0
M  V30 2024 H 199.11 -3.59221 -1.755 0
M  V30 2025 H 200.55 -3.2417 -2.73295 0
M  V30 2026 C 199.009 -1.76193 -2.87155 0
M  V30 2027 O 199.539 -1.21909 -3.82755 0
M  V30 2028 N 197.745 -1.45991 -2.51267 0
M  V30 2029 H 197.292 -1.90325 -1.73592 0
M  V30 2030 H 197.25 -0.775844 -3.04677 0
M  V30 2031 N 201.022 0.148545 -1.56898 0
M  V30 2032 C 201.985 1.16736 -1.97244 0
M  V30 2033 C 202.985 1.35947 -0.858777 0
M  V30 2034 O 204.175 1.32966 -1.12542 0
M  V30 2035 C 201.307 2.52798 -2.28705 0
M  V30 2036 H 202.5 0.821279 -2.88435 0
M  V30 2037 H 200.053 0.391831 -1.51309 0
M  V30 2038 H 200.788 2.92381 -1.403 0
M  V30 2039 H 200.573 2.40216 -3.09901 0
M  V30 2040 H 202.063 3.26179 -2.60762 0
M  V30 2041 N 202.5 1.5196 0.417844 0
M  V30 2042 C 203.916 1.40569 0.755816 0
M  V30 2043 C 204.116 0.503316 1.95113 0
M  V30 2044 O 203.172 -0.0341925 2.52477 0
M  V30 2045 C 204.485 2.82947 1.01791 0
M  V30 2046 C 206.033 2.92231 1.12116 0
M  V30 2047 C 206.508 4.35559 1.41608 0
M  V30 2048 N 207.999 4.38753 1.48491 0
M  V30 2049 C 208.734 5.46705 1.7292 0
M  V30 2050 N 208.23 6.64788 1.95011 0
M  V30 2051 N 210.023 5.34209 1.74863 0
M  V30 2052 H 202.174 2.09168 -0.369098 0
M  V30 2053 H 204.437 0.942409 -0.102809 0
M  V30 2054 H 204.143 3.5106 0.212081 0
M  V30 2055 H 204.017 3.23462 1.94042 0
M  V30 2056 H 206.404 2.24304 1.9176 0
M  V30 2057 H 206.485 2.55185 0.177225 0
M  V30 2058 H 206.129 5.04042 0.624848 0
M  V30 2059 H 206.059 4.70133 2.37239 0
M  V30 2060 H 208.55 3.5363 1.33244 0
M  V30 2061 H 208.863 7.42845 2.13076 0
M  V30 2062 H 207.208 6.67869 1.92293 0
M  V30 2063 H 210.399 4.40937 1.57137 0
M  V30 2064 H 210.572 6.18415 1.93563 0
M  V30 2065 N 203.978 -0.674533 1.42435 0
M  V30 2066 C 204.888 -1.81751 1.48337 0
M  V30 2067 C 205.904 -1.69975 0.372099 0
M  V30 2068 O 207.08 -1.91521 0.62304 0
M  V30 2069 C 204.145 -3.17895 1.38361 0
M  V30 2070 C 203.206 -3.41625 2.59982 0
M  V30 2071 C 202.439 -4.71274 2.50473 0
M  V30 2072 O 202.662 -5.49197 1.54075 0
M  V30 2073 O 201.596 -4.96254 3.4061 0
M  V30 2074 H 205.422 -1.79728 2.44809 0
M  V30 2075 H 203.007 -0.830312 1.24202 0
M  V30 2076 H 204.889 -3.99136 1.35161 0
M  V30 2077 H 203.564 -3.20555 0.450144 0
M  V30 2078 H 202.471 -2.60231 2.68757 0
M  V30 2079 H 203.804 -3.43796 3.52229 0
M  V30 2080 N 205.456 -1.28612 -0.910864 0
M  V30 2081 C 206.705 -1.15311 -1.65488 0
M  V30 2082 C 207.018 0.296999 -1.93332 0
M  V30 2083 O 208.224 0.551168 -2.65847 0
M  V30 2084 C 206.68 -2.01599 -2.98137 0
M  V30 2085 C 206.288 -3.51367 -2.7793 0
M  V30 2086 C 208.032 -1.96993 -3.76024 0
M  V30 2087 C 205.939 -4.29797 -4.06237 0
M  V30 2088 H 204.869 -0.42796 -0.620779 0
M  V30 2089 H 207.52 -1.53166 -1.01057 0
M  V30 2090 H 205.902 -1.56603 -3.63719 0
M  V30 2091 H 207.076 -4.0434 -2.21011 0
M  V30 2092 H 205.391 -3.57529 -2.13452 0
M  V30 2093 H 207.988 -2.52856 -4.71135 0
M  V30 2094 H 208.331 -0.94733 -4.05378 0
M  V30 2095 H 208.864 -2.39973 -3.17266 0
M  V30 2096 H 205.603 -5.32648 -3.82055 0
M  V30 2097 H 205.123 -3.81596 -4.62757 0
M  V30 2098 H 206.802 -4.39869 -4.74473 0
M  V30 2099 N 206.934 1.1197 -1.10907 0
M  V30 2100 C 207.867 2.16998 -0.706192 0
M  V30 2101 C 208.845 1.59903 0.294897 0
M  V30 2102 O 210.029 1.87513 0.192636 0
M  V30 2103 C 207.156 3.38673 -0.0427664 0
M  V30 2104 C 206.202 4.14414 -1.00811 0
M  V30 2105 S 207.035 4.72079 -2.52789 0
M  V30 2106 C 208.191 5.97083 -1.87731 0
M  V30 2107 H 208.424 2.50837 -1.59587 0
M  V30 2108 H 205.957 1.23508 -0.926555 0
M  V30 2109 H 207.915 4.09142 0.333668 0
M  V30 2110 H 206.576 3.03105 0.823788 0
M  V30 2111 H 205.769 5.016 -0.491259 0
M  V30 2112 H 205.371 3.49678 -1.3267 0
M  V30 2113 H 207.663 6.66599 -1.21044 0
M  V30 2114 H 208.606 6.53403 -2.72892 0
M  V30 2115 H 209.014 5.4837 -1.33979 0
M  V30 2116 N 208.412 0.89855 1.29475 0
M  V30 2117 C 209.322 0.379974 2.31502 0
M  V30 2118 C 210.338 -0.524695 1.659 0
M  V30 2119 O 211.514 -0.414551 1.97087 0
M  V30 2120 C 208.579 -0.385138 3.44554 0
M  V30 2121 C 207.64 0.550914 4.2575 0
M  V30 2122 C 206.873 -0.177778 5.33404 0
M  V30 2123 O 207.096 -1.40189 5.52904 0
M  V30 2124 O 206.03 0.479106 5.9999 0
M  V30 2125 H 209.856 1.22639 2.77837 0
M  V30 2126 H 207.441 0.662834 1.33891 0
M  V30 2127 H 209.323 -0.817841 4.13388 0
M  V30 2128 H 207.998 -1.20763 3.0033 0
M  V30 2129 H 206.905 1.03271 3.59564 0
M  V30 2130 H 208.238 1.33979 4.73614 0
M  V30 2131 N 209.89 -1.43072 0.660911 0
M  V30 2132 C 211.136 -2.0202 0.177708 0
M  V30 2133 C 211.469 -1.52066 -1.20787 0
M  V30 2134 O 210.744 -0.716987 -1.80802 0
M  V30 2135 C 211.027 -3.59561 0.197019 0
M  V30 2136 C 210.88 -4.19727 1.61706 0
M  V30 2137 C 212.199 -4.37664 -0.462396 0
M  V30 2138 H 209.318 -0.734034 0.0660494 0
M  V30 2139 H 211.96 -1.70272 0.843058 0
M  V30 2140 H 210.11 -3.86739 -0.369527 0
M  V30 2141 H 211.782 -4.03553 2.23479 0
M  V30 2142 H 210.025 -3.76084 2.16201 0
M  V30 2143 H 210.696 -5.28834 1.58237 0
M  V30 2144 H 213.172 -4.16095 0.0197215 0
M  V30 2145 H 212.048 -5.47305 -0.418188 0
M  V30 2146 H 212.309 -4.14493 -1.53778 0
M  V30 2147 N 211.368 -0.403325 -1.52352 0
M  V30 2148 C 212.779 0.0675782 -1.86578 0
M  V30 2149 C 213.13 1.44941 -1.32236 0
M  V30 2150 O 212.255 2.06112 -0.659307 0
M  V30 2151 C 212.85 0.129404 -3.38553 0
M  V30 2152 C 211.409 0.544629 -3.72439 0
M  V30 2153 C 210.556 -0.284551 -2.75836 0
M  V30 2154 H 213.507 -0.620631 -1.46061 0
M  V30 2155 H 213.528 0.94581 -3.68558 0
M  V30 2156 H 213.04 -0.87645 -3.78074 0
M  V30 2157 H 211.141 1.55734 -3.38493 0
M  V30 2158 H 211.254 0.293046 -4.78203 0
M  V30 2159 H 209.618 0.252258 -2.53448 0
M  V30 2160 H 210.401 -1.28865 -3.18196 0
M  V30 2161 N 212.846 1.57033 -0.133567 0
M  V30 2162 C 213.756 2.19632 0.824564 0
M  V30 2163 C 214.772 1.17666 1.28182 0
M  V30 2164 O 215.948 1.50193 1.3418 0
M  V30 2165 C 213.013 2.79499 2.05137 0
M  V30 2166 C 212.074 3.96548 1.64464 0
M  V30 2167 C 211.307 4.5355 2.81297 0
M  V30 2168 O 211.53 4.09438 3.97136 0
M  V30 2169 O 210.464 5.44018 2.57542 0
M  V30 2170 H 214.29 3.01991 0.321766 0
M  V30 2171 H 211.875 1.49112 0.0927889 0
M  V30 2172 H 213.757 3.17602 2.7696 0
M  V30 2173 H 212.432 2.00162 2.54395 0
M  V30 2174 H 211.339 3.63186 0.897048 0
M  V30 2175 H 212.672 4.77364 1.19934 0
M  V30 2176 N 214.325 -0.140222 1.56975 0
M  V30 2177 C 215.571 -0.852949 1.83991 0
M  V30 2178 C 215.904 -1.80512 0.716187 0
M  V30 2179 O 215.179 -1.92479 -0.279681 0
M  V30 2180 C 215.462 -1.6215 3.21527 0
M  V30 2181 C 215.315 -0.690363 4.4447 0
M  V30 2182 C 216.634 -2.58247 3.56366 0
M  V30 2183 H 213.753 -0.308634 0.669264 0
M  V30 2184 H 216.395 -0.117898 1.89634 0
M  V30 2185 H 214.545 -2.24812 3.16847 0
M  V30 2186 H 216.217 -0.0742264 4.6124 0
M  V30 2187 H 214.46 -0.000396433 4.338 0
M  V30 2188 H 215.131 -1.2643 5.37326 0
M  V30 2189 H 217.607 -2.05701 3.61699 0
M  V30 2190 H 216.483 -3.09067 4.53617 0
M  V30 2191 H 216.744 -3.39923 2.82674 0
M  V30 2192 N 215.803 -1.52179 -0.40978 0
M  V30 2193 C 216.766 -1.74853 -1.48186 0
M  V30 2194 C 217.766 -0.618417 -1.48433 0
M  V30 2195 O 218.956 -0.886286 -1.49969 0
M  V30 2196 C 216.088 -1.8303 -2.87598 0
M  V30 2197 H 217.281 -2.70559 -1.29374 0
M  V30 2198 H 214.834 -1.42586 -0.640233 0
M  V30 2199 H 215.569 -0.89236 -3.11781 0
M  V30 2200 H 215.354 -2.65187 -2.88822 0
M  V30 2201 H 216.844 -2.02316 -3.65319 0
M  V30 2202 N 217.281 0.66697 -1.42791 0
M  V30 2203 C 218.527 1.42754 -1.44889 0
M  V30 2204 C 218.882 1.92283 -0.0669755 0
M  V30 2205 O 218.175 1.68494 0.912154 0
M  V30 2206 C 218.369 2.6349 -2.4147 0
M  V30 2207 C 218.198 2.25776 -3.88915 0
M  V30 2208 C 216.968 2.1476 -4.57391 0
M  V30 2209 C 219.166 1.86927 -4.79127 0
M  V30 2210 N 217.148 1.70232 -5.89826 0
M  V30 2211 C 218.519 1.53378 -6.00729 0
M  V30 2212 C 220.574 1.73989 -4.66511 0
M  V30 2213 C 219.277 1.08187 -7.11117 0
M  V30 2214 C 221.303 1.30203 -5.76889 0
M  V30 2215 C 220.665 0.975818 -6.97608 0
M  V30 2216 H 216.764 0.518559 -0.585338 0
M  V30 2217 H 219.348 0.768906 -1.78874 0
M  V30 2218 H 217.519 3.27033 -2.09533 0
M  V30 2219 H 219.251 3.30123 -2.34096 0
M  V30 2220 H 216.006 2.3408 -4.11708 0
M  V30 2221 H 216.43 1.50369 -6.6009 0
M  V30 2222 H 221.072 1.97853 -3.7365 0
M  V30 2223 H 218.79 0.830701 -8.03819 0
M  V30 2224 H 222.376 1.20701 -5.69142 0
M  V30 2225 H 221.256 0.642157 -7.81566 0
M  V30 2226 N 218.759 1.29093 0.90403 0
M  V30 2227 C 219.722 1.1386 1.98919 0
M  V30 2228 C 220.722 0.0753457 1.60623 0
M  V30 2229 O 221.912 0.321931 1.71199 0
M  V30 2230 C 219.044 0.740198 3.32767 0
M  V30 2231 H 220.237 2.10246 2.13861 0
M  V30 2232 H 217.79 1.12218 1.08797 0
M  V30 2233 H 218.525 -0.223997 3.23525 0
M  V30 2234 H 218.31 1.50838 3.61926 0
M  V30 2235 H 219.8 0.656546 4.12407 0
M  V30 2236 N 220.237 -1.11381 1.11499 0
M  V30 2237 C 221.467 -1.86663 0.885464 0
M  V30 2238 C 221.875 -1.80464 -0.568281 0
M  V30 2239 O 221.218 -1.18445 -1.40415 0
M  V30 2240 C 221.28 -3.36337 1.26956 0
M  V30 2241 C 220.944 -3.66304 2.73259 0
M  V30 2242 C 221.941 -3.63733 3.71476 0
M  V30 2243 C 219.626 -3.9529 3.09921 0
M  V30 2244 C 221.62 -3.89725 5.04374 0
M  V30 2245 C 219.307 -4.20941 4.43004 0
M  V30 2246 C 220.305 -4.18147 5.40039 0
M  V30 2247 O 219.993 -4.43153 6.70724 0
M  V30 2248 H 219.725 -0.597114 0.316908 0
M  V30 2249 H 222.279 -1.41782 1.48617 0
M  V30 2250 H 220.509 -3.81826 0.611999 0
M  V30 2251 H 222.198 -3.92986 1.01573 0
M  V30 2252 H 222.964 -3.41389 3.44498 0
M  V30 2253 H 218.843 -3.966 2.35009 0
M  V30 2254 H 222.387 -3.8746 5.80104 0
M  V30 2255 H 218.284 -4.42761 4.69716 0
M  V30 2256 H 219.052 -4.60717 6.76522 0
M  V30 2257 N 221.715 -0.905404 -1.28997 0
M  V30 2258 C 222.962 -0.534248 -1.95325 0
M  V30 2259 C 223.29 0.920535 -1.71337 0
M  V30 2260 O 222.545 1.66861 -1.02254 0
M  V30 2261 C 222.844 -0.779906 -3.48787 0
M  V30 2262 C 222.51 -2.21293 -3.92861 0
M  V30 2263 C 221.172 -2.60475 -4.04606 0
M  V30 2264 C 223.524 -3.14587 -4.15553 0
M  V30 2265 C 220.852 -3.9212 -4.36416 0
M  V30 2266 C 223.204 -4.45787 -4.48839 0
M  V30 2267 C 221.868 -4.84834 -4.58794 0
M  V30 2268 H 221.138 -0.195495 -0.714747 0
M  V30 2269 H 223.785 -1.14514 -1.53488 0
M  V30 2270 H 222.09 -0.0861365 -3.91705 0
M  V30 2271 H 223.787 -0.472029 -3.98212 0
M  V30 2272 H 220.377 -1.89887 -3.84241 0
M  V30 2273 H 224.561 -2.85528 -4.0594 0
M  V30 2274 H 219.817 -4.22086 -4.42327 0
M  V30 2275 H 223.991 -5.18098 -4.65346 0
M  V30 2276 H 221.618 -5.86877 -4.83197 0
M  V30 2277 N 223.193 1.4272 -0.668489 0
M  V30 2278 C 224.441 2.01226 -0.187769 0
M  V30 2279 C 224.762 1.53092 1.2078 0
M  V30 2280 O 224.032 0.74993 1.80977 0
M  V30 2281 H 222.612 0.744041 -0.0664272 0
M  V30 2282 H 225.274 1.74723 -0.863583 0
M  V30 2283 H 224.37 3.11556 -0.184166 0
M  V30 2284 N 224.671 0.411399 1.52136 0
M  V30 2285 C 225.634 -0.401089 2.25663 0
M  V30 2286 C 226.634 -0.971732 1.28117 0
M  V30 2287 O 227.824 -0.850254 1.52041 0
M  V30 2288 C 224.956 -1.56483 3.02863 0
M  V30 2289 H 226.149 0.24295 2.98914 0
M  V30 2290 H 223.702 0.163968 1.55438 0
M  V30 2291 H 224.437 -2.24567 2.33967 0
M  V30 2292 H 224.222 -1.16211 3.74483 0
M  V30 2293 H 225.712 -2.13951 3.58629 0
M  V30 2294 N 226.149 -1.5696 0.141893 0
M  V30 2295 C 227.059 -2.20066 -0.812905 0
M  V30 2296 C 228.075 -1.18344 -1.27557 0
M  V30 2297 O 229.251 -1.50902 -1.33381 0
M  V30 2298 C 226.316 -2.80583 -2.03652 0
M  V30 2299 C 225.377 -3.97414 -1.62359 0
M  V30 2300 C 224.61 -4.55036 -2.78887 0
M  V30 2301 O 224.833 -4.11538 -3.94959 0
M  V30 2302 O 223.767 -5.45376 -2.54653 0
M  V30 2303 H 227.593 -3.02157 -0.305746 0
M  V30 2304 H 225.178 -1.49159 -0.0848799 0
M  V30 2305 H 227.06 -3.19067 -2.75272 0
M  V30 2306 H 225.735 -2.01508 -2.5333 0
M  V30 2307 H 224.642 -3.63656 -0.877775 0
M  V30 2308 H 225.975 -4.77994 -1.17401 0
M  V30 2309 N 227.627 0.131896 -1.57047 0
M  V30 2310 C 228.904 0.871495 -1.75112 0
M  V30 2311 C 229.284 1.9866 -0.713949 0
M  V30 2312 O 228.632 2.26965 0.264447 0
M  V30 2313 C 228.842 1.40007 -3.19686 0
M  V30 2314 C 230.19 1.85752 -3.81813 0
M  V30 2315 O 231.214 1.49715 -3.23209 0
M  V30 2316 O 230.073 2.5226 -4.84796 0
M  V30 2317 H 227.167 0.412919 -0.716538 0
M  V30 2318 H 229.713 0.116641 -1.69299 0
M  V30 2319 H 228.485 0.599404 -3.86682 0
M  V30 2320 H 228.108 2.218 -3.29986 0
M  V30 2321 N 229.106 1.52395 0.401703 0
M  V30 2322 C 230.336 1.70429 1.1678 0
M  V30 2323 C 230.744 0.416702 1.84554 0
M  V30 2324 O 230.087 -0.617697 1.73003 0
M  V30 2325 C 230.149 2.78919 2.26814 0
M  V30 2326 C 229.813 4.20437 1.79113 0
M  V30 2327 C 230.81 5.04028 1.27482 0
M  V30 2328 C 228.495 4.66704 1.85722 0
M  V30 2329 C 230.489 6.31961 0.830913 0
M  V30 2330 C 228.176 5.94625 1.40942 0
M  V30 2331 C 229.174 6.77082 0.897128 0
M  V30 2332 O 228.862 8.02607 0.455822 0
M  V30 2333 H 228.594 0.574272 0.356634 0
M  V30 2334 H 231.148 1.99767 0.477724 0
M  V30 2335 H 229.378 2.44973 2.99207 0
M  V30 2336 H 231.067 2.8548 2.88541 0
M  V30 2337 H 231.833 4.69471 1.21744 0
M  V30 2338 H 227.712 4.0262 2.24539 0
M  V30 2339 H 231.256 6.96271 0.430368 0
M  V30 2340 H 227.153 6.28688 1.46362 0
M  V30 2341 H 227.921 8.16453 0.578457 0
M  V30 2342 N 230.584 -0.659388 1.43143 0
M  V30 2343 C 231.812 -1.44723 1.47861 0
M  V30 2344 C 232.227 -1.88563 0.0945886 0
M  V30 2345 O 231.584 -1.59108 -0.893915 0
M  V30 2346 C 231.635 -2.68627 2.41913 0
M  V30 2347 O 231.356 -2.26623 3.74932 0
M  V30 2348 C 232.857 -3.62045 2.55809 0
M  V30 2349 H 230.077 -0.444801 0.502387 0
M  V30 2350 H 232.621 -0.808916 1.87821 0
M  V30 2351 H 230.776 -3.28613 2.05164 0
M  V30 2352 H 231.19 -3.06745 4.2545 0
M  V30 2353 H 232.664 -4.45666 3.25708 0
M  V30 2354 H 233.141 -4.08981 1.60099 0
M  V30 2355 H 233.747 -3.07944 2.93344 0
M  V30 2356 N 232.062 -1.29571 -0.897171 0
M  V30 2357 C 233.29 -1.20583 -1.68129 0
M  V30 2358 C 233.705 0.233181 -1.87354 0
M  V30 2359 O 233.062 1.15579 -1.41236 0
M  V30 2360 C 233.113 -1.91772 -3.06441 0
M  V30 2361 O 232.834 -3.30053 -2.88091 0
M  V30 2362 C 234.335 -1.89291 -4.00854 0
M  V30 2363 H 231.555 -0.417826 -0.525036 0
M  V30 2364 H 234.099 -1.70987 -1.12177 0
M  V30 2365 H 232.254 -1.45196 -3.59161 0
M  V30 2366 H 232.668 -3.65942 -3.75748 0
M  V30 2367 H 234.142 -2.43662 -4.95311 0
M  V30 2368 H 234.619 -0.869014 -4.30517 0
M  V30 2369 H 235.225 -2.35622 -3.54066 0
M  V30 2370 N 233.54 1.10788 -1.12088 0
M  V30 2371 C 234.817 1.79136 -0.785476 0
M  V30 2372 C 235.197 1.98246 0.725377 0
M  V30 2373 O 234.545 1.57258 1.65778 0
M  V30 2374 C 234.755 3.12375 -1.55636 0
M  V30 2375 C 236.103 3.8731 -1.74001 0
M  V30 2376 O 237.127 3.22085 -1.52117 0
M  V30 2377 O 235.986 5.04369 -2.10415 0
M  V30 2378 H 233.08 0.776226 -0.285311 0
M  V30 2379 H 235.626 1.1747 -1.2247 0
M  V30 2380 H 234.398 2.93863 -2.5838 0
M  V30 2381 H 234.021 3.81758 -1.11114 0
M  V30 2382 N 235.018 0.912232 1.28515 0
M  V30 2383 C 235.948 0.416403 2.29757 0
M  V30 2384 C 236.929 -0.515194 1.6211 0
M  V30 2385 O 238.114 -0.423253 1.89532 0
M  V30 2386 C 235.244 -0.34572 3.45575 0
M  V30 2387 C 234.198 0.496599 4.25109 0
M  V30 2388 C 233.524 -0.393771 5.33248 0
M  V30 2389 C 234.824 1.75307 4.92001 0
M  V30 2390 H 236.518 1.26249 2.7148 0
M  V30 2391 H 234.064 0.608515 1.30511 0
M  V30 2392 H 236.017 -0.703422 4.15488 0
M  V30 2393 H 234.741 -1.2257 3.02728 0
M  V30 2394 H 233.4 0.8368 3.56922 0
M  V30 2395 H 233.048 -1.27225 4.86644 0
M  V30 2396 H 232.748 0.166209 5.87365 0
M  V30 2397 H 234.272 -0.747389 6.06009 0
M  V30 2398 H 235.686 1.46437 5.54283 0
M  V30 2399 H 234.083 2.25534 5.56106 0
M  V30 2400 H 235.153 2.48176 4.16577 0
M  V30 2401 N 236.496 -1.42363 0.676048 0
M  V30 2402 C 237.744 -2.01123 0.198437 0
M  V30 2403 C 238.065 -1.53731 -1.19966 0
M  V30 2404 O 237.335 -0.759518 -1.80577 0
M  V30 2405 H 235.915 -0.743678 0.0703721 0
M  V30 2406 H 238.577 -1.74263 0.872837 0
M  V30 2407 H 237.673 -3.11454 0.200686 0
M  V30 2408 N 237.974 -0.419461 -1.51915 0
M  V30 2409 C 239.222 0.152637 -2.01523 0
M  V30 2410 C 239.543 1.44762 -1.30649 0
M  V30 2411 O 238.813 1.90997 -0.435535 0
M  V30 2412 H 237.393 0.0593966 -0.744635 0
M  V30 2413 H 240.055 -0.558073 -1.86739 0
M  V30 2414 H 239.151 0.341369 -3.10227 0
M  V30 2415 N 239.452 1.56882 -0.150215 0
M  V30 2416 C 240.399 2.16922 0.788244 0
M  V30 2417 C 241.369 1.10303 1.24187 0
M  V30 2418 O 242.554 1.38359 1.31383 0
M  V30 2419 C 239.694 2.79754 2.02068 0
M  V30 2420 C 238.807 4.00775 1.61257 0
M  V30 2421 C 237.942 4.51595 2.79705 0
M  V30 2422 C 236.981 5.65074 2.35282 0
M  V30 2423 N 236.118 6.10499 3.4675 0
M  V30 2424 H 240.958 2.96779 0.269444 0
M  V30 2425 H 238.495 1.46599 0.12128 0
M  V30 2426 H 240.453 3.14329 2.74323 0
M  V30 2427 H 239.083 2.02536 2.51354 0
M  V30 2428 H 238.135 3.72158 0.787553 0
M  V30 2429 H 239.447 4.82978 1.24633 0
M  V30 2430 H 238.601 4.88242 3.60145 0
M  V30 2431 H 237.34 3.68406 3.19576 0
M  V30 2432 H 236.345 5.28 1.53283 0
M  V30 2433 H 237.57 6.50052 1.96493 0
M  V30 2434 H 235.516 5.30243 3.86236 0
M  V30 2435 H 235.433 6.87637 3.14152 0
M  V30 2436 H 236.701 6.51791 4.27537 0
M  V30 2437 N 240.93 -0.123565 1.57115 0
M  V30 2438 C 242.346 -0.476961 1.52306 0
M  V30 2439 C 242.546 -1.82109 0.86248 0
M  V30 2440 O 241.602 -2.48586 0.442884 0
M  V30 2441 C 242.915 -0.465661 2.97073 0
M  V30 2442 C 244.463 -0.549534 3.08138 0
M  V30 2443 C 244.938 -0.568669 4.54456 0
M  V30 2444 N 246.429 -0.630237 4.58892 0
M  V30 2445 C 247.164 -0.666415 5.69514 0
M  V30 2446 N 246.66 -0.660514 6.89644 0
M  V30 2447 N 248.453 -0.709077 5.5761 0
M  V30 2448 H 240.604 0.757198 1.98445 0
M  V30 2449 H 242.867 0.278808 0.906074 0
M  V30 2450 H 242.573 0.454232 3.48754 0
M  V30 2451 H 242.447 -1.29513 3.54269 0
M  V30 2452 H 244.834 -1.45985 2.56461 0
M  V30 2453 H 244.915 0.307532 2.53945 0
M  V30 2454 H 244.559 0.337581 5.06777 0
M  V30 2455 H 244.489 -1.44256 5.06456 0
M  V30 2456 H 246.98 -0.641146 3.72421 0
M  V30 2457 H 247.293 -0.690616 7.69708 0
M  V30 2458 H 245.638 -0.628012 6.92157 0
M  V30 2459 H 248.829 -0.711019 4.62668 0
M  V30 2460 H 249.002 -0.733804 6.43832 0
M  V30 2461 N 242.408 -1.52605 -0.393616 0
M  V30 2462 C 243.636 -1.71294 -1.16043 0
M  V30 2463 C 244.051 -0.429259 -1.83855 0
M  V30 2464 O 243.408 0.595921 -1.72496 0
M  V30 2465 C 243.459 -2.8593 -2.21193 0
M  V30 2466 O 243.18 -4.09329 -1.56146 0
M  V30 2467 C 244.681 -3.16259 -3.10636 0
M  V30 2468 H 241.901 -0.573641 -0.348104 0
M  V30 2469 H 244.445 -1.99234 -0.461092 0
M  V30 2470 H 242.6 -2.60465 -2.86769 0
M  V30 2471 H 243.014 -4.73323 -2.25978 0
M  V30 2472 H 244.488 -3.99946 -3.80456 0
M  V30 2473 H 244.965 -2.3045 -3.73884 0
M  V30 2474 H 245.571 -3.43547 -2.50711 0
M  V30 2475 N 243.887 0.651787 -1.4349 0
M  V30 2476 C 245.298 1.233 -1.40193 0
M  V30 2477 C 245.649 1.9591 -0.106727 0
M  V30 2478 O 244.774 2.01316 0.793773 0
M  V30 2479 C 245.369 2.24257 -2.53957 0
M  V30 2480 C 243.928 2.77852 -2.5392 0
M  V30 2481 C 243.075 1.52517 -2.3159 0
M  V30 2482 H 246.026 0.443717 -1.52371 0
M  V30 2483 H 246.047 3.0646 -2.25528 0
M  V30 2484 H 245.559 1.71382 -3.4821 0
M  V30 2485 H 243.66 3.34786 -1.63551 0
M  V30 2486 H 243.773 3.25299 -3.51735 0
M  V30 2487 H 242.137 1.79915 -1.80285 0
M  V30 2488 H 242.92 1.01574 -3.27929 0
M  V30 2489 N 245.365 1.30045 0.890287 0
M  V30 2490 C 246.613 1.18327 1.63839 0
M  V30 2491 C 246.934 -0.263455 1.93212 0
M  V30 2492 O 246.204 -1.17856 1.56482 0
M  V30 2493 H 244.784 0.434933 0.607324 0
M  V30 2494 H 247.446 1.631 1.06698 0
M  V30 2495 H 246.542 1.74024 2.59079 0
M  V30 2496 N 246.843 -1.10192 1.12674 0
M  V30 2497 C 248.091 -1.81845 0.881861 0
M  V30 2498 C 248.412 -1.85737 -0.593867 0
M  V30 2499 O 247.682 -1.33724 -1.4316 0
M  V30 2500 H 246.262 -0.673432 0.323261 0
M  V30 2501 H 248.924 -1.33316 1.42172 0
M  V30 2502 H 248.02 -2.85288 1.2656 0
M  V30 2503 N 248.321 -0.919034 -1.28029 0
M  V30 2504 C 249.251 -0.428581 -2.29533 0
M  V30 2505 C 250.232 0.50659 -1.62381 0
M  V30 2506 O 251.417 0.413195 -1.89753 0
M  V30 2507 C 248.547 0.327388 -3.45753 0
M  V30 2508 C 247.501 -0.519137 -4.2484 0
M  V30 2509 C 246.827 0.365486 -5.33449 0
M  V30 2510 C 248.127 -1.77914 -4.91064 0
M  V30 2511 H 249.821 -1.27687 -2.70807 0
M  V30 2512 H 247.367 -0.615428 -1.30186 0
M  V30 2513 H 249.32 0.681378 -4.15855 0
M  V30 2514 H 248.044 1.20963 -3.03374 0
M  V30 2515 H 246.703 -0.855717 -3.56473 0
M  V30 2516 H 246.351 1.24642 -4.87312 0
M  V30 2517 H 246.051 -0.197356 -5.87268 0
M  V30 2518 H 247.575 0.715241 -6.06396 0
M  V30 2519 H 248.989 -1.49374 -5.53498 0
M  V30 2520 H 247.386 -2.2848 -5.54903 0
M  V30 2521 H 248.456 -2.50382 -4.15255 0
M  V30 2522 N 249.799 1.42003 -0.683588 0
M  V30 2523 C 250.709 2.34597 -0.0109075 0
M  V30 2524 C 251.725 1.55576 0.779245 0
M  V30 2525 O 252.901 1.88107 0.719555 0
M  V30 2526 C 249.966 3.34199 0.922588 0
M  V30 2527 C 249.027 4.29115 0.125984 0
M  V30 2528 C 248.26 5.23959 1.01502 0
M  V30 2529 O 248.483 5.23952 2.25456 0
M  V30 2530 O 247.417 6.00053 0.47111 0
M  V30 2531 H 251.243 2.93675 -0.773853 0
M  V30 2532 H 248.828 1.42654 -0.443861 0
M  V30 2533 H 250.71 3.95365 1.45823 0
M  V30 2534 H 249.385 2.77582 1.66523 0
M  V30 2535 H 248.292 3.71335 -0.453969 0
M  V30 2536 H 249.625 4.88798 -0.577736 0
M  V30 2537 N 251.277 0.427512 1.51691 0
M  V30 2538 C 252.523 -0.142439 2.02299 0
M  V30 2539 C 252.856 -1.43214 1.31162 0
M  V30 2540 O 252.131 -1.89833 0.423511 0
M  V30 2541 C 252.414 -0.371301 3.58181 0
M  V30 2542 C 252.267 0.936358 4.39946 0
M  V30 2543 C 253.586 -1.14542 4.24933 0
M  V30 2544 H 250.705 -0.0502937 0.735282 0
M  V30 2545 H 253.347 0.564584 1.81418 0
M  V30 2546 H 251.497 -0.973559 3.76104 0
M  V30 2547 H 253.169 1.57184 4.33694 0
M  V30 2548 H 251.412 1.5432 4.05423 0
M  V30 2549 H 252.083 0.730388 5.47147 0
M  V30 2550 H 254.559 -0.635362 4.11221 0
M  V30 2551 H 253.435 -1.27431 5.33903 0
M  V30 2552 H 253.696 -2.17093 3.85127 0
M  V30 2553 N 252.755 -1.56801 0.158532 0
M  V30 2554 C 253.685 -2.20347 -0.772609 0
M  V30 2555 C 254.666 -1.15518 -1.24859 0
M  V30 2556 O 255.851 -1.43902 -1.30406 0
M  V30 2557 C 252.981 -2.83417 -2.00729 0
M  V30 2558 C 251.935 -3.94174 -1.66765 0
M  V30 2559 C 251.261 -4.44233 -2.97592 0
M  V30 2560 C 252.561 -5.14392 -0.905447 0
M  V30 2561 H 254.255 -2.98413 -0.242959 0
M  V30 2562 H 251.801 -1.43537 -0.115419 0
M  V30 2563 H 253.754 -3.26543 -2.6636 0
M  V30 2564 H 252.478 -2.02701 -2.56086 0
M  V30 2565 H 251.137 -3.51684 -1.03508 0
M  V30 2566 H 250.785 -3.60325 -3.50963 0
M  V30 2567 H 250.485 -5.18945 -2.75626 0
M  V30 2568 H 252.009 -4.90037 -3.64274 0
M  V30 2569 H 253.423 -5.5429 -1.46408 0
M  V30 2570 H 251.82 -5.9494 -0.7853 0
M  V30 2571 H 252.89 -4.84795 0.100668 0
M  V30 2572 N 254.233 0.115231 -1.57178 0
M  V30 2573 C 255.463 0.835224 -1.88964 0
M  V30 2574 C 255.871 1.73774 -0.74829 0
M  V30 2575 O 255.214 1.81401 0.289739 0
M  V30 2576 C 255.276 1.7178 -3.15804 0
M  V30 2577 C 254.94 0.989198 -4.46166 0
M  V30 2578 C 255.937 0.328263 -5.18863 0
M  V30 2579 C 253.622 0.969256 -4.9286 0
M  V30 2580 C 255.616 -0.342873 -6.36477 0
M  V30 2581 C 253.303 0.294324 -6.10391 0
M  V30 2582 C 254.301 -0.360582 -6.82048 0
M  V30 2583 O 253.989 -1.02474 -7.97342 0
M  V30 2584 H 253.721 0.245197 -0.629964 0
M  V30 2585 H 256.275 0.10303 -2.05141 0
M  V30 2586 H 254.505 2.49173 -2.95719 0
M  V30 2587 H 256.194 2.31255 -3.33581 0
M  V30 2588 H 256.96 0.335263 -4.8384 0
M  V30 2589 H 252.839 1.46844 -4.36987 0
M  V30 2590 H 256.383 -0.854629 -6.92345 0
M  V30 2591 H 252.28 0.285099 -6.4487 0
M  V30 2592 H 253.048 -0.929594 -8.13204 0
M  V30 2593 N 255.711 1.52812 0.385517 0
M  V30 2594 C 256.674 1.77188 1.45386 0
M  V30 2595 C 257.674 0.641953 1.4743 0
M  V30 2596 O 258.864 0.910033 1.4854 0
M  V30 2597 C 255.996 1.87582 2.8465 0
M  V30 2598 H 257.189 2.72583 1.25054 0
M  V30 2599 H 254.742 1.43586 0.617467 0
M  V30 2600 H 255.477 0.941849 3.10322 0
M  V30 2601 H 255.262 2.69748 2.84567 0
M  V30 2602 H 256.752 2.08102 3.62054 0
M  V30 2603 N 257.189 -0.644168 1.43834 0
M  V30 2604 C 258.605 -0.960875 1.27434 0
M  V30 2605 C 258.805 -2.00499 0.200618 0
M  V30 2606 O 257.861 -2.49018 -0.417906 0
M  V30 2607 C 259.174 -1.43653 2.64167 0
M  V30 2608 C 260.722 -1.55271 2.71772 0
M  V30 2609 C 261.197 -2.06224 4.08944 0
M  V30 2610 N 262.688 -2.13513 4.11055 0
M  V30 2611 C 263.423 -2.54081 5.14033 0
M  V30 2612 N 262.919 -2.9388 6.27381 0
M  V30 2613 N 264.712 -2.54101 5.01387 0
M  V30 2614 H 256.863 0.0465779 2.12349 0
M  V30 2615 H 259.126 -0.0417638 0.94708 0
M  V30 2616 H 258.832 -0.743706 3.43747 0
M  V30 2617 H 258.706 -2.40993 2.90176 0
M  V30 2618 H 261.093 -2.23653 1.92519 0
M  V30 2619 H 261.174 -0.563395 2.49519 0
M  V30 2620 H 260.818 -1.38441 4.88668 0
M  V30 2621 H 260.748 -3.06003 4.28567 0
M  V30 2622 H 263.239 -1.85493 3.29242 0
M  V30 2623 H 263.552 -3.2361 7.01781 0
M  V30 2624 H 261.897 -2.91663 6.30839 0
M  V30 2625 H 265.088 -2.22391 4.11898 0
M  V30 2626 H 265.261 -2.85394 5.81768 0
M  V30 2627 N 258.668 -1.30515 -0.883378 0
M  V30 2628 C 259.893 -1.22487 -1.67367 0
M  V30 2629 C 260.318 0.208767 -1.86938 0
M  V30 2630 O 259.676 1.15015 -1.40148 0
M  V30 2631 C 259.724 -1.96041 -3.02655 0
M  V30 2632 O 258.828 -1.28859 -3.91751 0
M  V30 2633 H 258.169 -0.423573 -0.511353 0
M  V30 2634 H 260.699 -1.72362 -1.10239 0
M  V30 2635 H 260.709 -2.05124 -3.52687 0
M  V30 2636 H 259.384 -3.00307 -2.8773 0
M  V30 2637 H 257.961 -1.28141 -3.50192 0
M  V30 2638 N 260.146 1.09593 -1.13257 0
M  V30 2639 C 261.078 2.16015 -0.766167 0
M  V30 2640 C 262.091 1.61423 0.211303 0
M  V30 2641 O 263.28 1.78498 -0.00863946 0
M  V30 2642 C 260.38 3.38706 -0.114662 0
M  V30 2643 C 259.553 4.22717 -1.12379 0
M  V30 2644 C 258.612 5.23835 -0.498301 0
M  V30 2645 O 257.638 5.573 -1.15781 0
M  V30 2646 N 258.84 5.75886 0.730417 0
M  V30 2647 H 261.605 2.48055 -1.68193 0
M  V30 2648 H 259.166 1.25292 -1.02535 0
M  V30 2649 H 261.158 4.03464 0.315991 0
M  V30 2650 H 259.728 3.04569 0.704011 0
M  V30 2651 H 258.948 3.54122 -1.73179 0
M  V30 2652 H 260.236 4.75673 -1.80589 0
M  V30 2653 H 259.634 5.50911 1.28504 0
M  V30 2654 H 258.191 6.42387 1.10376 0
M  V30 2655 N 261.624 0.925811 1.2754 0
M  V30 2656 C 262.87 0.566092 1.94739 0
M  V30 2657 C 263.203 -0.890057 1.72603 0
M  V30 2658 O 262.478 -1.63467 1.05399 0
M  V30 2659 C 262.761 0.89054 3.48915 0
M  V30 2660 C 262.614 2.4003 3.80402 0
M  V30 2661 C 263.933 0.395101 4.38323 0
M  V30 2662 H 261.052 0.20714 0.707292 0
M  V30 2663 H 263.694 1.15725 1.50691 0
M  V30 2664 H 261.844 0.387452 3.86563 0
M  V30 2665 H 263.516 2.97494 3.52555 0
M  V30 2666 H 261.759 2.85028 3.2702 0
M  V30 2667 H 262.43 2.57785 4.8811 0
M  V30 2668 H 264.906 0.826241 4.07814 0
M  V30 2669 H 263.782 0.651086 5.45025 0
M  V30 2670 H 264.043 -0.704798 4.36446 0
M  V30 2671 N 263.102 -1.41638 0.69111 0
M  V30 2672 C 264.065 -2.29178 0.0319786 0
M  V30 2673 C 265.065 -1.44153 -0.712496 0
M  V30 2674 O 266.255 -1.65354 -0.548053 0
M  V30 2675 C 263.387 -3.26952 -0.965161 0
M  V30 2676 H 264.58 -2.88959 0.802681 0
M  V30 2677 H 262.133 -1.4955 0.454356 0
M  V30 2678 H 262.868 -2.72142 -1.76378 0
M  V30 2679 H 262.653 -3.89685 -0.434522 0
M  V30 2680 H 264.143 -3.92561 -1.42428 0
M  V30 2681 N 264.58 -0.43555 -1.51462 0
M  V30 2682 C 265.51 0.367376 -2.30592 0
M  V30 2683 C 266.491 1.02263 -1.35928 0
M  V30 2684 O 267.676 1.02661 -1.64847 0
M  V30 2685 C 264.806 1.46983 -3.14664 0
M  V30 2686 C 263.76 0.938161 -4.17591 0
M  V30 2687 C 263.086 2.13622 -4.90173 0
M  V30 2688 C 264.386 -0.0261621 -5.22293 0
M  V30 2689 H 266.08 -0.292969 -2.97963 0
M  V30 2690 H 263.626 -0.14234 -1.43295 0
M  V30 2691 H 265.579 2.03873 -3.688 0
M  V30 2692 H 264.303 2.15843 -2.4511 0
M  V30 2693 H 262.962 0.391481 -3.64504 0
M  V30 2694 H 262.61 2.81098 -4.17124 0
M  V30 2695 H 262.31 1.78688 -5.59772 0
M  V30 2696 H 263.834 2.7107 -5.47132 0
M  V30 2697 H 265.248 0.452384 -5.71512 0
M  V30 2698 H 263.645 -0.287992 -5.99409 0
M  V30 2699 H 264.715 -0.963391 -4.75233 0
M  V30 2700 N 266.058 1.56714 -0.166846 0
M  V30 2701 C 267.021 2.16539 0.751232 0
M  V30 2702 C 268.021 1.11228 1.16125 0
M  V30 2703 O 269.211 1.36765 1.07894 0
M  V30 2704 C 266.343 2.74462 2.02196 0
M  V30 2705 H 267.536 2.99013 0.230499 0
M  V30 2706 H 265.089 1.56081 0.0826982 0
M  V30 2707 H 265.824 1.95709 2.58589 0
M  V30 2708 H 265.609 3.51527 1.73698 0
M  V30 2709 H 267.099 3.20489 2.67725 0
M  V30 2710 N 267.536 -0.106894 1.57237 0
M  V30 2711 C 268.499 -1.11466 2.0027 0
M  V30 2712 C 269.499 -1.33623 0.894519 0
M  V30 2713 O 270.689 -1.29935 1.16028 0
M  V30 2714 C 267.821 -2.46646 2.35327 0
M  V30 2715 H 269.014 -0.744516 2.90512 0
M  V30 2716 H 266.567 -0.351576 1.52295 0
M  V30 2717 H 267.302 -2.88558 1.48003 0
M  V30 2718 H 267.087 -2.31915 3.16161 0
M  V30 2719 H 268.577 -3.19151 2.69318 0
M  V30 2720 N 269.014 -1.53014 -0.377408 0
M  V30 2721 C 270.43 -1.42523 -0.718281 0
M  V30 2722 C 270.63 -0.55487 -1.9371 0
M  V30 2723 O 269.686 -0.0327593 -2.52479 0
M  V30 2724 C 270.999 -2.85546 -0.942539 0
M  V30 2725 C 272.547 -2.95101 -1.04329 0
M  V30 2726 C 273.022 -4.3916 -1.3001 0
M  V30 2727 N 274.513 -4.42536 -1.36806 0
M  V30 2728 C 275.248 -5.51097 -1.58364 0
M  V30 2729 N 274.744 -6.69724 -1.77317 0
M  V30 2730 N 276.537 -5.38657 -1.60638 0
M  V30 2731 H 268.688 -2.08116 0.424426 0
M  V30 2732 H 270.951 -0.939352 0.127759 0
M  V30 2733 H 270.657 -3.51499 -0.118929 0
M  V30 2734 H 270.531 -3.28493 -1.85397 0
M  V30 2735 H 272.918 -2.29309 -1.85745 0
M  V30 2736 H 272.999 -2.55566 -0.109505 0
M  V30 2737 H 272.643 -5.05521 -0.490991 0
M  V30 2738 H 272.573 -4.76258 -2.24691 0
M  V30 2739 H 275.064 -3.57039 -1.23821 0
M  V30 2740 H 275.377 -7.48233 -1.93306 0
M  V30 2741 H 273.722 -6.72732 -1.74518 0
M  V30 2742 H 276.913 -4.44948 -1.45391 0
M  V30 2743 H 277.086 -6.2333 -1.77098 0
M  V30 2744 N 270.492 0.636531 -1.44174 0
M  V30 2745 C 271.422 1.76003 -1.53444 0
M  V30 2746 C 272.403 1.65619 -0.387841 0
M  V30 2747 O 273.588 1.84461 -0.607257 0
M  V30 2748 C 270.718 3.14511 -1.4731 0
M  V30 2749 C 269.672 3.39677 -2.60391 0
M  V30 2750 C 268.998 4.78159 -2.39308 0
M  V30 2751 C 270.298 3.32772 -4.02567 0
M  V30 2752 H 271.992 1.68501 -2.47483 0
M  V30 2753 H 269.538 0.809237 -1.19111 0
M  V30 2754 H 271.491 3.92878 -1.52397 0
M  V30 2755 H 270.215 3.22783 -0.49785 0
M  V30 2756 H 268.874 2.63688 -2.54684 0
M  V30 2757 H 268.522 4.83128 -1.39988 0
M  V30 2758 H 268.222 4.95956 -3.15122 0
M  V30 2759 H 269.746 5.58762 -2.46205 0
M  V30 2760 H 271.16 4.01051 -4.09672 0
M  V30 2761 H 269.557 3.62104 -4.7854 0
M  V30 2762 H 270.627 2.30669 -4.2652 0
M  V30 2763 N 271.97 1.30982 0.876444 0
M  V30 2764 C 273.198 1.23242 1.6619 0
M  V30 2765 C 273.613 -0.203345 1.87702 0
M  V30 2766 O 272.97 -1.13317 1.43057 0
M  V30 2767 C 273.021 1.96623 3.03351 0
M  V30 2768 O 272.742 3.34594 2.82804 0
M  V30 2769 C 274.243 1.95644 3.97792 0
M  V30 2770 H 271.463 0.426126 0.518322 0
M  V30 2771 H 274.007 1.7275 1.09442 0
M  V30 2772 H 272.162 1.50892 3.56806 0
M  V30 2773 H 272.576 3.71873 3.69879 0
M  V30 2774 H 274.05 2.51511 4.91372 0
M  V30 2775 H 274.527 0.937395 4.2908 0
M  V30 2776 H 275.133 2.41225 3.50272 0
M  V30 2777 N 273.449 -1.08991 1.13837 0
M  V30 2778 C 274.697 -1.80899 0.901098 0
M  V30 2779 C 275.018 -1.86356 -0.574134 0
M  V30 2780 O 274.288 -1.35235 -1.41733 0
M  V30 2781 H 272.868 -0.669966 0.330386 0
M  V30 2782 H 275.53 -1.318 1.43578 0
M  V30 2783 H 274.626 -2.83929 1.29578 0
M  V30 2784 N 274.927 -0.932562 -1.27047 0
M  V30 2785 C 276.173 -0.576412 -1.94436 0
M  V30 2786 C 276.506 0.880891 -1.73072 0
M  V30 2787 O 275.781 1.62905 -1.06264 0
M  V30 2788 C 276.064 -0.909031 -3.48437 0
M  V30 2789 C 275.917 -2.42044 -3.79123 0
M  V30 2790 C 277.236 -0.418341 -4.38107 0
M  V30 2791 H 274.355 -0.210888 -0.706184 0
M  V30 2792 H 276.997 -1.16522 -1.50075 0
M  V30 2793 H 275.147 -0.407947 -3.86352 0
M  V30 2794 H 276.819 -2.99359 -3.50973 0
M  V30 2795 H 275.062 -2.86758 -3.25503 0
M  V30 2796 H 275.733 -2.6037 -4.86736 0
M  V30 2797 H 278.209 -0.847856 -4.0737 0
M  V30 2798 H 277.085 -0.679981 -5.44672 0
M  V30 2799 H 277.346 0.681642 -4.36814 0
M  V30 2800 N 276.405 1.4127 -0.698611 0
M  V30 2801 C 277.368 2.29158 -0.044132 0
M  V30 2802 C 278.368 1.44529 0.704841 0
M  V30 2803 O 279.558 1.65643 0.539276 0
M  V30 2804 C 276.69 3.27459 0.947809 0
M  V30 2805 H 277.883 2.88529 -0.817994 0
M  V30 2806 H 275.436 1.49307 -0.46228 0
M  V30 2807 H 276.171 2.73073 1.74933 0
M  V30 2808 H 275.956 3.8991 0.41385 0
M  V30 2809 H 277.446 3.93311 1.40344 0
M  V30 2810 N 277.883 0.443576 1.51229 0
M  V30 2811 C 278.846 -0.353132 2.26463 0
M  V30 2812 C 279.846 -0.944338 1.3015 0
M  V30 2813 O 281.036 -0.817813 1.5381 0
M  V30 2814 C 278.168 -1.50023 3.06114 0
M  V30 2815 H 279.361 0.3063 2.98332 0
M  V30 2816 H 276.914 0.196902 1.55055 0
M  V30 2817 H 277.649 -2.19553 2.38677 0
M  V30 2818 H 277.434 -1.08241 3.76864 0
M  V30 2819 H 278.924 -2.06296 3.63087 0
M  V30 2820 N 279.361 -1.56624 0.175154 0
M  V30 2821 C 280.291 -2.21155 -0.749195 0
M  V30 2822 C 281.272 -1.16836 -1.23626 0
M  V30 2823 O 282.457 -1.45277 -1.28873 0
M  V30 2824 C 279.587 -2.8553 -1.97711 0
M  V30 2825 C 278.541 -3.95921 -1.62575 0
M  V30 2826 C 277.867 -4.47365 -2.92864 0
M  V30 2827 C 279.167 -5.15323 -0.850838 0
M  V30 2828 H 280.861 -2.98653 -0.211295 0
M  V30 2829 H 278.407 -1.43651 -0.100188 0
M  V30 2830 H 280.36 -3.2935 -2.62881 0
M  V30 2831 H 279.084 -2.05406 -2.53921 0
M  V30 2832 H 277.743 -3.52762 -0.997719 0
M  V30 2833 H 277.391 -3.64027 -3.47122 0
M  V30 2834 H 277.091 -5.21839 -2.70106 0
M  V30 2835 H 278.615 -4.93873 -3.59056 0
M  V30 2836 H 280.029 -5.55812 -1.40521 0
M  V30 2837 H 278.426 -5.95739 -0.722154 0
M  V30 2838 H 279.496 -4.84661 0.152082 0
M  V30 2839 N 280.839 0.0985539 -1.57292 0
M  V30 2840 C 282.116 0.834155 -1.76921 0
M  V30 2841 C 282.496 1.97101 -0.755928 0
M  V30 2842 O 281.844 2.27474 0.216245 0
M  V30 2843 C 282.054 1.33194 -3.22584 0
M  V30 2844 C 283.402 1.77611 -3.85668 0
M  V30 2845 O 284.426 1.42825 -3.26312 0
M  V30 2846 O 283.285 2.4192 -4.90038 0
M  V30 2847 H 280.379 0.397628 -0.725135 0
M  V30 2848 H 282.925 0.0807044 -1.69508 0
M  V30 2849 H 281.697 0.517248 -3.87866 0
M  V30 2850 H 281.32 2.1475 -3.34616 0
M  V30 2851 N 282.317 1.53212 0.369288 0
M  V30 2852 C 283.566 1.68436 1.10961 0
M  V30 2853 C 283.879 0.440738 1.9057 0
M  V30 2854 O 285.085 0.473446 2.6734 0
M  V30 2855 C 283.541 2.97744 2.0218 0
M  V30 2856 C 283.149 4.29355 1.279 0
M  V30 2857 C 284.893 3.22334 2.76226 0
M  V30 2858 C 282.8 5.49755 2.17999 0
M  V30 2859 H 281.73 0.627568 0.41794 0
M  V30 2860 H 284.381 1.79713 0.370884 0
M  V30 2861 H 282.763 2.8026 2.79768 0
M  V30 2862 H 283.937 4.57458 0.554007 0
M  V30 2863 H 282.252 4.11179 0.657311 0
M  V30 2864 H 284.849 4.09471 3.43857 0
M  V30 2865 H 285.192 2.38238 3.41392 0
M  V30 2866 H 285.725 3.40475 2.05723 0
M  V30 2867 H 282.464 6.36318 1.57417 0
M  V30 2868 H 281.984 5.25937 2.88359 0
M  V30 2869 H 283.663 5.84401 2.77641 0
M  V30 2870 N 283.795 -0.628877 1.44509 0
M  V30 2871 C 285.041 -1.39045 1.47629 0
M  V30 2872 C 285.374 -1.93892 0.109343 0
M  V30 2873 O 284.649 -1.7379 -0.87334 0
M  V30 2874 C 284.932 -2.55408 2.53848 0
M  V30 2875 C 284.785 -2.05896 3.99909 0
M  V30 2876 C 286.104 -3.5759 2.56549 0
M  V30 2877 H 283.223 -0.504232 0.537512 0
M  V30 2878 H 285.865 -0.710854 1.76201 0
M  V30 2879 H 284.015 -3.13384 2.29615 0
M  V30 2880 H 285.687 -1.52734 4.35282 0
M  V30 2881 H 283.93 -1.37061 4.11578 0
M  V30 2882 H 284.601 -2.89681 4.69882 0
M  V30 2883 H 287.077 -3.09419 2.78207 0
M  V30 2884 H 285.953 -4.36527 3.32769 0
M  V30 2885 H 286.214 -4.11808 1.60832 0
M  V30 2886 N 285.273 -1.31445 -0.869486 0
M  V30 2887 C 286.519 -1.21337 -1.62496 0
M  V30 2888 C 286.852 0.227872 -1.92858 0
M  V30 2889 O 286.127 1.16094 -1.56053 0
M  V30 2890 C 286.41 -2.05814 -2.95487 0
M  V30 2891 C 286.263 -3.5824 -2.72 0
M  V30 2892 C 287.582 -1.9079 -3.96594 0
M  V30 2893 H 284.701 -0.442135 -0.589649 0
M  V30 2894 H 287.343 -1.6124 -1.00507 0
M  V30 2895 H 285.493 -1.71913 -3.48394 0
M  V30 2896 H 287.165 -4.0228 -2.25762 0
M  V30 2897 H 285.408 -3.81647 -2.06224 0
M  V30 2898 H 286.079 -4.12657 -3.66631 0
M  V30 2899 H 288.555 -2.20459 -3.52898 0
M  V30 2900 H 287.431 -2.52199 -4.87531 0
M  V30 2901 H 287.692 -0.871341 -4.33428 0
M  V30 2902 N 286.751 1.08385 -1.14413 0
M  V30 2903 C 287.979 1.84517 -0.936001 0
M  V30 2904 C 288.394 1.81626 0.515503 0
M  V30 2905 O 287.751 1.22008 1.35721 0
M  V30 2906 C 287.802 3.32049 -1.42918 0
M  V30 2907 O 287.523 3.34951 -2.82381 0
M  V30 2908 C 289.024 4.24986 -1.26103 0
M  V30 2909 H 286.244 0.582491 -0.333084 0
M  V30 2910 H 288.788 1.36885 -1.5193 0
M  V30 2911 H 286.943 3.7707 -0.888641 0
M  V30 2912 H 287.357 4.27048 -3.04517 0
M  V30 2913 H 288.831 5.26615 -1.6547 0
M  V30 2914 H 289.308 4.38726 -0.20392 0
M  V30 2915 H 289.914 3.85791 -1.79012 0
M  V30 2916 N 288.23 0.939286 1.26551 0
M  V30 2917 C 289.193 0.451987 2.24699 0
M  V30 2918 C 290.193 -0.435869 1.5478 0
M  V30 2919 O 291.383 -0.235314 1.72603 0
M  V30 2920 C 288.515 -0.348801 3.39111 0
M  V30 2921 H 289.708 1.3193 2.69322 0
M  V30 2922 H 287.261 0.721072 1.38673 0
M  V30 2923 H 287.996 -1.23444 2.99887 0
M  V30 2924 H 287.781 0.287945 3.91041 0
M  V30 2925 H 289.271 -0.679726 4.12031 0
M  V30 2926 N 289.708 -1.40897 0.706093 0
M  V30 2927 C 290.638 -2.33418 0.0620085 0
M  V30 2928 C 291.619 -1.52385 -0.755827 0
M  V30 2929 O 292.804 -1.80886 -0.706674 0
M  V30 2930 C 289.934 -3.36293 -0.867445 0
M  V30 2931 C 288.888 -4.27716 -0.155932 0
M  V30 2932 C 288.214 -5.2105 -1.20046 0
M  V30 2933 C 289.514 -5.12944 0.984149 0
M  V30 2934 H 291.208 -2.87527 0.83477 0
M  V30 2935 H 288.754 -1.38249 0.402875 0
M  V30 2936 H 290.707 -3.99949 -1.32735 0
M  V30 2937 H 289.431 -2.80556 -1.67199 0
M  V30 2938 H 288.09 -3.65498 0.284047 0
M  V30 2939 H 287.738 -4.61624 -1.99781 0
M  V30 2940 H 287.438 -5.83056 -0.729328 0
M  V30 2941 H 288.962 -5.87584 -1.66066 0
M  V30 2942 H 290.376 -5.70109 0.604048 0
M  V30 2943 H 288.773 -5.83945 1.38304 0
M  V30 2944 H 289.843 -4.49485 1.81911 0
M  V30 2945 N 291.186 -0.45159 -1.50991 0
M  V30 2946 C 292.134 0.366864 -2.29689 0
M  V30 2947 C 293.128 1.00809 -1.36139 0
M  V30 2948 O 294.334 0.941427 -1.53418 0
M  V30 2949 H 290.709 0.137133 -0.739391 0
M  V30 2950 H 292.68 -0.317538 -2.96706 0
M  V30 2951 C 291.429 1.44751 -3.16137 0
M  V30 2952 H 290.752 0.963473 -3.88017 0
M  V30 2953 H 292.192 1.99315 -3.74232 0
M  V30 2954 C 290.651 2.43869 -2.32442 0
M  V30 2955 O 291.181 3.4872 -1.99392 0
M  V30 2956 N 289.387 2.15105 -1.95392 0
M  V30 2957 H 288.934 1.29866 -2.22469 0
M  V30 2958 H 288.892 2.81661 -1.39693 0
M  V30 2959 N 292.664 1.56529 -0.183458 0
M  V30 2960 C 293.941 1.88959 0.50536 0
M  V30 2961 C 294.321 1.09523 1.80466 0
M  V30 2962 O 293.669 0.19278 2.27685 0
M  V30 2963 C 293.879 3.41162 0.73547 0
M  V30 2964 C 295.227 4.11155 1.06005 0
M  V30 2965 O 296.251 3.46548 0.823594 0
M  V30 2966 O 295.11 5.25318 1.50675 0
M  V30 2967 H 292.204 0.78441 0.261973 0
M  V30 2968 H 294.75 1.68231 -0.222802 0
M  V30 2969 H 293.522 3.90874 -0.182561 0
M  V30 2970 H 293.145 3.67543 1.51651 0
M  V30 2971 N 294.142 -0.090211 1.57342 0
M  V30 2972 C 295.553 -0.644173 1.75235 0
M  V30 2973 C 295.904 -1.78865 0.806335 0
M  V30 2974 O 295.029 -2.16395 -0.0140128 0
M  V30 2975 C 295.624 -1.17532 3.1776 0
M  V30 2976 C 294.183 -1.67531 3.37061 0
M  V30 2977 C 293.33 -0.58693 2.71017 0
M  V30 2978 H 296.281 0.135884 1.58117 0
M  V30 2979 H 296.302 -2.04455 3.20902 0
M  V30 2980 H 295.814 -0.342138 3.86589 0
M  V30 2981 H 293.915 -2.53234 2.73319 0
M  V30 2982 H 294.028 -1.76493 4.45406 0
M  V30 2983 H 292.392 -1.02756 2.33052 0
M  V30 2984 H 293.175 0.235758 3.4249 0
M  V30 2985 N 295.62 -1.53406 -0.361157 0
M  V30 2986 C 296.53 -1.83122 -1.4664 0
M  V30 2987 C 297.546 -0.719943 -1.58407 0
M  V30 2988 O 298.722 -1.01046 -1.74218 0
M  V30 2989 C 295.787 -2.01891 -2.81853 0
M  V30 2990 C 294.848 -3.25784 -2.79577 0
M  V30 2991 C 294.081 -3.43648 -4.0834 0
M  V30 2992 O 294.304 -2.65714 -5.0473 0
M  V30 2993 O 293.238 -4.37018 -4.13883 0
M  V30 2994 H 297.064 -2.7703 -1.24451 0
M  V30 2995 H 294.649 -1.38841 -0.551678 0
M  V30 2996 H 296.531 -2.15782 -3.61962 0
M  V30 2997 H 295.206 -1.11173 -3.0401 0
M  V30 2998 H 294.113 -3.17312 -1.98151 0
M  V30 2999 H 295.446 -4.16439 -2.62373 0
M  V30 3000 N 297.098 0.621204 -1.44841 0
M  V30 3001 C 298.326 1.40752 -1.51646 0
M  V30 3002 C 298.741 1.88246 -0.144549 0
M  V30 3003 O 298.098 1.61422 0.851416 0
M  V30 3004 C 298.149 2.62119 -2.4895 0
M  V30 3005 O 297.87 2.16602 -3.80808 0
M  V30 3006 C 299.371 3.55135 -2.65319 0
M  V30 3007 H 296.591 0.431325 -0.514004 0
M  V30 3008 H 299.135 0.758835 -1.899 0
M  V30 3009 H 297.29 3.23058 -2.13805 0
M  V30 3010 H 297.704 2.95358 -4.33433 0
M  V30 3011 H 299.178 4.36874 -3.37409 0
M  V30 3012 H 299.655 4.04592 -1.70886 0
M  V30 3013 H 300.261 3.00058 -3.01405 0
M  V30 3014 N 298.576 1.31904 0.862503 0
M  V30 3015 C 299.823 1.22017 1.61611 0
M  V30 3016 C 300.151 -0.21991 1.93253 0
M  V30 3017 O 299.406 -1.17076 1.56817 0
M  V30 3018 C 299.705 2.01713 2.95037 0
M  V30 3019 C 299.371 3.51145 2.82857 0
M  V30 3020 C 298.033 3.91889 2.79243 0
M  V30 3021 C 300.385 4.46204 2.69353 0
M  V30 3022 C 297.713 5.25947 2.59993 0
M  V30 3023 C 300.065 5.80397 2.5164 0
M  V30 3024 C 298.729 6.20352 2.46413 0
M  V30 3025 H 297.999 0.44649 0.591378 0
M  V30 3026 H 300.646 1.63248 1.00111 0
M  V30 3027 H 298.951 1.53185 3.60613 0
M  V30 3028 H 300.648 1.91437 3.52353 0
M  V30 3029 H 297.238 3.1878 2.86491 0
M  V30 3030 H 301.422 4.15652 2.71196 0
M  V30 3031 H 296.678 5.5597 2.54376 0
M  V30 3032 H 300.852 6.53676 2.40169 0
M  V30 3033 H 298.479 7.24172 2.31256 0
M  V30 3034 N 300.054 -1.07777 1.14986 0
M  V30 3035 C 301.47 -1.32373 0.891596 0
M  V30 3036 C 301.67 -1.9609 -0.463788 0
M  V30 3037 O 300.726 -2.21801 -1.20667 0
M  V30 3038 C 302.039 -2.21905 2.02925 0
M  V30 3039 C 303.587 -2.35367 2.06329 0
M  V30 3040 C 304.062 -3.28245 3.19405 0
M  V30 3041 N 305.553 -3.35824 3.19024 0
M  V30 3042 C 306.288 -4.07739 4.03158 0
M  V30 3043 N 305.784 -4.82306 4.97346 0
M  V30 3044 N 307.577 -4.03635 3.91197 0
M  V30 3045 H 299.728 -0.648039 2.02273 0
M  V30 3046 H 301.991 -0.348149 0.881757 0
M  V30 3047 H 301.697 -1.82342 3.0074 0
M  V30 3048 H 301.571 -3.22407 1.95789 0
M  V30 3049 H 303.958 -2.74186 1.09116 0
M  V30 3050 H 304.039 -1.34585 2.17533 0
M  V30 3051 H 303.683 -2.90146 4.16867 0
M  V30 3052 H 303.613 -4.28971 3.05437 0
M  V30 3053 H 306.104 -2.8267 2.50811 0
M  V30 3054 H 306.417 -5.34661 5.57994 0
M  V30 3055 H 304.762 -4.81337 5.01338 0
M  V30 3056 H 307.953 -3.44491 3.16928 0
M  V30 3057 H 308.126 -4.59417 4.5699 0
M  V30 3058 N 301.532 -0.945985 -1.26051 0
M  V30 3059 C 302.495 -0.463897 -2.24456 0
M  V30 3060 C 303.495 0.427655 -1.55009 0
M  V30 3061 O 304.685 0.226157 -1.72726 0
M  V30 3062 C 301.817 0.330812 -3.39291 0
M  V30 3063 H 303.01 -1.33357 -2.68619 0
M  V30 3064 H 300.563 -0.728416 -1.38289 0
M  V30 3065 H 301.298 1.21852 -3.00537 0
M  V30 3066 H 301.083 -0.308679 -3.90883 0
M  V30 3067 H 302.573 0.657865 -4.12386 0
M  V30 3068 N 303.011 1.40521 -0.713556 0
M  V30 3069 C 304.288 1.94775 -0.17943 0
M  V30 3070 C 304.668 1.65184 1.31444 0
M  V30 3071 O 304.016 0.968429 2.06963 0
M  V30 3072 C 304.226 3.45543 -0.489986 0
M  V30 3073 C 305.574 4.22442 -0.427536 0
M  V30 3074 O 306.598 3.53644 -0.425929 0
M  V30 3075 O 305.457 5.4501 -0.403292 0
M  V30 3076 H 302.551 0.826606 -0.0255192 0
M  V30 3077 H 305.097 1.5014 -0.790949 0
M  V30 3078 H 303.869 3.60432 -1.5233 0
M  V30 3079 H 303.492 3.97311 0.151598 0
M  V30 3080 N 304.489 0.459591 1.5075 0
M  V30 3081 C 305.452 -0.329093 2.26825 0
M  V30 3082 C 306.452 -0.930481 1.31144 0
M  V30 3083 O 307.642 -0.801453 1.54669 0
M  V30 3084 C 304.774 -1.46768 3.07688 0
M  V30 3085 H 305.967 0.337924 2.9799 0
M  V30 3086 H 303.52 0.213336 1.54837 0
M  V30 3087 H 304.255 -2.17009 2.40993 0
M  V30 3088 H 304.04 -1.04238 3.77991 0
M  V30 3089 H 305.53 -2.02433 3.65254 0
M  V30 3090 N 305.967 -1.56429 0.191757 0
M  V30 3091 C 306.877 -2.22541 -0.742481 0
M  V30 3092 C 307.893 -1.22342 -1.23727 0
M  V30 3093 O 309.069 -1.55069 -1.28513 0
M  V30 3094 C 306.134 -2.8692 -1.94623 0
M  V30 3095 C 305.195 -4.02378 -1.49633 0
M  V30 3096 C 304.428 -4.63678 -2.6427 0
M  V30 3097 O 304.651 -4.23895 -3.81666 0
M  V30 3098 O 303.585 -5.53202 -2.37174 0
M  V30 3099 H 307.411 -3.02977 -0.209462 0
M  V30 3100 H 304.996 -1.49353 -0.0373832 0
M  V30 3101 H 306.878 -3.27663 -2.64982 0
M  V30 3102 H 305.553 -2.09466 -2.46791 0
M  V30 3103 H 304.46 -3.66265 -0.761636 0
M  V30 3104 H 305.793 -4.81487 -1.02134 0
M  V30 3105 N 307.445 0.0818655 -1.57387 0
M  V30 3106 C 308.377 1.12484 -1.997 0
M  V30 3107 C 309.39 1.35564 -0.90146 0
M  V30 3108 O 310.579 1.33982 -1.17945 0
M  V30 3109 C 307.679 2.47778 -2.31213 0
M  V30 3110 C 306.852 2.44793 -3.62485 0
M  V30 3111 C 305.911 3.62117 -3.81782 0
M  V30 3112 O 304.937 3.44005 -4.53486 0
M  V30 3113 N 306.139 4.82094 -3.23367 0
M  V30 3114 H 308.904 0.764585 -2.89783 0
M  V30 3115 H 306.465 0.270664 -1.59621 0
M  V30 3116 H 308.457 3.24891 -2.41304 0
M  V30 3117 H 307.027 2.75843 -1.4707 0
M  V30 3118 H 306.247 1.53134 -3.6324 0
M  V30 3119 H 307.535 2.39889 -4.48699 0
M  V30 3120 H 306.933 4.99713 -2.65148 0
M  V30 3121 H 305.49 5.56753 -3.38923 0
M  V30 3122 N 308.923 1.53595 0.353017 0
M  V30 3123 C 310.171 1.70049 1.09215 0
M  V30 3124 C 310.492 0.461406 1.89463 0
M  V30 3125 O 309.762 -0.524633 1.88744 0
M  V30 3126 H 308.342 0.626912 0.40619 0
M  V30 3127 H 311.004 1.90822 0.396585 0
M  V30 3128 H 310.1 2.56718 1.77488 0
M  V30 3129 N 310.401 -0.613514 1.45168 0
M  V30 3130 C 311.817 -0.933629 1.29443 0
M  V30 3131 C 312.017 -2.00028 0.243101 0
M  V30 3132 O 311.073 -2.49848 -0.364992 0
M  V30 3133 C 312.386 -1.38018 2.67155 0
M  V30 3134 C 313.934 -1.49471 2.75004 0
M  V30 3135 C 314.409 -1.97503 4.13227 0
M  V30 3136 N 315.9 -2.04746 4.15491 0
M  V30 3137 C 316.635 -2.43121 5.19307 0
M  V30 3138 N 316.131 -2.80506 6.33473 0
M  V30 3139 N 317.924 -2.43408 5.06664 0
M  V30 3140 H 310.075 0.0916097 2.12202 0
M  V30 3141 H 312.338 -0.0216655 0.947752 0
M  V30 3142 H 312.044 -0.670625 3.45247 0
M  V30 3143 H 311.918 -2.34784 2.95222 0
M  V30 3144 H 314.305 -2.19519 1.9722 0
M  V30 3145 H 314.386 -0.510342 2.50657 0
M  V30 3146 H 314.03 -1.28045 4.91495 0
M  V30 3147 H 313.96 -2.96843 4.34962 0
M  V30 3148 H 316.451 -1.78468 3.33103 0
M  V30 3149 H 316.764 -3.08652 7.08487 0
M  V30 3150 H 315.109 -2.78216 6.36884 0
M  V30 3151 H 318.3 -2.13604 4.16523 0
M  V30 3152 H 318.473 -2.72989 5.87691 0
M  V30 3153 N 311.879 -1.3236 -0.855495 0
M  V30 3154 C 312.842 -1.21164 -1.94556 0
M  V30 3155 C 313.842 -0.134908 -1.60233 0
M  V30 3156 O 315.032 -0.385249 -1.69887 0
M  V30 3157 C 312.164 -0.863192 -3.29791 0
M  V30 3158 H 313.357 -2.18038 -2.05911 0
M  V30 3159 H 310.91 -1.16179 -1.04557 0
M  V30 3160 H 311.645 0.103769 -3.24134 0
M  V30 3161 H 311.43 -1.64166 -3.56078 0
M  V30 3162 H 312.92 -0.809156 -4.09686 0
M  V30 3163 N 313.357 1.07166 -1.15556 0
M  V30 3164 C 314.287 2.16403 -0.877046 0
M  V30 3165 C 315.268 1.69217 0.173111 0
M  V30 3166 O 316.453 1.94181 0.027084 0
M  V30 3167 C 313.583 3.45349 -0.367632 0
M  V30 3168 C 312.537 4.05995 -1.35468 0
M  V30 3169 C 311.863 5.30045 -0.704038 0
M  V30 3170 C 313.163 4.45804 -2.72132 0
M  V30 3171 H 314.857 2.39959 -1.79053 0
M  V30 3172 H 312.403 1.15325 -0.862331 0
M  V30 3173 H 314.356 4.21095 -0.160317 0
M  V30 3174 H 313.08 3.21385 0.581326 0
M  V30 3175 H 311.739 3.32296 -1.54839 0
M  V30 3176 H 311.387 5.02373 0.251128 0
M  V30 3177 H 311.087 5.71579 -1.36277 0
M  V30 3178 H 312.611 6.08495 -0.50654 0
M  V30 3179 H 314.025 5.12671 -2.56595 0
M  V30 3180 H 312.422 4.98296 -3.34397 0
M  V30 3181 H 313.492 3.57083 -3.28054 0
M  V30 3182 N 314.835 0.952656 1.25548 0
M  V30 3183 C 316.083 0.605176 1.92826 0
M  V30 3184 C 316.404 -0.860261 1.74999 0
M  V30 3185 O 315.674 -1.6125 1.11244 0
M  V30 3186 H 314.254 0.220832 0.713612 0
M  V30 3187 H 316.916 1.21047 1.52754 0
M  V30 3188 H 316.012 0.832798 3.00784 0
M  V30 3189 N 316.313 -1.40141 0.720998 0
M  V30 3190 C 317.543 -2.04798 0.27226 0
M  V30 3191 C 317.951 -1.54442 -1.09289 0
M  V30 3192 O 317.294 -0.698342 -1.69908 0
M  V30 3193 C 317.356 -3.59048 0.18027 0
M  V30 3194 C 317.02 -4.32317 1.48159 0
M  V30 3195 C 318.017 -4.59902 2.42458 0
M  V30 3196 C 315.702 -4.71125 1.74202 0
M  V30 3197 C 317.696 -5.25288 3.61042 0
M  V30 3198 C 315.383 -5.36242 2.93066 0
M  V30 3199 C 316.381 -5.63254 3.86308 0
M  V30 3200 O 316.069 -6.27024 5.03086 0
M  V30 3201 H 315.801 -0.665419 0.119139 0
M  V30 3202 H 318.355 -1.80436 0.981432 0
M  V30 3203 H 316.585 -3.82251 -0.58489 0
M  V30 3204 H 318.274 -4.05221 -0.234618 0
M  V30 3205 H 319.04 -4.30379 2.23604 0
M  V30 3206 H 314.919 -4.49466 1.02477 0
M  V30 3207 H 318.463 -5.46289 4.33837 0
M  V30 3208 H 314.36 -5.65185 3.11826 0
M  V30 3209 H 315.128 -6.4552 5.03235 0
M  V30 3210 N 317.792 -0.46758 -1.50504 0
M  V30 3211 C 319.017 0.0886943 -2.0721 0
M  V30 3212 C 319.442 1.33057 -1.32956 0
M  V30 3213 O 318.8 1.77354 -0.376197 0
M  V30 3214 C 318.848 0.359202 -3.58806 0
M  V30 3215 O 317.952 1.44034 -3.8643 0
M  V30 3216 H 317.293 -0.0114349 -0.663902 0
M  V30 3217 H 319.823 -0.657613 -1.93744 0
M  V30 3218 H 319.833 0.600742 -4.03553 0
M  V30 3219 H 318.508 -0.548311 -4.1227 0
M  V30 3220 H 317.085 1.18638 -3.53524 0
M  V30 3221 N 319.27 1.56325 -0.20005 0
M  V30 3222 C 320.518 1.97329 0.436547 0
M  V30 3223 C 320.839 1.08826 1.61808 0
M  V30 3224 O 320.109 0.160604 1.95241 0
M  V30 3225 H 318.689 0.728714 0.164272 0
M  V30 3226 H 321.351 1.92761 -0.287937 0
M  V30 3227 H 320.447 3.02264 0.777353 0
M  V30 3228 N 320.748 -0.0735177 1.57428 0
M  V30 3229 C 321.695 -1.08756 2.0357 0
M  V30 3230 C 322.665 -1.38559 0.916 0
M  V30 3231 O 323.85 -1.49656 1.18354 0
M  V30 3232 C 320.99 -2.39657 2.48311 0
M  V30 3233 C 320.103 -2.16399 3.73892 0
M  V30 3234 C 319.238 -3.40852 4.07423 0
M  V30 3235 C 318.277 -3.1295 5.2605 0
M  V30 3236 N 317.414 -4.29729 5.55228 0
M  V30 3237 H 322.254 -0.687104 2.8997 0
M  V30 3238 H 319.791 -0.327709 1.43403 0
M  V30 3239 H 321.749 -3.16081 2.72303 0
M  V30 3240 H 320.379 -2.77508 1.64891 0
M  V30 3241 H 319.431 -1.30676 3.57251 0
M  V30 3242 H 320.743 -1.91788 4.60455 0
M  V30 3243 H 319.897 -4.25671 4.32306 0
M  V30 3244 H 318.636 -3.68537 3.19425 0
M  V30 3245 H 317.641 -2.26526 5.00965 0
M  V30 3246 H 318.866 -2.86589 6.15665 0
M  V30 3247 H 316.812 -4.57448 4.70188 0
M  V30 3248 H 316.729 -4.08385 6.36206 0
M  V30 3249 H 317.997 -5.1555 5.84661 0
M  V30 3250 N 322.226 -1.5378 -0.344866 0
M  V30 3251 C 323.156 -1.84662 -1.42906 0
M  V30 3252 C 324.137 -0.701648 -1.54955 0
M  V30 3253 O 325.322 -0.953438 -1.69184 0
M  V30 3254 C 322.452 -2.05503 -2.79974 0
M  V30 3255 C 321.406 -3.21318 -2.82734 0
M  V30 3256 C 320.732 -3.2749 -4.22675 0
M  V30 3257 C 322.032 -4.59456 -2.48389 0
M  V30 3258 H 323.726 -2.75461 -1.17311 0
M  V30 3259 H 321.272 -1.32542 -0.562896 0
M  V30 3260 H 323.225 -2.25691 -3.55867 0
M  V30 3261 H 321.949 -1.11434 -3.07002 0
M  V30 3262 H 320.608 -3.00984 -2.09294 0
M  V30 3263 H 320.256 -2.31019 -4.4681 0
M  V30 3264 H 319.956 -4.05316 -4.25433 0
M  V30 3265 H 321.48 -3.49887 -5.00412 0
M  V30 3266 H 322.894 -4.79667 -3.13995 0
M  V30 3267 H 321.291 -5.39675 -2.62432 0
M  V30 3268 H 322.361 -4.63155 -1.4358 0
M  V30 3269 N 323.704 0.605807 -1.45491 0
M  V30 3270 C 324.944 1.37606 -1.51142 0
M  V30 3271 C 325.308 1.91413 -0.150075 0
M  V30 3272 O 326.509 2.68677 -0.0812828 0
M  V30 3273 C 324.78 2.49197 -2.56195 0
M  V30 3274 S 326.339 3.36953 -2.81083 0
M  V30 3275 H 323.157 0.469118 -0.534275 0
M  V30 3276 H 325.759 0.698845 -1.82583 0
M  V30 3277 H 324.463 2.0802 -3.53773 0
M  V30 3278 H 323.994 3.21717 -2.26411 0
M  V30 3279 H 326.009 4.47395 -2.14598 0
M  V30 3280 N 325.182 1.32811 0.848464 0
M  V30 3281 C 326.431 1.23075 1.59798 0
M  V30 3282 C 326.744 -0.204419 1.94529 0
M  V30 3283 O 327.95 -0.423701 2.68173 0
M  V30 3284 C 326.406 2.15594 2.88179 0
M  V30 3285 C 326.014 3.64228 2.60849 0
M  V30 3286 C 327.758 2.14709 3.66197 0
M  V30 3287 C 325.665 4.48689 3.85269 0
M  V30 3288 H 324.595 0.457091 0.599653 0
M  V30 3289 H 327.246 1.57813 0.936342 0
M  V30 3290 H 325.628 1.73778 3.55833 0
M  V30 3291 H 326.802 4.14424 2.01467 0
M  V30 3292 H 325.117 3.67306 1.96151 0
M  V30 3293 H 327.714 2.75046 4.58534 0
M  V30 3294 H 328.057 1.13966 4.00397 0
M  V30 3295 H 328.59 2.54837 3.05455 0
M  V30 3296 H 325.329 5.5027 3.56207 0
M  V30 3297 H 324.849 4.03241 4.44024 0
M  V30 3298 H 326.528 4.62006 4.52946 0
M  V30 3299 N 326.66 -1.06551 1.16123 0
M  V30 3300 C 327.61 -2.12209 0.833736 0
M  V30 3301 C 328.594 -1.59825 -0.185656 0
M  V30 3302 O 329.786 -1.76994 0.0147906 0
M  V30 3303 C 326.915 -3.41674 0.333697 0
M  V30 3304 C 326.001 -4.00892 1.38372 0
M  V30 3305 N 326.392 -4.34256 2.59337 0
M  V30 3306 C 324.69 -4.28463 1.23836 0
M  V30 3307 C 325.391 -4.81291 3.26701 0
M  V30 3308 N 324.367 -4.80565 2.54083 0
M  V30 3309 H 328.169 -2.35849 1.75364 0
M  V30 3310 H 325.683 -1.24068 1.04789 0
M  V30 3311 H 327.68 -4.16822 0.0806918 0
M  V30 3312 H 326.34 -3.19475 -0.58017 0
M  V30 3313 H 327.351 -4.24687 2.96415 0
M  V30 3314 H 324.028 -4.15721 0.38504 0
M  V30 3315 H 325.418 -5.16332 4.29943 0
M  V30 3316 N 328.138 -0.959301 -1.25041 0
M  V30 3317 C 329.549 -0.65667 -1.74771 0
M  V30 3318 C 329.9 0.827852 -1.77879 0
M  V30 3319 O 329.025 1.64783 -1.40269 0
M  V30 3320 C 329.62 -1.1853 -3.1739 0
M  V30 3321 C 328.179 -0.932734 -3.6466 0
M  V30 3322 C 327.326 -1.32558 -2.43564 0
M  V30 3323 H 330.277 -1.13558 -1.10862 0
M  V30 3324 H 330.298 -0.547582 -3.76539 0
M  V30 3325 H 329.81 -2.26576 -3.15095 0
M  V30 3326 H 327.911 0.13257 -3.72364 0
M  V30 3327 H 328.024 -1.57248 -4.52559 0
M  V30 3328 H 326.388 -0.743956 -2.43593 0
M  V30 3329 H 327.171 -2.41537 -2.43957 0
M  V30 3330 N 329.616 1.39756 -0.72842 0
M  V30 3331 C 330.579 2.29012 -0.0927297 0
M  V30 3332 C 331.579 1.45992 0.674025 0
M  V30 3333 O 332.769 1.66749 0.50402 0
M  V30 3334 C 329.901 3.29396 0.878137 0
M  V30 3335 H 331.094 2.86729 -0.879011 0
M  V30 3336 H 328.647 1.48293 -0.493847 0
M  V30 3337 H 329.382 2.76722 1.69101 0
M  V30 3338 H 329.167 3.907 0.331051 0
M  V30 3339 H 330.657 3.96199 1.3197 0
M  V30 3340 N 331.094 0.475555 1.50254 0
M  V30 3341 C 332.026 -0.352649 2.26471 0
M  V30 3342 C 333.039 -0.953165 1.3198 0
M  V30 3343 O 334.228 -0.840815 1.57457 0
M  V30 3344 C 331.328 -1.50902 3.0345 0
M  V30 3345 C 330.501 -1.02047 4.25329 0
M  V30 3346 C 329.56 -2.05142 4.84565 0
M  V30 3347 O 328.586 -1.63023 5.45355 0
M  V30 3348 N 329.788 -3.37987 4.71959 0
M  V30 3349 H 332.553 0.300767 2.98187 0
M  V30 3350 H 330.114 0.306598 1.5897 0
M  V30 3351 H 332.106 -2.19572 3.39956 0
M  V30 3352 H 330.676 -2.06705 2.34504 0
M  V30 3353 H 329.896 -0.159507 3.93877 0
M  V30 3354 H 331.184 -0.672061 5.04342 0
M  V30 3355 H 330.582 -3.74913 4.23623 0
M  V30 3356 H 329.139 -4.02443 5.12721 0
M  V30 3357 N 332.573 -1.56217 0.208337 0
M  V30 3358 C 333.819 -1.98242 -0.427552 0
M  V30 3359 C 334.152 -1.09554 -1.60348 0
M  V30 3360 O 333.427 -0.15035 -1.93918 0
M  V30 3361 C 333.71 -3.4931 -0.874907 0
M  V30 3362 C 333.563 -4.48773 0.303751 0
M  V30 3363 C 334.882 -4.04424 -1.73577 0
M  V30 3364 H 332.001 -0.720744 -0.153936 0
M  V30 3365 H 334.643 -1.87586 0.30192 0
M  V30 3366 H 332.793 -3.58522 -1.49648 0
M  V30 3367 H 334.465 -4.51586 0.941682 0
M  V30 3368 H 332.708 -4.23194 0.953375 0
M  V30 3369 H 333.379 -5.51976 -0.0519883 0
M  V30 3370 H 335.855 -3.98075 -1.21143 0
M  V30 3371 H 334.731 -5.1047 -2.01771 0
M  V30 3372 H 334.992 -3.50494 -2.69456 0
M  V30 3373 N 334.051 0.0651679 -1.57465 0
M  V30 3374 C 335.014 1.06117 -2.03155 0
M  V30 3375 C 336.014 1.31204 -0.929632 0
M  V30 3376 O 337.204 1.26813 -1.19432 0
M  V30 3377 C 334.336 2.4032 -2.41783 0
M  V30 3378 H 335.529 0.667231 -2.92383 0
M  V30 3379 H 333.082 0.311075 -1.53173 0
M  V30 3380 H 333.817 2.84532 -1.55601 0
M  V30 3381 H 333.602 2.23451 -3.22199 0
M  V30 3382 H 335.092 3.11898 -2.77685 0
M  V30 3383 N 335.529 1.53961 0.336706 0
M  V30 3384 C 336.459 1.85417 1.41925 0
M  V30 3385 C 337.44 0.709856 1.5458 0
M  V30 3386 O 338.625 0.962396 1.68676 0
M  V30 3387 C 335.755 2.06985 2.78881 0
M  V30 3388 C 334.709 3.22813 2.81026 0
M  V30 3389 C 334.035 3.29727 4.20932 0
M  V30 3390 C 335.335 4.60767 2.45949 0
M  V30 3391 H 337.029 2.76079 1.15848 0
M  V30 3392 H 334.575 1.32839 0.555859 0
M  V30 3393 H 336.528 2.27575 3.54665 0
M  V30 3394 H 335.252 1.13061 3.06406 0
M  V30 3395 H 333.911 3.0209 2.07695 0
M  V30 3396 H 333.559 2.33385 4.45579 0
M  V30 3397 H 333.259 4.07566 4.23277 0
M  V30 3398 H 334.783 3.52536 4.98549 0
M  V30 3399 H 336.197 4.81325 3.11446 0
M  V30 3400 H 334.594 5.4106 2.59566 0
M  V30 3401 H 335.664 4.6391 1.41122 0
M  V30 3402 N 337.007 -0.598083 1.45811 0
M  V30 3403 C 337.97 -1.69018 1.54808 0
M  V30 3404 C 338.97 -1.55037 0.426652 0
M  V30 3405 O 340.16 -1.59932 0.690456 0
M  V30 3406 C 337.292 -3.0835 1.45371 0
M  V30 3407 H 338.485 -1.62403 2.52121 0
M  V30 3408 H 336.038 -0.814626 1.33392 0
M  V30 3409 H 336.773 -3.20534 0.492793 0
M  V30 3410 H 336.558 -3.19907 2.26721 0
M  V30 3411 H 338.048 -3.8788 1.54721 0
M  V30 3412 N 338.485 -1.33259 -0.841409 0
M  V30 3413 C 339.435 -1.19872 -1.93945 0
M  V30 3414 C 340.419 -0.102269 -1.60575 0
M  V30 3415 O 341.611 -0.330114 -1.73894 0
M  V30 3416 C 338.74 -0.937517 -3.30251 0
M  V30 3417 C 337.826 -2.07629 -3.69799 0
M  V30 3418 N 338.217 -3.32604 -3.81062 0
M  V30 3419 C 336.515 -1.98242 -3.9952 0
M  V30 3420 C 337.216 -4.07275 -4.15333 0
M  V30 3421 N 336.192 -3.35691 -4.27566 0
M  V30 3422 H 339.994 -2.14604 -2.00805 0
M  V30 3423 H 337.508 -1.2523 -1.03398 0
M  V30 3424 H 339.505 -0.822545 -4.08705 0
M  V30 3425 H 338.165 0.00128798 -3.247 0
M  V30 3426 H 339.176 -3.67382 -3.65035 0
M  V30 3427 H 335.853 -1.12005 -4.02195 0
M  V30 3428 H 337.243 -5.1511 -4.31406 0
M  V30 3429 N 339.963 1.05934 -1.16686 0
M  V30 3430 C 340.873 2.17014 -0.891183 0
M  V30 3431 C 341.889 1.73453 0.137907 0
M  V30 3432 O 343.065 2.01361 -0.039592 0
M  V30 3433 C 340.13 3.44384 -0.400099 0
M  V30 3434 C 339.191 4.02433 -1.49486 0
M  V30 3435 C 338.424 5.23723 -1.02711 0
M  V30 3436 O 338.647 5.7027 0.121716 0
M  V30 3437 O 337.581 5.7382 -1.81699 0
M  V30 3438 H 341.407 2.43113 -1.82015 0
M  V30 3439 H 338.992 1.15541 -0.947132 0
M  V30 3440 H 340.874 4.21189 -0.133392 0
M  V30 3441 H 339.549 3.19802 0.500817 0
M  V30 3442 H 338.456 3.27102 -1.81535 0
M  V30 3443 H 339.789 4.31317 -2.37121 0
M  V30 3444 N 341.441 0.965919 1.2453 0
M  V30 3445 C 342.671 0.643451 1.96324 0
M  V30 3446 C 343.079 -0.790927 1.71875 0
M  V30 3447 O 342.422 -1.54208 0.998273 0
M  V30 3448 C 342.484 0.836078 3.49643 0
M  V30 3449 C 342.148 2.24975 3.97788 0
M  V30 3450 C 343.145 3.22735 4.07601 0
M  V30 3451 C 340.83 2.57697 4.31158 0
M  V30 3452 C 342.824 4.51303 4.50116 0
M  V30 3453 C 340.511 3.86492 4.73357 0
M  V30 3454 C 341.509 4.83107 4.828 0
M  V30 3455 O 341.197 6.09605 5.24058 0
M  V30 3456 H 340.929 0.239223 0.632257 0
M  V30 3457 H 343.483 1.29587 1.59362 0
M  V30 3458 H 341.713 0.12649 3.86493 0
M  V30 3459 H 343.402 0.512965 4.02646 0
M  V30 3460 H 344.168 2.98783 3.82039 0
M  V30 3461 H 340.047 1.83216 4.23028 0
M  V30 3462 H 343.591 5.26716 4.57401 0
M  V30 3463 H 339.488 4.10245 4.98366 0
M  V30 3464 H 340.256 6.13146 5.42213 0
M  V30 3465 N 342.919 -1.39368 0.735821 0
M  V30 3466 C 344.166 -2.00497 0.284123 0
M  V30 3467 C 344.494 -1.58387 -1.12889 0
M  V30 3468 O 343.749 -0.804359 -1.78406 0
M  V30 3469 C 344.048 -3.5583 0.334651 0
M  V30 3470 C 343.714 -4.17593 1.7008 0
M  V30 3471 C 342.376 -4.34176 2.07472 0
M  V30 3472 C 344.728 -4.51848 2.59775 0
M  V30 3473 C 342.056 -4.82304 3.34065 0
M  V30 3474 C 344.408 -5.01384 3.85741 0
M  V30 3475 C 343.072 -5.16175 4.23225 0
M  V30 3476 H 342.342 -0.73367 0.103968 0
M  V30 3477 H 344.989 -1.66683 0.942825 0
M  V30 3478 H 343.294 -3.89674 -0.407625 0
M  V30 3479 H 344.991 -4.00986 -0.0329927 0
M  V30 3480 H 341.581 -4.05087 1.40008 0
M  V30 3481 H 345.765 -4.38653 2.32157 0
M  V30 3482 H 341.021 -4.91941 3.63049 0
M  V30 3483 H 345.195 -5.26863 4.55399 0
M  V30 3484 H 342.822 -5.5323 5.21384 0
M  V30 3485 N 344.397 -0.483516 -1.5 0
M  V30 3486 C 345.645 0.067027 -2.01989 0
M  V30 3487 C 345.966 1.3909 -1.36671 0
M  V30 3488 O 345.236 1.88978 -0.516152 0
M  V30 3489 H 343.816 0.0277606 -0.746484 0
M  V30 3490 H 346.478 -0.636773 -1.84204 0
M  V30 3491 H 345.574 0.209484 -3.11396 0
M  V30 3492 N 345.875 1.56104 -0.216619 0
M  V30 3493 C 347.286 1.844 0.292128 0
M  V30 3494 C 347.637 1.13788 1.59833 0
M  V30 3495 O 346.762 0.405888 2.12559 0
M  V30 3496 C 347.357 3.3452 0.53681 0
M  V30 3497 C 345.916 3.63151 0.989876 0
M  V30 3498 C 345.063 2.77255 0.0502302 0
M  V30 3499 H 348.014 1.52481 -0.439926 0
M  V30 3500 H 348.035 3.54459 1.38345 0
M  V30 3501 H 347.547 3.85885 -0.414031 0
M  V30 3502 H 345.648 3.17238 1.95425 0
M  V30 3503 H 345.761 4.71177 0.867698 0
M  V30 3504 H 344.125 2.48555 0.556117 0
M  V30 3505 H 344.908 3.31416 -0.89544 0
M  V30 3506 N 347.353 -0.0568162 1.57498 0
M  V30 3507 C 348.581 -0.765626 1.92213 0
M  V30 3508 C 348.996 -1.70353 0.813961 0
M  V30 3509 O 348.353 -1.81268 -0.211701 0
M  V30 3510 C 348.404 -1.5465 3.2675 0
M  V30 3511 O 348.125 -0.646278 4.33307 0
M  V30 3512 C 349.626 -2.35497 3.75574 0
M  V30 3513 H 346.846 -0.216835 0.634999 0
M  V30 3514 H 349.39 -0.0226146 2.04487 0
M  V30 3515 H 347.545 -2.24165 3.15957 0
M  V30 3516 H 347.959 -1.19093 5.108 0
M  V30 3517 H 349.433 -2.85722 4.72299 0
M  V30 3518 H 349.91 -3.15692 3.05344 0
M  V30 3519 H 350.516 -1.7111 3.8936 0
M  V30 3520 N 348.832 -1.54138 -0.328536 0
M  V30 3521 C 349.742 -1.86192 -1.42723 0
M  V30 3522 C 350.758 -0.753382 -1.56844 0
M  V30 3523 O 351.934 -1.04718 -1.72035 0
M  V30 3524 C 348.999 -2.07824 -2.77507 0
M  V30 3525 C 348.06 -3.31641 -2.72603 0
M  V30 3526 C 347.293 -3.52232 -4.00959 0
M  V30 3527 O 347.516 -2.7636 -4.9898 0
M  V30 3528 O 346.45 -4.45699 -4.0452 0
M  V30 3529 H 350.276 -2.79608 -1.18547 0
M  V30 3530 H 347.861 -1.3998 -0.522104 0
M  V30 3531 H 349.743 -2.23411 -3.57303 0
M  V30 3532 H 348.418 -1.17596 -3.01584 0
M  V30 3533 H 347.325 -3.21444 -1.91376 0
M  V30 3534 H 348.658 -4.2191 -2.53481 0
M  V30 3535 N 350.31 0.590341 -1.46126 0
M  V30 3536 C 351.273 1.68194 -1.55703 0
M  V30 3537 C 352.273 1.54808 -0.434868 0
M  V30 3538 O 353.463 1.59564 -0.698928 0
M  V30 3539 C 350.595 3.07575 -1.47005 0
M  V30 3540 H 351.788 1.61064 -2.52979 0
M  V30 3541 H 349.341 0.807541 -1.33823 0
M  V30 3542 H 350.076 3.20268 -0.509785 0
M  V30 3543 H 349.861 3.187 -2.28414 0
M  V30 3544 H 351.351 3.87055 -1.56776 0
M  V30 3545 N 351.788 1.33704 0.83433 0
M  V30 3546 C 353.065 1.16011 1.57483 0
M  V30 3547 C 353.445 -0.27176 2.09343 0
M  V30 3548 O 352.793 -1.27146 1.89858 0
M  V30 3549 C 353.003 2.20507 2.70514 0
M  V30 3550 C 354.351 2.54898 3.39577 0
M  V30 3551 O 355.375 2.19209 2.80759 0
M  V30 3552 O 354.234 3.16158 4.45765 0
M  V30 3553 H 351.328 0.448992 0.694503 0
M  V30 3554 H 353.874 1.453 0.876691 0
M  V30 3555 H 352.646 3.16667 2.29865 0
M  V30 3556 H 352.269 1.92329 3.47987 0
M  V30 3557 N 353.266 -1.05314 1.17247 0
M  V30 3558 C 354.682 -1.30452 0.919473 0
M  V30 3559 C 354.882 -1.9703 -0.42209 0
M  V30 3560 O 353.938 -2.24311 -1.15935 0
M  V30 3561 C 355.251 -2.17551 2.07586 0
M  V30 3562 C 356.799 -2.30937 2.11275 0
M  V30 3563 C 357.274 -3.21396 3.26296 0
M  V30 3564 N 358.765 -3.28981 3.26076 0
M  V30 3565 C 359.5 -3.99095 4.11716 0
M  V30 3566 N 358.996 -4.71648 5.07465 0
M  V30 3567 N 360.789 -3.95247 3.9967 0
M  V30 3568 H 352.94 -0.604988 2.03602 0
M  V30 3569 H 355.203 -0.329368 0.888944 0
M  V30 3570 H 354.909 -1.75921 3.0454 0
M  V30 3571 H 354.783 -3.18182 2.02584 0
M  V30 3572 H 357.17 -2.71809 1.14907 0
M  V30 3573 H 357.251 -1.2994 2.20339 0
M  V30 3574 H 356.895 -2.81238 4.22927 0
M  V30 3575 H 356.825 -4.22395 3.14467 0
M  V30 3576 H 359.316 -2.77286 2.5675 0
M  V30 3577 H 359.629 -5.22705 5.6921 0
M  V30 3578 H 357.974 -4.70594 5.11435 0
M  V30 3579 H 361.165 -3.37691 3.24164 0
M  V30 3580 H 361.338 -4.4962 4.66632 0
M  V30 3581 N 354.744 -0.972509 -1.24016 0
M  V30 3582 C 355.707 -0.511403 -2.23422 0
M  V30 3583 C 356.707 0.394679 -1.55881 0
M  V30 3584 O 357.897 0.189469 -1.73167 0
M  V30 3585 C 355.029 0.258769 -3.39916 0
M  V30 3586 H 356.222 -1.39024 -2.6573 0
M  V30 3587 H 353.775 -0.757585 -1.36713 0
M  V30 3588 H 354.51 1.1545 -3.03054 0
M  V30 3589 H 354.295 -0.391522 -3.9014 0
M  V30 3590 H 355.785 0.570244 -4.13688 0
M  V30 3591 N 356.222 1.38976 -0.743202 0
M  V30 3592 C 357.638 1.53984 -0.419664 0
M  V30 3593 C 357.838 1.70837 1.0685 0
M  V30 3594 O 356.894 1.7135 1.8546 0
M  V30 3595 C 358.207 2.75287 -1.20985 0
M  V30 3596 C 359.755 2.89129 -1.19889 0
M  V30 3597 C 360.23 4.13381 -1.97181 0
M  V30 3598 N 361.721 4.20437 -1.94389 0
M  V30 3599 C 362.456 5.15547 -2.50996 0
M  V30 3600 N 361.952 6.16395 -3.16274 0
M  V30 3601 N 363.745 5.07822 -2.40984 0
M  V30 3602 H 355.896 1.26285 -1.7078 0
M  V30 3603 H 358.159 0.612689 -0.723406 0
M  V30 3604 H 357.865 2.69204 -2.26323 0
M  V30 3605 H 357.739 3.68184 -0.819759 0
M  V30 3606 H 360.126 2.947 -0.153606 0
M  V30 3607 H 360.207 1.97272 -1.62841 0
M  V30 3608 H 359.851 4.08572 -3.01714 0
M  V30 3609 H 359.781 5.04298 -1.51629 0
M  V30 3610 H 362.272 3.48205 -1.46839 0
M  V30 3611 H 362.585 6.85443 -3.56915 0
M  V30 3612 H 360.93 6.16758 -3.20367 0
M  V30 3613 H 364.121 4.27973 -1.89622 0
M  V30 3614 H 364.294 5.81767 -2.85397 0
M  V30 3615 N 357.7 0.491464 1.49741 0
M  V30 3616 C 358.663 -0.280906 2.27472 0
M  V30 3617 C 359.663 -0.902454 1.33088 0
M  V30 3618 O 360.853 -0.768465 1.56334 0
M  V30 3619 C 357.985 -1.40209 3.10732 0
M  V30 3620 H 359.178 0.401056 2.97206 0
M  V30 3621 H 356.731 0.246131 1.5435 0
M  V30 3622 H 357.466 -2.11849 2.45541 0
M  V30 3623 H 357.251 -0.961969 3.80117 0
M  V30 3624 H 358.741 -1.9464 3.69466 0
M  V30 3625 N 359.178 -1.55987 0.224894 0
M  V30 3626 C 360.594 -1.59066 -0.130426 0
M  V30 3627 C 360.794 -1.24176 -1.5869 0
M  V30 3628 O 359.85 -0.978592 -2.32766 0
M  V30 3629 C 361.163 -3.00042 0.198883 0
M  V30 3630 C 362.711 -3.1268 0.141391 0
M  V30 3631 C 363.186 -4.55839 0.444422 0
M  V30 3632 N 364.677 -4.6152 0.394115 0
M  V30 3633 C 365.412 -5.70231 0.602038 0
M  V30 3634 N 364.908 -6.87291 0.871914 0
M  V30 3635 N 366.701 -5.59555 0.534245 0
M  V30 3636 H 358.852 -1.76941 1.17497 0
M  V30 3637 H 361.115 -0.822604 0.471197 0
M  V30 3638 H 360.821 -3.30234 1.2099 0
M  V30 3639 H 360.695 -3.74075 -0.484535 0
M  V30 3640 H 363.082 -2.82283 -0.860265 0
M  V30 3641 H 363.163 -2.40969 0.858335 0
M  V30 3642 H 362.807 -4.86954 1.44353 0
M  V30 3643 H 362.737 -5.2578 -0.293752 0
M  V30 3644 H 365.228 -3.77405 0.193356 0
M  V30 3645 H 365.541 -7.66058 1.01858 0
M  V30 3646 H 363.886 -6.89028 0.909145 0
M  V30 3647 H 367.077 -4.6698 0.323612 0
M  V30 3648 H 367.25 -6.44211 0.699693 0
M  V30 3649 N 360.656 0.0484629 -1.57525 0
M  V30 3650 C 361.619 1.03956 -2.04269 0
M  V30 3651 C 362.619 1.30211 -0.943496 0
M  V30 3652 O 363.809 1.25539 -1.20771 0
M  V30 3653 C 360.941 2.37742 -2.44319 0
M  V30 3654 H 362.134 0.636182 -2.93075 0
M  V30 3655 H 359.687 0.294811 -1.53494 0
M  V30 3656 H 360.422 2.82866 -1.5861 0
M  V30 3657 H 360.207 2.20021 -3.24551 0
M  V30 3658 H 361.697 3.08936 -2.80978 0
M  V30 3659 N 362.134 1.5431 0.320358 0
M  V30 3660 C 363.064 1.86912 1.3995 0
M  V30 3661 C 364.045 0.726211 1.53819 0
M  V30 3662 O 365.23 0.980233 1.67646 0
M  V30 3663 C 362.36 2.09932 2.7667 0
M  V30 3664 C 361.314 3.25776 2.77586 0
M  V30 3665 C 360.64 3.34173 4.17412 0
M  V30 3666 C 361.94 4.6335 2.41048 0
M  V30 3667 H 363.634 2.77292 1.12914 0
M  V30 3668 H 361.18 1.33421 0.541738 0
M  V30 3669 H 363.133 2.31324 3.52232 0
M  V30 3670 H 361.857 1.16304 3.0519 0
M  V30 3671 H 360.516 3.04276 2.04479 0
M  V30 3672 H 360.164 2.38098 4.43078 0
M  V30 3673 H 359.864 4.12033 4.18931 0
M  V30 3674 H 361.388 3.57803 4.94782 0
M  V30 3675 H 362.802 4.84602 3.06324 0
M  V30 3676 H 361.199 5.43782 2.53813 0
M  V30 3677 H 362.269 4.65381 1.36193 0
M  V30 3678 N 363.613 -0.582584 1.46437 0
M  V30 3679 C 364.543 -1.70187 1.59871 0
M  V30 3680 C 365.524 -1.64066 0.449042 0
M  V30 3681 O 366.709 -1.82081 0.6753 0
M  V30 3682 C 363.839 -3.08827 1.58881 0
M  V30 3683 C 362.793 -3.29779 2.72819 0
M  V30 3684 C 362.119 -4.68947 2.5689 0
M  V30 3685 C 363.419 -3.17601 4.1464 0
M  V30 3686 H 365.113 -1.592 2.53566 0
M  V30 3687 H 362.659 -0.764472 1.22032 0
M  V30 3688 H 364.612 -3.86951 1.66873 0
M  V30 3689 H 363.336 -3.20713 0.617306 0
M  V30 3690 H 361.995 -2.54054 2.64296 0
M  V30 3691 H 361.643 -4.77599 1.57823 0
M  V30 3692 H 361.343 -4.83919 3.33312 0
M  V30 3693 H 362.867 -5.4924 2.66773 0
M  V30 3694 H 364.281 -3.8557 4.24274 0
M  V30 3695 H 362.678 -3.44094 4.9165 0
M  V30 3696 H 363.748 -2.14681 4.34788 0
M  V30 3697 N 365.091 -1.34144 -0.827227 0
M  V30 3698 C 366.368 -1.16844 -1.56865 0
M  V30 3699 C 366.748 0.260654 -2.09485 0
M  V30 3700 O 366.096 1.26138 -1.9053 0
M  V30 3701 C 366.306 -2.21939 -2.6934 0
M  V30 3702 C 367.654 -2.56695 -3.3822 0
M  V30 3703 O 368.678 -2.20695 -2.79593 0
M  V30 3704 O 367.537 -3.18518 -4.44082 0
M  V30 3705 H 364.631 -0.452669 -0.692112 0
M  V30 3706 H 367.177 -1.45763 -0.868973 0
M  V30 3707 H 365.949 -3.17882 -2.28182 0
M  V30 3708 H 365.572 -1.94172 -3.46962 0
M  V30 3709 N 366.569 1.04691 -1.17803 0
M  V30 3710 C 367.532 2.10724 -0.901545 0
M  V30 3711 C 368.532 1.6042 0.110437 0
M  V30 3712 O 369.722 1.7377 -0.122303 0
M  V30 3713 C 366.854 3.39084 -0.351409 0
M  V30 3714 H 368.047 2.36686 -1.84174 0
M  V30 3715 H 365.6 1.21015 -0.98919 0
M  V30 3716 H 366.335 3.18782 0.59569 0
M  V30 3717 H 366.12 3.76909 -1.08083 0
M  V30 3718 H 367.61 4.17227 -0.176451 0
M  V30 3719 N 368.047 0.979072 1.23499 0
M  V30 3720 C 369.01 0.523244 2.23147 0
M  V30 3721 C 370.01 -0.386406 1.56088 0
M  V30 3722 O 371.2 -0.180283 1.73265 0
M  V30 3723 C 368.332 -0.240739 3.40049 0
M  V30 3724 H 369.525 1.40432 2.64989 0
M  V30 3725 H 367.078 0.764824 1.36309 0
M  V30 3726 H 367.813 -1.13841 3.03662 0
M  V30 3727 H 367.598 0.412207 3.89927 0
M  V30 3728 H 369.088 -0.548297 4.13985 0
M  V30 3729 N 369.525 -1.3858 0.750561 0
M  V30 3730 C 370.488 -2.28836 0.129152 0
M  V30 3731 C 371.488 -1.47045 -0.650714 0
M  V30 3732 O 372.678 -1.6753 -0.477428 0
M  V30 3733 C 369.81 -3.30751 -0.825622 0
M  V30 3734 H 371.003 -2.85294 0.924516 0
M  V30 3735 H 368.556 -1.47489 0.517376 0
M  V30 3736 H 369.291 -2.79378 -1.64677 0
M  V30 3737 H 369.076 -3.91177 -0.268852 0
M  V30 3738 H 370.566 -3.98249 -1.2565 0
M  V30 3739 N 371.003 -0.499398 -1.49478 0
M  V30 3740 C 371.966 0.268838 -2.27618 0
M  V30 3741 C 372.966 0.895383 -1.33565 0
M  V30 3742 O 374.156 0.760164 -1.56739 0
M  V30 3743 C 371.288 1.38559 -3.11471 0
M  V30 3744 H 372.481 -0.416812 -2.96989 0
M  V30 3745 H 370.034 -0.254313 -1.54217 0
M  V30 3746 H 370.769 2.10544 -2.46661 0
M  V30 3747 H 370.554 0.941797 -3.80621 0
M  V30 3748 H 372.044 1.92678 -3.70493 0
M  V30 3749 N 372.481 1.55866 -0.233164 0
M  V30 3750 C 373.444 2.1953 0.658715 0
M  V30 3751 C 374.444 1.16053 1.11303 0
M  V30 3752 O 375.634 1.41218 1.01996 0
M  V30 3753 C 372.766 2.82791 1.90373 0
M  V30 3754 H 373.959 2.99721 0.10347 0
M  V30 3755 H 371.512 1.56291 0.0164245 0
M  V30 3756 H 372.247 2.06501 2.50056 0
M  V30 3757 H 372.032 3.58578 1.58632 0
M  V30 3758 H 373.522 3.31556 2.53891 0
M  V30 3759 N 373.959 -0.0401083 1.57549 0
M  V30 3760 C 374.922 -1.02871 2.04817 0
M  V30 3761 C 375.922 -1.29708 0.950388 0
M  V30 3762 O 377.112 -1.24897 1.21435 0
M  V30 3763 C 374.244 -2.36443 2.45576 0
M  V30 3764 H 375.437 -0.620631 2.93408 0
M  V30 3765 H 372.99 -0.286667 1.53649 0
M  V30 3766 H 373.725 -2.82021 1.60108 0
M  V30 3767 H 373.51 -2.18296 3.25713 0
M  V30 3768 H 375 -3.07441 2.82612 0
M  V30 3769 N 375.437 -1.54477 -0.31217 0
M  V30 3770 C 376.369 -1.81011 -1.40598 0
M  V30 3771 C 377.382 -0.692546 -1.47335 0
M  V30 3772 O 378.571 -0.969847 -1.49854 0
M  V30 3773 C 375.671 -1.92307 -2.79054 0
M  V30 3774 C 374.844 -3.22594 -2.95384 0
M  V30 3775 C 373.903 -3.24448 -4.1427 0
M  V30 3776 O 372.929 -3.98035 -4.06887 0
M  V30 3777 N 374.131 -2.49042 -5.24365 0
M  V30 3778 H 376.896 -2.75408 -1.18196 0
M  V30 3779 H 374.457 -1.53914 -0.502202 0
M  V30 3780 H 376.449 -1.90962 -3.56813 0
M  V30 3781 H 375.019 -1.04955 -2.94454 0
M  V30 3782 H 374.239 -3.36806 -2.04831 0
M  V30 3783 H 375.527 -4.08593 -3.03198 0
M  V30 3784 H 374.925 -1.88867 -5.33241 0
M  V30 3785 H 373.482 -2.53463 -6.005 0
M  V30 3786 N 376.915 0.57481 -1.46744 0
M  V30 3787 C 378.331 0.898981 -1.31873 0
M  V30 3788 C 378.531 1.99313 -0.29605 0
M  V30 3789 O 377.587 2.50728 0.298621 0
M  V30 3790 C 378.9 1.30886 -2.7072 0
M  V30 3791 C 380.448 1.42127 -2.78871 0
M  V30 3792 C 380.923 1.86478 -4.18318 0
M  V30 3793 N 382.414 1.93658 -4.20774 0
M  V30 3794 C 383.149 2.29267 -5.2557 0
M  V30 3795 N 382.645 2.63612 -6.40688 0
M  V30 3796 N 384.438 2.29889 -5.1294 0
M  V30 3797 H 376.589 -0.147839 -2.11885 0
M  V30 3798 H 378.852 -0.00347013 -0.947994 0
M  V30 3799 H 378.558 0.578853 -3.46904 0
M  V30 3800 H 378.432 2.26874 -3.01343 0
M  V30 3801 H 380.819 2.14213 -2.0297 0
M  V30 3802 H 380.9 0.443705 -2.51922 0
M  V30 3803 H 380.544 1.14968 -4.94717 0
M  V30 3804 H 380.474 2.85207 -4.42679 0
M  V30 3805 H 382.965 1.69574 -3.37718 0
M  V30 3806 H 383.278 2.89759 -7.16421 0
M  V30 3807 H 381.623 2.61232 -6.44036 0
M  V30 3808 H 384.814 2.02485 -4.22039 0
M  V30 3809 H 384.987 2.57312 -5.94722 0
M  V30 3810 N 378.394 1.34581 0.820102 0
M  V30 3811 C 379.642 1.26845 1.57336 0
M  V30 3812 C 379.963 -0.160667 1.94337 0
M  V30 3813 O 379.233 -1.09396 1.6251 0
M  V30 3814 H 377.813 0.466514 0.583415 0
M  V30 3815 H 380.475 1.68526 0.979027 0
M  V30 3816 H 379.571 1.87513 2.4949 0
M  V30 3817 N 379.872 -1.04064 1.18357 0
M  V30 3818 C 380.822 -2.10393 0.878561 0
M  V30 3819 C 381.806 -1.60183 -0.151713 0
M  V30 3820 O 382.998 -1.76923 0.0523303 0
M  V30 3821 C 380.127 -3.4089 0.406096 0
M  V30 3822 C 379.213 -3.97866 1.46844 0
M  V30 3823 N 379.604 -4.28657 2.68489 0
M  V30 3824 C 377.902 -4.2574 1.32896 0
M  V30 3825 C 378.603 -4.74253 3.36836 0
M  V30 3826 N 377.579 -4.75068 2.64219 0
M  V30 3827 H 381.381 -2.32076 1.80327 0
M  V30 3828 H 378.895 -1.21818 1.07397 0
M  V30 3829 H 380.892 -4.16557 0.169088 0
M  V30 3830 H 379.552 -3.20633 -0.512275 0
M  V30 3831 H 380.563 -4.18304 3.05356 0
M  V30 3832 H 377.24 -4.1481 0.473134 0
M  V30 3833 H 378.63 -5.07096 4.40798 0
M  V30 3834 N 381.35 -0.985608 -1.22978 0
M  V30 3835 C 382.598 -0.656087 -1.91154 0
M  V30 3836 C 382.919 0.813561 -1.77218 0
M  V30 3837 O 382.189 1.58244 -1.1548 0
M  V30 3838 H 380.769 -0.239674 -0.707506 0
M  V30 3839 H 383.431 -1.25054 -1.49491 0
M  V30 3840 H 382.527 -0.912253 -2.9847 0
M  V30 3841 N 382.828 1.3818 -0.7579 0
M  V30 3842 C 383.791 2.28764 -0.141286 0
M  V30 3843 C 384.791 1.47388 0.642907 0
M  V30 3844 O 385.981 1.67781 0.468536 0
M  V30 3845 C 383.113 3.31184 0.808069 0
M  V30 3846 H 384.306 2.848 -0.939633 0
M  V30 3847 H 381.859 1.47212 -0.525191 0
M  V30 3848 H 382.594 2.80247 1.63193 0
M  V30 3849 H 382.379 3.91314 0.248104 0
M  V30 3850 H 383.869 3.98909 1.23536 0
M  V30 3851 N 384.306 0.507319 1.49211 0
M  V30 3852 C 385.553 -0.0349529 2.0247 0
M  V30 3853 C 385.881 -1.36409 1.38647 0
M  V30 3854 O 385.136 -1.88841 0.513566 0
M  V30 3855 C 385.435 -0.229513 3.56662 0
M  V30 3856 C 385.101 1.02241 4.39156 0
M  V30 3857 C 383.763 1.36557 4.61417 0
M  V30 3858 C 386.115 1.85428 4.871 0
M  V30 3859 C 383.443 2.53999 5.28868 0
M  V30 3860 C 385.795 3.02028 5.55843 0
M  V30 3861 C 384.459 3.36717 5.76349 0
M  V30 3862 H 383.729 -0.0127902 0.74089 0
M  V30 3863 H 386.376 0.668756 1.79443 0
M  V30 3864 H 384.681 -1.0158 3.78403 0
M  V30 3865 H 386.378 -0.663641 3.9547 0
M  V30 3866 H 382.968 0.745124 4.22073 0
M  V30 3867 H 387.152 1.6023 4.69723 0
M  V30 3868 H 382.408 2.81105 5.42946 0
M  V30 3869 H 386.582 3.66808 5.91967 0
M  V30 3870 H 384.209 4.27821 6.28389 0
M  V30 3871 N 385.784 -1.5574 0.241426 0
M  V30 3872 C 387.009 -2.0366 -0.392111 0
M  V30 3873 C 387.434 -1.11969 -1.51144 0
M  V30 3874 O 386.792 -0.111594 -1.80956 0
M  V30 3875 C 386.84 -3.49638 -0.882371 0
M  V30 3876 O 385.944 -3.6108 -1.99235 0
M  V30 3877 H 385.285 -0.658379 -0.0862122 0
M  V30 3878 H 387.815 -2.01302 0.365881 0
M  V30 3879 H 387.825 -3.90351 -1.18702 0
M  V30 3880 H 386.5 -4.15852 -0.0632361 0
M  V30 3881 H 385.077 -3.32262 -1.69282 0
M  V30 3882 N 387.262 0.0317525 -1.57568 0
M  V30 3883 C 388.509 0.723104 -1.89149 0
M  V30 3884 C 388.837 1.75504 -0.838377 0
M  V30 3885 O 388.092 1.95037 0.160982 0
M  V30 3886 C 388.391 1.43167 -3.27472 0
M  V30 3887 C 388.057 0.535972 -4.47703 0
M  V30 3888 C 386.719 0.289262 -4.8033 0
M  V30 3889 C 389.071 -0.0826125 -5.21135 0
M  V30 3890 C 386.399 -0.584853 -5.83778 0
M  V30 3891 C 388.751 -0.944414 -6.25511 0
M  V30 3892 C 387.415 -1.20061 -6.56614 0
M  V30 3893 H 386.685 0.264602 -0.692146 0
M  V30 3894 H 389.332 -0.0169496 -1.91492 0
M  V30 3895 H 387.637 2.24497 -3.21105 0
M  V30 3896 H 389.334 1.97209 -3.49155 0
M  V30 3897 H 385.924 0.738414 -4.22191 0
M  V30 3898 H 390.108 0.0950302 -4.96209 0
M  V30 3899 H 385.364 -0.79168 -6.06253 0
M  V30 3900 H 389.538 -1.43026 -6.81554 0
M  V30 3901 H 387.165 -1.87967 -7.36595 0
M  V30 3902 N 388.74 1.54641 0.303973 0
M  V30 3903 C 389.65 1.88439 1.39743 0
M  V30 3904 C 390.666 0.778239 1.55626 0
M  V30 3905 O 391.842 1.07442 1.70347 0
M  V30 3906 C 388.907 2.12212 2.74166 0
M  V30 3907 C 387.968 3.35936 2.67293 0
M  V30 3908 C 387.201 3.58566 3.95305 0
M  V30 3909 O 387.424 2.84263 4.9452 0
M  V30 3910 O 386.358 4.52078 3.97378 0
M  V30 3911 H 390.184 2.81458 1.14083 0
M  V30 3912 H 387.769 1.40793 0.499768 0
M  V30 3913 H 389.651 2.29067 3.53704 0
M  V30 3914 H 388.326 1.22379 2.99675 0
M  V30 3915 H 387.233 3.24448 1.86237 0
M  V30 3916 H 388.566 4.2589 2.46736 0
M  V30 3917 N 390.218 -0.567019 1.47046 0
M  V30 3918 C 391.466 -1.322 1.52864 0
M  V30 3919 C 391.787 -1.94088 0.188388 0
M  V30 3920 O 391.057 -1.7941 -0.786693 0
M  V30 3921 H 389.637 -0.490894 0.563056 0
M  V30 3922 H 392.299 -0.662879 1.83281 0
M  V30 3923 H 391.395 -2.12062 2.2899 0
M  V30 3924 N 391.696 -1.35014 -0.812953 0
M  V30 3925 C 392.628 -1.23262 -1.93233 0
M  V30 3926 C 393.641 -0.157371 -1.62038 0
M  V30 3927 O 394.83 -0.410096 -1.73725 0
M  V30 3928 C 391.93 -0.87392 -3.27438 0
M  V30 3929 C 391.103 -2.04622 -3.86586 0
M  V30 3930 C 390.162 -1.66432 -4.99186 0
M  V30 3931 O 389.188 -2.38222 -5.16951 0
M  V30 3932 N 390.39 -0.584248 -5.77552 0
M  V30 3933 H 393.155 -2.19699 -2.03844 0
M  V30 3934 H 390.716 -1.281 -0.99005 0
M  V30 3935 H 392.708 -0.600039 -4.00227 0
M  V30 3936 H 391.278 0.00057392 -3.126 0
M  V30 3937 H 390.498 -2.48427 -3.06068 0
M  V30 3938 H 391.786 -2.82999 -4.22835 0
M  V30 3939 H 391.184 0.0123526 -5.65699 0
M  V30 3940 H 389.741 -0.37013 -6.50748 0
M  V30 3941 N 393.175 1.03435 -1.18907 0
M  V30 3942 C 394.108 2.11162 -0.86521 0
M  V30 3943 C 395.086 1.6165 0.175473 0
M  V30 3944 O 396.27 1.88425 0.0530129 0
M  V30 3945 C 393.397 3.37423 -0.293868 0
M  V30 3946 C 392.443 4.05795 -1.31274 0
M  V30 3947 S 393.276 4.52027 -2.8711 0
M  V30 3948 C 394.432 5.81513 -2.31504 0
M  V30 3949 H 394.665 2.38308 -1.77754 0
M  V30 3950 H 392.198 1.16295 -1.01562 0
M  V30 3951 H 394.156 4.1049 0.0292572 0
M  V30 3952 H 392.817 3.0838 0.596682 0
M  V30 3953 H 392.01 4.96574 -0.86198 0
M  V30 3954 H 391.612 3.38874 -1.58242 0
M  V30 3955 H 393.904 6.55784 -1.70157 0
M  V30 3956 H 394.847 6.3136 -3.20608 0
M  V30 3957 H 395.255 5.36921 -1.74286 0
M  V30 3958 N 394.653 0.992116 1.22453 0
M  V30 3959 C 395.899 0.668523 1.91464 0
M  V30 3960 C 396.232 -0.797313 1.77078 0
M  V30 3961 O 395.507 -1.5765 1.13916 0
M  V30 3962 C 395.79 1.07424 3.43703 0
M  V30 3963 C 395.643 2.59857 3.67143 0
M  V30 3964 C 396.962 0.626891 4.35612 0
M  V30 3965 H 394.081 0.244341 0.695318 0
M  V30 3966 H 396.723 1.2355 1.44345 0
M  V30 3967 H 394.873 0.591816 3.83966 0
M  V30 3968 H 396.545 3.15764 3.3629 0
M  V30 3969 H 394.788 3.01961 3.11451 0
M  V30 3970 H 395.459 2.83296 4.73759 0
M  V30 3971 H 397.935 1.04125 4.02861 0
M  V30 3972 H 396.811 0.939076 5.40807 0
M  V30 3973 H 397.072 -0.472457 4.39568 0
M  V30 3974 N 396.131 -1.37776 0.765217 0
M  V30 3975 C 397.408 -1.93975 0.251596 0
M  V30 3976 C 397.788 -1.69949 -1.25222 0
M  V30 3977 O 397.136 -1.04457 -2.03226 0
M  V30 3978 C 397.346 -3.43487 0.617895 0
M  V30 3979 C 398.694 -4.20564 0.584029 0
M  V30 3980 O 399.718 -3.5182 0.556888 0
M  V30 3981 O 398.577 -5.43138 0.605291 0
M  V30 3982 H 395.671 -0.82509 0.0561806 0
M  V30 3983 H 398.217 -1.47101 0.846128 0
M  V30 3984 H 396.989 -3.5453 1.65602 0
M  V30 3985 H 396.612 -3.976 -0.00403411 0
M  V30 3986 N 397.609 -0.515225 -1.4894 0
M  V30 3987 C 398.519 0.259774 -2.33157 0
M  V30 3988 C 399.535 0.953501 -1.45548 0
M  V30 3989 O 400.711 0.931735 -1.78552 0
M  V30 3990 C 397.776 1.30193 -3.21326 0
M  V30 3991 C 396.837 0.620129 -4.24797 0
M  V30 3992 C 396.07 1.61263 -5.08753 0
M  V30 3993 O 396.293 2.84389 -4.94448 0
M  V30 3994 O 395.227 1.16013 -5.90614 0
M  V30 3995 H 399.053 -0.429932 -3.00641 0
M  V30 3996 H 396.638 -0.276346 -1.46822 0
M  V30 3997 H 398.52 1.90455 -3.75905 0
M  V30 3998 H 397.195 1.97431 -2.56521 0
M  V30 3999 H 396.102 -0.0226019 -3.74093 0
M  V30 4000 H 397.435 -0.0100493 -4.92199 0
M  V30 4001 N 399.087 1.5561 -0.249682 0
M  V30 4002 C 400.498 1.84979 0.252949 0
M  V30 4003 C 400.849 1.17153 1.57384 0
M  V30 4004 O 399.974 0.450884 2.11651 0
M  V30 4005 C 400.569 3.35584 0.465732 0
M  V30 4006 C 399.128 3.65169 0.912624 0
M  V30 4007 C 398.275 2.77299 -0.00859085 0
M  V30 4008 H 401.226 1.51513 -0.47217 0
M  V30 4009 H 401.247 3.57313 1.30795 0
M  V30 4010 H 400.759 3.8492 -0.49579 0
M  V30 4011 H 398.86 3.21312 1.88652 0
M  V30 4012 H 398.973 4.72912 0.767559 0
M  V30 4013 H 397.337 2.49678 0.50327 0
M  V30 4014 H 398.12 3.29442 -0.965537 0
M  V30 4015 N 400.565 -0.0233959 1.57583 0
M  V30 4016 C 401.498 -1.05549 2.02323 0
M  V30 4017 C 402.476 -1.34843 0.908626 0
M  V30 4018 O 403.66 -1.47404 1.17491 0
M  V30 4019 C 400.787 -2.38885 2.40108 0
M  V30 4020 C 399.833 -2.2541 3.62067 0
M  V30 4021 S 400.666 -1.60217 5.1097 0
M  V30 4022 C 401.822 -2.95032 5.52003 0
M  V30 4023 H 402.055 -0.674435 2.89549 0
M  V30 4024 H 399.588 -0.23355 1.52623 0
M  V30 4025 H 401.546 -3.15562 2.62547 0
M  V30 4026 H 400.207 -2.74137 1.53323 0
M  V30 4027 H 399.4 -3.23854 3.86179 0
M  V30 4028 H 399.002 -1.56876 3.39508 0
M  V30 4029 H 401.294 -3.91357 5.53033 0
M  V30 4030 H 402.237 -2.75646 6.52246 0
M  V30 4031 H 402.645 -2.97865 4.79517 0
M  V30 4032 N 402.043 -1.548 -0.295768 0
M  V30 4033 C 402.973 -1.89115 -1.36959 0
M  V30 4034 C 403.954 -0.75059 -1.52644 0
M  V30 4035 O 405.139 -1.00678 -1.66065 0
M  V30 4036 C 402.269 -2.14307 -2.73295 0
M  V30 4037 C 401.223 -3.30151 -2.72368 0
M  V30 4038 C 400.549 -3.40772 -4.12042 0
M  V30 4039 C 401.849 -4.67126 -2.33646 0
M  V30 4040 H 403.543 -2.79053 -1.08488 0
M  V30 4041 H 401.089 -1.34266 -0.520443 0
M  V30 4042 H 403.042 -2.36898 -3.48507 0
M  V30 4043 H 401.766 -1.21145 -3.03301 0
M  V30 4044 H 400.425 -3.0749 -1.99613 0
M  V30 4045 H 400.073 -2.45117 -4.39234 0
M  V30 4046 H 399.773 -4.18645 -4.12322 0
M  V30 4047 H 401.297 -3.6563 -4.89027 0
M  V30 4048 H 402.711 -4.89414 -2.98575 0
M  V30 4049 H 401.108 -5.47751 -2.45129 0
M  V30 4050 H 402.178 -4.67489 -1.28772 0
M  V30 4051 N 403.521 0.559213 -1.47345 0
M  V30 4052 C 404.484 1.64854 -1.59235 0
M  V30 4053 C 405.484 1.53851 -0.467607 0
M  V30 4054 O 406.674 1.58045 -0.732617 0
M  V30 4055 C 403.806 3.04388 -1.53496 0
M  V30 4056 H 404.999 1.55662 -2.56339 0
M  V30 4057 H 402.552 0.778973 -1.35505 0
M  V30 4058 H 403.287 3.19115 -0.577604 0
M  V30 4059 H 403.072 3.13783 -2.35123 0
M  V30 4060 H 404.562 3.83642 -1.6495 0
M  V30 4061 N 404.999 1.35443 0.805782 0
M  V30 4062 C 405.946 1.28431 1.91766 0
M  V30 4063 C 406.916 0.156102 1.65365 0
M  V30 4064 O 408.101 0.339936 1.87747 0
M  V30 4065 C 405.241 1.06301 3.2832 0
M  V30 4066 C 404.354 2.2805 3.66902 0
M  V30 4067 C 403.489 1.99064 4.92491 0
M  V30 4068 C 402.528 3.16863 5.23703 0
M  V30 4069 N 401.665 2.87647 6.40471 0
M  V30 4070 H 406.505 2.23511 1.97096 0
M  V30 4071 H 404.042 1.11105 0.964054 0
M  V30 4072 H 406 0.915012 4.07042 0
M  V30 4073 H 404.63 0.148822 3.22457 0
M  V30 4074 H 403.682 2.53711 2.83434 0
M  V30 4075 H 404.994 3.1601 3.85927 0
M  V30 4076 H 404.148 1.81099 5.7904 0
M  V30 4077 H 402.887 1.0839 4.75503 0
M  V30 4078 H 401.892 3.35404 4.35642 0
M  V30 4079 H 403.117 4.08339 5.4262 0
M  V30 4080 H 401.063 1.99568 6.24907 0
M  V30 4081 H 400.98 3.69141 6.59751 0
M  V30 4082 H 402.248 2.73226 7.30047 0
M  V30 4083 N 406.477 -1.02803 1.19454 0
M  V30 4084 C 407.44 -2.09264 0.934955 0
M  V30 4085 C 408.44 -1.60576 -0.0849015 0
M  V30 4086 O 409.63 -1.73554 0.149933 0
M  V30 4087 C 406.762 -3.38482 0.40531 0
M  V30 4088 H 407.955 -2.33726 1.87916 0
M  V30 4089 H 405.508 -1.19426 1.00832 0
M  V30 4090 H 406.243 -3.19689 -0.544899 0
M  V30 4091 H 406.028 -3.75142 1.14065 0
M  V30 4092 H 407.518 -4.16894 0.242806 0
M  V30 4093 N 407.956 -0.998596 -1.21925 0
M  V30 4094 C 409.372 -0.710303 -1.42923 0
M  V30 4095 C 409.572 0.716933 -1.88314 0
M  V30 4096 O 408.628 1.48712 -2.04062 0
M  V30 4097 C 409.941 -1.72072 -2.466 0
M  V30 4098 C 411.489 -1.73681 -2.60392 0
M  V30 4099 C 411.964 -2.73601 -3.67296 0
M  V30 4100 N 413.455 -2.7223 -3.7476 0
M  V30 4101 C 414.19 -3.46206 -4.57087 0
M  V30 4102 N 413.686 -4.29802 -5.43362 0
M  V30 4103 N 415.479 -3.34886 -4.51451 0
M  V30 4104 H 407.63 -1.92028 -0.9077 0
M  V30 4105 H 409.893 -0.828487 -0.460775 0
M  V30 4106 H 409.599 -2.74231 -2.20206 0
M  V30 4107 H 409.473 -1.51818 -3.45299 0
M  V30 4108 H 411.86 -0.722173 -2.86127 0
M  V30 4109 H 411.941 -1.98005 -1.61949 0
M  V30 4110 H 411.585 -3.75217 -3.42307 0
M  V30 4111 H 411.515 -2.46545 -4.65321 0
M  V30 4112 H 414.006 -2.11576 -3.1312 0
M  V30 4113 H 414.319 -4.83061 -6.03218 0
M  V30 4114 H 412.664 -4.33887 -5.42925 0
M  V30 4115 H 415.855 -2.69015 -3.83078 0
M  V30 4116 H 416.028 -3.92796 -5.15379 0
M  V30 4117 N 409.434 1.37368 -0.772513 0
M  V30 4118 C 410.662 2.03942 -0.348588 0
M  V30 4119 C 411.077 1.58264 1.02947 0
M  V30 4120 O 410.434 0.764246 1.65727 0
M  V30 4121 C 410.485 3.5946 -0.38351 0
M  V30 4122 O 410.206 4.03468 -1.70721 0
M  V30 4123 C 411.707 4.4327 0.0519152 0
M  V30 4124 H 408.927 0.654931 -0.145966 0
M  V30 4125 H 411.471 1.75686 -1.04665 0
M  V30 4126 H 409.626 3.86486 0.265978 0
M  V30 4127 H 410.04 4.97991 -1.64636 0
M  V30 4128 H 411.514 5.51995 -0.0236733 0
M  V30 4129 H 411.991 4.2514 1.10238 0
M  V30 4130 H 412.597 4.21471 -0.569415 0
M  V30 4131 N 410.912 0.523116 1.48665 0
M  V30 4132 C 411.842 -0.23231 2.32342 0
M  V30 4133 C 412.823 -0.941637 1.41659 0
M  V30 4134 O 414.008 -0.928751 1.70552 0
M  V30 4135 C 411.138 -1.28387 3.22698 0
M  V30 4136 C 410.092 -0.693098 4.22351 0
M  V30 4137 C 409.418 -1.8468 5.01794 0
M  V30 4138 C 410.718 0.33063 5.21252 0
M  V30 4139 H 412.412 0.466192 2.95748 0
M  V30 4140 H 409.958 0.225643 1.42221 0
M  V30 4141 H 411.911 -1.82024 3.80059 0
M  V30 4142 H 410.635 -2.01186 2.57278 0
M  V30 4143 H 409.294 -0.178299 3.66166 0
M  V30 4144 H 408.942 -2.56301 4.32804 0
M  V30 4145 H 408.642 -1.45747 5.69238 0
M  V30 4146 H 410.166 -2.38709 5.62006 0
M  V30 4147 H 411.58 -0.118407 5.73178 0
M  V30 4148 H 409.977 0.636974 5.9671 0
M  V30 4149 H 411.047 1.23883 4.68808 0
M  V30 4150 N 412.39 -1.55475 0.257931 0
M  V30 4151 C 413.32 -2.24815 -0.630912 0
M  V30 4152 C 414.301 -1.23224 -1.17259 0
M  V30 4153 O 415.486 -1.51904 -1.20991 0
M  V30 4154 C 412.616 -2.95609 -1.82298 0
M  V30 4155 C 411.57 -4.03982 -1.41359 0
M  V30 4156 C 410.896 -4.6226 -2.68738 0
M  V30 4157 C 412.196 -5.19109 -0.57648 0
M  V30 4158 H 413.89 -2.99354 -0.0526878 0
M  V30 4159 H 411.436 -1.4398 -0.023901 0
M  V30 4160 H 413.389 -3.42822 -2.45054 0
M  V30 4161 H 412.113 -2.18577 -2.42676 0
M  V30 4162 H 410.772 -3.57555 -0.809324 0
M  V30 4163 H 410.42 -3.81915 -3.27338 0
M  V30 4164 H 410.12 -5.35424 -2.42065 0
M  V30 4165 H 411.644 -5.12212 -3.32372 0
M  V30 4166 H 413.058 -5.62479 -1.10861 0
M  V30 4167 H 411.455 -5.98729 -0.405351 0
M  V30 4168 H 412.525 -4.83174 0.408776 0
M  V30 4169 N 413.868 0.0150385 -1.57593 0
M  V30 4170 C 415.093 0.718067 -1.94573 0
M  V30 4171 C 415.518 1.6734 -0.859005 0
M  V30 4172 O 414.876 1.80362 0.184147 0
M  V30 4173 C 414.924 1.43918 -3.30636 0
M  V30 4174 O 414.028 2.55299 -3.23876 0
M  V30 4175 H 413.369 0.192125 -0.635597 0
M  V30 4176 H 415.899 -0.0336708 -2.04572 0
M  V30 4177 H 415.909 1.80598 -3.65853 0
M  V30 4178 H 414.584 0.738619 -4.09289 0
M  V30 4179 H 413.161 2.21058 -3.00312 0
M  V30 4180 N 415.346 1.54954 0.287554 0
M  V30 4181 C 416.296 1.8322 1.357 0
M  V30 4182 C 417.28 0.690152 1.45347 0
M  V30 4183 O 418.472 0.951137 1.49273 0
M  V30 4184 C 415.601 2.09481 2.71979 0
M  V30 4185 C 414.687 3.29906 2.66502 0
M  V30 4186 N 415.078 4.50154 2.30641 0
M  V30 4187 C 413.376 3.32203 2.97585 0
M  V30 4188 C 414.077 5.32209 2.34794 0
M  V30 4189 N 413.053 4.70258 2.72688 0
M  V30 4190 H 416.855 2.73746 1.0696 0
M  V30 4191 H 414.369 1.54635 0.496167 0
M  V30 4192 H 416.366 2.27882 3.49107 0
M  V30 4193 H 415.026 1.2023 3.0162 0
M  V30 4194 H 416.037 4.76515 2.02865 0
M  V30 4195 H 412.714 2.53101 3.32034 0
M  V30 4196 H 414.104 6.38321 2.09753 0
M  V30 4197 N 416.824 -0.551391 1.4764 0
M  V30 4198 C 417.734 -1.68525 1.63207 0
M  V30 4199 C 418.75 -1.6621 0.514815 0
M  V30 4200 O 419.926 -1.85551 0.783113 0
M  V30 4201 C 416.991 -3.05025 1.64805 0
M  V30 4202 C 416.052 -3.18362 2.88 0
M  V30 4203 C 415.285 -4.4835 2.89513 0
M  V30 4204 O 415.508 -5.34163 2.00065 0
M  V30 4205 O 414.442 -4.65602 3.81443 0
M  V30 4206 H 418.268 -1.58333 2.59161 0
M  V30 4207 H 415.853 -0.722063 1.30792 0
M  V30 4208 H 417.735 -3.86245 1.68502 0
M  V30 4209 H 416.41 -3.15587 0.720197 0
M  V30 4210 H 415.317 -2.36518 2.89845 0
M  V30 4211 H 416.65 -3.12707 3.80099 0
M  V30 4212 N 418.302 -1.35869 -0.798587 0
M  V30 4213 C 419.265 -1.29307 -1.89242 0
M  V30 4214 C 420.265 -0.202747 -1.59517 0
M  V30 4215 O 421.455 -0.456957 -1.681 0
M  V30 4216 C 418.587 -1.00229 -3.25833 0
M  V30 4217 H 419.78 -2.26576 -1.96478 0
M  V30 4218 H 417.333 -1.20509 -0.995358 0
M  V30 4219 H 418.068 -0.033801 -3.24282 0
M  V30 4220 H 417.853 -1.79121 -3.48795 0
M  V30 4221 H 419.343 -0.98219 -4.05885 0
M  V30 4222 O 419.819 0.937816 -1.31481 0
M  V30 4223 H 420.51 1.56832 -1.13682 0
M  V30 END ATOM
M  V30 BEGIN BOND
M  V30 END BOND
M  V30 END CTAB
M  END
$$$$
