drugbank_target|P50052 Type-2 angiotensin II receptor (DB01349; DB05739)
 OpenBabel12092120323D

  0  0  0     0  0            999 V3000
M  V30 BEGIN CTAB
M  V30 COUNTS 5872 5951 0 0 0
M  V30 BEGIN ATOM
M  V30 1 H -0.908 1.98254 -0.117106 0
M  V30 2 N 0 1.576 0 0
M  V30 3 C 0.933 2.03868 1.02534 0
M  V30 4 C 1.911 0.928543 1.3348 0
M  V30 5 O 3.095 1.19667 1.45644 0
M  V30 6 C 0.222 2.43627 2.35294 0
M  V30 7 C -0.732 3.65373 2.2001 0
M  V30 8 S 0.101 5.13292 1.52614 0
M  V30 9 C 1.257 5.56322 2.86805 0
M  V30 10 H 1.49 2.90518 0.631377 0
M  V30 11 H -0.977 1.52953 0.210867 0
M  V30 12 H 0.981 2.67203 3.11629 0
M  V30 13 H -0.358 1.57376 2.7183 0
M  V30 14 H -1.165 3.90944 3.18086 0
M  V30 15 H -1.563 3.418 1.51819 0
M  V30 16 H 0.729 5.58782 3.83104 0
M  V30 17 H 1.672 6.56266 2.65933 0
M  V30 18 H 2.08 4.83886 2.90714 0
M  V30 19 N 1.4781 -0.272755 1.55222 0
M  V30 20 C 2.4251 -1.33716 1.88119 0
M  V30 21 C 3.3951 -1.49066 0.73271 0
M  V30 22 O 4.5801 -1.63469 0.984002 0
M  V30 23 C 1.7201 -2.69238 2.15882 0
M  V30 24 C 0.8331 -2.62108 3.43399 0
M  V30 25 C -0.0319 -3.89811 3.60861 0
M  V30 26 C -0.9929 -3.77193 4.8207 0
M  V30 27 N -1.8559 -4.9673 4.96189 0
M  V30 28 H 2.9841 -1.04962 2.78903 0
M  V30 29 H 0.5211 -0.507088 1.38083 0
M  V30 30 H 2.4791 -3.48089 2.29978 0
M  V30 31 H 1.1091 -2.96194 1.28331 0
M  V30 32 H 0.1611 -1.74967 3.37773 0
M  V30 33 H 1.4731 -2.48685 4.32386 0
M  V30 34 H 0.6271 -4.77103 3.74777 0
M  V30 35 H -0.6339 -4.06102 2.7006 0
M  V30 36 H -1.6289 -2.88284 4.68159 0
M  V30 37 H -0.4039 -3.62421 5.74307 0
M  V30 38 H -2.4579 -5.13431 4.08319 0
M  V30 39 H -2.5409 -4.85839 5.79221 0
M  V30 40 H -1.2729 -5.85594 5.1449 0
M  V30 41 N 2.9562 -1.48159 -0.537278 0
M  V30 42 C 4.2042 -1.55497 -1.29094 0
M  V30 43 C 4.5252 -0.227454 -1.93669 0
M  V30 44 O 3.7952 0.750386 -1.80959 0
M  V30 45 H 2.3752 -0.572832 -0.47945 0
M  V30 46 H 5.0372 -1.84579 -0.625818 0
M  V30 47 H 4.1332 -2.33216 -2.07405 0
M  V30 48 N 4.4343 0.785586 -1.36625 0
M  V30 49 C 5.3823 1.91978 -1.31329 0
M  V30 50 C 6.3763 1.68162 -0.204416 0
M  V30 51 O 7.5823 1.76122 -0.371645 0
M  V30 52 H 3.9573 0.631087 -0.408942 0
M  V30 53 H 5.9283 1.93562 -2.27104 0
M  V30 54 C 4.6773 3.29055 -1.12329 0
M  V30 55 H 4.0003 3.4795 -1.96903 0
M  V30 56 H 5.4403 4.08756 -1.12671 0
M  V30 57 C 3.8993 3.36461 0.171861 0
M  V30 58 O 4.4293 3.84576 1.16035 0
M  V30 59 N 2.6353 2.89782 0.217846 0
M  V30 60 H 2.1823 2.50819 -0.587183 0
M  V30 61 H 2.1403 2.95119 1.08408 0
M  V30 62 N 5.9124 1.20967 1.01018 0
M  V30 63 C 7.1374 1.0503 1.78839 0
M  V30 64 C 7.5624 -0.395752 1.8389 0
M  V30 65 O 6.9204 -1.28529 1.27867 0
M  V30 66 C 6.9684 1.64602 3.2084 0
M  V30 67 O 6.0724 0.887988 4.02726 0
M  V30 68 H 5.4134 0.369987 0.551367 0
M  V30 69 H 7.9434 1.60399 1.27018 0
M  V30 70 H 7.9534 1.68607 3.71532 0
M  V30 71 H 6.6284 2.69841 3.16479 0
M  V30 72 H 5.2054 0.922648 3.61305 0
M  V30 73 N 7.3905 -1.2043 1.01659 0
M  V30 74 C 8.6185 -1.93777 0.725132 0
M  V30 75 C 9.0335 -1.74772 -0.714166 0
M  V30 76 O 8.3905 -1.06169 -1.4844 0
M  V30 77 C 8.4415 -3.45876 1.05129 0
M  V30 78 O 8.1625 -3.6426 2.43406 0
M  V30 79 C 9.6635 -4.36368 0.780891 0
M  V30 80 H 6.8835 -0.615901 0.266284 0
M  V30 81 H 9.4275 -1.52922 1.35776 0
M  V30 82 H 7.5825 -3.8461 0.464065 0
M  V30 83 H 7.9965 -4.58246 2.55169 0
M  V30 84 H 9.4705 -5.41743 1.05918 0
M  V30 85 H 9.9475 -4.38275 -0.284937 0
M  V30 86 H 10.5535 -4.03296 1.35027 0
M  V30 87 N 8.8686 -0.792821 -1.36206 0
M  V30 88 C 9.7986 -0.207853 -2.32573 0
M  V30 89 C 10.7796 0.659055 -1.56813 0
M  V30 90 O 11.9646 0.592176 -1.84951 0
M  V30 91 C 9.0946 0.655449 -3.41059 0
M  V30 92 C 8.0486 -0.111842 -4.27854 0
M  V30 93 C 7.3746 0.872274 -5.27537 0
M  V30 94 C 8.6746 -1.30299 -5.05786 0
M  V30 95 H 10.3686 -1.01294 -2.81744 0
M  V30 96 H 7.9146 -0.48854 -1.3546 0
M  V30 97 H 9.8676 1.07464 -4.07467 0
M  V30 98 H 8.5916 1.49328 -2.90463 0
M  V30 99 H 7.2506 -0.512053 -3.63006 0
M  V30 100 H 6.8986 1.70523 -4.73214 0
M  V30 101 H 6.5986 0.363291 -5.86476 0
M  V30 102 H 8.1226 1.28996 -5.96818 0
M  V30 103 H 9.5366 -0.959379 -5.65216 0
M  V30 104 H 7.9336 -1.7455 -5.74154 0
M  V30 105 H 9.0036 -2.09663 -4.37229 0
M  V30 106 N 10.3467 1.47872 -0.545128 0
M  V30 107 C 11.3097 2.28337 0.198717 0
M  V30 108 C 12.3097 1.36255 0.853888 0
M  V30 109 O 13.4997 1.59003 0.711606 0
M  V30 110 C 10.6317 3.15585 1.28915 0
M  V30 111 H 11.8247 2.95567 -0.507941 0
M  V30 112 H 9.3777 1.53362 -0.301616 0
M  V30 113 H 10.1127 2.53019 2.02859 0
M  V30 114 H 9.8977 3.83337 0.824309 0
M  V30 115 H 11.3877 3.76243 1.81194 0
M  V30 116 N 11.8248 0.280983 1.55075 0
M  V30 117 C 13.0528 -0.337293 2.04132 0
M  V30 118 C 13.4678 -1.4903 1.15912 0
M  V30 119 O 12.8248 -1.81606 0.180459 0
M  V30 120 C 12.8758 -0.812706 3.52246 0
M  V30 121 O 12.5968 0.294387 4.3711 0
M  V30 122 C 14.0978 -1.4982 4.17216 0
M  V30 123 H 11.3178 -0.0761638 0.666663 0
M  V30 124 H 13.8618 0.414787 2.00249 0
M  V30 125 H 12.0168 -1.51486 3.56554 0
M  V30 126 H 12.4308 -0.0721325 5.2445 0
M  V30 127 H 13.9048 -1.7822 5.22438 0
M  V30 128 H 14.3818 -2.43168 3.65741 0
M  V30 129 H 14.9878 -0.839742 4.16927 0
M  V30 130 N 13.3029 -1.57598 0.00835791 0
M  V30 131 C 14.5309 -1.95214 -0.68549 0
M  V30 132 C 14.9459 -0.883706 -1.66841 0
M  V30 133 O 14.3029 0.136565 -1.81988 0
M  V30 134 C 14.3539 -3.32865 -1.41007 0
M  V30 135 O 14.0749 -4.35609 -0.466552 0
M  V30 136 C 15.5759 -3.84991 -2.19765 0
M  V30 137 H 12.7959 -0.643422 -0.190392 0
M  V30 138 H 15.3399 -2.04406 0.0619607 0
M  V30 139 H 13.4949 -3.24956 -2.10908 0
M  V30 140 H 13.9089 -5.15288 -0.978699 0
M  V30 141 H 15.3829 -4.8371 -2.65948 0
M  V30 142 H 15.8599 -3.18137 -3.02796 0
M  V30 143 H 16.4659 -3.96103 -1.54864 0
M  V30 144 N 14.781 0.264519 -1.55364 0
M  V30 145 C 16.006 1.01726 -1.80739 0
M  V30 146 C 16.431 1.78836 -0.583044 0
M  V30 147 O 15.789 1.75167 0.467566 0
M  V30 148 C 15.837 1.94482 -3.03659 0
M  V30 149 O 14.941 3.03386 -2.7934 0
M  V30 150 H 14.282 0.290395 -0.597132 0
M  V30 151 H 16.812 0.290854 -2.02522 0
M  V30 152 H 16.822 2.36278 -3.32621 0
M  V30 153 H 15.497 1.37772 -3.92418 0
M  V30 154 H 14.074 2.65844 -2.61498 0
M  V30 155 N 16.2591 1.48442 0.529413 0
M  V30 156 C 17.2061 1.63007 1.63394 0
M  V30 157 C 18.1761 0.47212 1.59249 0
M  V30 158 O 19.3611 0.695673 1.77666 0
M  V30 159 C 16.5011 1.6763 3.01653 0
M  V30 160 C 15.6141 2.94535 3.16027 0
M  V30 161 C 14.7491 2.90316 4.44849 0
M  V30 162 C 13.7881 4.11923 4.52754 0
M  V30 163 N 12.9251 4.05777 5.72965 0
M  V30 164 H 17.7651 2.5733 1.50285 0
M  V30 165 H 15.3021 1.27613 0.731656 0
M  V30 166 H 17.2601 1.68292 3.81751 0
M  V30 167 H 15.8901 0.76797 3.13532 0
M  V30 168 H 14.9421 3.03615 2.29177 0
M  V30 169 H 16.2541 3.84512 3.17729 0
M  V30 170 H 15.4081 2.89382 5.33238 0
M  V30 171 H 14.1471 1.98068 4.45668 0
M  V30 172 H 13.1521 4.13131 3.62771 0
M  V30 173 H 14.3771 5.0533 4.53672 0
M  V30 174 H 12.3231 3.16351 5.74681 0
M  V30 175 H 12.2401 4.8946 5.76164 0
M  V30 176 H 13.5081 4.08904 6.6364 0
M  V30 177 N 17.7372 -0.778329 1.37039 0
M  V30 178 C 18.6852 -1.91278 1.32345 0
M  V30 179 C 19.6792 -1.68051 0.213331 0
M  V30 180 O 20.8852 -1.75922 0.38098 0
M  V30 181 H 17.2602 -0.628909 0.412283 0
M  V30 182 H 19.2312 -1.92355 2.28127 0
M  V30 183 C 17.9802 -3.28455 1.14073 0
M  V30 184 H 17.3032 -3.46901 1.98746 0
M  V30 185 H 18.7432 -4.08152 1.14837 0
M  V30 186 C 17.2022 -3.36548 -0.154015 0
M  V30 187 O 17.7322 -3.85186 -1.13993 0
M  V30 188 N 15.9382 -2.89894 -0.202475 0
M  V30 189 H 15.4852 -2.50504 0.600476 0
M  V30 190 H 15.4432 -2.9569 -1.06841 0
M  V30 191 N 19.2153 -1.21501 -1.00376 0
M  V30 192 C 20.4643 -1.02718 -1.73586 0
M  V30 193 C 20.7773 0.439589 -1.90596 0
M  V30 194 O 21.9833 0.746848 -2.61026 0
M  V30 195 C 20.4393 -1.78929 -3.1227 0
M  V30 196 C 20.0473 -3.29783 -3.03228 0
M  V30 197 C 21.7913 -1.68557 -3.89601 0
M  V30 198 C 19.6983 -3.98479 -4.36999 0
M  V30 199 H 18.6283 -0.380733 -0.650814 0
M  V30 200 H 21.2793 -1.45248 -1.1214 0
M  V30 201 H 19.6613 -1.29192 -3.74333 0
M  V30 202 H 20.8353 -3.86832 -2.50395 0
M  V30 203 H 19.1503 -3.40711 -2.39385 0
M  V30 204 H 21.7473 -2.17211 -4.88593 0
M  V30 205 H 22.0903 -0.644021 -4.11288 0
M  V30 206 H 22.6233 -2.15778 -3.34193 0
M  V30 207 H 19.3623 -5.02841 -4.20513 0
M  V30 208 H 18.8823 -3.46219 -4.89788 0
M  V30 209 H 20.5613 -4.03462 -5.05794 0
M  V30 210 N 20.6934 1.19889 -1.02296 0
M  V30 211 C 21.9214 1.9339 -0.735399 0
M  V30 212 C 22.3364 1.75148 0.704887 0
M  V30 213 O 21.6934 1.06954 1.47875 0
M  V30 214 C 21.7444 3.45313 -1.06962 0
M  V30 215 O 21.4654 3.62964 -2.45334 0
M  V30 216 C 22.9664 4.35948 -0.804021 0
M  V30 217 H 20.1864 0.61448 -0.269546 0
M  V30 218 H 22.7304 1.522 -1.36585 0
M  V30 219 H 20.8854 3.84359 -0.484455 0
M  V30 220 H 21.2994 4.56886 -2.57595 0
M  V30 221 H 22.7734 5.41174 -1.0879 0
M  V30 222 H 23.2504 4.3842 0.261691 0
M  V30 223 H 23.8564 4.02574 -1.37164 0
M  V30 224 N 22.1715 0.800033 1.35784 0
M  V30 225 C 23.3965 0.388511 2.03729 0
M  V30 226 C 23.8215 -0.990481 1.5991 0
M  V30 227 O 23.1795 -1.64013 0.772612 0
M  V30 228 C 23.2275 0.4726 3.5749 0
M  V30 229 O 22.3315 -0.51646 4.09153 0
M  V30 230 H 21.6725 0.163271 0.643614 0
M  V30 231 H 24.2025 1.0841 1.73518 0
M  V30 232 H 24.2125 0.34003 4.06581 0
M  V30 233 H 22.8875 1.47848 3.88734 0
M  V30 234 H 21.4645 -0.344673 3.71304 0
M  V30 235 N 23.6496 -1.47581 0.552962 0
M  V30 236 C 24.8976 -2.02082 0.0272703 0
M  V30 237 C 25.2186 -1.4301 -1.32563 0
M  V30 238 O 24.4886 -0.603745 -1.86365 0
M  V30 239 H 23.0686 -0.746966 0.00709182 0
M  V30 240 H 25.7306 -1.81033 0.722008 0
M  V30 241 H 24.8266 -3.12034 -0.0639951 0
M  V30 242 N 25.1277 -0.289203 -1.54924 0
M  V30 243 C 26.0577 0.58549 -2.2604 0
M  V30 244 C 27.0387 1.14753 -1.25562 0
M  V30 245 O 28.2237 1.17906 -1.54311 0
M  V30 246 C 25.3537 1.76305 -2.99222 0
M  V30 247 C 24.3077 1.33191 -4.06748 0
M  V30 248 C 23.6337 2.5937 -4.6758 0
M  V30 249 C 24.9337 0.471775 -5.20165 0
M  V30 250 H 26.6277 -0.00763532 -2.99399 0
M  V30 251 H 24.1737 -0.00511229 -1.43999 0
M  V30 252 H 26.1267 2.38097 -3.47689 0
M  V30 253 H 24.8507 2.38223 -2.23422 0
M  V30 254 H 23.5097 0.737121 -3.59113 0
M  V30 255 H 23.1577 3.19576 -3.88433 0
M  V30 256 H 22.8577 2.31228 -5.40192 0
M  V30 257 H 24.3817 3.21985 -5.18804 0
M  V30 258 H 25.7957 0.995056 -5.64599 0
M  V30 259 H 24.1927 0.284639 -5.99425 0
M  V30 260 H 25.2627 -0.506041 -4.82252 0
M  V30 261 N 26.6058 1.57591 -0.0167156 0
M  V30 262 C 27.5558 2.05953 0.978137 0
M  V30 263 C 28.5398 0.957532 1.29306 0
M  V30 264 O 29.7318 1.22119 1.28125 0
M  V30 265 C 26.8608 2.58006 2.26468 0
M  V30 266 C 25.9468 3.75113 1.97867 0
M  V30 267 N 26.3378 4.86187 1.39486 0
M  V30 268 C 24.6358 3.83363 2.27924 0
M  V30 269 C 25.3368 5.67502 1.27735 0
M  V30 270 N 24.3128 5.14023 1.76866 0
M  V30 271 H 28.1148 2.89236 0.521522 0
M  V30 272 H 25.6288 1.61301 0.188596 0
M  V30 273 H 27.6258 2.90937 2.98599 0
M  V30 274 H 26.2858 1.76148 2.72767 0
M  V30 275 H 27.2968 5.06695 1.07147 0
M  V30 276 H 23.9738 3.1239 2.76982 0
M  V30 277 H 25.3638 6.66791 0.826978 0
M  V30 278 N 28.0839 -0.256276 1.55502 0
M  V30 279 C 29.3309 -0.985619 1.76895 0
M  V30 280 C 29.6589 -1.85671 0.579355 0
M  V30 281 O 28.9139 -1.90744 -0.437651 0
M  V30 282 C 29.2129 -1.88432 3.03691 0
M  V30 283 C 28.8789 -1.16936 4.35473 0
M  V30 284 C 27.5409 -0.97173 4.71286 0
M  V30 285 C 29.8929 -0.661889 5.1698 0
M  V30 286 C 27.2209 -0.254179 5.86149 0
M  V30 287 C 29.5729 0.042149 6.32586 0
M  V30 288 C 28.2369 0.25134 6.67027 0
M  V30 289 H 27.5069 -0.360663 0.647304 0
M  V30 290 H 30.1539 -0.256483 1.89775 0
M  V30 291 H 28.4589 -2.68021 2.85783 0
M  V30 292 H 30.1559 -2.45015 3.1744 0
M  V30 293 H 26.7459 -1.33332 4.07333 0
M  V30 294 H 30.9299 -0.802145 4.89775 0
M  V30 295 H 26.1859 -0.0815408 6.11346 0
M  V30 296 H 30.3599 0.443049 6.94989 0
M  V30 297 H 27.9869 0.809314 7.5588 0
M  V30 298 N 29.562 -1.4872 -0.521534 0
M  V30 299 C 30.81 -1.56857 -1.27437 0
M  V30 300 C 31.131 -0.247982 -1.93417 0
M  V30 301 O 30.401 0.731151 -1.81744 0
M  V30 302 H 28.981 -0.577885 -0.473347 0
M  V30 303 H 31.643 -1.85233 -0.606205 0
M  V30 304 H 30.739 -2.35402 -2.0492 0
M  V30 305 N 31.0401 0.771051 -1.3745 0
M  V30 306 C 31.9701 1.89827 -1.3597 0
M  V30 307 C 32.9511 1.68562 -0.228216 0
M  V30 308 O 34.1361 1.8941 -0.428675 0
M  V30 309 C 31.2661 3.2712 -1.16662 0
M  V30 310 C 30.2201 3.6295 -2.2683 0
M  V30 311 C 29.5461 4.98791 -1.92644 0
M  V30 312 C 30.8461 3.69627 -3.69017 0
M  V30 313 H 32.5401 1.91323 -2.30295 0
M  V30 314 H 30.0861 0.919082 -1.10855 0
M  V30 315 H 32.0391 4.05615 -1.14256 0
M  V30 316 H 30.7631 3.26059 -0.187926 0
M  V30 317 H 29.4221 2.86763 -2.28392 0
M  V30 318 H 29.0701 4.94271 -0.933021 0
M  V30 319 H 28.7701 5.23733 -2.66416 0
M  V30 320 H 30.2941 5.79685 -1.91826 0
M  V30 321 H 31.7081 4.38273 -3.69581 0
M  V30 322 H 30.1051 4.06067 -4.41848 0
M  V30 323 H 31.1751 2.70273 -4.02592 0
M  V30 324 N 32.5182 1.22032 0.997298 0
M  V30 325 C 33.7642 1.04376 1.73878 0
M  V30 326 C 34.0972 -0.420716 1.89588 0
M  V30 327 O 33.3722 -1.31202 1.43583 0
M  V30 328 C 33.6552 1.75047 3.14691 0
M  V30 329 C 33.5082 3.29062 3.06656 0
M  V30 330 C 34.8272 1.49928 4.13775 0
M  V30 331 H 31.9462 0.380578 0.631133 0
M  V30 332 H 34.5882 1.50312 1.16217 0
M  V30 333 H 32.7382 1.35996 3.63919 0
M  V30 334 H 34.4102 3.7753 2.65083 0
M  V30 335 H 32.6532 3.58967 2.43568 0
M  V30 336 H 33.3242 3.73683 4.06282 0
M  V30 337 H 35.8002 1.83842 3.73285 0
M  V30 338 H 34.6762 2.01878 5.10428 0
M  V30 339 H 34.9372 0.430929 4.39995 0
M  V30 340 N 33.9963 -1.19345 1.0293 0
M  V30 341 C 34.9443 -2.24621 0.604001 0
M  V30 342 C 35.9383 -1.65452 -0.363587 0
M  V30 343 O 37.1443 -1.78497 -0.23212 0
M  V30 344 H 33.5193 -0.730858 0.177061 0
M  V30 345 H 35.4903 -2.5781 1.50255 0
M  V30 346 C 34.2393 -3.47688 -0.0289127 0
M  V30 347 H 33.5623 -3.93505 0.706651 0
M  V30 348 H 35.0023 -4.23011 -0.289432 0
M  V30 349 C 33.4613 -3.11817 -1.2756 0
M  V30 350 O 33.9913 -3.2451 -2.36762 0
M  V30 351 N 32.1973 -2.66246 -1.16453 0
M  V30 352 H 31.7443 -2.56118 -0.275914 0
M  V30 353 H 31.7023 -2.42617 -1.99961 0
M  V30 354 N 35.4744 -0.807222 -1.35358 0
M  V30 355 C 36.7234 -0.384376 -1.98004 0
M  V30 356 C 37.0364 1.0543 -1.64754 0
M  V30 357 O 38.2424 1.58029 -2.20769 0
M  V30 358 C 36.6984 -0.636326 -3.5423 0
M  V30 359 C 36.3064 -2.08759 -3.96388 0
M  V30 360 C 38.0504 -0.278869 -4.23583 0
M  V30 361 C 35.9574 -2.28525 -5.45463 0
M  V30 362 H 34.8874 -0.139986 -0.740891 0
M  V30 363 H 37.5384 -0.991369 -1.54415 0
M  V30 364 H 35.9204 0.0406256 -3.95979 0
M  V30 365 H 37.0944 -2.8024 -3.6579 0
M  V30 366 H 35.4094 -2.40497 -3.39926 0
M  V30 367 H 38.0064 -0.404599 -5.33167 0
M  V30 368 H 38.3494 0.775012 -4.09022 0
M  V30 369 H 38.8824 -0.909764 -3.87257 0
M  V30 370 H 35.6214 -3.32361 -5.64992 0
M  V30 371 H 35.1414 -1.61569 -5.77629 0
M  V30 372 H 36.8204 -2.10109 -6.11934 0
M  V30 373 N 36.9525 1.47285 -0.560781 0
M  V30 374 C 38.1775 2.07359 -0.0410566 0
M  V30 375 C 38.6025 1.41017 1.24483 0
M  V30 376 O 37.9605 0.486368 1.74654 0
M  V30 377 C 38.0085 3.6035 0.134123 0
M  V30 378 O 37.1125 3.94681 1.19587 0
M  V30 379 H 36.4535 0.661887 -0.0529291 0
M  V30 380 H 38.9835 1.89252 -0.777482 0
M  V30 381 H 38.9935 4.0652 0.347207 0
M  V30 382 H 37.6685 4.08034 -0.805047 0
M  V30 383 H 36.2455 3.60251 0.962987 0
M  V30 384 N 38.4306 0.297415 1.54768 0
M  V30 385 C 39.6786 -0.312295 1.99673 0
M  V30 386 C 39.9996 -1.54686 1.18732 0
M  V30 387 O 39.2696 -1.93854 0.282382 0
M  V30 388 H 37.8496 -0.118381 0.73756 0
M  V30 389 H 40.5116 0.407915 1.90583 0
M  V30 390 H 39.6076 -0.586813 3.06534 0
M  V30 391 N 39.9087 -1.5758 0.0250728 0
M  V30 392 C 40.8567 -2.11125 -0.97617 0
M  V30 393 C 41.8507 -1.03689 -1.33959 0
M  V30 394 O 43.0567 -1.22128 -1.3223 0
M  V30 395 H 39.4317 -0.674468 -0.332561 0
M  V30 396 H 41.4027 -2.94194 -0.499223 0
M  V30 397 C 40.1517 -2.65017 -2.2508 0
M  V30 398 H 39.4747 -3.47333 -1.9799 0
M  V30 399 H 40.9147 -3.06133 -2.93357 0
M  V30 400 C 39.3737 -1.57574 -2.97779 0
M  V30 401 O 39.9037 -0.973203 -3.89733 0
M  V30 402 N 38.1097 -1.29716 -2.60043 0
M  V30 403 H 37.6567 -1.789 -1.85345 0
M  V30 404 H 37.6147 -0.58051 -3.08994 0
M  V30 405 N 41.3868 0.248026 -1.55636 0
M  V30 406 C 42.3348 1.32683 -1.91045 0
M  V30 407 C 43.3288 1.49883 -0.789401 0
M  V30 408 O 44.5348 1.51371 -0.974007 0
M  V30 409 H 40.9098 0.444272 -0.606734 0
M  V30 410 H 42.8808 1.00085 -2.81115 0
M  V30 411 C 41.6298 2.6755 -2.22064 0
M  V30 412 H 40.9528 2.55114 -3.07826 0
M  V30 413 H 42.3928 3.41912 -2.50743 0
M  V30 414 C 40.8518 3.20556 -1.0366 0
M  V30 415 O 41.3818 4.00695 -0.284016 0
M  V30 416 N 39.5878 2.78568 -0.82753 0
M  V30 417 H 39.1348 2.1351 -1.44123 0
M  V30 418 H 39.0928 3.14378 -0.0369803 0
M  V30 419 N 42.8649 1.48995 0.513639 0
M  V30 420 C 43.7749 1.67443 1.64317 0
M  V30 421 C 44.7909 0.556947 1.64846 0
M  V30 422 O 45.9669 0.830082 1.83498 0
M  V30 423 C 43.0319 1.72515 3.00732 0
M  V30 424 C 42.0929 2.96009 3.1093 0
M  V30 425 C 41.3259 3.00829 4.40837 0
M  V30 426 O 41.5489 2.13594 5.28898 0
M  V30 427 O 40.4829 3.93168 4.55744 0
M  V30 428 H 44.3089 2.63106 1.51687 0
M  V30 429 H 41.8939 1.32588 0.688543 0
M  V30 430 H 43.7759 1.78277 3.81831 0
M  V30 431 H 42.4509 0.800278 3.13651 0
M  V30 432 H 41.3579 2.9577 2.29065 0
M  V30 433 H 42.6909 3.87934 3.02933 0
M  V30 434 N 44.343 -0.763751 1.37857 0
M  V30 435 C 45.568 -1.55805 1.36893 0
M  V30 436 C 45.993 -1.88054 -0.0416135 0
M  V30 437 O 45.351 -1.49825 -1.02089 0
M  V30 438 C 45.399 -2.84012 2.22192 0
M  V30 439 O 44.503 -3.78732 1.63204 0
M  V30 440 H 43.844 -0.471638 0.46739 0
M  V30 441 H 46.374 -0.944657 1.81487 0
M  V30 442 H 46.384 -3.33037 2.35691 0
M  V30 443 H 45.059 -2.59869 3.24716 0
M  V30 444 H 43.636 -3.37402 1.58791 0
M  V30 445 N 45.8211 -1.22559 -0.990812 0
M  V30 446 C 47.0491 -1.07779 -1.76611 0
M  V30 447 C 47.4641 0.371513 -1.85109 0
M  V30 448 O 46.8211 1.25737 -1.32274 0
M  V30 449 C 46.8721 -1.68512 -3.19822 0
M  V30 450 O 46.5931 -3.07774 -3.1178 0
M  V30 451 C 48.0941 -1.59035 -4.13791 0
M  V30 452 H 45.3141 -0.377729 -0.554583 0
M  V30 453 H 47.8581 -1.62195 -1.24551 0
M  V30 454 H 46.0131 -1.18154 -3.68942 0
M  V30 455 H 46.4271 -3.37062 -4.01858 0
M  V30 456 H 47.9011 -2.0625 -5.1202 0
M  V30 457 H 48.3781 -0.547273 -4.35777 0
M  V30 458 H 48.9841 -2.08709 -3.70568 0
M  V30 459 N 47.2992 1.18797 -1.03562 0
M  V30 460 C 48.2292 2.24472 -0.643019 0
M  V30 461 C 49.2102 1.66433 0.351283 0
M  V30 462 O 50.3952 1.92803 0.232505 0
M  V30 463 C 47.5252 3.473 4.24935e-05 0
M  V30 464 C 46.4792 4.18055 -0.917257 0
M  V30 465 C 45.8052 5.34519 -0.138941 0
M  V30 466 C 47.1052 4.72109 -2.23407 0
M  V30 467 H 48.7992 2.57566 -1.52643 0
M  V30 468 H 46.3452 1.23806 -0.735394 0
M  V30 469 H 48.2982 4.20426 0.286383 0
M  V30 470 H 47.0222 3.13424 0.918299 0
M  V30 471 H 45.6812 3.46821 -1.1879 0
M  V30 472 H 45.3292 4.96891 0.781562 0
M  V30 473 H 45.0292 5.82794 -0.750005 0
M  V30 474 H 46.5532 6.10438 0.1405 0
M  V30 475 H 47.9672 5.36955 -2.00879 0
M  V30 476 H 46.3642 5.30897 -2.79765 0
M  V30 477 H 47.4342 3.89807 -2.88407 0
M  V30 478 N 48.7773 0.814389 1.34928 0
M  V30 479 C 49.7253 0.218424 2.31572 0
M  V30 480 C 50.7193 -0.636128 1.57002 0
M  V30 481 O 51.9253 -0.52842 1.72069 0
M  V30 482 H 48.3003 0.0518799 0.750208 0
M  V30 483 H 50.2713 1.04852 2.79372 0
M  V30 484 C 49.0203 -0.61207 3.4227 0
M  V30 485 H 48.3433 0.0361578 3.99784 0
M  V30 486 H 49.7833 -0.995317 4.12152 0
M  V30 487 C 48.2423 -1.78087 2.85984 0
M  V30 488 O 48.7723 -2.8787 2.80168 0
M  V30 489 N 46.9783 -1.59488 2.42924 0
M  V30 490 H 46.5253 -0.701874 2.47854 0
M  V30 491 H 46.4833 -2.37846 2.05613 0
M  V30 492 N 50.2554 -1.46986 0.568584 0
M  V30 493 C 51.4954 -2.04336 0.0512999 0
M  V30 494 C 51.8594 -1.43214 -1.27881 0
M  V30 495 O 53.0604 -1.91679 -1.88448 0
M  V30 496 C 51.3314 -3.57389 -0.0282328 0
M  V30 497 S 52.8904 -4.36056 -0.489991 0
M  V30 498 H 49.7084 -0.71034 0.0306349 0
M  V30 499 H 52.3104 -1.80212 0.757891 0
M  V30 500 H 51.0144 -3.99395 0.944011 0
M  V30 501 H 50.5454 -3.86028 -0.75803 0
M  V30 502 H 52.5604 -4.6441 -1.74752 0
M  V30 503 N 51.7335 -0.305618 -1.54608 0
M  V30 504 C 52.9585 0.307562 -2.05107 0
M  V30 505 C 53.3835 1.46385 -1.18123 0
M  V30 506 O 52.7415 1.8034 -0.186324 0
M  V30 507 C 52.7895 0.73704 -3.52987 0
M  V30 508 O 51.8935 1.84134 -3.6901 0
M  V30 509 H 51.2345 0.0589143 -0.661381 0
M  V30 510 H 53.7645 -0.448807 -1.99617 0
M  V30 511 H 53.7745 1.02459 -3.94925 0
M  V30 512 H 52.4495 -0.108773 -4.15758 0
M  V30 513 H 51.0265 1.55398 -3.38978 0
M  V30 514 N 53.2116 1.57565 -0.0334293 0
M  V30 515 C 54.1436 2.0739 0.975811 0
M  V30 516 C 55.1566 0.998166 1.2861 0
M  V30 517 O 56.3456 1.27426 1.25 0
M  V30 518 C 53.4456 2.4871 2.30209 0
M  V30 519 C 52.6186 3.79413 2.17634 0
M  V30 520 C 51.6776 4.07237 3.33233 0
M  V30 521 O 50.7036 4.77425 3.09927 0
M  V30 522 N 51.9056 3.5775 4.5716 0
M  V30 523 H 54.6706 2.94598 0.55066 0
M  V30 524 H 52.2316 1.61173 0.15323 0
M  V30 525 H 54.2236 2.64413 3.06378 0
M  V30 526 H 52.7936 1.66845 2.64351 0
M  V30 527 H 52.0136 3.73465 1.26165 0
M  V30 528 H 53.3016 4.65038 2.0644 0
M  V30 529 H 52.6996 3.00976 4.78989 0
M  V30 530 H 51.2566 3.78724 5.30482 0
M  V30 531 N 54.6897 -0.239769 1.55765 0
M  V30 532 C 55.6367 -1.29696 1.90913 0
M  V30 533 C 56.6067 -1.47478 0.764164 0
M  V30 534 O 57.7917 -1.61345 1.01845 0
M  V30 535 C 54.9317 -2.64598 2.21544 0
M  V30 536 C 54.0447 -2.54765 3.48882 0
M  V30 537 C 53.1797 -3.82069 3.69049 0
M  V30 538 C 52.2187 -3.66883 4.89963 0
M  V30 539 N 51.3557 -4.86094 5.06614 0
M  V30 540 H 56.1957 -0.990224 2.81067 0
M  V30 541 H 53.7327 -0.477684 1.39128 0
M  V30 542 H 55.6907 -3.43132 2.3731 0
M  V30 543 H 54.3207 -2.93405 1.34585 0
M  V30 544 H 53.3727 -1.67763 3.41409 0
M  V30 545 H 54.6847 -2.39457 4.37563 0
M  V30 546 H 53.8387 -4.69046 3.84812 0
M  V30 547 H 52.5777 -4.00282 2.78614 0
M  V30 548 H 51.5827 -2.78289 4.74168 0
M  V30 549 H 52.8077 -3.50157 5.81865 0
M  V30 550 H 50.7537 -5.04655 4.19117 0
M  V30 551 H 50.6707 -4.73443 5.89396 0
M  V30 552 H 51.9387 -5.74549 5.26795 0
M  V30 553 N 56.1678 -1.49265 -0.50573 0
M  V30 554 C 57.5788 -1.51769 -1.08734 0
M  V30 555 C 57.9298 -0.301192 -1.93874 0
M  V30 556 O 57.0548 0.589456 -2.08217 0
M  V30 557 C 57.6498 -2.75017 -1.97867 0
M  V30 558 C 56.2088 -2.80314 -2.51199 0
M  V30 559 C 55.3558 -2.4562 -1.28709 0
M  V30 560 H 58.3068 -1.56031 -0.289855 0
M  V30 561 H 58.3278 -2.5491 -2.82491 0
M  V30 562 H 57.8398 -3.63539 -1.35873 0
M  V30 563 H 55.9408 -1.96061 -3.16845 0
M  V30 564 H 56.0538 -3.82366 -2.88675 0
M  V30 565 H 54.4178 -1.97297 -1.61078 0
M  V30 566 H 55.2008 -3.36411 -0.6843 0
M  V30 567 N 57.6459 0.756429 -1.3826 0
M  V30 568 C 58.8709 1.55077 -1.37717 0
M  V30 569 C 59.2959 1.88073 0.03164 0
M  V30 570 O 58.6539 1.50364 1.01293 0
M  V30 571 C 58.7019 2.8283 -2.23695 0
M  V30 572 O 57.8059 3.77862 -1.6521 0
M  V30 573 H 57.1469 0.469152 -0.469885 0
M  V30 574 H 59.6769 0.935019 -1.81985 0
M  V30 575 H 59.6869 3.31783 -2.37453 0
M  V30 576 H 58.3619 2.58144 -3.2609 0
M  V30 577 H 56.9389 3.36555 -1.60578 0
M  V30 578 N 59.124 1.23083 0.984299 0
M  V30 579 C 60.401 0.9689 1.69917 0
M  V30 580 C 60.781 -0.513604 2.04757 0
M  V30 581 O 60.129 -1.48383 1.73767 0
M  V30 582 C 60.339 1.87518 2.94343 0
M  V30 583 C 61.687 2.13636 3.6694 0
M  V30 584 O 62.711 1.85036 3.04368 0
M  V30 585 O 61.57 2.62119 4.79537 0
M  V30 586 H 58.664 0.365095 0.742048 0
M  V30 587 H 61.21 1.34107 1.03987 0
M  V30 588 H 59.982 2.87756 2.65164 0
M  V30 589 H 59.605 1.50514 3.6801 0
M  V30 590 N 60.6021 -1.18246 1.0419 0
M  V30 591 C 61.5491 -2.2192 0.634037 0
M  V30 592 C 62.5191 -1.62179 -0.358765 0
M  V30 593 O 63.7041 -1.89122 -0.252466 0
M  V30 594 C 60.8441 -3.451 0.00445535 0
M  V30 595 C 59.9571 -4.19174 1.04487 0
M  V30 596 C 59.0921 -5.29813 0.383676 0
M  V30 597 C 58.1311 -5.9566 1.4091 0
M  V30 598 N 57.2681 -6.97834 0.772784 0
M  V30 599 H 62.1081 -2.56164 1.52263 0
M  V30 600 H 59.6451 -1.25843 0.761701 0
M  V30 601 H 61.6031 -4.15485 -0.377919 0
M  V30 602 H 60.2331 -3.11472 -0.847652 0
M  V30 603 H 59.2851 -3.47604 1.54518 0
M  V30 604 H 60.5971 -4.64267 1.82368 0
M  V30 605 H 59.7511 -6.06677 -0.0528366 0
M  V30 606 H 58.4901 -4.85825 -0.427208 0
M  V30 607 H 57.4951 -5.17535 1.85574 0
M  V30 608 H 58.7201 -6.4173 2.22171 0
M  V30 609 H 56.6661 -6.55998 -0.0177708 0
M  V30 610 H 56.5831 -7.41186 1.48928 0
M  V30 611 H 57.8511 -7.78665 0.36071 0
M  V30 612 N 62.0802 -0.821533 -1.34494 0
M  V30 613 C 63.0302 -0.214793 -2.26986 0
M  V30 614 C 64.0142 0.620125 -1.4847 0
M  V30 615 O 65.2062 0.474933 -1.70509 0
M  V30 616 C 62.3352 0.623566 -3.37589 0
M  V30 617 C 61.4212 -0.221904 -4.23519 0
M  V30 618 N 61.8122 -1.29223 -4.89014 0
M  V30 619 C 60.1102 -0.00600922 -4.46 0
M  V30 620 C 60.8112 -1.80965 -5.52835 0
M  V30 621 N 59.7872 -1.11376 -5.32068 0
M  V30 622 H 63.5892 -1.03354 -2.75128 0
M  V30 623 H 61.1032 -0.6642 -1.48196 0
M  V30 624 H 63.1002 1.0744 -4.02818 0
M  V30 625 H 61.7602 1.44049 -2.90998 0
M  V30 626 H 62.7712 -1.67502 -4.90065 0
M  V30 627 H 59.4482 0.77886 -4.10171 0
M  V30 628 H 60.8382 -2.70502 -6.15043 0
M  V30 629 N 63.5583 1.46682 -0.576371 0
M  V30 630 C 64.4883 2.33028 0.148397 0
M  V30 631 C 65.4693 1.44961 0.889956 0
M  V30 632 O 66.6543 1.73789 0.866662 0
M  V30 633 C 63.7843 3.27117 1.1667 0
M  V30 634 C 62.7383 4.24575 0.540386 0
M  V30 635 C 62.0643 5.08126 1.6647 0
M  V30 636 C 63.3643 5.19722 -0.518331 0
M  V30 637 H 65.0583 2.93875 -0.572509 0
M  V30 638 H 62.6043 1.41315 -0.276768 0
M  V30 639 H 64.5573 3.86374 1.68204 0
M  V30 640 H 63.2813 2.64364 1.9178 0
M  V30 641 H 61.9403 3.66571 0.0461769 0
M  V30 642 H 61.5883 4.41762 2.40531 0
M  V30 643 H 61.2883 5.74122 1.25131 0
M  V30 644 H 62.8123 5.70246 2.18293 0
M  V30 645 H 64.2263 5.73232 -0.0883058 0
M  V30 646 H 62.6233 5.94026 -0.851679 0
M  V30 647 H 63.6933 4.64037 -1.40703 0
M  V30 648 N 65.0364 0.313813 1.54444 0
M  V30 649 C 66.3134 -0.345447 1.92525 0
M  V30 650 C 66.6934 -1.70667 1.24242 0
M  V30 651 O 66.0414 -2.25273 0.382654 0
M  V30 652 C 66.2514 -0.44737 3.46121 0
M  V30 653 C 67.5994 -0.712238 4.18584 0
M  V30 654 O 68.6234 -0.530678 3.52225 0
M  V30 655 O 67.4824 -1.06183 5.36085 0
M  V30 656 H 64.5764 -0.195407 0.803583 0
M  V30 657 H 67.1224 0.362813 1.65776 0
M  V30 658 H 65.8944 0.509043 3.87975 0
M  V30 659 H 65.5174 -1.20359 3.78945 0
M  V30 660 N 66.5145 -1.57545 0.0417849 0
M  V30 661 C 67.4775 -2.09885 -0.92093 0
M  V30 662 C 68.4775 -1.01648 -1.24596 0
M  V30 663 O 69.6675 -1.27759 -1.1842 0
M  V30 664 C 66.7995 -2.57527 -2.23367 0
M  V30 665 H 67.9925 -2.96236 -0.467382 0
M  V30 666 H 65.5455 -1.5493 -0.206467 0
M  V30 667 H 66.2805 -1.74542 -2.73323 0
M  V30 668 H 66.0655 -3.36613 -2.01083 0
M  V30 669 H 67.5555 -2.98201 -2.92346 0
M  V30 670 N 67.9926 0.231505 -1.5589 0
M  V30 671 C 69.2416 0.955346 -1.7764 0
M  V30 672 C 69.5546 1.85893 -0.608546 0
M  V30 673 O 70.7606 2.62067 -0.70943 0
M  V30 674 C 69.2166 1.74886 -3.14552 0
M  V30 675 C 68.8246 0.891915 -4.39032 0
M  V30 676 C 70.5686 2.46452 -3.45633 0
M  V30 677 C 68.4756 1.68221 -5.66971 0
M  V30 678 H 67.4056 0.360446 -0.662265 0
M  V30 679 H 70.0566 0.209516 -1.823 0
M  V30 680 H 68.4386 2.53723 -3.04041 0
M  V30 681 H 69.6126 0.144793 -4.60572 0
M  V30 682 H 67.9276 0.288863 -4.15397 0
M  V30 683 H 70.5246 3.06061 -4.38441 0
M  V30 684 H 70.8676 3.18841 -2.67668 0
M  V30 685 H 71.4006 1.74613 -3.57428 0
M  V30 686 H 68.1396 1.00178 -6.478 0
M  V30 687 H 67.6596 2.4042 -5.49507 0
M  V30 688 H 69.3386 2.24544 -6.06786 0
M  V30 689 N 69.4707 1.49531 0.497807 0
M  V30 690 C 70.8817 1.52344 1.07927 0
M  V30 691 C 71.2327 0.311469 1.93712 0
M  V30 692 O 70.3577 -0.578405 2.08527 0
M  V30 693 C 70.9527 2.76062 1.96405 0
M  V30 694 C 69.5117 2.81643 2.49709 0
M  V30 695 C 68.6587 2.46299 1.27404 0
M  V30 696 H 71.6097 1.56182 0.281576 0
M  V30 697 H 71.6307 2.56405 2.81135 0
M  V30 698 H 71.1427 3.64254 1.33943 0
M  V30 699 H 69.2437 1.97739 3.15801 0
M  V30 700 H 69.3567 3.83891 2.86643 0
M  V30 701 H 67.7207 1.98148 1.60029 0
M  V30 702 H 68.5037 3.36769 0.66645 0
M  V30 703 N 70.9488 -0.749086 1.3866 0
M  V30 704 C 72.1978 -1.50371 1.3443 0
M  V30 705 C 72.5108 -1.95503 -0.0616397 0
M  V30 706 O 73.7168 -2.70554 -0.226489 0
M  V30 707 C 72.1728 -2.71644 2.36088 0
M  V30 708 C 71.7808 -2.3352 3.82325 0
M  V30 709 C 73.5248 -3.49518 2.40909 0
M  V30 710 C 71.4318 -3.51431 4.75658 0
M  V30 711 H 70.3618 -0.564628 0.499712 0
M  V30 712 H 73.0128 -0.818449 1.64237 0
M  V30 713 H 71.3948 -3.42175 1.9933 0
M  V30 714 H 72.5688 -1.70627 4.28046 0
M  V30 715 H 70.8838 -1.6877 3.80665 0
M  V30 716 H 73.4808 -4.37197 3.07836 0
M  V30 717 H 73.8238 -3.90992 1.42937 0
M  V30 718 H 74.3568 -2.86005 2.76489 0
M  V30 719 H 71.0958 -3.15019 5.74842 0
M  V30 720 H 70.6158 -4.13352 4.34627 0
M  V30 721 H 72.2948 -4.17953 4.93887 0
M  V30 722 N 72.4269 -1.23603 -0.977757 0
M  V30 723 C 73.3569 -1.04401 -2.0886 0
M  V30 724 C 74.3379 0.0399052 -1.70053 0
M  V30 725 O 75.5229 -0.125246 -1.93796 0
M  V30 726 C 72.6529 -0.637269 -3.41403 0
M  V30 727 C 71.6069 -1.66883 -3.94124 0
M  V30 728 C 70.9329 -1.11745 -5.22893 0
M  V30 729 C 72.2329 -3.06247 -4.23096 0
M  V30 730 H 73.9269 -1.97316 -2.25182 0
M  V30 731 H 71.4729 -0.950096 -1.08209 0
M  V30 732 H 73.4259 -0.48998 -4.18542 0
M  V30 733 H 72.1499 0.327557 -3.24953 0
M  V30 734 H 70.8089 -1.80416 -3.19133 0
M  V30 735 H 70.4569 -0.143527 -5.02795 0
M  V30 736 H 70.1569 -1.80672 -5.59134 0
M  V30 737 H 71.6809 -0.982067 -6.02651 0
M  V30 738 H 73.0949 -2.96001 -4.90975 0
M  V30 739 H 71.4919 -3.72436 -4.70544 0
M  V30 740 H 72.5619 -3.55041 -3.30263 0
M  V30 741 N 73.905 1.17692 -1.04816 0
M  V30 742 C 75.135 1.91508 -0.775128 0
M  V30 743 C 75.543 1.76844 0.67253 0
M  V30 744 O 74.886 1.10057 1.47082 0
M  V30 745 C 74.948 3.43167 -1.0713 0
M  V30 746 C 74.612 3.81612 -2.51438 0
M  V30 747 C 75.609 3.84772 -3.49638 0
M  V30 748 C 73.294 4.12687 -2.86348 0
M  V30 749 C 75.288 4.18469 -4.80794 0
M  V30 750 C 72.975 4.46053 -4.17708 0
M  V30 751 C 73.973 4.48921 -5.14741 0
M  V30 752 O 73.661 4.81504 -6.43746 0
M  V30 753 H 73.393 0.614575 -0.281555 0
M  V30 754 H 75.947 1.50206 -1.40098 0
M  V30 755 H 74.177 3.84745 -0.388342 0
M  V30 756 H 75.866 3.98239 -0.784883 0
M  V30 757 H 76.632 3.60893 -3.24008 0
M  V30 758 H 72.511 4.09627 -2.11486 0
M  V30 759 H 76.055 4.20623 -5.56527 0
M  V30 760 H 71.952 4.69393 -4.43103 0
M  V30 761 H 72.72 4.99377 -6.4851 0
M  V30 762 N 75.3831 0.828654 1.34056 0
M  V30 763 C 76.6131 0.431993 2.02033 0
M  V30 764 C 77.0211 -0.96844 1.62536 0
M  V30 765 O 76.3641 -1.6391 0.829408 0
M  V30 766 C 76.4261 0.461224 3.56529 0
M  V30 767 C 76.0901 1.81599 4.1937 0
M  V30 768 C 77.0871 2.7777 4.39477 0
M  V30 769 C 74.7721 2.10604 4.56017 0
M  V30 770 C 76.7661 4.01115 4.95364 0
M  V30 771 C 74.4531 3.34207 5.11614 0
M  V30 772 C 75.4511 4.2928 5.31232 0
M  V30 773 O 75.1391 5.50699 5.8565 0
M  V30 774 H 74.8711 0.170943 0.654029 0
M  V30 775 H 77.4251 1.11988 1.72185 0
M  V30 776 H 75.6551 -0.283388 3.8566 0
M  V30 777 H 77.3441 0.0838149 4.05813 0
M  V30 778 H 78.1101 2.56659 4.11523 0
M  V30 779 H 73.9891 1.37402 4.40047 0
M  V30 780 H 77.5331 4.75333 5.10592 0
M  V30 781 H 73.4301 3.55179 5.38997 0
M  V30 782 H 74.1981 5.52298 6.04077 0
M  V30 783 N 76.8612 -1.46375 0.584142 0
M  V30 784 C 78.1102 -2.01585 0.0679741 0
M  V30 785 C 78.4232 -1.46109 -1.30045 0
M  V30 786 O 79.6292 -1.93148 -1.90804 0
M  V30 787 C 78.0852 -3.5983 0.0709207 0
M  V30 788 C 77.6932 -4.24303 1.43775 0
M  V30 789 C 79.4372 -4.22693 -0.391228 0
M  V30 790 C 77.3442 -5.74631 1.39834 0
M  V30 791 H 76.2742 -0.753689 0.0216421 0
M  V30 792 H 78.9252 -1.68093 0.736001 0
M  V30 793 H 77.3072 -3.90405 -0.663299 0
M  V30 794 H 78.4812 -4.05335 2.19181 0
M  V30 795 H 76.7962 -3.73539 1.84004 0
M  V30 796 H 79.3932 -5.3289 -0.439524 0
M  V30 797 H 79.7362 -3.91728 -1.40906 0
M  V30 798 H 80.2692 -3.96749 0.288974 0
M  V30 799 H 77.0082 -6.10258 2.39303 0
M  V30 800 H 76.5282 -5.95858 0.686505 0
M  V30 801 H 78.2072 -6.37375 1.11187 0
M  V30 802 N 78.3393 -0.321999 -1.54275 0
M  V30 803 C 79.5883 0.281931 -1.9972 0
M  V30 804 C 79.9013 1.53369 -1.21397 0
M  V30 805 O 81.1073 2.21352 -1.57211 0
M  V30 806 C 79.5633 0.5529 -3.55628 0
M  V30 807 C 79.1713 -0.681721 -4.42783 0
M  V30 808 C 80.9153 1.11687 -4.09544 0
M  V30 809 C 78.8223 -0.382742 -5.9016 0
M  V30 810 H 77.7523 0.109124 -0.746062 0
M  V30 811 H 80.4033 -0.43398 -1.78294 0
M  V30 812 H 78.7853 1.32896 -3.73035 0
M  V30 813 H 79.9593 -1.45723 -4.37151 0
M  V30 814 H 78.2743 -1.1658 -3.99748 0
M  V30 815 H 80.8713 1.35515 -5.17242 0
M  V30 816 H 81.2143 2.06575 -3.61431 0
M  V30 817 H 81.7473 0.402032 -3.95763 0
M  V30 818 H 78.4863 -1.30076 -6.42464 0
M  V30 819 H 78.0063 0.355094 -5.98748 0
M  V30 820 H 79.6853 0.00800157 -6.47 0
M  V30 821 N 79.8174 1.5752 -0.0501392 0
M  V30 822 C 81.0644 1.9265 0.623874 0
M  V30 823 C 81.3924 0.928411 1.70912 0
M  V30 824 O 80.6474 -0.0594525 1.9561 0
M  V30 825 C 80.9464 3.34467 1.25963 0
M  V30 826 C 80.6124 4.49883 0.302689 0
M  V30 827 C 79.2744 4.81184 0.0393636 0
M  V30 828 C 81.6264 5.20002 -0.353205 0
M  V30 829 C 78.9544 5.79951 -0.887308 0
M  V30 830 C 81.3064 6.1976 -1.26806 0
M  V30 831 C 79.9704 6.49491 -1.54007 0
M  V30 832 H 79.2404 0.704957 0.228292 0
M  V30 833 H 81.8874 1.91146 -0.116398 0
M  V30 834 H 80.1924 3.32333 2.07514 0
M  V30 835 H 81.8894 3.58928 1.78806 0
M  V30 836 H 78.4794 4.25457 0.518109 0
M  V30 837 H 82.6634 4.96033 -0.162854 0
M  V30 838 H 77.9194 6.01322 -1.10553 0
M  V30 839 H 82.0934 6.73205 -1.78236 0
M  V30 840 H 79.7204 7.25837 -2.25976 0
M  V30 841 N 81.2955 -0.223234 1.56011 0
M  V30 842 C 82.5415 -0.949279 1.79211 0
M  V30 843 C 82.8745 -1.84054 0.619494 0
M  V30 844 O 82.1495 -1.90726 -0.381317 0
M  V30 845 C 82.4325 -1.78965 3.12479 0
M  V30 846 C 82.2855 -0.924997 4.40186 0
M  V30 847 C 83.6045 -2.76774 3.42175 0
M  V30 848 H 80.7235 -0.343676 0.651963 0
M  V30 849 H 83.3655 -0.218253 1.88742 0
M  V30 850 H 81.5155 -2.41291 3.04485 0
M  V30 851 H 83.1875 -0.318615 4.60198 0
M  V30 852 H 81.4305 -0.230344 4.33188 0
M  V30 853 H 82.1015 -1.54735 5.29869 0
M  V30 854 H 84.5775 -2.24584 3.50287 0
M  V30 855 H 83.4535 -3.32678 4.36597 0
M  V30 856 H 83.7145 -3.54429 2.64258 0
M  V30 857 N 82.7736 -1.49793 -0.48987 0
M  V30 858 C 84.0226 -1.59085 -1.23995 0
M  V30 859 C 84.3356 -0.287907 -1.9347 0
M  V30 860 O 85.5416 -0.259506 -2.70257 0
M  V30 861 C 83.9976 -2.80736 -2.252 0
M  V30 862 C 83.6056 -4.17833 -1.61614 0
M  V30 863 C 85.3496 -2.99364 -3.00967 0
M  V30 864 C 83.2566 -5.30693 -2.60996 0
M  V30 865 H 82.1866 -0.592372 -0.466488 0
M  V30 866 H 84.8376 -1.76197 -0.51252 0
M  V30 867 H 83.2196 -2.57142 -3.01154 0
M  V30 868 H 84.3936 -4.51608 -0.915774 0
M  V30 869 H 82.7086 -4.04656 -0.981977 0
M  V30 870 H 85.3056 -3.80851 -3.75308 0
M  V30 871 H 85.6486 -2.10356 -3.59244 0
M  V30 872 H 86.1816 -3.2305 -2.32128 0
M  V30 873 H 82.9206 -6.21796 -2.07485 0
M  V30 874 H 82.4406 -5.01359 -3.2924 0
M  V30 875 H 84.1196 -5.6049 -3.23202 0
M  V30 876 N 84.2517 0.741722 -1.39055 0
M  V30 877 C 85.4997 1.49818 -1.35643 0
M  V30 878 C 85.8207 1.94938 0.0491642 0
M  V30 879 O 85.0907 1.68505 0.999141 0
M  V30 880 H 83.6707 0.555755 -0.499144 0
M  V30 881 H 86.3327 0.880957 -1.73854 0
M  V30 882 H 85.4287 2.38348 -2.01486 0
M  V30 883 N 85.7298 1.2412 0.971189 0
M  V30 884 C 86.9768 1.07881 1.71371 0
M  V30 885 C 87.3048 -0.382901 1.90694 0
M  V30 886 O 86.5598 -1.29945 1.46331 0
M  V30 887 C 86.8588 1.75983 3.11071 0
M  V30 888 C 86.5248 3.25909 3.11599 0
M  V30 889 C 85.1868 3.66813 3.11451 0
M  V30 890 C 87.5388 4.21771 3.062 0
M  V30 891 C 84.8668 5.02021 3.03631 0
M  V30 892 C 87.2188 5.56982 2.99923 0
M  V30 893 C 85.8828 5.97237 2.98102 0
M  V30 894 H 85.1528 0.394764 0.62709 0
M  V30 895 H 87.7998 1.54176 1.13587 0
M  V30 896 H 86.1048 1.22072 3.72298 0
M  V30 897 H 87.8018 1.60887 3.6731 0
M  V30 898 H 84.3918 2.93353 3.12477 0
M  V30 899 H 88.5758 3.91172 3.05447 0
M  V30 900 H 83.8318 5.32411 3.0058 0
M  V30 901 H 88.0058 6.30969 2.94704 0
M  V30 902 H 85.6328 7.01967 2.91798 0
M  V30 903 N 87.2079 -1.17134 1.05439 0
M  V30 904 C 88.1379 -2.2342 0.678649 0
M  V30 905 C 89.1189 -1.66971 -0.32476 0
M  V30 906 O 90.3039 -1.93149 -0.201802 0
M  V30 907 C 87.4339 -3.47256 0.0552099 0
M  V30 908 C 86.3879 -4.16543 0.98365 0
M  V30 909 C 85.7139 -5.34231 0.223961 0
M  V30 910 C 87.0139 -4.68495 2.3089 0
M  V30 911 H 88.7079 -2.55105 1.56722 0
M  V30 912 H 86.2539 -1.2262 0.754998 0
M  V30 913 H 88.2069 -4.20828 -0.21946 0
M  V30 914 H 86.9309 -3.14846 -0.868319 0
M  V30 915 H 85.5899 -3.44887 1.24293 0
M  V30 916 H 85.2379 -4.98071 -0.702412 0
M  V30 917 H 84.9379 -5.81527 0.842627 0
M  V30 918 H 86.4619 -6.10585 -0.0433671 0
M  V30 919 H 87.8759 -5.33691 2.09396 0
M  V30 920 H 86.2729 -5.26379 2.88176 0
M  V30 921 H 87.3429 -3.85169 2.94572 0
M  V30 922 N 88.686 -0.835752 -1.33615 0
M  V30 923 C 89.932 -0.430596 -1.98176 0
M  V30 924 C 90.265 1.00684 -1.66061 0
M  V30 925 O 89.54 1.70339 -0.938877 0
M  V30 926 C 89.823 -0.648065 -3.5422 0
M  V30 927 C 89.676 -2.13255 -3.96033 0
M  V30 928 C 90.995 -0.0922113 -4.40003 0
M  V30 929 H 88.114 -0.157924 -0.719881 0
M  V30 930 H 90.756 -1.05069 -1.58305 0
M  V30 931 H 88.906 -0.120237 -3.88314 0
M  V30 932 H 90.578 -2.725 -3.72211 0
M  V30 933 H 88.821 -2.61823 -3.45878 0
M  V30 934 H 89.492 -2.23547 -5.04708 0
M  V30 935 H 91.968 -0.543343 -4.12537 0
M  V30 936 H 90.844 -0.274083 -5.48215 0
M  V30 937 H 91.105 1.00378 -4.30554 0
M  V30 938 N 90.1641 1.46063 -0.591896 0
M  V30 939 C 91.1121 2.32124 0.148739 0
M  V30 940 C 92.1061 1.45035 0.875286 0
M  V30 941 O 93.3121 1.61609 0.792632 0
M  V30 942 H 89.6871 0.749024 0.066832 0
M  V30 943 H 91.6581 2.92392 -0.595783 0
M  V30 944 C 90.4071 3.28373 1.1431 0
M  V30 945 H 89.7301 3.95371 0.59346 0
M  V30 946 H 91.1701 3.91352 1.63155 0
M  V30 947 C 89.6291 2.54393 2.20875 0
M  V30 948 O 90.1591 2.31373 3.28374 0
M  V30 949 N 88.3651 2.14797 1.95731 0
M  V30 950 H 87.9121 2.33719 1.08319 0
M  V30 951 H 87.8701 1.65619 2.67241 0
M  V30 952 N 91.6422 0.330177 1.54103 0
M  V30 953 C 92.8912 -0.271336 1.99867 0
M  V30 954 C 93.2042 -1.52723 1.22209 0
M  V30 955 O 94.4102 -2.20515 1.58383 0
M  V30 956 C 92.8662 -0.534032 3.55916 0
M  V30 957 C 92.4742 0.705193 4.42415 0
M  V30 958 C 94.2182 -1.09514 4.1013 0
M  V30 959 C 92.1252 0.414035 5.89949 0
M  V30 960 H 91.0552 -0.105166 0.74663 0
M  V30 961 H 93.7062 0.443429 1.78062 0
M  V30 962 H 92.0882 -1.30915 3.73734 0
M  V30 963 H 93.2622 1.4804 4.36372 0
M  V30 964 H 91.5772 1.18698 3.99124 0
M  V30 965 H 94.1742 -1.3277 5.17954 0
M  V30 966 H 94.5172 -2.04656 3.62521 0
M  V30 967 H 95.0502 -0.381038 3.95971 0
M  V30 968 H 91.7892 1.33481 6.41766 0
M  V30 969 H 91.3092 -0.323336 5.98928 0
M  V30 970 H 92.9882 0.0263105 6.46995 0
M  V30 971 N 93.1203 -1.57491 0.0584922 0
M  V30 972 C 94.3663 -1.93264 -0.614558 0
M  V30 973 C 94.6993 -0.937717 -1.7006 0
M  V30 974 O 93.9743 0.0351652 -1.94468 0
M  V30 975 C 94.2573 -3.3938 -1.20386 0
M  V30 976 C 94.1103 -4.49625 -0.125375 0
M  V30 977 C 95.4293 -3.86039 -2.11334 0
M  V30 978 H 92.5483 -0.702791 -0.221933 0
M  V30 979 H 95.1903 -1.8961 0.12175 0
M  V30 980 H 93.3403 -3.42626 -1.83139 0
M  V30 981 H 95.0123 -4.58506 0.506971 0
M  V30 982 H 93.2553 -4.30354 0.545672 0
M  V30 983 H 93.9263 -5.48967 -0.577861 0
M  V30 984 H 96.4023 -3.84716 -1.58534 0
M  V30 985 H 95.2783 -4.88914 -2.49507 0
M  V30 986 H 95.5393 -3.23215 -3.01636 0
M  V30 987 N 94.5984 0.214957 -1.56127 0
M  V30 988 C 95.8444 0.939762 -1.79712 0
M  V30 989 C 96.1774 1.83723 -0.629247 0
M  V30 990 O 95.4524 1.90925 0.371197 0
M  V30 991 C 95.7354 1.77306 -3.13424 0
M  V30 992 C 95.5884 0.90164 -4.40671 0
M  V30 993 C 96.9074 2.74956 -3.43638 0
M  V30 994 H 94.0264 0.340214 -0.653776 0
M  V30 995 H 96.6684 0.20824 -1.88855 0
M  V30 996 H 94.8184 2.39673 -3.0576 0
M  V30 997 H 96.4904 0.294206 -4.60361 0
M  V30 998 H 94.7334 0.207368 -4.33304 0
M  V30 999 H 95.4044 1.51923 -5.30682 0
M  V30 1000 H 97.8804 2.22724 -3.51473 0
M  V30 1001 H 96.7564 3.30358 -4.38355 0
M  V30 1002 H 97.0174 3.53023 -2.66134 0
M  V30 1003 N 96.0765 1.50051 0.48192 0
M  V30 1004 C 97.3225 1.60736 1.2366 0
M  V30 1005 C 97.6555 0.301786 1.91841 0
M  V30 1006 O 96.9305 -0.696025 1.8162 0
M  V30 1007 C 97.2135 2.78009 2.28874 0
M  V30 1008 C 97.0665 4.18416 1.65069 0
M  V30 1009 C 98.3855 2.90867 3.30279 0
M  V30 1010 H 95.5045 0.585031 0.448228 0
M  V30 1011 H 98.1465 1.82402 0.531946 0
M  V30 1012 H 96.2965 2.59667 2.88973 0
M  V30 1013 H 97.9685 4.48322 1.0865 0
M  V30 1014 H 96.2115 4.23177 0.954148 0
M  V30 1015 H 96.8825 4.96381 2.41474 0
M  V30 1016 H 99.3585 3.07623 2.80191 0
M  V30 1017 H 98.2345 3.74566 4.01238 0
M  V30 1018 H 98.4955 2.01021 3.93755 0
M  V30 1019 N 97.5546 -0.734337 1.39446 0
M  V30 1020 C 98.7826 -1.52358 1.39981 0
M  V30 1021 C 99.1976 -1.88799 -0.0054975 0
M  V30 1022 O 98.5546 -1.54146 -0.976998 0
M  V30 1023 C 98.6056 -2.81072 2.27333 0
M  V30 1024 O 98.3266 -2.46178 3.62392 0
M  V30 1025 C 99.8276 -3.75096 2.36259 0
M  V30 1026 H 97.0476 -0.470806 0.478103 0
M  V30 1027 H 99.5916 -0.907339 1.83269 0
M  V30 1028 H 97.7466 -3.39026 1.87457 0
M  V30 1029 H 98.1606 -3.28866 4.08592 0
M  V30 1030 H 99.6346 -4.62305 3.01626 0
M  V30 1031 H 100.112 -4.16892 1.38194 0
M  V30 1032 H 100.718 -3.23061 2.76608 0
M  V30 1033 N 99.0327 -1.24633 -0.964593 0
M  V30 1034 C 99.9627 -1.06611 -2.07741 0
M  V30 1035 C 100.944 0.0218666 -1.70086 0
M  V30 1036 O 102.129 -0.145793 -1.93652 0
M  V30 1037 C 99.2587 -0.673444 -3.40708 0
M  V30 1038 C 98.2127 -1.71054 -3.92332 0
M  V30 1039 C 97.5387 -1.17285 -5.21678 0
M  V30 1040 C 98.8387 -3.10718 -4.19824 0
M  V30 1041 H 100.533 -1.99693 -2.23076 0
M  V30 1042 H 98.0787 -0.96152 -1.07195 0
M  V30 1043 H 100.032 -0.534345 -4.17998 0
M  V30 1044 H 98.7557 0.293073 -3.25282 0
M  V30 1045 H 97.4147 -1.83791 -3.17201 0
M  V30 1046 H 97.0627 -0.196847 -5.02615 0
M  V30 1047 H 96.7627 -1.86592 -5.57187 0
M  V30 1048 H 98.2867 -1.04593 -6.01575 0
M  V30 1049 H 99.7007 -3.01192 -4.87808 0
M  V30 1050 H 98.0977 -3.77406 -4.66567 0
M  V30 1051 H 99.1677 -3.58524 -3.26479 0
M  V30 1052 N 100.511 1.16574 -1.06058 0
M  V30 1053 C 101.758 1.87047 -0.775873 0
M  V30 1054 C 102.086 1.81562 0.697534 0
M  V30 1055 O 101.341 1.22445 1.52662 0
M  V30 1056 C 101.64 3.36195 -1.21275 0
M  V30 1057 C 101.306 3.6188 -2.68986 0
M  V30 1058 C 99.9678 3.68599 -3.09335 0
M  V30 1059 C 102.32 3.72648 -3.64394 0
M  V30 1060 C 99.6478 3.83584 -4.43937 0
M  V30 1061 C 102 3.89154 -4.98741 0
M  V30 1062 C 100.664 3.94114 -5.3873 0
M  V30 1063 H 99.9338 0.684452 -0.283912 0
M  V30 1064 H 102.581 1.37853 -1.32925 0
M  V30 1065 H 100.886 3.87505 -0.578528 0
M  V30 1066 H 102.583 3.89103 -0.969542 0
M  V30 1067 H 99.1728 3.57281 -2.36744 0
M  V30 1068 H 103.357 3.66769 -3.34356 0
M  V30 1069 H 98.6128 3.85677 -4.74409 0
M  V30 1070 H 102.787 3.96427 -5.72554 0
M  V30 1071 H 100.414 4.05478 -6.43033 0
M  V30 1072 N 101.989 0.842826 1.3317 0
M  V30 1073 C 103.229 0.446574 1.99462 0
M  V30 1074 C 103.593 -0.976818 1.65295 0
M  V30 1075 O 104.794 -1.477 2.24584 0
M  V30 1076 C 103.065 0.665353 3.51152 0
M  V30 1077 S 104.624 0.364911 4.3728 0
M  V30 1078 H 101.442 0.167803 0.690915 0
M  V30 1079 H 104.044 1.09297 1.62094 0
M  V30 1080 H 102.748 1.7006 3.73507 0
M  V30 1081 H 102.279 0.00494568 3.934 0
M  V30 1082 H 104.294 -0.813761 4.89482 0
M  V30 1083 N 103.467 -1.45747 0.599634 0
M  V30 1084 C 104.707 -2.04181 0.0946309 0
M  V30 1085 C 105.071 -1.45895 -1.24815 0
M  V30 1086 O 106.272 -1.95633 -1.8434 0
M  V30 1087 C 104.543 -3.57368 0.047581 0
M  V30 1088 S 106.102 -4.36997 -0.397387 0
M  V30 1089 H 102.92 -0.70953 0.0456954 0
M  V30 1090 H 105.522 -1.78564 0.795946 0
M  V30 1091 H 104.226 -3.97303 1.02852 0
M  V30 1092 H 103.757 -3.87549 -0.675977 0
M  V30 1093 H 105.772 -4.68012 -1.64862 0
M  V30 1094 N 104.945 -0.338344 -1.53925 0
M  V30 1095 C 105.877 0.555117 -2.22376 0
M  V30 1096 C 106.89 1.06812 -1.22862 0
M  V30 1097 O 108.079 0.979163 -1.49247 0
M  V30 1098 C 105.179 1.77609 -2.88631 0
M  V30 1099 C 104.352 1.39927 -4.14414 0
M  V30 1100 C 103.411 2.47936 -4.64127 0
M  V30 1101 O 102.437 2.11461 -5.28463 0
M  V30 1102 N 103.639 3.79107 -4.39612 0
M  V30 1103 H 106.404 -0.0310778 -2.99684 0
M  V30 1104 H 103.965 -0.162226 -1.61085 0
M  V30 1105 H 105.957 2.49287 -3.18807 0
M  V30 1106 H 104.527 2.26978 -2.14941 0
M  V30 1107 H 103.747 0.513481 -3.90841 0
M  V30 1108 H 105.035 1.12341 -4.96243 0
M  V30 1109 H 104.433 4.11531 -3.88148 0
M  V30 1110 H 102.99 4.4697 -4.74406 0
M  V30 1111 N 106.423 1.57458 -0.0668435 0
M  V30 1112 C 107.37 2.12439 0.902122 0
M  V30 1113 C 108.34 1.03565 1.2986 0
M  V30 1114 O 109.525 1.312 1.38532 0
M  V30 1115 C 106.665 2.6865 2.16614 0
M  V30 1116 C 105.778 3.91663 1.82274 0
M  V30 1117 C 104.913 4.36134 3.0325 0
M  V30 1118 C 103.952 5.51808 2.64904 0
M  V30 1119 N 103.089 5.9126 3.78624 0
M  V30 1120 H 107.929 2.94934 0.426382 0
M  V30 1121 H 105.466 1.4575 0.198819 0
M  V30 1122 H 107.424 2.99346 2.90599 0
M  V30 1123 H 106.054 1.88928 2.61737 0
M  V30 1124 H 105.106 3.6746 0.983719 0
M  V30 1125 H 106.418 4.75693 1.50059 0
M  V30 1126 H 105.572 4.68465 3.85519 0
M  V30 1127 H 104.311 3.50948 3.38655 0
M  V30 1128 H 103.316 5.19133 1.81055 0
M  V30 1129 H 104.541 6.38722 2.30675 0
M  V30 1130 H 102.487 5.09024 4.138 0
M  V30 1131 H 102.404 6.70018 3.5016 0
M  V30 1132 H 103.672 6.28212 4.61486 0
M  V30 1133 N 107.901 -0.206675 1.56239 0
M  V30 1134 C 109.149 -0.927007 1.79586 0
M  V30 1135 C 109.47 -1.8427 0.637929 0
M  V30 1136 O 108.74 -1.92849 -0.344398 0
M  V30 1137 H 107.32 -0.345292 0.662407 0
M  V30 1138 H 109.982 -0.21496 1.93711 0
M  V30 1139 H 109.078 -1.52501 2.72305 0
M  V30 1140 N 109.379 -1.50304 -0.473955 0
M  V30 1141 C 110.79 -1.54042 -1.0549 0
M  V30 1142 C 111.141 -0.342248 -1.93192 0
M  V30 1143 O 110.266 0.545157 -2.09421 0
M  V30 1144 C 110.861 -2.79152 -1.91989 0
M  V30 1145 C 109.42 -2.8558 -2.45196 0
M  V30 1146 C 108.567 -2.48295 -1.2347 0
M  V30 1147 H 111.518 -1.5661 -0.256693 0
M  V30 1148 H 111.539 -2.60845 -2.7702 0
M  V30 1149 H 111.051 -3.66339 -1.28131 0
M  V30 1150 H 109.152 -2.02738 -3.12615 0
M  V30 1151 H 109.265 -3.88403 -2.80499 0
M  V30 1152 H 107.629 -2.00669 -1.56856 0
M  V30 1153 H 108.412 -3.37787 -0.612789 0
M  V30 1154 N 110.857 0.726932 -1.39834 0
M  V30 1155 C 111.804 1.841 -1.39197 0
M  V30 1156 C 112.774 1.642 -0.250502 0
M  V30 1157 O 113.959 1.85494 -0.446846 0
M  V30 1158 C 111.099 3.21697 -1.24919 0
M  V30 1159 C 110.212 3.53247 -2.48678 0
M  V30 1160 C 109.347 4.80289 -2.26928 0
M  V30 1161 C 108.386 5.04707 -3.4632 0
M  V30 1162 N 107.523 6.22956 -3.23836 0
M  V30 1163 H 112.363 1.83979 -2.34427 0
M  V30 1164 H 109.9 0.898876 -1.16442 0
M  V30 1165 H 111.858 4.01137 -1.1465 0
M  V30 1166 H 110.488 3.21076 -0.333153 0
M  V30 1167 H 109.54 2.68447 -2.69519 0
M  V30 1168 H 110.852 3.67205 -3.37582 0
M  V30 1169 H 110.006 5.67725 -2.13947 0
M  V30 1170 H 108.745 4.68519 -1.35431 0
M  V30 1171 H 107.75 4.1573 -3.5979 0
M  V30 1172 H 108.975 5.18357 -4.38729 0
M  V30 1173 H 106.921 6.12459 -2.35011 0
M  V30 1174 H 106.838 6.37539 -4.063 0
M  V30 1175 H 108.106 7.1321 -3.14566 0
M  V30 1176 N 112.336 1.25143 0.95797 0
M  V30 1177 C 113.283 1.05235 2.05412 0
M  V30 1178 C 114.253 -0.0374561 1.66058 0
M  V30 1179 O 115.438 0.119073 1.90428 0
M  V30 1180 C 112.578 0.673589 3.38462 0
M  V30 1181 C 111.691 1.8379 3.90954 0
M  V30 1182 C 110.826 1.40381 5.12315 0
M  V30 1183 C 109.865 2.53746 5.57027 0
M  V30 1184 N 109.002 2.11136 6.69601 0
M  V30 1185 H 113.842 1.99048 2.21774 0
M  V30 1186 H 111.379 0.991277 1.08683 0
M  V30 1187 H 113.337 0.434964 4.14926 0
M  V30 1188 H 111.967 -0.227554 3.21997 0
M  V30 1189 H 111.019 2.18992 3.11041 0
M  V30 1190 H 112.331 2.68937 4.20089 0
M  V30 1191 H 111.485 1.12464 5.96185 0
M  V30 1192 H 110.224 0.523015 4.84887 0
M  V30 1193 H 109.229 2.82412 4.71724 0
M  V30 1194 H 110.454 3.42398 5.86464 0
M  V30 1195 H 108.4 1.25468 6.4389 0
M  V30 1196 H 108.317 2.89832 6.98236 0
M  V30 1197 H 109.585 1.86385 7.56889 0
M  V30 1198 N 113.814 -1.1601 1.06675 0
M  V30 1199 C 115.06 -1.86909 0.786945 0
M  V30 1200 C 115.393 -1.81717 -0.685018 0
M  V30 1201 O 114.668 -1.23551 -1.50218 0
M  V30 1202 C 114.951 -3.36313 1.28707 0
M  V30 1203 C 114.804 -3.50175 2.82308 0
M  V30 1204 C 116.123 -4.3084 0.898071 0
M  V30 1205 H 113.242 -0.678677 0.287343 0
M  V30 1206 H 115.884 -1.36336 1.32334 0
M  V30 1207 H 114.034 -3.79513 0.830768 0
M  V30 1208 H 115.706 -3.15886 3.36175 0
M  V30 1209 H 113.949 -2.91959 3.20847 0
M  V30 1210 H 114.62 -4.55116 3.12368 0
M  V30 1211 H 117.096 -3.95561 1.29114 0
M  V30 1212 H 115.972 -5.33876 1.27543 0
M  V30 1213 H 116.233 -4.41662 -0.196651 0
M  V30 1214 N 115.292 -0.849877 -1.32721 0
M  V30 1215 C 116.517 -0.463856 -2.02146 0
M  V30 1216 C 116.942 0.930449 -1.63476 0
M  V30 1217 O 116.3 1.61033 -0.832952 0
M  V30 1218 C 116.348 -0.604955 -3.55489 0
M  V30 1219 O 115.452 0.36425 -4.10788 0
M  V30 1220 H 114.793 -0.187046 -0.637111 0
M  V30 1221 H 117.323 -1.14775 -1.69375 0
M  V30 1222 H 117.333 -0.490696 -4.05038 0
M  V30 1223 H 116.008 -1.62174 -3.82978 0
M  V30 1224 H 114.585 0.206628 -3.72327 0
M  V30 1225 N 116.77 1.45427 -0.607355 0
M  V30 1226 C 117.995 2.07124 -0.107006 0
M  V30 1227 C 118.42 1.44906 1.19933 0
M  V30 1228 O 117.778 0.541687 1.73019 0
M  V30 1229 C 117.826 3.60595 0.0194119 0
M  V30 1230 O 116.93 3.98285 1.0697 0
M  V30 1231 H 116.271 0.659868 -0.0739597 0
M  V30 1232 H 118.801 1.86683 -0.837297 0
M  V30 1233 H 118.811 4.07419 0.2177 0
M  V30 1234 H 117.486 4.05266 -0.934453 0
M  V30 1235 H 116.063 3.63133 0.847889 0
M  V30 1236 N 118.248 0.346503 1.53744 0
M  V30 1237 C 119.497 -0.250122 2.00143 0
M  V30 1238 C 119.81 -1.51418 1.23822 0
M  V30 1239 O 121.016 -2.18823 1.60713 0
M  V30 1240 C 119.472 -0.496252 3.56462 0
M  V30 1241 C 119.08 0.752077 4.41642 0
M  V30 1242 C 120.824 -1.05157 4.11269 0
M  V30 1243 C 118.731 0.476583 5.89477 0
M  V30 1244 H 117.661 -0.0972409 0.747703 0
M  V30 1245 H 120.312 0.46229 1.77581 0
M  V30 1246 H 118.694 -1.26944 3.75102 0
M  V30 1247 H 119.868 1.5266 4.34778 0
M  V30 1248 H 118.183 1.22925 3.97842 0
M  V30 1249 H 120.78 -1.27269 5.19333 0
M  V30 1250 H 121.123 -2.00799 3.64672 0
M  V30 1251 H 121.656 -0.339019 3.96353 0
M  V30 1252 H 118.395 1.4028 6.40314 0
M  V30 1253 H 117.915 -0.259794 5.99237 0
M  V30 1254 H 119.594 0.0949315 6.4693 0
M  V30 1255 N 119.726 -1.57421 0.075193 0
M  V30 1256 C 120.956 -1.97659 -0.601203 0
M  V30 1257 C 121.364 -0.952427 -1.63479 0
M  V30 1258 O 120.707 0.0688241 -1.83571 0
M  V30 1259 C 120.769 -3.34218 -1.32434 0
M  V30 1260 C 120.433 -4.5484 -0.443826 0
M  V30 1261 C 121.43 -5.19034 0.299969 0
M  V30 1262 C 119.115 -5.00952 -0.367709 0
M  V30 1263 C 121.109 -6.27695 1.10807 0
M  V30 1264 C 118.796 -6.09484 0.444058 0
M  V30 1265 C 119.794 -6.72719 1.18061 0
M  V30 1266 O 119.482 -7.79161 1.97898 0
M  V30 1267 H 119.214 -0.65494 -0.167422 0
M  V30 1268 H 121.768 -2.04886 0.145157 0
M  V30 1269 H 119.998 -3.23615 -2.11685 0
M  V30 1270 H 121.687 -3.59038 -1.89331 0
M  V30 1271 H 122.453 -4.84351 0.250776 0
M  V30 1272 H 118.332 -4.51509 -0.930638 0
M  V30 1273 H 121.876 -6.76982 1.68347 0
M  V30 1274 H 117.773 -6.43601 0.494803 0
M  V30 1275 H 118.541 -7.96055 1.90367 0
M  V30 1276 N 121.204 0.198386 -1.56346 0
M  V30 1277 C 122.453 0.917451 -1.79627 0
M  V30 1278 C 122.766 1.8456 -0.64784 0
M  V30 1279 O 123.972 2.60504 -0.764859 0
M  V30 1280 C 122.428 1.68175 -3.18191 0
M  V30 1281 C 122.036 0.798589 -4.40825 0
M  V30 1282 C 123.78 2.39065 -3.50782 0
M  V30 1283 C 121.687 1.56157 -5.70411 0
M  V30 1284 H 120.617 0.346317 -0.669762 0
M  V30 1285 H 123.268 0.170801 -1.82703 0
M  V30 1286 H 121.65 2.47216 -3.09354 0
M  V30 1287 H 122.824 0.0470665 -4.60776 0
M  V30 1288 H 121.139 0.200686 -4.15916 0
M  V30 1289 H 123.736 2.96692 -4.44835 0
M  V30 1290 H 124.079 3.13091 -2.74371 0
M  V30 1291 H 124.612 1.66993 -3.61052 0
M  V30 1292 H 121.351 0.864142 -6.49779 0
M  V30 1293 H 120.871 2.2871 -5.54483 0
M  V30 1294 H 122.55 2.11622 -6.11412 0
M  V30 1295 N 122.682 1.50554 0.465978 0
M  V30 1296 C 123.929 1.61798 1.21768 0
M  V30 1297 C 124.257 0.320696 1.91838 0
M  V30 1298 O 123.512 -0.693724 1.82992 0
M  V30 1299 C 123.811 2.75152 2.28093 0
M  V30 1300 C 123.477 4.15454 1.75239 0
M  V30 1301 C 122.139 4.53628 1.60546 0
M  V30 1302 C 124.491 5.03121 1.36083 0
M  V30 1303 C 121.819 5.77204 1.05128 0
M  V30 1304 C 124.171 6.27249 0.821056 0
M  V30 1305 C 122.835 6.64221 0.660795 0
M  V30 1306 H 122.105 0.592063 0.445582 0
M  V30 1307 H 124.752 1.84503 0.512927 0
M  V30 1308 H 123.057 2.46556 3.04496 0
M  V30 1309 H 124.754 2.81055 2.86023 0
M  V30 1310 H 121.344 3.85341 1.87644 0
M  V30 1311 H 125.528 4.74257 1.46267 0
M  V30 1312 H 120.784 6.0452 0.91462 0
M  V30 1313 H 124.958 6.94537 0.509018 0
M  V30 1314 H 122.585 7.59854 0.229226 0
M  V30 1315 N 124.16 -0.719506 1.40217 0
M  V30 1316 C 125.108 -1.85493 1.40339 0
M  V30 1317 C 126.102 -1.66995 0.284415 0
M  V30 1318 O 127.308 -1.74148 0.455252 0
M  V30 1319 H 123.683 -0.610857 0.438586 0
M  V30 1320 H 125.654 -1.82506 2.36081 0
M  V30 1321 C 124.403 -3.23321 1.27901 0
M  V30 1322 H 123.726 -3.38159 2.1328 0
M  V30 1323 H 125.166 -4.02914 1.32045 0
M  V30 1324 C 123.625 -3.36898 -0.0111355 0
M  V30 1325 O 124.155 -3.89674 -0.975538 0
M  V30 1326 N 122.361 -2.90492 -0.0793393 0
M  V30 1327 H 121.908 -2.47731 0.706183 0
M  V30 1328 H 121.866 -2.99955 -0.942038 0
M  V30 1329 N 125.638 -1.25649 -0.95132 0
M  V30 1330 C 126.568 -1.08808 -2.06599 0
M  V30 1331 C 127.549 0.00382547 -1.701 0
M  V30 1332 O 128.734 -0.166325 -1.93486 0
M  V30 1333 C 125.864 -0.709542 -3.39975 0
M  V30 1334 C 124.818 -1.75206 -3.90496 0
M  V30 1335 C 124.144 -1.22811 -5.20405 0
M  V30 1336 C 125.444 -3.15153 -4.16504 0
M  V30 1337 H 127.138 -2.02048 -2.20946 0
M  V30 1338 H 124.684 -0.972835 -1.06169 0
M  V30 1339 H 126.637 -0.578649 -4.17408 0
M  V30 1340 H 125.361 0.258556 -3.25575 0
M  V30 1341 H 124.02 -1.87145 -3.15234 0
M  V30 1342 H 123.668 -0.250145 -5.02378 0
M  V30 1343 H 123.368 -1.92492 -5.55176 0
M  V30 1344 H 124.892 -1.10968 -6.00432 0
M  V30 1345 H 126.306 -3.06349 -4.84586 0
M  V30 1346 H 124.703 -3.82333 -4.62538 0
M  V30 1347 H 125.773 -3.61966 -3.22658 0
M  V30 1348 N 127.117 1.15442 -1.07289 0
M  V30 1349 C 128.08 2.18358 -0.696591 0
M  V30 1350 C 129.08 1.58637 0.262837 0
M  V30 1351 O 130.27 1.74145 0.0438809 0
M  V30 1352 C 127.402 3.4089 -0.0266151 0
M  V30 1353 H 128.595 2.53162 -1.60776 0
M  V30 1354 H 126.148 1.29893 -0.869342 0
M  V30 1355 H 126.883 3.11653 0.896822 0
M  V30 1356 H 126.668 3.85495 -0.716657 0
M  V30 1357 H 128.158 4.17009 0.222028 0
M  V30 1358 N 128.595 0.856903 1.32268 0
M  V30 1359 C 129.841 0.462069 1.97466 0
M  V30 1360 C 130.174 -0.980298 1.67642 0
M  V30 1361 O 129.449 -1.68824 0.965858 0
M  V30 1362 C 129.732 0.704336 3.53145 0
M  V30 1363 C 129.585 2.19529 3.9259 0
M  V30 1364 C 130.904 0.1622 4.39801 0
M  V30 1365 H 128.023 0.169357 0.717278 0
M  V30 1366 H 130.665 1.07574 1.56614 0
M  V30 1367 H 128.815 0.181999 3.88073 0
M  V30 1368 H 130.487 2.78387 3.67829 0
M  V30 1369 H 128.73 2.67292 3.41668 0
M  V30 1370 H 129.401 2.31549 5.01088 0
M  V30 1371 H 131.877 0.608905 4.11621 0
M  V30 1372 H 130.753 0.361265 5.4771 0
M  V30 1373 H 131.014 -0.935158 4.32096 0
M  V30 1374 N 130.073 -1.45103 0.615059 0
M  V30 1375 C 131.036 -2.29025 -0.0895485 0
M  V30 1376 C 132.036 -1.40174 -0.787906 0
M  V30 1377 O 133.226 -1.62217 -0.634933 0
M  V30 1378 C 130.358 -3.21376 -1.13711 0
M  V30 1379 H 131.551 -2.92807 0.648382 0
M  V30 1380 H 129.104 -1.51749 0.374444 0
M  V30 1381 H 129.839 -2.6241 -1.90556 0
M  V30 1382 H 129.624 -3.86834 -0.640475 0
M  V30 1383 H 131.114 -3.84459 -1.63036 0
M  V30 1384 N 131.551 -0.354651 -1.53558 0
M  V30 1385 C 132.828 0.294281 -1.93374 0
M  V30 1386 C 133.208 1.67313 -1.28723 0
M  V30 1387 O 132.556 2.24179 -0.442247 0
M  V30 1388 C 132.766 0.355445 -3.47185 0
M  V30 1389 C 134.114 0.601007 -4.20325 0
M  V30 1390 O 135.138 0.437106 -3.53508 0
M  V30 1391 O 133.997 0.919322 -5.38712 0
M  V30 1392 H 131.091 0.174033 -0.808481 0
M  V30 1393 H 133.637 -0.406638 -1.64756 0
M  V30 1394 H 132.409 -0.611729 -3.86489 0
M  V30 1395 H 132.032 1.1027 -3.82003 0
M  V30 1396 N 133.029 1.57378 -0.0835403 0
M  V30 1397 C 133.959 2.1641 0.87686 0
M  V30 1398 C 134.94 1.09429 1.30228 0
M  V30 1399 O 136.125 1.37516 1.37124 0
M  V30 1400 C 133.255 2.73517 2.14022 0
M  V30 1401 C 132.209 3.85769 1.85381 0
M  V30 1402 C 131.535 4.29529 3.18448 0
M  V30 1403 C 132.835 5.09486 1.14984 0
M  V30 1404 H 134.529 2.96914 0.385059 0
M  V30 1405 H 132.075 1.42823 0.18377 0
M  V30 1406 H 134.028 3.13463 2.81636 0
M  V30 1407 H 132.752 1.90252 2.65465 0
M  V30 1408 H 131.411 3.46345 1.20169 0
M  V30 1409 H 131.059 3.43169 3.67755 0
M  V30 1410 H 130.759 5.05204 3.00071 0
M  V30 1411 H 132.283 4.72099 3.8724 0
M  V30 1412 H 133.697 5.46674 1.72687 0
M  V30 1413 H 132.094 5.90515 1.06826 0
M  V30 1414 H 133.164 4.84724 0.130749 0
M  V30 1415 N 134.507 -0.190092 1.56449 0
M  V30 1416 C 135.437 -1.23816 1.97969 0
M  V30 1417 C 136.418 -1.47201 0.852395 0
M  V30 1418 O 137.603 -1.58854 1.1171 0
M  V30 1419 C 134.733 -2.5813 2.3235 0
M  V30 1420 C 133.687 -2.49348 3.47864 0
M  V30 1421 C 133.013 -3.8798 3.67934 0
M  V30 1422 C 134.313 -2.01424 4.81898 0
M  V30 1423 H 136.007 -0.89311 2.85769 0
M  V30 1424 H 133.553 -0.428177 1.37487 0
M  V30 1425 H 135.506 -3.31637 2.59991 0
M  V30 1426 H 134.23 -2.94386 1.41438 0
M  V30 1427 H 132.889 -1.78297 3.20321 0
M  V30 1428 H 132.537 -4.21597 2.74344 0
M  V30 1429 H 132.237 -3.82978 4.45648 0
M  V30 1430 H 133.761 -4.63101 3.97957 0
M  V30 1431 H 135.175 -2.64693 5.08538 0
M  V30 1432 H 133.572 -2.07413 5.63116 0
M  V30 1433 H 134.642 -0.967677 4.75146 0
M  V30 1434 N 135.985 -1.50799 -0.457987 0
M  V30 1435 C 136.915 -1.73553 -1.5621 0
M  V30 1436 C 137.896 -0.584774 -1.59732 0
M  V30 1437 O 139.081 -0.825314 -1.7579 0
M  V30 1438 C 136.211 -1.84169 -2.94447 0
M  V30 1439 C 135.165 -2.99461 -3.0579 0
M  V30 1440 C 134.491 -2.95235 -4.45803 0
M  V30 1441 C 135.791 -4.39766 -2.81786 0
M  V30 1442 H 137.485 -2.66 -1.37421 0
M  V30 1443 H 135.031 -1.28002 -0.659662 0
M  V30 1444 H 136.984 -1.98672 -3.71628 0
M  V30 1445 H 135.708 -0.883545 -3.14422 0
M  V30 1446 H 134.367 -2.8463 -2.31044 0
M  V30 1447 H 134.015 -1.97239 -4.62715 0
M  V30 1448 H 133.715 -3.72642 -4.54326 0
M  V30 1449 H 135.239 -3.11803 -5.24987 0
M  V30 1450 H 136.653 -4.55054 -3.4871 0
M  V30 1451 H 135.05 -5.18722 -3.0174 0
M  V30 1452 H 136.12 -4.51229 -1.7754 0
M  V30 1453 N 137.463 0.71206 -1.40597 0
M  V30 1454 C 138.393 1.83889 -1.43899 0
M  V30 1455 C 139.374 1.67442 -0.299504 0
M  V30 1456 O 140.559 1.87421 -0.508624 0
M  V30 1457 C 137.689 3.21877 -1.30431 0
M  V30 1458 C 136.643 3.53002 -2.42019 0
M  V30 1459 C 135.969 4.90172 -2.13626 0
M  V30 1460 C 137.269 3.53643 -3.84362 0
M  V30 1461 H 138.963 1.81383 -2.38203 0
M  V30 1462 H 136.509 0.871237 -1.14654 0
M  V30 1463 H 138.462 4.00404 -1.31357 0
M  V30 1464 H 137.186 3.24968 -0.326049 0
M  V30 1465 H 135.845 2.76818 -2.40349 0
M  V30 1466 H 135.493 4.89869 -1.14182 0
M  V30 1467 H 135.193 5.11962 -2.88389 0
M  V30 1468 H 136.717 5.71028 -2.1624 0
M  V30 1469 H 138.131 4.22203 -3.87837 0
M  V30 1470 H 136.528 3.86961 -4.58673 0
M  V30 1471 H 137.598 2.52954 -4.13693 0
M  V30 1472 N 138.941 1.26152 0.944643 0
M  V30 1473 C 139.904 1.07474 2.0244 0
M  V30 1474 C 140.904 0.0242064 1.60782 0
M  V30 1475 O 142.094 0.267302 1.72137 0
M  V30 1476 C 139.226 0.633956 3.34953 0
M  V30 1477 H 140.419 2.03336 2.20442 0
M  V30 1478 H 137.972 1.087 1.12312 0
M  V30 1479 H 138.707 -0.326811 3.22649 0
M  V30 1480 H 138.492 1.39247 3.66542 0
M  V30 1481 H 139.982 0.52501 4.14287 0
M  V30 1482 N 140.419 -1.14872 1.07899 0
M  V30 1483 C 141.647 -1.89661 0.82683 0
M  V30 1484 C 142.062 -1.78312 -0.620519 0
M  V30 1485 O 141.419 -1.13888 -1.42604 0
M  V30 1486 C 141.47 -3.39817 1.23316 0
M  V30 1487 O 141.191 -3.50845 2.62372 0
M  V30 1488 C 142.692 -4.31615 1.0111 0
M  V30 1489 H 139.912 -0.60092 0.298557 0
M  V30 1490 H 142.456 -1.4551 1.43691 0
M  V30 1491 H 140.611 -3.8161 0.667286 0
M  V30 1492 H 141.025 -4.44076 2.79101 0
M  V30 1493 H 142.499 -5.35367 1.34486 0
M  V30 1494 H 142.976 -4.39169 -0.0522168 0
M  V30 1495 H 143.582 -3.95572 1.56215 0
M  V30 1496 N 141.898 -0.863906 -1.31812 0
M  V30 1497 C 142.828 -0.330843 -2.31144 0
M  V30 1498 C 143.809 0.575005 -1.60087 0
M  V30 1499 O 144.994 0.493304 -1.8783 0
M  V30 1500 C 142.124 0.47374 -3.44054 0
M  V30 1501 C 141.078 -0.338481 -4.26659 0
M  V30 1502 C 140.404 0.591412 -5.31419 0
M  V30 1503 C 141.704 -1.56926 -4.98168 0
M  V30 1504 H 143.398 -1.16086 -2.75979 0
M  V30 1505 H 140.944 -0.559657 -1.32679 0
M  V30 1506 H 142.897 0.857143 -4.12591 0
M  V30 1507 H 141.621 1.33721 -2.9797 0
M  V30 1508 H 140.28 -0.703754 -3.59782 0
M  V30 1509 H 139.928 1.45199 -4.81587 0
M  V30 1510 H 139.628 0.0519022 -5.87577 0
M  V30 1511 H 141.152 0.97179 -6.02817 0
M  V30 1512 H 142.566 -1.25764 -5.59336 0
M  V30 1513 H 140.963 -2.04739 -5.64094 0
M  V30 1514 H 142.033 -2.32544 -4.25501 0
M  V30 1515 N 143.376 1.44774 -0.622745 0
M  V30 1516 C 144.787 1.85546 -0.207226 0
M  V30 1517 C 145.138 1.52093 1.23944 0
M  V30 1518 O 144.263 0.95492 1.94191 0
M  V30 1519 C 144.858 3.36781 -0.369313 0
M  V30 1520 C 143.417 3.76399 -0.00836847 0
M  V30 1521 C 142.564 2.68664 -0.686651 0
M  V30 1522 H 145.515 1.3536 -0.828454 0
M  V30 1523 H 145.536 3.78453 0.394162 0
M  V30 1524 H 145.048 3.61098 -1.42231 0
M  V30 1525 H 143.149 3.57698 1.04322 0
M  V30 1526 H 143.262 4.7732 -0.412584 0
M  V30 1527 H 141.626 2.54404 -0.122777 0
M  V30 1528 H 142.409 2.95815 -1.74208 0
M  V30 1529 N 144.854 0.36279 1.53368 0
M  V30 1530 C 145.784 -0.476976 2.28576 0
M  V30 1531 C 146.765 -1.08631 1.30894 0
M  V30 1532 O 147.95 -1.10409 1.59761 0
M  V30 1533 C 145.08 -1.61828 3.07293 0
M  V30 1534 C 144.034 -1.13633 4.1264 0
M  V30 1535 C 143.36 -2.36766 4.79423 0
M  V30 1536 C 144.66 -0.223061 5.21823 0
M  V30 1537 H 146.354 0.150474 2.99022 0
M  V30 1538 H 143.9 0.0738103 1.43811 0
M  V30 1539 H 145.853 -2.21237 3.58653 0
M  V30 1540 H 144.577 -2.27292 2.34533 0
M  V30 1541 H 143.236 -0.564945 3.62221 0
M  V30 1542 H 142.884 -3.0068 4.03238 0
M  V30 1543 H 142.584 -2.05192 5.50609 0
M  V30 1544 H 144.108 -2.96865 5.33576 0
M  V30 1545 H 145.522 -0.724545 5.68703 0
M  V30 1546 H 143.919 0.001678 6.001 0
M  V30 1547 H 144.989 0.735553 4.79289 0
M  V30 1548 N 146.332 -1.57332 0.0918853 0
M  V30 1549 C 147.578 -1.95328 -0.567313 0
M  V30 1550 C 147.933 -0.972866 -1.65991 0
M  V30 1551 O 147.226 0.00166256 -1.916 0
M  V30 1552 C 147.42 -3.37689 -1.17051 0
M  V30 1553 C 147.249 -4.49489 -0.137875 0
M  V30 1554 C 146.019 -5.04498 0.284515 0
M  V30 1555 C 148.217 -5.10393 0.63271 0
M  V30 1556 N 146.199 -5.99853 1.30576 0
M  V30 1557 C 147.57 -6.01435 1.50587 0
M  V30 1558 C 149.625 -4.93143 0.68658 0
M  V30 1559 C 148.328 -6.77077 2.42815 0
M  V30 1560 C 150.354 -5.69445 1.59645 0
M  V30 1561 C 149.716 -6.60151 2.45725 0
M  V30 1562 H 145.815 -0.761467 -0.178023 0
M  V30 1563 H 148.399 -1.93924 0.173706 0
M  V30 1564 H 146.57 -3.39793 -1.88136 0
M  V30 1565 H 148.302 -3.62872 -1.79181 0
M  V30 1566 H 145.057 -4.73489 -0.102593 0
M  V30 1567 H 145.481 -6.52231 1.81449 0
M  V30 1568 H 150.123 -4.22785 0.035244 0
M  V30 1569 H 147.841 -7.46699 3.08975 0
M  V30 1570 H 151.427 -5.58112 1.64323 0
M  V30 1571 H 150.307 -7.18159 3.14987 0
M  V30 1572 N 147.81 0.181792 -1.56548 0
M  V30 1573 C 148.773 1.20894 -1.94724 0
M  V30 1574 C 149.773 1.37738 -0.829747 0
M  V30 1575 O 150.963 1.35323 -1.09697 0
M  V30 1576 C 148.095 2.57593 -2.23291 0
M  V30 1577 H 149.288 0.882275 -2.86629 0
M  V30 1578 H 146.841 0.423838 -1.50444 0
M  V30 1579 H 147.576 2.95291 -1.34067 0
M  V30 1580 H 147.361 2.46735 -3.04736 0
M  V30 1581 H 148.851 3.31637 -2.53785 0
M  V30 1582 N 149.288 1.51039 0.449983 0
M  V30 1583 C 150.516 1.66869 1.2232 0
M  V30 1584 C 150.931 0.360727 1.85322 0
M  V30 1585 O 150.288 -0.659531 1.70166 0
M  V30 1586 C 150.339 2.77524 2.31652 0
M  V30 1587 O 150.06 4.03252 1.7123 0
M  V30 1588 C 151.561 3.04512 3.2216 0
M  V30 1589 H 148.781 0.560326 0.369155 0
M  V30 1590 H 151.325 1.97385 0.534719 0
M  V30 1591 H 149.48 2.49642 2.96239 0
M  V30 1592 H 149.894 4.64609 2.43389 0
M  V30 1593 H 151.368 3.85551 3.95038 0
M  V30 1594 H 151.845 2.16415 3.8218 0
M  V30 1595 H 152.451 3.34005 2.63288 0
M  V30 1596 N 150.766 -0.704594 1.40972 0
M  V30 1597 C 151.996 -1.49138 1.42974 0
M  V30 1598 C 152.404 -1.89175 0.0308406 0
M  V30 1599 O 151.747 -1.56734 -0.958138 0
M  V30 1600 C 151.809 -2.79016 2.26694 0
M  V30 1601 C 151.473 -2.61236 3.74973 0
M  V30 1602 C 152.47 -2.27773 4.67349 0
M  V30 1603 C 150.155 -2.77158 4.18914 0
M  V30 1604 C 152.149 -2.10457 6.01653 0
M  V30 1605 C 149.836 -2.59459 5.53285 0
M  V30 1606 C 150.834 -2.26158 6.4447 0
M  V30 1607 O 150.522 -2.08605 7.76363 0
M  V30 1608 H 150.254 -0.466443 0.489292 0
M  V30 1609 H 152.808 -0.8758 1.85793 0
M  V30 1610 H 151.038 -3.42947 1.78673 0
M  V30 1611 H 152.727 -3.40782 2.20504 0
M  V30 1612 H 153.493 -2.15095 4.34694 0
M  V30 1613 H 149.372 -3.02064 3.48251 0
M  V30 1614 H 152.916 -1.84387 6.72791 0
M  V30 1615 H 148.813 -2.71725 5.85522 0
M  V30 1616 H 149.581 -2.23439 7.87412 0
M  V30 1617 N 152.244 -1.26651 -0.937939 0
M  V30 1618 C 153.474 -1.15006 -1.71631 0
M  V30 1619 C 153.882 0.297026 -1.86854 0
M  V30 1620 O 153.225 1.21493 -1.37786 0
M  V30 1621 C 153.287 -1.74984 -3.14039 0
M  V30 1622 C 152.951 -3.24103 -3.2219 0
M  V30 1623 C 153.948 -4.20877 -3.05219 0
M  V30 1624 C 151.633 -3.64625 -3.45476 0
M  V30 1625 C 153.627 -5.56151 -3.11408 0
M  V30 1626 C 151.314 -5.00032 -3.513 0
M  V30 1627 C 152.312 -5.95604 -3.34282 0
M  V30 1628 O 152 -7.28545 -3.3982 0
M  V30 1629 H 151.732 -0.401183 -0.544085 0
M  V30 1630 H 154.286 -1.67832 -1.18413 0
M  V30 1631 H 152.516 -1.16624 -3.68695 0
M  V30 1632 H 154.205 -1.58199 -3.73802 0
M  V30 1633 H 154.971 -3.90908 -2.87081 0
M  V30 1634 H 150.85 -2.90718 -3.57777 0
M  V30 1635 H 154.394 -6.30727 -2.98043 0
M  V30 1636 H 150.291 -5.29659 -3.68959 0
M  V30 1637 H 151.059 -7.3686 -3.56343 0
M  V30 1638 N 153.722 1.14298 -1.08507 0
M  V30 1639 C 154.947 1.8976 -0.837001 0
M  V30 1640 C 155.372 1.78097 0.605228 0
M  V30 1641 O 154.73 1.12188 1.4242 0
M  V30 1642 C 154.778 3.37685 -1.26495 0
M  V30 1643 O 153.882 4.10281 -0.417514 0
M  V30 1644 H 153.223 0.590365 -0.303917 0
M  V30 1645 H 155.753 1.44672 -1.44676 0
M  V30 1646 H 155.763 3.88501 -1.24625 0
M  V30 1647 H 154.438 3.45492 -2.31534 0
M  V30 1648 H 153.015 3.69536 -0.499722 0
M  V30 1649 N 155.201 0.870884 1.31352 0
M  V30 1650 C 156.431 0.496049 2.00557 0
M  V30 1651 C 156.839 -0.916241 1.65534 0
M  V30 1652 O 156.182 -1.61188 0.881134 0
M  V30 1653 C 156.244 0.574418 3.54881 0
M  V30 1654 C 155.908 1.94849 4.1338 0
M  V30 1655 C 156.905 2.91611 4.30417 0
M  V30 1656 C 154.59 2.25005 4.49086 0
M  V30 1657 C 156.584 4.16672 4.82352 0
M  V30 1658 C 154.271 3.50315 5.00722 0
M  V30 1659 C 155.269 4.45964 5.17306 0
M  V30 1660 O 154.957 5.69052 5.67833 0
M  V30 1661 H 154.689 0.191664 0.64826 0
M  V30 1662 H 157.243 1.17409 1.68536 0
M  V30 1663 H 155.473 -0.160549 3.86367 0
M  V30 1664 H 157.162 0.212879 4.05341 0
M  V30 1665 H 157.928 2.69622 4.03149 0
M  V30 1666 H 153.807 1.51332 4.35453 0
M  V30 1667 H 157.351 4.91336 4.95211 0
M  V30 1668 H 153.248 3.72147 5.27424 0
M  V30 1669 H 154.016 5.71236 5.86201 0
M  V30 1670 N 156.679 -1.44442 0.630414 0
M  V30 1671 C 158.095 -1.56832 0.295973 0
M  V30 1672 C 158.295 -1.61806 -1.20088 0
M  V30 1673 O 157.351 -1.5607 -1.9849 0
M  V30 1674 C 158.664 -2.84031 0.987264 0
M  V30 1675 C 160.212 -2.97742 0.96534 0
M  V30 1676 C 160.687 -4.27743 1.63708 0
M  V30 1677 N 162.178 -4.34555 1.60364 0
M  V30 1678 C 162.913 -5.33862 2.09234 0
M  V30 1679 N 162.409 -6.39578 2.66292 0
M  V30 1680 N 164.202 -5.25366 1.99867 0
M  V30 1681 H 156.353 -1.39457 1.60205 0
M  V30 1682 H 158.616 -0.668237 0.672431 0
M  V30 1683 H 158.322 -2.86338 2.04215 0
M  V30 1684 H 158.196 -3.73534 0.524588 0
M  V30 1685 H 160.583 -2.94989 -0.0810639 0
M  V30 1686 H 160.664 -2.09589 1.4665 0
M  V30 1687 H 160.308 -4.31255 2.68293 0
M  V30 1688 H 160.238 -5.14752 1.11076 0
M  V30 1689 H 162.729 -3.58772 1.18705 0
M  V30 1690 H 163.042 -7.11637 3.01317 0
M  V30 1691 H 161.387 -6.40265 2.70343 0
M  V30 1692 H 164.578 -4.41688 1.55013 0
M  V30 1693 H 164.751 -6.02606 2.38265 0
M  V30 1694 N 158.157 -0.370918 -1.53173 0
M  V30 1695 C 159.387 0.217389 -2.05453 0
M  V30 1696 C 159.795 1.42568 -1.24382 0
M  V30 1697 O 159.138 1.81571 -0.278839 0
M  V30 1698 C 159.2 0.669827 -3.53205 0
M  V30 1699 C 158.864 -0.4225 -4.55043 0
M  V30 1700 C 159.861 -1.27407 -5.04047 0
M  V30 1701 C 157.546 -0.58427 -4.9889 0
M  V30 1702 C 159.54 -2.27271 -5.95505 0
M  V30 1703 C 157.227 -1.58627 -5.90153 0
M  V30 1704 C 158.225 -2.42892 -6.38351 0
M  V30 1705 O 157.913 -3.41382 -7.27814 0
M  V30 1706 H 157.645 0.0408171 -0.674767 0
M  V30 1707 H 160.199 -0.5292 -1.98466 0
M  V30 1708 H 158.429 1.4681 -3.57748 0
M  V30 1709 H 160.118 1.18173 -3.88317 0
M  V30 1710 H 160.884 -1.16031 -4.70916 0
M  V30 1711 H 156.763 0.061851 -4.60959 0
M  V30 1712 H 160.307 -2.93079 -6.33049 0
M  V30 1713 H 156.204 -1.70048 -6.22699 0
M  V30 1714 H 156.972 -3.37173 -7.45826 0
M  V30 1715 N 159.635 1.57281 -0.100228 0
M  V30 1716 C 160.912 1.86014 0.604812 0
M  V30 1717 C 161.292 0.998025 1.86018 0
M  V30 1718 O 160.64 0.0718184 2.28387 0
M  V30 1719 C 160.85 3.36784 0.915278 0
M  V30 1720 C 162.198 4.04957 1.27651 0
M  V30 1721 O 163.222 3.41695 1.00613 0
M  V30 1722 O 162.081 5.16593 1.7831 0
M  V30 1723 H 159.175 0.76942 0.303185 0
M  V30 1724 H 161.721 1.69176 -0.133313 0
M  V30 1725 H 160.493 3.91292 0.0248896 0
M  V30 1726 H 160.116 3.58987 1.70921 0
M  V30 1727 N 161.113 -0.173488 1.56642 0
M  V30 1728 C 162.359 -0.887108 1.83035 0
M  V30 1729 C 162.714 -1.79965 0.680461 0
M  V30 1730 O 162.007 -1.88854 -0.323225 0
M  V30 1731 C 162.201 -1.72069 3.13252 0
M  V30 1732 C 162.03 -0.89035 4.40798 0
M  V30 1733 C 160.8 -0.566282 5.02117 0
M  V30 1734 C 162.998 -0.232921 5.13772 0
M  V30 1735 N 160.98 0.280427 6.13259 0
M  V30 1736 C 162.351 0.475046 6.18177 0
M  V30 1737 C 164.406 -0.150863 4.97671 0
M  V30 1738 C 163.109 1.25729 7.08227 0
M  V30 1739 C 165.135 0.618039 5.88162 0
M  V30 1740 C 164.497 1.31438 6.92029 0
M  V30 1741 H 160.596 -0.303303 0.720785 0
M  V30 1742 H 163.18 -0.154244 1.94088 0
M  V30 1743 H 161.351 -2.42499 3.03395 0
M  V30 1744 H 163.083 -2.37545 3.2765 0
M  V30 1745 H 159.838 -0.895852 4.6505 0
M  V30 1746 H 160.262 0.694027 6.73433 0
M  V30 1747 H 164.904 -0.674868 4.17379 0
M  V30 1748 H 162.622 1.79265 7.87966 0
M  V30 1749 H 166.208 0.683173 5.77775 0
M  V30 1750 H 165.088 1.89981 7.6084 0
M  V30 1751 N 162.591 -1.51276 -0.441967 0
M  V30 1752 C 163.521 -1.752 -1.54361 0
M  V30 1753 C 164.502 -0.601682 -1.59103 0
M  V30 1754 O 165.687 -0.843913 -1.74905 0
M  V30 1755 C 162.817 -1.87282 -2.92477 0
M  V30 1756 C 161.771 -3.02687 -3.02596 0
M  V30 1757 C 161.097 -2.99947 -4.42647 0
M  V30 1758 C 162.397 -4.4273 -2.77106 0
M  V30 1759 H 164.091 -2.67442 -1.34592 0
M  V30 1760 H 161.637 -1.28694 -0.646048 0
M  V30 1761 H 163.59 -2.02602 -3.695 0
M  V30 1762 H 162.314 -0.916844 -3.13467 0
M  V30 1763 H 160.973 -2.87065 -2.28012 0
M  V30 1764 H 160.621 -2.02136 -4.60597 0
M  V30 1765 H 160.321 -3.77439 -4.50348 0
M  V30 1766 H 161.845 -3.17354 -5.2165 0
M  V30 1767 H 163.259 -4.58727 -3.43864 0
M  V30 1768 H 161.656 -5.21893 -2.96222 0
M  V30 1769 H 162.726 -4.53087 -1.72744 0
M  V30 1770 N 164.069 0.697108 -1.41344 0
M  V30 1771 C 165.316 1.45714 -1.40619 0
M  V30 1772 C 165.644 1.94494 -0.0147907 0
M  V30 1773 O 164.899 1.69794 0.973066 0
M  V30 1774 C 165.198 2.68553 -2.35826 0
M  V30 1775 C 164.864 2.38438 -3.82698 0
M  V30 1776 C 163.526 2.29936 -4.22709 0
M  V30 1777 C 165.878 2.13567 -4.75435 0
M  V30 1778 C 163.206 1.94656 -5.53467 0
M  V30 1779 C 165.558 1.79797 -6.06511 0
M  V30 1780 C 164.222 1.69789 -6.45545 0
M  V30 1781 H 163.492 0.533206 -0.51456 0
M  V30 1782 H 166.139 0.796901 -1.74131 0
M  V30 1783 H 164.444 3.39503 -1.95563 0
M  V30 1784 H 166.141 3.2669 -2.32539 0
M  V30 1785 H 162.731 2.4595 -3.51008 0
M  V30 1786 H 166.915 2.19082 -4.45328 0
M  V30 1787 H 162.171 1.8546 -5.82593 0
M  V30 1788 H 166.345 1.59572 -6.77872 0
M  V30 1789 H 163.972 1.4222 -7.46778 0
M  V30 1790 N 165.547 1.27147 0.931209 0
M  V30 1791 C 166.795 1.13055 1.6752 0
M  V30 1792 C 167.116 -0.324791 1.92276 0
M  V30 1793 O 166.386 -1.22775 1.52654 0
M  V30 1794 H 164.966 0.415391 0.620854 0
M  V30 1795 H 167.628 1.59623 1.11833 0
M  V30 1796 H 166.724 1.65694 2.64485 0
M  V30 1797 N 167.025 -1.13721 1.09112 0
M  V30 1798 C 168.436 -1.6648 0.845068 0
M  V30 1799 C 168.787 -1.85911 -0.62701 0
M  V30 1800 O 167.912 -1.57556 -1.48341 0
M  V30 1801 C 168.507 -3.02413 1.52748 0
M  V30 1802 C 167.066 -3.52176 1.32849 0
M  V30 1803 C 166.213 -2.27492 1.58564 0
M  V30 1804 H 169.164 -0.976872 1.25072 0
M  V30 1805 H 169.185 -3.68223 0.958752 0
M  V30 1806 H 168.697 -2.88238 2.59885 0
M  V30 1807 H 166.798 -3.7156 0.278137 0
M  V30 1808 H 166.911 -4.32499 2.0611 0
M  V30 1809 H 165.275 -2.33923 1.00758 0
M  V30 1810 H 166.058 -2.15886 2.66924 0
M  V30 1811 N 168.503 -0.877838 -1.30888 0
M  V30 1812 C 169.749 -0.493426 -1.96706 0
M  V30 1813 C 170.082 0.953504 -1.6918 0
M  V30 1814 O 169.357 1.67266 -0.992594 0
M  V30 1815 C 169.64 -0.760429 -3.51979 0
M  V30 1816 C 169.493 -2.25747 -3.89048 0
M  V30 1817 C 170.812 -0.232148 -4.39487 0
M  V30 1818 H 167.931 -0.180746 -0.714493 0
M  V30 1819 H 170.573 -1.10052 -1.54882 0
M  V30 1820 H 168.723 -0.243715 -3.87735 0
M  V30 1821 H 170.395 -2.84204 -3.63354 0
M  V30 1822 H 168.638 -2.72694 -3.37373 0
M  V30 1823 H 169.309 -2.39491 -4.97341 0
M  V30 1824 H 171.785 -0.674314 -4.106 0
M  V30 1825 H 170.661 -0.448355 -5.47066 0
M  V30 1826 H 170.922 0.866297 -4.33529 0
M  V30 1827 N 169.982 1.44106 -0.638065 0
M  V30 1828 C 170.915 2.27924 0.112161 0
M  V30 1829 C 171.893 1.38945 0.844574 0
M  V30 1830 O 173.077 1.68386 0.847248 0
M  V30 1831 C 170.204 3.18029 1.16512 0
M  V30 1832 C 169.25 4.23163 0.532458 0
M  V30 1833 S 170.083 5.31131 -0.682666 0
M  V30 1834 C 171.239 6.24805 0.37013 0
M  V30 1835 H 171.472 2.91205 -0.598887 0
M  V30 1836 H 169.005 1.48394 -0.426441 0
M  V30 1837 H 170.963 3.70492 1.76766 0
M  V30 1838 H 169.624 2.53955 1.8484 0
M  V30 1839 H 168.817 4.86252 1.32571 0
M  V30 1840 H 168.419 3.74 0.00437644 0
M  V30 1841 H 170.711 6.66042 1.24071 0
M  V30 1842 H 171.654 7.07741 -0.225349 0
M  V30 1843 H 172.062 5.60154 0.699141 0
M  V30 1844 N 171.46 0.379036 1.52974 0
M  V30 1845 C 172.7 -0.206325 2.03356 0
M  V30 1846 C 173.064 -1.44892 1.25977 0
M  V30 1847 O 174.265 -2.11078 1.66432 0
M  V30 1848 C 172.536 -0.477887 3.54191 0
M  V30 1849 S 174.095 -1.035 4.26419 0
M  V30 1850 H 170.913 -0.0590259 0.708546 0
M  V30 1851 H 173.515 0.525013 1.88319 0
M  V30 1852 H 172.219 0.433745 4.08101 0
M  V30 1853 H 171.75 -1.23793 3.73415 0
M  V30 1854 H 173.765 -2.31821 4.38718 0
M  V30 1855 N 172.938 -1.57226 0.108567 0
M  V30 1856 C 173.885 -2.14756 -0.845481 0
M  V30 1857 C 174.855 -1.06971 -1.27068 0
M  V30 1858 O 176.04 -1.34827 -1.35005 0
M  V30 1859 C 173.18 -2.74298 -2.09415 0
M  V30 1860 C 172.293 -3.96358 -1.71826 0
M  V30 1861 C 171.428 -4.44021 -2.9158 0
M  V30 1862 C 170.467 -5.58637 -2.50181 0
M  V30 1863 N 169.604 -6.01091 -3.62814 0
M  V30 1864 H 174.444 -2.95961 -0.348035 0
M  V30 1865 H 171.981 -1.46226 -0.160106 0
M  V30 1866 H 173.939 -3.06945 -2.82561 0
M  V30 1867 H 172.569 -1.95801 -2.56636 0
M  V30 1868 H 171.621 -3.69939 -0.885947 0
M  V30 1869 H 172.933 -4.79504 -1.37394 0
M  V30 1870 H 172.087 -4.78522 -3.72963 0
M  V30 1871 H 170.826 -3.59803 -3.29231 0
M  V30 1872 H 169.831 -5.23751 -1.67228 0
M  V30 1873 H 171.056 -6.44613 -2.13659 0
M  V30 1874 H 169.002 -5.19817 -4.00158 0
M  V30 1875 H 168.919 -6.79066 -3.32273 0
M  V30 1876 H 170.187 -6.40227 -4.44668 0
M  V30 1877 N 174.416 0.165178 -1.56732 0
M  V30 1878 C 175.662 0.882112 -1.82611 0
M  V30 1879 C 175.995 1.81628 -0.687378 0
M  V30 1880 O 175.27 1.92009 0.310267 0
M  V30 1881 C 175.553 1.67245 -3.18906 0
M  V30 1882 C 175.406 0.760987 -4.43316 0
M  V30 1883 C 176.725 2.63884 -3.52212 0
M  V30 1884 H 173.844 0.319242 -0.664269 0
M  V30 1885 H 176.486 0.148052 -1.89422 0
M  V30 1886 H 174.636 2.29824 -3.1323 0
M  V30 1887 H 176.308 0.147596 -4.61064 0
M  V30 1888 H 174.551 0.0694102 -4.33744 0
M  V30 1889 H 175.222 1.34962 -5.35247 0
M  V30 1890 H 177.698 2.11429 -3.58381 0
M  V30 1891 H 176.574 3.16245 -4.48643 0
M  V30 1892 H 176.835 3.44377 -2.77231 0
M  V30 1893 N 175.894 1.51508 0.433938 0
M  V30 1894 C 177.141 1.64345 1.18309 0
M  V30 1895 C 177.469 0.361315 1.91115 0
M  V30 1896 O 176.724 -0.654753 1.84422 0
M  V30 1897 C 177.023 2.79928 2.22205 0
M  V30 1898 C 176.689 4.19078 1.66387 0
M  V30 1899 C 175.351 4.56932 1.50887 0
M  V30 1900 C 177.703 5.05894 1.25381 0
M  V30 1901 C 175.031 5.79305 0.928608 0
M  V30 1902 C 177.383 6.2885 0.687823 0
M  V30 1903 C 176.047 6.65473 0.519755 0
M  V30 1904 H 175.317 0.601381 0.432923 0
M  V30 1905 H 177.964 1.85549 0.473676 0
M  V30 1906 H 176.269 2.52959 2.99197 0
M  V30 1907 H 177.966 2.87059 2.79997 0
M  V30 1908 H 174.556 3.89234 1.79428 0
M  V30 1909 H 178.74 4.77253 1.36175 0
M  V30 1910 H 173.996 6.06324 0.786186 0
M  V30 1911 H 178.17 6.95461 0.361581 0
M  V30 1912 H 175.797 7.6017 0.0679979 0
M  V30 1913 N 177.372 -0.689602 1.41712 0
M  V30 1914 C 178.62 -1.4468 1.4111 0
M  V30 1915 C 178.941 -1.94986 0.0232196 0
M  V30 1916 O 178.211 -1.72097 -0.935913 0
M  V30 1917 H 176.791 -0.536847 0.519427 0
M  V30 1918 H 179.453 -0.815825 1.77004 0
M  V30 1919 H 178.549 -2.30706 2.10193 0
M  V30 1920 N 178.85 -1.27639 -0.924453 0
M  V30 1921 C 180.075 -1.17101 -1.71179 0
M  V30 1922 C 180.5 0.268134 -1.86179 0
M  V30 1923 O 179.858 1.19415 -1.36418 0
M  V30 1924 C 179.906 -1.86313 -3.08739 0
M  V30 1925 O 179.01 -1.16331 -3.95652 0
M  V30 1926 H 178.351 -0.407091 -0.524569 0
M  V30 1927 H 180.881 -1.68767 -1.15666 0
M  V30 1928 H 180.891 -1.938 -3.59034 0
M  V30 1929 H 179.566 -2.91001 -2.97138 0
M  V30 1930 H 178.143 -1.16935 -3.54091 0
M  V30 1931 N 180.328 1.1314 -1.09713 0
M  V30 1932 C 181.575 1.84484 -0.834987 0
M  V30 1933 C 181.903 1.83689 0.639418 0
M  V30 1934 O 181.158 1.2724 1.4869 0
M  V30 1935 C 181.457 3.32167 -1.3191 0
M  V30 1936 C 181.123 3.53139 -2.80363 0
M  V30 1937 C 179.785 3.58571 -3.20905 0
M  V30 1938 C 182.137 3.60866 -3.76065 0
M  V30 1939 C 179.465 3.69267 -4.55916 0
M  V30 1940 C 181.817 3.73089 -5.10869 0
M  V30 1941 C 180.481 3.76775 -5.50996 0
M  V30 1942 H 179.751 0.675073 -0.305544 0
M  V30 1943 H 182.398 1.33554 -1.37243 0
M  V30 1944 H 180.703 3.85469 -0.701517 0
M  V30 1945 H 182.4 3.85821 -1.09284 0
M  V30 1946 H 178.99 3.49569 -2.47991 0
M  V30 1947 H 183.174 3.55946 -3.45855 0
M  V30 1948 H 178.43 3.70388 -4.86438 0
M  V30 1949 H 182.604 3.78011 -5.84877 0
M  V30 1950 H 180.231 3.84815 -6.55608 0
M  V30 1951 N 181.806 0.884767 1.30421 0
M  V30 1952 C 182.736 0.367574 2.30589 0
M  V30 1953 C 183.717 -0.549464 1.60981 0
M  V30 1954 O 184.902 -0.46336 1.88591 0
M  V30 1955 C 182.032 -0.418944 3.44764 0
M  V30 1956 C 180.986 0.406316 4.26067 0
M  V30 1957 C 180.312 -0.506793 5.32293 0
M  V30 1958 C 181.612 1.64832 4.95608 0
M  V30 1959 H 183.306 1.20462 2.74097 0
M  V30 1960 H 180.852 0.580695 1.31772 0
M  V30 1961 H 182.805 -0.791395 4.13902 0
M  V30 1962 H 181.529 -1.28964 3.0006 0
M  V30 1963 H 180.188 0.760903 3.58617 0
M  V30 1964 H 179.836 -1.37519 4.83836 0
M  V30 1965 H 179.536 0.0415828 5.87585 0
M  V30 1966 H 181.06 -0.875764 6.04287 0
M  V30 1967 H 182.474 1.34646 5.57264 0
M  V30 1968 H 180.871 2.13688 5.60765 0
M  V30 1969 H 181.941 2.39284 4.21748 0
M  V30 1970 N 183.284 -1.43765 0.645699 0
M  V30 1971 C 184.512 -2.06253 0.163556 0
M  V30 1972 C 184.927 -1.48352 -1.16778 0
M  V30 1973 O 184.284 -0.611932 -1.71935 0
M  V30 1974 C 184.335 -3.61453 0.0583186 0
M  V30 1975 O 184.056 -4.172 1.33702 0
M  V30 1976 C 185.557 -4.41002 -0.450795 0
M  V30 1977 H 182.777 -0.665413 0.0864077 0
M  V30 1978 H 185.321 -1.84396 0.884222 0
M  V30 1979 H 183.476 -3.82522 -0.612865 0
M  V30 1980 H 183.89 -5.10791 1.19131 0
M  V30 1981 H 185.364 -5.49966 -0.473403 0
M  V30 1982 H 185.841 -4.13488 -1.48068 0
M  V30 1983 H 186.447 -4.24886 0.187637 0
M  V30 1984 N 184.763 -0.387143 -1.52771 0
M  V30 1985 C 185.693 0.440551 -2.29306 0
M  V30 1986 C 186.674 1.06535 -1.32606 0
M  V30 1987 O 187.859 1.07853 -1.61497 0
M  V30 1988 C 184.989 1.56919 -3.09829 0
M  V30 1989 C 183.943 1.07054 -4.14395 0
M  V30 1990 C 183.269 2.29109 -4.83129 0
M  V30 1991 C 184.569 0.140015 -5.22112 0
M  V30 1992 H 186.263 -0.198026 -2.98744 0
M  V30 1993 H 183.809 -0.09668 -1.43675 0
M  V30 1994 H 185.762 2.15503 -3.62128 0
M  V30 1995 H 184.486 2.23532 -2.3812 0
M  V30 1996 H 183.145 0.507247 -3.63074 0
M  V30 1997 H 182.793 2.94227 -4.0797 0
M  V30 1998 H 182.493 1.96406 -5.53804 0
M  V30 1999 H 184.017 2.88339 -5.38231 0
M  V30 2000 H 185.431 0.633978 -5.69784 0
M  V30 2001 H 183.828 -0.0971485 -6.00021 0
M  V30 2002 H 184.898 -0.811711 -4.78058 0
M  V30 2003 N 186.241 1.57166 -0.116904 0
M  V30 2004 C 187.189 2.16457 0.851418 0
M  V30 2005 C 188.183 1.11323 1.27686 0
M  V30 2006 O 189.389 1.2963 1.24884 0
M  V30 2007 H 185.764 0.69271 0.292672 0
M  V30 2008 H 187.735 2.96605 0.32685 0
M  V30 2009 C 186.484 2.77689 2.09246 0
M  V30 2010 H 185.807 3.58285 1.77402 0
M  V30 2011 H 187.247 3.22716 2.7501 0
M  V30 2012 C 185.706 1.74667 2.88085 0
M  V30 2013 O 186.236 1.19877 3.83396 0
M  V30 2014 N 184.442 1.44656 2.52038 0
M  V30 2015 H 183.989 1.89402 1.74599 0
M  V30 2016 H 183.947 0.759675 3.05084 0
M  V30 2017 N 187.719 -0.156864 1.56817 0
M  V30 2018 C 188.652 -1.22316 1.9265 0
M  V30 2019 C 189.63 -1.42059 0.791076 0
M  V30 2020 O 190.814 -1.56831 1.04576 0
M  V30 2021 C 187.941 -2.58375 2.18998 0
M  V30 2022 C 186.987 -2.55284 3.41661 0
M  V30 2023 S 187.82 -2.02946 4.95553 0
M  V30 2024 C 188.976 -3.40753 5.25013 0
M  V30 2025 H 189.209 -0.917403 2.82791 0
M  V30 2026 H 186.742 -0.362059 1.50095 0
M  V30 2027 H 188.7 -3.36677 2.34859 0
M  V30 2028 H 187.361 -2.86145 1.29538 0
M  V30 2029 H 186.554 -3.55418 3.57343 0
M  V30 2030 H 186.156 -1.85086 3.24991 0
M  V30 2031 H 188.448 -4.36819 5.17876 0
M  V30 2032 H 189.391 -3.29933 6.26538 0
M  V30 2033 H 189.799 -3.37433 4.52548 0
M  V30 2034 N 189.197 -1.51736 -0.425897 0
M  V30 2035 C 190.444 -1.6497 -1.17436 0
M  V30 2036 C 190.772 -0.371445 -1.9092 0
M  V30 2037 O 190.027 0.644963 -1.84767 0
M  V30 2038 C 190.326 -2.81103 -2.20717 0
M  V30 2039 C 189.992 -4.19954 -1.64162 0
M  V30 2040 C 188.654 -4.57725 -1.48462 0
M  V30 2041 C 191.006 -5.06552 -1.22696 0
M  V30 2042 C 188.334 -5.79789 -0.897873 0
M  V30 2043 C 190.686 -6.29205 -0.654464 0
M  V30 2044 C 189.35 -6.6574 -0.484456 0
M  V30 2045 H 188.62 -0.603668 -0.429727 0
M  V30 2046 H 191.267 -1.85798 -0.463829 0
M  V30 2047 H 189.572 -2.54542 -2.97852 0
M  V30 2048 H 191.269 -2.8854 -2.78471 0
M  V30 2049 H 187.859 -3.90181 -1.77361 0
M  V30 2050 H 192.043 -4.77968 -1.33642 0
M  V30 2051 H 187.299 -6.06733 -0.75402 0
M  V30 2052 H 191.473 -6.95643 -0.324694 0
M  V30 2053 H 189.1 -7.60195 -0.0276833 0
M  V30 2054 N 190.675 0.682077 -1.42076 0
M  V30 2055 C 191.638 1.77756 -1.44691 0
M  V30 2056 C 192.638 1.5726 -0.335535 0
M  V30 2057 O 193.828 1.63686 -0.596037 0
M  V30 2058 C 190.96 3.16301 -1.27146 0
M  V30 2059 H 192.153 1.76826 -2.42224 0
M  V30 2060 H 189.706 0.891012 -1.28416 0
M  V30 2061 H 190.441 3.22862 -0.305075 0
M  V30 2062 H 190.226 3.32581 -2.07683 0
M  V30 2063 H 191.716 3.96241 -1.31843 0
M  V30 2064 N 192.153 1.28127 0.917671 0
M  V30 2065 C 193.378 1.18007 1.70555 0
M  V30 2066 C 193.803 -0.258257 1.86319 0
M  V30 2067 O 193.161 -1.1869 1.37049 0
M  V30 2068 C 193.209 1.87948 3.07746 0
M  V30 2069 O 192.313 1.18427 3.9503 0
M  V30 2070 H 191.654 0.409867 0.522403 0
M  V30 2071 H 194.184 1.69379 1.1477 0
M  V30 2072 H 194.194 1.95701 3.58001 0
M  V30 2073 H 192.869 2.92573 2.95591 0
M  V30 2074 H 191.446 1.18811 3.53466 0
M  V30 2075 N 193.631 -1.12557 1.10312 0
M  V30 2076 C 194.88 -1.83395 0.839588 0
M  V30 2077 C 195.193 -1.84939 -0.636929 0
M  V30 2078 O 196.399 -2.51761 -1.01631 0
M  V30 2079 C 194.855 -3.29303 1.45215 0
M  V30 2080 C 194.463 -3.36122 2.96186 0
M  V30 2081 C 196.207 -4.05121 1.26796 0
M  V30 2082 C 194.114 -4.76357 3.50483 0
M  V30 2083 H 193.044 -0.687133 0.310425 0
M  V30 2084 H 195.695 -1.26746 1.32694 0
M  V30 2085 H 194.077 -3.85812 0.892469 0
M  V30 2086 H 195.251 -2.89559 3.58458 0
M  V30 2087 H 193.566 -2.73776 3.13745 0
M  V30 2088 H 196.163 -5.08668 1.64806 0
M  V30 2089 H 196.506 -4.15773 0.209409 0
M  V30 2090 H 197.039 -3.54967 1.79563 0
M  V30 2091 H 193.778 -4.70899 4.55998 0
M  V30 2092 H 193.298 -5.23377 2.92978 0
M  V30 2093 H 194.977 -5.45294 3.48228 0
M  V30 2094 N 195.109 -0.891671 -1.2995 0
M  V30 2095 C 196.356 -0.513501 -1.95881 0
M  V30 2096 C 196.684 0.938655 -1.70351 0
M  V30 2097 O 195.939 1.67936 -1.00478 0
M  V30 2098 C 196.238 -0.742868 -3.49594 0
M  V30 2099 C 195.904 -2.17114 -3.95186 0
M  V30 2100 C 194.566 -2.56169 -4.07346 0
M  V30 2101 C 196.918 -3.10162 -4.18866 0
M  V30 2102 C 194.246 -3.87469 -4.4055 0
M  V30 2103 C 196.598 -4.41001 -4.53542 0
M  V30 2104 C 195.262 -4.79941 -4.63911 0
M  V30 2105 H 194.532 -0.187903 -0.71678 0
M  V30 2106 H 197.179 -1.1288 -1.54694 0
M  V30 2107 H 195.484 -0.044586 -3.91775 0
M  V30 2108 H 197.181 -0.429767 -3.9869 0
M  V30 2109 H 193.771 -1.85801 -3.86233 0
M  V30 2110 H 197.955 -2.81206 -4.08946 0
M  V30 2111 H 193.211 -4.17371 -4.46779 0
M  V30 2112 H 197.385 -5.13133 -4.70815 0
M  V30 2113 H 195.012 -5.81719 -4.89395 0
M  V30 2114 N 196.587 1.43421 -0.653314 0
M  V30 2115 C 197.834 2.01812 -0.166745 0
M  V30 2116 C 198.162 1.51535 1.21931 0
M  V30 2117 O 197.417 0.698975 1.82792 0
M  V30 2118 C 197.716 3.57176 -0.126623 0
M  V30 2119 C 197.382 4.26798 -1.45444 0
M  V30 2120 C 196.044 4.45534 -1.81805 0
M  V30 2121 C 198.396 4.66225 -2.32989 0
M  V30 2122 C 195.724 5.00961 -3.05377 0
M  V30 2123 C 198.076 5.23021 -3.55853 0
M  V30 2124 C 196.74 5.39973 -3.9241 0
M  V30 2125 H 196.01 0.738484 -0.0610162 0
M  V30 2126 H 198.657 1.71896 -0.84404 0
M  V30 2127 H 196.962 3.86634 0.634123 0
M  V30 2128 H 198.659 4.00112 0.266723 0
M  V30 2129 H 195.249 4.12561 -1.16153 0
M  V30 2130 H 199.433 4.51443 -2.06187 0
M  V30 2131 H 194.689 5.12271 -3.3375 0
M  V30 2132 H 198.863 5.52518 -4.23907 0
M  V30 2133 H 196.49 5.82687 -4.88242 0
M  V30 2134 N 198.065 0.39524 1.52563 0
M  V30 2135 C 199.314 -0.186321 2.00838 0
M  V30 2136 C 199.627 -1.47402 1.28577 0
M  V30 2137 O 200.833 -2.13599 1.67593 0
M  V30 2138 C 199.289 -0.382595 3.57861 0
M  V30 2139 C 198.897 0.892202 4.39026 0
M  V30 2140 C 200.641 -0.9202 4.14406 0
M  V30 2141 C 198.548 0.66388 5.87662 0
M  V30 2142 H 197.478 -0.0734041 0.750418 0
M  V30 2143 H 200.129 0.518552 1.76021 0
M  V30 2144 H 198.511 -1.14946 3.7895 0
M  V30 2145 H 199.685 1.66414 4.29701 0
M  V30 2146 H 198 1.35519 3.9373 0
M  V30 2147 H 200.597 -1.10683 5.23119 0
M  V30 2148 H 200.94 -1.89096 3.70875 0
M  V30 2149 H 201.473 -0.212751 3.97231 0
M  V30 2150 H 198.212 1.6058 6.35527 0
M  V30 2151 H 197.732 -0.0690193 5.9976 0
M  V30 2152 H 199.411 0.300699 6.46301 0
M  V30 2153 N 199.544 -1.57102 0.125237 0
M  V30 2154 C 200.772 -1.99761 -0.538797 0
M  V30 2155 C 201.187 -1.00503 -1.59827 0
M  V30 2156 O 200.544 0.00119474 -1.825 0
M  V30 2157 C 200.595 -3.42408 -1.15927 0
M  V30 2158 O 200.316 -4.37869 -0.142143 0
M  V30 2159 C 201.817 -4.00232 -1.90602 0
M  V30 2160 H 199.037 -0.655772 -0.14214 0
M  V30 2161 H 201.581 -2.03383 0.213413 0
M  V30 2162 H 199.736 -3.39706 -1.86223 0
M  V30 2163 H 200.15 -5.21128 -0.593775 0
M  V30 2164 H 201.624 -5.02105 -2.29335 0
M  V30 2165 H 202.101 -3.39721 -2.78363 0
M  V30 2166 H 202.707 -4.06499 -1.25055 0
M  V30 2167 N 201.022 0.148545 -1.56898 0
M  V30 2168 C 202.262 0.86765 -1.85071 0
M  V30 2169 C 202.626 1.78417 -0.709317 0
M  V30 2170 O 203.827 2.54261 -0.872049 0
M  V30 2171 C 202.098 1.62306 -3.1842 0
M  V30 2172 S 203.657 2.3878 -3.68143 0
M  V30 2173 H 200.475 0.290174 -0.649092 0
M  V30 2174 H 203.077 0.127755 -1.95082 0
M  V30 2175 H 201.781 0.941192 -3.99462 0
M  V30 2176 H 201.312 2.4039 -3.1141 0
M  V30 2177 H 203.327 3.63942 -3.37285 0
M  V30 2178 N 202.5 1.5196 0.417844 0
M  V30 2179 C 203.433 1.69387 1.52916 0
M  V30 2180 C 204.411 0.541419 1.53321 0
M  V30 2181 O 205.595 0.767695 1.72159 0
M  V30 2182 C 202.722 1.72525 2.91467 0
M  V30 2183 C 201.768 2.93967 3.09008 0
M  V30 2184 S 202.601 4.54461 2.83242 0
M  V30 2185 C 203.757 4.60372 4.24038 0
M  V30 2186 H 203.99 2.63382 1.37903 0
M  V30 2187 H 201.523 1.41889 0.608845 0
M  V30 2188 H 203.481 1.75018 3.7132 0
M  V30 2189 H 202.142 0.796733 3.03827 0
M  V30 2190 H 201.335 2.92619 4.10353 0
M  V30 2191 H 200.937 2.89316 2.37007 0
M  V30 2192 H 203.229 4.37213 5.17544 0
M  V30 2193 H 204.172 5.62273 4.30412 0
M  V30 2194 H 204.58 3.89492 4.08602 0
M  V30 2195 N 203.978 -0.674533 1.42435 0
M  V30 2196 C 205.203 -1.46784 1.46524 0
M  V30 2197 C 205.628 -1.87938 0.078066 0
M  V30 2198 O 204.986 -1.56014 -0.92354 0
M  V30 2199 C 205.034 -2.69307 2.39805 0
M  V30 2200 O 204.138 -3.67587 1.86959 0
M  V30 2201 H 203.479 -0.440959 0.496439 0
M  V30 2202 H 206.009 -0.827326 1.87127 0
M  V30 2203 H 206.019 -3.17374 2.56393 0
M  V30 2204 H 204.694 -2.38692 3.40586 0
M  V30 2205 H 203.271 -3.2662 1.79927 0
M  V30 2206 N 205.456 -1.28612 -0.910864 0
M  V30 2207 C 206.702 -1.16106 -1.66274 0
M  V30 2208 C 207.035 0.289113 -1.92036 0
M  V30 2209 O 206.31 1.21 -1.52281 0
M  V30 2210 C 206.593 -1.96309 -3.01885 0
M  V30 2211 C 206.446 -3.49405 -2.8326 0
M  V30 2212 C 207.765 -1.78076 -4.02463 0
M  V30 2213 H 204.884 -0.423152 -0.603417 0
M  V30 2214 H 207.526 -1.57961 -1.05586 0
M  V30 2215 H 205.676 -1.60742 -3.53687 0
M  V30 2216 H 207.348 -3.94894 -2.38446 0
M  V30 2217 H 205.591 -3.74893 -2.18261 0
M  V30 2218 H 206.262 -4.00784 -3.79574 0
M  V30 2219 H 208.738 -2.0912 -3.59733 0
M  V30 2220 H 207.614 -2.36561 -4.95308 0
M  V30 2221 H 207.875 -0.733008 -4.35981 0
M  V30 2222 N 206.934 1.1197 -1.10907 0
M  V30 2223 C 208.211 1.79959 -0.766432 0
M  V30 2224 C 208.591 1.97466 0.746363 0
M  V30 2225 O 207.939 1.55491 1.67436 0
M  V30 2226 C 208.149 3.14009 -1.52314 0
M  V30 2227 C 209.497 3.89134 -1.69883 0
M  V30 2228 O 210.521 3.2368 -1.48692 0
M  V30 2229 O 209.38 5.06572 -2.05054 0
M  V30 2230 H 206.474 0.779208 -0.277062 0
M  V30 2231 H 209.02 1.18762 -1.21217 0
M  V30 2232 H 207.792 2.96587 -2.55249 0
M  V30 2233 H 207.415 3.82915 -1.07059 0
M  V30 2234 N 208.412 0.89855 1.29475 0
M  V30 2235 C 209.828 0.594483 1.48115 0
M  V30 2236 C 210.028 -0.86431 1.82022 0
M  V30 2237 O 209.084 -1.64457 1.91599 0
M  V30 2238 C 210.397 1.51932 2.59494 0
M  V30 2239 C 211.945 1.5244 2.7337 0
M  V30 2240 C 212.42 2.43548 3.87877 0
M  V30 2241 N 213.911 2.41589 3.95208 0
M  V30 2242 C 214.646 3.08789 4.83153 0
M  V30 2243 N 214.142 3.85265 5.75798 0
M  V30 2244 N 215.935 2.97952 4.76635 0
M  V30 2245 H 208.086 1.84207 1.05742 0
M  V30 2246 H 210.349 0.789251 0.525154 0
M  V30 2247 H 210.055 2.55865 2.41301 0
M  V30 2248 H 209.929 1.23899 3.56271 0
M  V30 2249 H 212.316 0.492518 2.90961 0
M  V30 2250 H 212.397 1.8451 1.77172 0
M  V30 2251 H 212.041 3.46829 3.71041 0
M  V30 2252 H 211.971 2.08788 4.83441 0
M  V30 2253 H 214.462 1.86025 3.28943 0
M  V30 2254 H 214.775 4.33598 6.39697 0
M  V30 2255 H 213.12 3.89371 5.75687 0
M  V30 2256 H 216.311 2.37723 4.03244 0
M  V30 2257 H 216.484 3.50599 5.44962 0
M  V30 2258 N 209.89 -1.43072 0.660911 0
M  V30 2259 C 211.12 -2.05769 0.185153 0
M  V30 2260 C 211.528 -1.49668 -1.15742 0
M  V30 2261 O 210.871 -0.625649 -1.72717 0
M  V30 2262 C 210.933 -3.59489 0.0278237 0
M  V30 2263 C 210.597 -4.38212 1.2969 0
M  V30 2264 C 211.594 -4.69772 2.22734 0
M  V30 2265 C 209.279 -4.7809 1.54063 0
M  V30 2266 C 211.273 -5.40129 3.38437 0
M  V30 2267 C 208.96 -5.4819 2.70058 0
M  V30 2268 C 209.958 -5.79132 3.62071 0
M  V30 2269 O 209.646 -6.47798 4.76039 0
M  V30 2270 H 209.378 -0.669873 0.0908086 0
M  V30 2271 H 211.932 -1.84436 0.90402 0
M  V30 2272 H 210.162 -3.79426 -0.746489 0
M  V30 2273 H 211.851 -4.03862 -0.406275 0
M  V30 2274 H 212.617 -4.39476 2.05149 0
M  V30 2275 H 208.496 -4.53408 0.833215 0
M  V30 2276 H 212.04 -5.64198 4.10277 0
M  V30 2277 H 207.937 -5.77902 2.87574 0
M  V30 2278 H 208.705 -6.66283 4.75404 0
M  V30 2279 N 211.368 -0.403325 -1.52352 0
M  V30 2280 C 212.3 0.4603 -2.2453 0
M  V30 2281 C 213.313 1.01505 -1.27282 0
M  V30 2282 O 214.502 0.914982 -1.53266 0
M  V30 2283 C 211.602 1.65208 -2.95905 0
M  V30 2284 C 210.775 1.22224 -4.19976 0
M  V30 2285 C 209.834 2.28028 -4.74226 0
M  V30 2286 O 208.86 1.88857 -5.36956 0
M  V30 2287 N 210.062 3.6012 -4.55295 0
M  V30 2288 H 212.827 -0.158156 -2.99282 0
M  V30 2289 H 210.388 -0.230402 -1.60252 0
M  V30 2290 H 212.38 2.35541 -3.29093 0
M  V30 2291 H 210.95 2.17658 -2.24374 0
M  V30 2292 H 210.17 0.34725 -3.92668 0
M  V30 2293 H 211.458 0.911924 -5.00561 0
M  V30 2294 H 210.856 3.94698 -4.05253 0
M  V30 2295 H 209.413 4.26447 -4.92936 0
M  V30 2296 N 212.846 1.57033 -0.133567 0
M  V30 2297 C 214.071 2.00475 0.531477 0
M  V30 2298 C 214.496 1.01291 1.58499 0
M  V30 2299 O 213.854 -0.0133279 1.81295 0
M  V30 2300 C 213.902 3.42729 1.12113 0
M  V30 2301 O 213.006 3.46498 2.23636 0
M  V30 2302 H 212.347 0.650876 0.131362 0
M  V30 2303 H 214.877 2.03344 -0.22634 0
M  V30 2304 H 214.887 3.81246 1.4531 0
M  V30 2305 H 213.562 4.14428 0.349557 0
M  V30 2306 H 212.139 3.19811 1.91769 0
M  V30 2307 N 214.325 -0.140222 1.56975 0
M  V30 2308 C 215.571 -0.852949 1.83991 0
M  V30 2309 C 215.904 -1.80512 0.716187 0
M  V30 2310 O 215.179 -1.92479 -0.279681 0
M  V30 2311 C 215.462 -1.6215 3.21527 0
M  V30 2312 C 215.315 -0.690363 4.4447 0
M  V30 2313 C 216.634 -2.58247 3.56366 0
M  V30 2314 H 213.753 -0.308634 0.669264 0
M  V30 2315 H 216.395 -0.117898 1.89634 0
M  V30 2316 H 214.545 -2.24812 3.16847 0
M  V30 2317 H 216.217 -0.0742264 4.6124 0
M  V30 2318 H 214.46 -0.000396433 4.338 0
M  V30 2319 H 215.131 -1.2643 5.37326 0
M  V30 2320 H 217.607 -2.05701 3.61699 0
M  V30 2321 H 216.483 -3.09067 4.53617 0
M  V30 2322 H 216.744 -3.39923 2.82674 0
M  V30 2323 N 215.803 -1.52179 -0.40978 0
M  V30 2324 C 217.052 -1.65434 -1.15388 0
M  V30 2325 C 217.365 -0.390056 -1.91671 0
M  V30 2326 O 218.571 -0.402399 -2.68501 0
M  V30 2327 C 217.027 -2.92279 -2.10003 0
M  V30 2328 C 216.635 -4.25813 -1.39239 0
M  V30 2329 C 218.379 -3.14897 -2.84675 0
M  V30 2330 C 216.286 -5.43782 -2.32498 0
M  V30 2331 H 215.216 -0.616267 -0.434432 0
M  V30 2332 H 217.867 -1.78666 -0.418401 0
M  V30 2333 H 216.249 -2.72744 -2.871 0
M  V30 2334 H 217.423 -4.55828 -0.675099 0
M  V30 2335 H 215.738 -4.09292 -0.766097 0
M  V30 2336 H 218.335 -4.0021 -3.54593 0
M  V30 2337 H 218.678 -2.29103 -3.47588 0
M  V30 2338 H 219.211 -3.34901 -2.14677 0
M  V30 2339 H 215.95 -6.3192 -1.74233 0
M  V30 2340 H 215.47 -5.18106 -3.02201 0
M  V30 2341 H 217.149 -5.76834 -2.93038 0
M  V30 2342 N 217.281 0.66697 -1.42791 0
M  V30 2343 C 218.511 1.45294 -1.46878 0
M  V30 2344 C 218.919 1.89027 -0.0809861 0
M  V30 2345 O 218.262 1.59219 0.916246 0
M  V30 2346 C 218.324 2.72908 -2.34012 0
M  V30 2347 C 217.988 2.51203 -3.81767 0
M  V30 2348 C 218.985 2.15302 -4.73224 0
M  V30 2349 C 216.67 2.65954 -4.26115 0
M  V30 2350 C 218.664 1.94431 -6.07022 0
M  V30 2351 C 216.351 2.44699 -5.59969 0
M  V30 2352 C 217.349 2.08992 -6.5024 0
M  V30 2353 O 217.037 1.87948 -7.81621 0
M  V30 2354 H 216.769 0.453306 -0.501487 0
M  V30 2355 H 219.323 0.826232 -1.88049 0
M  V30 2356 H 217.553 3.38089 -1.87703 0
M  V30 2357 H 219.242 3.34816 -2.29462 0
M  V30 2358 H 220.008 2.03495 -4.40244 0
M  V30 2359 H 215.887 2.92724 -3.56137 0
M  V30 2360 H 219.431 1.66484 -6.77443 0
M  V30 2361 H 215.328 2.56105 -5.9252 0
M  V30 2362 H 216.096 2.02483 -7.93059 0
M  V30 2363 N 218.759 1.29093 0.90403 0
M  V30 2364 C 220.17 1.15186 1.46932 0
M  V30 2365 C 220.521 -0.254587 1.94541 0
M  V30 2366 O 219.646 -1.14972 1.83332 0
M  V30 2367 C 220.241 2.08492 2.67051 0
M  V30 2368 C 218.8 1.98621 3.19729 0
M  V30 2369 C 217.947 1.9967 1.92425 0
M  V30 2370 H 220.898 1.41641 0.715789 0
M  V30 2371 H 220.919 1.65461 3.42641 0
M  V30 2372 H 220.431 3.10847 2.3237 0
M  V30 2373 H 218.532 0.993389 3.59114 0
M  V30 2374 H 218.645 2.86068 3.8432 0
M  V30 2375 H 217.009 1.44208 2.09943 0
M  V30 2376 H 217.792 3.03721 1.60026 0
M  V30 2377 N 220.237 -1.11381 1.11499 0
M  V30 2378 C 221.484 -1.83132 0.864231 0
M  V30 2379 C 221.812 -1.84683 -0.610114 0
M  V30 2380 O 221.067 -1.29589 -1.46646 0
M  V30 2381 C 221.366 -3.30026 1.37177 0
M  V30 2382 C 221.032 -3.48634 2.85946 0
M  V30 2383 C 219.694 -3.53421 3.26569 0
M  V30 2384 C 222.046 -3.54837 3.81759 0
M  V30 2385 C 219.374 -3.61967 4.61733 0
M  V30 2386 C 221.726 -3.64915 5.1674 0
M  V30 2387 C 220.39 -3.67962 5.5692 0
M  V30 2388 H 219.66 -0.670127 0.316245 0
M  V30 2389 H 222.307 -1.31354 1.3935 0
M  V30 2390 H 220.612 -3.84304 0.762753 0
M  V30 2391 H 222.309 -3.84034 1.15408 0
M  V30 2392 H 218.899 -3.45579 2.53521 0
M  V30 2393 H 223.083 -3.50399 3.51474 0
M  V30 2394 H 218.339 -3.62603 4.92269 0
M  V30 2395 H 222.513 -3.68658 5.90816 0
M  V30 2396 H 220.14 -3.74336 6.61647 0
M  V30 2397 N 221.715 -0.905404 -1.28997 0
M  V30 2398 C 222.645 -0.404212 -2.29975 0
M  V30 2399 C 223.626 0.523784 -1.61835 0
M  V30 2400 O 224.811 0.433298 -1.89304 0
M  V30 2401 C 221.941 0.364042 -3.45387 0
M  V30 2402 C 220.895 -0.474048 -4.25367 0
M  V30 2403 C 220.221 0.422045 -5.33032 0
M  V30 2404 C 221.521 -1.72696 -4.92923 0
M  V30 2405 H 223.215 -1.24807 -2.72146 0
M  V30 2406 H 220.761 -0.601585 -1.30832 0
M  V30 2407 H 222.714 0.725447 -4.15109 0
M  V30 2408 H 221.438 1.24174 -3.02074 0
M  V30 2409 H 220.097 -0.81786 -3.57361 0
M  V30 2410 H 219.745 1.29804 -4.85963 0
M  V30 2411 H 219.445 -0.135057 -5.87445 0
M  V30 2412 H 220.969 0.779517 -6.05604 0
M  V30 2413 H 222.383 -1.43495 -5.55051 0
M  V30 2414 H 220.78 -2.22582 -5.57295 0
M  V30 2415 H 221.85 -2.45964 -4.17887 0
M  V30 2416 N 223.193 1.4272 -0.668489 0
M  V30 2417 C 224.418 2.06484 -0.194758 0
M  V30 2418 C 224.843 1.49862 1.13679 0
M  V30 2419 O 224.201 0.614582 1.70565 0
M  V30 2420 C 224.249 3.60353 -0.133546 0
M  V30 2421 O 223.353 4.02464 0.899806 0
M  V30 2422 H 222.694 0.656137 -0.10188 0
M  V30 2423 H 225.224 1.82964 -0.915722 0
M  V30 2424 H 225.234 4.07976 0.0447041 0
M  V30 2425 H 223.909 4.00938 -1.1055 0
M  V30 2426 H 222.486 3.66402 0.693109 0
M  V30 2427 N 224.671 0.411399 1.52136 0
M  V30 2428 C 225.603 -0.448386 2.24771 0
M  V30 2429 C 226.616 -1.00828 1.27818 0
M  V30 2430 O 227.805 -0.906841 1.53749 0
M  V30 2431 C 224.905 -1.63636 2.96777 0
M  V30 2432 C 224.078 -1.19995 4.20618 0
M  V30 2433 C 223.137 -2.25509 4.75428 0
M  V30 2434 O 222.163 -1.86007 5.3795 0
M  V30 2435 N 223.365 -3.577 4.57199 0
M  V30 2436 H 226.13 0.174025 2.99194 0
M  V30 2437 H 223.691 0.238897 1.60128 0
M  V30 2438 H 225.683 -2.33793 3.30338 0
M  V30 2439 H 224.253 -2.16465 2.25526 0
M  V30 2440 H 223.473 -0.326421 3.92846 0
M  V30 2441 H 224.761 -0.885365 5.01038 0
M  V30 2442 H 224.159 -3.92543 4.07341 0
M  V30 2443 H 222.716 -4.23827 4.95191 0
M  V30 2444 N 226.149 -1.5696 0.141893 0
M  V30 2445 C 227.565 -1.58151 -0.21456 0
M  V30 2446 C 227.765 -1.1559 -1.65049 0
M  V30 2447 O 226.821 -0.853832 -2.37626 0
M  V30 2448 C 228.134 -3.00674 0.0395576 0
M  V30 2449 C 229.682 -3.1299 -0.0245529 0
M  V30 2450 C 230.157 -4.57554 0.202167 0
M  V30 2451 N 231.648 -4.62961 0.148919 0
M  V30 2452 C 232.383 -5.7262 0.298924 0
M  V30 2453 N 231.879 -6.90947 0.50637 0
M  V30 2454 N 233.672 -5.61601 0.236886 0
M  V30 2455 H 225.823 -1.8292 1.07953 0
M  V30 2456 H 228.086 -0.846425 0.42693 0
M  V30 2457 H 227.792 -3.36183 1.03315 0
M  V30 2458 H 227.666 -3.70981 -0.682143 0
M  V30 2459 H 230.053 -2.77326 -1.00869 0
M  V30 2460 H 230.134 -2.4518 0.729396 0
M  V30 2461 H 229.778 -4.93922 1.18338 0
M  V30 2462 H 229.708 -5.23484 -0.572044 0
M  V30 2463 H 232.199 -3.77899 -0.00697015 0
M  V30 2464 H 232.512 -7.7038 0.611076 0
M  V30 2465 H 230.857 -6.92878 0.542628 0
M  V30 2466 H 234.048 -4.68039 0.0756209 0
M  V30 2467 H 234.221 -6.47015 0.357227 0
M  V30 2468 N 227.627 0.131896 -1.57047 0
M  V30 2469 C 229.043 0.485031 -1.52051 0
M  V30 2470 C 229.243 1.82563 -0.85281 0
M  V30 2471 O 228.299 2.48817 -0.429694 0
M  V30 2472 C 229.612 0.481409 -2.96821 0
M  V30 2473 C 231.16 0.565868 -3.07842 0
M  V30 2474 C 231.635 0.592762 -4.54148 0
M  V30 2475 N 233.126 0.654564 -4.58552 0
M  V30 2476 C 233.861 0.696608 -5.69153 0
M  V30 2477 N 233.357 0.697078 -6.89284 0
M  V30 2478 N 235.15 0.738639 -5.57226 0
M  V30 2479 H 227.301 -0.746664 -1.98843 0
M  V30 2480 H 229.564 -0.273999 -0.90754 0
M  V30 2481 H 229.27 -0.435731 -3.4899 0
M  V30 2482 H 229.144 1.3139 -3.53577 0
M  V30 2483 H 231.531 1.47343 -2.55684 0
M  V30 2484 H 231.612 -0.29406 -2.54104 0
M  V30 2485 H 231.256 -0.310701 -5.06949 0
M  V30 2486 H 231.186 1.46939 -5.05684 0
M  V30 2487 H 233.677 0.660887 -3.72076 0
M  V30 2488 H 233.99 0.731426 -7.69331 0
M  V30 2489 H 232.335 0.66471 -6.91814 0
M  V30 2490 H 235.526 0.735545 -4.62285 0
M  V30 2491 H 235.699 0.767938 -6.43434 0
M  V30 2492 N 229.106 1.52395 0.401703 0
M  V30 2493 C 230.054 1.7689 1.51039 0
M  V30 2494 C 231.048 0.636298 1.56996 0
M  V30 2495 O 232.254 0.818507 1.60314 0
M  V30 2496 H 228.629 0.559502 0.502456 0
M  V30 2497 H 230.6 2.69757 1.27568 0
M  V30 2498 C 229.349 1.94331 2.88324 0
M  V30 2499 H 228.672 2.80905 2.84486 0
M  V30 2500 H 230.112 2.15466 3.65172 0
M  V30 2501 C 228.571 0.712396 3.29282 0
M  V30 2502 O 229.101 -0.116218 4.01532 0
M  V30 2503 N 227.307 0.546154 2.85422 0
M  V30 2504 H 226.854 1.22156 2.26794 0
M  V30 2505 H 226.812 -0.276113 3.13185 0
M  V30 2506 N 230.584 -0.659388 1.43143 0
M  V30 2507 C 231.995 -1.24041 1.39537 0
M  V30 2508 C 232.346 -1.95963 0.0963364 0
M  V30 2509 O 231.471 -2.00892 -0.804438 0
M  V30 2510 C 232.066 -2.25601 2.52764 0
M  V30 2511 C 230.625 -2.79195 2.52443 0
M  V30 2512 C 229.772 -1.53743 2.30778 0
M  V30 2513 H 232.723 -0.451792 1.52133 0
M  V30 2514 H 232.744 -3.07651 2.23899 0
M  V30 2515 H 232.256 -1.73226 3.47296 0
M  V30 2516 H 230.357 -3.35649 1.61773 0
M  V30 2517 H 230.47 -3.2716 3.50004 0
M  V30 2518 H 228.834 -1.80869 1.79328 0
M  V30 2519 H 229.617 -1.03312 3.27386 0
M  V30 2520 N 232.062 -1.29571 -0.897171 0
M  V30 2521 C 233.308 -1.18873 -1.65048 0
M  V30 2522 C 233.663 0.256707 -1.9068 0
M  V30 2523 O 232.956 1.18202 -1.50794 0
M  V30 2524 C 233.15 -1.9382 -3.00281 0
M  V30 2525 C 232.979 -3.45503 -2.8785 0
M  V30 2526 C 231.749 -4.14856 -2.88483 0
M  V30 2527 C 233.947 -4.40956 -2.64693 0
M  V30 2528 N 231.929 -5.52886 -2.66815 0
M  V30 2529 C 233.3 -5.66464 -2.5203 0
M  V30 2530 C 235.355 -4.3069 -2.49821 0
M  V30 2531 C 234.058 -6.82871 -2.26008 0
M  V30 2532 C 236.084 -5.46852 -2.25182 0
M  V30 2533 C 235.446 -6.71333 -2.13286 0
M  V30 2534 H 231.545 -0.489998 -0.609447 0
M  V30 2535 H 234.129 -1.63431 -1.05822 0
M  V30 2536 H 232.3 -1.51671 -3.57562 0
M  V30 2537 H 234.032 -1.75366 -3.64731 0
M  V30 2538 H 230.787 -3.66579 -2.99861 0
M  V30 2539 H 231.211 -6.25487 -2.59027 0
M  V30 2540 H 235.853 -3.35141 -2.5776 0
M  V30 2541 H 233.571 -7.78473 -2.16806 0
M  V30 2542 H 237.157 -5.40809 -2.14515 0
M  V30 2543 H 236.037 -7.59701 -1.94485 0
M  V30 2544 N 233.54 1.10788 -1.12088 0
M  V30 2545 C 234.472 2.16816 -0.743213 0
M  V30 2546 C 235.485 1.6119 0.228412 0
M  V30 2547 O 236.674 1.78497 0.0102931 0
M  V30 2548 C 233.774 3.38809 -0.0787313 0
M  V30 2549 C 232.947 4.23885 -1.0789 0
M  V30 2550 C 232.006 5.24334 -0.442713 0
M  V30 2551 O 231.032 5.58497 -1.09864 0
M  V30 2552 N 232.234 5.75079 0.791457 0
M  V30 2553 H 234.999 2.49825 -1.65552 0
M  V30 2554 H 232.56 1.26373 -1.012 0
M  V30 2555 H 234.552 4.03107 0.358766 0
M  V30 2556 H 233.122 3.03805 0.736275 0
M  V30 2557 H 232.342 3.55939 -1.69414 0
M  V30 2558 H 233.63 4.77562 -1.75533 0
M  V30 2559 H 233.028 5.49517 1.3434 0
M  V30 2560 H 231.585 6.4118 1.17183 0
M  V30 2561 N 235.018 0.912232 1.28515 0
M  V30 2562 C 235.981 0.404223 2.25607 0
M  V30 2563 C 236.981 -0.468602 1.53821 0
M  V30 2564 O 238.171 -0.271873 1.72065 0
M  V30 2565 C 235.303 -0.420653 3.38295 0
M  V30 2566 H 236.496 1.26188 2.7206 0
M  V30 2567 H 234.049 0.691495 1.40171 0
M  V30 2568 H 234.784 -1.29777 2.97201 0
M  V30 2569 H 234.569 0.204935 3.91564 0
M  V30 2570 H 236.059 -0.766971 4.10496 0
M  V30 2571 N 236.496 -1.42363 0.676048 0
M  V30 2572 C 237.721 -2.06377 0.205705 0
M  V30 2573 C 238.146 -1.50463 -1.12883 0
M  V30 2574 O 237.504 -0.623619 -1.70237 0
M  V30 2575 C 237.552 -3.60277 0.152655 0
M  V30 2576 O 236.656 -4.02935 -0.87845 0
M  V30 2577 H 235.997 -0.655588 0.105359 0
M  V30 2578 H 238.527 -1.82475 0.925412 0
M  V30 2579 H 238.537 -4.07993 -0.0230675 0
M  V30 2580 H 237.212 -4.00346 1.12675 0
M  V30 2581 H 235.789 -3.66764 -0.673668 0
M  V30 2582 N 237.974 -0.419461 -1.51915 0
M  V30 2583 C 239.204 0.151915 -2.06041 0
M  V30 2584 C 239.612 1.38539 -1.28855 0
M  V30 2585 O 238.955 1.80592 -0.336463 0
M  V30 2586 C 239.017 0.557119 -3.55157 0
M  V30 2587 C 238.681 -0.567054 -4.53468 0
M  V30 2588 C 239.678 -1.43379 -4.99738 0
M  V30 2589 C 237.363 -0.742693 -4.96779 0
M  V30 2590 C 239.357 -2.46102 -5.87973 0
M  V30 2591 C 237.044 -1.77322 -5.84808 0
M  V30 2592 C 238.042 -2.63078 -6.30301 0
M  V30 2593 O 237.73 -3.64364 -7.16585 0
M  V30 2594 H 237.462 0.0193293 -0.675724 0
M  V30 2595 H 240.016 -0.592073 -1.96682 0
M  V30 2596 H 238.246 1.35355 -3.62238 0
M  V30 2597 H 239.935 1.05759 -3.9188 0
M  V30 2598 H 240.701 -1.30954 -4.66986 0
M  V30 2599 H 236.58 -0.0848307 -4.60922 0
M  V30 2600 H 240.124 -3.13071 -6.23404 0
M  V30 2601 H 236.021 -1.89773 -6.16974 0
M  V30 2602 H 236.789 -3.60731 -7.34721 0
M  V30 2603 N 239.452 1.56882 -0.150215 0
M  V30 2604 C 240.701 1.95403 0.500071 0
M  V30 2605 C 241.014 1.03777 1.658 0
M  V30 2606 O 242.22 1.31889 2.37313 0
M  V30 2607 C 240.676 3.4738 0.941018 0
M  V30 2608 C 240.284 4.47596 -0.190158 0
M  V30 2609 C 242.028 3.9476 1.56091 0
M  V30 2610 C 239.935 5.90787 0.269237 0
M  V30 2611 H 238.865 0.729515 0.190588 0
M  V30 2612 H 241.516 1.81988 -0.235074 0
M  V30 2613 H 239.898 3.56138 1.73152 0
M  V30 2614 H 241.072 4.50536 -0.967157 0
M  V30 2615 H 239.387 4.10151 -0.718666 0
M  V30 2616 H 241.984 4.99181 1.9163 0
M  V30 2617 H 242.327 3.36494 2.45107 0
M  V30 2618 H 242.86 3.88932 0.835249 0
M  V30 2619 H 239.599 6.52879 -0.585621 0
M  V30 2620 H 239.119 5.912 1.01204 0
M  V30 2621 H 240.798 6.42979 0.720176 0
M  V30 2622 N 240.93 -0.123565 1.57115 0
M  V30 2623 C 242.176 -0.833386 1.84885 0
M  V30 2624 C 242.509 -1.79742 0.735292 0
M  V30 2625 O 241.784 -1.92764 -0.25925 0
M  V30 2626 C 242.067 -1.5873 3.23228 0
M  V30 2627 C 241.92 -0.643183 4.45178 0
M  V30 2628 C 243.239 -2.54453 3.59085 0
M  V30 2629 H 240.358 -0.301518 0.6725 0
M  V30 2630 H 243 -0.097778 1.89748 0
M  V30 2631 H 241.15 -2.21438 3.19214 0
M  V30 2632 H 242.822 -0.0253015 4.61293 0
M  V30 2633 H 241.065 0.0456139 4.33776 0
M  V30 2634 H 241.736 -1.20724 5.38637 0
M  V30 2635 H 244.212 -2.01853 3.63861 0
M  V30 2636 H 243.088 -3.04238 4.5687 0
M  V30 2637 H 243.349 -3.36906 2.86264 0
M  V30 2638 N 242.408 -1.52605 -0.393616 0
M  V30 2639 C 243.819 -1.59417 -0.971761 0
M  V30 2640 C 244.17 -0.444173 -1.91106 0
M  V30 2641 O 243.295 0.433382 -2.12016 0
M  V30 2642 C 243.89 -2.88936 -1.76921 0
M  V30 2643 C 242.449 -2.98175 -2.29714 0
M  V30 2644 C 241.596 -2.54491 -1.10135 0
M  V30 2645 H 244.547 -1.57751 -0.173317 0
M  V30 2646 H 244.568 -2.75163 -2.62804 0
M  V30 2647 H 244.08 -3.72616 -1.08532 0
M  V30 2648 H 242.181 -2.19024 -3.01429 0
M  V30 2649 H 242.294 -4.02726 -2.59517 0
M  V30 2650 H 240.658 -2.08702 -1.45999 0
M  V30 2651 H 241.441 -3.4056 -0.432874 0
M  V30 2652 N 243.887 0.651787 -1.4349 0
M  V30 2653 C 244.817 1.77621 -1.51569 0
M  V30 2654 C 245.798 1.66022 -0.370253 0
M  V30 2655 O 246.983 1.85095 -0.587658 0
M  V30 2656 C 244.113 3.16056 -1.43966 0
M  V30 2657 C 243.067 3.4242 -2.56774 0
M  V30 2658 C 242.393 4.8067 -2.34223 0
M  V30 2659 C 243.693 3.37023 -3.99015 0
M  V30 2660 H 245.387 1.71117 -2.45681 0
M  V30 2661 H 242.933 0.821825 -1.18246 0
M  V30 2662 H 244.886 3.94472 -1.48221 0
M  V30 2663 H 243.61 3.23293 -0.463586 0
M  V30 2664 H 242.269 2.66375 -2.51873 0
M  V30 2665 H 241.917 4.84585 -1.34856 0
M  V30 2666 H 241.617 4.9927 -3.09844 0
M  V30 2667 H 243.141 5.61342 -2.40265 0
M  V30 2668 H 244.555 4.05374 -4.05395 0
M  V30 2669 H 242.952 3.67159 -4.74673 0
M  V30 2670 H 244.022 2.3518 -4.2405 0
M  V30 2671 N 245.365 1.30045 0.890287 0
M  V30 2672 C 246.611 1.18737 1.64406 0
M  V30 2673 C 246.944 -0.258525 1.92472 0
M  V30 2674 O 246.219 -1.18562 1.54186 0
M  V30 2675 C 246.502 2.01087 2.98724 0
M  V30 2676 C 246.355 3.53867 2.77665 0
M  V30 2677 C 247.674 1.84457 3.9958 0
M  V30 2678 H 244.793 0.432698 0.596608 0
M  V30 2679 H 247.435 1.5962 1.0306 0
M  V30 2680 H 245.585 1.66349 3.51084 0
M  V30 2681 H 247.257 3.98637 2.32133 0
M  V30 2682 H 245.5 3.78318 2.12269 0
M  V30 2683 H 246.171 4.06772 3.7315 0
M  V30 2684 H 248.647 2.14817 3.56361 0
M  V30 2685 H 247.523 2.44411 4.91482 0
M  V30 2686 H 247.784 0.802276 4.3476 0
M  V30 2687 N 246.843 -1.10192 1.12674 0
M  V30 2688 C 248.089 -1.82658 0.894847 0
M  V30 2689 C 248.444 -1.83666 -0.573107 0
M  V30 2690 O 247.737 -1.28816 -1.41835 0
M  V30 2691 C 247.931 -3.28552 1.4067 0
M  V30 2692 C 247.76 -3.41756 2.92289 0
M  V30 2693 C 246.53 -3.54021 3.60551 0
M  V30 2694 C 248.728 -3.34949 3.90274 0
M  V30 2695 N 246.71 -3.55827 5.0026 0
M  V30 2696 C 248.081 -3.43531 5.16127 0
M  V30 2697 C 250.136 -3.18565 3.8265 0
M  V30 2698 C 248.839 -3.37416 6.3525 0
M  V30 2699 C 250.865 -3.13772 5.01299 0
M  V30 2700 C 250.227 -3.22938 6.26012 0
M  V30 2701 H 246.326 -0.683044 0.380756 0
M  V30 2702 H 248.91 -1.31752 1.43351 0
M  V30 2703 H 247.081 -3.77946 0.895055 0
M  V30 2704 H 248.813 -3.88991 1.11661 0
M  V30 2705 H 245.568 -3.57135 3.1105 0
M  V30 2706 H 245.992 -3.60335 5.73138 0
M  V30 2707 H 250.634 -3.10354 2.87124 0
M  V30 2708 H 248.352 -3.44391 7.3104 0
M  V30 2709 H 251.938 -3.02242 4.97133 0
M  V30 2710 H 250.818 -3.19235 7.16281 0
M  V30 2711 N 248.321 -0.919034 -1.28029 0
M  V30 2712 C 249.561 -0.562107 -1.96519 0
M  V30 2713 C 249.925 0.878784 -1.70708 0
M  V30 2714 O 251.126 1.34355 -2.32813 0
M  V30 2715 C 249.397 -0.868953 -3.46676 0
M  V30 2716 S 250.956 -0.619237 -4.34409 0
M  V30 2717 H 247.774 -0.2078 -0.679956 0
M  V30 2718 H 250.376 -1.18562 -1.55446 0
M  V30 2719 H 249.08 -1.91547 -3.62957 0
M  V30 2720 H 248.611 -0.234301 -3.92702 0
M  V30 2721 H 250.626 0.526995 -4.93394 0
M  V30 2722 N 249.799 1.42003 -0.683588 0
M  V30 2723 C 250.732 2.28166 0.039592 0
M  V30 2724 C 251.71 1.41562 0.799942 0
M  V30 2725 O 252.894 1.70997 0.793248 0
M  V30 2726 C 250.021 3.21575 1.06335 0
M  V30 2727 C 249.067 4.24643 0.397562 0
M  V30 2728 S 249.9 5.2869 -0.851296 0
M  V30 2729 C 251.056 6.25666 0.171166 0
M  V30 2730 H 251.289 2.89153 -0.691229 0
M  V30 2731 H 248.822 1.46962 -0.473435 0
M  V30 2732 H 250.78 3.75928 1.6489 0
M  V30 2733 H 249.441 2.59707 1.76667 0
M  V30 2734 H 248.634 4.90223 1.17035 0
M  V30 2735 H 248.236 3.73824 -0.114611 0
M  V30 2736 H 250.528 6.69653 1.02819 0
M  V30 2737 H 251.471 7.06666 -0.450397 0
M  V30 2738 H 251.879 5.62095 0.520578 0
M  V30 2739 N 251.277 0.427512 1.51691 0
M  V30 2740 C 252.24 -0.377132 2.26076 0
M  V30 2741 C 253.24 -0.958089 1.29141 0
M  V30 2742 O 254.43 -0.83408 1.52934 0
M  V30 2743 C 251.562 -1.53262 3.04506 0
M  V30 2744 H 252.755 0.27464 2.9864 0
M  V30 2745 H 250.308 0.180445 1.55255 0
M  V30 2746 H 251.043 -2.22072 2.36335 0
M  V30 2747 H 250.828 -1.12232 3.75694 0
M  V30 2748 H 252.318 -2.10135 3.60878 0
M  V30 2749 N 252.755 -1.56801 0.158532 0
M  V30 2750 C 253.995 -1.98383 -0.49229 0
M  V30 2751 C 254.359 -1.04184 -1.61275 0
M  V30 2752 O 255.56 -1.34856 -2.32524 0
M  V30 2753 C 253.831 -3.4385 -0.974766 0
M  V30 2754 S 255.39 -4.07459 -1.62857 0
M  V30 2755 H 252.208 -0.693041 -0.158794 0
M  V30 2756 H 254.81 -1.93856 0.252974 0
M  V30 2757 H 253.514 -4.10131 -0.148688 0
M  V30 2758 H 253.045 -3.52115 -1.75438 0
M  V30 2759 H 255.06 -4.01458 -2.91627 0
M  V30 2760 N 254.233 0.115231 -1.57178 0
M  V30 2761 C 255.163 1.1423 -2.03651 0
M  V30 2762 C 256.144 1.42967 -0.921655 0
M  V30 2763 O 257.329 1.53343 -1.19162 0
M  V30 2764 C 254.459 2.4675 -2.44401 0
M  V30 2765 C 253.413 2.32467 -3.59365 0
M  V30 2766 C 252.739 3.69984 -3.86026 0
M  V30 2767 C 254.039 1.78203 -4.90959 0
M  V30 2768 H 255.733 0.755749 -2.89705 0
M  V30 2769 H 253.279 0.362093 -1.39373 0
M  V30 2770 H 255.232 3.18854 -2.75517 0
M  V30 2771 H 253.956 2.87302 -1.55322 0
M  V30 2772 H 252.615 1.62811 -3.28463 0
M  V30 2773 H 252.263 4.08028 -2.94147 0
M  V30 2774 H 251.963 3.61279 -4.63412 0
M  V30 2775 H 253.487 4.43587 -4.19599 0
M  V30 2776 H 254.901 2.40128 -5.20587 0
M  V30 2777 H 253.298 1.8031 -5.72371 0
M  V30 2778 H 254.368 0.739876 -4.79222 0
M  V30 2779 N 255.711 1.52812 0.385517 0
M  V30 2780 C 256.936 1.72207 1.15583 0
M  V30 2781 C 257.361 0.441034 1.82857 0
M  V30 2782 O 256.719 -0.603465 1.70962 0
M  V30 2783 C 256.767 2.87476 2.17692 0
M  V30 2784 O 255.871 2.54693 3.24354 0
M  V30 2785 H 255.212 0.572526 0.336319 0
M  V30 2786 H 257.742 1.99618 0.448744 0
M  V30 2787 H 257.752 3.13072 2.6163 0
M  V30 2788 H 256.427 3.80408 1.68115 0
M  V30 2789 H 255.004 2.3985 2.85529 0
M  V30 2790 N 257.189 -0.644168 1.43834 0
M  V30 2791 C 258.414 -1.43642 1.49605 0
M  V30 2792 C 258.839 -1.8773 0.117913 0
M  V30 2793 O 258.197 -1.57938 -0.890239 0
M  V30 2794 C 258.245 -2.6416 2.45463 0
M  V30 2795 O 257.349 -3.63538 1.94714 0
M  V30 2796 H 256.69 -0.430329 0.50568 0
M  V30 2797 H 259.22 -0.787448 1.8884 0
M  V30 2798 H 259.23 -3.11864 2.63068 0
M  V30 2799 H 257.905 -2.31414 3.45572 0
M  V30 2800 H 256.482 -3.2273 1.86814 0
M  V30 2801 N 258.668 -1.30515 -0.883378 0
M  V30 2802 C 259.598 -1.19607 -2.00541 0
M  V30 2803 C 260.579 -0.086346 -1.69881 0
M  V30 2804 O 261.764 -0.268654 -1.92333 0
M  V30 2805 C 258.894 -0.888758 -3.35736 0
M  V30 2806 C 257.848 -1.95659 -3.8066 0
M  V30 2807 C 257.174 -1.50224 -5.13164 0
M  V30 2808 C 258.474 -3.36788 -3.99213 0
M  V30 2809 H 260.168 -2.13476 -2.09925 0
M  V30 2810 H 257.714 -1.02775 -1.00863 0
M  V30 2811 H 259.667 -0.799094 -4.13754 0
M  V30 2812 H 258.391 0.0856125 -3.26488 0
M  V30 2813 H 257.05 -2.03591 -3.04871 0
M  V30 2814 H 256.698 -0.516092 -5.00345 0
M  V30 2815 H 256.398 -2.2165 -5.44192 0
M  V30 2816 H 257.922 -1.42639 -5.93706 0
M  V30 2817 H 259.336 -3.31605 -4.67665 0
M  V30 2818 H 257.733 -4.06314 -4.41621 0
M  V30 2819 H 258.803 -3.78561 -3.03017 0
M  V30 2820 N 260.146 1.09593 -1.13257 0
M  V30 2821 C 261.557 1.63229 -0.906274 0
M  V30 2822 C 261.908 1.8811 0.557578 0
M  V30 2823 O 261.033 1.62953 1.42391 0
M  V30 2824 C 261.628 2.96535 -1.63867 0
M  V30 2825 C 260.187 3.47003 -1.45828 0
M  V30 2826 C 259.334 2.2145 -1.66898 0
M  V30 2827 H 262.285 0.92978 -1.28611 0
M  V30 2828 H 262.306 3.64411 -1.09476 0
M  V30 2829 H 261.818 2.78394 -2.70404 0
M  V30 2830 H 259.919 3.70272 -0.415848 0
M  V30 2831 H 260.032 4.24551 -2.2202 0
M  V30 2832 H 258.396 2.30022 -1.09371 0
M  V30 2833 H 259.179 2.0583 -2.74752 0
M  V30 2834 N 261.624 0.925811 1.2754 0
M  V30 2835 C 262.852 0.581509 1.9856 0
M  V30 2836 C 263.267 -0.840041 1.69082 0
M  V30 2837 O 262.624 -1.55805 0.950312 0
M  V30 2838 C 262.675 0.795589 3.52637 0
M  V30 2839 O 262.396 2.16121 3.81082 0
M  V30 2840 C 263.897 0.459744 4.4091 0
M  V30 2841 H 261.117 0.220538 0.633722 0
M  V30 2842 H 263.661 1.24232 1.6244 0
M  V30 2843 H 261.816 0.18161 3.86974 0
M  V30 2844 H 262.23 2.2098 4.75676 0
M  V30 2845 H 263.704 0.660244 5.48037 0
M  V30 2846 H 264.181 -0.604625 4.35018 0
M  V30 2847 H 264.787 1.05178 4.12089 0
M  V30 2848 N 263.102 -1.41638 0.69111 0
M  V30 2849 C 264.349 -2.01299 0.220193 0
M  V30 2850 C 264.677 -1.54715 -1.17871 0
M  V30 2851 O 263.932 -0.747193 -1.80874 0
M  V30 2852 C 264.231 -3.56714 0.221277 0
M  V30 2853 C 263.897 -4.22792 1.56709 0
M  V30 2854 C 262.559 -4.40557 1.93554 0
M  V30 2855 C 264.911 -4.59883 2.45268 0
M  V30 2856 C 262.239 -4.92688 3.18552 0
M  V30 2857 C 264.591 -5.13403 3.69595 0
M  V30 2858 C 263.255 -5.29379 4.06589 0
M  V30 2859 H 262.525 -0.736606 0.0805743 0
M  V30 2860 H 265.172 -1.69598 0.889319 0
M  V30 2861 H 263.477 -3.8818 -0.531391 0
M  V30 2862 H 265.174 -4.00678 -0.160547 0
M  V30 2863 H 261.764 -4.09336 1.2705 0
M  V30 2864 H 265.948 -4.45817 2.18084 0
M  V30 2865 H 261.204 -5.03242 3.47214 0
M  V30 2866 H 265.378 -5.41084 4.38407 0
M  V30 2867 H 263.005 -5.69537 5.03519 0
M  V30 2868 N 264.58 -0.43555 -1.51462 0
M  V30 2869 C 265.81 0.130053 -2.0619 0
M  V30 2870 C 266.218 1.37164 -1.30317 0
M  V30 2871 O 265.561 1.80225 -0.355598 0
M  V30 2872 C 265.623 0.519418 -3.55728 0
M  V30 2873 C 265.287 -0.615119 -4.52841 0
M  V30 2874 C 266.284 -1.48671 -4.9819 0
M  V30 2875 C 263.969 -0.795341 -4.95963 0
M  V30 2876 C 265.963 -2.52324 -5.8533 0
M  V30 2877 C 263.65 -1.83514 -5.82894 0
M  V30 2878 C 264.648 -2.69748 -6.27475 0
M  V30 2879 O 264.336 -3.71944 -7.1268 0
M  V30 2880 H 264.068 0.0121612 -0.675891 0
M  V30 2881 H 266.622 -0.6129 -1.96043 0
M  V30 2882 H 264.852 1.31505 -3.63653 0
M  V30 2883 H 266.541 1.01597 -3.92979 0
M  V30 2884 H 267.307 -1.359 -4.65571 0
M  V30 2885 H 263.186 -0.133713 -4.60806 0
M  V30 2886 H 266.73 -3.19665 -6.20048 0
M  V30 2887 H 262.627 -1.96306 -6.14926 0
M  V30 2888 H 263.395 -3.68503 -7.30854 0
M  V30 2889 N 266.058 1.56714 -0.166846 0
M  V30 2890 C 267.305 1.96747 0.479252 0
M  V30 2891 C 267.633 1.05263 1.63554 0
M  V30 2892 O 266.888 0.0858098 1.95512 0
M  V30 2893 C 267.187 3.42889 1.00806 0
M  V30 2894 C 266.853 4.50889 -0.0318574 0
M  V30 2895 C 265.515 4.8015 -0.317675 0
M  V30 2896 C 267.867 5.15949 -0.737956 0
M  V30 2897 C 265.195 5.71772 -1.31506 0
M  V30 2898 C 267.547 6.08647 -1.72429 0
M  V30 2899 C 266.211 6.36277 -2.0176 0
M  V30 2900 H 265.481 0.719949 0.175371 0
M  V30 2901 H 268.128 1.89756 -0.257864 0
M  V30 2902 H 266.433 3.4681 1.82291 0
M  V30 2903 H 268.13 3.71203 1.51689 0
M  V30 2904 H 264.72 4.28128 0.201088 0
M  V30 2905 H 268.904 4.93458 -0.530351 0
M  V30 2906 H 264.16 5.91465 -1.54853 0
M  V30 2907 H 268.334 6.58129 -2.27682 0
M  V30 2908 H 265.961 7.07075 -2.79194 0
M  V30 2909 N 267.536 -0.106894 1.57237 0
M  V30 2910 C 268.952 -0.46078 1.52804 0
M  V30 2911 C 269.152 -1.81184 0.881746 0
M  V30 2912 O 268.208 -2.48102 0.469224 0
M  V30 2913 C 269.521 -0.434127 2.9755 0
M  V30 2914 C 271.069 -0.516821 3.08704 0
M  V30 2915 C 271.544 -0.520436 4.55033 0
M  V30 2916 N 273.035 -0.58153 4.59535 0
M  V30 2917 C 273.77 -0.605973 5.70189 0
M  V30 2918 N 273.266 -0.587331 6.90306 0
M  V30 2919 N 275.059 -0.649895 5.5833 0
M  V30 2920 H 267.21 0.778203 1.9763 0
M  V30 2921 H 269.473 0.288403 0.903066 0
M  V30 2922 H 269.179 0.491197 3.48253 0
M  V30 2923 H 269.053 -1.25748 3.55622 0
M  V30 2924 H 271.44 -1.43256 2.57995 0
M  V30 2925 H 271.521 0.334449 2.53604 0
M  V30 2926 H 271.165 0.391313 5.0639 0
M  V30 2927 H 271.095 -1.38876 5.07958 0
M  V30 2928 H 273.586 -0.60161 3.73081 0
M  V30 2929 H 273.899 -0.60894 7.70397 0
M  V30 2930 H 272.244 -0.554564 6.92784 0
M  V30 2931 H 275.435 -0.661907 4.63397 0
M  V30 2932 H 275.608 -0.665476 6.44574 0
M  V30 2933 N 269.014 -1.53014 -0.377408 0
M  V30 2934 C 270.291 -1.59215 -1.13622 0
M  V30 2935 C 270.671 -0.392407 -2.07421 0
M  V30 2936 O 270.019 0.618342 -2.19975 0
M  V30 2937 C 270.229 -2.93669 -1.88573 0
M  V30 2938 C 271.577 -3.47822 -2.43526 0
M  V30 2939 O 272.601 -2.9562 -1.98715 0
M  V30 2940 O 271.46 -4.39055 -3.25412 0
M  V30 2941 H 268.554 -0.642625 -0.52054 0
M  V30 2942 H 271.1 -1.65353 -0.381625 0
M  V30 2943 H 269.872 -3.7243 -1.20048 0
M  V30 2944 H 269.495 -2.90968 -2.70968 0
M  V30 2945 N 270.492 0.636531 -1.44174 0
M  V30 2946 C 271.738 1.39826 -1.4689 0
M  V30 2947 C 272.071 1.93947 -0.0990585 0
M  V30 2948 O 271.346 1.73325 0.882544 0
M  V30 2949 C 271.629 2.56751 -2.5249 0
M  V30 2950 C 271.482 2.08014 -3.98811 0
M  V30 2951 C 272.801 3.58946 -2.54649 0
M  V30 2952 H 269.92 0.507075 -0.53483 0
M  V30 2953 H 272.562 0.720188 -1.75822 0
M  V30 2954 H 270.712 3.14597 -2.2795 0
M  V30 2955 H 272.384 1.5504 -4.34466 0
M  V30 2956 H 270.627 1.39242 -4.10846 0
M  V30 2957 H 271.298 2.92169 -4.68339 0
M  V30 2958 H 273.774 3.1089 -2.76563 0
M  V30 2959 H 272.65 4.38286 -3.3045 0
M  V30 2960 H 272.911 4.12655 -1.58646 0
M  V30 2961 N 271.97 1.30982 0.876444 0
M  V30 2962 C 273.386 1.09498 1.16113 0
M  V30 2963 C 273.586 -0.13875 2.01022 0
M  V30 2964 O 272.642 -0.829935 2.38471 0
M  V30 2965 C 273.955 2.36308 1.85954 0
M  V30 2966 C 275.503 2.41856 1.98683 0
M  V30 2967 C 275.978 3.6853 2.71937 0
M  V30 2968 N 277.469 3.69387 2.79477 0
M  V30 2969 C 278.204 4.64096 3.36753 0
M  V30 2970 N 277.7 5.69155 3.95012 0
M  V30 2971 N 279.493 4.51626 3.3465 0
M  V30 2972 H 271.644 2.10118 0.310494 0
M  V30 2973 H 273.907 0.926634 0.200131 0
M  V30 2974 H 273.613 3.26388 1.31011 0
M  V30 2975 H 273.487 2.4561 2.86278 0
M  V30 2976 H 275.874 1.52249 2.52793 0
M  V30 2977 H 275.955 2.36523 0.9742 0
M  V30 2978 H 275.599 4.58499 2.18496 0
M  V30 2979 H 275.529 3.71127 3.73593 0
M  V30 2980 H 278.02 2.93438 2.38123 0
M  V30 2981 H 278.333 6.3751 4.36808 0
M  V30 2982 H 276.678 5.72937 3.93406 0
M  V30 2983 H 279.869 3.68728 2.8837 0
M  V30 2984 H 280.042 5.25614 3.7899 0
M  V30 2985 N 273.449 -1.08991 1.13837 0
M  V30 2986 C 274.677 -1.85011 0.926202 0
M  V30 2987 C 275.092 -1.8135 -0.525127 0
M  V30 2988 O 274.449 -1.21287 -1.36366 0
M  V30 2989 C 274.5 -3.32802 1.41155 0
M  V30 2990 O 274.221 -3.36444 2.80601 0
M  V30 2991 C 275.722 -4.25649 1.23847 0
M  V30 2992 H 272.942 -0.584249 0.32999 0
M  V30 2993 H 275.486 -1.37688 1.51202 0
M  V30 2994 H 273.641 -3.77536 0.868631 0
M  V30 2995 H 274.055 -4.28657 3.02248 0
M  V30 2996 H 275.529 -5.27485 1.62675 0
M  V30 2997 H 276.006 -4.38828 0.18065 0
M  V30 2998 H 276.612 -3.86735 1.76964 0
M  V30 2999 N 274.927 -0.932562 -1.27047 0
M  V30 3000 C 276.176 -0.571351 -1.93439 0
M  V30 3001 C 276.489 0.892467 -1.74053 0
M  V30 3002 O 277.695 1.36267 -2.34826 0
M  V30 3003 C 276.151 -0.97106 -3.46552 0
M  V30 3004 C 275.759 -2.4559 -3.74686 0
M  V30 3005 C 277.503 -0.681333 -4.18997 0
M  V30 3006 C 275.41 -2.79475 -5.21198 0
M  V30 3007 H 274.34 -0.209966 -0.724176 0
M  V30 3008 H 276.991 -1.13403 -1.44263 0
M  V30 3009 H 275.373 -0.336983 -3.94564 0
M  V30 3010 H 276.547 -3.13829 -3.37414 0
M  V30 3011 H 274.862 -2.71802 -3.15456 0
M  V30 3012 H 277.459 -0.910939 -5.26883 0
M  V30 3013 H 277.802 0.381628 -4.14547 0
M  V30 3014 H 278.335 -1.27473 -3.76823 0
M  V30 3015 H 275.074 -3.847 -5.30741 0
M  V30 3016 H 274.594 -2.1589 -5.596 0
M  V30 3017 H 276.273 -2.67478 -5.89122 0
M  V30 3018 N 276.405 1.4127 -0.698611 0
M  V30 3019 C 277.315 2.34573 -0.0357891 0
M  V30 3020 C 278.331 1.56393 0.762701 0
M  V30 3021 O 279.507 1.8886 0.699564 0
M  V30 3022 C 276.572 3.35159 0.887089 0
M  V30 3023 C 275.633 4.29225 0.0804634 0
M  V30 3024 C 274.866 5.25006 0.959387 0
M  V30 3025 O 275.089 5.26314 2.19886 0
M  V30 3026 O 274.023 6.00519 0.407439 0
M  V30 3027 H 277.849 2.92838 -0.804957 0
M  V30 3028 H 275.434 1.42175 -0.458966 0
M  V30 3029 H 277.316 3.9689 1.41621 0
M  V30 3030 H 275.991 2.79333 1.6357 0
M  V30 3031 H 274.898 3.70833 -0.493328 0
M  V30 3032 H 276.231 4.88157 -0.629547 0
M  V30 3033 N 277.883 0.443576 1.51229 0
M  V30 3034 C 279.113 -0.119117 2.06256 0
M  V30 3035 C 279.521 -1.36471 1.31043 0
M  V30 3036 O 278.864 -1.80034 0.365151 0
M  V30 3037 C 278.926 -0.500546 3.55998 0
M  V30 3038 C 278.59 0.639125 4.52509 0
M  V30 3039 C 279.587 1.51311 4.97394 0
M  V30 3040 C 277.272 0.821632 4.95535 0
M  V30 3041 C 279.266 2.55425 5.83984 0
M  V30 3042 C 276.953 1.86603 5.81913 0
M  V30 3043 C 277.951 2.73072 6.26036 0
M  V30 3044 O 277.639 3.75718 7.10698 0
M  V30 3045 H 277.371 -0.00857665 0.675946 0
M  V30 3046 H 279.925 0.623288 1.95715 0
M  V30 3047 H 278.155 -1.29575 3.64345 0
M  V30 3048 H 279.844 -0.995116 3.93513 0
M  V30 3049 H 280.61 1.38367 4.64844 0
M  V30 3050 H 276.489 0.158149 4.60729 0
M  V30 3051 H 280.033 3.22949 6.18344 0
M  V30 3052 H 275.93 1.99564 6.13876 0
M  V30 3053 H 276.698 3.72374 7.2889 0
M  V30 3054 N 279.361 -1.56624 0.175154 0
M  V30 3055 C 280.291 -2.21155 -0.749195 0
M  V30 3056 C 281.272 -1.16836 -1.23626 0
M  V30 3057 O 282.457 -1.45277 -1.28873 0
M  V30 3058 C 279.587 -2.8553 -1.97711 0
M  V30 3059 C 278.541 -3.95921 -1.62575 0
M  V30 3060 C 277.867 -4.47365 -2.92864 0
M  V30 3061 C 279.167 -5.15323 -0.850838 0
M  V30 3062 H 280.861 -2.98653 -0.211295 0
M  V30 3063 H 278.407 -1.43651 -0.100188 0
M  V30 3064 H 280.36 -3.2935 -2.62881 0
M  V30 3065 H 279.084 -2.05406 -2.53921 0
M  V30 3066 H 277.743 -3.52762 -0.997719 0
M  V30 3067 H 277.391 -3.64027 -3.47122 0
M  V30 3068 H 277.091 -5.21839 -2.70106 0
M  V30 3069 H 278.615 -4.93873 -3.59056 0
M  V30 3070 H 280.029 -5.55812 -1.40521 0
M  V30 3071 H 278.426 -5.95739 -0.722154 0
M  V30 3072 H 279.496 -4.84661 0.152082 0
M  V30 3073 N 280.839 0.0985539 -1.57292 0
M  V30 3074 C 282.087 0.801092 -1.85545 0
M  V30 3075 C 282.408 1.79438 -0.763353 0
M  V30 3076 O 281.678 1.94763 0.21073 0
M  V30 3077 H 280.258 0.29884 -0.684619 0
M  V30 3078 H 282.92 0.0810064 -1.94732 0
M  V30 3079 H 282.016 1.3338 -2.82163 0
M  V30 3080 N 282.317 1.53212 0.369288 0
M  V30 3081 C 283.563 1.69466 1.11397 0
M  V30 3082 C 283.896 0.443257 1.89074 0
M  V30 3083 O 283.171 -0.559386 1.86282 0
M  V30 3084 C 283.454 2.9422 2.07621 0
M  V30 3085 C 283.307 4.29508 1.33577 0
M  V30 3086 C 284.626 3.14565 3.07794 0
M  V30 3087 H 281.745 0.616667 0.403597 0
M  V30 3088 H 284.387 1.85845 0.395179 0
M  V30 3089 H 282.537 2.80387 2.68916 0
M  V30 3090 H 284.209 4.55147 0.750955 0
M  V30 3091 H 282.452 4.29088 0.637618 0
M  V30 3092 H 283.123 5.12926 2.03989 0
M  V30 3093 H 285.599 3.2756 2.56601 0
M  V30 3094 H 284.475 4.03297 3.72348 0
M  V30 3095 H 284.736 2.29675 3.77759 0
M  V30 3096 N 283.795 -0.628877 1.44509 0
M  V30 3097 C 284.743 -1.76193 1.51852 0
M  V30 3098 C 285.737 -1.64849 0.390042 0
M  V30 3099 O 286.943 -1.709 0.565082 0
M  V30 3100 H 283.318 -0.581728 0.476547 0
M  V30 3101 H 285.289 -1.67123 2.47209 0
M  V30 3102 C 284.038 -3.14533 1.48204 0
M  V30 3103 H 283.361 -3.23911 2.34354 0
M  V30 3104 H 284.801 -3.93701 1.57402 0
M  V30 3105 C 283.26 -3.36287 0.203142 0
M  V30 3106 O 283.79 -3.9509 -0.725745 0
M  V30 3107 N 281.996 -2.90408 0.105563 0
M  V30 3108 H 281.543 -2.42739 0.862301 0
M  V30 3109 H 281.501 -3.05339 -0.749371 0
M  V30 3110 N 285.273 -1.31445 -0.869486 0
M  V30 3111 C 286.236 -1.19094 -1.9583 0
M  V30 3112 C 287.236 -0.117906 -1.60367 0
M  V30 3113 O 288.426 -0.367208 -1.70286 0
M  V30 3114 C 285.558 -0.828165 -3.30688 0
M  V30 3115 H 286.751 -2.15842 -2.08212 0
M  V30 3116 H 284.304 -1.15063 -1.05784 0
M  V30 3117 H 285.039 0.138142 -3.24006 0
M  V30 3118 H 284.824 -1.6038 -3.578 0
M  V30 3119 H 286.314 -0.765658 -4.10521 0
M  V30 3120 N 286.751 1.08385 -1.14413 0
M  V30 3121 C 287.991 1.8238 -0.922868 0
M  V30 3122 C 288.355 1.84225 0.540842 0
M  V30 3123 O 289.556 2.53985 0.880058 0
M  V30 3124 C 287.827 3.24048 -1.50757 0
M  V30 3125 S 289.386 4.14917 -1.4279 0
M  V30 3126 H 286.204 0.628524 -0.332384 0
M  V30 3127 H 288.806 1.30278 -1.45766 0
M  V30 3128 H 287.51 3.20288 -2.56601 0
M  V30 3129 H 287.041 3.81224 -0.971178 0
M  V30 3130 H 289.056 4.94473 -0.413582 0
M  V30 3131 N 288.23 0.939286 1.26551 0
M  V30 3132 C 289.479 0.581601 1.93133 0
M  V30 3133 C 289.792 -0.883224 1.74524 0
M  V30 3134 O 290.998 -1.3502 2.35546 0
M  V30 3135 C 289.454 0.989425 3.46032 0
M  V30 3136 C 289.062 2.47573 3.73379 0
M  V30 3137 C 290.806 0.703544 4.18629 0
M  V30 3138 C 288.713 2.82235 5.19709 0
M  V30 3139 H 287.643 0.213803 0.723052 0
M  V30 3140 H 290.294 1.14167 1.4366 0
M  V30 3141 H 288.676 0.357902 3.94379 0
M  V30 3142 H 289.85 3.15614 3.35744 0
M  V30 3143 H 288.165 2.73471 3.1401 0
M  V30 3144 H 290.762 0.938869 5.26393 0
M  V30 3145 H 291.105 -0.359639 4.14744 0
M  V30 3146 H 291.638 1.2947 3.76141 0
M  V30 3147 H 288.377 3.87509 5.28694 0
M  V30 3148 H 287.897 2.18854 5.58447 0
M  V30 3149 H 289.576 2.70599 5.87695 0
M  V30 3150 N 289.708 -1.40897 0.706093 0
M  V30 3151 C 290.641 -2.282 -0.00328781 0
M  V30 3152 C 291.619 -1.42816 -0.77732 0
M  V30 3153 O 292.803 -1.72237 -0.765944 0
M  V30 3154 C 289.93 -3.23226 -1.01205 0
M  V30 3155 C 288.976 -4.25222 -0.329955 0
M  V30 3156 S 289.809 -5.27269 0.935298 0
M  V30 3157 C 290.965 -6.25859 -0.0716061 0
M  V30 3158 H 291.198 -2.88016 0.737143 0
M  V30 3159 H 288.731 -1.46191 0.496756 0
M  V30 3160 H 290.689 -3.78503 -1.58888 0
M  V30 3161 H 289.35 -2.62485 -1.72513 0
M  V30 3162 H 288.543 -4.92023 -1.09221 0
M  V30 3163 H 288.145 -3.73595 0.174069 0
M  V30 3164 H 290.437 -6.71204 -0.921521 0
M  V30 3165 H 291.38 -7.0586 0.562765 0
M  V30 3166 H 291.788 -5.62852 -0.431088 0
M  V30 3167 N 291.186 -0.45159 -1.50991 0
M  V30 3168 C 292.149 0.341117 -2.26647 0
M  V30 3169 C 293.149 0.937422 -1.30649 0
M  V30 3170 O 294.339 0.809644 -1.54241 0
M  V30 3171 C 291.471 1.48398 -3.06905 0
M  V30 3172 H 292.664 -0.322117 -2.98165 0
M  V30 3173 H 290.217 -0.205122 -1.54948 0
M  V30 3174 H 290.952 2.18284 -2.39838 0
M  V30 3175 H 290.737 1.06241 -3.77432 0
M  V30 3176 H 292.227 2.04367 -3.64176 0
M  V30 3177 N 292.664 1.56529 -0.183458 0
M  V30 3178 C 293.911 1.97244 0.458357 0
M  V30 3179 C 294.239 1.06992 1.62428 0
M  V30 3180 O 293.494 0.106542 1.9541 0
M  V30 3181 C 293.793 3.43939 0.971637 0
M  V30 3182 C 293.459 4.5083 -0.0796784 0
M  V30 3183 C 292.121 4.79786 -0.368584 0
M  V30 3184 C 294.473 5.15138 -0.792638 0
M  V30 3185 C 291.801 5.70345 -1.37563 0
M  V30 3186 C 294.153 6.06784 -1.78875 0
M  V30 3187 C 292.817 6.34102 -2.08497 0
M  V30 3188 H 292.087 0.721768 0.167725 0
M  V30 3189 H 294.734 1.89472 -0.277976 0
M  V30 3190 H 293.039 3.48724 1.78602 0
M  V30 3191 H 294.736 3.72791 1.47744 0
M  V30 3192 H 291.326 4.28317 0.155668 0
M  V30 3193 H 295.51 4.92868 -0.582659 0
M  V30 3194 H 290.766 5.89789 -1.61118 0
M  V30 3195 H 294.94 6.55677 -2.3465 0
M  V30 3196 H 292.567 7.04074 -2.86678 0
M  V30 3197 N 294.142 -0.090211 1.57342 0
M  V30 3198 C 295.553 -0.644173 1.75235 0
M  V30 3199 C 295.904 -1.78865 0.806335 0
M  V30 3200 O 295.029 -2.16395 -0.0140128 0
M  V30 3201 C 295.624 -1.17532 3.1776 0
M  V30 3202 C 294.183 -1.67531 3.37061 0
M  V30 3203 C 293.33 -0.58693 2.71017 0
M  V30 3204 H 296.281 0.135884 1.58117 0
M  V30 3205 H 296.302 -2.04455 3.20902 0
M  V30 3206 H 295.814 -0.342138 3.86589 0
M  V30 3207 H 293.915 -2.53234 2.73319 0
M  V30 3208 H 294.028 -1.76493 4.45406 0
M  V30 3209 H 292.392 -1.02756 2.33052 0
M  V30 3210 H 293.175 0.235758 3.4249 0
M  V30 3211 N 295.62 -1.53406 -0.361157 0
M  V30 3212 C 297.031 -1.61442 -0.937728 0
M  V30 3213 C 297.382 -0.48461 -1.90121 0
M  V30 3214 O 296.507 0.388312 -2.12888 0
M  V30 3215 C 297.102 -2.92624 -1.70753 0
M  V30 3216 C 295.661 -3.02981 -2.23337 0
M  V30 3217 C 294.808 -2.5677 -1.04712 0
M  V30 3218 H 297.759 -1.58083 -0.139816 0
M  V30 3219 H 297.78 -2.80675 -2.56908 0
M  V30 3220 H 297.292 -3.74834 -1.00604 0
M  V30 3221 H 295.393 -2.25368 -2.96715 0
M  V30 3222 H 295.506 -4.0814 -2.50916 0
M  V30 3223 H 293.87 -2.11752 -1.41539 0
M  V30 3224 H 294.653 -3.41402 -0.360539 0
M  V30 3225 N 297.098 0.621204 -1.44841 0
M  V30 3226 C 298.008 1.7612 -1.5498 0
M  V30 3227 C 299.024 1.68477 -0.434927 0
M  V30 3228 O 300.2 1.89076 -0.693693 0
M  V30 3229 C 297.265 3.1254 -1.50065 0
M  V30 3230 C 296.326 3.31741 -2.72482 0
M  V30 3231 C 295.559 4.61653 -2.67792 0
M  V30 3232 O 295.782 5.431 -1.74352 0
M  V30 3233 O 294.716 4.83271 -3.58794 0
M  V30 3234 H 298.542 1.70518 -2.51311 0
M  V30 3235 H 296.127 0.783643 -1.27198 0
M  V30 3236 H 298.009 3.93844 -1.49882 0
M  V30 3237 H 296.684 3.18663 -0.568806 0
M  V30 3238 H 295.591 2.50077 -2.7823 0
M  V30 3239 H 296.924 3.30486 -3.64746 0
M  V30 3240 N 298.576 1.31904 0.862503 0
M  V30 3241 C 299.523 1.20182 1.9704 0
M  V30 3242 C 300.493 0.0858247 1.65878 0
M  V30 3243 O 301.678 0.26 1.8902 0
M  V30 3244 C 298.818 0.922797 3.32533 0
M  V30 3245 C 297.931 2.12284 3.76244 0
M  V30 3246 C 297.066 1.77996 5.00491 0
M  V30 3247 C 296.105 2.94366 5.36671 0
M  V30 3248 N 295.242 2.60223 6.52095 0
M  V30 3249 H 300.082 2.14951 2.06398 0
M  V30 3250 H 297.619 1.06917 1.01031 0
M  V30 3251 H 299.577 0.741548 4.10557 0
M  V30 3252 H 298.207 0.0119227 3.22798 0
M  V30 3253 H 297.259 2.41461 2.9394 0
M  V30 3254 H 298.571 2.99357 3.98982 0
M  V30 3255 H 297.725 1.56377 5.862 0
M  V30 3256 H 296.464 0.881252 4.79672 0
M  V30 3257 H 295.469 3.16625 4.49476 0
M  V30 3258 H 296.694 3.84957 5.59451 0
M  V30 3259 H 294.64 1.72884 6.32809 0
M  V30 3260 H 294.557 3.40827 6.74814 0
M  V30 3261 H 295.825 2.42016 7.40978 0
M  V30 3262 N 300.054 -1.07777 1.14986 0
M  V30 3263 C 301.284 -1.83752 0.944402 0
M  V30 3264 C 301.692 -1.8218 -0.51058 0
M  V30 3265 O 301.035 -1.22852 -1.36576 0
M  V30 3266 C 301.097 -3.32128 1.37592 0
M  V30 3267 C 300.761 -3.57425 2.84775 0
M  V30 3268 C 301.758 -3.5173 3.8286 0
M  V30 3269 C 299.443 -3.8523 3.2234 0
M  V30 3270 C 301.437 -3.73482 5.16517 0
M  V30 3271 C 299.124 -4.06634 4.56171 0
M  V30 3272 C 300.122 -4.00754 5.53069 0
M  V30 3273 O 299.81 -4.2159 6.84483 0
M  V30 3274 H 299.542 -0.58673 0.335744 0
M  V30 3275 H 302.096 -1.36982 1.53052 0
M  V30 3276 H 300.326 -3.79686 0.733165 0
M  V30 3277 H 302.015 -3.89555 1.14024 0
M  V30 3278 H 302.781 -3.30256 3.55184 0
M  V30 3279 H 298.66 -3.88923 2.47508 0
M  V30 3280 H 302.204 -3.68808 5.92137 0
M  V30 3281 H 298.101 -4.27593 4.83564 0
M  V30 3282 H 298.869 -4.38961 6.90837 0
M  V30 3283 N 301.532 -0.945985 -1.26051 0
M  V30 3284 C 302.495 -0.463897 -2.24456 0
M  V30 3285 C 303.495 0.427655 -1.55009 0
M  V30 3286 O 304.685 0.226157 -1.72726 0
M  V30 3287 C 301.817 0.330812 -3.39291 0
M  V30 3288 H 303.01 -1.33357 -2.68619 0
M  V30 3289 H 300.563 -0.728416 -1.38289 0
M  V30 3290 H 301.298 1.21852 -3.00537 0
M  V30 3291 H 301.083 -0.308679 -3.90883 0
M  V30 3292 H 302.573 0.657865 -4.12386 0
M  V30 3293 N 303.011 1.40521 -0.713556 0
M  V30 3294 C 303.943 2.29191 -0.0203126 0
M  V30 3295 C 304.956 1.45723 0.725864 0
M  V30 3296 O 306.145 1.69033 0.573581 0
M  V30 3297 C 303.245 3.2395 0.995486 0
M  V30 3298 C 302.418 4.36262 0.315256 0
M  V30 3299 C 301.477 5.11474 1.23616 0
M  V30 3300 O 300.503 5.64606 0.721719 0
M  V30 3301 N 301.705 5.20638 2.56743 0
M  V30 3302 H 304.47 2.89327 -0.781652 0
M  V30 3303 H 302.031 1.51869 -0.561022 0
M  V30 3304 H 304.023 3.71137 1.61368 0
M  V30 3305 H 302.593 2.64995 1.6582 0
M  V30 3306 H 301.813 3.91228 -0.483106 0
M  V30 3307 H 303.101 5.08558 -0.157004 0
M  V30 3308 H 302.499 4.7895 3.01037 0
M  V30 3309 H 301.056 5.71339 3.13712 0
M  V30 3310 N 304.489 0.459591 1.5075 0
M  V30 3311 C 305.735 -0.091664 2.03193 0
M  V30 3312 C 306.09 -1.38432 1.3362 0
M  V30 3313 O 305.383 -1.86257 0.449322 0
M  V30 3314 C 305.577 -0.342866 3.55752 0
M  V30 3315 C 305.406 0.923888 4.40107 0
M  V30 3316 C 304.176 1.46388 4.83631 0
M  V30 3317 C 306.374 1.81617 4.81165 0
M  V30 3318 N 304.356 2.68086 5.52271 0
M  V30 3319 C 305.727 2.87907 5.49099 0
M  V30 3320 C 307.782 1.82793 4.63132 0
M  V30 3321 C 306.485 3.95347 6.0091 0
M  V30 3322 C 308.511 2.89182 5.15876 0
M  V30 3323 C 307.873 3.94191 5.83774 0
M  V30 3324 H 303.972 0.00619247 0.781975 0
M  V30 3325 H 306.556 0.625233 1.84388 0
M  V30 3326 H 304.727 -1.0288 3.74527 0
M  V30 3327 H 306.459 -0.887445 3.9485 0
M  V30 3328 H 303.214 1.01466 4.62603 0
M  V30 3329 H 303.638 3.29857 5.91205 0
M  V30 3330 H 308.28 1.0293 4.1008 0
M  V30 3331 H 305.998 4.76035 6.53006 0
M  V30 3332 H 309.584 2.91061 5.0376 0
M  V30 3333 H 308.464 4.75161 6.23853 0
M  V30 3334 N 305.967 -1.56429 0.191757 0
M  V30 3335 C 307.192 -2.02309 -0.456706 0
M  V30 3336 C 307.617 -1.07103 -1.5463 0
M  V30 3337 O 306.975 -0.0539677 -1.8122 0
M  V30 3338 C 307.023 -3.46654 -0.993159 0
M  V30 3339 O 306.127 -3.54559 -2.10622 0
M  V30 3340 H 305.468 -0.655303 -0.107114 0
M  V30 3341 H 307.998 -2.02364 0.301653 0
M  V30 3342 H 308.008 -3.86377 -1.31061 0
M  V30 3343 H 306.683 -4.1544 -0.195504 0
M  V30 3344 H 305.26 -3.26708 -1.79767 0
M  V30 3345 N 307.445 0.0818655 -1.57387 0
M  V30 3346 C 308.408 1.08265 -2.02018 0
M  V30 3347 C 309.408 1.32183 -0.915664 0
M  V30 3348 O 310.598 1.28073 -1.18081 0
M  V30 3349 C 307.73 2.42871 -2.39221 0
M  V30 3350 H 308.923 0.698204 -2.91659 0
M  V30 3351 H 306.476 0.327303 -1.52835 0
M  V30 3352 H 307.211 2.86167 -1.52575 0
M  V30 3353 H 306.996 2.26855 -3.19811 0
M  V30 3354 H 308.486 3.14826 -2.74362 0
M  V30 3355 N 308.923 1.53595 0.353017 0
M  V30 3356 C 310.171 1.70049 1.09215 0
M  V30 3357 C 310.492 0.461406 1.89463 0
M  V30 3358 O 309.762 -0.524633 1.88744 0
M  V30 3359 H 308.342 0.626912 0.40619 0
M  V30 3360 H 311.004 1.90822 0.396585 0
M  V30 3361 H 310.1 2.56718 1.77488 0
M  V30 3362 N 310.401 -0.613514 1.45168 0
M  V30 3363 C 311.65 -1.36874 1.4815 0
M  V30 3364 C 311.963 -1.952 0.124982 0
M  V30 3365 O 313.169 -2.71481 0.0324176 0
M  V30 3366 C 311.625 -2.47905 2.60904 0
M  V30 3367 C 311.233 -1.96016 4.02842 0
M  V30 3368 C 312.977 -3.24965 2.73126 0
M  V30 3369 C 310.884 -3.04494 5.06988 0
M  V30 3370 H 309.814 -0.514428 0.551253 0
M  V30 3371 H 312.465 -0.658182 1.7129 0
M  V30 3372 H 310.847 -3.21618 2.31037 0
M  V30 3373 H 312.021 -1.29051 4.4236 0
M  V30 3374 H 310.336 -1.31719 3.95018 0
M  V30 3375 H 312.933 -4.05865 3.48106 0
M  V30 3376 H 313.276 -3.75588 1.79553 0
M  V30 3377 H 313.809 -2.5835 3.0249 0
M  V30 3378 H 310.548 -2.58795 6.0225 0
M  V30 3379 H 310.068 -3.70044 4.72046 0
M  V30 3380 H 311.747 -3.68976 5.31475 0
M  V30 3381 N 311.879 -1.3236 -0.855495 0
M  V30 3382 C 312.842 -1.21164 -1.94556 0
M  V30 3383 C 313.842 -0.134908 -1.60233 0
M  V30 3384 O 315.032 -0.385249 -1.69887 0
M  V30 3385 C 312.164 -0.863192 -3.29791 0
M  V30 3386 H 313.357 -2.18038 -2.05911 0
M  V30 3387 H 310.91 -1.16179 -1.04557 0
M  V30 3388 H 311.645 0.103769 -3.24134 0
M  V30 3389 H 311.43 -1.64166 -3.56078 0
M  V30 3390 H 312.92 -0.809156 -4.09686 0
M  V30 3391 N 313.357 1.07166 -1.15556 0
M  V30 3392 C 314.287 2.16403 -0.877046 0
M  V30 3393 C 315.268 1.69217 0.173111 0
M  V30 3394 O 316.453 1.94181 0.027084 0
M  V30 3395 C 313.583 3.45349 -0.367632 0
M  V30 3396 C 312.537 4.05995 -1.35468 0
M  V30 3397 C 311.863 5.30045 -0.704038 0
M  V30 3398 C 313.163 4.45804 -2.72132 0
M  V30 3399 H 314.857 2.39959 -1.79053 0
M  V30 3400 H 312.403 1.15325 -0.862331 0
M  V30 3401 H 314.356 4.21095 -0.160317 0
M  V30 3402 H 313.08 3.21385 0.581326 0
M  V30 3403 H 311.739 3.32296 -1.54839 0
M  V30 3404 H 311.387 5.02373 0.251128 0
M  V30 3405 H 311.087 5.71579 -1.36277 0
M  V30 3406 H 312.611 6.08495 -0.50654 0
M  V30 3407 H 314.025 5.12671 -2.56595 0
M  V30 3408 H 312.422 4.98296 -3.34397 0
M  V30 3409 H 313.492 3.57083 -3.28054 0
M  V30 3410 N 314.835 0.952656 1.25548 0
M  V30 3411 C 315.768 0.415525 2.24385 0
M  V30 3412 C 316.746 -0.502046 1.54655 0
M  V30 3413 O 317.93 -0.436875 1.83368 0
M  V30 3414 C 315.057 -0.401734 3.36309 0
M  V30 3415 C 314.103 0.455949 4.24056 0
M  V30 3416 S 314.936 1.88698 5.01152 0
M  V30 3417 C 316.092 1.07809 6.16545 0
M  V30 3418 H 316.325 1.25315 2.69599 0
M  V30 3419 H 313.858 0.756587 1.34592 0
M  V30 3420 H 315.816 -0.867329 4.01233 0
M  V30 3421 H 314.477 -1.21416 2.89684 0
M  V30 3422 H 313.67 -0.170776 5.03711 0
M  V30 3423 H 313.272 0.856675 3.64056 0
M  V30 3424 H 315.564 0.325816 6.76716 0
M  V30 3425 H 316.507 1.84849 6.83547 0
M  V30 3426 H 316.915 0.60909 5.61204 0
M  V30 3427 N 316.313 -1.40141 0.720998 0
M  V30 3428 C 317.26 -2.30688 0.071919 0
M  V30 3429 C 318.23 -1.48476 -0.744584 0
M  V30 3430 O 319.415 -1.77201 -0.707423 0
M  V30 3431 C 316.555 -3.34724 -0.839855 0
M  V30 3432 C 315.668 -4.31998 -0.0122438 0
M  V30 3433 C 314.803 -5.23102 -0.923995 0
M  V30 3434 C 313.842 -6.12033 -0.0907969 0
M  V30 3435 N 312.979 -6.95537 -0.957718 0
M  V30 3436 H 317.819 -2.85628 0.849755 0
M  V30 3437 H 315.356 -1.40653 0.430726 0
M  V30 3438 H 317.314 -3.93618 -1.38279 0
M  V30 3439 H 315.944 -2.81274 -1.58381 0
M  V30 3440 H 314.996 -3.74841 0.64794 0
M  V30 3441 H 316.308 -4.94772 0.632595 0
M  V30 3442 H 315.462 -5.86953 -1.53527 0
M  V30 3443 H 314.201 -4.60615 -1.60264 0
M  V30 3444 H 313.206 -5.47207 0.533377 0
M  V30 3445 H 314.431 -6.76581 0.584428 0
M  V30 3446 H 312.377 -6.35633 -1.62192 0
M  V30 3447 H 312.294 -7.55099 -0.36904 0
M  V30 3448 H 313.562 -7.63832 -1.555 0
M  V30 3449 N 317.792 -0.46758 -1.50504 0
M  V30 3450 C 318.74 0.342482 -2.30065 0
M  V30 3451 C 319.734 0.993596 -1.37201 0
M  V30 3452 O 320.94 0.925102 -1.54408 0
M  V30 3453 H 317.315 0.129283 -0.740803 0
M  V30 3454 H 319.286 -0.34899 -2.96352 0
M  V30 3455 C 318.035 1.4139 -3.17654 0
M  V30 3456 H 317.358 0.922264 -3.89017 0
M  V30 3457 H 318.798 1.95335 -3.76325 0
M  V30 3458 C 317.257 2.4139 -2.35016 0
M  V30 3459 O 317.787 3.46586 -2.03079 0
M  V30 3460 N 315.993 2.13021 -1.97662 0
M  V30 3461 H 315.54 1.27499 -2.23834 0
M  V30 3462 H 315.498 2.80164 -1.42673 0
M  V30 3463 N 319.27 1.56325 -0.20005 0
M  V30 3464 C 320.519 1.96895 0.437652 0
M  V30 3465 C 320.832 1.08999 1.62415 0
M  V30 3466 O 322.038 1.39372 2.32997 0
M  V30 3467 C 320.494 3.50198 0.830025 0
M  V30 3468 C 320.102 4.46765 -0.332461 0
M  V30 3469 C 321.846 3.99526 1.43453 0
M  V30 3470 C 319.753 5.91344 0.0811468 0
M  V30 3471 H 318.683 0.735209 0.167282 0
M  V30 3472 H 321.334 1.81148 -0.292853 0
M  V30 3473 H 319.716 3.61467 1.61734 0
M  V30 3474 H 320.89 4.47231 -1.11 0
M  V30 3475 H 319.205 4.07657 -0.848789 0
M  V30 3476 H 321.802 5.05025 1.75652 0
M  V30 3477 H 322.145 3.44122 2.34277 0
M  V30 3478 H 322.678 3.91393 0.71109 0
M  V30 3479 H 319.417 6.50685 -0.793033 0
M  V30 3480 H 318.937 5.94121 0.823445 0
M  V30 3481 H 320.616 6.44945 0.515252 0
M  V30 3482 N 320.748 -0.0735177 1.57428 0
M  V30 3483 C 321.678 -1.0879 2.06608 0
M  V30 3484 C 322.659 -1.40473 0.959237 0
M  V30 3485 O 323.844 -1.5013 1.23185 0
M  V30 3486 C 320.974 -2.40183 2.50857 0
M  V30 3487 C 319.928 -2.22858 3.65402 0
M  V30 3488 C 319.254 -3.59619 3.957 0
M  V30 3489 C 320.554 -1.65123 4.95511 0
M  V30 3490 H 322.248 -0.678673 2.91607 0
M  V30 3491 H 319.794 -0.325013 1.40284 0
M  V30 3492 H 321.747 -3.11437 2.83874 0
M  V30 3493 H 320.471 -2.83083 1.62885 0
M  V30 3494 H 319.13 -1.54045 3.32664 0
M  V30 3495 H 318.778 -4.00086 3.04861 0
M  V30 3496 H 318.478 -3.48866 4.72828 0
M  V30 3497 H 320.002 -4.32306 4.31212 0
M  V30 3498 H 321.416 -2.26241 5.26771 0
M  V30 3499 H 319.813 -1.65071 5.7695 0
M  V30 3500 H 320.883 -0.612559 4.81015 0
M  V30 3501 N 322.226 -1.5378 -0.344866 0
M  V30 3502 C 323.474 -1.70625 -1.08311 0
M  V30 3503 C 323.795 -0.471447 -1.89215 0
M  V30 3504 O 323.065 0.514616 -1.8902 0
M  V30 3505 H 321.645 -0.629058 -0.402859 0
M  V30 3506 H 324.307 -1.9103 -0.386459 0
M  V30 3507 H 323.403 -2.57656 -1.76124 0
M  V30 3508 N 323.704 0.605807 -1.45491 0
M  V30 3509 C 324.951 1.36476 -1.49601 0
M  V30 3510 C 325.279 1.94007 -0.138452 0
M  V30 3511 O 324.534 1.75638 0.863114 0
M  V30 3512 C 324.833 2.53012 -2.52428 0
M  V30 3513 C 324.499 2.13617 -3.97087 0
M  V30 3514 C 323.161 2.02587 -4.36477 0
M  V30 3515 C 325.513 1.82899 -4.88055 0
M  V30 3516 C 322.841 1.59064 -5.64726 0
M  V30 3517 C 325.193 1.40861 -6.16718 0
M  V30 3518 C 323.857 1.28391 -6.55036 0
M  V30 3519 H 323.127 0.499402 -0.547429 0
M  V30 3520 H 325.774 0.684546 -1.78847 0
M  V30 3521 H 324.079 3.26379 -2.16758 0
M  V30 3522 H 325.776 3.1124 -2.52845 0
M  V30 3523 H 322.366 2.23129 -3.65939 0
M  V30 3524 H 326.55 1.90317 -4.58359 0
M  V30 3525 H 321.806 1.48034 -5.93208 0
M  V30 3526 H 325.98 1.16138 -6.86648 0
M  V30 3527 H 323.607 0.944403 -7.54311 0
M  V30 3528 N 325.182 1.32811 0.848464 0
M  V30 3529 C 326.431 1.23075 1.59798 0
M  V30 3530 C 326.744 -0.204419 1.94529 0
M  V30 3531 O 327.95 -0.423701 2.68173 0
M  V30 3532 C 326.406 2.15594 2.88179 0
M  V30 3533 C 326.014 3.64228 2.60849 0
M  V30 3534 C 327.758 2.14709 3.66197 0
M  V30 3535 C 325.665 4.48689 3.85269 0
M  V30 3536 H 324.595 0.457091 0.599653 0
M  V30 3537 H 327.246 1.57813 0.936342 0
M  V30 3538 H 325.628 1.73778 3.55833 0
M  V30 3539 H 326.802 4.14424 2.01467 0
M  V30 3540 H 325.117 3.67306 1.96151 0
M  V30 3541 H 327.714 2.75046 4.58534 0
M  V30 3542 H 328.057 1.13966 4.00397 0
M  V30 3543 H 328.59 2.54837 3.05455 0
M  V30 3544 H 325.329 5.5027 3.56207 0
M  V30 3545 H 324.849 4.03241 4.44024 0
M  V30 3546 H 326.528 4.62006 4.52946 0
M  V30 3547 N 326.66 -1.06551 1.16123 0
M  V30 3548 C 327.909 -1.78687 0.935622 0
M  V30 3549 C 328.222 -1.88056 -0.538001 0
M  V30 3550 O 329.428 -2.56794 -0.88143 0
M  V30 3551 C 327.884 -3.21143 1.62466 0
M  V30 3552 C 327.492 -3.19949 3.13587 0
M  V30 3553 C 329.236 -3.9783 1.48092 0
M  V30 3554 C 327.143 -4.57108 3.75241 0
M  V30 3555 H 326.073 -0.669712 0.346412 0
M  V30 3556 H 328.724 -1.19534 1.39226 0
M  V30 3557 H 327.106 -3.80539 1.09572 0
M  V30 3558 H 328.28 -2.70151 3.73303 0
M  V30 3559 H 326.595 -2.5676 3.27816 0
M  V30 3560 H 329.192 -4.99217 1.91538 0
M  V30 3561 H 329.535 -4.14078 0.429507 0
M  V30 3562 H 330.068 -3.4495 1.98127 0
M  V30 3563 H 326.807 -4.46065 4.80319 0
M  V30 3564 H 326.327 -5.07111 3.20309 0
M  V30 3565 H 328.006 -5.26069 3.76644 0
M  V30 3566 N 328.138 -0.959301 -1.25041 0
M  V30 3567 C 329.549 -0.65667 -1.74771 0
M  V30 3568 C 329.9 0.827852 -1.77879 0
M  V30 3569 O 329.025 1.64783 -1.40269 0
M  V30 3570 C 329.62 -1.1853 -3.1739 0
M  V30 3571 C 328.179 -0.932734 -3.6466 0
M  V30 3572 C 327.326 -1.32558 -2.43564 0
M  V30 3573 H 330.277 -1.13558 -1.10862 0
M  V30 3574 H 330.298 -0.547582 -3.76539 0
M  V30 3575 H 329.81 -2.26576 -3.15095 0
M  V30 3576 H 327.911 0.13257 -3.72364 0
M  V30 3577 H 328.024 -1.57248 -4.52559 0
M  V30 3578 H 326.388 -0.743956 -2.43593 0
M  V30 3579 H 327.171 -2.41537 -2.43957 0
M  V30 3580 N 329.616 1.39756 -0.72842 0
M  V30 3581 C 330.546 2.33289 -0.0991354 0
M  V30 3582 C 331.527 1.53568 0.731489 0
M  V30 3583 O 332.712 1.81987 0.677807 0
M  V30 3584 C 329.842 3.3763 0.813834 0
M  V30 3585 C 328.796 4.2791 0.0878663 0
M  V30 3586 C 328.122 5.22894 1.11741 0
M  V30 3587 C 329.422 5.11314 -1.06563 0
M  V30 3588 H 331.116 2.86163 -0.880408 0
M  V30 3589 H 328.662 1.37591 -0.424819 0
M  V30 3590 H 330.615 4.0201 1.26355 0
M  V30 3591 H 329.339 2.83181 1.62715 0
M  V30 3592 H 327.998 3.65 -0.342159 0
M  V30 3593 H 327.646 4.64744 1.92412 0
M  V30 3594 H 327.346 5.84143 0.636477 0
M  V30 3595 H 328.87 5.90151 1.56697 0
M  V30 3596 H 330.284 5.69076 -0.694671 0
M  V30 3597 H 328.681 5.81671 -1.47577 0
M  V30 3598 H 329.751 4.46534 -1.89038 0
M  V30 3599 N 331.094 0.475555 1.50254 0
M  V30 3600 C 332.343 -0.0795996 2.01543 0
M  V30 3601 C 332.656 -1.4038 1.36209 0
M  V30 3602 O 333.862 -2.04415 1.7868 0
M  V30 3603 C 332.318 -0.192363 3.59386 0
M  V30 3604 C 331.926 1.12367 4.33679 0
M  V30 3605 C 333.67 -0.699238 4.18701 0
M  V30 3606 C 331.577 0.974453 5.83317 0
M  V30 3607 H 330.507 -0.0335228 0.753254 0
M  V30 3608 H 333.158 0.611128 1.73025 0
M  V30 3609 H 331.54 -0.946974 3.84511 0
M  V30 3610 H 332.714 1.88958 4.20276 0
M  V30 3611 H 331.029 1.562 3.85993 0
M  V30 3612 H 333.626 -0.827978 5.28251 0
M  V30 3613 H 333.969 -1.69171 3.80377 0
M  V30 3614 H 334.502 -0.00188807 3.978 0
M  V30 3615 H 331.241 1.94042 6.26121 0
M  V30 3616 H 330.761 0.248998 5.99283 0
M  V30 3617 H 332.44 0.642867 6.43798 0
M  V30 3618 N 332.573 -1.56217 0.208337 0
M  V30 3619 C 333.82 -1.97949 -0.42692 0
M  V30 3620 C 334.148 -1.09562 -1.60706 0
M  V30 3621 O 333.403 -0.137616 -1.95216 0
M  V30 3622 C 333.702 -3.45441 -0.916797 0
M  V30 3623 C 333.368 -4.50646 0.151391 0
M  V30 3624 C 332.03 -4.79139 0.444867 0
M  V30 3625 C 334.382 -5.13811 0.874492 0
M  V30 3626 C 331.71 -5.68084 1.46619 0
M  V30 3627 C 334.062 -6.03861 1.88506 0
M  V30 3628 C 332.726 -6.30704 2.18559 0
M  V30 3629 H 331.996 -0.724345 -0.156221 0
M  V30 3630 H 334.643 -1.89006 0.308084 0
M  V30 3631 H 332.948 -3.51521 -1.73032 0
M  V30 3632 H 334.645 -3.75094 -1.41794 0
M  V30 3633 H 331.235 -4.28511 -0.0875068 0
M  V30 3634 H 335.419 -4.91879 0.660996 0
M  V30 3635 H 330.675 -5.87151 1.7048 0
M  V30 3636 H 334.849 -6.51861 2.45051 0
M  V30 3637 H 332.476 -6.99424 2.97843 0
M  V30 3638 N 334.051 0.0651679 -1.57465 0
M  V30 3639 C 335.3 0.761916 -1.86756 0
M  V30 3640 C 335.613 1.78406 -0.801925 0
M  V30 3641 O 336.819 2.53084 -0.982885 0
M  V30 3642 C 335.275 1.40603 -3.31299 0
M  V30 3643 C 334.883 0.422115 -4.46007 0
M  V30 3644 C 336.627 2.08476 -3.69781 0
M  V30 3645 C 334.534 1.07252 -5.81593 0
M  V30 3646 H 333.464 0.288308 -0.696702 0
M  V30 3647 H 336.115 0.015344 -1.83494 0
M  V30 3648 H 334.497 2.20109 -3.29193 0
M  V30 3649 H 335.671 -0.343613 -4.59517 0
M  V30 3650 H 333.986 -0.152527 -4.16121 0
M  V30 3651 H 336.583 2.57925 -4.68379 0
M  V30 3652 H 336.926 2.88712 -2.99919 0
M  V30 3653 H 337.459 1.35792 -3.73905 0
M  V30 3654 H 334.198 0.310342 -6.54765 0
M  V30 3655 H 333.718 1.80895 -5.71872 0
M  V30 3656 H 335.397 1.59043 -6.27148 0
M  V30 3657 N 335.529 1.53961 0.336706 0
M  V30 3658 C 336.492 1.81724 1.39675 0
M  V30 3659 C 337.492 0.688532 1.45313 0
M  V30 3660 O 338.682 0.956829 1.45569 0
M  V30 3661 C 335.814 1.96543 2.78538 0
M  V30 3662 H 337.007 2.76424 1.16318 0
M  V30 3663 H 334.56 1.45478 0.571474 0
M  V30 3664 H 335.295 1.0401 3.07168 0
M  V30 3665 H 335.08 2.78665 2.75841 0
M  V30 3666 H 336.57 2.19516 3.5525 0
M  V30 3667 N 337.007 -0.598083 1.45811 0
M  V30 3668 C 338.235 -1.38322 1.53866 0
M  V30 3669 C 338.65 -1.87992 0.174479 0
M  V30 3670 O 338.007 -1.62756 -0.825627 0
M  V30 3671 C 338.058 -2.58125 2.53089 0
M  V30 3672 O 337.779 -2.10516 3.84206 0
M  V30 3673 C 339.28 -3.50869 2.70935 0
M  V30 3674 H 336.5 -0.423093 0.520801 0
M  V30 3675 H 339.044 -0.728527 1.91083 0
M  V30 3676 H 337.199 -3.19615 2.18917 0
M  V30 3677 H 337.613 -2.88425 4.38077 0
M  V30 3678 H 339.087 -4.31451 3.44317 0
M  V30 3679 H 339.564 -4.01822 1.77301 0
M  V30 3680 H 340.17 -2.95225 3.06141 0
M  V30 3681 N 338.485 -1.33259 -0.841409 0
M  V30 3682 C 339.725 -1.25902 -1.61022 0
M  V30 3683 C 340.089 0.173325 -1.91216 0
M  V30 3684 O 341.29 0.370824 -2.6623 0
M  V30 3685 C 339.561 -2.10735 -2.88662 0
M  V30 3686 S 341.12 -2.20541 -3.79351 0
M  V30 3687 H 337.938 -0.447958 -0.552137 0
M  V30 3688 H 340.54 -1.68263 -0.995382 0
M  V30 3689 H 339.244 -3.1384 -2.64448 0
M  V30 3690 H 338.775 -1.69201 -3.55154 0
M  V30 3691 H 340.79 -1.36462 -4.77067 0
M  V30 3692 N 339.963 1.05934 -1.16686 0
M  V30 3693 C 341.193 1.82226 -0.973515 0
M  V30 3694 C 341.601 1.8297 0.481532 0
M  V30 3695 O 340.944 1.25009 1.34604 0
M  V30 3696 C 341.006 3.29897 -1.42858 0
M  V30 3697 C 340.67 3.52849 -2.90425 0
M  V30 3698 C 341.667 3.45595 -3.88407 0
M  V30 3699 C 339.352 3.80053 -3.28428 0
M  V30 3700 C 341.346 3.65217 -5.22394 0
M  V30 3701 C 339.033 3.99325 -4.62583 0
M  V30 3702 C 340.031 3.91905 -5.59374 0
M  V30 3703 O 339.719 4.10647 -6.91104 0
M  V30 3704 H 339.451 0.581314 -0.345036 0
M  V30 3705 H 342.005 1.3453 -1.55212 0
M  V30 3706 H 340.235 3.78472 -0.793477 0
M  V30 3707 H 341.924 3.87692 -1.20207 0
M  V30 3708 H 342.69 3.24564 -3.60393 0
M  V30 3709 H 338.569 3.84936 -2.53664 0
M  V30 3710 H 342.113 3.59341 -5.9793 0
M  V30 3711 H 338.01 4.19846 -4.90306 0
M  V30 3712 H 338.778 4.27915 -6.97733 0
M  V30 3713 N 341.441 0.965919 1.2453 0
M  V30 3714 C 342.688 0.626831 1.92554 0
M  V30 3715 C 343.016 -0.837739 1.75534 0
M  V30 3716 O 342.271 -1.61793 1.10098 0
M  V30 3717 C 342.57 0.945428 3.44669 0
M  V30 3718 C 342.236 2.39785 3.81856 0
M  V30 3719 C 340.898 2.79483 3.91718 0
M  V30 3720 C 343.25 3.34055 4.00071 0
M  V30 3721 C 340.578 4.12496 4.1721 0
M  V30 3722 C 342.93 4.66694 4.27059 0
M  V30 3723 C 341.594 5.06172 4.3514 0
M  V30 3724 H 340.864 0.229374 0.704605 0
M  V30 3725 H 343.511 1.21707 1.4785 0
M  V30 3726 H 341.816 0.272926 3.90848 0
M  V30 3727 H 343.513 0.661484 3.95507 0
M  V30 3728 H 340.103 2.08003 3.74743 0
M  V30 3729 H 344.287 3.04571 3.91855 0
M  V30 3730 H 339.543 4.42709 4.21685 0
M  V30 3731 H 343.717 5.3971 4.40097 0
M  V30 3732 H 341.344 6.09262 4.54646 0
M  V30 3733 N 342.919 -1.39368 0.735821 0
M  V30 3734 C 344.167 -2.00101 0.283562 0
M  V30 3735 C 344.488 -1.5868 -1.13338 0
M  V30 3736 O 343.758 -0.835423 -1.77193 0
M  V30 3737 H 342.338 -0.740024 0.101851 0
M  V30 3738 H 345 -1.70404 0.945962 0
M  V30 3739 H 344.096 -3.10323 0.332604 0
M  V30 3740 N 344.397 -0.483516 -1.5 0
M  V30 3741 C 345.646 0.0689102 -2.01582 0
M  V30 3742 C 345.959 1.39655 -1.36952 0
M  V30 3743 O 347.165 2.03465 -1.79762 0
M  V30 3744 C 345.621 0.173302 -3.59483 0
M  V30 3745 C 345.229 -1.14665 -4.33077 0
M  V30 3746 C 346.973 0.677024 -4.19066 0
M  V30 3747 C 344.88 -1.00537 -5.82792 0
M  V30 3748 H 343.81 0.0295277 -0.753422 0
M  V30 3749 H 346.461 -0.620295 -1.72698 0
M  V30 3750 H 344.843 0.926569 -3.85007 0
M  V30 3751 H 346.017 -1.91184 -4.19268 0
M  V30 3752 H 344.332 -1.58244 -3.85159 0
M  V30 3753 H 346.929 0.799952 -5.28682 0
M  V30 3754 H 347.272 1.67151 -3.81269 0
M  V30 3755 H 347.805 -0.0192083 -3.97795 0
M  V30 3756 H 344.544 -1.9736 -6.25083 0
M  V30 3757 H 344.064 -0.280776 -5.99142 0
M  V30 3758 H 345.743 -0.677 -6.43448 0
M  V30 3759 N 345.875 1.56104 -0.216619 0
M  V30 3760 C 347.291 1.58995 0.13886 0
M  V30 3761 C 347.491 1.23333 1.59346 0
M  V30 3762 O 346.547 0.966234 2.33281 0
M  V30 3763 C 347.86 3.00143 -0.182968 0
M  V30 3764 C 349.408 3.12751 -0.124807 0
M  V30 3765 C 349.883 4.56068 -0.420241 0
M  V30 3766 N 351.374 4.61723 -0.369634 0
M  V30 3767 C 352.109 5.70542 -0.571789 0
M  V30 3768 N 351.605 6.87744 -0.835453 0
M  V30 3769 N 353.398 5.59831 -0.504563 0
M  V30 3770 H 345.549 1.77562 -1.16557 0
M  V30 3771 H 347.812 0.825091 -0.466828 0
M  V30 3772 H 347.518 3.30871 -1.19237 0
M  V30 3773 H 347.392 3.73813 0.504367 0
M  V30 3774 H 349.779 2.81822 0.875223 0
M  V30 3775 H 349.86 2.41421 -0.845544 0
M  V30 3776 H 349.504 4.87713 -1.41769 0
M  V30 3777 H 349.434 5.25617 0.321631 0
M  V30 3778 H 351.925 3.77502 -0.173338 0
M  V30 3779 H 352.238 7.66587 -0.977938 0
M  V30 3780 H 350.583 6.895 -0.872592 0
M  V30 3781 H 353.774 4.67145 -0.298842 0
M  V30 3782 H 353.947 6.44573 -0.665519 0
M  V30 3783 N 347.353 -0.0568162 1.57498 0
M  V30 3784 C 348.3 -1.06591 2.04712 0
M  V30 3785 C 349.27 -1.3758 0.930644 0
M  V30 3786 O 350.455 -1.48392 1.19935 0
M  V30 3787 C 347.595 -2.3701 2.50839 0
M  V30 3788 C 346.708 -2.12421 3.76167 0
M  V30 3789 C 345.843 -3.36511 4.11015 0
M  V30 3790 C 344.882 -3.07353 5.2934 0
M  V30 3791 N 344.019 -4.23816 5.59754 0
M  V30 3792 H 348.859 -0.65631 2.90683 0
M  V30 3793 H 346.396 -0.312481 1.43743 0
M  V30 3794 H 348.354 -3.13175 2.7564 0
M  V30 3795 H 346.984 -2.75744 1.67825 0
M  V30 3796 H 346.036 -1.2688 3.58616 0
M  V30 3797 H 347.348 -1.86894 4.62463 0
M  V30 3798 H 346.502 -4.21062 4.36797 0
M  V30 3799 H 345.241 -3.65128 3.23315 0
M  V30 3800 H 344.246 -2.212 5.03339 0
M  V30 3801 H 345.471 -2.80043 6.1867 0
M  V30 3802 H 343.417 -4.52436 4.75014 0
M  V30 3803 H 343.334 -4.01614 6.40501 0
M  V30 3804 H 344.602 -5.0932 5.90096 0
M  V30 3805 N 348.832 -1.54138 -0.328536 0
M  V30 3806 C 349.782 -1.79557 -1.4051 0
M  V30 3807 C 350.766 -0.651373 -1.47126 0
M  V30 3808 O 351.958 -0.911226 -1.51742 0
M  V30 3809 C 349.087 -2.02196 -2.77438 0
M  V30 3810 C 348.173 -3.22724 -2.75155 0
M  V30 3811 N 348.564 -4.43881 -2.42494 0
M  V30 3812 C 346.862 -3.24196 -3.06289 0
M  V30 3813 C 347.563 -5.25797 -2.48822 0
M  V30 3814 N 346.539 -4.62862 -2.8506 0
M  V30 3815 H 350.341 -2.70814 -1.1418 0
M  V30 3816 H 347.855 -1.53265 -0.536991 0
M  V30 3817 H 349.852 -2.18546 -3.55026 0
M  V30 3818 H 348.512 -1.12191 -3.04702 0
M  V30 3819 H 349.523 -4.70969 -2.15428 0
M  V30 3820 H 346.2 -2.44208 -3.38627 0
M  V30 3821 H 347.59 -6.32535 -2.26603 0
M  V30 3822 N 350.31 0.590341 -1.46126 0
M  V30 3823 C 351.24 1.71032 -1.58966 0
M  V30 3824 C 352.221 1.64302 -0.440335 0
M  V30 3825 O 353.406 1.82436 -0.665634 0
M  V30 3826 C 350.536 3.09665 -1.57241 0
M  V30 3827 C 349.49 3.31221 -2.71066 0
M  V30 3828 C 348.816 4.70303 -2.54399 0
M  V30 3829 C 350.116 3.19796 -4.1295 0
M  V30 3830 H 351.81 1.60543 -2.52718 0
M  V30 3831 H 349.356 0.770933 -1.21625 0
M  V30 3832 H 351.309 3.87831 -1.64819 0
M  V30 3833 H 350.033 3.21036 -0.600289 0
M  V30 3834 H 348.692 2.55452 -2.62944 0
M  V30 3835 H 348.34 4.78429 -1.55288 0
M  V30 3836 H 348.04 4.85679 -3.30741 0
M  V30 3837 H 349.564 5.50647 -2.63857 0
M  V30 3838 H 350.978 3.87815 -4.22223 0
M  V30 3839 H 349.375 3.46696 -4.89818 0
M  V30 3840 H 350.445 2.16983 -4.33643 0
M  V30 3841 N 351.788 1.33704 0.83433 0
M  V30 3842 C 352.718 1.26967 1.95963 0
M  V30 3843 C 353.699 0.149337 1.69443 0
M  V30 3844 O 354.884 0.339852 1.91203 0
M  V30 3845 C 352.014 1.01275 3.32206 0
M  V30 3846 C 350.968 2.09652 3.73136 0
M  V30 3847 C 350.294 1.69166 5.07235 0
M  V30 3848 C 351.594 3.51372 3.86439 0
M  V30 3849 H 353.288 2.2112 2.01857 0
M  V30 3850 H 350.834 1.06447 0.969793 0
M  V30 3851 H 352.787 0.952106 4.10503 0
M  V30 3852 H 351.511 0.0356203 3.26581 0
M  V30 3853 H 350.17 2.14766 2.97104 0
M  V30 3854 H 349.818 0.701437 4.98085 0
M  V30 3855 H 349.518 2.41694 5.35591 0
M  V30 3856 H 351.042 1.64576 5.88003 0
M  V30 3857 H 352.456 3.48734 4.55036 0
M  V30 3858 H 350.853 4.22425 4.26236 0
M  V30 3859 H 351.923 3.89546 2.88759 0
M  V30 3860 N 353.266 -1.05314 1.17247 0
M  V30 3861 C 354.213 -2.13031 0.888058 0
M  V30 3862 C 355.183 -1.65253 -0.167537 0
M  V30 3863 O 356.368 -1.90775 -0.0305974 0
M  V30 3864 C 353.508 -3.42702 0.406147 0
M  V30 3865 C 352.621 -4.04161 1.52572 0
M  V30 3866 C 351.756 -5.21744 0.997808 0
M  V30 3867 C 350.795 -5.75207 2.09291 0
M  V30 3868 N 349.932 -6.84094 1.57986 0
M  V30 3869 H 354.772 -2.36698 1.81048 0
M  V30 3870 H 352.309 -1.16121 0.903013 0
M  V30 3871 H 354.267 -4.17059 0.108305 0
M  V30 3872 H 352.897 -3.19222 -0.479313 0
M  V30 3873 H 351.949 -3.27253 1.93931 0
M  V30 3874 H 353.261 -4.39881 2.35172 0
M  V30 3875 H 352.415 -6.03168 0.653739 0
M  V30 3876 H 351.154 -4.87495 0.141232 0
M  V30 3877 H 350.159 -4.92414 2.44557 0
M  V30 3878 H 351.384 -6.11505 2.95362 0
M  V30 3879 H 349.33 -6.51745 0.74598 0
M  V30 3880 H 349.247 -7.18811 2.34195 0
M  V30 3881 H 350.515 -7.69172 1.26468 0
M  V30 3882 N 354.744 -0.972509 -1.24016 0
M  V30 3883 C 355.972 -0.654803 -1.96265 0
M  V30 3884 C 356.387 0.776708 -1.72083 0
M  V30 3885 O 355.744 1.52171 -1.00748 0
M  V30 3886 C 355.795 -0.92592 -3.49441 0
M  V30 3887 O 355.516 -2.30116 -3.72798 0
M  V30 3888 C 357.017 -0.623068 -4.38899 0
M  V30 3889 H 354.237 -0.243907 -0.6251 0
M  V30 3890 H 356.781 -1.30175 -1.57717 0
M  V30 3891 H 354.936 -0.325108 -3.86033 0
M  V30 3892 H 355.35 -2.38483 -4.67147 0
M  V30 3893 H 356.824 -0.863189 -5.45209 0
M  V30 3894 H 357.301 0.442754 -4.36963 0
M  V30 3895 H 357.907 -1.204 -4.07902 0
M  V30 3896 N 356.222 1.38976 -0.743202 0
M  V30 3897 C 357.17 2.32394 -0.0978389 0
M  V30 3898 C 358.164 1.53486 0.716824 0
M  V30 3899 O 359.37 1.69092 0.617088 0
M  V30 3900 H 355.745 0.75189 -0.0128402 0
M  V30 3901 H 357.716 2.84441 -0.901981 0
M  V30 3902 C 356.465 3.38629 0.789036 0
M  V30 3903 H 355.788 3.99432 0.171559 0
M  V30 3904 H 357.228 4.06426 1.20807 0
M  V30 3905 C 355.687 2.76347 1.92702 0
M  V30 3906 O 356.217 2.64836 3.02034 0
M  V30 3907 N 354.423 2.34311 1.71891 0
M  V30 3908 H 353.97 2.43873 0.829675 0
M  V30 3909 H 353.928 1.9298 2.48205 0
M  V30 3910 N 357.7 0.491464 1.49741 0
M  V30 3911 C 358.925 -0.0557177 2.07325 0
M  V30 3912 C 359.35 -1.30925 1.35056 0
M  V30 3913 O 358.708 -1.76733 0.404365 0
M  V30 3914 C 358.756 -0.302074 3.59333 0
M  V30 3915 O 357.86 -1.37868 3.88672 0
M  V30 3916 H 357.201 0.0219956 0.663636 0
M  V30 3917 H 359.731 0.688352 1.92673 0
M  V30 3918 H 359.741 -0.536464 4.04458 0
M  V30 3919 H 358.416 0.61383 4.11345 0
M  V30 3920 H 356.993 -1.12999 3.55367 0
M  V30 3921 N 359.178 -1.55987 0.224894 0
M  V30 3922 C 360.408 -2.02489 -0.41007 0
M  V30 3923 C 360.816 -1.10391 -1.53657 0
M  V30 3924 O 360.159 -0.106458 -1.83391 0
M  V30 3925 C 360.221 -3.45319 -0.999757 0
M  V30 3926 C 359.885 -4.56999 -0.00827976 0
M  V30 3927 C 360.882 -5.13812 0.793314 0
M  V30 3928 C 358.567 -5.02176 0.111442 0
M  V30 3929 C 360.561 -6.14276 1.7013 0
M  V30 3930 C 358.248 -6.02477 1.02296 0
M  V30 3931 C 359.246 -6.58403 1.81643 0
M  V30 3932 O 358.934 -7.56751 2.71262 0
M  V30 3933 H 358.666 -0.667915 -0.104235 0
M  V30 3934 H 361.22 -2.0257 0.339782 0
M  V30 3935 H 359.45 -3.42318 -1.79876 0
M  V30 3936 H 361.139 -3.7545 -1.54248 0
M  V30 3937 H 361.905 -4.79756 0.711288 0
M  V30 3938 H 357.784 -4.58323 -0.49605 0
M  V30 3939 H 361.328 -6.57854 2.32107 0
M  V30 3940 H 357.225 -6.35954 1.10599 0
M  V30 3941 H 357.993 -7.74286 2.65375 0
M  V30 3942 N 360.656 0.0484629 -1.57525 0
M  V30 3943 C 361.904 0.741657 -1.88 0
M  V30 3944 C 362.225 1.76918 -0.820054 0
M  V30 3945 O 361.495 1.95335 0.148661 0
M  V30 3946 H 360.075 0.276908 -0.69378 0
M  V30 3947 H 362.737 0.019013 -1.94891 0
M  V30 3948 H 361.833 1.24336 -2.86264 0
M  V30 3949 N 362.134 1.5431 0.320358 0
M  V30 3950 C 363.081 1.83918 1.39438 0
M  V30 3951 C 364.051 0.686525 1.51248 0
M  V30 3952 O 365.236 0.933269 1.66417 0
M  V30 3953 C 362.376 2.075 2.75749 0
M  V30 3954 C 361.489 3.35177 2.72544 0
M  V30 3955 C 360.624 3.48704 4.00723 0
M  V30 3956 C 359.663 4.70244 3.91838 0
M  V30 3957 N 358.8 4.80679 5.11754 0
M  V30 3958 H 363.64 2.75544 1.13489 0
M  V30 3959 H 361.177 1.36459 0.549309 0
M  V30 3960 H 363.135 2.19166 3.54996 0
M  V30 3961 H 361.765 1.19163 3 0
M  V30 3962 H 360.817 3.32233 1.85271 0
M  V30 3963 H 362.129 4.24534 2.61863 0
M  V30 3964 H 361.283 3.59928 4.88402 0
M  V30 3965 H 360.022 2.57445 4.14214 0
M  V30 3966 H 359.027 4.59072 3.02544 0
M  V30 3967 H 360.252 5.6289 3.7991 0
M  V30 3968 H 358.198 3.92337 5.25745 0
M  V30 3969 H 358.115 5.64007 5.0342 0
M  V30 3970 H 359.383 4.96239 6.01138 0
M  V30 3971 N 363.613 -0.582584 1.46437 0
M  V30 3972 C 364.561 -1.71272 1.5738 0
M  V30 3973 C 365.555 -1.63524 0.44229 0
M  V30 3974 O 366.761 -1.69016 0.619166 0
M  V30 3975 H 363.136 -0.566273 0.494813 0
M  V30 3976 H 365.107 -1.59174 2.52401 0
M  V30 3977 C 363.856 -3.09658 1.58136 0
M  V30 3978 H 363.179 -3.16291 2.44541 0
M  V30 3979 H 364.619 -3.88494 1.69847 0
M  V30 3980 C 363.078 -3.3547 0.310026 0
M  V30 3981 O 363.608 -3.97199 -0.599683 0
M  V30 3982 N 361.814 -2.89925 0.197901 0
M  V30 3983 H 361.361 -2.39873 0.93909 0
M  V30 3984 H 361.319 -3.07568 -0.65185 0
M  V30 3985 N 365.091 -1.34144 -0.827227 0
M  V30 3986 C 366.507 -1.13732 -1.11969 0
M  V30 3987 C 366.707 0.0640463 -2.01398 0
M  V30 3988 O 365.763 0.740856 -2.41387 0
M  V30 3989 C 367.076 -2.43047 -1.77055 0
M  V30 3990 C 368.624 -2.49063 -1.89569 0
M  V30 3991 C 369.099 -3.78369 -2.58072 0
M  V30 3992 N 370.59 -3.79505 -2.65575 0
M  V30 3993 C 371.325 -4.76274 -3.19297 0
M  V30 3994 N 370.821 -5.83424 -3.73616 0
M  V30 3995 N 372.614 -4.63735 -3.17658 0
M  V30 3996 H 364.765 -2.11126 -0.232296 0
M  V30 3997 H 367.028 -0.933424 -0.165602 0
M  V30 3998 H 366.734 -3.31025 -1.18807 0
M  V30 3999 H 366.608 -2.56066 -2.76966 0
M  V30 4000 H 368.995 -1.61527 -2.46968 0
M  V30 4001 H 369.076 -2.39975 -0.885745 0
M  V30 4002 H 368.72 -4.66293 -2.01329 0
M  V30 4003 H 368.65 -3.84737 -3.59562 0
M  V30 4004 H 371.141 -3.02074 -2.27068 0
M  V30 4005 H 371.454 -6.53282 -4.12846 0
M  V30 4006 H 369.799 -5.87143 -3.71871 0
M  V30 4007 H 372.99 -3.79177 -2.74486 0
M  V30 4008 H 373.163 -5.39318 -3.59221 0
M  V30 4009 N 366.569 1.04691 -1.17803 0
M  V30 4010 C 367.818 1.77176 -0.963931 0
M  V30 4011 C 368.131 1.88888 0.508015 0
M  V30 4012 O 369.337 2.58164 0.840465 0
M  V30 4013 C 367.793 3.18518 -1.67555 0
M  V30 4014 C 367.401 3.14919 -3.18637 0
M  V30 4015 C 369.145 3.95424 -1.54402 0
M  V30 4016 C 367.052 4.51081 -3.82466 0
M  V30 4017 H 365.982 0.664116 -0.357023 0
M  V30 4018 H 368.633 1.17303 -1.4111 0
M  V30 4019 H 367.015 3.78748 -1.15613 0
M  V30 4020 H 368.189 2.64178 -3.77554 0
M  V30 4021 H 366.504 2.51512 -3.31859 0
M  V30 4022 H 369.101 4.96106 -1.99456 0
M  V30 4023 H 369.444 4.13343 -0.495329 0
M  V30 4024 H 369.977 3.41754 -2.0359 0
M  V30 4025 H 366.716 4.38368 -4.87354 0
M  V30 4026 H 366.236 5.01951 -3.28337 0
M  V30 4027 H 367.915 5.2001 -3.84965 0
M  V30 4028 N 368.047 0.979072 1.23499 0
M  V30 4029 C 369.275 0.665202 1.95915 0
M  V30 4030 C 369.69 -0.767571 1.72493 0
M  V30 4031 O 369.047 -1.51635 1.01554 0
M  V30 4032 C 369.098 0.944438 3.48945 0
M  V30 4033 O 368.819 2.3209 3.71572 0
M  V30 4034 C 370.32 0.646336 4.38563 0
M  V30 4035 H 367.54 0.247218 0.623798 0
M  V30 4036 H 370.084 1.31009 1.57025 0
M  V30 4037 H 368.239 0.345575 3.85856 0
M  V30 4038 H 368.653 2.40957 4.65876 0
M  V30 4039 H 370.127 0.892091 5.44744 0
M  V30 4040 H 370.604 -0.419575 4.37191 0
M  V30 4041 H 371.21 1.22562 4.07258 0
M  V30 4042 N 369.525 -1.3858 0.750561 0
M  V30 4043 C 370.941 -1.53759 0.427824 0
M  V30 4044 C 371.141 -1.71401 -1.05943 0
M  V30 4045 O 370.197 -1.72331 -1.84549 0
M  V30 4046 C 371.51 -2.74642 1.22443 0
M  V30 4047 C 373.058 -2.88489 1.2142 0
M  V30 4048 C 373.533 -4.12329 1.9937 0
M  V30 4049 N 375.024 -4.194 1.96616 0
M  V30 4050 C 375.759 -5.14209 2.53727 0
M  V30 4051 N 375.255 -6.14709 3.19539 0
M  V30 4052 N 377.048 -5.06537 2.43673 0
M  V30 4053 H 369.199 -1.25377 1.71447 0
M  V30 4054 H 371.462 -0.608844 0.726645 0
M  V30 4055 H 371.168 -2.68 2.27747 0
M  V30 4056 H 371.042 -3.67745 0.839273 0
M  V30 4057 H 373.429 -2.94614 0.169232 0
M  V30 4058 H 373.51 -1.96406 1.63885 0
M  V30 4059 H 373.154 -4.06966 3.03877 0
M  V30 4060 H 373.084 -5.03486 1.54302 0
M  V30 4061 H 375.575 -3.47421 1.48684 0
M  V30 4062 H 375.888 -6.8354 3.60545 0
M  V30 4063 H 374.233 -6.1505 3.23633 0
M  V30 4064 H 377.424 -4.26962 1.91889 0
M  V30 4065 H 377.597 -5.80245 2.88479 0
M  V30 4066 N 371.003 -0.499398 -1.49478 0
M  V30 4067 C 372.28 0.108629 -1.95298 0
M  V30 4068 C 372.66 1.54282 -1.44084 0
M  V30 4069 O 372.008 2.18944 -0.653908 0
M  V30 4070 C 372.218 0.0229111 -3.48992 0
M  V30 4071 C 373.566 0.197643 -4.2414 0
M  V30 4072 O 374.59 0.0981735 -3.56065 0
M  V30 4073 O 373.449 0.401669 -5.45022 0
M  V30 4074 H 370.543 0.096181 -0.821388 0
M  V30 4075 H 373.089 -0.561822 -1.6013 0
M  V30 4076 H 371.861 -0.977321 -3.78899 0
M  V30 4077 H 371.484 0.733579 -3.90774 0
M  V30 4078 N 372.481 1.55866 -0.233164 0
M  V30 4079 C 373.413 2.18099 0.704668 0
M  V30 4080 C 374.426 1.15334 1.14899 0
M  V30 4081 O 375.615 1.42262 1.07814 0
M  V30 4082 C 372.715 2.7592 1.96777 0
M  V30 4083 C 371.888 4.03969 1.67713 0
M  V30 4084 C 370.947 4.46242 2.78845 0
M  V30 4085 O 369.973 5.12903 2.46818 0
M  V30 4086 N 371.175 4.12886 4.08051 0
M  V30 4087 H 373.94 2.99205 0.172258 0
M  V30 4088 H 371.501 1.61815 -0.0525945 0
M  V30 4089 H 373.493 3.01165 2.70337 0
M  V30 4090 H 372.063 1.99051 2.41034 0
M  V30 4091 H 371.283 3.86459 0.777391 0
M  V30 4092 H 372.571 4.8748 1.4574 0
M  V30 4093 H 371.969 3.59342 4.3691 0
M  V30 4094 H 370.526 4.42997 4.78118 0
M  V30 4095 N 373.959 -0.0401083 1.57549 0
M  V30 4096 C 375.205 -0.734211 1.89043 0
M  V30 4097 C 375.538 -1.75591 0.829535 0
M  V30 4098 O 374.813 -1.93868 -0.156706 0
M  V30 4099 C 375.096 -1.41374 3.31188 0
M  V30 4100 C 374.949 -0.406299 4.47961 0
M  V30 4101 C 376.268 -2.35061 3.72068 0
M  V30 4102 H 373.387 -0.265447 0.687537 0
M  V30 4103 H 376.029 0.00294087 1.9 0
M  V30 4104 H 374.179 -2.04206 3.30503 0
M  V30 4105 H 375.851 0.219255 4.60779 0
M  V30 4106 H 374.094 0.275485 4.32924 0
M  V30 4107 H 374.765 -0.920022 5.44279 0
M  V30 4108 H 377.241 -1.82282 3.74049 0
M  V30 4109 H 376.117 -2.79593 4.72355 0
M  V30 4110 H 376.378 -3.21258 3.0372 0
M  V30 4111 N 375.437 -1.54477 -0.31217 0
M  V30 4112 C 376.367 -1.87652 -1.38957 0
M  V30 4113 C 377.348 -0.734358 -1.53431 0
M  V30 4114 O 378.533 -0.98911 -1.67123 0
M  V30 4115 C 375.663 -2.11396 -2.75552 0
M  V30 4116 C 374.617 -3.27243 -2.75855 0
M  V30 4117 C 373.943 -3.36382 -4.15633 0
M  V30 4118 C 375.243 -4.64622 -2.38587 0
M  V30 4119 H 376.937 -2.77887 -1.11442 0
M  V30 4120 H 374.483 -1.33707 -0.534655 0
M  V30 4121 H 376.436 -2.33189 -3.51 0
M  V30 4122 H 375.16 -1.17921 -3.04569 0
M  V30 4123 H 373.819 -3.05356 -2.02863 0
M  V30 4124 H 373.467 -2.40445 -4.41809 0
M  V30 4125 H 373.167 -4.14249 -4.1674 0
M  V30 4126 H 374.691 -3.60422 -4.92877 0
M  V30 4127 H 376.105 -4.86219 -3.03749 0
M  V30 4128 H 374.502 -5.45121 -2.50925 0
M  V30 4129 H 375.572 -4.66097 -1.33723 0
M  V30 4130 N 376.915 0.57481 -1.46744 0
M  V30 4131 C 377.862 1.68329 -1.57905 0
M  V30 4132 C 378.832 1.60625 -0.422927 0
M  V30 4133 O 380.017 1.79721 -0.640711 0
M  V30 4134 C 377.157 3.06665 -1.58274 0
M  V30 4135 C 376.27 3.24935 -2.84678 0
M  V30 4136 C 375.405 4.53566 -2.76499 0
M  V30 4137 C 374.444 4.65207 -3.97806 0
M  V30 4138 N 373.581 5.85172 -3.87967 0
M  V30 4139 H 378.421 1.58127 -2.52587 0
M  V30 4140 H 375.958 0.770552 -1.25303 0
M  V30 4141 H 377.916 3.86745 -1.56473 0
M  V30 4142 H 376.546 3.15745 -0.671194 0
M  V30 4143 H 375.598 2.38405 -2.96424 0
M  V30 4144 H 376.91 3.29403 -3.7456 0
M  V30 4145 H 376.064 5.41885 -2.72848 0
M  V30 4146 H 374.803 4.51548 -1.8427 0
M  V30 4147 H 373.808 3.75304 -4.0178 0
M  V30 4148 H 375.033 4.68997 -4.9114 0
M  V30 4149 H 372.979 5.84137 -2.98529 0
M  V30 4150 H 372.896 5.90943 -4.71511 0
M  V30 4151 H 374.164 6.759 -3.88303 0
M  V30 4152 N 378.394 1.34581 0.820102 0
M  V30 4153 C 379.327 1.20735 1.93644 0
M  V30 4154 C 380.305 0.0983343 1.62302 0
M  V30 4155 O 381.489 0.263997 1.86642 0
M  V30 4156 C 378.616 0.856037 3.27704 0
M  V30 4157 C 377.662 1.97521 3.78005 0
M  V30 4158 S 378.495 3.58906 3.97425 0
M  V30 4159 C 379.651 3.25822 5.34407 0
M  V30 4160 H 379.884 2.15231 2.05093 0
M  V30 4161 H 377.417 1.1964 0.97599 0
M  V30 4162 H 379.375 0.660133 4.05157 0
M  V30 4163 H 378.036 -0.0706253 3.14021 0
M  V30 4164 H 377.229 1.68321 4.75062 0
M  V30 4165 H 376.831 2.12875 3.07507 0
M  V30 4166 H 379.123 2.77812 6.17922 0
M  V30 4167 H 380.066 4.22029 5.68592 0
M  V30 4168 H 380.474 2.61932 5.00052 0
M  V30 4169 N 379.872 -1.04064 1.18357 0
M  V30 4170 C 380.835 -2.10243 0.912707 0
M  V30 4171 C 381.835 -1.60477 -0.101928 0
M  V30 4172 O 383.025 -1.73703 0.131517 0
M  V30 4173 C 380.157 -3.38893 0.369387 0
M  V30 4174 H 381.35 -2.35706 1.85426 0
M  V30 4175 H 378.903 -1.20489 0.995594 0
M  V30 4176 H 379.638 -3.19094 -0.578776 0
M  V30 4177 H 379.423 -3.76331 1.1008 0
M  V30 4178 H 380.913 -4.17128 0.198575 0
M  V30 4179 N 381.35 -0.985608 -1.22978 0
M  V30 4180 C 382.313 -0.535071 -2.22867 0
M  V30 4181 C 383.313 0.378123 -1.56291 0
M  V30 4182 O 384.503 0.171092 -1.73358 0
M  V30 4183 C 381.635 0.222702 -3.40172 0
M  V30 4184 H 382.828 -1.41835 -2.6424 0
M  V30 4185 H 380.381 -0.772042 -1.35901 0
M  V30 4186 H 381.116 1.12229 -3.04262 0
M  V30 4187 H 380.901 -0.43288 -3.89703 0
M  V30 4188 H 382.391 0.526335 -4.1427 0
M  V30 4189 N 382.828 1.3818 -0.7579 0
M  V30 4190 C 383.791 2.28764 -0.141286 0
M  V30 4191 C 384.791 1.47388 0.642907 0
M  V30 4192 O 385.981 1.67781 0.468536 0
M  V30 4193 C 383.113 3.31184 0.808069 0
M  V30 4194 H 384.306 2.848 -0.939633 0
M  V30 4195 H 381.859 1.47212 -0.525191 0
M  V30 4196 H 382.594 2.80247 1.63193 0
M  V30 4197 H 382.379 3.91314 0.248104 0
M  V30 4198 H 383.869 3.98909 1.23536 0
M  V30 4199 N 384.306 0.507319 1.49211 0
M  V30 4200 C 385.552 -0.0350047 2.0277 0
M  V30 4201 C 385.885 -1.3606 1.38569 0
M  V30 4202 O 385.16 -1.87321 0.523542 0
M  V30 4203 C 385.443 -0.180916 3.59645 0
M  V30 4204 C 385.296 1.16825 4.34364 0
M  V30 4205 C 386.615 -0.918558 4.30407 0
M  V30 4206 H 383.734 -0.0112473 0.736914 0
M  V30 4207 H 386.376 0.659956 1.7817 0
M  V30 4208 H 384.526 -0.772826 3.80736 0
M  V30 4209 H 386.198 1.79952 4.24753 0
M  V30 4210 H 384.441 1.75594 3.96673 0
M  V30 4211 H 385.112 1.01939 5.42506 0
M  V30 4212 H 387.588 -0.41649 4.1401 0
M  V30 4213 H 386.464 -0.989505 5.39907 0
M  V30 4214 H 386.725 -1.96373 3.96093 0
M  V30 4215 N 385.784 -1.5574 0.241426 0
M  V30 4216 C 387.03 -1.99104 -0.385406 0
M  V30 4217 C 387.363 -1.1293 -1.57988 0
M  V30 4218 O 386.638 -0.191449 -1.93555 0
M  V30 4219 C 386.921 -3.51087 -0.800616 0
M  V30 4220 C 386.774 -4.48028 0.398874 0
M  V30 4221 C 388.093 -4.08015 -1.64959 0
M  V30 4222 H 385.212 -0.723848 -0.138614 0
M  V30 4223 H 387.854 -1.86903 0.341642 0
M  V30 4224 H 386.004 -3.61615 -1.4201 0
M  V30 4225 H 387.676 -4.49487 1.03726 0
M  V30 4226 H 385.919 -4.21077 1.04293 0
M  V30 4227 H 386.59 -5.51962 0.0651056 0
M  V30 4228 H 389.066 -4.00555 -1.12672 0
M  V30 4229 H 387.942 -5.14635 -1.90898 0
M  V30 4230 H 388.203 -3.56131 -2.61961 0
M  V30 4231 N 387.262 0.0317525 -1.57568 0
M  V30 4232 C 388.192 1.03274 -2.0942 0
M  V30 4233 C 389.173 1.3788 -0.996143 0
M  V30 4234 O 390.358 1.46811 -1.27122 0
M  V30 4235 C 387.488 2.33448 -2.57137 0
M  V30 4236 C 386.442 2.13091 -3.71182 0
M  V30 4237 C 385.768 3.49001 -4.05095 0
M  V30 4238 C 387.068 1.51928 -4.99715 0
M  V30 4239 H 388.762 0.60112 -2.93303 0
M  V30 4240 H 386.308 0.287705 -1.41097 0
M  V30 4241 H 388.261 3.03802 -2.92032 0
M  V30 4242 H 386.985 2.78665 -1.70333 0
M  V30 4243 H 385.644 1.45171 -3.36632 0
M  V30 4244 H 385.292 3.91862 -3.15362 0
M  V30 4245 H 384.992 3.36207 -4.81911 0
M  V30 4246 H 386.516 4.20721 -4.42522 0
M  V30 4247 H 387.93 2.12196 -5.32584 0
M  V30 4248 H 386.327 1.49716 -5.81124 0
M  V30 4249 H 387.397 0.484811 -4.8247 0
M  V30 4250 N 388.74 1.54641 0.303973 0
M  V30 4251 C 389.703 1.84646 1.35789 0
M  V30 4252 C 390.703 0.7192 1.4382 0
M  V30 4253 O 391.893 0.987491 1.43507 0
M  V30 4254 C 389.025 2.02407 2.74307 0
M  V30 4255 H 390.218 2.78829 1.10429 0
M  V30 4256 H 387.771 1.46658 0.540487 0
M  V30 4257 H 388.506 1.10502 3.04893 0
M  V30 4258 H 388.291 2.84453 2.69868 0
M  V30 4259 H 389.781 2.27002 3.50514 0
M  V30 4260 N 390.218 -0.567019 1.47046 0
M  V30 4261 C 391.465 -1.32462 1.53167 0
M  V30 4262 C 391.793 -1.93571 0.189841 0
M  V30 4263 O 391.048 -1.77865 -0.816243 0
M  V30 4264 C 391.347 -2.4623 2.59047 0
M  V30 4265 C 391.013 -2.03014 4.02612 0
M  V30 4266 C 389.675 -1.90944 4.41694 0
M  V30 4267 C 392.027 -1.69895 4.92732 0
M  V30 4268 C 389.355 -1.44035 5.68745 0
M  V30 4269 C 391.707 -1.2446 6.20236 0
M  V30 4270 C 390.371 -1.10979 6.5821 0
M  V30 4271 H 389.641 -0.484713 0.560477 0
M  V30 4272 H 392.288 -0.636888 1.80599 0
M  V30 4273 H 390.593 -3.20517 2.25335 0
M  V30 4274 H 392.29 -3.04427 2.61008 0
M  V30 4275 H 388.88 -2.13348 3.71726 0
M  V30 4276 H 393.064 -1.78098 4.63244 0
M  V30 4277 H 388.32 -1.32254 5.96925 0
M  V30 4278 H 392.494 -0.978924 6.89485 0
M  V30 4279 H 390.121 -0.744078 7.5655 0
M  V30 4280 N 391.696 -1.35014 -0.812953 0
M  V30 4281 C 392.945 -1.27269 -1.56479 0
M  V30 4282 C 393.258 0.152771 -1.95002 0
M  V30 4283 O 394.464 0.352451 -2.69203 0
M  V30 4284 C 392.92 -2.23159 -2.82362 0
M  V30 4285 C 392.528 -3.71016 -2.511 0
M  V30 4286 C 394.272 -2.24342 -3.60376 0
M  V30 4287 C 392.179 -4.58746 -3.73237 0
M  V30 4288 H 391.109 -0.472829 -0.587324 0
M  V30 4289 H 393.76 -1.6024 -0.894171 0
M  V30 4290 H 392.142 -1.83151 -3.51101 0
M  V30 4291 H 393.316 -4.1962 -1.90409 0
M  V30 4292 H 391.631 -3.72378 -1.86343 0
M  V30 4293 H 394.228 -2.87107 -4.51081 0
M  V30 4294 H 394.571 -1.24542 -3.97234 0
M  V30 4295 H 395.104 -2.62846 -2.98591 0
M  V30 4296 H 391.843 -5.59521 -3.41492 0
M  V30 4297 H 391.363 -4.14871 -4.33176 0
M  V30 4298 H 393.042 -4.73852 -4.40537 0
M  V30 4299 N 393.175 1.03435 -1.18907 0
M  V30 4300 C 394.424 1.76143 -0.982669 0
M  V30 4301 C 394.737 1.89416 0.487953 0
M  V30 4302 O 395.943 2.59041 0.813036 0
M  V30 4303 C 394.399 3.16722 -1.70924 0
M  V30 4304 C 394.007 3.11522 -3.21959 0
M  V30 4305 C 395.751 3.93764 -1.58588 0
M  V30 4306 C 393.658 4.46999 -3.87228 0
M  V30 4307 H 392.588 0.660292 -0.364047 0
M  V30 4308 H 395.239 1.158 -1.42347 0
M  V30 4309 H 393.621 3.775 -1.19623 0
M  V30 4310 H 394.795 2.60158 -3.80335 0
M  V30 4311 H 393.11 2.47978 -3.34508 0
M  V30 4312 H 395.707 4.93963 -2.04707 0
M  V30 4313 H 396.05 4.12794 -0.539142 0
M  V30 4314 H 396.583 3.39576 -2.07203 0
M  V30 4315 H 393.322 4.33174 -4.91976 0
M  V30 4316 H 392.842 4.98441 -3.33642 0
M  V30 4317 H 394.521 5.15898 -3.90459 0
M  V30 4318 N 394.653 0.992116 1.22453 0
M  V30 4319 C 395.893 0.675727 1.92907 0
M  V30 4320 C 396.257 -0.777762 1.75542 0
M  V30 4321 O 397.458 -1.20553 2.40251 0
M  V30 4322 C 395.729 1.0696 3.4102 0
M  V30 4323 S 397.288 0.871456 4.30059 0
M  V30 4324 H 394.106 0.247089 0.666684 0
M  V30 4325 H 396.708 1.27423 1.48269 0
M  V30 4326 H 395.412 2.12383 3.51172 0
M  V30 4327 H 394.943 0.462858 3.90668 0
M  V30 4328 H 396.958 -0.238436 4.95627 0
M  V30 4329 N 396.131 -1.37776 0.765217 0
M  V30 4330 C 397.377 -2.00604 0.336066 0
M  V30 4331 C 397.732 -1.59657 -1.07366 0
M  V30 4332 O 397.025 -0.829565 -1.7271 0
M  V30 4333 C 397.219 -3.5504 0.410053 0
M  V30 4334 C 397.048 -4.10985 1.82542 0
M  V30 4335 C 395.818 -4.42229 2.44461 0
M  V30 4336 C 398.016 -4.32438 2.78392 0
M  V30 4337 N 395.998 -4.8385 3.77839 0
M  V30 4338 C 397.369 -4.76596 3.96556 0
M  V30 4339 C 399.424 -4.14559 2.75764 0
M  V30 4340 C 398.127 -5.04748 5.12466 0
M  V30 4341 C 400.153 -4.43843 3.90842 0
M  V30 4342 C 399.515 -4.88235 5.07746 0
M  V30 4343 H 395.614 -0.763325 0.169881 0
M  V30 4344 H 398.198 -1.67197 0.997656 0
M  V30 4345 H 396.369 -3.87769 -0.221325 0
M  V30 4346 H 398.101 -4.0468 -0.0405285 0
M  V30 4347 H 394.856 -4.31079 1.96131 0
M  V30 4348 H 395.28 -5.08979 4.46396 0
M  V30 4349 H 399.922 -3.79415 1.86558 0
M  V30 4350 H 397.64 -5.38783 6.02277 0
M  V30 4351 H 401.226 -4.31603 3.90141 0
M  V30 4352 H 400.106 -5.10461 5.95315 0
M  V30 4353 N 397.609 -0.515225 -1.4894 0
M  V30 4354 C 398.539 0.244628 -2.32215 0
M  V30 4355 C 399.52 0.949136 -1.41157 0
M  V30 4356 O 400.705 0.937783 -1.70057 0
M  V30 4357 C 397.835 1.30096 -3.22013 0
M  V30 4358 C 396.789 0.715486 -4.21977 0
M  V30 4359 C 396.115 1.87339 -5.00808 0
M  V30 4360 C 397.415 -0.302982 -5.2142 0
M  V30 4361 H 399.109 -0.450501 -2.95991 0
M  V30 4362 H 396.655 -0.218098 -1.42339 0
M  V30 4363 H 398.608 1.84037 -3.79089 0
M  V30 4364 H 397.332 2.02547 -2.56207 0
M  V30 4365 H 395.991 0.197715 -3.66066 0
M  V30 4366 H 395.639 2.58592 -4.31438 0
M  V30 4367 H 395.339 1.48764 -5.68457 0
M  V30 4368 H 396.863 2.41686 -5.60732 0
M  V30 4369 H 398.277 0.148802 -5.73107 0
M  V30 4370 H 396.674 -0.60532 -5.97039 0
M  V30 4371 H 397.744 -1.21395 -4.69459 0
M  V30 4372 N 399.087 1.5561 -0.249682 0
M  V30 4373 C 400.498 1.84979 0.252949 0
M  V30 4374 C 400.849 1.17153 1.57384 0
M  V30 4375 O 399.974 0.450884 2.11651 0
M  V30 4376 C 400.569 3.35584 0.465732 0
M  V30 4377 C 399.128 3.65169 0.912624 0
M  V30 4378 C 398.275 2.77299 -0.00859085 0
M  V30 4379 H 401.226 1.51513 -0.47217 0
M  V30 4380 H 401.247 3.57313 1.30795 0
M  V30 4381 H 400.759 3.8492 -0.49579 0
M  V30 4382 H 398.86 3.21312 1.88652 0
M  V30 4383 H 398.973 4.72912 0.767559 0
M  V30 4384 H 397.337 2.49678 0.50327 0
M  V30 4385 H 398.12 3.29442 -0.965537 0
M  V30 4386 N 400.565 -0.0233959 1.57583 0
M  V30 4387 C 401.812 -0.713063 1.8953 0
M  V30 4388 C 402.14 -1.75056 0.847673 0
M  V30 4389 O 401.395 -1.95119 -0.150636 0
M  V30 4390 C 401.694 -1.41428 3.28227 0
M  V30 4391 C 401.36 -0.512222 4.47981 0
M  V30 4392 C 400.022 -0.263785 4.80476 0
M  V30 4393 C 402.374 0.110248 5.21083 0
M  V30 4394 C 399.702 0.615804 5.83459 0
M  V30 4395 C 402.054 0.977573 6.25001 0
M  V30 4396 C 400.718 1.23542 6.55968 0
M  V30 4397 H 399.988 -0.260928 0.69354 0
M  V30 4398 H 402.635 0.0271047 1.91481 0
M  V30 4399 H 400.94 -2.22791 3.22291 0
M  V30 4400 H 402.637 -1.95355 3.50196 0
M  V30 4401 H 399.227 -0.716013 4.22577 0
M  V30 4402 H 403.411 -0.0687137 4.96252 0
M  V30 4403 H 398.667 0.82382 6.05824 0
M  V30 4404 H 402.841 1.46638 6.80786 0
M  V30 4405 H 400.468 1.91871 7.35588 0
M  V30 4406 N 402.043 -1.548 -0.295768 0
M  V30 4407 C 402.993 -1.82497 -1.3667 0
M  V30 4408 C 403.977 -0.682434 -1.45711 0
M  V30 4409 O 405.169 -0.943207 -1.49775 0
M  V30 4410 C 402.298 -2.08036 -2.73086 0
M  V30 4411 C 401.384 -3.28488 -2.68247 0
M  V30 4412 N 401.775 -4.48924 -2.33025 0
M  V30 4413 C 400.073 -3.3062 -2.99343 0
M  V30 4414 C 400.774 -5.30956 -2.37613 0
M  V30 4415 N 399.75 -4.68805 -2.75178 0
M  V30 4416 H 403.552 -2.73175 -1.0841 0
M  V30 4417 H 401.066 -1.5437 -0.504361 0
M  V30 4418 H 403.063 -2.26027 -3.5031 0
M  V30 4419 H 401.723 -1.18629 -3.02254 0
M  V30 4420 H 402.734 -4.75432 -2.05389 0
M  V30 4421 H 399.411 -2.51336 -3.33371 0
M  V30 4422 H 400.801 -6.37199 -2.13135 0
M  V30 4423 N 403.521 0.559213 -1.47345 0
M  V30 4424 C 404.767 1.31843 -1.54095 0
M  V30 4425 C 405.1 1.93149 -0.201726 0
M  V30 4426 O 404.375 1.77759 0.789428 0
M  V30 4427 C 404.658 2.43006 -2.65744 0
M  V30 4428 C 404.511 1.86581 -4.09277 0
M  V30 4429 C 405.83 3.44943 -2.73318 0
M  V30 4430 H 402.949 0.478012 -0.560957 0
M  V30 4431 H 405.591 0.625977 -1.79392 0
M  V30 4432 H 403.741 3.02072 -2.44305 0
M  V30 4433 H 405.413 1.31792 -4.42073 0
M  V30 4434 H 403.656 1.17268 -4.17649 0
M  V30 4435 H 404.327 2.66933 -4.83168 0
M  V30 4436 H 406.803 2.95793 -2.92653 0
M  V30 4437 H 405.679 4.20153 -3.53218 0
M  V30 4438 H 405.94 4.03665 -1.80296 0
M  V30 4439 N 404.999 1.35443 0.805782 0
M  V30 4440 C 405.929 1.31095 1.93226 0
M  V30 4441 C 406.91 0.185244 1.69088 0
M  V30 4442 O 408.095 0.380332 1.90439 0
M  V30 4443 C 405.225 1.08299 3.29983 0
M  V30 4444 C 404.179 2.17519 3.68605 0
M  V30 4445 C 403.505 1.79887 5.03532 0
M  V30 4446 C 404.805 3.5949 3.78898 0
M  V30 4447 H 406.499 2.25352 1.97122 0
M  V30 4448 H 404.045 1.0848 0.946996 0
M  V30 4449 H 405.998 1.03897 4.08391 0
M  V30 4450 H 404.722 0.104885 3.26432 0
M  V30 4451 H 403.381 2.2102 2.92482 0
M  V30 4452 H 403.029 0.80693 4.96485 0
M  V30 4453 H 402.729 2.53001 5.30344 0
M  V30 4454 H 404.253 1.77011 5.84379 0
M  V30 4455 H 405.667 3.58307 4.47536 0
M  V30 4456 H 404.064 4.31371 4.1718 0
M  V30 4457 H 405.134 3.95584 2.80431 0
M  V30 4458 N 406.477 -1.02803 1.19454 0
M  V30 4459 C 407.705 -1.79841 1.02297 0
M  V30 4460 C 408.12 -1.83879 -0.428259 0
M  V30 4461 O 407.477 -1.28345 -1.29745 0
M  V30 4462 C 407.528 -3.24852 1.58598 0
M  V30 4463 O 407.249 -3.21097 2.98041 0
M  V30 4464 C 408.75 -4.18485 1.46236 0
M  V30 4465 H 405.97 -0.565936 0.360496 0
M  V30 4466 H 408.514 -1.2948 1.58288 0
M  V30 4467 H 406.669 -3.72401 1.06753 0
M  V30 4468 H 407.083 -4.12033 3.24545 0
M  V30 4469 H 408.557 -5.18121 1.90407 0
M  V30 4470 H 409.034 -4.37254 0.41301 0
M  V30 4471 H 409.64 -3.76811 1.97215 0
M  V30 4472 N 407.956 -0.998596 -1.21925 0
M  V30 4473 C 409.203 -0.677663 -1.90824 0
M  V30 4474 C 409.531 0.790905 -1.77693 0
M  V30 4475 O 408.786 1.58817 -1.14349 0
M  V30 4476 C 409.085 -1.03648 -3.42041 0
M  V30 4477 C 408.751 -2.49825 -3.75364 0
M  V30 4478 C 407.413 -2.8977 -3.8417 0
M  V30 4479 C 409.765 -3.44545 -3.91073 0
M  V30 4480 C 407.093 -4.23412 -4.06127 0
M  V30 4481 C 409.445 -4.77853 -4.14535 0
M  V30 4482 C 408.109 -5.17531 -4.21566 0
M  V30 4483 H 407.379 -0.247975 -0.698276 0
M  V30 4484 H 410.026 -1.25584 -1.44571 0
M  V30 4485 H 408.331 -0.376457 -3.89987 0
M  V30 4486 H 410.028 -0.766113 -3.93614 0
M  V30 4487 H 406.618 -2.17866 -3.69097 0
M  V30 4488 H 410.802 -3.14853 -3.83642 0
M  V30 4489 H 406.058 -4.53734 -4.09799 0
M  V30 4490 H 410.232 -5.51189 -4.25633 0
M  V30 4491 H 407.859 -6.21102 -4.38333 0
M  V30 4492 N 409.434 1.37368 -0.772513 0
M  V30 4493 C 410.364 2.32856 -0.173304 0
M  V30 4494 C 411.345 1.55818 0.682262 0
M  V30 4495 O 412.53 1.84052 0.619566 0
M  V30 4496 C 409.66 3.40048 0.706007 0
M  V30 4497 C 408.614 4.27973 -0.0483144 0
M  V30 4498 C 407.94 5.26184 0.950491 0
M  V30 4499 C 409.24 5.07665 -1.22776 0
M  V30 4500 H 410.934 2.83217 -0.971002 0
M  V30 4501 H 408.48 1.3617 -0.468377 0
M  V30 4502 H 410.433 4.05827 1.13501 0
M  V30 4503 H 409.157 2.88214 1.53623 0
M  V30 4504 H 407.816 3.63726 -0.458107 0
M  V30 4505 H 407.464 4.7063 1.77529 0
M  V30 4506 H 407.164 5.85872 0.450314 0
M  V30 4507 H 408.688 5.94838 1.37842 0
M  V30 4508 H 410.102 5.66578 -0.875366 0
M  V30 4509 H 408.499 5.76681 -1.66007 0
M  V30 4510 H 409.569 4.40294 -2.03149 0
M  V30 4511 N 410.912 0.523116 1.48665 0
M  V30 4512 C 412.189 -0.0775449 1.95446 0
M  V30 4513 C 412.569 -1.5197 1.4652 0
M  V30 4514 O 411.917 -2.17876 0.688657 0
M  V30 4515 C 412.127 0.0326135 3.48985 0
M  V30 4516 C 413.475 -0.130141 4.24401 0
M  V30 4517 O 414.499 -0.0415142 3.56176 0
M  V30 4518 O 413.358 -0.31491 5.45592 0
M  V30 4519 H 410.452 -0.0831012 0.822814 0
M  V30 4520 H 412.998 0.587227 1.59216 0
M  V30 4521 H 411.77 1.03748 3.77296 0
M  V30 4522 H 411.393 -0.671317 3.91892 0
M  V30 4523 N 412.39 -1.55475 0.257931 0
M  V30 4524 C 413.353 -2.20551 -0.623706 0
M  V30 4525 C 414.353 -1.17809 -1.09443 0
M  V30 4526 O 415.543 -1.42823 -0.997362 0
M  V30 4527 C 412.675 -2.85784 -1.8585 0
M  V30 4528 H 413.868 -2.99848 -0.0557743 0
M  V30 4529 H 411.421 -1.56298 0.0084422 0
M  V30 4530 H 412.156 -2.10453 -2.46739 0
M  V30 4531 H 411.941 -3.61057 -1.52907 0
M  V30 4532 H 413.431 -3.35553 -2.48584 0
M  V30 4533 N 413.868 0.0150385 -1.57593 0
M  V30 4534 C 414.798 1.01047 -2.10503 0
M  V30 4535 C 415.779 1.36816 -1.01071 0
M  V30 4536 O 416.964 1.45455 -1.28672 0
M  V30 4537 C 414.094 2.30708 -2.59598 0
M  V30 4538 C 413.048 2.09142 -3.73421 0
M  V30 4539 C 412.374 3.44685 -4.08774 0
M  V30 4540 C 413.674 1.46619 -5.01298 0
M  V30 4541 H 415.368 0.569978 -2.93925 0
M  V30 4542 H 412.914 0.272724 -1.41394 0
M  V30 4543 H 414.867 3.00687 -2.95238 0
M  V30 4544 H 413.591 2.76843 -1.73279 0
M  V30 4545 H 412.25 1.41592 -3.38153 0
M  V30 4546 H 411.898 3.88495 -3.195 0
M  V30 4547 H 411.598 3.31077 -4.8545 0
M  V30 4548 H 413.122 4.16004 -4.4696 0
M  V30 4549 H 414.536 2.06535 -5.34805 0
M  V30 4550 H 412.933 1.43544 -5.82679 0
M  V30 4551 H 414.003 0.433611 -4.82957 0
M  V30 4552 N 415.346 1.54954 0.287554 0
M  V30 4553 C 416.309 1.86076 1.33823 0
M  V30 4554 C 417.309 0.734414 1.43049 0
M  V30 4555 O 418.499 1.00266 1.42452 0
M  V30 4556 C 415.631 2.05305 2.72144 0
M  V30 4557 H 416.824 2.79984 1.07465 0
M  V30 4558 H 414.377 1.47223 0.524902 0
M  V30 4559 H 415.112 1.1373 3.03704 0
M  V30 4560 H 414.897 2.873 2.66836 0
M  V30 4561 H 416.387 2.30706 3.48087 0
M  V30 4562 N 416.824 -0.551391 1.4764 0
M  V30 4563 C 418.07 -1.30789 1.55774 0
M  V30 4564 C 418.425 -1.91143 0.219562 0
M  V30 4565 O 417.718 -1.7521 -0.775375 0
M  V30 4566 C 417.912 -2.43469 2.61644 0
M  V30 4567 C 417.741 -1.94157 4.05627 0
M  V30 4568 C 416.511 -1.77734 4.7301 0
M  V30 4569 C 418.709 -1.48262 4.92466 0
M  V30 4570 N 416.691 -1.22823 6.01488 0
M  V30 4571 C 418.062 -1.05156 6.11017 0
M  V30 4572 C 420.117 -1.36367 4.78862 0
M  V30 4573 C 418.82 -0.513357 7.17466 0
M  V30 4574 C 420.846 -0.839484 5.85411 0
M  V30 4575 C 420.208 -0.418377 7.03156 0
M  V30 4576 H 416.307 -0.470406 0.624694 0
M  V30 4577 H 418.891 -0.624331 1.84419 0
M  V30 4578 H 417.062 -3.09348 2.34859 0
M  V30 4579 H 418.794 -3.10477 2.59589 0
M  V30 4580 H 415.549 -2.00623 4.29007 0
M  V30 4581 H 415.973 -0.974393 6.69951 0
M  V30 4582 H 420.615 -1.67535 3.88191 0
M  V30 4583 H 418.333 -0.189318 8.07878 0
M  V30 4584 H 421.919 -0.750921 5.76934 0
M  V30 4585 H 420.799 -0.0190538 7.84198 0
M  V30 4586 N 418.302 -1.35869 -0.798587 0
M  V30 4587 C 419.235 -1.23801 -1.91699 0
M  V30 4588 C 420.213 -0.124143 -1.62125 0
M  V30 4589 O 421.397 -0.293656 -1.86199 0
M  V30 4590 C 418.524 -0.908063 -3.263 0
M  V30 4591 C 417.57 -2.0351 -3.74815 0
M  V30 4592 S 418.403 -3.65183 -3.91665 0
M  V30 4593 C 419.559 -3.34283 -5.29156 0
M  V30 4594 H 419.792 -2.18466 -2.01643 0
M  V30 4595 H 417.325 -1.21178 -0.956833 0
M  V30 4596 H 419.283 -0.724506 -4.04056 0
M  V30 4597 H 417.944 0.0206584 -3.14093 0
M  V30 4598 H 417.137 -1.75858 -4.72324 0
M  V30 4599 H 416.739 -2.1774 -3.04081 0
M  V30 4600 H 419.031 -2.87607 -6.13424 0
M  V30 4601 H 419.974 -4.31022 -5.61806 0
M  V30 4602 H 420.382 -2.69854 -4.95822 0
M  V30 4603 N 419.78 1.02168 -1.19998 0
M  V30 4604 C 421.028 1.75338 -1.00504 0
M  V30 4605 C 421.349 1.89387 0.464506 0
M  V30 4606 O 420.619 1.43268 1.33608 0
M  V30 4607 H 419.199 0.649564 -0.368885 0
M  V30 4608 H 421.861 1.23205 -1.51018 0
M  V30 4609 H 420.957 2.75892 -1.45912 0
M  V30 4610 N 421.258 1.00505 1.21394 0
M  V30 4611 C 422.504 0.688793 1.90745 0
M  V30 4612 C 422.837 -0.778486 1.77914 0
M  V30 4613 O 422.112 -1.56433 1.15581 0
M  V30 4614 C 422.395 1.11063 3.42545 0
M  V30 4615 C 422.248 2.63737 3.64367 0
M  V30 4616 C 423.567 0.673059 4.34923 0
M  V30 4617 H 420.686 0.251702 0.692687 0
M  V30 4618 H 423.328 1.25074 1.43026 0
M  V30 4619 H 421.478 0.632508 3.83317 0
M  V30 4620 H 423.15 3.19313 3.32922 0
M  V30 4621 H 421.393 3.05248 3.08231 0
M  V30 4622 H 422.064 2.88305 4.70727 0
M  V30 4623 H 424.54 1.08392 4.01734 0
M  V30 4624 H 423.416 0.996383 5.39781 0
M  V30 4625 H 423.677 -0.425808 4.40045 0
M  V30 4626 N 422.737 -1.36956 0.779787 0
M  V30 4627 C 423.986 -1.98738 0.344405 0
M  V30 4628 C 424.299 -1.62596 -1.08728 0
M  V30 4629 O 425.505 -2.1754 -1.62445 0
M  V30 4630 C 423.961 -3.5544 0.564829 0
M  V30 4631 C 423.569 -4.00514 2.0073 0
M  V30 4632 C 425.313 -4.24059 0.193471 0
M  V30 4633 C 423.22 -5.49957 2.17489 0
M  V30 4634 H 422.15 -0.743561 0.12503 0
M  V30 4635 H 424.801 -1.56381 0.960057 0
M  V30 4636 H 423.183 -3.95817 -0.120397 0
M  V30 4637 H 424.357 -3.71362 2.72814 0
M  V30 4638 H 422.672 -3.44703 2.336 0
M  V30 4639 H 425.269 -5.33874 0.297097 0
M  V30 4640 H 425.612 -4.07378 -0.857263 0
M  V30 4641 H 426.145 -3.89012 0.831556 0
M  V30 4642 H 422.884 -5.71574 3.2091 0
M  V30 4643 H 422.404 -5.80767 1.49899 0
M  V30 4644 H 424.083 -6.16043 1.97738 0
M  V30 4645 N 424.215 -0.530993 -1.48385 0
M  V30 4646 C 425.163 0.244595 -2.3131 0
M  V30 4647 C 426.157 0.93451 -1.41291 0
M  V30 4648 O 427.363 0.85878 -1.58193 0
M  V30 4649 H 423.738 0.0977472 -0.74562 0
M  V30 4650 H 425.709 -0.474369 -2.94605 0
M  V30 4651 C 424.458 1.2779 -3.23365 0
M  V30 4652 H 423.781 0.756439 -3.92579 0
M  V30 4653 H 425.221 1.79198 -3.84271 0
M  V30 4654 C 423.68 2.31205 -2.45042 0
M  V30 4655 O 424.21 3.37661 -2.17596 0
M  V30 4656 N 422.416 2.04446 -2.0652 0
M  V30 4657 H 421.963 1.17891 -2.2904 0
M  V30 4658 H 421.921 2.73861 -1.54427 0
M  V30 4659 N 425.693 1.55336 -0.266172 0
M  V30 4660 C 426.918 2.04258 0.359661 0
M  V30 4661 C 427.343 1.14359 1.49344 0
M  V30 4662 O 426.701 0.140369 1.80756 0
M  V30 4663 C 426.749 3.50997 0.826635 0
M  V30 4664 O 425.853 3.64204 1.93466 0
M  V30 4665 H 425.194 0.659668 0.075727 0
M  V30 4666 H 427.724 2.00694 -0.39786 0
M  V30 4667 H 427.734 3.9219 1.12477 0
M  V30 4668 H 426.409 4.159 -0.00293032 0
M  V30 4669 H 424.986 3.34913 1.63974 0
M  V30 4670 N 427.171 -0.0066808 1.57599 0
M  V30 4671 C 428.411 -0.697501 1.92131 0
M  V30 4672 C 428.775 -1.71306 0.867071 0
M  V30 4673 O 429.976 -2.45377 1.09743 0
M  V30 4674 C 428.247 -1.32978 3.3174 0
M  V30 4675 S 429.806 -2.04665 3.88146 0
M  V30 4676 H 426.624 -0.230555 0.672581 0
M  V30 4677 H 429.226 0.0484026 1.9544 0
M  V30 4678 H 427.93 -0.57772 4.06313 0
M  V30 4679 H 427.461 -2.11376 3.31789 0
M  V30 4680 H 429.476 -3.32097 3.68682 0
M  V30 4681 N 428.649 -1.55105 -0.279332 0
M  V30 4682 C 429.559 -1.90638 -1.36727 0
M  V30 4683 C 430.575 -0.802899 -1.54368 0
M  V30 4684 O 431.751 -1.10138 -1.68616 0
M  V30 4685 C 428.816 -2.16547 -2.70755 0
M  V30 4686 C 427.877 -3.40146 -2.61915 0
M  V30 4687 C 427.11 -3.6481 -3.8955 0
M  V30 4688 O 427.333 -2.92095 -4.89935 0
M  V30 4689 O 426.267 -4.58343 -3.90135 0
M  V30 4690 H 430.093 -2.83237 -1.09591 0
M  V30 4691 H 427.678 -1.4157 -0.477306 0
M  V30 4692 H 429.56 -2.34665 -3.50014 0
M  V30 4693 H 428.235 -1.27131 -2.9769 0
M  V30 4694 H 427.142 -3.2737 -1.81052 0
M  V30 4695 H 428.475 -4.29761 -2.3993 0
M  V30 4696 N 430.127 0.543554 -1.4793 0
M  V30 4697 C 431.373 1.30201 -1.55485 0
M  V30 4698 C 431.706 1.92925 -0.222201 0
M  V30 4699 O 430.981 1.78586 0.77053 0
M  V30 4700 C 431.264 2.40174 -2.68307 0
M  V30 4701 C 431.117 1.8223 -4.11233 0
M  V30 4702 C 432.436 3.42024 -2.76961 0
M  V30 4703 H 429.555 0.472036 -0.565996 0
M  V30 4704 H 432.197 0.606914 -1.80046 0
M  V30 4705 H 430.347 2.99463 -2.47495 0
M  V30 4706 H 432.019 1.27096 -4.43446 0
M  V30 4707 H 430.262 1.12832 -4.18869 0
M  V30 4708 H 430.933 2.61793 -4.85972 0
M  V30 4709 H 433.409 2.92672 -2.95774 0
M  V30 4710 H 432.285 4.16383 -3.57654 0
M  V30 4711 H 432.546 4.0173 -1.84568 0
M  V30 4712 N 431.605 1.3629 0.791371 0
M  V30 4713 C 432.854 1.29742 1.54434 0
M  V30 4714 C 433.167 -0.121729 1.95221 0
M  V30 4715 O 434.373 -0.309579 2.69729 0
M  V30 4716 C 432.829 2.27623 2.78776 0
M  V30 4717 C 432.437 3.74963 2.45166 0
M  V30 4718 C 434.181 2.30047 3.56761 0
M  V30 4719 C 432.088 4.64626 3.65891 0
M  V30 4720 H 431.018 0.482113 0.579727 0
M  V30 4721 H 433.669 1.61642 0.868565 0
M  V30 4722 H 432.051 1.88714 3.48142 0
M  V30 4723 H 433.225 4.22596 1.83709 0
M  V30 4724 H 431.54 3.75295 1.80396 0
M  V30 4725 H 434.137 2.94247 4.46456 0
M  V30 4726 H 434.48 1.30846 3.95203 0
M  V30 4727 H 435.013 2.67563 2.94372 0
M  V30 4728 H 431.752 5.64883 3.32547 0
M  V30 4729 H 431.272 4.2171 4.26521 0
M  V30 4730 H 432.951 4.80801 4.32943 0
M  V30 4731 N 433.083 -1.0153 1.20538 0
M  V30 4732 C 434.046 -2.0826 0.957098 0
M  V30 4733 C 435.046 -1.60657 -0.0678655 0
M  V30 4734 O 436.236 -1.73385 0.168332 0
M  V30 4735 C 433.368 -3.38033 0.441188 0
M  V30 4736 H 434.561 -2.31719 1.90384 0
M  V30 4737 H 432.114 -1.1835 1.02093 0
M  V30 4738 H 432.849 -3.20249 -0.510961 0
M  V30 4739 H 432.634 -3.73911 1.18038 0
M  V30 4740 H 434.124 -4.16613 0.287009 0
M  V30 4741 N 434.561 -1.01147 -1.20859 0
M  V30 4742 C 435.807 -0.698899 -1.90377 0
M  V30 4743 C 436.14 0.76904 -1.78324 0
M  V30 4744 O 435.415 1.55817 -1.16409 0
M  V30 4745 C 435.698 -1.12878 -3.41951 0
M  V30 4746 C 435.551 -2.65665 -3.62963 0
M  V30 4747 C 436.87 -0.696114 -4.3456 0
M  V30 4748 H 433.989 -0.255372 -0.691342 0
M  V30 4749 H 436.631 -1.25831 -1.42361 0
M  V30 4750 H 434.781 -0.652827 -3.82976 0
M  V30 4751 H 436.453 -3.21074 -3.31224 0
M  V30 4752 H 434.696 -3.06878 -3.06608 0
M  V30 4753 H 435.367 -2.90797 -4.69192 0
M  V30 4754 H 437.843 -1.10521 -4.01154 0
M  V30 4755 H 436.719 -1.025 -5.39245 0
M  V30 4756 H 436.98 0.402465 -4.40264 0
M  V30 4757 N 436.039 1.36541 -0.78704 0
M  V30 4758 C 437.288 1.98552 -0.35494 0
M  V30 4759 C 437.601 1.63171 1.07864 0
M  V30 4760 O 438.807 2.18399 1.61289 0
M  V30 4761 C 437.263 3.55136 -0.583671 0
M  V30 4762 C 436.871 3.99444 -2.02851 0
M  V30 4763 C 438.615 4.2395 -0.215957 0
M  V30 4764 C 436.522 5.48796 -2.20403 0
M  V30 4765 H 435.452 0.742888 -0.128972 0
M  V30 4766 H 438.103 1.5587 -0.968337 0
M  V30 4767 H 436.485 3.95875 0.0994046 0
M  V30 4768 H 437.659 3.6991 -2.74779 0
M  V30 4769 H 435.974 3.43459 -2.35425 0
M  V30 4770 H 438.571 5.33709 -0.325405 0
M  V30 4771 H 438.914 4.07827 0.835646 0
M  V30 4772 H 439.447 3.88565 -0.852175 0
M  V30 4773 H 436.186 5.69864 -3.23937 0
M  V30 4774 H 435.706 5.79964 -1.52977 0
M  V30 4775 H 437.385 6.14986 -2.01002 0
M  V30 4776 N 437.518 0.538854 1.48102 0
M  V30 4777 C 438.795 -0.0568108 1.95517 0
M  V30 4778 C 439.175 -1.50408 1.48124 0
M  V30 4779 O 438.523 -2.17133 0.711727 0
M  V30 4780 C 438.733 0.0696262 3.48931 0
M  V30 4781 C 440.081 -0.0851202 4.24515 0
M  V30 4782 O 441.105 -0.0037347 3.562 0
M  V30 4783 O 439.964 -0.257025 5.45895 0
M  V30 4784 H 437.058 -0.0743695 0.823649 0
M  V30 4785 H 439.604 0.604081 1.58584 0
M  V30 4786 H 438.376 1.07744 3.76174 0
M  V30 4787 H 437.999 -0.629714 3.92582 0
M  V30 4788 N 438.996 -1.55193 0.274407 0
M  V30 4789 C 439.926 -2.25471 -0.607032 0
M  V30 4790 C 440.907 -1.24461 -1.15946 0
M  V30 4791 O 442.092 -1.53179 -1.19373 0
M  V30 4792 C 439.222 -2.97526 -1.79153 0
M  V30 4793 C 438.176 -4.05459 -1.37067 0
M  V30 4794 C 437.502 -4.65084 -2.6382 0
M  V30 4795 C 438.802 -5.19691 -0.521389 0
M  V30 4796 H 440.496 -2.99393 -0.0209343 0
M  V30 4797 H 438.042 -1.43997 -0.00862866 0
M  V30 4798 H 439.995 -3.45402 -2.41404 0
M  V30 4799 H 438.719 -2.21138 -2.40344 0
M  V30 4800 H 437.378 -3.58393 -0.771355 0
M  V30 4801 H 437.026 -3.85365 -3.23268 0
M  V30 4802 H 436.726 -5.37961 -2.36372 0
M  V30 4803 H 438.25 -5.15708 -3.26921 0
M  V30 4804 H 439.664 -5.63623 -1.04889 0
M  V30 4805 H 438.061 -5.99126 -0.341825 0
M  V30 4806 H 439.131 -4.82713 0.46 0
M  V30 4807 N 440.474 -0.00167713 -1.576 0
M  V30 4808 C 441.437 0.974046 -2.07473 0
M  V30 4809 C 442.437 1.27143 -0.984444 0
M  V30 4810 O 443.627 1.21633 -1.24703 0
M  V30 4811 C 440.759 2.29849 -2.51759 0
M  V30 4812 H 441.952 0.54262 -2.9495 0
M  V30 4813 H 439.505 0.245829 -1.54355 0
M  V30 4814 H 440.24 2.77677 -1.67529 0
M  V30 4815 H 440.025 2.09584 -3.31386 0
M  V30 4816 H 441.515 2.9984 -2.90664 0
M  V30 4817 N 441.952 1.55251 0.271103 0
M  V30 4818 C 442.882 1.9127 1.33933 0
M  V30 4819 C 443.863 0.77478 1.5143 0
M  V30 4820 O 445.048 1.03307 1.64442 0
M  V30 4821 C 442.178 2.18627 2.69851 0
M  V30 4822 C 441.132 3.34442 2.67081 0
M  V30 4823 C 440.458 3.47284 4.06569 0
M  V30 4824 C 441.758 4.70784 2.26185 0
M  V30 4825 H 443.452 2.80744 1.04035 0
M  V30 4826 H 440.998 1.35077 0.499017 0
M  V30 4827 H 442.951 2.42413 3.44694 0
M  V30 4828 H 441.675 1.25955 3.01335 0
M  V30 4829 H 440.334 3.10627 1.94695 0
M  V30 4830 H 439.982 2.52074 4.35279 0
M  V30 4831 H 439.682 4.25152 4.0561 0
M  V30 4832 H 441.206 3.73363 4.83148 0
M  V30 4833 H 442.62 4.94102 2.90751 0
M  V30 4834 H 441.017 5.51582 2.36384 0
M  V30 4835 H 442.087 4.69478 1.21319 0
M  V30 4836 N 443.43 -0.535701 1.48216 0
M  V30 4837 C 444.841 -1.11769 1.49548 0
M  V30 4838 C 445.192 -1.94442 0.26207 0
M  V30 4839 O 444.317 -2.06987 -0.631287 0
M  V30 4840 C 444.912 -2.03367 2.70975 0
M  V30 4841 C 443.471 -2.56795 2.75196 0
M  V30 4842 C 442.618 -1.33631 2.42977 0
M  V30 4843 H 445.569 -0.321232 1.55415 0
M  V30 4844 H 445.59 -2.87569 2.49167 0
M  V30 4845 H 445.102 -1.43169 3.60727 0
M  V30 4846 H 443.203 -3.20731 1.89638 0
M  V30 4847 H 443.316 -2.9632 3.76472 0
M  V30 4848 H 441.68 -1.6502 1.94012 0
M  V30 4849 H 442.463 -0.75194 3.34964 0
M  V30 4850 N 444.908 -1.36708 -0.784132 0
M  V30 4851 C 446.155 -1.31231 -1.54222 0
M  V30 4852 C 446.483 0.106864 -1.94206 0
M  V30 4853 O 445.738 1.07734 -1.63376 0
M  V30 4854 C 446.037 -2.18571 -2.82774 0
M  V30 4855 C 445.703 -3.67039 -2.61903 0
M  V30 4856 C 444.365 -4.07503 -2.55919 0
M  V30 4857 C 446.717 -4.61149 -2.4288 0
M  V30 4858 C 444.045 -5.40211 -2.28886 0
M  V30 4859 C 446.397 -5.94081 -2.17373 0
M  V30 4860 C 445.061 -6.33664 -2.09825 0
M  V30 4861 H 444.331 -0.48021 -0.56434 0
M  V30 4862 H 446.978 -1.68807 -0.904233 0
M  V30 4863 H 445.283 -1.73949 -3.51068 0
M  V30 4864 H 446.98 -2.11655 -3.40592 0
M  V30 4865 H 443.57 -3.34941 -2.67418 0
M  V30 4866 H 447.754 -4.30756 -2.46501 0
M  V30 4867 H 443.01 -5.69855 -2.21529 0
M  V30 4868 H 447.184 -6.66566 -2.01649 0
M  V30 4869 H 444.811 -7.36423 -1.88641 0
M  V30 4870 N 446.386 1.0089 -1.21074 0
M  V30 4871 C 447.349 2.0775 -0.968129 0
M  V30 4872 C 448.349 1.6069 0.0593445 0
M  V30 4873 O 449.539 1.73293 -0.177525 0
M  V30 4874 C 446.671 3.37794 -0.459108 0
M  V30 4875 H 447.864 2.30707 -1.9161 0
M  V30 4876 H 445.417 1.17807 -1.02719 0
M  V30 4877 H 446.152 3.20516 0.49397 0
M  V30 4878 H 445.937 3.7328 -1.20019 0
M  V30 4879 H 447.427 4.16454 -0.309099 0
M  V30 4880 N 447.864 1.01787 1.20321 0
M  V30 4881 C 449.113 0.703249 1.89043 0
M  V30 4882 C 449.426 -0.770445 1.79787 0
M  V30 4883 O 450.632 -1.19767 2.43656 0
M  V30 4884 C 449.088 1.20749 3.3904 0
M  V30 4885 C 448.696 2.70817 3.56878 0
M  V30 4886 C 450.44 0.968352 4.13308 0
M  V30 4887 C 448.347 3.14716 5.00708 0
M  V30 4888 H 447.277 0.259354 0.707991 0
M  V30 4889 H 449.928 1.23072 1.36108 0
M  V30 4890 H 448.31 0.607989 3.91305 0
M  V30 4891 H 449.484 3.36327 3.14993 0
M  V30 4892 H 447.799 2.92888 2.95983 0
M  V30 4893 H 450.396 1.27173 5.19356 0
M  V30 4894 H 450.739 -0.095149 4.16191 0
M  V30 4895 H 451.272 1.53129 3.67146 0
M  V30 4896 H 448.011 4.20347 5.02979 0
M  V30 4897 H 447.531 2.53927 5.43398 0
M  V30 4898 H 449.21 3.07426 5.69296 0
M  V30 4899 N 449.342 -1.36122 0.79427 0
M  V30 4900 C 450.272 -2.32551 0.210328 0
M  V30 4901 C 451.253 -1.56884 -0.657386 0
M  V30 4902 O 452.438 -1.85014 -0.590207 0
M  V30 4903 C 449.568 -3.41128 -0.651819 0
M  V30 4904 C 448.522 -4.27842 0.116395 0
M  V30 4905 C 447.848 -5.2763 -0.86666 0
M  V30 4906 C 449.148 -5.05647 1.30837 0
M  V30 4907 H 450.842 -2.81636 1.01594 0
M  V30 4908 H 448.388 -1.35407 0.489981 0
M  V30 4909 H 450.341 -4.07581 -1.07031 0
M  V30 4910 H 449.065 -2.90622 -1.49019 0
M  V30 4911 H 447.724 -3.62952 0.515915 0
M  V30 4912 H 447.372 -4.73395 -1.70019 0
M  V30 4913 H 447.072 -5.86514 -0.35705 0
M  V30 4914 H 448.596 -5.96955 -1.28361 0
M  V30 4915 H 450.01 -5.65113 0.965393 0
M  V30 4916 H 448.407 -5.73967 1.75161 0
M  V30 4917 H 449.477 -4.37006 2.10128 0
M  V30 4918 N 450.82 -0.546701 -1.47814 0
M  V30 4919 C 451.75 0.195317 -2.32682 0
M  V30 4920 C 452.731 0.918981 -1.43139 0
M  V30 4921 O 453.916 0.901501 -1.72008 0
M  V30 4922 C 451.046 1.23237 -3.247 0
M  V30 4923 C 450 0.625818 -4.234 0
M  V30 4924 C 449.326 1.76674 -5.04669 0
M  V30 4925 C 450.626 -0.413515 -5.2066 0
M  V30 4926 H 452.32 -0.513184 -2.94969 0
M  V30 4927 H 449.866 -0.248241 -1.41844 0
M  V30 4928 H 451.819 1.75955 -3.82907 0
M  V30 4929 H 450.543 1.97067 -2.60446 0
M  V30 4930 H 449.202 0.120023 -3.66403 0
M  V30 4931 H 448.85 2.49383 -4.36826 0
M  V30 4932 H 448.55 1.36673 -5.71484 0
M  V30 4933 H 450.074 2.29738 -5.65732 0
M  V30 4934 H 451.488 0.0272042 -5.73294 0
M  V30 4935 H 449.885 -0.731825 -5.95621 0
M  V30 4936 H 450.955 -1.31325 -4.66778 0
M  V30 4937 N 452.299 1.55045 -0.282633 0
M  V30 4938 C 453.547 1.99365 0.331334 0
M  V30 4939 C 453.868 1.1725 1.55812 0
M  V30 4940 O 453.138 0.263871 1.94115 0
M  V30 4941 H 451.718 0.736397 0.125414 0
M  V30 4942 H 454.38 1.90964 -0.389711 0
M  V30 4943 H 453.476 3.0596 0.616036 0
M  V30 4944 N 453.777 0.010035 1.57597 0
M  V30 4945 C 455.024 -0.6727 1.91 0
M  V30 4946 C 455.352 -1.73219 0.884614 0
M  V30 4947 O 454.607 -1.95395 -0.109215 0
M  V30 4948 C 454.906 -1.34434 3.31153 0
M  V30 4949 C 454.572 -0.417083 4.48967 0
M  V30 4950 C 453.234 -0.161809 4.80928 0
M  V30 4951 C 455.586 0.220753 5.20732 0
M  V30 4952 C 452.914 0.739426 5.82022 0
M  V30 4953 C 455.266 1.10993 6.22787 0
M  V30 4954 C 453.93 1.37428 6.532 0
M  V30 4955 H 453.2 -0.246158 0.698918 0
M  V30 4956 H 455.847 0.0677145 1.9138 0
M  V30 4957 H 454.152 -2.15905 3.26944 0
M  V30 4958 H 455.849 -1.87883 3.54261 0
M  V30 4959 H 452.439 -0.626217 4.24001 0
M  V30 4960 H 456.623 0.0365643 4.96287 0
M  V30 4961 H 451.879 0.952139 6.03941 0
M  V30 4962 H 456.053 1.61046 6.77523 0
M  V30 4963 H 453.68 2.0743 7.31353 0
M  V30 4964 N 455.255 -1.55392 -0.262866 0
M  V30 4965 C 456.483 -1.80513 -1.01108 0
M  V30 4966 C 456.898 -0.583533 -1.79556 0
M  V30 4967 O 456.255 0.447585 -1.76926 0
M  V30 4968 C 456.306 -3.03648 -1.96164 0
M  V30 4969 O 456.027 -4.2109 -1.20893 0
M  V30 4970 C 457.528 -3.41448 -2.82715 0
M  V30 4971 H 454.748 -0.601079 -0.298236 0
M  V30 4972 H 457.292 -2.02425 -0.290582 0
M  V30 4973 H 455.447 -2.83832 -2.63663 0
M  V30 4974 H 455.861 -4.90771 -1.85051 0
M  V30 4975 H 457.335 -4.30751 -3.45192 0
M  V30 4976 H 457.812 -2.61308 -3.53008 0
M  V30 4977 H 458.418 -3.63559 -2.20693 0
M  V30 4978 N 456.733 0.527833 -1.48498 0
M  V30 4979 C 457.681 1.65313 -1.63628 0
M  V30 4980 C 458.675 1.6177 -0.502676 0
M  V30 4981 O 459.881 1.66601 -0.681469 0
M  V30 4982 H 456.256 0.547518 -0.515488 0
M  V30 4983 H 458.227 1.49696 -2.58135 0
M  V30 4984 C 456.976 3.03576 -1.6952 0
M  V30 4985 H 456.299 3.06997 -2.56111 0
M  V30 4986 H 457.739 3.81923 -1.84149 0
M  V30 4987 C 456.198 3.34089 -0.43432 0
M  V30 4988 O 456.728 3.99151 0.451852 0
M  V30 4989 N 454.934 2.88991 -0.305368 0
M  V30 4990 H 454.481 2.36222 -1.02747 0
M  V30 4991 H 454.439 3.09776 0.537249 0
M  V30 4992 N 458.211 1.37122 0.776871 0
M  V30 4993 C 459.436 1.354 1.57104 0
M  V30 4994 C 459.861 -0.0595562 1.88006 0
M  V30 4995 O 459.219 -1.03514 1.48844 0
M  V30 4996 C 459.267 2.19472 2.8612 0
M  V30 4997 O 458.371 1.59582 3.80273 0
M  V30 4998 H 457.712 0.462869 0.476076 0
M  V30 4999 H 460.242 1.80577 0.961932 0
M  V30 5000 H 460.252 2.32502 3.35271 0
M  V30 5001 H 458.927 3.22222 2.62956 0
M  V30 5002 H 457.504 1.55564 3.38902 0
M  V30 5003 N 459.689 -1.00246 1.21608 0
M  V30 5004 C 460.929 -1.75589 1.04631 0
M  V30 5005 C 461.293 -1.87513 -0.412648 0
M  V30 5006 O 462.494 -2.59444 -0.703003 0
M  V30 5007 C 460.765 -3.12893 1.72722 0
M  V30 5008 S 462.324 -4.04095 1.71034 0
M  V30 5009 H 459.142 -0.604133 0.374892 0
M  V30 5010 H 461.744 -1.19927 1.54395 0
M  V30 5011 H 460.448 -3.0185 2.78055 0
M  V30 5012 H 459.979 -3.73628 1.23149 0
M  V30 5013 H 461.994 -4.9045 0.753231 0
M  V30 5014 N 461.167 -1.02423 -1.1978 0
M  V30 5015 C 462.413 -0.719051 -1.89625 0
M  V30 5016 C 462.746 0.750083 -1.7913 0
M  V30 5017 O 462.021 1.54574 -1.18056 0
M  V30 5018 C 462.304 -1.16499 -3.40735 0
M  V30 5019 C 462.157 -2.695 -3.60125 0
M  V30 5020 C 463.476 -0.742166 -4.33797 0
M  V30 5021 H 460.595 -0.26269 -0.688595 0
M  V30 5022 H 463.237 -1.27333 -1.41018 0
M  V30 5023 H 461.387 -0.69341 -3.82262 0
M  V30 5024 H 463.059 -3.24569 -3.278 0
M  V30 5025 H 461.302 -3.10113 -3.03336 0
M  V30 5026 H 461.973 -2.95757 -4.66081 0
M  V30 5027 H 464.449 -1.1477 -3.99959 0
M  V30 5028 H 463.325 -1.08213 -5.38127 0
M  V30 5029 H 463.586 0.355747 -4.40666 0
M  V30 5030 N 462.645 1.35699 -0.801477 0
M  V30 5031 C 463.593 2.3177 -0.196317 0
M  V30 5032 C 464.587 1.56388 0.651081 0
M  V30 5033 O 465.793 1.71557 0.544815 0
M  V30 5034 H 462.168 0.750669 -0.0447189 0
M  V30 5035 H 464.139 2.8036 -1.02181 0
M  V30 5036 C 462.888 3.41671 0.644702 0
M  V30 5037 H 462.211 3.998 0.0019921 0
M  V30 5038 H 463.651 4.11184 1.0346 0
M  V30 5039 C 462.11 2.84271 1.80808 0
M  V30 5040 O 462.64 2.77408 2.9053 0
M  V30 5041 N 460.846 2.41391 1.61799 0
M  V30 5042 H 460.393 2.47173 0.725493 0
M  V30 5043 H 460.351 2.03334 2.39797 0
M  V30 5044 N 464.123 0.554532 1.47522 0
M  V30 5045 C 465.534 0.120446 1.86311 0
M  V30 5046 C 465.885 -1.30904 1.46145 0
M  V30 5047 O 465.01 -1.98434 0.863294 0
M  V30 5048 C 465.605 0.211808 3.38137 0
M  V30 5049 C 464.164 -0.167224 3.76028 0
M  V30 5050 C 463.311 0.560576 2.71575 0
M  V30 5051 H 466.262 0.764408 1.39077 0
M  V30 5052 H 466.283 -0.570275 3.76202 0
M  V30 5053 H 465.795 1.25232 3.6734 0
M  V30 5054 H 463.896 -1.20894 3.52442 0
M  V30 5055 H 464.009 0.189473 4.78725 0
M  V30 5056 H 462.373 0.00396836 2.547 0
M  V30 5057 H 463.156 1.60219 3.0362 0
M  V30 5058 N 465.601 -1.54893 0.290851 0
M  V30 5059 C 466.848 -1.99933 -0.321391 0
M  V30 5060 C 467.176 -1.17927 -1.54672 0
M  V30 5061 O 466.431 -0.240902 -1.94212 0
M  V30 5062 C 466.73 -3.49815 -0.732397 0
M  V30 5063 C 466.396 -4.4921 0.390056 0
M  V30 5064 C 465.058 -4.76107 0.698223 0
M  V30 5065 C 467.41 -5.08453 1.14562 0
M  V30 5066 C 464.738 -5.59514 1.76526 0
M  V30 5067 C 467.09 -5.9302 2.2025 0
M  V30 5068 C 465.754 -6.18232 2.51684 0
M  V30 5069 H 465.024 -0.731608 -0.117605 0
M  V30 5070 H 467.671 -1.87107 0.407839 0
M  V30 5071 H 465.976 -3.60199 -1.54155 0
M  V30 5072 H 467.673 -3.82083 -1.21712 0
M  V30 5073 H 464.263 -4.28372 0.13976 0
M  V30 5074 H 468.447 -4.87683 0.920801 0
M  V30 5075 H 463.703 -5.77289 2.01364 0
M  V30 5076 H 467.877 -6.37955 2.7926 0
M  V30 5077 H 465.504 -6.82653 3.34499 0
M  V30 5078 N 467.08 -0.0183926 -1.57589 0
M  V30 5079 C 468.01 0.965596 -2.12599 0
M  V30 5080 C 468.991 1.34641 -1.0395 0
M  V30 5081 O 470.176 1.42693 -1.31729 0
M  V30 5082 C 467.306 2.25149 -2.64434 0
M  V30 5083 C 466.26 2.01175 -3.77773 0
M  V30 5084 C 465.586 3.35937 -4.15994 0
M  V30 5085 C 466.886 1.35953 -5.04296 0
M  V30 5086 H 468.58 0.507504 -2.95067 0
M  V30 5087 H 466.126 0.242671 -1.41941 0
M  V30 5088 H 468.079 2.94357 -3.01549 0
M  V30 5089 H 466.803 2.73105 -1.79112 0
M  V30 5090 H 465.462 1.34388 -3.4108 0
M  V30 5091 H 465.11 3.81631 -3.27669 0
M  V30 5092 H 464.81 3.20705 -4.92364 0
M  V30 5093 H 466.334 4.0643 -4.55683 0
M  V30 5094 H 467.748 1.95144 -5.39065 0
M  V30 5095 H 466.145 1.31152 -5.85593 0
M  V30 5096 H 467.215 0.331071 -4.83768 0
M  V30 5097 N 468.558 1.5553 0.254621 0
M  V30 5098 C 469.788 1.80784 1.00004 0
M  V30 5099 C 470.196 0.59071 1.79742 0
M  V30 5100 O 469.539 -0.449988 1.78103 0
M  V30 5101 C 469.601 2.99268 1.99196 0
M  V30 5102 C 469.265 4.35595 1.38224 0
M  V30 5103 C 470.262 5.13884 0.788611 0
M  V30 5104 C 467.947 4.82281 1.40393 0
M  V30 5105 C 469.941 6.37004 0.224783 0
M  V30 5106 C 467.628 6.05351 0.836243 0
M  V30 5107 C 468.626 6.82551 0.24769 0
M  V30 5108 O 468.314 8.03297 -0.311249 0
M  V30 5109 H 468.046 0.60565 0.300274 0
M  V30 5110 H 470.6 2.03411 0.285143 0
M  V30 5111 H 468.83 2.72377 2.74496 0
M  V30 5112 H 470.519 3.11682 2.60018 0
M  V30 5113 H 471.285 4.78938 0.764423 0
M  V30 5114 H 467.164 4.22189 1.85142 0
M  V30 5115 H 470.708 6.97203 -0.235235 0
M  V30 5116 H 466.605 6.39776 0.857733 0
M  V30 5117 H 467.373 8.1825 -0.20237 0
M  V30 5118 N 470.036 -0.519951 1.48776 0
M  V30 5119 C 471.276 -1.2856 1.58908 0
M  V30 5120 C 471.64 -1.90212 0.261418 0
M  V30 5121 O 472.841 -2.67746 0.237791 0
M  V30 5122 C 471.112 -2.33836 2.70288 0
M  V30 5123 S 472.671 -3.19992 3.0025 0
M  V30 5124 H 469.489 -0.43717 0.560717 0
M  V30 5125 H 472.091 -0.591205 1.86346 0
M  V30 5126 H 470.795 -1.87041 3.653 0
M  V30 5127 H 470.326 -3.07969 2.44783 0
M  V30 5128 H 472.341 -4.34122 2.40317 0
M  V30 5129 N 471.514 -1.37532 -0.769588 0
M  V30 5130 C 472.761 -1.3286 -1.52822 0
M  V30 5131 C 473.089 0.0862597 -1.94309 0
M  V30 5132 O 472.344 1.05995 -1.6451 0
M  V30 5133 C 472.643 -2.21558 -2.8044 0
M  V30 5134 C 472.309 -3.69796 -2.57996 0
M  V30 5135 C 470.971 -4.10194 -2.51583 0
M  V30 5136 C 473.323 -4.63699 -2.37976 0
M  V30 5137 C 470.651 -5.42608 -2.23144 0
M  V30 5138 C 473.003 -5.96353 -2.1106 0
M  V30 5139 C 471.667 -6.35853 -2.03093 0
M  V30 5140 H 470.937 -0.486168 -0.559215 0
M  V30 5141 H 473.584 -1.69757 -0.886277 0
M  V30 5142 H 471.889 -1.77663 -3.49204 0
M  V30 5143 H 473.586 -2.15256 -3.38328 0
M  V30 5144 H 470.176 -3.37759 -2.63851 0
M  V30 5145 H 474.36 -4.33346 -2.41919 0
M  V30 5146 H 469.616 -5.72173 -2.15472 0
M  V30 5147 H 473.79 -6.68667 -1.94568 0
M  V30 5148 H 471.417 -7.38382 -1.8082 0
M  V30 5149 N 472.992 0.995999 -1.22138 0
M  V30 5150 C 474.238 1.73767 -1.04561 0
M  V30 5151 C 474.571 1.89633 0.418698 0
M  V30 5152 O 473.846 1.43723 1.3105 0
M  V30 5153 C 474.129 3.14505 -1.75382 0
M  V30 5154 C 473.982 3.06306 -3.29388 0
M  V30 5155 C 475.301 4.13615 -1.50369 0
M  V30 5156 H 472.42 0.630728 -0.38125 0
M  V30 5157 H 475.062 1.16057 -1.50435 0
M  V30 5158 H 473.212 3.63775 -1.36383 0
M  V30 5159 H 474.884 2.64681 -3.77812 0
M  V30 5160 H 473.127 2.43186 -3.59226 0
M  V30 5161 H 473.798 4.05884 -3.74116 0
M  V30 5162 H 476.274 3.73089 -1.84239 0
M  V30 5163 H 475.15 5.10212 -2.02421 0
M  V30 5164 H 475.411 4.39949 -0.435611 0
M  V30 5165 N 474.47 1.03057 1.19235 0
M  V30 5166 C 475.718 0.726581 1.88587 0
M  V30 5167 C 476.039 -0.747227 1.80115 0
M  V30 5168 O 475.309 -1.53849 1.21274 0
M  V30 5169 H 473.889 0.265768 0.698124 0
M  V30 5170 H 476.551 1.30516 1.44746 0
M  V30 5171 H 475.647 1.0224 2.94879 0
M  V30 5172 N 475.948 -1.35272 0.808662 0
M  V30 5173 C 476.896 -2.31663 0.208606 0
M  V30 5174 C 477.89 -1.56731 -0.642778 0
M  V30 5175 O 479.096 -1.71843 -0.53571 0
M  V30 5176 H 475.471 -0.750421 0.0486993 0
M  V30 5177 H 477.442 -2.79814 1.03666 0
M  V30 5178 C 476.191 -3.42008 -0.626573 0
M  V30 5179 H 475.514 -3.99795 0.0192103 0
M  V30 5180 H 476.954 -4.11727 -1.01278 0
M  V30 5181 C 475.413 -2.85226 -1.79298 0
M  V30 5182 O 475.943 -2.78945 -2.89055 0
M  V30 5183 N 474.149 -2.42245 -1.60516 0
M  V30 5184 H 473.696 -2.47554 -0.712375 0
M  V30 5185 H 473.654 -2.04603 -2.38715 0
M  V30 5186 N 477.426 -0.562348 -1.47226 0
M  V30 5187 C 478.842 -0.222492 -1.58042 0
M  V30 5188 C 479.042 1.27505 -1.56028 0
M  V30 5189 O 478.098 2.05555 -1.46641 0
M  V30 5190 C 479.411 -0.853694 -2.88327 0
M  V30 5191 C 480.959 -0.825397 -3.01921 0
M  V30 5192 C 481.434 -1.43576 -4.34914 0
M  V30 5193 N 482.925 -1.39918 -4.41562 0
M  V30 5194 C 483.66 -1.84103 -5.43041 0
M  V30 5195 N 483.156 -2.36167 -6.51304 0
M  V30 5196 N 484.949 -1.75142 -5.34118 0
M  V30 5197 H 477.1 -1.53525 -1.46778 0
M  V30 5198 H 479.363 -0.640527 -0.698877 0
M  V30 5199 H 479.069 -1.90635 -2.95552 0
M  V30 5200 H 478.943 -0.34977 -3.75575 0
M  V30 5201 H 481.33 0.218583 -2.94289 0
M  V30 5202 H 481.411 -1.36713 -2.16202 0
M  V30 5203 H 481.055 -2.47884 -4.43301 0
M  V30 5204 H 480.985 -0.869427 -5.19373 0
M  V30 5205 H 483.476 -1.0184 -3.63919 0
M  V30 5206 H 483.789 -2.67793 -7.24919 0
M  V30 5207 H 482.134 -2.40181 -6.52179 0
M  V30 5208 H 485.325 -1.34241 -4.48439 0
M  V30 5209 H 485.498 -2.09895 -6.13065 0
M  V30 5210 N 478.904 1.54736 -0.299062 0
M  V30 5211 C 480.151 2.00101 0.310784 0
M  V30 5212 C 480.479 1.18746 1.54045 0
M  V30 5213 O 479.734 0.251198 1.94081 0
M  V30 5214 C 480.033 3.50199 0.713835 0
M  V30 5215 C 479.699 4.48997 -0.413873 0
M  V30 5216 C 478.361 4.7573 -0.723462 0
M  V30 5217 C 480.713 5.07839 -1.17257 0
M  V30 5218 C 478.041 5.5857 -1.79491 0
M  V30 5219 C 480.393 5.91844 -2.23392 0
M  V30 5220 C 479.057 6.16889 -2.54959 0
M  V30 5221 H 478.327 0.732221 0.113724 0
M  V30 5222 H 480.974 1.86888 -0.417756 0
M  V30 5223 H 479.279 3.61012 1.52243 0
M  V30 5224 H 480.976 3.82723 1.19684 0
M  V30 5225 H 477.566 4.28292 -0.162476 0
M  V30 5226 H 481.75 4.87188 -0.946651 0
M  V30 5227 H 477.006 5.76213 -2.04423 0
M  V30 5228 H 481.18 6.36465 -2.8264 0
M  V30 5229 H 478.807 6.80869 -3.38114 0
M  V30 5230 N 480.382 0.0267497 1.57577 0
M  V30 5231 C 481.314 -0.984594 2.06974 0
M  V30 5232 C 482.327 -1.29032 0.992705 0
M  V30 5233 O 483.516 -1.25539 1.26895 0
M  V30 5234 C 480.616 -2.31262 2.47732 0
M  V30 5235 C 479.789 -2.1924 3.78487 0
M  V30 5236 C 478.848 -3.34956 4.05821 0
M  V30 5237 O 477.874 -3.11948 4.76106 0
M  V30 5238 N 479.076 -4.58672 3.55809 0
M  V30 5239 H 481.841 -0.563143 2.94362 0
M  V30 5240 H 479.402 -0.160061 1.61107 0
M  V30 5241 H 481.394 -3.07496 2.63112 0
M  V30 5242 H 479.964 -2.65056 1.65723 0
M  V30 5243 H 479.184 -1.27747 3.72927 0
M  V30 5244 H 480.472 -2.08409 4.64158 0
M  V30 5245 H 479.87 -4.8026 2.98942 0
M  V30 5246 H 478.427 -5.32083 3.76472 0
M  V30 5247 N 481.861 -1.55662 -0.24637 0
M  V30 5248 C 482.793 -1.86811 -1.32794 0
M  V30 5249 C 483.806 -0.754413 -1.44265 0
M  V30 5250 O 484.995 -1.03253 -1.45606 0
M  V30 5251 C 482.095 -2.0397 -2.70646 0
M  V30 5252 C 481.268 -3.34832 -2.81436 0
M  V30 5253 C 480.327 -3.41727 -4.00136 0
M  V30 5254 O 479.353 -4.14934 -3.89639 0
M  V30 5255 N 480.555 -2.71058 -5.1333 0
M  V30 5256 H 483.32 -2.80174 -1.06409 0
M  V30 5257 H 480.881 -1.55906 -0.43647 0
M  V30 5258 H 482.873 -2.05924 -3.48393 0
M  V30 5259 H 481.443 -1.1735 -2.89738 0
M  V30 5260 H 480.663 -3.4519 -1.90361 0
M  V30 5261 H 481.951 -4.21085 -2.85595 0
M  V30 5262 H 481.349 -2.11314 -5.2475 0
M  V30 5263 H 479.906 -2.78704 -5.89209 0
M  V30 5264 N 483.339 0.512053 -1.4905 0
M  V30 5265 C 484.286 1.6148 -1.64902 0
M  V30 5266 C 485.256 1.58687 -0.490673 0
M  V30 5267 O 486.441 1.76842 -0.71636 0
M  V30 5268 C 483.581 2.99676 -1.71139 0
M  V30 5269 C 482.694 3.12568 -2.98203 0
M  V30 5270 C 481.829 4.4143 -2.95487 0
M  V30 5271 C 480.868 4.47916 -4.17179 0
M  V30 5272 N 480.005 5.68191 -4.12437 0
M  V30 5273 H 484.845 1.47271 -2.59066 0
M  V30 5274 H 482.382 0.716713 -1.28459 0
M  V30 5275 H 484.34 3.79761 -1.72736 0
M  V30 5276 H 482.97 3.12614 -0.804508 0
M  V30 5277 H 482.022 2.25618 -3.06269 0
M  V30 5278 H 483.334 3.1322 -3.88194 0
M  V30 5279 H 482.488 5.29825 -2.95585 0
M  V30 5280 H 481.227 4.43326 -2.03256 0
M  V30 5281 H 480.232 3.57925 -4.17337 0
M  V30 5282 H 481.457 4.47744 -5.1059 0
M  V30 5283 H 479.403 5.7095 -3.23036 0
M  V30 5284 H 479.32 5.70413 -4.96151 0
M  V30 5285 H 480.588 6.58823 -4.16621 0
M  V30 5286 N 484.817 1.37938 0.762283 0
M  V30 5287 C 485.747 1.37176 1.88958 0
M  V30 5288 C 486.728 0.238945 1.68413 0
M  V30 5289 O 487.913 0.440726 1.89133 0
M  V30 5290 C 485.043 1.18742 3.2637 0
M  V30 5291 C 483.997 2.29136 3.61498 0
M  V30 5292 C 483.323 1.95816 4.97554 0
M  V30 5293 C 484.623 3.71363 3.6727 0
M  V30 5294 H 486.317 2.31509 1.89853 0
M  V30 5295 H 483.863 1.11438 0.912005 0
M  V30 5296 H 485.816 1.16837 4.04879 0
M  V30 5297 H 484.54 0.208683 3.25933 0
M  V30 5298 H 483.199 2.30213 2.85303 0
M  V30 5299 H 482.847 0.964475 4.93667 0
M  V30 5300 H 482.547 2.69745 5.22026 0
M  V30 5301 H 484.071 1.95513 5.78452 0
M  V30 5302 H 485.485 3.72364 4.35911 0
M  V30 5303 H 483.882 4.44425 4.03245 0
M  V30 5304 H 484.952 4.04305 2.67704 0
M  V30 5305 N 486.295 -0.989507 1.22664 0
M  V30 5306 C 487.711 -1.25395 0.987331 0
M  V30 5307 C 487.911 -1.9899 -0.317056 0
M  V30 5308 O 486.967 -2.30141 -1.03882 0
M  V30 5309 C 488.28 -2.06242 2.18826 0
M  V30 5310 C 489.828 -2.19413 2.23219 0
M  V30 5311 C 490.303 -3.03648 3.42873 0
M  V30 5312 N 491.794 -3.11234 3.43056 0
M  V30 5313 C 492.529 -3.7671 4.32293 0
M  V30 5314 N 492.025 -4.44085 5.31752 0
M  V30 5315 N 493.818 -3.73505 4.2006 0
M  V30 5316 H 485.969 -0.496212 2.06522 0
M  V30 5317 H 488.232 -0.281784 0.905153 0
M  V30 5318 H 487.938 -1.59531 3.13437 0
M  V30 5319 H 487.812 -3.06996 2.19165 0
M  V30 5320 H 490.199 -2.65336 1.29154 0
M  V30 5321 H 490.28 -1.18078 2.26917 0
M  V30 5322 H 489.924 -2.58424 4.37241 0
M  V30 5323 H 489.854 -4.05132 3.36416 0
M  V30 5324 H 492.345 -2.63287 2.71088 0
M  V30 5325 H 492.658 -4.91797 5.96117 0
M  V30 5326 H 491.003 -4.42822 5.35662 0
M  V30 5327 H 494.194 -3.20033 3.41609 0
M  V30 5328 H 494.367 -4.24253 4.8981 0
M  V30 5329 N 487.773 -1.03688 -1.18687 0
M  V30 5330 C 488.998 -0.757819 -1.93059 0
M  V30 5331 C 489.423 0.678353 -1.75442 0
M  V30 5332 O 488.781 1.46938 -1.06203 0
M  V30 5333 C 488.829 -1.12423 -3.42627 0
M  V30 5334 O 487.933 -0.247505 -4.11657 0
M  V30 5335 H 487.274 -0.279245 -0.602427 0
M  V30 5336 H 489.804 -1.3857 -1.5053 0
M  V30 5337 H 489.814 -1.08454 -3.93322 0
M  V30 5338 H 488.489 -2.17049 -3.54771 0
M  V30 5339 H 487.066 -0.34649 -3.71287 0
M  V30 5340 N 489.251 1.34841 -0.815825 0
M  V30 5341 C 490.497 1.98793 -0.401129 0
M  V30 5342 C 490.83 1.64548 1.03139 0
M  V30 5343 O 490.105 0.913487 1.71714 0
M  V30 5344 C 490.388 3.55143 -0.595409 0
M  V30 5345 C 490.241 3.99155 -2.07352 0
M  V30 5346 C 491.56 4.40092 -0.0268823 0
M  V30 5347 H 488.679 0.722146 -0.14722 0
M  V30 5348 H 491.321 1.59847 -1.02707 0
M  V30 5349 H 489.471 3.8845 -0.0625779 0
M  V30 5350 H 491.143 3.76216 -2.66945 0
M  V30 5351 H 489.386 3.49726 -2.56659 0
M  V30 5352 H 490.057 5.07971 -2.1603 0
M  V30 5353 H 492.533 4.13298 -0.482042 0
M  V30 5354 H 491.409 5.48562 -0.19267 0
M  V30 5355 H 491.67 4.29016 1.06759 0
M  V30 5356 N 490.729 0.570148 1.46925 0
M  V30 5357 C 491.976 0.0509529 2.02436 0
M  V30 5358 C 492.304 -1.30405 1.44308 0
M  V30 5359 O 491.559 -1.86493 0.593198 0
M  V30 5360 C 491.858 -0.0780336 3.57315 0
M  V30 5361 C 491.524 1.20775 4.34424 0
M  V30 5362 C 490.186 1.56004 4.5521 0
M  V30 5363 C 492.538 2.0592 4.78797 0
M  V30 5364 C 489.866 2.76201 5.17619 0
M  V30 5365 C 492.218 3.25332 5.42533 0
M  V30 5366 C 490.882 3.60859 5.61549 0
M  V30 5367 H 490.152 0.018645 0.740765 0
M  V30 5368 H 492.799 0.744262 1.76445 0
M  V30 5369 H 491.104 -0.854394 3.82371 0
M  V30 5370 H 492.801 -0.495312 3.97929 0
M  V30 5371 H 489.391 0.923469 4.18533 0
M  V30 5372 H 493.575 1.80008 4.62505 0
M  V30 5373 H 488.831 3.0388 5.30535 0
M  V30 5374 H 493.005 3.91586 5.75876 0
M  V30 5375 H 490.632 4.54088 6.09678 0
M  V30 5376 N 492.207 -1.54576 0.307264 0
M  V30 5377 C 493.623 -1.59534 -0.0459251 0
M  V30 5378 C 493.823 -1.32414 -1.51884 0
M  V30 5379 O 492.879 -1.1006 -2.27251 0
M  V30 5380 C 494.192 -2.98566 0.357649 0
M  V30 5381 C 495.74 -3.11491 0.306937 0
M  V30 5382 C 496.215 -4.52842 0.685427 0
M  V30 5383 N 497.706 -4.58782 0.638203 0
M  V30 5384 C 498.441 -5.66238 0.903458 0
M  V30 5385 N 497.937 -6.81703 1.23501 0
M  V30 5386 N 499.73 -5.55937 0.830102 0
M  V30 5387 H 491.881 -1.70464 1.26712 0
M  V30 5388 H 494.144 -0.79647 0.514139 0
M  V30 5389 H 493.85 -3.23356 1.38325 0
M  V30 5390 H 493.724 -3.76117 -0.285565 0
M  V30 5391 H 496.111 -2.86446 -0.709424 0
M  V30 5392 H 496.192 -2.36081 0.984861 0
M  V30 5393 H 495.836 -4.78618 1.69963 0
M  V30 5394 H 495.766 -5.26598 -0.0146346 0
M  V30 5395 H 498.257 -3.75849 0.393138 0
M  V30 5396 H 498.57 -7.59582 1.42322 0
M  V30 5397 H 496.915 -6.8324 1.27311 0
M  V30 5398 H 500.106 -4.64608 0.570693 0
M  V30 5399 H 500.279 -6.39597 1.04019 0
M  V30 5400 N 493.685 -0.035106 -1.57561 0
M  V30 5401 C 494.931 0.64318 -1.92331 0
M  V30 5402 C 495.264 1.71434 -0.912368 0
M  V30 5403 O 494.539 1.94395 0.0640303 0
M  V30 5404 C 494.822 1.25411 -3.37556 0
M  V30 5405 C 494.675 0.192109 -4.4939 0
M  V30 5406 C 495.994 2.17041 -3.82859 0
M  V30 5407 H 493.113 0.232341 -0.699419 0
M  V30 5408 H 495.755 -0.0935889 -1.89769 0
M  V30 5409 H 493.905 1.88205 -3.39869 0
M  V30 5410 H 495.577 -0.438849 -4.59208 0
M  V30 5411 H 493.82 -0.481725 -4.31117 0
M  V30 5412 H 494.491 0.659292 -5.48049 0
M  V30 5413 H 496.967 1.64228 -3.8232 0
M  V30 5414 H 495.843 2.56738 -4.85157 0
M  V30 5415 H 496.104 3.06401 -3.18702 0
M  V30 5416 N 495.163 1.55791 0.238111 0
M  V30 5417 C 496.574 1.68383 0.806472 0
M  V30 5418 C 496.925 0.634157 1.85669 0
M  V30 5419 O 496.05 -0.217913 2.153 0
M  V30 5420 C 496.645 3.05268 1.46959 0
M  V30 5421 C 495.204 3.1977 1.98555 0
M  V30 5422 C 494.351 2.64279 0.839763 0
M  V30 5423 H 497.302 1.58694 0.0137535 0
M  V30 5424 H 497.323 3.00203 2.33792 0
M  V30 5425 H 496.835 3.81643 0.704993 0
M  V30 5426 H 494.936 2.48234 2.77868 0
M  V30 5427 H 495.049 4.26788 2.17689 0
M  V30 5428 H 493.413 2.22329 1.24265 0
M  V30 5429 H 494.196 3.43187 0.0881032 0
M  V30 5430 N 496.642 -0.504142 1.49319 0
M  V30 5431 C 497.891 -1.25507 1.57895 0
M  V30 5432 C 498.204 -1.93735 0.269433 0
M  V30 5433 O 499.41 -2.70492 0.233706 0
M  V30 5434 C 497.866 -2.27869 2.78574 0
M  V30 5435 C 497.474 -1.65594 4.16272 0
M  V30 5436 C 499.218 -3.0381 2.96479 0
M  V30 5437 C 497.125 -2.66048 5.28178 0
M  V30 5438 H 496.055 -0.47212 0.587894 0
M  V30 5439 H 498.706 -0.52931 1.757 0
M  V30 5440 H 497.088 -3.03594 2.54257 0
M  V30 5441 H 498.262 -0.958826 4.50714 0
M  V30 5442 H 496.577 -1.02055 4.037 0
M  V30 5443 H 499.174 -3.78925 3.77253 0
M  V30 5444 H 499.517 -3.61235 2.06918 0
M  V30 5445 H 500.05 -2.352 3.20821 0
M  V30 5446 H 496.789 -2.13408 6.19788 0
M  V30 5447 H 496.309 -3.34009 4.98195 0
M  V30 5448 H 497.988 -3.28536 5.57381 0
M  V30 5449 N 498.12 -1.38341 -0.754957 0
M  V30 5450 C 499.348 -1.37704 -1.54419 0
M  V30 5451 C 499.763 0.0335243 -1.8877 0
M  V30 5452 O 499.12 0.999773 -1.52679 0
M  V30 5453 C 499.171 -2.23136 -2.84416 0
M  V30 5454 O 498.892 -3.58697 -2.51531 0
M  V30 5455 C 500.393 -2.30664 -3.78562 0
M  V30 5456 H 497.613 -0.471061 -0.477852 0
M  V30 5457 H 500.157 -1.81902 -0.934446 0
M  V30 5458 H 498.312 -1.82403 -3.41772 0
M  V30 5459 H 498.726 -4.03665 -3.34896 0
M  V30 5460 H 500.2 -2.9473 -4.66732 0
M  V30 5461 H 500.677 -1.3199 -4.18898 0
M  V30 5462 H 501.283 -2.71781 -3.27131 0
M  V30 5463 N 499.598 0.982988 -1.23187 0
M  V30 5464 C 500.844 1.7273 -1.07405 0
M  V30 5465 C 501.199 1.885 0.385447 0
M  V30 5466 O 500.492 1.4243 1.28157 0
M  V30 5467 C 500.686 3.12736 -1.73006 0
M  V30 5468 C 500.515 3.10621 -3.25184 0
M  V30 5469 C 499.285 3.15957 -3.94334 0
M  V30 5470 C 501.483 2.93992 -4.21987 0
M  V30 5471 N 499.465 3.03701 -5.33516 0
M  V30 5472 C 500.836 2.8987 -5.48065 0
M  V30 5473 C 502.891 2.78457 -4.12754 0
M  V30 5474 C 501.594 2.71804 -6.65969 0
M  V30 5475 C 503.62 2.61754 -5.30319 0
M  V30 5476 C 502.982 2.58328 -6.55321 0
M  V30 5477 H 499.081 0.641279 -0.447533 0
M  V30 5478 H 501.665 1.16664 -1.55877 0
M  V30 5479 H 499.836 3.67026 -1.2707 0
M  V30 5480 H 501.568 3.75786 -1.50224 0
M  V30 5481 H 498.323 3.24034 -3.45397 0
M  V30 5482 H 498.747 3.00855 -6.06478 0
M  V30 5483 H 503.389 2.79898 -3.16886 0
M  V30 5484 H 501.107 2.69108 -7.61975 0
M  V30 5485 H 504.693 2.50702 -5.25014 0
M  V30 5486 H 503.573 2.45564 -7.4476 0
M  V30 5487 N 501.076 1.04316 1.18135 0
M  V30 5488 C 502.006 0.657299 2.24058 0
M  V30 5489 C 502.987 -0.340678 1.66654 0
M  V30 5490 O 504.172 -0.220223 1.92947 0
M  V30 5491 C 501.302 0.0220715 3.47293 0
M  V30 5492 C 500.256 0.943857 4.17463 0
M  V30 5493 C 499.582 0.172973 5.3442 0
M  V30 5494 C 500.882 2.26409 4.70677 0
M  V30 5495 H 502.576 1.5428 2.56589 0
M  V30 5496 H 500.122 0.743263 1.23335 0
M  V30 5497 H 502.075 -0.259607 4.206 0
M  V30 5498 H 500.799 -0.898323 3.14003 0
M  V30 5499 H 499.458 1.20996 3.46057 0
M  V30 5500 H 499.106 -0.749907 4.97379 0
M  V30 5501 H 498.806 0.787098 5.82304 0
M  V30 5502 H 500.33 -0.101628 6.10515 0
M  V30 5503 H 501.744 2.04294 5.35665 0
M  V30 5504 H 500.141 2.8314 5.29105 0
M  V30 5505 H 501.211 2.90883 3.87962 0
M  V30 5506 N 502.554 -1.34406 0.822964 0
M  V30 5507 C 503.486 -2.28305 0.202375 0
M  V30 5508 C 504.499 -1.5103 -0.60777 0
M  V30 5509 O 505.688 -1.73057 -0.437444 0
M  V30 5510 C 502.788 -3.30836 -0.734911 0
M  V30 5511 C 501.961 -4.37388 0.0324177 0
M  V30 5512 C 501.02 -5.1968 -0.825803 0
M  V30 5513 O 500.046 -5.68556 -0.270771 0
M  V30 5514 N 501.248 -5.39393 -2.14558 0
M  V30 5515 H 504.013 -2.82201 1.00909 0
M  V30 5516 H 501.574 -1.4693 0.67993 0
M  V30 5517 H 503.566 -3.82786 -1.31365 0
M  V30 5518 H 502.136 -2.77334 -1.44238 0
M  V30 5519 H 501.356 -3.86152 0.792469 0
M  V30 5520 H 502.644 -5.05702 0.560633 0
M  V30 5521 H 502.042 -5.01357 -2.62025 0
M  V30 5522 H 500.599 -5.94461 -2.67318 0
M  V30 5523 N 504.032 -0.577932 -1.46621 0
M  V30 5524 C 505.28 -0.061566 -2.02006 0
M  V30 5525 C 505.601 1.30117 -1.4524 0
M  V30 5526 O 504.871 1.85313 -0.63529 0
M  V30 5527 H 503.451 -0.0197692 -0.746738 0
M  V30 5528 H 506.113 -0.752631 -1.79782 0
M  V30 5529 H 505.209 0.0110238 -3.12098 0
M  V30 5530 N 505.51 1.54411 -0.315457 0
M  V30 5531 C 506.457 2.24048 0.554166 0
M  V30 5532 C 507.427 1.2283 1.11812 0
M  V30 5533 O 508.612 1.51491 1.15997 0
M  V30 5534 C 505.752 2.99574 1.71316 0
M  V30 5535 C 504.865 4.15594 1.17922 0
M  V30 5536 C 504 4.78669 2.30324 0
M  V30 5537 C 503.039 5.86807 1.74137 0
M  V30 5538 N 502.176 6.43777 2.8017 0
M  V30 5539 H 507.016 2.97964 -0.0462602 0
M  V30 5540 H 504.553 1.47059 -0.0346009 0
M  V30 5541 H 506.511 3.41604 2.39505 0
M  V30 5542 H 505.141 2.28008 2.285 0
M  V30 5543 H 504.193 3.78404 0.389136 0
M  V30 5544 H 505.505 4.93459 0.728012 0
M  V30 5545 H 504.659 5.23626 3.06433 0
M  V30 5546 H 503.398 4.00168 2.78778 0
M  V30 5547 H 502.403 5.41261 0.965236 0
M  V30 5548 H 503.628 6.67201 1.2657 0
M  V30 5549 H 501.574 5.68153 3.2793 0
M  V30 5550 H 501.491 7.17031 2.39588 0
M  V30 5551 H 502.759 6.9339 3.56132 0
M  V30 5552 N 506.988 0.0434614 1.5754 0
M  V30 5553 C 508.404 -0.313039 1.565 0
M  V30 5554 C 508.604 -1.71954 1.05043 0
M  V30 5555 O 507.66 -2.425 0.703564 0
M  V30 5556 C 508.973 -0.148544 3.00333 0
M  V30 5557 C 510.521 -0.220231 3.12224 0
M  V30 5558 C 510.996 -0.0843565 4.57922 0
M  V30 5559 N 512.487 -0.140881 4.62986 0
M  V30 5560 C 513.222 -0.0597443 5.73369 0
M  V30 5561 N 512.718 0.0733004 6.92761 0
M  V30 5562 N 514.511 -0.11477 5.61983 0
M  V30 5563 H 506.662 0.96303 1.89313 0
M  V30 5564 H 508.925 0.373164 0.871466 0
M  V30 5565 H 508.631 0.820894 3.41986 0
M  V30 5566 H 508.505 -0.912798 3.65989 0
M  V30 5567 H 510.892 -1.18014 2.70475 0
M  V30 5568 H 510.973 0.574646 2.49262 0
M  V30 5569 H 510.617 0.872192 5.00355 0
M  V30 5570 H 510.547 -0.898281 5.18882 0
M  V30 5571 H 513.038 -0.243273 3.77116 0
M  V30 5572 H 513.351 0.128128 7.72694 0
M  V30 5573 H 511.696 0.10828 6.94916 0
M  V30 5574 H 514.887 -0.217212 4.67596 0
M  V30 5575 H 515.06 -0.0480779 6.47982 0
M  V30 5576 N 508.466 -1.55915 -0.229846 0
M  V30 5577 C 509.376 -1.94891 -1.30593 0
M  V30 5578 C 510.392 -0.851604 -1.51736 0
M  V30 5579 O 511.568 -1.15447 -1.65027 0
M  V30 5580 C 508.633 -2.25052 -2.63728 0
M  V30 5581 C 507.694 -3.48306 -2.5096 0
M  V30 5582 C 506.927 -3.77019 -3.77747 0
M  V30 5583 O 507.15 -3.07534 -4.80395 0
M  V30 5584 O 506.084 -4.70523 -3.75356 0
M  V30 5585 H 509.91 -2.86581 -1.00525 0
M  V30 5586 H 507.495 -1.43017 -0.432025 0
M  V30 5587 H 509.377 -2.45682 -3.42372 0
M  V30 5588 H 508.052 -1.36538 -2.93495 0
M  V30 5589 H 506.959 -3.32964 -1.70546 0
M  V30 5590 H 508.292 -4.37177 -2.26136 0
M  V30 5591 N 509.944 0.496216 -1.49584 0
M  V30 5592 C 511.169 1.27865 -1.63295 0
M  V30 5593 C 511.594 1.85592 -0.306156 0
M  V30 5594 O 510.952 1.66092 0.726851 0
M  V30 5595 C 511 2.38128 -2.7079 0
M  V30 5596 O 510.104 3.42108 -2.30296 0
M  V30 5597 H 509.445 0.377279 -0.546403 0
M  V30 5598 H 511.975 0.593497 -1.95803 0
M  V30 5599 H 511.985 2.8382 -2.93104 0
M  V30 5600 H 510.66 1.95479 -3.67098 0
M  V30 5601 H 509.237 3.02301 -2.18331 0
M  V30 5602 N 511.423 1.38739 0.74761 0
M  V30 5603 C 512.356 1.3083 1.86972 0
M  V30 5604 C 513.334 0.184229 1.61553 0
M  V30 5605 O 514.518 0.36256 1.8498 0
M  V30 5606 C 511.645 1.02854 3.22705 0
M  V30 5607 C 510.691 2.17281 3.67003 0
M  V30 5608 S 511.524 3.79468 3.77842 0
M  V30 5609 C 512.68 3.53692 5.16385 0
M  V30 5610 H 512.913 2.258 1.93395 0
M  V30 5611 H 510.446 1.24646 0.911199 0
M  V30 5612 H 512.404 0.87397 4.01089 0
M  V30 5613 H 511.065 0.0959295 3.13953 0
M  V30 5614 H 510.258 1.93267 4.65472 0
M  V30 5615 H 509.86 2.28876 2.9579 0
M  V30 5616 H 512.152 3.10176 6.02327 0
M  V30 5617 H 513.095 4.51576 5.45422 0
M  V30 5618 H 513.503 2.8807 4.85464 0
M  V30 5619 N 512.901 -0.976442 1.23707 0
M  V30 5620 C 514.126 -1.75875 1.09922 0
M  V30 5621 C 514.551 -1.84911 -0.34489 0
M  V30 5622 O 513.909 -1.31363 -1.24954 0
M  V30 5623 C 513.957 -3.16179 1.73388 0
M  V30 5624 O 513.061 -4.00124 0.99871 0
M  V30 5625 H 512.402 -0.540954 0.385052 0
M  V30 5626 H 514.932 -1.22546 1.6384 0
M  V30 5627 H 514.942 -3.66741 1.78788 0
M  V30 5628 H 513.617 -3.08917 2.78466 0
M  V30 5629 H 512.194 -3.58624 1.02193 0
M  V30 5630 N 514.379 -1.04941 -1.1758 0
M  V30 5631 C 515.619 -0.766996 -1.89464 0
M  V30 5632 C 515.983 0.693123 -1.79053 0
M  V30 5633 O 517.184 1.08953 -2.45729 0
M  V30 5634 C 515.455 -1.23108 -3.35528 0
M  V30 5635 S 517.014 -1.07565 -4.25412 0
M  V30 5636 H 513.832 -0.278616 -0.654136 0
M  V30 5637 H 516.434 -1.34352 -1.4202 0
M  V30 5638 H 515.138 -2.28896 -3.40639 0
M  V30 5639 H 514.669 -0.648724 -3.88014 0
M  V30 5640 H 516.684 0.00169467 -4.962 0
M  V30 5641 N 515.857 1.33968 -0.830081 0
M  V30 5642 C 517.273 1.51003 -0.516742 0
M  V30 5643 C 517.473 1.77286 0.957694 0
M  V30 5644 O 516.529 1.82797 1.74188 0
M  V30 5645 C 517.842 2.67036 -1.38247 0
M  V30 5646 C 519.39 2.80919 -1.38034 0
M  V30 5647 C 519.865 4.00004 -2.23071 0
M  V30 5648 N 521.356 4.07224 -2.20733 0
M  V30 5649 C 522.091 4.98541 -2.83275 0
M  V30 5650 N 521.587 5.95033 -3.54835 0
M  V30 5651 N 523.38 4.91469 -2.72791 0
M  V30 5652 H 515.531 1.15168 -1.78466 0
M  V30 5653 H 517.794 0.565443 -0.760906 0
M  V30 5654 H 517.5 2.54266 -2.42985 0
M  V30 5655 H 517.374 3.62226 -1.05225 0
M  V30 5656 H 519.761 2.93127 -0.340713 0
M  V30 5657 H 519.842 1.86517 -1.75057 0
M  V30 5658 H 519.486 3.88557 -3.27087 0
M  V30 5659 H 519.416 4.93634 -1.83394 0
M  V30 5660 H 521.907 3.38162 -1.68687 0
M  V30 5661 H 522.22 6.61357 -3.99784 0
M  V30 5662 H 520.565 5.95135 -3.58942 0
M  V30 5663 H 523.756 4.15048 -2.16456 0
M  V30 5664 H 523.929 5.62439 -3.21818 0
M  V30 5665 N 517.335 0.585699 1.46312 0
M  V30 5666 C 518.282 -0.145835 2.30339 0
M  V30 5667 C 519.252 -0.881215 1.40797 0
M  V30 5668 O 520.437 -0.871293 1.69744 0
M  V30 5669 C 517.577 -1.15161 3.25318 0
M  V30 5670 C 516.69 -0.419367 4.2996 0
M  V30 5671 C 515.825 -1.41293 5.12064 0
M  V30 5672 C 514.864 -0.667261 6.08452 0
M  V30 5673 N 514.001 -1.60903 6.83414 0
M  V30 5674 H 518.841 0.576755 2.92365 0
M  V30 5675 H 516.378 0.296237 1.44086 0
M  V30 5676 H 518.336 -1.74763 3.78832 0
M  V30 5677 H 516.966 -1.84188 2.65094 0
M  V30 5678 H 516.018 0.291751 3.7928 0
M  V30 5679 H 517.33 0.163433 4.98532 0
M  V30 5680 H 516.484 -2.08167 5.6987 0
M  V30 5681 H 515.223 -2.02966 4.43459 0
M  V30 5682 H 514.228 0.0152356 5.49798 0
M  V30 5683 H 515.453 -0.0558817 6.79077 0
M  V30 5684 H 513.399 -2.21381 6.17516 0
M  V30 5685 H 513.316 -1.07911 7.48259 0
M  V30 5686 H 514.584 -2.26802 7.45775 0
M  V30 5687 N 518.813 -1.54241 0.323641 0
M  V30 5688 C 520.038 -2.05452 -0.283605 0
M  V30 5689 C 520.463 -1.19823 -1.44997 0
M  V30 5690 O 519.821 -0.207358 -1.8011 0
M  V30 5691 C 519.869 -3.53823 -0.695795 0
M  V30 5692 O 518.973 -3.71134 -1.79815 0
M  V30 5693 H 518.314 -0.662024 -0.0511917 0
M  V30 5694 H 520.844 -1.99079 0.472073 0
M  V30 5695 H 520.854 -3.96094 -0.978434 0
M  V30 5696 H 519.529 -4.15602 0.157287 0
M  V30 5697 H 518.106 -3.40768 -1.51431 0
M  V30 5698 N 520.291 -0.0518155 -1.57515 0
M  V30 5699 C 521.516 0.634896 -1.97443 0
M  V30 5700 C 521.941 1.63546 -0.929207 0
M  V30 5701 O 521.299 1.80981 0.107484 0
M  V30 5702 C 521.347 1.29765 -3.36442 0
M  V30 5703 O 520.451 2.41333 -3.34413 0
M  V30 5704 H 519.792 0.164994 -0.643174 0
M  V30 5705 H 522.322 -0.120407 -2.04245 0
M  V30 5706 H 522.332 1.64918 -3.73184 0
M  V30 5707 H 521.007 0.564361 -4.12053 0
M  V30 5708 H 519.584 2.08122 -3.09418 0
M  V30 5709 N 521.769 1.56035 0.221574 0
M  V30 5710 C 522.994 1.83476 0.967026 0
M  V30 5711 C 523.419 0.632139 1.7716 0
M  V30 5712 O 522.777 -0.419082 1.7639 0
M  V30 5713 C 522.825 3.08907 1.86034 0
M  V30 5714 O 521.929 2.876 2.95567 0
M  V30 5715 H 521.27 0.604913 0.273817 0
M  V30 5716 H 523.8 2.03247 0.234893 0
M  V30 5717 H 523.81 3.3901 2.27016 0
M  V30 5718 H 522.485 3.96068 1.26898 0
M  V30 5719 H 521.062 2.6873 2.58532 0
M  V30 5720 N 523.247 -0.488276 1.49845 0
M  V30 5721 C 524.177 -1.59675 1.70371 0
M  V30 5722 C 525.158 -1.60878 0.552473 0
M  V30 5723 O 526.343 -1.77417 0.78973 0
M  V30 5724 C 523.473 -2.98098 1.782 0
M  V30 5725 C 522.427 -3.11761 2.93239 0
M  V30 5726 C 521.753 -4.51661 2.86193 0
M  V30 5727 C 523.053 -2.90589 4.33999 0
M  V30 5728 H 524.747 -1.42752 2.63177 0
M  V30 5729 H 522.293 -0.685317 1.26647 0
M  V30 5730 H 524.246 -3.75555 1.91144 0
M  V30 5731 H 522.97 -3.16138 0.820018 0
M  V30 5732 H 521.629 -2.36732 2.79917 0
M  V30 5733 H 521.277 -4.66595 1.87877 0
M  V30 5734 H 520.977 -4.61742 3.63412 0
M  V30 5735 H 522.501 -5.31162 3.01163 0
M  V30 5736 H 523.915 -3.57807 4.47936 0
M  V30 5737 H 522.312 -3.1213 5.12538 0
M  V30 5738 H 523.382 -1.86595 4.4756 0
M  V30 5739 N 524.725 -1.39134 -0.740242 0
M  V30 5740 C 526.141 -1.20623 -1.0451 0
M  V30 5741 C 526.341 -0.0641651 -2.01398 0
M  V30 5742 O 525.397 0.585843 -2.4561 0
M  V30 5743 C 526.71 -2.53815 -1.6124 0
M  V30 5744 C 528.258 -2.60615 -1.73346 0
M  V30 5745 C 528.733 -3.94015 -2.33486 0
M  V30 5746 N 530.224 -3.95627 -2.40902 0
M  V30 5747 C 530.959 -4.95616 -2.88361 0
M  V30 5748 N 530.455 -6.06003 -3.35756 0
M  V30 5749 N 532.248 -4.82998 -2.87523 0
M  V30 5750 H 524.399 -2.12176 -0.0975576 0
M  V30 5751 H 526.662 -0.942066 -0.105904 0
M  V30 5752 H 526.368 -3.37911 -0.975144 0
M  V30 5753 H 526.242 -2.73162 -2.6012 0
M  V30 5754 H 528.629 -1.76906 -2.36195 0
M  V30 5755 H 528.71 -2.45123 -0.731336 0
M  V30 5756 H 528.354 -4.78153 -1.71267 0
M  V30 5757 H 528.284 -4.06825 -3.34366 0
M  V30 5758 H 530.775 -3.15903 -2.07398 0
M  V30 5759 H 531.088 -6.78215 -3.70464 0
M  V30 5760 H 529.433 -6.09604 -3.33778 0
M  V30 5761 H 532.624 -3.95866 -2.49816 0
M  V30 5762 H 532.797 -5.61072 -3.24196 0
M  V30 5763 N 526.204 0.969867 -1.24223 0
M  V30 5764 C 527.114 2.09806 -1.0497 0
M  V30 5765 C 528.13 1.73998 0.00886455 0
M  V30 5766 O 529.306 2.00513 -0.188848 0
M  V30 5767 C 526.371 3.40467 -0.654452 0
M  V30 5768 C 525.432 3.90236 -1.78926 0
M  V30 5769 C 524.665 5.14662 -1.41277 0
M  V30 5770 O 524.888 5.69602 -0.301632 0
M  V30 5771 O 523.822 5.58761 -2.23763 0
M  V30 5772 H 527.648 2.28942 -1.99548 0
M  V30 5773 H 525.233 1.08197 -1.03023 0
M  V30 5774 H 527.115 4.19039 -0.445452 0
M  V30 5775 H 525.79 3.22636 0.262216 0
M  V30 5776 H 524.697 3.12735 -2.05299 0
M  V30 5777 H 526.03 4.1254 -2.68462 0
M  V30 5778 N 527.682 1.05563 1.17022 0
M  V30 5779 C 528.615 0.604197 2.20056 0
M  V30 5780 C 529.593 -0.369169 1.58354 0
M  V30 5781 O 530.777 -0.279898 1.8641 0
M  V30 5782 C 527.904 -0.115265 3.38504 0
M  V30 5783 C 526.95 0.813698 4.18666 0
M  V30 5784 S 527.783 2.30492 4.83357 0
M  V30 5785 C 528.939 1.59674 6.0519 0
M  V30 5786 H 529.172 1.47713 2.58008 0
M  V30 5787 H 526.705 0.867932 1.27696 0
M  V30 5788 H 528.663 -0.524162 4.0714 0
M  V30 5789 H 527.324 -0.964284 2.98932 0
M  V30 5790 H 526.517 0.256736 5.03346 0
M  V30 5791 H 526.119 1.16213 3.55486 0
M  V30 5792 H 528.411 0.898164 6.7152 0
M  V30 5793 H 529.354 2.42115 6.65422 0
M  V30 5794 H 529.762 1.08252 5.54023 0
M  V30 5795 N 529.16 -1.33526 0.837174 0
M  V30 5796 C 530.07 -2.33023 0.271568 0
M  V30 5797 C 531.086 -1.63272 -0.601514 0
M  V30 5798 O 532.262 -1.94939 -0.506038 0
M  V30 5799 C 529.327 -3.42382 -0.545448 0
M  V30 5800 C 528.388 -4.27857 0.351709 0
M  V30 5801 C 527.621 -5.31994 -0.426409 0
M  V30 5802 O 527.844 -5.45763 -1.65828 0
M  V30 5803 O 526.778 -6.01572 0.1987 0
M  V30 5804 H 530.604 -2.83256 1.09545 0
M  V30 5805 H 528.189 -1.36837 0.599655 0
M  V30 5806 H 530.071 -4.09122 -1.00979 0
M  V30 5807 H 528.746 -2.94369 -1.34641 0
M  V30 5808 H 527.653 -3.6399 0.863853 0
M  V30 5809 H 528.986 -4.79349 1.1174 0
M  V30 5810 N 530.638 -0.59345 -1.46 0
M  V30 5811 C 531.866 -0.0890934 -2.06708 0
M  V30 5812 C 532.281 1.2205 -1.44046 0
M  V30 5813 O 531.638 1.74029 -0.549551 0
M  V30 5814 C 531.689 0.0720263 -3.61428 0
M  V30 5815 O 531.41 -1.18574 -4.21748 0
M  V30 5816 C 532.911 0.609487 -4.3909 0
M  V30 5817 H 530.131 -0.0623628 -0.668096 0
M  V30 5818 H 532.675 -0.817171 -1.87464 0
M  V30 5819 H 530.83 0.750369 -3.80063 0
M  V30 5820 H 531.244 -1.0064 -5.14754 0
M  V30 5821 H 532.718 0.671363 -5.47902 0
M  V30 5822 H 533.195 1.62878 -4.07882 0
M  V30 5823 H 533.801 -0.03434 -4.25286 0
M  V30 5824 N 532.116 1.54067 -0.331816 0
M  V30 5825 C 533.363 2.00715 0.268269 0
M  V30 5826 C 533.691 1.21986 1.51491 0
M  V30 5827 O 532.946 0.292309 1.93505 0
M  V30 5828 C 533.245 3.51634 0.639392 0
M  V30 5829 C 532.911 4.48018 -0.509019 0
M  V30 5830 C 531.573 4.74089 -0.824209 0
M  V30 5831 C 533.925 5.05237 -1.28003 0
M  V30 5832 C 531.253 5.54637 -1.91298 0
M  V30 5833 C 533.605 5.86972 -2.35895 0
M  V30 5834 C 532.269 6.11342 -2.67987 0
M  V30 5835 H 531.539 0.734469 0.0981667 0
M  V30 5836 H 534.186 1.8596 -0.457304 0
M  V30 5837 H 532.491 3.6416 1.44551 0
M  V30 5838 H 534.188 3.85175 1.11539 0
M  V30 5839 H 530.778 4.27851 -0.253287 0
M  V30 5840 H 534.962 4.8507 -1.04978 0
M  V30 5841 H 530.218 5.71747 -2.16599 0
M  V30 5842 H 534.392 6.30327 -2.96076 0
M  V30 5843 H 532.019 6.73544 -3.5248 0
M  V30 5844 N 533.594 0.0601682 1.57485 0
M  V30 5845 C 534.84 -0.612501 1.93329 0
M  V30 5846 C 535.173 -1.6996 0.939526 0
M  V30 5847 O 534.448 -1.94472 -0.0330957 0
M  V30 5848 C 534.731 -1.20025 3.39508 0
M  V30 5849 C 534.584 -0.12059 4.49638 0
M  V30 5850 C 535.903 -2.10923 3.86264 0
M  V30 5851 H 533.022 -0.221185 0.703027 0
M  V30 5852 H 535.664 0.123768 1.89596 0
M  V30 5853 H 533.814 -1.82774 3.42821 0
M  V30 5854 H 535.486 0.51185 4.58452 0
M  V30 5855 H 533.729 0.550251 4.30296 0
M  V30 5856 H 534.4 -0.572019 5.49028 0
M  V30 5857 H 536.876 -1.58124 3.84884 0
M  V30 5858 H 535.752 -2.48987 4.8918 0
M  V30 5859 H 536.013 -3.01292 3.23536 0
M  V30 5860 N 535.072 -1.5615 -0.213296 0
M  V30 5861 C 536.297 -1.83986 -0.957282 0
M  V30 5862 C 536.722 -0.641526 -1.76822 0
M  V30 5863 O 536.08 0.409722 -1.7661 0
M  V30 5864 C 536.128 -3.09889 -1.84393 0
M  V30 5865 O 535.232 -2.89163 -2.94038 0
M  V30 5866 H 534.573 -0.606357 -0.270605 0
M  V30 5867 H 537.103 -2.03369 -0.224111 0
M  V30 5868 H 537.113 -3.40209 -2.25215 0
M  V30 5869 H 535.788 -3.96735 -1.24795 0
M  V30 5870 H 534.365 -2.70097 -2.57103 0
M  V30 5871 O 536.589 0.35868 -1.57467 0
M  V30 5872 H 537.28 1.00907 -1.6534 0
M  V30 END ATOM
M  V30 BEGIN BOND
M  V30 END BOND
M  V30 END CTAB
M  END
$$$$
