drugbank_target|P34903 Gamma-aminobutyric acid receptor subunit alpha-3 (DB00186; DB00189; DB00228; DB00231; DB00237; DB00241; DB00252; DB00292; DB00306; DB00312; DB00349; DB00371; DB00402; DB00404; DB00463; DB00475; DB00543; DB00546; DB00555; DB00603; DB00628; DB00659; DB00683; DB00690; DB00753; DB00794; DB00801; DB00818; DB00829; DB00842; DB00897; DB01028; DB01043; DB01068; DB01107; DB01159; DB01189; DB01205; DB01215; DB01236; DB01437; DB01489; DB01511; DB01544; DB01545; DB01553; DB01558; DB01559; DB01587; DB01588; DB01589; DB01594; DB01595; DB01708; DB01956; DB09017; DB09118; DB09166; DB11582; DB11859; DB11901; DB12404; DB12537; DB13335; DB13437; DB13643; DB13837; DB13872; DB14028; DB14672; DB14715; DB14719; DB15489)
 OpenBabel12092119333D

  0  0  0     0  0            999 V3000
M  V30 BEGIN CTAB
M  V30 COUNTS 7796 7893 0 0 0
M  V30 BEGIN ATOM
M  V30 1 H -0.908 1.98254 -0.117106 0
M  V30 2 N 0 1.576 0 0
M  V30 3 C 0.933 2.03868 1.02534 0
M  V30 4 C 1.911 0.928543 1.3348 0
M  V30 5 O 3.095 1.19667 1.45644 0
M  V30 6 C 0.222 2.43627 2.35294 0
M  V30 7 C -0.732 3.65373 2.2001 0
M  V30 8 S 0.101 5.13292 1.52614 0
M  V30 9 C 1.257 5.56322 2.86805 0
M  V30 10 H 1.49 2.90518 0.631377 0
M  V30 11 H -0.977 1.52953 0.210867 0
M  V30 12 H 0.981 2.67203 3.11629 0
M  V30 13 H -0.358 1.57376 2.7183 0
M  V30 14 H -1.165 3.90944 3.18086 0
M  V30 15 H -1.563 3.418 1.51819 0
M  V30 16 H 0.729 5.58782 3.83104 0
M  V30 17 H 1.672 6.56266 2.65933 0
M  V30 18 H 2.08 4.83886 2.90714 0
M  V30 19 N 1.4781 -0.272755 1.55222 0
M  V30 20 C 2.7271 -1.00211 1.75045 0
M  V30 21 C 3.0401 -1.87441 0.559046 0
M  V30 22 O 4.2461 -2.63856 0.639698 0
M  V30 23 C 2.7021 -1.83165 3.09804 0
M  V30 24 C 2.3101 -1.008 4.36513 0
M  V30 25 C 4.0541 -2.55529 3.38977 0
M  V30 26 C 1.9611 -1.83194 5.62311 0
M  V30 27 H 0.8911 -0.377878 0.652476 0
M  V30 28 H 3.5421 -0.257776 1.8168 0
M  V30 29 H 1.9241 -2.61694 2.97207 0
M  V30 30 H 3.0981 -0.266855 4.60027 0
M  V30 31 H 1.4131 -0.398897 4.14485 0
M  V30 32 H 4.0101 -3.17578 4.30172 0
M  V30 33 H 4.3531 -3.25825 2.59121 0
M  V30 34 H 4.8861 -1.84029 3.52673 0
M  V30 35 H 1.6251 -1.17318 6.44916 0
M  V30 36 H 1.1451 -2.54905 5.4294 0
M  V30 37 H 2.8241 -2.40552 6.00619 0
M  V30 38 N 2.9562 -1.48159 -0.537278 0
M  V30 39 C 4.2052 -1.5506 -1.28993 0
M  V30 40 C 4.5182 -0.226211 -1.94288 0
M  V30 41 O 5.7242 -0.173395 -2.70946 0
M  V30 42 C 4.1802 -2.73429 -2.34018 0
M  V30 43 C 3.7882 -4.1248 -1.74825 0
M  V30 44 C 5.5322 -2.89638 -3.10339 0
M  V30 45 C 3.4392 -5.22121 -2.77747 0
M  V30 46 H 2.3692 -0.577231 -0.485098 0
M  V30 47 H 5.0202 -1.74478 -0.568317 0
M  V30 48 H 3.4022 -2.47431 -3.09182 0
M  V30 49 H 4.5762 -4.48466 -1.05899 0
M  V30 50 H 2.8912 -4.01327 -1.11022 0
M  V30 51 H 5.4882 -3.68718 -3.87235 0
M  V30 52 H 5.8312 -1.9882 -3.65754 0
M  V30 53 H 6.3642 -3.15502 -2.42288 0
M  V30 54 H 3.1032 -6.1488 -2.27161 0
M  V30 55 H 2.6232 -4.90631 -3.45024 0
M  V30 56 H 4.3022 -5.49924 -3.4087 0
M  V30 57 N 4.4343 0.785586 -1.36625 0
M  V30 58 C 5.6623 1.57448 -1.3423 0
M  V30 59 C 6.0773 1.88649 0.0755653 0
M  V30 60 O 5.4343 1.50414 1.03354 0
M  V30 61 C 5.4853 2.89316 -2.16745 0
M  V30 62 O 5.2063 2.59459 -3.53005 0
M  V30 63 C 6.7073 3.83606 -2.22174 0
M  V30 64 H 3.9273 0.488226 -0.4603 0
M  V30 65 H 6.4713 0.974733 -1.79775 0
M  V30 66 H 4.6263 3.4575 -1.74745 0
M  V30 67 H 5.0403 3.43804 -3.96105 0
M  V30 68 H 6.5143 4.73181 -2.8426 0
M  V30 69 H 6.9913 4.21734 -1.22627 0
M  V30 70 H 7.5973 3.33104 -2.64427 0
M  V30 71 N 5.9124 1.20967 1.01018 0
M  V30 72 C 6.8444 0.922059 2.09835 0
M  V30 73 C 7.8574 -0.0927106 1.62536 0
M  V30 74 O 9.0464 0.139127 1.77957 0
M  V30 75 C 6.1464 0.362004 3.36961 0
M  V30 76 C 5.3194 1.42986 4.13369 0
M  V30 77 C 4.3784 0.879976 5.1879 0
M  V30 78 O 3.4044 1.56219 5.47343 0
M  V30 79 N 4.6064 -0.307396 5.79686 0
M  V30 80 H 7.3714 1.8588 2.35093 0
M  V30 81 H 4.9324 1.11422 1.1746 0
M  V30 82 H 6.9244 -0.0201474 4.04695 0
M  V30 83 H 5.4944 -0.479437 3.08902 0
M  V30 84 H 4.7144 1.98608 3.40512 0
M  V30 85 H 6.0024 2.14885 4.61196 0
M  V30 86 H 5.4004 -0.878796 5.58832 0
M  V30 87 H 3.9574 -0.631115 6.48737 0
M  V30 88 N 7.3905 -1.2043 1.01659 0
M  V30 89 C 8.6185 -1.93777 0.725132 0
M  V30 90 C 9.0335 -1.74772 -0.714166 0
M  V30 91 O 8.3905 -1.06169 -1.4844 0
M  V30 92 C 8.4415 -3.45876 1.05129 0
M  V30 93 O 8.1625 -3.6426 2.43406 0
M  V30 94 C 9.6635 -4.36368 0.780891 0
M  V30 95 H 6.8835 -0.615901 0.266284 0
M  V30 96 H 9.4275 -1.52922 1.35776 0
M  V30 97 H 7.5825 -3.8461 0.464065 0
M  V30 98 H 7.9965 -4.58246 2.55169 0
M  V30 99 H 9.4705 -5.41743 1.05918 0
M  V30 100 H 9.9475 -4.38275 -0.284937 0
M  V30 101 H 10.5535 -4.03296 1.35027 0
M  V30 102 N 8.8686 -0.792821 -1.36206 0
M  V30 103 C 10.0936 -0.377701 -2.03932 0
M  V30 104 C 10.5186 0.998947 -1.59382 0
M  V30 105 O 9.8766 1.64421 -0.763903 0
M  V30 106 C 9.9246 -0.453635 -3.57735 0
M  V30 107 O 9.0286 0.538151 -4.08874 0
M  V30 108 H 8.3696 -0.159855 -0.644471 0
M  V30 109 H 10.8996 -1.07488 -1.7409 0
M  V30 110 H 10.9096 -0.318464 -4.06755 0
M  V30 111 H 9.5846 -1.45784 -3.89512 0
M  V30 112 H 8.1616 0.364359 -3.71116 0
M  V30 113 N 10.3467 1.47872 -0.545128 0
M  V30 114 C 11.2967 2.26842 0.229456 0
M  V30 115 C 12.2807 1.33626 0.896267 0
M  V30 116 O 13.4727 1.58063 0.79657 0
M  V30 117 C 10.6017 3.19089 1.26638 0
M  V30 118 C 9.6877 4.19783 0.603598 0
M  V30 119 N 10.0787 5.0479 -0.319405 0
M  V30 120 C 8.3767 4.3765 0.858989 0
M  V30 121 C 9.0777 5.77433 -0.703241 0
M  V30 122 N 8.0537 5.43566 -0.0608309 0
M  V30 123 H 11.8557 2.89947 -0.480391 0
M  V30 124 H 9.3697 1.58263 -0.364209 0
M  V30 125 H 11.3667 3.74337 1.83515 0
M  V30 126 H 10.0267 2.5754 1.97745 0
M  V30 127 H 11.0377 5.13244 -0.692889 0
M  V30 128 H 7.7147 3.87281 1.55948 0
M  V30 129 H 9.1047 6.55824 -1.46098 0
M  V30 130 N 11.8248 0.280983 1.55075 0
M  V30 131 C 13.0648 -0.335234 2.01632 0
M  V30 132 C 13.4288 -1.5261 1.16508 0
M  V30 133 O 14.6298 -2.21235 1.52672 0
M  V30 134 C 12.9008 -0.702172 3.50434 0
M  V30 135 S 14.4598 -1.30409 4.18974 0
M  V30 136 H 11.2778 -0.103967 0.703358 0
M  V30 137 H 13.8798 0.404187 1.91276 0
M  V30 138 H 12.5838 0.17333 4.10034 0
M  V30 139 H 12.1148 -1.4729 3.64786 0
M  V30 140 H 14.1298 -2.59253 4.23087 0
M  V30 141 N 13.3029 -1.57598 0.00835791 0
M  V30 142 C 14.5329 -1.94931 -0.684496 0
M  V30 143 C 14.9409 -0.882233 -1.67372 0
M  V30 144 O 14.2839 0.146621 -1.83114 0
M  V30 145 C 14.3459 -3.283 -1.4649 0
M  V30 146 C 14.0099 -4.52548 -0.63634 0
M  V30 147 C 15.0069 -5.19839 0.0795586 0
M  V30 148 C 12.6919 -4.98942 -0.579849 0
M  V30 149 C 14.6859 -6.3183 0.840843 0
M  V30 150 C 12.3729 -6.10819 0.185155 0
M  V30 151 C 13.3709 -6.77121 0.894227 0
M  V30 152 O 13.0589 -7.86853 1.64673 0
M  V30 153 H 12.7909 -0.647249 -0.19505 0
M  V30 154 H 15.3449 -2.05318 0.0581272 0
M  V30 155 H 13.5749 -3.14345 -2.2522 0
M  V30 156 H 15.2639 -3.50685 -2.04389 0
M  V30 157 H 16.0299 -4.84979 0.0451202 0
M  V30 158 H 11.9089 -4.47155 -1.1213 0
M  V30 159 H 15.4529 -6.83513 1.39483 0
M  V30 160 H 11.3499 -6.4512 0.221384 0
M  V30 161 H 12.1179 -8.03412 1.56432 0
M  V30 162 N 14.781 0.264519 -1.55364 0
M  V30 163 C 15.714 1.35297 -1.83766 0
M  V30 164 C 16.692 1.47171 -0.691336 0
M  V30 165 O 17.876 1.63663 -0.935238 0
M  V30 166 C 15.003 2.72847 -2.00679 0
M  V30 167 C 14.049 2.78214 -3.23263 0
M  V30 168 S 14.882 2.36601 -4.80396 0
M  V30 169 C 16.038 3.7611 -5.00292 0
M  V30 170 H 16.271 1.11003 -2.758 0
M  V30 171 H 13.804 0.464596 -1.47244 0
M  V30 172 H 15.762 3.52057 -2.11108 0
M  V30 173 H 14.423 2.94388 -1.09518 0
M  V30 174 H 13.616 3.7919 -3.3201 0
M  V30 175 H 13.218 2.07034 -3.11469 0
M  V30 176 H 15.51 4.71457 -4.86554 0
M  V30 177 H 16.453 3.7231 -6.02321 0
M  V30 178 H 16.861 3.67806 -4.28228 0
M  V30 179 N 16.2591 1.48442 0.529413 0
M  V30 180 C 17.4871 1.60151 1.30994 0
M  V30 181 C 17.9021 0.261985 1.86973 0
M  V30 182 O 17.2591 -0.748805 1.66431 0
M  V30 183 C 17.3101 2.64854 2.46038 0
M  V30 184 O 17.0311 3.93608 1.92365 0
M  V30 185 C 18.5321 2.87007 3.37849 0
M  V30 186 H 15.7521 0.539971 0.398338 0
M  V30 187 H 18.2961 1.94273 0.638597 0
M  V30 188 H 16.4511 2.33589 3.09055 0
M  V30 189 H 16.8651 4.51055 2.67675 0
M  V30 190 H 18.3391 3.64068 4.14919 0
M  V30 191 H 18.8161 1.95852 3.93114 0
M  V30 192 H 19.4221 3.19579 2.80623 0
M  V30 193 N 17.7372 -0.778329 1.37039 0
M  V30 194 C 18.9622 -1.57248 1.35233 0
M  V30 195 C 19.3872 -1.87999 -0.0615568 0
M  V30 196 O 18.7452 -1.48734 -1.03672 0
M  V30 197 C 18.7932 -2.86353 2.19167 0
M  V30 198 O 17.8972 -3.80442 1.59178 0
M  V30 199 H 17.2382 -0.476569 0.462362 0
M  V30 200 H 19.7682 -0.963853 1.80474 0
M  V30 201 H 19.7782 -3.35519 2.32145 0
M  V30 202 H 18.4532 -2.63299 3.21942 0
M  V30 203 H 17.0302 -3.39067 1.55203 0
M  V30 204 N 19.2153 -1.21501 -1.00376 0
M  V30 205 C 20.1453 -0.999478 -2.11028 0
M  V30 206 C 21.1263 0.0759671 -1.6993 0
M  V30 207 O 22.3113 -0.0841106 -1.94018 0
M  V30 208 C 19.4413 -0.564709 -3.42678 0
M  V30 209 C 18.3953 -1.58486 -3.97576 0
M  V30 210 C 17.7213 -1.00628 -5.25146 0
M  V30 211 C 19.0213 -2.97204 -4.29496 0
M  V30 212 H 20.7153 -1.92495 -2.29317 0
M  V30 213 H 18.2613 -0.92693 -1.102 0
M  V30 214 H 20.2143 -0.401091 -4.19487 0
M  V30 215 H 18.9383 0.396411 -3.24185 0
M  V30 216 H 17.5973 -1.73606 -3.22888 0
M  V30 217 H 17.2453 -0.0368439 -5.02987 0
M  V30 218 H 16.9453 -1.68771 -5.62841 0
M  V30 219 H 18.4693 -0.854015 -6.04598 0
M  V30 220 H 19.8833 -2.8552 -4.97143 0
M  V30 221 H 18.2803 -3.62372 -4.78338 0
M  V30 222 H 19.3503 -3.47956 -3.3772 0
M  V30 223 N 20.6934 1.19889 -1.02296 0
M  V30 224 C 21.9414 1.89046 -0.714558 0
M  V30 225 C 22.2624 1.79636 0.758681 0
M  V30 226 O 21.5324 1.20292 1.54618 0
M  V30 227 H 20.1124 0.699802 -0.261317 0
M  V30 228 H 22.7744 1.45574 -1.29592 0
M  V30 229 H 21.8704 2.95524 -1.0036 0
M  V30 230 N 22.1715 0.800033 1.35784 0
M  V30 231 C 23.4205 0.37387 1.98205 0
M  V30 232 C 23.7335 -1.06302 1.64193 0
M  V30 233 O 24.9395 -1.59198 2.19928 0
M  V30 234 C 23.3955 0.617532 3.54562 0
M  V30 235 C 23.0035 2.06654 3.9749 0
M  V30 236 C 24.7475 0.256401 4.23725 0
M  V30 237 C 22.6545 2.2563 5.46667 0
M  V30 238 H 21.5845 0.136055 0.741623 0
M  V30 239 H 24.2355 0.983166 1.54939 0
M  V30 240 H 22.6175 -0.0616248 3.95952 0
M  V30 241 H 23.7915 2.78296 3.67271 0
M  V30 242 H 22.1065 2.38691 3.41197 0
M  V30 243 H 24.7035 0.376318 5.33374 0
M  V30 244 H 25.0465 -0.796692 4.08606 0
M  V30 245 H 25.5795 0.889214 3.87734 0
M  V30 246 H 22.3185 3.2936 5.66747 0
M  V30 247 H 21.8385 1.58504 5.78478 0
M  V30 248 H 23.5175 2.06861 6.1304 0
M  V30 249 N 23.6496 -1.47581 0.552962 0
M  V30 250 C 24.5796 -2.32762 -0.185451 0
M  V30 251 C 25.5606 -1.43527 -0.912905 0
M  V30 252 O 26.7456 -1.72388 -0.894201 0
M  V30 253 C 23.8756 -3.25219 -1.21859 0
M  V30 254 C 22.8296 -4.23661 -0.607864 0
M  V30 255 C 22.1556 -5.05413 -1.74533 0
M  V30 256 C 23.4556 -5.20481 0.435582 0
M  V30 257 H 25.1496 -2.94749 0.525684 0
M  V30 258 H 22.6956 -1.41738 0.254251 0
M  V30 259 H 24.6486 -3.8365 -1.7433 0
M  V30 260 H 23.3726 -2.61279 -1.95961 0
M  V30 261 H 22.0316 -3.66451 -0.104489 0
M  V30 262 H 21.6796 -4.3788 -2.47529 0
M  V30 263 H 21.3796 -5.72059 -1.34249 0
M  V30 264 H 22.9036 -5.66701 -2.27338 0
M  V30 265 H 24.3176 -5.733 -0.00290157 0
M  V30 266 H 22.7146 -5.95305 0.757067 0
M  V30 267 H 23.7846 -4.66217 1.33303 0
M  V30 268 N 25.1277 -0.289203 -1.54924 0
M  V30 269 C 26.3747 0.323519 -1.99899 0
M  V30 270 C 26.7027 1.54797 -1.17762 0
M  V30 271 O 25.9577 1.94237 -0.238835 0
M  V30 272 C 26.2567 0.736119 -3.49737 0
M  V30 273 C 25.9227 -0.385276 -4.49251 0
M  V30 274 C 24.5847 -0.693156 -4.76181 0
M  V30 275 C 26.9367 -1.14021 -5.08575 0
M  V30 276 C 24.2647 -1.7593 -5.59701 0
M  V30 277 C 26.6167 -2.19619 -5.93254 0
M  V30 278 C 25.2807 -2.51026 -6.185 0
M  V30 279 H 24.5507 0.118384 -0.731482 0
M  V30 280 H 27.1977 -0.405847 -1.8715 0
M  V30 281 H 25.5027 1.54539 -3.60035 0
M  V30 282 H 27.1997 1.22118 -3.81953 0
M  V30 283 H 23.7897 -0.135202 -4.28387 0
M  V30 284 H 27.9737 -0.915611 -4.87781 0
M  V30 285 H 23.2297 -2.0075 -5.77503 0
M  V30 286 H 27.4037 -2.78581 -6.38252 0
M  V30 287 H 25.0307 -3.33772 -6.83008 0
M  V30 288 N 26.6058 1.57591 -0.0167156 0
M  V30 289 C 27.5358 2.12496 0.967858 0
M  V30 290 C 28.5168 1.03807 1.34752 0
M  V30 291 O 29.7018 1.31577 1.42833 0
M  V30 292 C 26.8318 2.64194 2.25431 0
M  V30 293 C 25.7858 3.77559 2.01576 0
M  V30 294 C 25.1118 4.15636 3.36379 0
M  V30 295 C 26.4118 5.04151 1.36489 0
M  V30 296 H 28.1058 2.95013 0.510643 0
M  V30 297 H 25.6518 1.41915 0.244181 0
M  V30 298 H 27.6048 3.01236 2.94678 0
M  V30 299 H 26.3288 1.78821 2.73296 0
M  V30 300 H 24.9878 3.40937 1.34751 0
M  V30 301 H 24.6358 3.27263 3.81979 0
M  V30 302 H 24.3358 4.92022 3.21229 0
M  V30 303 H 25.8598 4.5525 4.06915 0
M  V30 304 H 27.2738 5.38857 1.95718 0
M  V30 305 H 25.6708 5.85453 1.31776 0
M  V30 306 H 26.7408 4.83733 0.336219 0
M  V30 307 N 28.0839 -0.256276 1.55502 0
M  V30 308 C 29.3329 -0.983486 1.76098 0
M  V30 309 C 29.6459 -1.86837 0.578896 0
M  V30 310 O 30.8519 -2.63163 0.667648 0
M  V30 311 C 29.3079 -1.79868 3.1173 0
M  V30 312 C 28.9159 -0.961648 4.37557 0
M  V30 313 C 30.6599 -2.51919 3.41668 0
M  V30 314 C 28.5669 -1.77219 5.64223 0
M  V30 315 H 27.4969 -0.370936 0.656447 0
M  V30 316 H 30.1479 -0.238492 1.81944 0
M  V30 317 H 28.5299 -2.58527 2.99966 0
M  V30 318 H 29.7039 -0.218048 4.60284 0
M  V30 319 H 28.0189 -0.354913 4.14885 0
M  V30 320 H 30.6159 -3.12998 4.33516 0
M  V30 321 H 30.9589 -3.23059 2.62562 0
M  V30 322 H 31.4919 -1.80278 3.54605 0
M  V30 323 H 28.2309 -1.10471 6.46124 0
M  V30 324 H 27.7509 -2.49132 5.45613 0
M  V30 325 H 29.4299 -2.34169 6.03137 0
M  V30 326 N 29.562 -1.4872 -0.521534 0
M  V30 327 C 30.51 -1.64328 -1.64618 0
M  V30 328 C 31.504 -0.50953 -1.61555 0
M  V30 329 O 32.71 -0.688525 -1.66311 0
M  V30 330 H 29.085 -0.517805 -0.545328 0
M  V30 331 H 31.056 -2.58767 -1.48601 0
M  V30 332 C 29.805 -1.70805 -3.02855 0
M  V30 333 H 29.128 -2.5741 -3.05909 0
M  V30 334 H 30.568 -1.85766 -3.81139 0
M  V30 335 C 29.027 -0.448479 -3.33902 0
M  V30 336 O 29.557 0.434928 -3.99339 0
M  V30 337 N 27.763 -0.317616 -2.88859 0
M  V30 338 H 27.31 -1.03748 -2.35784 0
M  V30 339 H 27.268 0.524113 -3.10001 0
M  V30 340 N 31.0401 0.771051 -1.3745 0
M  V30 341 C 32.2891 1.52491 -1.3202 0
M  V30 342 C 32.6021 1.9538 0.0927347 0
M  V30 343 O 33.8081 2.70159 0.269503 0
M  V30 344 C 32.2641 2.75366 -2.31736 0
M  V30 345 C 31.8721 2.39573 -3.78562 0
M  V30 346 C 33.6161 3.53307 -2.35318 0
M  V30 347 C 31.5231 3.58954 -4.70007 0
M  V30 348 H 30.4531 0.572506 -0.490666 0
M  V30 349 H 33.1041 0.844474 -1.62914 0
M  V30 350 H 31.4861 3.45303 -1.93861 0
M  V30 351 H 32.6601 1.77415 -4.25277 0
M  V30 352 H 30.9751 1.74805 -3.77932 0
M  V30 353 H 33.5721 4.42039 -3.00842 0
M  V30 354 H 33.9151 3.93217 -1.36698 0
M  V30 355 H 34.4481 2.90367 -2.71904 0
M  V30 356 H 31.1871 3.24125 -5.69757 0
M  V30 357 H 30.7071 4.20214 -4.27996 0
M  V30 358 H 32.3861 4.25758 -4.87175 0
M  V30 359 N 32.5182 1.22032 0.997298 0
M  V30 360 C 33.4482 1.01065 2.10495 0
M  V30 361 C 34.4292 -0.0669542 1.69968 0
M  V30 362 O 35.6142 0.0943987 1.9397 0
M  V30 363 C 32.7442 0.582874 3.42374 0
M  V30 364 C 31.6982 1.60592 3.96729 0
M  V30 365 C 31.0242 1.03412 5.24605 0
M  V30 366 C 32.3242 2.99478 4.27914 0
M  V30 367 H 34.0182 1.93708 2.28292 0
M  V30 368 H 31.5642 0.932761 1.09707 0
M  V30 369 H 33.5172 0.423332 4.19268 0
M  V30 370 H 32.2412 -0.379213 3.24391 0
M  V30 371 H 30.9002 1.75316 3.21963 0
M  V30 372 H 30.5482 0.063518 5.0296 0
M  V30 373 H 30.2482 1.71754 5.61938 0
M  V30 374 H 31.7722 0.886066 6.04137 0
M  V30 375 H 33.1862 2.88153 4.95622 0
M  V30 376 H 31.5832 3.64903 4.76409 0
M  V30 377 H 32.6532 3.49742 3.3587 0
M  V30 378 N 33.9963 -1.19345 1.0293 0
M  V30 379 C 35.4073 -1.70725 0.755633 0
M  V30 380 C 35.7583 -1.82326 -0.724676 0
M  V30 381 O 34.8833 -1.49471 -1.56484 0
M  V30 382 C 35.4783 -3.10084 1.36503 0
M  V30 383 C 34.0373 -3.58723 1.13994 0
M  V30 384 C 33.1843 -2.35577 1.46283 0
M  V30 385 H 36.1353 -1.0418 1.19718 0
M  V30 386 H 36.1563 -3.72787 0.762217 0
M  V30 387 H 35.6683 -3.01609 2.44241 0
M  V30 388 H 33.7693 -3.72512 0.0807901 0
M  V30 389 H 33.8823 -4.42816 1.82894 0
M  V30 390 H 32.2463 -2.38935 0.88217 0
M  V30 391 H 33.0293 -2.29731 2.55105 0
M  V30 392 N 35.4744 -0.807222 -1.35358 0
M  V30 393 C 36.7224 -0.387122 -1.98358 0
M  V30 394 C 37.0434 1.04942 -1.64354 0
M  V30 395 O 36.3134 1.72615 -0.926339 0
M  V30 396 H 34.8934 -0.140154 -0.733734 0
M  V30 397 H 37.5554 -1.0332 -1.6526 0
M  V30 398 H 36.6514 -0.493352 -3.08176 0
M  V30 399 N 36.9525 1.47285 -0.560781 0
M  V30 400 C 38.1805 2.06855 -0.0430262 0
M  V30 401 C 38.5955 1.41291 1.25229 0
M  V30 402 O 37.9525 0.510648 1.7521 0
M  V30 403 C 38.0035 3.61178 0.152518 0
M  V30 404 O 37.7245 4.24285 -1.0915 0
M  V30 405 C 39.2255 4.37624 0.707145 0
M  V30 406 H 36.4455 0.669319 -0.0474652 0
M  V30 407 H 38.9895 1.89237 -0.77521 0
M  V30 408 H 37.1445 3.78298 0.834843 0
M  V30 409 H 37.5585 5.16868 -0.891482 0
M  V30 410 H 39.0325 5.46271 0.793244 0
M  V30 411 H 39.5095 4.04152 1.71923 0
M  V30 412 H 40.1155 4.25257 0.0604027 0
M  V30 413 N 38.4306 0.297415 1.54768 0
M  V30 414 C 39.6586 -0.315623 2.04478 0
M  V30 415 C 40.0736 -1.47792 1.17486 0
M  V30 416 O 39.4306 -1.81404 0.19971 0
M  V30 417 C 39.4816 -0.7753 3.53088 0
M  V30 418 O 39.2026 0.340732 4.36773 0
M  V30 419 C 40.7036 -1.45386 4.18781 0
M  V30 420 H 37.9236 -0.0690887 0.667434 0
M  V30 421 H 40.4676 0.436003 1.99798 0
M  V30 422 H 38.6226 -1.47696 3.58141 0
M  V30 423 H 39.0366 -0.0165035 5.24497 0
M  V30 424 H 40.5106 -1.72669 5.24299 0
M  V30 425 H 40.9876 -2.39275 3.68299 0
M  V30 426 H 41.5936 -0.795475 4.17795 0
M  V30 427 N 39.9087 -1.5758 0.0250728 0
M  V30 428 C 41.1567 -1.91255 -0.653151 0
M  V30 429 C 41.4777 -0.901691 -1.729 0
M  V30 430 O 40.7477 0.0573785 -1.95816 0
M  V30 431 H 39.3277 -0.705942 -0.244243 0
M  V30 432 H 41.9897 -1.94767 0.0719209 0
M  V30 433 H 41.0857 -2.91752 -1.10847 0
M  V30 434 N 41.3868 0.248026 -1.55636 0
M  V30 435 C 42.3188 1.32993 -1.8667 0
M  V30 436 C 43.3318 1.44345 -0.752877 0
M  V30 437 O 44.5208 1.45715 -1.03098 0
M  V30 438 C 41.6208 2.70863 -2.03682 0
M  V30 439 C 40.7938 2.81792 -3.34532 0
M  V30 440 C 39.8528 4.005 -3.41301 0
M  V30 441 O 38.8788 3.9008 -4.14519 0
M  V30 442 N 40.0808 5.13618 -2.70512 0
M  V30 443 H 42.8458 1.06707 -2.8006 0
M  V30 444 H 40.4068 0.438129 -1.55859 0
M  V30 445 H 42.3988 3.48612 -2.05553 0
M  V30 446 H 40.9688 2.89862 -1.17041 0
M  V30 447 H 40.1888 1.90729 -3.44987 0
M  V30 448 H 41.4768 2.86043 -4.20781 0
M  V30 449 H 40.8748 5.24975 -2.10755 0
M  V30 450 H 39.4318 5.89505 -2.78077 0
M  V30 451 N 42.8649 1.48995 0.513639 0
M  V30 452 C 44.1129 1.57531 1.26604 0
M  V30 453 C 44.4339 0.258236 1.93283 0
M  V30 454 O 43.7039 -0.721502 1.8213 0
M  V30 455 H 42.2839 0.580387 0.470276 0
M  V30 456 H 44.9459 1.85552 0.596373 0
M  V30 457 H 44.0419 2.36486 2.03669 0
M  V30 458 N 44.343 -0.763751 1.37857 0
M  V30 459 C 45.253 -1.90817 1.36478 0
M  V30 460 C 46.269 -1.71997 0.263248 0
M  V30 461 O 47.445 -1.95095 0.499979 0
M  V30 462 C 44.51 -3.2605 1.17864 0
M  V30 463 C 43.571 -3.57467 2.3773 0
M  V30 464 C 42.804 -4.86249 2.19995 0
M  V30 465 O 43.027 -5.57884 1.18836 0
M  V30 466 O 41.961 -5.16911 3.08361 0
M  V30 467 H 45.787 -1.94933 2.32884 0
M  V30 468 H 43.372 -0.907619 1.1867 0
M  V30 469 H 45.254 -4.06924 1.09504 0
M  V30 470 H 43.929 -3.22769 0.245372 0
M  V30 471 H 42.836 -2.76796 2.51664 0
M  V30 472 H 44.169 -3.655 3.29652 0
M  V30 473 N 45.8211 -1.22559 -0.990812 0
M  V30 474 C 47.0461 -1.07862 -1.77145 0
M  V30 475 C 47.4711 0.366447 -1.84496 0
M  V30 476 O 46.8291 1.26478 -1.29896 0
M  V30 477 C 46.8771 -1.69686 -3.18181 0
M  V30 478 O 45.9811 -0.951946 -4.01263 0
M  V30 479 H 45.3221 -0.378712 -0.545411 0
M  V30 480 H 47.8521 -1.62399 -1.2445 0
M  V30 481 H 47.8621 -1.74496 -3.68802 0
M  V30 482 H 46.5371 -2.74841 -3.12146 0
M  V30 483 H 45.1141 -0.980011 -3.59792 0
M  V30 484 N 47.2992 1.18797 -1.03562 0
M  V30 485 C 48.7152 1.40671 -0.753917 0
M  V30 486 C 48.9152 1.9043 0.658686 0
M  V30 487 O 47.9712 2.08538 1.42366 0
M  V30 488 C 49.2842 2.41192 -1.79574 0
M  V30 489 C 50.8322 2.54928 -1.81606 0
M  V30 490 C 51.3072 3.58709 -2.84766 0
M  V30 491 N 52.7982 3.66212 -2.83625 0
M  V30 492 C 53.5332 4.46225 -3.60098 0
M  V30 493 N 53.0292 5.29888 -4.46308 0
M  V30 494 N 54.8222 4.40939 -3.4861 0
M  V30 495 H 46.9732 0.848221 -1.94728 0
M  V30 496 H 49.2362 0.435081 -0.842264 0
M  V30 497 H 48.9422 2.11669 -2.80872 0
M  V30 498 H 48.8162 3.40467 -1.62365 0
M  V30 499 H 51.2032 2.83771 -0.809817 0
M  V30 500 H 51.2842 1.55784 -2.02891 0
M  V30 501 H 50.9282 3.30607 -3.85566 0
M  V30 502 H 50.8582 4.57519 -2.60737 0
M  V30 503 H 53.3492 3.06466 -2.21105 0
M  V30 504 H 53.6622 5.88078 -5.01382 0
M  V30 505 H 52.0072 5.29326 -4.50377 0
M  V30 506 H 55.1982 3.74624 -2.80668 0
M  V30 507 H 55.3712 5.03056 -4.08459 0
M  V30 508 N 48.7773 0.814389 1.34928 0
M  V30 509 C 50.1933 0.499084 1.51596 0
M  V30 510 C 50.3933 -0.978319 1.76157 0
M  V30 511 O 49.4493 -1.76309 1.80752 0
M  V30 512 C 50.7623 1.35121 2.68631 0
M  V30 513 C 52.3103 1.34746 2.82511 0
M  V30 514 C 52.7853 2.18388 4.0258 0
M  V30 515 N 54.2763 2.15966 4.09772 0
M  V30 516 C 55.0113 2.77437 5.01813 0
M  V30 517 N 54.5073 3.47866 5.99134 0
M  V30 518 N 56.3003 2.67037 4.94619 0
M  V30 519 H 48.4513 1.7711 1.17243 0
M  V30 520 H 50.7143 0.754256 0.574284 0
M  V30 521 H 50.4203 2.40001 2.57085 0
M  V30 522 H 50.2943 1.00991 3.63429 0
M  V30 523 H 52.6813 0.30648 2.93504 0
M  V30 524 H 52.7623 1.72869 1.88547 0
M  V30 525 H 52.4063 3.2253 3.92347 0
M  V30 526 H 52.3363 1.77621 4.9574 0
M  V30 527 H 54.8273 1.64729 3.40107 0
M  V30 528 H 55.1403 3.92038 6.65977 0
M  V30 529 H 53.4853 3.51972 5.99284 0
M  V30 530 H 56.6763 2.11597 4.17546 0
M  V30 531 H 56.8493 3.15232 5.66156 0
M  V30 532 N 50.2554 -1.46986 0.568584 0
M  V30 533 C 51.1874 -2.28233 -0.210337 0
M  V30 534 C 52.2004 -1.37682 -0.868767 0
M  V30 535 O 53.3894 -1.62406 -0.740705 0
M  V30 536 C 50.4894 -3.12293 -1.3163 0
M  V30 537 C 49.6624 -4.30878 -0.7525 0
M  V30 538 C 48.7214 -4.96445 -1.74439 0
M  V30 539 O 47.7474 -5.54482 -1.286 0
M  V30 540 N 48.9494 -4.92171 -3.07812 0
M  V30 541 H 51.7144 -2.95723 0.486648 0
M  V30 542 H 49.2754 -1.56742 0.405409 0
M  V30 543 H 51.2674 -3.53022 -1.97883 0
M  V30 544 H 49.8374 -2.46971 -1.91636 0
M  V30 545 H 49.0574 -3.94104 0.0871128 0
M  V30 546 H 50.3454 -5.07558 -0.35536 0
M  V30 547 H 49.7434 -4.46239 -3.47688 0
M  V30 548 H 48.3004 -5.36884 -3.69592 0
M  V30 549 N 51.7335 -0.305618 -1.54608 0
M  V30 550 C 52.6435 0.57778 -2.27374 0
M  V30 551 C 53.6595 1.14451 -1.31061 0
M  V30 552 O 54.8355 1.16831 -1.6405 0
M  V30 553 C 51.9005 1.73123 -3.00382 0
M  V30 554 C 50.9615 1.19812 -4.12242 0
M  V30 555 C 50.1945 2.2966 -4.81759 0
M  V30 556 O 50.4175 3.49651 -4.50666 0
M  V30 557 O 49.3515 1.96091 -5.69062 0
M  V30 558 H 53.1775 -0.012624 -3.03697 0
M  V30 559 H 50.7625 -0.0719184 -1.49227 0
M  V30 560 H 52.6445 2.40315 -3.4616 0
M  V30 561 H 51.3195 2.30815 -2.26949 0
M  V30 562 H 50.2265 0.491798 -3.70853 0
M  V30 563 H 51.5595 0.666566 -4.87666 0
M  V30 564 N 53.2116 1.57565 -0.0334293 0
M  V30 565 C 54.6226 1.79746 0.504798 0
M  V30 566 C 54.9736 0.944091 1.71992 0
M  V30 567 O 54.0986 0.155694 2.15839 0
M  V30 568 C 54.6936 3.25997 0.922567 0
M  V30 569 C 53.2526 3.49159 1.40588 0
M  V30 570 C 52.3996 2.74785 0.372633 0
M  V30 571 H 55.3506 1.56565 -0.259436 0
M  V30 572 H 55.3716 3.35945 1.78666 0
M  V30 573 H 54.8836 3.88081 0.0379825 0
M  V30 574 H 52.9846 2.92332 2.31025 0
M  V30 575 H 53.0976 4.57873 1.41028 0
M  V30 576 H 51.4616 2.40391 0.841672 0
M  V30 577 H 52.2446 3.39587 -0.503559 0
M  V30 578 N 54.6897 -0.239769 1.55765 0
M  V30 579 C 55.9377 -0.964892 1.77579 0
M  V30 580 C 56.2587 -1.85582 0.598699 0
M  V30 581 O 55.5287 -1.92075 -0.385226 0
M  V30 582 H 54.1087 -0.359265 0.654933 0
M  V30 583 H 56.7707 -0.256001 1.93211 0
M  V30 584 H 55.8667 -1.58243 2.69009 0
M  V30 585 N 56.1678 -1.49265 -0.50573 0
M  V30 586 C 57.4448 -1.49012 -1.26707 0
M  V30 587 C 57.8248 -0.215205 -2.1 0
M  V30 588 O 57.1728 0.802547 -2.13943 0
M  V30 589 C 57.3828 -2.7663 -2.12783 0
M  V30 590 C 58.7308 -3.25932 -2.72127 0
M  V30 591 O 59.7548 -2.77715 -2.23054 0
M  V30 592 O 58.6138 -4.09897 -3.61451 0
M  V30 593 H 55.7078 -0.596197 -0.57313 0
M  V30 594 H 58.2538 -1.61524 -0.52039 0
M  V30 595 H 57.0258 -3.60916 -1.5118 0
M  V30 596 H 56.6488 -2.66956 -2.94653 0
M  V30 597 N 57.6459 0.756429 -1.3826 0
M  V30 598 C 58.8929 1.51547 -1.34312 0
M  V30 599 C 59.2209 1.94382 0.0677144 0
M  V30 600 O 58.4759 1.65514 1.04421 0
M  V30 601 C 58.7749 2.78313 -2.24224 0
M  V30 602 C 58.4409 2.54455 -3.72241 0
M  V30 603 C 57.1029 2.47657 -4.12576 0
M  V30 604 C 59.4549 2.3354 -4.65949 0
M  V30 605 C 56.7829 2.17956 -5.44713 0
M  V30 606 C 59.1349 2.05359 -5.9834 0
M  V30 607 C 57.7989 1.97016 -6.37762 0
M  V30 608 H 57.0689 0.55455 -0.491482 0
M  V30 609 H 59.7159 0.870039 -1.70595 0
M  V30 610 H 58.0209 3.47492 -1.80987 0
M  V30 611 H 59.7179 3.36259 -2.18474 0
M  V30 612 H 56.3079 2.60616 -3.40261 0
M  V30 613 H 60.4919 2.37772 -4.35635 0
M  V30 614 H 55.7479 2.10003 -5.74203 0
M  V30 615 H 59.9219 1.88179 -6.70494 0
M  V30 616 H 57.5489 1.73766 -7.40074 0
M  V30 617 N 59.124 1.23083 0.984299 0
M  V30 618 C 60.37 1.06214 1.72761 0
M  V30 619 C 60.703 -0.400584 1.90024 0
M  V30 620 O 59.978 -1.29672 1.44967 0
M  V30 621 C 60.261 1.78375 3.12817 0
M  V30 622 C 60.114 3.32296 3.03149 0
M  V30 623 C 61.433 1.54309 4.12161 0
M  V30 624 H 58.552 0.387251 0.627061 0
M  V30 625 H 61.194 1.51536 1.14616 0
M  V30 626 H 59.344 1.39848 3.62457 0
M  V30 627 H 61.016 3.8032 2.61064 0
M  V30 628 H 59.259 3.6153 2.39747 0
M  V30 629 H 59.93 3.77972 4.02295 0
M  V30 630 H 62.406 1.87791 3.71314 0
M  V30 631 H 61.282 2.07281 5.08258 0
M  V30 632 H 61.543 0.477572 4.39513 0
M  V30 633 N 60.6021 -1.18246 1.0419 0
M  V30 634 C 61.5491 -2.2192 0.634037 0
M  V30 635 C 62.5191 -1.62179 -0.358765 0
M  V30 636 O 63.7041 -1.89122 -0.252466 0
M  V30 637 C 60.8441 -3.451 0.00445535 0
M  V30 638 C 59.9571 -4.19174 1.04487 0
M  V30 639 C 59.0921 -5.29813 0.383676 0
M  V30 640 C 58.1311 -5.9566 1.4091 0
M  V30 641 N 57.2681 -6.97834 0.772784 0
M  V30 642 H 62.1081 -2.56164 1.52263 0
M  V30 643 H 59.6451 -1.25843 0.761701 0
M  V30 644 H 61.6031 -4.15485 -0.377919 0
M  V30 645 H 60.2331 -3.11472 -0.847652 0
M  V30 646 H 59.2851 -3.47604 1.54518 0
M  V30 647 H 60.5971 -4.64267 1.82368 0
M  V30 648 H 59.7511 -6.06677 -0.0528366 0
M  V30 649 H 58.4901 -4.85825 -0.427208 0
M  V30 650 H 57.4951 -5.17535 1.85574 0
M  V30 651 H 58.7201 -6.4173 2.22171 0
M  V30 652 H 56.6661 -6.55998 -0.0177708 0
M  V30 653 H 56.5831 -7.41186 1.48928 0
M  V30 654 H 57.8511 -7.78665 0.36071 0
M  V30 655 N 62.0802 -0.821533 -1.34494 0
M  V30 656 C 63.0122 -0.199946 -2.28326 0
M  V30 657 C 64.0252 0.609377 -1.50965 0
M  V30 658 O 65.2142 0.439285 -1.7301 0
M  V30 659 C 62.3142 0.738431 -3.30757 0
M  V30 660 C 61.4872 -0.0277632 -4.37391 0
M  V30 661 C 60.5462 0.831332 -5.19591 0
M  V30 662 O 59.5722 0.276822 -5.68526 0
M  V30 663 N 60.7742 2.15132 -5.39165 0
M  V30 664 H 63.5392 -1.00609 -2.82308 0
M  V30 665 H 61.1002 -0.678366 -1.47003 0
M  V30 666 H 63.0922 1.31773 -3.82646 0
M  V30 667 H 61.6622 1.44533 -2.7718 0
M  V30 668 H 60.8822 -0.788359 -3.86236 0
M  V30 669 H 62.1702 -0.555251 -5.05761 0
M  V30 670 H 61.5682 2.62559 -5.01078 0
M  V30 671 H 60.1252 2.6795 -5.94177 0
M  V30 672 N 63.5583 1.46682 -0.576371 0
M  V30 673 C 64.8353 1.95599 0.00703437 0
M  V30 674 C 65.2153 1.51904 1.46589 0
M  V30 675 O 64.5633 0.766755 2.15251 0
M  V30 676 C 64.7733 3.4864 -0.158404 0
M  V30 677 C 66.1213 4.24594 -0.0229439 0
M  V30 678 O 67.1453 3.56094 -0.0869173 0
M  V30 679 O 66.0043 5.46373 0.118015 0
M  V30 680 H 63.0983 0.825275 0.053384 0
M  V30 681 H 65.6443 1.56996 -0.644244 0
M  V30 682 H 64.4163 3.7331 -1.17282 0
M  V30 683 H 64.0393 3.94057 0.5296 0
M  V30 684 N 65.0364 0.313813 1.54444 0
M  V30 685 C 66.2854 -0.292519 1.99568 0
M  V30 686 C 66.5984 -1.54011 1.20582 0
M  V30 687 O 67.8044 -2.22183 1.56035 0
M  V30 688 C 66.2604 -0.571752 3.55329 0
M  V30 689 C 65.8684 0.658229 4.43138 0
M  V30 690 C 67.6124 -1.13857 4.08946 0
M  V30 691 C 65.5194 0.351439 5.90355 0
M  V30 692 H 64.4494 -0.113079 0.745472 0
M  V30 693 H 67.1004 0.424518 1.78522 0
M  V30 694 H 65.4824 -1.34872 3.72325 0
M  V30 695 H 66.6564 1.43403 4.37918 0
M  V30 696 H 64.9714 1.14458 4.0036 0
M  V30 697 H 67.5684 -1.38257 5.16516 0
M  V30 698 H 67.9114 -2.08489 3.6033 0
M  V30 699 H 68.4444 -0.423015 3.95544 0
M  V30 700 H 65.1834 1.26667 6.43145 0
M  V30 701 H 64.7034 -0.386842 5.98551 0
M  V30 702 H 66.3824 -0.0423134 6.46986 0
M  V30 703 N 66.5145 -1.57545 0.0417849 0
M  V30 704 C 67.7625 -1.91937 -0.632829 0
M  V30 705 C 68.0835 -0.919978 -1.71934 0
M  V30 706 O 67.3535 0.0366064 -1.95866 0
M  V30 707 H 65.9335 -0.708493 -0.236742 0
M  V30 708 H 68.5955 -1.9468 0.0925745 0
M  V30 709 H 67.6915 -2.92912 -1.07746 0
M  V30 710 N 67.9926 0.231505 -1.5589 0
M  V30 711 C 69.2406 0.955461 -1.78088 0
M  V30 712 C 69.5616 1.85262 -0.608533 0
M  V30 713 O 68.8316 1.92277 0.375035 0
M  V30 714 H 67.4116 0.355787 -0.656829 0
M  V30 715 H 70.0736 0.245751 -1.93344 0
M  V30 716 H 69.1696 1.56814 -2.69844 0
M  V30 717 N 69.4707 1.49531 0.497807 0
M  V30 718 C 70.4007 1.6935 1.60757 0
M  V30 719 C 71.3817 0.542218 1.61227 0
M  V30 720 O 72.5667 0.778417 1.77917 0
M  V30 721 C 69.6967 1.76298 2.99226 0
M  V30 722 C 68.6507 2.91248 3.13622 0
M  V30 723 C 67.9767 2.83312 4.53474 0
M  V30 724 C 69.2767 4.3214 2.93346 0
M  V30 725 H 70.9707 2.62263 1.44425 0
M  V30 726 H 68.5167 1.26208 0.693367 0
M  V30 727 H 70.4697 1.88749 3.76765 0
M  V30 728 H 69.1937 0.799871 3.16654 0
M  V30 729 H 67.8527 2.78404 2.38509 0
M  V30 730 H 67.5007 1.84902 4.67782 0
M  V30 731 H 67.2007 3.60465 4.64046 0
M  V30 732 H 68.7247 2.97775 5.33069 0
M  V30 733 H 70.1387 4.45649 3.60652 0
M  V30 734 H 68.5357 5.1054 3.15387 0
M  V30 735 H 69.6057 4.46363 1.89441 0
M  V30 736 N 70.9488 -0.749086 1.3866 0
M  V30 737 C 72.1738 -1.54344 1.38538 0
M  V30 738 C 72.5988 -1.88088 -0.0216655 0
M  V30 739 O 71.9568 -1.50899 -1.00494 0
M  V30 740 C 72.0048 -2.8164 2.25192 0
M  V30 741 O 71.1088 -3.7698 1.67212 0
M  V30 742 H 70.4498 -0.466654 0.472367 0
M  V30 743 H 72.9798 -0.925355 1.82478 0
M  V30 744 H 72.9898 -3.30519 2.3921 0
M  V30 745 H 71.6648 -2.56411 3.27454 0
M  V30 746 H 70.2418 -3.35699 1.6236 0
M  V30 747 N 72.4269 -1.23603 -0.977757 0
M  V30 748 C 73.8379 -1.06424 -1.53398 0
M  V30 749 C 74.1889 0.367578 -1.92726 0
M  V30 750 O 73.3139 1.25465 -1.76316 0
M  V30 751 C 73.9089 -1.92568 -2.78753 0
M  V30 752 C 72.4679 -1.79642 -3.30765 0
M  V30 753 C 71.6149 -1.88111 -2.03739 0
M  V30 754 H 74.5659 -1.37227 -0.797152 0
M  V30 755 H 74.5869 -1.45203 -3.51705 0
M  V30 756 H 74.0989 -2.96771 -2.50098 0
M  V30 757 H 72.1999 -0.782325 -3.64294 0
M  V30 758 H 72.3129 -2.63174 -4.00345 0
M  V30 759 H 70.6769 -1.31723 -2.17994 0
M  V30 760 H 71.4599 -2.93875 -1.77461 0
M  V30 761 N 73.905 1.17692 -1.04816 0
M  V30 762 C 74.852 2.21581 -0.645797 0
M  V30 763 C 75.822 1.62367 0.350159 0
M  V30 764 O 77.007 1.89254 0.242433 0
M  V30 765 C 74.147 3.45092 -0.0227568 0
M  V30 766 C 73.26 4.18613 -1.06709 0
M  V30 767 C 72.395 5.29602 -0.411767 0
M  V30 768 C 71.434 5.94904 -1.44067 0
M  V30 769 N 70.571 6.97414 -0.809781 0
M  V30 770 H 75.411 2.55353 -1.5362 0
M  V30 771 H 72.948 1.25438 -0.768364 0
M  V30 772 H 74.906 4.15679 0.35588 0
M  V30 773 H 73.536 3.11917 0.831122 0
M  V30 774 H 72.588 3.46779 -1.5636 0
M  V30 775 H 73.9 4.63293 -1.84827 0
M  V30 776 H 73.054 6.06696 0.0206623 0
M  V30 777 H 71.793 4.86045 0.401438 0
M  V30 778 H 70.798 5.16544 -1.88316 0
M  V30 779 H 72.023 6.40542 -2.25571 0
M  V30 780 H 69.969 6.55998 -0.0170186 0
M  V30 781 H 69.886 7.40386 -1.52856 0
M  V30 782 H 71.154 7.78463 -0.401999 0
M  V30 783 N 75.3831 0.828654 1.34056 0
M  V30 784 C 76.3331 0.226828 2.26869 0
M  V30 785 C 77.3171 -0.612243 1.48796 0
M  V30 786 O 78.5091 -0.465884 1.70759 0
M  V30 787 C 75.6381 -0.605654 3.37915 0
M  V30 788 C 74.7241 0.244361 4.23395 0
M  V30 789 N 75.1151 1.31815 4.88322 0
M  V30 790 C 73.4131 0.0296616 4.4599 0
M  V30 791 C 74.1141 1.83895 5.51867 0
M  V30 792 N 73.0901 1.14196 5.3147 0
M  V30 793 H 76.8921 1.04811 2.74576 0
M  V30 794 H 74.4061 0.67205 1.47842 0
M  V30 795 H 76.4031 -1.05302 4.03382 0
M  V30 796 H 75.0631 -1.42504 2.91758 0
M  V30 797 H 76.0741 1.70099 4.8917 0
M  V30 798 H 72.7511 -0.757097 4.10578 0
M  V30 799 H 74.1411 2.7376 6.136 0
M  V30 800 N 76.8612 -1.46375 0.584142 0
M  V30 801 C 77.8242 -2.28784 -0.138108 0
M  V30 802 C 78.8242 -1.38471 -0.817462 0
M  V30 803 O 80.0142 -1.60833 -0.669199 0
M  V30 804 C 77.1462 -3.18892 -1.20503 0
M  V30 805 H 78.3392 -2.94117 0.586127 0
M  V30 806 H 75.8922 -1.52509 0.342171 0
M  V30 807 H 76.6272 -2.58309 -1.96079 0
M  V30 808 H 76.4122 -3.85388 -0.722384 0
M  V30 809 H 77.9022 -3.80914 -1.71155 0
M  V30 810 N 78.3393 -0.321999 -1.54275 0
M  V30 811 C 79.7503 0.166384 -1.85957 0
M  V30 812 C 80.1013 1.51747 -1.24367 0
M  V30 813 O 79.2263 2.09317 -0.549124 0
M  V30 814 C 79.8213 0.308681 -3.37391 0
M  V30 815 C 78.3803 0.741286 -3.69028 0
M  V30 816 C 77.5273 -0.137937 -2.76957 0
M  V30 817 H 80.4783 -0.542335 -1.49146 0
M  V30 818 H 80.4993 1.13984 -3.63026 0
M  V30 819 H 80.0113 -0.674809 -3.82188 0
M  V30 820 H 78.1123 1.73458 -3.29762 0
M  V30 821 H 78.2253 0.546118 -4.75977 0
M  V30 822 H 76.5893 0.386251 -2.51754 0
M  V30 823 H 77.3723 -1.11816 -3.2458 0
M  V30 824 N 79.8174 1.5752 -0.0501392 0
M  V30 825 C 81.0944 1.83996 0.663685 0
M  V30 826 C 81.4744 0.938339 1.89099 0
M  V30 827 O 80.8224 -0.00087759 2.285 0
M  V30 828 C 81.0324 3.33702 1.02196 0
M  V30 829 C 82.3804 4.00691 1.40469 0
M  V30 830 O 83.4044 3.38321 1.11433 0
M  V30 831 O 82.2634 5.10658 1.94654 0
M  V30 832 H 79.3574 0.759385 0.32751 0
M  V30 833 H 81.9034 1.69514 -0.0794238 0
M  V30 834 H 80.6754 3.91015 0.149364 0
M  V30 835 H 80.2984 3.53368 1.82255 0
M  V30 836 N 81.2955 -0.223234 1.56011 0
M  V30 837 C 82.5445 -0.945912 1.78144 0
M  V30 838 C 82.8575 -1.85567 0.618396 0
M  V30 839 O 84.0635 -2.61688 0.723318 0
M  V30 840 C 82.5195 -1.73216 3.15475 0
M  V30 841 C 82.1275 -0.868619 4.39499 0
M  V30 842 C 83.8715 -2.44615 3.46935 0
M  V30 843 C 81.7785 -1.65212 5.67855 0
M  V30 844 H 80.7085 -0.356929 0.664167 0
M  V30 845 H 83.3595 -0.199845 1.82409 0
M  V30 846 H 81.7415 -2.52107 3.05382 0
M  V30 847 H 82.9155 -0.120366 4.60643 0
M  V30 848 H 81.2305 -0.26683 4.15544 0
M  V30 849 H 83.8275 -3.03732 4.40058 0
M  V30 850 H 84.1705 -3.17417 2.69355 0
M  V30 851 H 84.7035 -1.72715 3.58349 0
M  V30 852 H 81.4425 -0.967407 6.48322 0
M  V30 853 H 80.9625 -2.37503 5.50774 0
M  V30 854 H 82.6415 -2.21322 6.07968 0
M  V30 855 N 82.7736 -1.49793 -0.48987 0
M  V30 856 C 84.1846 -1.52914 -1.07118 0
M  V30 857 C 84.5356 -0.321738 -1.93544 0
M  V30 858 O 83.6606 0.567338 -2.08831 0
M  V30 859 C 84.2556 -2.771 -1.94938 0
M  V30 860 C 82.8146 -2.82963 -2.48212 0
M  V30 861 C 81.9616 -2.46972 -1.26096 0
M  V30 862 H 84.9126 -1.56329 -0.273289 0
M  V30 863 H 84.9336 -2.57892 -2.79771 0
M  V30 864 H 84.4456 -3.64959 -1.32009 0
M  V30 865 H 82.5466 -1.99411 -3.14748 0
M  V30 866 H 82.6596 -3.85406 -2.84603 0
M  V30 867 H 81.0236 -1.98994 -1.58976 0
M  V30 868 H 81.8066 -3.37118 -0.648581 0
M  V30 869 N 84.2517 0.741722 -1.39055 0
M  V30 870 C 85.5287 1.49252 -1.26425 0
M  V30 871 C 85.9087 2.10705 0.129144 0
M  V30 872 O 85.2567 1.98045 1.13976 0
M  V30 873 C 85.4667 2.54934 -2.38347 0
M  V30 874 C 86.8147 3.21506 -2.77343 0
M  V30 875 O 87.8387 2.65245 -2.37747 0
M  V30 876 O 86.6977 4.23294 -3.45665 0
M  V30 877 H 83.7917 0.662451 -0.495064 0
M  V30 878 H 86.3377 0.776121 -1.50912 0
M  V30 879 H 85.1097 2.07857 -3.31529 0
M  V30 880 H 84.7327 3.34141 -2.15489 0
M  V30 881 N 85.7298 1.2412 0.971189 0
M  V30 882 C 87.0068 0.986867 1.6888 0
M  V30 883 C 87.3868 -0.491857 2.0529 0
M  V30 884 O 86.7348 -1.46531 1.75331 0
M  V30 885 C 86.9448 1.9063 2.92338 0
M  V30 886 C 88.2928 2.17515 3.64654 0
M  V30 887 O 89.3168 1.88254 3.02388 0
M  V30 888 O 88.1758 2.6719 4.7673 0
M  V30 889 H 85.2698 0.372944 0.738134 0
M  V30 890 H 87.8158 1.35203 1.02559 0
M  V30 891 H 86.5878 2.90552 2.62097 0
M  V30 892 H 86.2108 1.54408 3.66393 0
M  V30 893 N 87.2079 -1.17134 1.05439 0
M  V30 894 C 88.4329 -1.91913 0.786396 0
M  V30 895 C 88.8579 -1.7643 -0.652234 0
M  V30 896 O 88.2159 -1.08372 -1.45345 0
M  V30 897 C 88.2639 -3.40921 1.17497 0
M  V30 898 O 87.3679 -4.11244 0.308589 0
M  V30 899 H 86.7089 -0.598215 0.288158 0
M  V30 900 H 89.2389 -1.48457 1.4079 0
M  V30 901 H 89.2489 -3.91668 1.14281 0
M  V30 902 H 87.9239 -3.5151 2.22292 0
M  V30 903 H 86.5009 -3.70731 0.40157 0
M  V30 904 N 88.686 -0.835752 -1.33615 0
M  V30 905 C 89.914 -0.443344 -2.02094 0
M  V30 906 C 90.329 0.954522 -1.62894 0
M  V30 907 O 89.686 1.61982 -0.840723 0
M  V30 908 C 89.737 -0.550775 -3.5728 0
M  V30 909 O 89.458 -1.89356 -3.95065 0
M  V30 910 C 90.959 -0.154919 -4.43029 0
M  V30 911 H 88.179 -0.176359 -0.647409 0
M  V30 912 H 90.723 -1.12746 -1.70612 0
M  V30 913 H 88.878 0.0853997 -3.87306 0
M  V30 914 H 89.292 -1.87687 -4.89769 0
M  V30 915 H 90.766 -0.281144 -5.51284 0
M  V30 916 H 91.243 0.902863 -4.2982 0
M  V30 917 H 91.849 -0.765404 -4.18356 0
M  V30 918 N 90.1641 1.46063 -0.591896 0
M  V30 919 C 91.4411 1.95595 -0.0137119 0
M  V30 920 C 91.8211 1.5345 1.4497 0
M  V30 921 O 91.1691 0.789543 2.14426 0
M  V30 922 C 91.3791 3.48453 -0.195373 0
M  V30 923 C 92.7271 4.24546 -0.0679765 0
M  V30 924 O 93.7511 3.55982 -0.124681 0
M  V30 925 O 92.6101 5.46467 0.0600579 0
M  V30 926 H 89.7041 0.825795 0.0446279 0
M  V30 927 H 92.2501 1.56303 -0.660859 0
M  V30 928 H 91.0221 3.72045 -1.21235 0
M  V30 929 H 90.6451 3.94597 0.487775 0
M  V30 930 N 91.6422 0.330177 1.54103 0
M  V30 931 C 92.5902 -0.548226 2.26047 0
M  V30 932 C 93.5842 -1.11309 1.27698 0
M  V30 933 O 94.7902 -1.06036 1.45452 0
M  V30 934 H 91.1652 -0.195456 0.726155 0
M  V30 935 H 93.1362 0.0807567 2.98291 0
M  V30 936 C 91.8852 -1.69415 3.03634 0
M  V30 937 H 91.2082 -1.26876 3.79134 0
M  V30 938 H 92.6482 -2.28423 3.5721 0
M  V30 939 C 91.1072 -2.61569 2.12328 0
M  V30 940 O 91.6372 -3.63462 1.7105 0
M  V30 941 N 89.8432 -2.29952 1.77681 0
M  V30 942 H 89.3902 -1.47134 2.11446 0
M  V30 943 H 89.3482 -2.91871 1.16869 0
M  V30 944 N 93.1203 -1.57491 0.0584922 0
M  V30 945 C 94.3693 -1.92155 -0.613146 0
M  V30 946 C 94.6823 -0.939334 -1.71569 0
M  V30 947 O 95.8883 -1.17829 -2.44599 0
M  V30 948 C 94.3443 -3.41303 -1.14195 0
M  V30 949 C 93.9523 -4.47944 -0.0711265 0
M  V30 950 C 95.6963 -3.84988 -1.78841 0
M  V30 951 C 93.6033 -5.88212 -0.613225 0
M  V30 952 H 92.5333 -0.717162 -0.232796 0
M  V30 953 H 95.1843 -1.83049 0.12857 0
M  V30 954 H 93.5663 -3.45437 -1.93621 0
M  V30 955 H 94.7403 -4.55408 0.702836 0
M  V30 956 H 93.0553 -4.13644 0.478313 0
M  V30 957 H 95.6523 -4.87159 -2.20408 0
M  V30 958 H 95.9953 -3.21632 -2.64308 0
M  V30 959 H 96.5283 -3.83401 -1.06059 0
M  V30 960 H 93.2673 -6.55183 0.203978 0
M  V30 961 H 92.7873 -5.84294 -1.35501 0
M  V30 962 H 94.4663 -6.37687 -1.09383 0
M  V30 963 N 94.5984 0.214957 -1.56127 0
M  V30 964 C 95.8264 0.955092 -1.83536 0
M  V30 965 C 96.2414 1.77677 -0.638472 0
M  V30 966 O 95.5984 1.78219 0.392968 0
M  V30 967 C 95.6494 1.86734 -3.09536 0
M  V30 968 O 95.3704 1.07887 -4.24608 0
M  V30 969 C 96.8714 2.72082 -3.4998 0
M  V30 970 H 94.0914 0.279611 -0.609966 0
M  V30 971 H 96.6354 0.228197 -2.03223 0
M  V30 972 H 94.7904 2.5481 -2.91806 0
M  V30 973 H 95.2044 1.69872 -4.9623 0
M  V30 974 H 96.6784 3.31782 -4.41163 0
M  V30 975 H 97.1554 3.44806 -2.7204 0
M  V30 976 H 97.7614 2.09409 -3.70173 0
M  V30 977 N 96.0765 1.50051 0.48192 0
M  V30 978 C 97.3255 1.59741 1.23149 0
M  V30 979 C 97.6385 0.298163 1.93314 0
M  V30 980 O 98.8445 0.273835 2.70116 0
M  V30 981 C 97.3005 2.81926 2.23708 0
M  V30 982 C 96.9085 4.18685 1.59396 0
M  V30 983 C 98.6525 3.00956 2.99375 0
M  V30 984 C 96.5595 5.3207 2.58178 0
M  V30 985 H 95.4895 0.594838 0.46334 0
M  V30 986 H 98.1405 1.76467 0.503169 0
M  V30 987 H 96.5225 2.58736 2.99786 0
M  V30 988 H 97.6965 4.52088 0.891811 0
M  V30 989 H 96.0115 4.05171 0.960503 0
M  V30 990 H 98.6085 3.82836 3.73283 0
M  V30 991 H 98.9515 2.12258 3.58123 0
M  V30 992 H 99.4845 3.24277 2.30411 0
M  V30 993 H 96.2235 6.22888 2.04184 0
M  V30 994 H 95.7435 5.03098 3.26577 0
M  V30 995 H 97.4225 5.62196 3.20225 0
M  V30 996 N 97.5546 -0.734337 1.39446 0
M  V30 997 C 98.8016 -1.49391 1.36706 0
M  V30 998 C 99.1296 -1.94465 -0.0367813 0
M  V30 999 O 98.3846 -1.67154 -1.01774 0
M  V30 1000 C 98.6836 -2.74711 2.28623 0
M  V30 1001 C 98.3496 -2.48501 3.76242 0
M  V30 1002 C 97.0116 -2.41062 4.16464 0
M  V30 1003 C 99.3636 -2.26098 4.69606 0
M  V30 1004 C 96.6916 -2.09262 5.48112 0
M  V30 1005 C 99.0436 -1.95814 6.01531 0
M  V30 1006 C 97.7076 -1.86845 6.40816 0
M  V30 1007 H 96.9776 -0.546661 0.500243 0
M  V30 1008 H 99.6246 -0.842788 1.71957 0
M  V30 1009 H 97.9296 -3.44569 1.86492 0
M  V30 1010 H 99.6266 -3.32741 2.23796 0
M  V30 1011 H 96.2166 -2.55169 3.44364 0
M  V30 1012 H 100.401 -2.30812 4.39363 0
M  V30 1013 H 95.6566 -2.00841 5.77471 0
M  V30 1014 H 99.8306 -1.77488 6.73403 0
M  V30 1015 H 97.4576 -1.6197 7.42745 0
M  V30 1016 N 99.0327 -1.24633 -0.964593 0
M  V30 1017 C 100.261 -1.11501 -1.74285 0
M  V30 1018 C 100.676 0.332165 -1.85855 0
M  V30 1019 O 100.033 1.22903 -1.34911 0
M  V30 1020 C 100.084 -1.75258 -3.16175 0
M  V30 1021 O 99.8047 -3.14318 -3.05182 0
M  V30 1022 C 101.306 -1.67776 -4.10324 0
M  V30 1023 H 98.5257 -0.389407 -0.546446 0
M  V30 1024 H 101.07 -1.64801 -1.21083 0
M  V30 1025 H 99.2247 -1.25954 -3.66353 0
M  V30 1026 H 99.6387 -3.4551 -3.94618 0
M  V30 1027 H 101.113 -2.17064 -5.0753 0
M  V30 1028 H 101.59 -0.639584 -4.34518 0
M  V30 1029 H 102.196 -2.16522 -3.66058 0
M  V30 1030 N 100.511 1.16574 -1.06058 0
M  V30 1031 C 101.927 1.3904 -0.783585 0
M  V30 1032 C 102.127 1.91784 0.618145 0
M  V30 1033 O 101.183 2.11511 1.37911 0
M  V30 1034 C 102.496 2.37329 -1.84649 0
M  V30 1035 C 104.044 2.51018 -1.86973 0
M  V30 1036 C 104.519 3.52588 -2.92311 0
M  V30 1037 N 106.01 3.60113 -2.91329 0
M  V30 1038 C 106.745 4.38486 -3.69482 0
M  V30 1039 N 106.241 5.20302 -4.57447 0
M  V30 1040 N 108.034 4.33446 -3.57885 0
M  V30 1041 H 100.185 0.806725 -1.96483 0
M  V30 1042 H 102.448 0.417117 -0.851303 0
M  V30 1043 H 102.154 2.05663 -2.85299 0
M  V30 1044 H 102.028 3.36946 -1.6955 0
M  V30 1045 H 104.415 2.81989 -0.869827 0
M  V30 1046 H 104.496 1.51445 -2.0615 0
M  V30 1047 H 104.14 3.22354 -3.92492 0
M  V30 1048 H 104.07 4.51886 -2.70383 0
M  V30 1049 H 106.561 3.01707 -2.27555 0
M  V30 1050 H 106.874 5.77311 -5.13743 0
M  V30 1051 H 105.219 5.19653 -4.61503 0
M  V30 1052 H 108.41 3.68586 -2.88551 0
M  V30 1053 H 108.583 4.94279 -4.19037 0
M  V30 1054 N 101.989 0.842826 1.3317 0
M  V30 1055 C 103.238 0.436738 1.96915 0
M  V30 1056 C 103.551 -1.01025 1.67491 0
M  V30 1057 O 104.757 -1.5212 2.24881 0
M  V30 1058 C 103.213 0.730021 3.52418 0
M  V30 1059 C 102.821 2.19195 3.90714 0
M  V30 1060 C 104.565 0.391076 4.22695 0
M  V30 1061 C 102.472 2.42907 5.39212 0
M  V30 1062 H 101.402 0.15958 0.736919 0
M  V30 1063 H 104.053 1.03196 1.51733 0
M  V30 1064 H 102.435 0.0643755 3.95948 0
M  V30 1065 H 103.609 2.8984 3.58231 0
M  V30 1066 H 101.924 2.49425 3.33431 0
M  V30 1067 H 104.521 0.545817 5.31907 0
M  V30 1068 H 104.864 -0.666294 4.10933 0
M  V30 1069 H 105.397 1.01212 3.84709 0
M  V30 1070 H 102.136 3.47224 5.55982 0
M  V30 1071 H 101.656 1.76827 5.73142 0
M  V30 1072 H 103.335 2.2626 6.06148 0
M  V30 1073 N 103.467 -1.45747 0.599634 0
M  V30 1074 C 104.397 -2.33235 -0.111306 0
M  V30 1075 C 105.378 -1.46359 -0.866781 0
M  V30 1076 O 106.563 -1.75146 -0.838904 0
M  V30 1077 C 103.693 -3.28932 -1.11451 0
M  V30 1078 C 102.647 -4.25381 -0.472772 0
M  V30 1079 C 101.973 -5.1071 -1.58365 0
M  V30 1080 C 103.273 -5.18831 0.600948 0
M  V30 1081 H 104.967 -2.92927 0.61919 0
M  V30 1082 H 102.513 -1.40857 0.299215 0
M  V30 1083 H 104.466 -3.89002 -1.62036 0
M  V30 1084 H 103.19 -2.67381 -1.8755 0
M  V30 1085 H 101.849 -3.66598 0.0121472 0
M  V30 1086 H 101.497 -4.45533 -2.33473 0
M  V30 1087 H 101.197 -5.7604 -1.15982 0
M  V30 1088 H 102.721 -5.73647 -2.09194 0
M  V30 1089 H 104.135 -5.73019 0.179491 0
M  V30 1090 H 102.532 -5.92595 0.946076 0
M  V30 1091 H 103.602 -4.6174 1.48068 0
M  V30 1092 N 104.945 -0.338344 -1.53925 0
M  V30 1093 C 106.222 0.314774 -1.93051 0
M  V30 1094 C 106.602 1.68669 -1.26941 0
M  V30 1095 O 105.95 2.24636 -0.418445 0
M  V30 1096 C 106.16 0.392249 -3.46789 0
M  V30 1097 C 107.508 0.645554 -4.19664 0
M  V30 1098 O 108.532 0.474575 -3.53024 0
M  V30 1099 O 107.391 0.976408 -5.37707 0
M  V30 1100 H 104.485 0.182598 -0.80659 0
M  V30 1101 H 107.031 -0.389141 -1.65178 0
M  V30 1102 H 105.803 -0.570702 -3.87116 0
M  V30 1103 H 105.426 1.14316 -3.80812 0
M  V30 1104 N 106.423 1.57458 -0.0668435 0
M  V30 1105 C 107.839 1.56947 0.289772 0
M  V30 1106 C 108.039 1.07584 1.70376 0
M  V30 1107 O 107.095 0.739486 2.41429 0
M  V30 1108 C 108.408 3.0052 0.103943 0
M  V30 1109 C 109.956 3.12517 0.173857 0
M  V30 1110 C 110.431 4.57997 0.0163682 0
M  V30 1111 N 111.922 4.63144 0.0721352 0
M  V30 1112 C 112.657 5.73394 -0.0253794 0
M  V30 1113 N 112.153 6.92576 -0.176133 0
M  V30 1114 N 113.946 5.62091 0.0313305 0
M  V30 1115 H 106.097 1.87863 -0.991027 0
M  V30 1116 H 108.36 0.86583 -0.38606 0
M  V30 1117 H 108.066 3.40729 -0.871572 0
M  V30 1118 H 107.94 3.67304 0.858366 0
M  V30 1119 H 110.327 2.72197 1.13985 0
M  V30 1120 H 110.408 2.48381 -0.611586 0
M  V30 1121 H 110.052 4.99005 -0.946374 0
M  V30 1122 H 109.982 5.20158 0.821153 0
M  V30 1123 H 112.473 3.77436 0.187263 0
M  V30 1124 H 112.786 7.72418 -0.242821 0
M  V30 1125 H 111.131 6.94678 -0.211429 0
M  V30 1126 H 114.322 4.67867 0.147773 0
M  V30 1127 H 114.495 6.47982 -0.048121 0
M  V30 1128 N 107.901 -0.206675 1.56239 0
M  V30 1129 C 108.831 -1.25909 1.96645 0
M  V30 1130 C 109.812 -1.48097 0.836734 0
M  V30 1131 O 110.997 -1.6003 1.10019 0
M  V30 1132 C 108.127 -2.6058 2.29599 0
M  V30 1133 C 107.081 -2.53024 3.452 0
M  V30 1134 C 106.407 -3.91861 3.63798 0
M  V30 1135 C 107.707 -2.06524 4.79734 0
M  V30 1136 H 109.401 -0.923369 2.84806 0
M  V30 1137 H 106.947 -0.442735 1.37025 0
M  V30 1138 H 108.9 -3.34375 2.56459 0
M  V30 1139 H 107.624 -2.95869 1.38307 0
M  V30 1140 H 106.283 -1.81684 3.18412 0
M  V30 1141 H 105.931 -4.24483 2.69857 0
M  V30 1142 H 105.631 -3.87683 4.4156 0
M  V30 1143 H 107.155 -4.67296 3.93022 0
M  V30 1144 H 108.569 -2.70072 5.05702 0
M  V30 1145 H 106.966 -2.13374 5.60885 0
M  V30 1146 H 108.036 -1.01802 4.74093 0
M  V30 1147 N 109.379 -1.50304 -0.473955 0
M  V30 1148 C 110.309 -1.71886 -1.58042 0
M  V30 1149 C 111.29 -0.567799 -1.60344 0
M  V30 1150 O 112.475 -0.806623 -1.76656 0
M  V30 1151 C 109.605 -1.81036 -2.96384 0
M  V30 1152 C 108.559 -2.962 -3.08949 0
M  V30 1153 C 107.885 -2.9049 -4.48909 0
M  V30 1154 C 109.185 -4.36752 -2.86434 0
M  V30 1155 H 110.879 -2.64527 -1.40234 0
M  V30 1156 H 108.425 -1.27295 -0.673201 0
M  V30 1157 H 110.378 -1.94719 -3.73714 0
M  V30 1158 H 109.102 -0.850147 -3.15341 0
M  V30 1159 H 107.761 -2.82164 -2.3405 0
M  V30 1160 H 107.409 -1.92321 -4.64781 0
M  V30 1161 H 107.109 -3.67802 -4.58253 0
M  V30 1162 H 108.633 -3.06218 -5.28264 0
M  V30 1163 H 110.047 -4.5133 -3.53517 0
M  V30 1164 H 108.444 -5.15493 -3.07225 0
M  V30 1165 H 109.514 -4.49321 -1.82316 0
M  V30 1166 N 110.857 0.726932 -1.39834 0
M  V30 1167 C 112.134 1.47902 -1.28001 0
M  V30 1168 C 112.514 2.1083 0.106789 0
M  V30 1169 O 111.862 1.99242 1.11869 0
M  V30 1170 C 112.072 2.52392 -2.41038 0
M  V30 1171 C 113.42 3.18546 -2.80737 0
M  V30 1172 O 114.444 2.62708 -2.40547 0
M  V30 1173 O 113.303 4.19604 -3.50135 0
M  V30 1174 H 110.397 0.657163 -0.502062 0
M  V30 1175 H 112.943 0.760071 -1.51727 0
M  V30 1176 H 111.715 2.04329 -3.33715 0
M  V30 1177 H 111.338 3.31837 -2.19021 0
M  V30 1178 N 112.336 1.25143 0.95797 0
M  V30 1179 C 113.584 1.09476 1.69881 0
M  V30 1180 C 113.905 -0.365502 1.91544 0
M  V30 1181 O 113.175 -1.25985 1.50015 0
M  V30 1182 H 111.755 0.402128 0.629525 0
M  V30 1183 H 114.417 1.57214 1.15194 0
M  V30 1184 H 113.513 1.60046 2.6794 0
M  V30 1185 N 113.814 -1.1601 1.06675 0
M  V30 1186 C 115.044 -1.90251 0.805497 0
M  V30 1187 C 115.452 -1.77891 -0.64431 0
M  V30 1188 O 114.795 -1.12383 -1.45313 0
M  V30 1189 C 114.857 -3.41419 1.12576 0
M  V30 1190 C 114.521 -3.77564 2.57477 0
M  V30 1191 C 115.518 -3.79161 3.55715 0
M  V30 1192 C 113.203 -4.08079 2.92877 0
M  V30 1193 C 115.197 -4.10767 4.8739 0
M  V30 1194 C 112.884 -4.39351 4.24751 0
M  V30 1195 C 113.882 -4.40675 5.21818 0
M  V30 1196 O 113.57 -4.71202 6.51325 0
M  V30 1197 H 113.302 -0.610018 0.291297 0
M  V30 1198 H 115.856 -1.47958 1.4247 0
M  V30 1199 H 114.086 -3.84079 0.449503 0
M  V30 1200 H 115.775 -3.9694 0.84814 0
M  V30 1201 H 116.541 -3.55693 3.29708 0
M  V30 1202 H 112.42 -4.06211 2.17976 0
M  V30 1203 H 115.964 -4.11715 5.63148 0
M  V30 1204 H 111.861 -4.62285 4.50514 0
M  V30 1205 H 112.629 -4.88996 6.56373 0
M  V30 1206 N 115.292 -0.849877 -1.32721 0
M  V30 1207 C 116.569 -0.372405 -1.92022 0
M  V30 1208 C 116.949 1.1435 -1.77447 0
M  V30 1209 O 116.297 1.96296 -1.16962 0
M  V30 1210 C 116.507 -0.831482 -3.3895 0
M  V30 1211 C 117.855 -0.845882 -4.16089 0
M  V30 1212 O 118.879 -0.775806 -3.47649 0
M  V30 1213 O 117.738 -0.943753 -5.38289 0
M  V30 1214 H 114.832 -0.107667 -0.819961 0
M  V30 1215 H 117.378 -0.93646 -1.41522 0
M  V30 1216 H 116.15 -1.87448 -3.4348 0
M  V30 1217 H 115.773 -0.24461 -3.96847 0
M  V30 1218 N 116.77 1.45427 -0.607355 0
M  V30 1219 C 117.718 2.32269 0.12411 0
M  V30 1220 C 118.712 1.45955 0.859854 0
M  V30 1221 O 119.918 1.6244 0.775447 0
M  V30 1222 H 116.293 0.749691 0.0588839 0
M  V30 1223 H 118.264 2.91743 -0.626762 0
M  V30 1224 C 117.013 3.29567 1.1082 0
M  V30 1225 H 116.336 3.95978 0.551492 0
M  V30 1226 H 117.776 3.93061 1.58995 0
M  V30 1227 C 116.235 2.56722 2.18164 0
M  V30 1228 O 116.765 2.34842 3.25902 0
M  V30 1229 N 114.971 2.16861 1.93442 0
M  V30 1230 H 114.518 2.34855 1.05834 0
M  V30 1231 H 114.476 1.68444 2.65469 0
M  V30 1232 N 118.248 0.346503 1.53744 0
M  V30 1233 C 119.664 -0.00530975 1.59599 0
M  V30 1234 C 119.864 -1.48465 1.36236 0
M  V30 1235 O 118.92 -2.24376 1.15808 0
M  V30 1236 C 120.233 0.433516 2.97559 0
M  V30 1237 C 121.781 0.386111 3.10609 0
M  V30 1238 C 122.256 0.800451 4.50951 0
M  V30 1239 N 123.747 0.754753 4.5701 0
M  V30 1240 C 124.482 1.04727 5.63755 0
M  V30 1241 N 123.978 1.4081 6.7834 0
M  V30 1242 N 125.771 0.971316 5.53644 0
M  V30 1243 H 117.922 1.31009 1.67184 0
M  V30 1244 H 120.185 0.534242 0.783128 0
M  V30 1245 H 119.891 1.46509 3.19731 0
M  V30 1246 H 119.765 -0.189753 3.76722 0
M  V30 1247 H 122.152 -0.636295 2.88158 0
M  V30 1248 H 122.233 1.04462 2.33498 0
M  V30 1249 H 121.877 1.82088 4.74137 0
M  V30 1250 H 121.807 0.119386 5.26465 0
M  V30 1251 H 124.298 0.488662 3.74727 0
M  V30 1252 H 124.611 1.61607 7.55714 0
M  V30 1253 H 122.956 1.44657 6.79779 0
M  V30 1254 H 126.147 0.688748 4.63005 0
M  V30 1255 H 126.32 1.20263 6.36742 0
M  V30 1256 N 119.726 -1.57421 0.075193 0
M  V30 1257 C 120.656 -2.15942 -0.888324 0
M  V30 1258 C 121.637 -1.08737 -1.30806 0
M  V30 1259 O 122.822 -1.36787 -1.37851 0
M  V30 1260 C 119.952 -2.72379 -2.1547 0
M  V30 1261 C 118.906 -3.8478 -1.87425 0
M  V30 1262 C 118.232 -4.27834 -3.20721 0
M  V30 1263 C 119.532 -5.08869 -1.17684 0
M  V30 1264 H 121.226 -2.96705 -0.400799 0
M  V30 1265 H 118.772 -1.42723 -0.191342 0
M  V30 1266 H 120.725 -3.11965 -2.83295 0
M  V30 1267 H 119.449 -1.88841 -2.6647 0
M  V30 1268 H 118.108 -3.45703 -1.22004 0
M  V30 1269 H 117.756 -3.41214 -3.6957 0
M  V30 1270 H 117.456 -5.03605 -3.02746 0
M  V30 1271 H 118.98 -4.70039 -3.89738 0
M  V30 1272 H 120.394 -5.4575 -1.75584 0
M  V30 1273 H 118.791 -5.8994 -1.09956 0
M  V30 1274 H 119.861 -4.84648 -0.156453 0
M  V30 1275 N 121.204 0.198386 -1.56346 0
M  V30 1276 C 122.62 0.549085 -1.49857 0
M  V30 1277 C 122.82 1.86016 -0.774611 0
M  V30 1278 O 121.876 2.50416 -0.323776 0
M  V30 1279 C 123.189 0.606868 -2.94512 0
M  V30 1280 C 124.737 0.695925 -3.05165 0
M  V30 1281 C 125.212 0.784848 -4.51225 0
M  V30 1282 N 126.703 0.848463 -4.55363 0
M  V30 1283 C 127.438 0.937378 -5.65686 0
M  V30 1284 N 126.934 0.9888 -6.85707 0
M  V30 1285 N 128.727 0.974312 -5.53592 0
M  V30 1286 H 120.878 -0.661655 -2.01831 0
M  V30 1287 H 123.141 -0.235261 -0.918344 0
M  V30 1288 H 122.847 -0.28732 -3.50524 0
M  V30 1289 H 122.721 1.46268 -3.47686 0
M  V30 1290 H 125.108 1.58055 -2.49204 0
M  V30 1291 H 125.189 -0.186022 -2.55123 0
M  V30 1292 H 124.833 -0.0954072 -5.0781 0
M  V30 1293 H 124.763 1.68255 -4.98997 0
M  V30 1294 H 127.254 0.818103 -3.68938 0
M  V30 1295 H 127.567 1.05707 -7.65536 0
M  V30 1296 H 125.912 0.957534 -6.88372 0
M  V30 1297 H 129.103 0.930954 -4.58749 0
M  V30 1298 H 129.276 1.04015 -6.39597 0
M  V30 1299 N 122.682 1.50554 0.465978 0
M  V30 1300 C 124.093 1.54599 1.04671 0
M  V30 1301 C 124.444 0.352488 1.93008 0
M  V30 1302 O 123.569 -0.534044 2.09707 0
M  V30 1303 C 124.164 2.80166 1.90505 0
M  V30 1304 C 122.723 2.86876 2.43678 0
M  V30 1305 C 121.87 2.48947 1.22151 0
M  V30 1306 H 124.821 1.56744 0.248384 0
M  V30 1307 H 124.842 2.62311 2.75633 0
M  V30 1308 H 124.354 3.67013 1.26186 0
M  V30 1309 H 122.455 2.04393 3.11536 0
M  V30 1310 H 122.568 3.89885 2.78436 0
M  V30 1311 H 120.932 2.01498 1.5579 0
M  V30 1312 H 121.715 3.38107 0.594866 0
M  V30 1313 N 124.16 -0.719506 1.40217 0
M  V30 1314 C 125.408 -1.47641 1.3801 0
M  V30 1315 C 125.729 -1.94992 -0.018145 0
M  V30 1316 O 124.999 -1.70073 -0.972207 0
M  V30 1317 H 123.579 -0.547744 0.507923 0
M  V30 1318 H 126.241 -0.853187 1.75233 0
M  V30 1319 H 125.337 -2.35112 2.05253 0
M  V30 1320 N 125.638 -1.25649 -0.95132 0
M  V30 1321 C 126.568 -1.08808 -2.06599 0
M  V30 1322 C 127.549 0.00382547 -1.701 0
M  V30 1323 O 128.734 -0.166325 -1.93486 0
M  V30 1324 C 125.864 -0.709542 -3.39975 0
M  V30 1325 C 124.818 -1.75206 -3.90496 0
M  V30 1326 C 124.144 -1.22811 -5.20405 0
M  V30 1327 C 125.444 -3.15153 -4.16504 0
M  V30 1328 H 127.138 -2.02048 -2.20946 0
M  V30 1329 H 124.684 -0.972835 -1.06169 0
M  V30 1330 H 126.637 -0.578649 -4.17408 0
M  V30 1331 H 125.361 0.258556 -3.25575 0
M  V30 1332 H 124.02 -1.87145 -3.15234 0
M  V30 1333 H 123.668 -0.250145 -5.02378 0
M  V30 1334 H 123.368 -1.92492 -5.55176 0
M  V30 1335 H 124.892 -1.10968 -6.00432 0
M  V30 1336 H 126.306 -3.06349 -4.84586 0
M  V30 1337 H 124.703 -3.82333 -4.62538 0
M  V30 1338 H 125.773 -3.61966 -3.22658 0
M  V30 1339 N 127.117 1.15442 -1.07289 0
M  V30 1340 C 128.365 1.85845 -0.794096 0
M  V30 1341 C 128.686 1.82692 0.681809 0
M  V30 1342 O 127.956 1.26741 1.49377 0
M  V30 1343 H 126.536 0.688089 -0.290763 0
M  V30 1344 H 129.198 1.39947 -1.3565 0
M  V30 1345 H 128.294 2.91001 -1.12804 0
M  V30 1346 N 128.595 0.856903 1.32268 0
M  V30 1347 C 129.872 0.382583 1.91822 0
M  V30 1348 C 130.252 -1.13407 1.78051 0
M  V30 1349 O 129.6 -1.95673 1.18001 0
M  V30 1350 C 129.81 0.849446 3.38505 0
M  V30 1351 C 131.158 0.867936 4.15634 0
M  V30 1352 O 132.182 0.794232 3.47232 0
M  V30 1353 O 131.041 0.972286 5.37781 0
M  V30 1354 H 128.135 0.112014 0.819379 0
M  V30 1355 H 130.681 0.943952 1.41024 0
M  V30 1356 H 129.453 1.89267 3.42482 0
M  V30 1357 H 129.076 0.265652 3.96712 0
M  V30 1358 N 130.073 -1.45103 0.615059 0
M  V30 1359 C 131.036 -2.29025 -0.0895485 0
M  V30 1360 C 132.036 -1.40174 -0.787906 0
M  V30 1361 O 133.226 -1.62217 -0.634933 0
M  V30 1362 C 130.358 -3.21376 -1.13711 0
M  V30 1363 H 131.551 -2.92807 0.648382 0
M  V30 1364 H 129.104 -1.51749 0.374444 0
M  V30 1365 H 129.839 -2.6241 -1.90556 0
M  V30 1366 H 129.624 -3.86834 -0.640475 0
M  V30 1367 H 131.114 -3.84459 -1.63036 0
M  V30 1368 N 131.551 -0.354651 -1.53558 0
M  V30 1369 C 132.797 0.238797 -2.01389 0
M  V30 1370 C 133.13 1.49309 -1.2418 0
M  V30 1371 O 132.405 1.91638 -0.332457 0
M  V30 1372 C 132.688 0.541771 -3.56001 0
M  V30 1373 C 132.541 -0.725388 -4.43912 0
M  V30 1374 C 133.86 1.34685 -4.18984 0
M  V30 1375 H 130.979 0.0853177 -0.732045 0
M  V30 1376 H 133.621 -0.477384 -1.83905 0
M  V30 1377 H 131.771 1.15189 -3.71031 0
M  V30 1378 H 133.443 -1.36313 -4.407 0
M  V30 1379 H 131.686 -1.34801 -4.12324 0
M  V30 1380 H 132.357 -0.468505 -5.50008 0
M  V30 1381 H 134.833 0.830837 -4.07721 0
M  V30 1382 H 133.709 1.52759 -5.27215 0
M  V30 1383 H 133.97 2.35221 -3.74331 0
M  V30 1384 N 133.029 1.57378 -0.0835403 0
M  V30 1385 C 134.257 1.98263 0.59157 0
M  V30 1386 C 134.672 0.962302 1.62435 0
M  V30 1387 O 134.029 -0.049581 1.82433 0
M  V30 1388 C 134.08 3.39214 1.24965 0
M  V30 1389 O 133.801 4.37339 0.258186 0
M  V30 1390 C 135.302 3.95038 2.01147 0
M  V30 1391 H 132.522 0.651773 0.159477 0
M  V30 1392 H 135.066 2.03878 -0.159415 0
M  V30 1393 H 133.221 3.34649 1.95164 0
M  V30 1394 H 133.635 5.19371 0.731734 0
M  V30 1395 H 135.109 4.95848 2.42567 0
M  V30 1396 H 135.586 3.32222 2.87272 0
M  V30 1397 H 136.192 4.0304 1.35789 0
M  V30 1398 N 134.507 -0.190092 1.56449 0
M  V30 1399 C 135.417 -1.25591 1.98152 0
M  V30 1400 C 136.433 -1.49519 0.889944 0
M  V30 1401 O 137.609 -1.62036 1.19609 0
M  V30 1402 C 134.674 -2.57916 2.3169 0
M  V30 1403 C 133.735 -2.42015 3.5458 0
M  V30 1404 C 132.968 -3.6803 3.8651 0
M  V30 1405 O 133.191 -4.72413 3.1966 0
M  V30 1406 O 132.125 -3.6326 4.79923 0
M  V30 1407 H 135.951 -0.931988 2.89046 0
M  V30 1408 H 133.536 -0.395488 1.4407 0
M  V30 1409 H 135.418 -3.36008 2.54316 0
M  V30 1410 H 134.093 -2.89925 1.43963 0
M  V30 1411 H 133 -1.62017 3.37196 0
M  V30 1412 H 134.333 -2.14937 4.4279 0
M  V30 1413 N 135.985 -1.50799 -0.457987 0
M  V30 1414 C 137.231 -1.62683 -1.21088 0
M  V30 1415 C 137.564 -0.332268 -1.91336 0
M  V30 1416 O 136.839 0.667043 -1.82704 0
M  V30 1417 C 137.122 -2.81615 -2.24422 0
M  V30 1418 C 136.975 -4.20989 -1.58392 0
M  V30 1419 C 138.294 -2.96085 -3.2561 0
M  V30 1420 H 135.413 -0.592087 -0.438864 0
M  V30 1421 H 138.055 -1.83225 -0.50286 0
M  V30 1422 H 136.205 -2.64231 -2.84806 0
M  V30 1423 H 137.877 -4.49994 -1.01504 0
M  V30 1424 H 136.12 -4.24641 -0.886704 0
M  V30 1425 H 136.791 -5.0016 -2.33547 0
M  V30 1426 H 139.267 -3.12042 -2.75262 0
M  V30 1427 H 138.143 -3.80902 -3.95228 0
M  V30 1428 H 138.404 -2.0726 -3.90507 0
M  V30 1429 N 137.463 0.71206 -1.40597 0
M  V30 1430 C 138.41 1.82613 -1.41142 0
M  V30 1431 C 139.38 1.63925 -0.267903 0
M  V30 1432 O 140.565 1.85009 -0.466495 0
M  V30 1433 C 137.705 3.20354 -1.28324 0
M  V30 1434 C 136.818 3.50589 -2.52411 0
M  V30 1435 C 135.953 4.77855 -2.32009 0
M  V30 1436 C 134.992 5.01005 -3.51654 0
M  V30 1437 N 134.129 6.19487 -3.30425 0
M  V30 1438 H 138.969 1.81482 -2.36365 0
M  V30 1439 H 136.506 0.886475 -1.17388 0
M  V30 1440 H 138.464 3.99899 -1.18899 0
M  V30 1441 H 137.094 3.20705 -0.367189 0
M  V30 1442 H 136.146 2.65573 -2.72351 0
M  V30 1443 H 137.458 3.63604 -3.41458 0
M  V30 1444 H 136.612 5.65424 -2.19956 0
M  V30 1445 H 135.351 4.67056 -1.40392 0
M  V30 1446 H 134.356 4.1189 -3.64179 0
M  V30 1447 H 135.581 5.13674 -4.44202 0
M  V30 1448 H 133.527 6.09932 -2.41494 0
M  V30 1449 H 133.444 6.33194 -4.13039 0
M  V30 1450 H 134.712 7.09834 -3.22113 0
M  V30 1451 N 138.941 1.26152 0.944643 0
M  V30 1452 C 140.169 1.14259 1.72489 0
M  V30 1453 C 140.584 -0.302555 1.8636 0
M  V30 1454 O 139.941 -1.20741 1.36849 0
M  V30 1455 C 139.992 1.80266 3.13347 0
M  V30 1456 O 139.713 3.19133 3.00143 0
M  V30 1457 C 141.214 1.74283 4.07603 0
M  V30 1458 H 138.434 0.398051 0.540181 0
M  V30 1459 H 140.978 1.66706 1.18446 0
M  V30 1460 H 139.133 1.31766 3.64303 0
M  V30 1461 H 139.547 3.51744 3.89071 0
M  V30 1462 H 141.021 2.25111 5.04013 0
M  V30 1463 H 141.498 0.708631 4.33446 0
M  V30 1464 H 142.104 2.22319 3.62567 0
M  V30 1465 N 140.419 -1.14872 1.07899 0
M  V30 1466 C 141.696 -1.81928 0.71845 0
M  V30 1467 C 142.076 -1.95417 -0.798455 0
M  V30 1468 O 141.424 -1.50997 -1.715 0
M  V30 1469 C 141.634 -3.17937 1.43935 0
M  V30 1470 C 142.982 -3.93501 1.59506 0
M  V30 1471 O 144.006 -3.27509 1.40058 0
M  V30 1472 O 142.865 -5.1183 1.91551 0
M  V30 1473 H 139.959 -0.78628 0.256305 0
M  V30 1474 H 142.505 -1.21934 1.18026 0
M  V30 1475 H 141.277 -3.0325 2.47295 0
M  V30 1476 H 140.9 -3.85619 0.968687 0
M  V30 1477 N 141.898 -0.863906 -1.31812 0
M  V30 1478 C 143.147 -0.46801 -1.96195 0
M  V30 1479 C 143.46 0.983474 -1.69077 0
M  V30 1480 O 144.666 1.48523 -2.27273 0
M  V30 1481 C 143.122 -0.785995 -3.51212 0
M  V30 1482 C 142.73 -2.25383 -3.87178 0
M  V30 1483 C 144.474 -0.458274 -4.22019 0
M  V30 1484 C 142.381 -2.51455 -5.3528 0
M  V30 1485 H 141.311 -0.171283 -0.734287 0
M  V30 1486 H 143.962 -1.05597 -1.50072 0
M  V30 1487 H 142.344 -0.127359 -3.95795 0
M  V30 1488 H 143.518 -2.95502 -3.53575 0
M  V30 1489 H 141.833 -2.54698 -3.2942 0
M  V30 1490 H 144.43 -0.630369 -5.30971 0
M  V30 1491 H 144.773 0.600834 -4.11941 0
M  V30 1492 H 145.306 -1.07319 -3.8305 0
M  V30 1493 H 142.045 -3.56025 -5.50387 0
M  V30 1494 H 141.565 -1.85923 -5.70257 0
M  V30 1495 H 143.244 -2.35874 -6.02472 0
M  V30 1496 N 143.376 1.44774 -0.622745 0
M  V30 1497 C 144.606 2.06187 -0.130532 0
M  V30 1498 C 145.014 1.46547 1.19669 0
M  V30 1499 O 144.357 0.579636 1.74316 0
M  V30 1500 C 144.419 3.59437 0.0674983 0
M  V30 1501 C 144.083 4.41496 -1.18026 0
M  V30 1502 C 145.08 4.75512 -2.102 0
M  V30 1503 C 142.765 4.82007 -1.41333 0
M  V30 1504 C 144.759 5.48912 -3.23998 0
M  V30 1505 C 142.446 5.55157 -2.55429 0
M  V30 1506 C 143.444 5.88528 -3.46589 0
M  V30 1507 O 143.132 6.60191 -4.58697 0
M  V30 1508 H 142.864 0.672045 -0.0730162 0
M  V30 1509 H 145.418 1.86768 -0.854802 0
M  V30 1510 H 143.648 3.77314 0.846825 0
M  V30 1511 H 145.337 4.02642 0.513209 0
M  V30 1512 H 146.103 4.4476 -1.93425 0
M  V30 1513 H 141.982 4.55457 -0.712709 0
M  V30 1514 H 145.526 5.74877 -3.95174 0
M  V30 1515 H 141.423 5.85324 -2.72151 0
M  V30 1516 H 142.191 6.78654 -4.57571 0
M  V30 1517 N 144.854 0.36279 1.53368 0
M  V30 1518 C 146.1 -0.228113 2.01513 0
M  V30 1519 C 146.433 -1.48648 1.2497 0
M  V30 1520 O 145.708 -1.91459 0.342616 0
M  V30 1521 C 145.991 -0.522884 3.56284 0
M  V30 1522 C 145.844 0.74892 4.43521 0
M  V30 1523 C 147.163 -1.32461 4.19693 0
M  V30 1524 H 144.282 -0.0814343 0.732487 0
M  V30 1525 H 146.924 0.48713 1.83649 0
M  V30 1526 H 145.074 -1.1322 3.71636 0
M  V30 1527 H 146.746 1.38648 4.39971 0
M  V30 1528 H 144.989 1.36986 4.11603 0
M  V30 1529 H 145.66 0.497667 5.49752 0
M  V30 1530 H 148.136 -0.809203 4.08156 0
M  V30 1531 H 147.012 -1.49961 5.28018 0
M  V30 1532 H 147.273 -2.33232 3.75573 0
M  V30 1533 N 146.332 -1.57332 0.0918853 0
M  V30 1534 C 147.56 -1.98574 -0.581048 0
M  V30 1535 C 147.975 -0.970903 -1.61923 0
M  V30 1536 O 147.332 0.0399054 -1.82456 0
M  V30 1537 C 147.383 -3.39872 -1.23164 0
M  V30 1538 O 147.104 -4.37469 -0.234989 0
M  V30 1539 C 148.605 -3.96099 -1.99049 0
M  V30 1540 H 145.825 -0.65261 -0.156018 0
M  V30 1541 H 148.369 -2.0379 0.170225 0
M  V30 1542 H 146.524 -3.35679 -1.93386 0
M  V30 1543 H 146.938 -5.19751 -0.70418 0
M  V30 1544 H 148.412 -4.97127 -2.39934 0
M  V30 1545 H 148.889 -3.3374 -2.85507 0
M  V30 1546 H 149.495 -4.03755 -1.3365 0
M  V30 1547 N 147.81 0.181792 -1.56548 0
M  V30 1548 C 149.035 0.920019 -1.85877 0
M  V30 1549 C 149.46 1.75494 -0.677021 0
M  V30 1550 O 148.818 1.77399 0.374056 0
M  V30 1551 C 148.866 1.78112 -3.13542 0
M  V30 1552 O 147.97 2.88152 -2.95029 0
M  V30 1553 H 147.311 0.258334 -0.611686 0
M  V30 1554 H 149.841 0.183092 -2.03779 0
M  V30 1555 H 149.851 2.18314 -3.44678 0
M  V30 1556 H 148.526 1.16777 -3.99169 0
M  V30 1557 H 147.103 2.51609 -2.75222 0
M  V30 1558 N 149.288 1.51039 0.449983 0
M  V30 1559 C 150.535 1.63081 1.20045 0
M  V30 1560 C 150.863 0.341024 1.91487 0
M  V30 1561 O 150.118 -0.674276 1.83717 0
M  V30 1562 C 150.417 2.77556 2.25161 0
M  V30 1563 C 150.083 4.17289 1.70823 0
M  V30 1564 C 148.745 4.55305 1.55725 0
M  V30 1565 C 151.097 5.04536 1.3074 0
M  V30 1566 C 148.425 5.78287 0.989999 0
M  V30 1567 C 150.777 6.28085 0.754482 0
M  V30 1568 C 149.441 6.64885 0.590308 0
M  V30 1569 H 148.711 0.596755 0.439277 0
M  V30 1570 H 151.358 1.85037 0.49333 0
M  V30 1571 H 149.663 2.49771 3.01863 0
M  V30 1572 H 151.36 2.84073 2.83026 0
M  V30 1573 H 147.95 3.8731 1.83546 0
M  V30 1574 H 152.134 4.75782 1.41229 0
M  V30 1575 H 147.39 6.05456 0.850451 0
M  V30 1576 H 151.564 6.95038 0.435324 0
M  V30 1577 H 149.191 7.60055 0.14862 0
M  V30 1578 N 150.766 -0.704594 1.40972 0
M  V30 1579 C 152.014 -1.46169 1.39568 0
M  V30 1580 C 152.335 -1.95 0.00253745 0
M  V30 1581 O 151.605 -1.71095 -0.954114 0
M  V30 1582 H 150.185 -0.542326 0.513704 0
M  V30 1583 H 152.847 -0.834553 1.76128 0
M  V30 1584 H 151.943 -2.32922 2.07735 0
M  V30 1585 N 152.244 -1.26651 -0.937939 0
M  V30 1586 C 153.655 -1.1125 -1.49934 0
M  V30 1587 C 154.006 0.306077 -1.93798 0
M  V30 1588 O 153.131 1.19792 -1.80219 0
M  V30 1589 C 153.726 -2.01339 -2.72485 0
M  V30 1590 C 152.285 -1.90074 -3.24883 0
M  V30 1591 C 151.432 -1.94498 -1.97651 0
M  V30 1592 H 154.383 -1.39693 -0.753091 0
M  V30 1593 H 154.404 -1.56319 -3.46907 0
M  V30 1594 H 153.916 -3.04577 -2.40529 0
M  V30 1595 H 152.017 -0.897827 -3.61621 0
M  V30 1596 H 152.13 -2.75778 -3.9177 0
M  V30 1597 H 150.494 -1.38591 -2.13693 0
M  V30 1598 H 151.277 -2.99372 -1.68022 0
M  V30 1599 N 153.722 1.14298 -1.08507 0
M  V30 1600 C 154.968 1.85633 -0.816581 0
M  V30 1601 C 155.301 1.82784 0.656021 0
M  V30 1602 O 154.576 1.25926 1.48233 0
M  V30 1603 C 154.859 3.34223 -1.34041 0
M  V30 1604 C 154.712 3.45639 -2.87843 0
M  V30 1605 C 156.031 4.29356 -0.9665 0
M  V30 1606 H 153.15 0.67402 -0.298104 0
M  V30 1607 H 155.792 1.34214 -1.34487 0
M  V30 1608 H 153.942 3.78144 -0.89104 0
M  V30 1609 H 155.614 3.10498 -3.41158 0
M  V30 1610 H 153.857 2.86817 -3.25451 0
M  V30 1611 H 154.528 4.50089 -3.19569 0
M  V30 1612 H 157.004 3.93457 -1.35391 0
M  V30 1613 H 155.88 5.3178 -1.3602 0
M  V30 1614 H 156.141 4.41919 0.126362 0
M  V30 1615 N 155.201 0.870884 1.31352 0
M  V30 1616 C 156.426 0.495957 2.01383 0
M  V30 1617 C 156.851 -0.904324 1.64935 0
M  V30 1618 O 156.209 -1.59687 0.858466 0
M  V30 1619 C 156.257 0.661433 3.54482 0
M  V30 1620 O 155.361 -0.298851 4.11316 0
M  V30 1621 H 154.702 0.197158 0.634054 0
M  V30 1622 H 157.232 1.17455 1.67527 0
M  V30 1623 H 157.242 0.555072 4.04207 0
M  V30 1624 H 155.917 1.68246 3.8035 0
M  V30 1625 H 154.494 -0.147368 3.72609 0
M  V30 1626 N 156.679 -1.44442 0.630414 0
M  V30 1627 C 157.956 -1.9549 0.0655657 0
M  V30 1628 C 158.336 -1.5724 -1.40851 0
M  V30 1629 O 157.684 -0.846116 -2.12257 0
M  V30 1630 C 157.894 -3.47812 0.287691 0
M  V30 1631 C 159.242 -4.24216 0.180513 0
M  V30 1632 O 160.266 -3.55526 0.219019 0
M  V30 1633 O 159.125 -5.46434 0.0848493 0
M  V30 1634 H 156.219 -0.826688 -0.0227177 0
M  V30 1635 H 158.765 -1.54496 0.702068 0
M  V30 1636 H 157.537 -3.687 1.31056 0
M  V30 1637 H 157.16 -3.95751 -0.382984 0
M  V30 1638 N 158.157 -0.370918 -1.53173 0
M  V30 1639 C 159.385 0.217704 -2.05751 0
M  V30 1640 C 159.8 1.42018 -1.24404 0
M  V30 1641 O 159.157 1.80245 -0.286033 0
M  V30 1642 C 159.208 0.605954 -3.56385 0
M  V30 1643 O 158.929 -0.548734 -4.3465 0
M  V30 1644 C 160.43 1.2524 -4.25241 0
M  V30 1645 H 157.65 0.0371659 -0.66997 0
M  V30 1646 H 160.194 -0.530832 -1.9749 0
M  V30 1647 H 158.349 1.3044 -3.6478 0
M  V30 1648 H 158.763 -0.23376 -5.23979 0
M  V30 1649 H 160.237 1.47458 -5.3194 0
M  V30 1650 H 160.714 2.2143 -3.79296 0
M  V30 1651 H 161.32 0.595233 -4.21114 0
M  V30 1652 N 159.635 1.57281 -0.100228 0
M  V30 1653 C 160.912 1.86014 0.604812 0
M  V30 1654 C 161.292 0.998025 1.86018 0
M  V30 1655 O 160.64 0.0718184 2.28387 0
M  V30 1656 C 160.85 3.36784 0.915278 0
M  V30 1657 C 162.198 4.04957 1.27651 0
M  V30 1658 O 163.222 3.41695 1.00613 0
M  V30 1659 O 162.081 5.16593 1.7831 0
M  V30 1660 H 159.175 0.76942 0.303185 0
M  V30 1661 H 161.721 1.69176 -0.133313 0
M  V30 1662 H 160.493 3.91292 0.0248896 0
M  V30 1663 H 160.116 3.58987 1.70921 0
M  V30 1664 N 161.113 -0.173488 1.56642 0
M  V30 1665 C 162.046 -1.24353 1.91342 0
M  V30 1666 C 163.024 -1.4289 0.775965 0
M  V30 1667 O 164.208 -1.57932 1.02907 0
M  V30 1668 C 161.335 -2.60683 2.16245 0
M  V30 1669 C 160.381 -2.58894 3.38934 0
M  V30 1670 S 161.214 -2.0819 4.93373 0
M  V30 1671 C 162.37 -3.46302 5.21369 0
M  V30 1672 H 162.603 -0.947345 2.81803 0
M  V30 1673 H 160.136 -0.377958 1.49703 0
M  V30 1674 H 162.094 -3.39149 2.31275 0
M  V30 1675 H 160.755 -2.87502 1.26496 0
M  V30 1676 H 159.948 -3.59188 3.53553 0
M  V30 1677 H 159.55 -1.88522 3.2301 0
M  V30 1678 H 161.842 -4.42287 5.13214 0
M  V30 1679 H 162.785 -3.3656 6.23003 0
M  V30 1680 H 163.193 -3.42214 4.48943 0
M  V30 1681 N 162.591 -1.51276 -0.441967 0
M  V30 1682 C 163.501 -1.75092 -1.56141 0
M  V30 1683 C 164.517 -0.634963 -1.62001 0
M  V30 1684 O 165.693 -0.916686 -1.79329 0
M  V30 1685 C 162.758 -1.86666 -2.92158 0
M  V30 1686 C 161.819 -3.10506 -2.96453 0
M  V30 1687 C 161.052 -3.21519 -4.25982 0
M  V30 1688 O 161.275 -2.38586 -5.18105 0
M  V30 1689 O 160.209 -4.14465 -4.36466 0
M  V30 1690 H 164.035 -2.70044 -1.38961 0
M  V30 1691 H 161.62 -1.35722 -0.624499 0
M  V30 1692 H 163.502 -1.96292 -3.72891 0
M  V30 1693 H 162.177 -0.949014 -3.09476 0
M  V30 1694 H 161.084 -3.06363 -2.14692 0
M  V30 1695 H 162.417 -4.01945 -2.84079 0
M  V30 1696 N 164.069 0.697108 -1.41344 0
M  V30 1697 C 165.299 1.48377 -1.43763 0
M  V30 1698 C 165.707 1.89156 -0.0408726 0
M  V30 1699 O 165.05 1.57239 0.949812 0
M  V30 1700 C 165.112 2.7781 -2.2817 0
M  V30 1701 C 164.776 2.59244 -3.76353 0
M  V30 1702 C 165.773 2.25292 -4.68551 0
M  V30 1703 C 163.458 2.74933 -4.20378 0
M  V30 1704 C 165.452 2.07264 -6.02761 0
M  V30 1705 C 163.139 2.56521 -5.54653 0
M  V30 1706 C 164.137 2.22737 -6.4566 0
M  V30 1707 O 163.825 2.04485 -7.77458 0
M  V30 1708 H 163.557 0.463842 -0.491759 0
M  V30 1709 H 166.111 0.865934 -1.86255 0
M  V30 1710 H 164.341 3.41995 -1.8049 0
M  V30 1711 H 166.03 3.39608 -2.22309 0
M  V30 1712 H 166.796 2.12787 -4.35829 0
M  V30 1713 H 162.675 3.00213 -3.49848 0
M  V30 1714 H 166.219 1.80817 -6.73759 0
M  V30 1715 H 162.116 2.68616 -5.86955 0
M  V30 1716 H 162.884 2.1926 -7.88586 0
M  V30 1717 N 165.547 1.27147 0.931209 0
M  V30 1718 C 166.775 1.16082 1.71267 0
M  V30 1719 C 167.19 -0.282772 1.8667 0
M  V30 1720 O 166.547 -1.19283 1.38122 0
M  V30 1721 C 166.598 1.8358 3.11417 0
M  V30 1722 O 166.319 3.22299 2.96741 0
M  V30 1723 C 167.82 1.78597 4.05732 0
M  V30 1724 H 165.04 0.403758 0.535929 0
M  V30 1725 H 167.584 1.67953 1.16671 0
M  V30 1726 H 165.739 1.35623 3.62885 0
M  V30 1727 H 166.153 3.55851 3.85319 0
M  V30 1728 H 167.627 2.30444 5.01597 0
M  V30 1729 H 168.104 0.754564 4.3267 0
M  V30 1730 H 168.71 2.26152 3.60188 0
M  V30 1731 N 167.025 -1.13721 1.09112 0
M  V30 1732 C 168.274 -1.84275 0.82009 0
M  V30 1733 C 168.587 -1.84253 -0.656509 0
M  V30 1734 O 169.793 -2.50668 -1.04296 0
M  V30 1735 C 168.249 -3.30825 1.41714 0
M  V30 1736 C 167.857 -3.39244 2.92605 0
M  V30 1737 C 169.601 -4.06443 1.22492 0
M  V30 1738 C 167.508 -4.80047 3.45411 0
M  V30 1739 H 166.438 -0.690387 0.30312 0
M  V30 1740 H 169.089 -1.28146 1.31343 0
M  V30 1741 H 167.471 -3.86737 0.851498 0
M  V30 1742 H 168.645 -2.93344 3.55367 0
M  V30 1743 H 166.96 -2.77088 3.10823 0
M  V30 1744 H 169.557 -5.10387 1.59402 0
M  V30 1745 H 169.9 -4.15972 0.165299 0
M  V30 1746 H 170.433 -3.56852 1.75788 0
M  V30 1747 H 167.172 -4.75709 4.50978 0
M  V30 1748 H 166.692 -5.26455 2.87411 0
M  V30 1749 H 168.371 -5.48957 3.42425 0
M  V30 1750 N 168.503 -0.877838 -1.30888 0
M  V30 1751 C 169.78 -0.413052 -1.91189 0
M  V30 1752 C 170.16 1.1056 -1.79832 0
M  V30 1753 O 169.508 1.93771 -1.21099 0
M  V30 1754 C 169.718 -0.903191 -3.3711 0
M  V30 1755 C 171.066 -0.93395 -4.14201 0
M  V30 1756 O 172.09 -0.849373 -3.45925 0
M  V30 1757 O 170.949 -1.05772 -5.36167 0
M  V30 1758 H 168.043 -0.125035 -0.817493 0
M  V30 1759 H 170.589 -0.966269 -1.39504 0
M  V30 1760 H 169.361 -1.94692 -3.39427 0
M  V30 1761 H 168.984 -0.328732 -3.96239 0
M  V30 1762 N 169.982 1.44106 -0.638065 0
M  V30 1763 C 171.228 2.02277 -0.145546 0
M  V30 1764 C 171.561 1.50125 1.23191 0
M  V30 1765 O 170.836 0.688133 1.8192 0
M  V30 1766 C 171.119 3.59829 -0.139791 0
M  V30 1767 C 170.972 4.22247 -1.55008 0
M  V30 1768 C 172.291 4.36873 0.531966 0
M  V30 1769 H 169.41 0.734992 -0.0543632 0
M  V30 1770 H 172.052 1.71592 -0.815863 0
M  V30 1771 H 170.202 3.86102 0.431007 0
M  V30 1772 H 171.874 4.07057 -2.1703 0
M  V30 1773 H 170.117 3.79476 -2.10191 0
M  V30 1774 H 170.788 5.31284 -1.49804 0
M  V30 1775 H 173.264 4.16074 0.0464781 0
M  V30 1776 H 172.14 5.4657 0.505206 0
M  V30 1777 H 172.401 4.11995 1.60352 0
M  V30 1778 N 171.46 0.379036 1.52974 0
M  V30 1779 C 172.707 -0.206421 2.01445 0
M  V30 1780 C 173.035 -1.47668 1.26587 0
M  V30 1781 O 172.29 -1.92514 0.351675 0
M  V30 1782 C 172.589 -0.53096 3.53434 0
M  V30 1783 C 172.255 0.646546 4.46241 0
M  V30 1784 C 170.917 0.969604 4.7133 0
M  V30 1785 C 173.269 1.43479 5.01062 0
M  V30 1786 C 170.597 2.08263 5.48492 0
M  V30 1787 C 172.949 2.53834 5.7944 0
M  V30 1788 C 171.613 2.86659 6.02812 0
M  V30 1789 H 170.883 -0.0755349 0.73714 0
M  V30 1790 H 173.53 0.514271 1.84465 0
M  V30 1791 H 171.835 -1.33285 3.68432 0
M  V30 1792 H 173.532 -0.996417 3.88423 0
M  V30 1793 H 170.122 0.384734 4.2687 0
M  V30 1794 H 174.306 1.19844 4.81613 0
M  V30 1795 H 169.562 2.34078 5.64816 0
M  V30 1796 H 173.736 3.15319 6.20924 0
M  V30 1797 H 171.363 3.73026 6.62387 0
M  V30 1798 N 172.938 -1.57226 0.108567 0
M  V30 1799 C 174.185 -1.94833 -0.551943 0
M  V30 1800 C 174.513 -0.991204 -1.67348 0
M  V30 1801 O 173.768 -0.0131878 -1.95696 0
M  V30 1802 C 174.067 -3.38911 -1.13463 0
M  V30 1803 C 173.733 -4.50696 -0.135509 0
M  V30 1804 C 172.395 -4.80998 0.139252 0
M  V30 1805 C 174.747 -5.18333 0.545957 0
M  V30 1806 C 172.075 -5.76259 1.10194 0
M  V30 1807 C 174.427 -6.14627 1.49721 0
M  V30 1808 C 173.091 -6.43327 1.78006 0
M  V30 1809 H 172.361 -0.712944 -0.20197 0
M  V30 1810 H 175.008 -1.90582 0.18726 0
M  V30 1811 H 173.313 -3.39805 -1.95037 0
M  V30 1812 H 175.01 -3.65317 -1.65362 0
M  V30 1813 H 171.6 -4.27087 -0.359846 0
M  V30 1814 H 175.784 -4.95087 0.346842 0
M  V30 1815 H 171.04 -5.96804 1.32795 0
M  V30 1816 H 175.214 -6.66126 2.03099 0
M  V30 1817 H 172.841 -7.1695 2.52759 0
M  V30 1818 N 174.416 0.165178 -1.56732 0
M  V30 1819 C 175.832 0.517174 -1.50988 0
M  V30 1820 C 176.032 1.84331 -0.813894 0
M  V30 1821 O 175.088 2.49672 -0.37682 0
M  V30 1822 C 176.401 0.544261 -2.95733 0
M  V30 1823 C 177.949 0.631039 -3.06573 0
M  V30 1824 C 178.424 0.68896 -4.52788 0
M  V30 1825 N 179.915 0.751683 -4.5706 0
M  V30 1826 C 180.65 0.817177 -5.67547 0
M  V30 1827 N 180.146 0.843129 -6.8765 0
M  V30 1828 N 181.939 0.856668 -5.55534 0
M  V30 1829 H 174.09 -0.704318 -2.00382 0
M  V30 1830 H 176.353 -0.254687 -0.913148 0
M  V30 1831 H 176.059 -0.361607 -3.49836 0
M  V30 1832 H 175.933 1.3886 -3.5071 0
M  V30 1833 H 178.32 1.52733 -2.52501 0
M  V30 1834 H 178.401 -0.240095 -2.54671 0
M  V30 1835 H 178.045 -0.2031 -5.07494 0
M  V30 1836 H 177.975 1.57633 -5.02454 0
M  V30 1837 H 180.466 0.739661 -3.70591 0
M  V30 1838 H 180.779 0.894448 -7.67606 0
M  V30 1839 H 179.124 0.811304 -6.90248 0
M  V30 1840 H 182.315 0.833437 -4.60621 0
M  V30 1841 H 182.488 0.904247 -6.4166 0
M  V30 1842 N 175.894 1.51508 0.433938 0
M  V30 1843 C 176.826 1.69266 1.54537 0
M  V30 1844 C 177.839 0.573276 1.52373 0
M  V30 1845 O 179.028 0.847698 1.57087 0
M  V30 1846 C 176.128 1.69524 2.93453 0
M  V30 1847 C 175.301 2.98101 3.20085 0
M  V30 1848 C 174.36 2.90502 4.38742 0
M  V30 1849 O 173.386 3.64442 4.3723 0
M  V30 1850 N 174.588 2.06586 5.42496 0
M  V30 1851 H 177.353 2.65145 1.39708 0
M  V30 1852 H 174.914 1.49437 0.622922 0
M  V30 1853 H 176.906 1.62004 3.70859 0
M  V30 1854 H 175.476 0.812245 3.01863 0
M  V30 1855 H 174.696 3.19464 2.30947 0
M  V30 1856 H 175.984 3.83207 3.34708 0
M  V30 1857 H 175.382 1.45896 5.46563 0
M  V30 1858 H 173.939 2.04943 6.18742 0
M  V30 1859 N 177.372 -0.689602 1.41712 0
M  V30 1860 C 178.6 -1.47827 1.44758 0
M  V30 1861 C 179.015 -1.88721 0.0545703 0
M  V30 1862 O 178.372 -1.57176 -0.927463 0
M  V30 1863 C 178.423 -2.73698 2.3616 0
M  V30 1864 O 178.144 -2.34524 3.7004 0
M  V30 1865 C 179.645 -3.67389 2.48072 0
M  V30 1866 H 176.865 -0.455357 0.49284 0
M  V30 1867 H 179.409 -0.848574 1.86063 0
M  V30 1868 H 177.564 -3.32891 1.98148 0
M  V30 1869 H 177.978 -3.15701 4.18847 0
M  V30 1870 H 179.452 -4.52475 3.16181 0
M  V30 1871 H 179.929 -4.12284 1.51388 0
M  V30 1872 H 180.535 -3.14097 2.86746 0
M  V30 1873 N 178.85 -1.27639 -0.924453 0
M  V30 1874 C 180.096 -1.15345 -1.67532 0
M  V30 1875 C 180.451 0.297096 -1.90092 0
M  V30 1876 O 179.744 1.21374 -1.48253 0
M  V30 1877 C 179.938 -1.87407 -3.04325 0
M  V30 1878 C 179.767 -3.3932 -2.95114 0
M  V30 1879 C 178.537 -4.08644 -2.97218 0
M  V30 1880 C 180.735 -4.35242 -2.73987 0
M  V30 1881 N 178.717 -5.47102 -2.78482 0
M  V30 1882 C 180.088 -5.6099 -2.63988 0
M  V30 1883 C 182.143 -4.25294 -2.589 0
M  V30 1884 C 180.846 -6.77924 -2.40442 0
M  V30 1885 C 182.872 -5.41952 -2.36731 0
M  V30 1886 C 182.234 -6.66658 -2.27478 0
M  V30 1887 H 178.333 -0.47696 -0.619704 0
M  V30 1888 H 180.917 -1.6115 -1.09265 0
M  V30 1889 H 179.088 -1.44053 -3.60699 0
M  V30 1890 H 180.82 -1.6759 -3.68369 0
M  V30 1891 H 177.575 -3.60136 -3.07569 0
M  V30 1892 H 177.999 -6.19852 -2.72236 0
M  V30 1893 H 182.641 -3.29598 -2.64811 0
M  V30 1894 H 180.359 -7.73699 -2.3327 0
M  V30 1895 H 183.945 -5.36137 -2.25938 0
M  V30 1896 H 182.825 -7.55405 -2.10555 0
M  V30 1897 N 180.328 1.1314 -1.09713 0
M  V30 1898 C 181.278 2.16709 -0.708593 0
M  V30 1899 C 182.262 1.58471 0.278523 0
M  V30 1900 O 183.454 1.76779 0.088427 0
M  V30 1901 C 180.583 3.43039 -0.133923 0
M  V30 1902 C 179.669 4.08277 -1.14763 0
M  V30 1903 N 180.06 4.48637 -2.33577 0
M  V30 1904 C 178.358 4.34954 -0.986446 0
M  V30 1905 C 179.059 4.9952 -2.98085 0
M  V30 1906 N 178.035 4.94561 -2.25632 0
M  V30 1907 H 181.837 2.45672 -1.61315 0
M  V30 1908 H 179.351 1.29967 -0.973775 0
M  V30 1909 H 181.348 4.16583 0.162465 0
M  V30 1910 H 180.008 3.15549 0.765447 0
M  V30 1911 H 181.019 4.41246 -2.7115 0
M  V30 1912 H 177.696 4.17258 -0.142008 0
M  V30 1913 H 179.086 5.40521 -3.99108 0
M  V30 1914 N 181.806 0.884767 1.30421 0
M  V30 1915 C 183.083 0.423185 1.90967 0
M  V30 1916 C 183.463 -1.09605 1.80416 0
M  V30 1917 O 182.811 -1.93126 1.22125 0
M  V30 1918 C 183.021 0.921056 3.36627 0
M  V30 1919 C 184.369 0.955903 4.137 0
M  V30 1920 O 185.393 0.867706 3.4547 0
M  V30 1921 O 184.252 1.08614 5.35598 0
M  V30 1922 H 181.346 0.129369 0.816819 0
M  V30 1923 H 183.892 0.973653 1.3899 0
M  V30 1924 H 182.664 1.96489 3.3839 0
M  V30 1925 H 182.287 0.349741 3.96059 0
M  V30 1926 N 183.284 -1.43765 0.645699 0
M  V30 1927 C 184.194 -2.34544 -0.0512957 0
M  V30 1928 C 185.21 -1.53455 -0.82022 0
M  V30 1929 O 186.386 -1.86133 -0.769176 0
M  V30 1930 C 183.451 -3.31636 -1.01087 0
M  V30 1931 C 182.512 -4.2863 -0.239712 0
M  V30 1932 C 181.745 -5.21084 -1.15358 0
M  V30 1933 O 181.968 -5.1779 -2.39269 0
M  V30 1934 O 180.902 -5.98593 -0.630038 0
M  V30 1935 H 184.728 -2.95624 0.695718 0
M  V30 1936 H 182.313 -1.43781 0.405882 0
M  V30 1937 H 184.195 -3.9136 -1.56254 0
M  V30 1938 H 182.87 -2.73069 -1.73824 0
M  V30 1939 H 181.777 -3.72408 0.355356 0
M  V30 1940 H 183.11 -4.90157 0.447936 0
M  V30 1941 N 184.763 -0.387143 -1.52771 0
M  V30 1942 C 186.179 -0.037007 -1.59557 0
M  V30 1943 C 186.379 1.44801 -1.40124 0
M  V30 1944 O 185.435 2.21227 -1.21716 0
M  V30 1945 C 186.748 -0.512256 -2.96305 0
M  V30 1946 C 188.296 -0.468328 -3.09476 0
M  V30 1947 C 188.771 -0.919731 -4.4867 0
M  V30 1948 N 190.262 -0.875656 -4.54848 0
M  V30 1949 C 190.997 -1.19637 -5.6078 0
M  V30 1950 N 190.493 -1.58745 -6.74368 0
M  V30 1951 N 192.286 -1.11776 -5.50874 0
M  V30 1952 H 184.437 -1.35395 -1.63652 0
M  V30 1953 H 186.7 -0.554818 -0.768688 0
M  V30 1954 H 186.406 -1.54935 -3.15734 0
M  V30 1955 H 186.28 0.089805 -3.77093 0
M  V30 1956 H 188.667 0.559671 -2.89744 0
M  V30 1957 H 188.748 -1.10616 -2.30646 0
M  V30 1958 H 188.392 -1.94595 -4.69143 0
M  V30 1959 H 188.322 -0.258927 -5.25963 0
M  V30 1960 H 190.813 -0.587843 -3.733 0
M  V30 1961 H 191.126 -1.81586 -7.51163 0
M  V30 1962 H 189.471 -1.6263 -6.75705 0
M  V30 1963 H 192.662 -0.811264 -4.61016 0
M  V30 1964 H 192.835 -1.37103 -6.3333 0
M  V30 1965 N 186.241 1.57166 -0.116904 0
M  V30 1966 C 187.171 2.18222 0.830759 0
M  V30 1967 C 188.152 1.12167 1.27877 0
M  V30 1968 O 189.337 1.40394 1.34176 0
M  V30 1969 C 186.467 2.77996 2.08172 0
M  V30 1970 C 185.421 3.89614 1.77157 0
M  V30 1971 C 184.747 4.36187 3.09265 0
M  V30 1972 C 186.047 5.1181 1.04151 0
M  V30 1973 H 187.741 2.97664 0.321992 0
M  V30 1974 H 185.287 1.4318 0.153434 0
M  V30 1975 H 187.24 3.19366 2.74924 0
M  V30 1976 H 185.964 1.9584 2.6137 0
M  V30 1977 H 184.623 3.48816 1.12796 0
M  V30 1978 H 184.271 3.50893 3.60393 0
M  V30 1979 H 183.971 5.11455 2.89288 0
M  V30 1980 H 185.495 4.80207 3.77139 0
M  V30 1981 H 186.909 5.50214 1.61052 0
M  V30 1982 H 185.306 5.92648 0.942762 0
M  V30 1983 H 186.376 4.84892 0.0279022 0
M  V30 1984 N 187.719 -0.156864 1.56817 0
M  V30 1985 C 188.666 -1.19394 1.97519 0
M  V30 1986 C 189.636 -1.4322 0.841265 0
M  V30 1987 O 190.821 -1.55719 1.10255 0
M  V30 1988 C 187.961 -2.52483 2.35258 0
M  V30 1989 C 187.074 -2.35914 3.61896 0
M  V30 1990 C 186.209 -3.61969 3.88782 0
M  V30 1991 C 185.248 -3.40395 5.08722 0
M  V30 1992 N 184.385 -4.58556 5.31668 0
M  V30 1993 H 189.225 -0.839845 2.85921 0
M  V30 1994 H 186.762 -0.403264 1.41464 0
M  V30 1995 H 188.72 -3.30071 2.55165 0
M  V30 1996 H 187.35 -2.85859 1.49949 0
M  V30 1997 H 186.402 -1.49429 3.49821 0
M  V30 1998 H 187.714 -2.15926 4.49641 0
M  V30 1999 H 186.868 -4.47989 4.09135 0
M  V30 2000 H 185.607 -3.84951 2.9944 0
M  V30 2001 H 184.612 -2.52763 4.88253 0
M  V30 2002 H 185.837 -3.18822 5.99608 0
M  V30 2003 H 183.783 -4.81729 4.45279 0
M  V30 2004 H 183.7 -4.41535 6.13664 0
M  V30 2005 H 184.968 -5.45817 5.5651 0
M  V30 2006 N 189.197 -1.51736 -0.425897 0
M  V30 2007 C 190.444 -1.6497 -1.17436 0
M  V30 2008 C 190.772 -0.371445 -1.9092 0
M  V30 2009 O 190.027 0.644963 -1.84767 0
M  V30 2010 C 190.326 -2.81103 -2.20717 0
M  V30 2011 C 189.992 -4.19954 -1.64162 0
M  V30 2012 C 188.654 -4.57725 -1.48462 0
M  V30 2013 C 191.006 -5.06552 -1.22696 0
M  V30 2014 C 188.334 -5.79789 -0.897873 0
M  V30 2015 C 190.686 -6.29205 -0.654464 0
M  V30 2016 C 189.35 -6.6574 -0.484456 0
M  V30 2017 H 188.62 -0.603668 -0.429727 0
M  V30 2018 H 191.267 -1.85798 -0.463829 0
M  V30 2019 H 189.572 -2.54542 -2.97852 0
M  V30 2020 H 191.269 -2.8854 -2.78471 0
M  V30 2021 H 187.859 -3.90181 -1.77361 0
M  V30 2022 H 192.043 -4.77968 -1.33642 0
M  V30 2023 H 187.299 -6.06733 -0.75402 0
M  V30 2024 H 191.473 -6.95643 -0.324694 0
M  V30 2025 H 189.1 -7.60195 -0.0276833 0
M  V30 2026 N 190.675 0.682077 -1.42076 0
M  V30 2027 C 191.952 1.43755 -1.32642 0
M  V30 2028 C 192.332 2.11063 0.0396611 0
M  V30 2029 O 191.68 2.02701 1.05474 0
M  V30 2030 C 191.89 2.44596 -2.48946 0
M  V30 2031 C 193.238 3.09454 -2.9073 0
M  V30 2032 O 194.262 2.54922 -2.48783 0
M  V30 2033 O 193.121 4.08253 -3.63307 0
M  V30 2034 H 190.215 0.640857 -0.522715 0
M  V30 2035 H 192.761 0.711415 -1.54068 0
M  V30 2036 H 191.533 1.93609 -3.40046 0
M  V30 2037 H 191.156 3.24701 -2.29467 0
M  V30 2038 N 192.153 1.28127 0.917671 0
M  V30 2039 C 193.401 1.14825 1.66312 0
M  V30 2040 C 193.722 -0.304379 1.9261 0
M  V30 2041 O 192.992 -1.21149 1.53947 0
M  V30 2042 H 191.572 0.421953 0.616413 0
M  V30 2043 H 194.234 1.608 1.10134 0
M  V30 2044 H 193.33 1.68489 2.62712 0
M  V30 2045 N 193.631 -1.12557 1.10312 0
M  V30 2046 C 195.042 -1.65574 0.862678 0
M  V30 2047 C 195.393 -1.86566 -0.607256 0
M  V30 2048 O 194.518 -1.59121 -1.46662 0
M  V30 2049 C 195.113 -3.00776 1.55947 0
M  V30 2050 C 193.672 -3.50748 1.36576 0
M  V30 2051 C 192.819 -2.25797 1.60968 0
M  V30 2052 H 195.77 -0.963552 1.26101 0
M  V30 2053 H 195.791 -3.67185 0.997753 0
M  V30 2054 H 195.303 -2.85465 2.62928 0
M  V30 2055 H 193.404 -3.71245 0.317531 0
M  V30 2056 H 193.517 -4.30289 2.10686 0
M  V30 2057 H 191.881 -2.32841 1.03234 0
M  V30 2058 H 192.664 -2.13043 2.69198 0
M  V30 2059 N 195.109 -0.891671 -1.2995 0
M  V30 2060 C 196.042 -0.307994 -2.26112 0
M  V30 2061 C 197.02 0.575262 -1.52084 0
M  V30 2062 O 198.204 0.523864 -1.81074 0
M  V30 2063 C 195.331 0.561734 -3.34009 0
M  V30 2064 C 194.377 -0.253107 -4.25748 0
M  V30 2065 S 195.21 -1.64572 -5.09584 0
M  V30 2066 C 196.366 -0.782699 -6.20987 0
M  V30 2067 H 196.599 -1.12309 -2.75271 0
M  V30 2068 H 194.132 -0.691509 -1.38049 0
M  V30 2069 H 196.09 1.05777 -3.96638 0
M  V30 2070 H 194.751 1.35099 -2.83561 0
M  V30 2071 H 193.944 0.410908 -5.02322 0
M  V30 2072 H 193.546 -0.682004 -3.67729 0
M  V30 2073 H 195.838 -0.00257476 -6.775 0
M  V30 2074 H 196.781 -1.52026 -6.91588 0
M  V30 2075 H 197.189 -0.340638 -5.63471 0
M  V30 2076 N 196.587 1.43421 -0.653314 0
M  V30 2077 C 197.534 2.30768 0.0382271 0
M  V30 2078 C 198.504 1.44755 0.814576 0
M  V30 2079 O 199.689 1.73624 0.791162 0
M  V30 2080 C 196.829 3.30336 0.998599 0
M  V30 2081 C 195.942 4.31448 0.218342 0
M  V30 2082 C 195.077 5.18098 1.17252 0
M  V30 2083 C 194.116 6.10902 0.382702 0
M  V30 2084 N 193.253 6.90176 1.28848 0
M  V30 2085 H 198.093 2.89357 -0.712511 0
M  V30 2086 H 195.63 1.42548 -0.363128 0
M  V30 2087 H 197.588 3.86572 1.56901 0
M  V30 2088 H 196.218 2.73397 1.71621 0
M  V30 2089 H 195.27 3.77506 -0.46836 0
M  V30 2090 H 196.582 4.97227 -0.395812 0
M  V30 2091 H 195.736 5.7896 1.81356 0
M  V30 2092 H 194.475 4.52444 1.82058 0
M  V30 2093 H 193.48 5.49128 -0.27169 0
M  V30 2094 H 194.705 6.78598 -0.260957 0
M  V30 2095 H 192.651 6.27171 1.92334 0
M  V30 2096 H 192.568 7.52478 0.728887 0
M  V30 2097 H 193.836 7.55543 1.91766 0
M  V30 2098 N 198.065 0.39524 1.52563 0
M  V30 2099 C 199.314 -0.186321 2.00838 0
M  V30 2100 C 199.627 -1.47402 1.28577 0
M  V30 2101 O 200.833 -2.13599 1.67593 0
M  V30 2102 C 199.289 -0.382595 3.57861 0
M  V30 2103 C 198.897 0.892202 4.39026 0
M  V30 2104 C 200.641 -0.9202 4.14406 0
M  V30 2105 C 198.548 0.66388 5.87662 0
M  V30 2106 H 197.478 -0.0734041 0.750418 0
M  V30 2107 H 200.129 0.518552 1.76021 0
M  V30 2108 H 198.511 -1.14946 3.7895 0
M  V30 2109 H 199.685 1.66414 4.29701 0
M  V30 2110 H 198 1.35519 3.9373 0
M  V30 2111 H 200.597 -1.10683 5.23119 0
M  V30 2112 H 200.94 -1.89096 3.70875 0
M  V30 2113 H 201.473 -0.212751 3.97231 0
M  V30 2114 H 198.212 1.6058 6.35527 0
M  V30 2115 H 197.732 -0.0690193 5.9976 0
M  V30 2116 H 199.411 0.300699 6.46301 0
M  V30 2117 N 199.544 -1.57102 0.125237 0
M  V30 2118 C 200.474 -2.18659 -0.819174 0
M  V30 2119 C 201.455 -1.12843 -1.27281 0
M  V30 2120 O 202.64 -1.41104 -1.33429 0
M  V30 2121 C 199.77 -2.79096 -2.06695 0
M  V30 2122 C 198.724 -3.90548 -1.75088 0
M  V30 2123 C 198.05 -4.37821 -3.06948 0
M  V30 2124 C 199.35 -5.12356 -1.01435 0
M  V30 2125 H 201.044 -2.9783 -0.306202 0
M  V30 2126 H 198.59 -1.4326 -0.145839 0
M  V30 2127 H 200.543 -3.2082 -2.73226 0
M  V30 2128 H 199.267 -1.97223 -2.60328 0
M  V30 2129 H 197.926 -3.49409 -1.10944 0
M  V30 2130 H 197.574 -3.52799 -3.58527 0
M  V30 2131 H 197.274 -5.12982 -2.86571 0
M  V30 2132 H 198.798 -4.822 -3.74587 0
M  V30 2133 H 200.212 -5.5106 -1.58132 0
M  V30 2134 H 198.609 -5.9314 -0.911319 0
M  V30 2135 H 199.679 -4.849 -0.00218681 0
M  V30 2136 N 201.022 0.148545 -1.56898 0
M  V30 2137 C 202.433 0.708766 -1.72723 0
M  V30 2138 C 202.784 1.81734 -0.739395 0
M  V30 2139 O 201.909 2.16194 0.0943169 0
M  V30 2140 C 202.504 1.29245 -3.13179 0
M  V30 2141 C 201.063 1.79925 -3.30611 0
M  V30 2142 C 200.21 0.687111 -2.68652 0
M  V30 2143 H 203.161 -0.0771063 -1.58513 0
M  V30 2144 H 203.182 2.16224 -3.13093 0
M  V30 2145 H 202.694 0.485382 -3.85053 0
M  V30 2146 H 200.795 2.63203 -2.63732 0
M  V30 2147 H 200.908 1.92903 -4.38549 0
M  V30 2148 H 199.272 1.11335 -2.29078 0
M  V30 2149 H 200.055 -0.108483 -3.43129 0
M  V30 2150 N 202.5 1.5196 0.417844 0
M  V30 2151 C 203.43 1.77634 1.51554 0
M  V30 2152 C 204.411 0.626918 1.58126 0
M  V30 2153 O 205.596 0.871632 1.7354 0
M  V30 2154 C 202.726 1.91911 2.8946 0
M  V30 2155 C 201.68 3.07463 2.97743 0
M  V30 2156 C 201.006 3.06951 4.37819 0
M  V30 2157 C 202.306 4.47082 2.70027 0
M  V30 2158 H 204 2.6955 1.3032 0
M  V30 2159 H 201.546 1.29706 0.625492 0
M  V30 2160 H 203.499 2.08455 3.6623 0
M  V30 2161 H 202.223 0.966598 3.11969 0
M  V30 2162 H 200.882 2.90656 2.23416 0
M  V30 2163 H 200.53 2.09438 4.57323 0
M  V30 2164 H 200.23 3.84556 4.44286 0
M  V30 2165 H 201.754 3.25613 5.16535 0
M  V30 2166 H 203.168 4.6414 3.36522 0
M  V30 2167 H 201.565 5.2654 2.87881 0
M  V30 2168 H 202.635 4.55777 1.65514 0
M  V30 2169 N 203.978 -0.674533 1.42435 0
M  V30 2170 C 204.926 -1.80934 1.46169 0
M  V30 2171 C 205.92 -1.66006 0.3374 0
M  V30 2172 O 207.126 -1.72611 0.510425 0
M  V30 2173 H 203.501 -0.596594 0.457798 0
M  V30 2174 H 205.472 -1.74903 2.41767 0
M  V30 2175 C 204.221 -3.19088 1.38123 0
M  V30 2176 H 203.544 -3.31203 2.23931 0
M  V30 2177 H 204.984 -3.9851 1.44797 0
M  V30 2178 C 203.443 -3.36763 0.0960517 0
M  V30 2179 O 203.973 -3.92581 -0.851073 0
M  V30 2180 N 202.179 -2.90597 0.0131186 0
M  V30 2181 H 201.726 -2.45359 0.784639 0
M  V30 2182 H 201.684 -3.028 -0.846133 0
M  V30 2183 N 205.456 -1.28612 -0.910864 0
M  V30 2184 C 206.404 -1.1265 -2.03501 0
M  V30 2185 C 207.398 -0.0450054 -1.6934 0
M  V30 2186 O 208.604 -0.203988 -1.7884 0
M  V30 2187 H 204.979 -0.347639 -0.666822 0
M  V30 2188 H 206.95 -2.07849 -2.14106 0
M  V30 2189 C 205.699 -0.808143 -3.38178 0
M  V30 2190 H 205.022 -1.63231 -3.6496 0
M  V30 2191 H 206.462 -0.736426 -4.17556 0
M  V30 2192 C 204.921 0.488226 -3.33344 0
M  V30 2193 O 205.451 1.51766 -3.71927 0
M  V30 2194 N 203.657 0.490009 -2.86439 0
M  V30 2195 H 203.204 -0.348161 -2.55236 0
M  V30 2196 H 203.162 1.35741 -2.83587 0
M  V30 2197 N 206.934 1.1197 -1.10907 0
M  V30 2198 C 207.864 2.19928 -0.784473 0
M  V30 2199 C 208.845 1.6833 0.244726 0
M  V30 2200 O 210.03 1.93892 0.109418 0
M  V30 2201 C 207.16 3.46597 -0.220827 0
M  V30 2202 C 206.114 4.11376 -1.18127 0
M  V30 2203 C 205.44 5.32554 -0.478594 0
M  V30 2204 C 206.74 4.56945 -2.52979 0
M  V30 2205 H 208.434 2.47337 -1.68715 0
M  V30 2206 H 205.98 1.18879 -0.812642 0
M  V30 2207 H 207.933 4.21396 0.0184278 0
M  V30 2208 H 206.657 3.1863 0.717113 0
M  V30 2209 H 205.316 3.38564 -1.40606 0
M  V30 2210 H 204.964 5.00856 0.463976 0
M  V30 2211 H 204.664 5.76844 -1.11912 0
M  V30 2212 H 206.188 6.10096 -0.248 0
M  V30 2213 H 207.602 5.23093 -2.3462 0
M  V30 2214 H 205.999 5.1203 -3.12962 0
M  V30 2215 H 207.069 3.70676 -3.12614 0
M  V30 2216 N 208.412 0.89855 1.29475 0
M  V30 2217 C 209.342 0.39201 2.30186 0
M  V30 2218 C 210.323 -0.532359 1.61555 0
M  V30 2219 O 211.508 -0.443331 1.89072 0
M  V30 2220 C 208.638 -0.382353 3.45189 0
M  V30 2221 C 207.592 0.451483 4.25612 0
M  V30 2222 C 206.918 -0.450307 5.328 0
M  V30 2223 C 208.218 1.70079 4.93832 0
M  V30 2224 H 209.912 1.23362 2.72804 0
M  V30 2225 H 207.458 0.594638 1.31149 0
M  V30 2226 H 209.411 -0.747451 4.14718 0
M  V30 2227 H 208.135 -1.25774 3.01411 0
M  V30 2228 H 206.794 0.798897 3.57789 0
M  V30 2229 H 206.442 -1.32379 4.85268 0
M  V30 2230 H 206.142 0.103902 5.87508 0
M  V30 2231 H 207.666 -0.811623 6.05182 0
M  V30 2232 H 209.08 1.40549 5.55805 0
M  V30 2233 H 207.477 2.19623 5.58467 0
M  V30 2234 H 208.547 2.43744 4.19186 0
M  V30 2235 N 209.89 -1.43072 0.660911 0
M  V30 2236 C 210.853 -2.29194 -0.0166406 0
M  V30 2237 C 211.853 -1.42609 -0.742912 0
M  V30 2238 O 213.043 -1.64155 -0.583004 0
M  V30 2239 C 210.175 -3.24831 -1.0343 0
M  V30 2240 H 211.368 -2.90596 0.741208 0
M  V30 2241 H 208.921 -1.5048 0.422532 0
M  V30 2242 H 209.656 -2.68339 -1.82111 0
M  V30 2243 H 209.441 -3.88676 -0.517082 0
M  V30 2244 H 210.931 -3.89451 -1.50723 0
M  V30 2245 N 211.368 -0.403325 -1.52352 0
M  V30 2246 C 212.593 0.176499 -2.06648 0
M  V30 2247 C 213.018 1.38577 -1.27193 0
M  V30 2248 O 212.376 1.7879 -0.300637 0
M  V30 2249 C 212.424 0.511061 -3.5696 0
M  V30 2250 O 211.528 1.60294 -3.79973 0
M  V30 2251 H 210.869 0.0167337 -0.663789 0
M  V30 2252 H 213.399 -0.574848 -1.96359 0
M  V30 2253 H 213.409 0.771362 -4.00642 0
M  V30 2254 H 212.084 -0.37296 -4.14224 0
M  V30 2255 H 210.661 1.33526 -3.48174 0
M  V30 2256 N 212.846 1.57033 -0.133567 0
M  V30 2257 C 213.793 2.16074 0.811208 0
M  V30 2258 C 214.763 1.08979 1.2535 0
M  V30 2259 O 215.948 1.36958 1.32843 0
M  V30 2260 C 213.088 2.77595 2.05024 0
M  V30 2261 C 212.201 3.99042 1.65498 0
M  V30 2262 C 211.336 4.48603 2.84479 0
M  V30 2263 C 210.375 5.62547 2.41262 0
M  V30 2264 N 209.512 6.06787 3.53206 0
M  V30 2265 H 214.352 2.96477 0.300906 0
M  V30 2266 H 211.889 1.46462 0.136822 0
M  V30 2267 H 213.847 3.11402 2.77642 0
M  V30 2268 H 212.477 1.99859 2.53488 0
M  V30 2269 H 211.529 3.71302 0.826981 0
M  V30 2270 H 212.841 4.81629 1.29748 0
M  V30 2271 H 211.995 4.84395 3.65303 0
M  V30 2272 H 210.734 3.64995 3.23465 0
M  V30 2273 H 209.739 5.26345 1.58874 0
M  V30 2274 H 210.964 6.47931 2.03377 0
M  V30 2275 H 208.91 5.26117 3.91838 0
M  V30 2276 H 208.827 6.84266 3.21427 0
M  V30 2277 H 210.095 6.4722 4.34427 0
M  V30 2278 N 214.325 -0.140222 1.56975 0
M  V30 2279 C 215.574 -0.850152 1.82908 0
M  V30 2280 C 215.887 -1.82028 0.715892 0
M  V30 2281 O 217.093 -2.57485 0.861016 0
M  V30 2282 C 215.549 -1.5625 3.24213 0
M  V30 2283 C 215.157 -0.63443 4.43485 0
M  V30 2284 C 216.901 -2.25881 3.59413 0
M  V30 2285 C 214.808 -1.34879 5.75814 0
M  V30 2286 H 213.738 -0.321221 0.682153 0
M  V30 2287 H 216.389 -0.102874 1.83211 0
M  V30 2288 H 214.771 -2.35565 3.18316 0
M  V30 2289 H 215.945 0.12398 4.60633 0
M  V30 2290 H 214.26 -0.0461836 4.16374 0
M  V30 2291 H 216.857 -2.79978 4.5554 0
M  V30 2292 H 217.2 -3.02693 2.85802 0
M  V30 2293 H 217.733 -1.53477 3.67001 0
M  V30 2294 H 214.472 -0.622385 6.52539 0
M  V30 2295 H 213.992 -2.07974 5.6259 0
M  V30 2296 H 215.671 -1.88784 6.18845 0
M  V30 2297 N 215.803 -1.52179 -0.40978 0
M  V30 2298 C 217.049 -1.67408 -1.15525 0
M  V30 2299 C 217.404 -0.398746 -1.88223 0
M  V30 2300 O 216.697 0.60678 -1.81738 0
M  V30 2301 C 216.891 -2.83428 -2.17723 0
M  V30 2302 C 216.72 -4.22121 -1.55061 0
M  V30 2303 C 215.49 -4.87657 -1.3236 0
M  V30 2304 C 217.688 -5.04248 -1.01185 0
M  V30 2305 N 215.67 -6.10387 -0.655834 0
M  V30 2306 C 217.041 -6.18209 -0.470963 0
M  V30 2307 C 219.096 -4.89583 -0.906252 0
M  V30 2308 C 217.799 -7.1911 0.165172 0
M  V30 2309 C 219.825 -5.90718 -0.28397 0
M  V30 2310 C 219.187 -7.03969 0.246243 0
M  V30 2311 H 215.286 -0.666251 -0.409431 0
M  V30 2312 H 217.87 -1.89482 -0.447729 0
M  V30 2313 H 216.041 -2.6297 -2.85834 0
M  V30 2314 H 217.773 -2.87697 -2.84627 0
M  V30 2315 H 214.528 -4.46007 -1.59294 0
M  V30 2316 H 214.952 -6.76153 -0.338596 0
M  V30 2317 H 219.594 -4.02253 -1.302 0
M  V30 2318 H 217.312 -8.06066 0.572986 0
M  V30 2319 H 220.898 -5.81443 -0.203792 0
M  V30 2320 H 219.778 -7.80886 0.720173 0
M  V30 2321 N 217.281 0.66697 -1.42791 0
M  V30 2322 C 218.509 1.45505 -1.47091 0
M  V30 2323 C 218.924 1.8861 -0.0845873 0
M  V30 2324 O 218.281 1.58632 0.90234 0
M  V30 2325 C 218.332 2.69906 -2.40485 0
M  V30 2326 O 218.053 2.28608 -3.73725 0
M  V30 2327 C 219.554 3.63396 -2.53886 0
M  V30 2328 H 216.774 0.447459 -0.500022 0
M  V30 2329 H 219.318 0.818866 -1.8739 0
M  V30 2330 H 217.473 3.29696 -2.03419 0
M  V30 2331 H 217.887 3.08997 -4.23817 0
M  V30 2332 H 219.361 4.47387 -3.2334 0
M  V30 2333 H 219.838 4.09824 -1.57927 0
M  V30 2334 H 220.444 3.09495 -2.91706 0
M  V30 2335 N 218.759 1.29093 0.90403 0
M  V30 2336 C 220.17 1.15186 1.46932 0
M  V30 2337 C 220.521 -0.254587 1.94541 0
M  V30 2338 O 219.646 -1.14972 1.83332 0
M  V30 2339 C 220.241 2.08492 2.67051 0
M  V30 2340 C 218.8 1.98621 3.19729 0
M  V30 2341 C 217.947 1.9967 1.92425 0
M  V30 2342 H 220.898 1.41641 0.715789 0
M  V30 2343 H 220.919 1.65461 3.42641 0
M  V30 2344 H 220.431 3.10847 2.3237 0
M  V30 2345 H 218.532 0.993389 3.59114 0
M  V30 2346 H 218.645 2.86068 3.8432 0
M  V30 2347 H 217.009 1.44208 2.09943 0
M  V30 2348 H 217.792 3.03721 1.60026 0
M  V30 2349 N 220.237 -1.11381 1.11499 0
M  V30 2350 C 221.514 -1.7955 0.775965 0
M  V30 2351 C 221.894 -1.97859 -0.73588 0
M  V30 2352 O 221.242 -1.56376 -1.66609 0
M  V30 2353 C 221.452 -3.13196 1.53977 0
M  V30 2354 C 222.8 -3.88227 1.71944 0
M  V30 2355 O 223.824 -3.22887 1.50407 0
M  V30 2356 O 222.683 -5.05477 2.07738 0
M  V30 2357 H 219.777 -0.777728 0.28119 0
M  V30 2358 H 222.323 -1.18118 1.21845 0
M  V30 2359 H 221.095 -2.95229 2.56818 0
M  V30 2360 H 220.718 -3.82342 1.09088 0
M  V30 2361 N 221.715 -0.905404 -1.28997 0
M  V30 2362 C 222.943 -0.549846 -1.9946 0
M  V30 2363 C 223.358 0.866834 -1.67724 0
M  V30 2364 O 222.715 1.57298 -0.925404 0
M  V30 2365 C 222.766 -0.739387 -3.53858 0
M  V30 2366 O 222.487 -2.10031 -3.84472 0
M  V30 2367 C 223.988 -0.389541 -4.41585 0
M  V30 2368 H 221.208 -0.210429 -0.637151 0
M  V30 2369 H 223.752 -1.21632 -1.64396 0
M  V30 2370 H 221.907 -0.120023 -3.87214 0
M  V30 2371 H 222.321 -2.13385 -4.79132 0
M  V30 2372 H 223.795 -0.572972 -5.49018 0
M  V30 2373 H 224.272 0.673756 -4.34001 0
M  V30 2374 H 224.878 -0.986089 -4.1371 0
M  V30 2375 N 223.193 1.4272 -0.668489 0
M  V30 2376 C 224.44 2.01624 -0.18814 0
M  V30 2377 C 224.768 1.5282 1.20317 0
M  V30 2378 O 224.023 0.718323 1.8204 0
M  V30 2379 C 224.322 3.57021 -0.164499 0
M  V30 2380 C 223.988 4.25232 -1.49962 0
M  V30 2381 C 222.65 4.4358 -1.8652 0
M  V30 2382 C 225.002 4.63727 -2.37921 0
M  V30 2383 C 222.33 4.97694 -3.10674 0
M  V30 2384 C 224.682 5.19218 -3.6138 0
M  V30 2385 C 223.346 5.3578 -3.98115 0
M  V30 2386 H 222.616 0.737795 -0.0688454 0
M  V30 2387 H 225.263 1.70991 -0.862225 0
M  V30 2388 H 223.568 3.87285 0.593079 0
M  V30 2389 H 225.265 4.00372 0.224271 0
M  V30 2390 H 221.855 4.11306 -1.20522 0
M  V30 2391 H 226.039 4.4923 -2.10964 0
M  V30 2392 H 221.295 5.08702 -3.39164 0
M  V30 2393 H 225.469 5.4799 -4.29743 0
M  V30 2394 H 223.096 5.77475 -4.94395 0
M  V30 2395 N 224.671 0.411399 1.52136 0
M  V30 2396 C 225.918 -0.163645 2.01838 0
M  V30 2397 C 226.246 -1.4495 1.29691 0
M  V30 2398 O 225.501 -1.91725 0.392431 0
M  V30 2399 C 225.8 -0.455872 3.54481 0
M  V30 2400 C 225.466 0.741055 4.44769 0
M  V30 2401 C 224.128 1.06936 4.69167 0
M  V30 2402 C 226.48 1.54075 4.97906 0
M  V30 2403 C 223.808 2.19851 5.43951 0
M  V30 2404 C 226.16 2.66067 5.73926 0
M  V30 2405 C 224.824 2.99381 5.96596 0
M  V30 2406 H 224.094 -0.0598821 0.738576 0
M  V30 2407 H 226.741 0.553283 1.83333 0
M  V30 2408 H 225.046 -1.2544 3.71177 0
M  V30 2409 H 226.743 -0.913802 3.90449 0
M  V30 2410 H 223.333 0.475192 4.25958 0
M  V30 2411 H 227.517 1.30033 4.78963 0
M  V30 2412 H 222.773 2.46006 5.59724 0
M  V30 2413 H 226.947 3.28419 6.14096 0
M  V30 2414 H 224.574 3.86992 6.54325 0
M  V30 2415 N 226.149 -1.5696 0.141893 0
M  V30 2416 C 227.099 -2.13074 -0.811383 0
M  V30 2417 C 228.083 -1.05726 -1.21288 0
M  V30 2418 O 229.275 -1.31914 -1.18015 0
M  V30 2419 C 226.404 -2.75186 -2.0525 0
M  V30 2420 C 225.49 -3.8965 -1.67432 0
M  V30 2421 N 225.881 -4.95733 -1.0041 0
M  V30 2422 C 224.179 -4.00262 -1.96739 0
M  V30 2423 C 224.88 -5.75858 -0.822345 0
M  V30 2424 N 223.856 -5.26452 -1.3546 0
M  V30 2425 H 227.658 -2.92465 -0.290031 0
M  V30 2426 H 225.172 -1.6229 -0.0598218 0
M  V30 2427 H 227.169 -3.13745 -2.74535 0
M  V30 2428 H 225.829 -1.97266 -2.57907 0
M  V30 2429 H 226.84 -5.13607 -0.665441 0
M  V30 2430 H 223.517 -3.33412 -2.51282 0
M  V30 2431 H 224.907 -6.71254 -0.294496 0
M  V30 2432 N 227.627 0.131896 -1.57047 0
M  V30 2433 C 228.575 1.18146 -2.0036 0
M  V30 2434 C 229.569 1.43614 -0.898406 0
M  V30 2435 O 230.775 1.43729 -1.08361 0
M  V30 2436 H 227.15 0.398042 -0.638018 0
M  V30 2437 H 229.121 0.789564 -2.87765 0
M  V30 2438 C 227.87 2.50341 -2.41298 0
M  V30 2439 H 227.193 2.31578 -3.25902 0
M  V30 2440 H 228.633 3.22371 -2.75414 0
M  V30 2441 C 227.092 3.11984 -1.27153 0
M  V30 2442 O 227.622 3.97484 -0.580459 0
M  V30 2443 N 225.828 2.71662 -1.03189 0
M  V30 2444 H 225.375 2.02231 -1.59564 0
M  V30 2445 H 225.333 3.13238 -0.270077 0
M  V30 2446 N 229.106 1.52395 0.401703 0
M  V30 2447 C 230.354 1.66488 1.14569 0
M  V30 2448 C 230.675 0.400897 1.90835 0
M  V30 2449 O 229.945 -0.584415 1.8698 0
M  V30 2450 H 228.525 0.613672 0.425929 0
M  V30 2451 H 231.187 1.89464 0.457093 0
M  V30 2452 H 230.283 2.50942 1.85566 0
M  V30 2453 N 230.584 -0.659388 1.43143 0
M  V30 2454 C 231.531 -1.77249 1.47822 0
M  V30 2455 C 232.501 -1.62818 0.328558 0
M  V30 2456 O 233.686 -1.83151 0.534838 0
M  V30 2457 C 230.826 -3.15371 1.40126 0
M  V30 2458 C 229.939 -3.4098 2.65249 0
M  V30 2459 C 229.074 -4.68915 2.49584 0
M  V30 2460 C 228.113 -4.87608 3.70006 0
M  V30 2461 N 227.25 -6.06796 3.53189 0
M  V30 2462 H 232.09 -1.72584 2.42938 0
M  V30 2463 H 229.627 -0.842297 1.20598 0
M  V30 2464 H 231.585 -3.9521 1.33659 0
M  V30 2465 H 230.215 -3.19121 0.485964 0
M  V30 2466 H 229.267 -2.55282 2.8202 0
M  V30 2467 H 230.579 -3.50681 3.54717 0
M  V30 2468 H 229.733 -5.56871 2.4079 0
M  V30 2469 H 228.472 -4.61524 1.5763 0
M  V30 2470 H 227.477 -3.9809 3.79215 0
M  V30 2471 H 228.702 -4.96834 4.62961 0
M  V30 2472 H 226.648 -6.00549 2.63965 0
M  V30 2473 H 226.565 -6.17428 4.36255 0
M  V30 2474 H 227.833 -6.9739 3.48236 0
M  V30 2475 N 232.062 -1.29571 -0.897171 0
M  V30 2476 C 233.009 -1.14916 -2.00158 0
M  V30 2477 C 233.979 -0.0418149 -1.66047 0
M  V30 2478 O 235.164 -0.209793 -1.89643 0
M  V30 2479 C 232.304 -0.834307 -3.34863 0
M  V30 2480 C 231.417 -2.02234 -3.8174 0
M  V30 2481 C 230.552 -1.64664 -5.05034 0
M  V30 2482 C 229.591 -2.80033 -5.44286 0
M  V30 2483 N 228.728 -2.42843 -6.58765 0
M  V30 2484 H 233.568 -2.09403 -2.12025 0
M  V30 2485 H 231.105 -1.042 -1.0383 0
M  V30 2486 H 233.063 -0.632436 -4.12379 0
M  V30 2487 H 231.693 0.0736656 -3.22716 0
M  V30 2488 H 230.745 -2.33583 -3.00238 0
M  V30 2489 H 232.057 -2.88673 -4.06779 0
M  V30 2490 H 231.211 -1.4078 -5.9014 0
M  V30 2491 H 229.95 -0.753766 -4.8184 0
M  V30 2492 H 228.955 -3.04596 -4.57713 0
M  V30 2493 H 230.18 -3.69989 -5.6946 0
M  V30 2494 H 228.126 -1.56046 -6.3717 0
M  V30 2495 H 228.043 -3.22815 -6.83613 0
M  V30 2496 H 229.311 -2.22285 -7.47134 0
M  V30 2497 N 233.54 1.10788 -1.12088 0
M  V30 2498 C 234.765 1.87002 -0.896949 0
M  V30 2499 C 235.19 1.79933 0.548261 0
M  V30 2500 O 234.548 1.16662 1.38779 0
M  V30 2501 C 234.596 3.3349 -1.37174 0
M  V30 2502 O 233.7 4.08745 -0.547831 0
M  V30 2503 H 233.041 0.580397 -0.322545 0
M  V30 2504 H 235.571 1.39996 -1.49206 0
M  V30 2505 H 235.581 3.84339 -1.36922 0
M  V30 2506 H 234.256 3.37951 -2.42408 0
M  V30 2507 H 232.833 3.6776 -0.617034 0
M  V30 2508 N 235.018 0.912232 1.28515 0
M  V30 2509 C 236.264 0.545405 1.95328 0
M  V30 2510 C 236.597 -0.908313 1.71649 0
M  V30 2511 O 235.872 -1.64575 1.03659 0
M  V30 2512 C 236.155 0.853483 3.4984 0
M  V30 2513 C 236.008 2.35982 3.82926 0
M  V30 2514 C 237.327 0.348589 4.38717 0
M  V30 2515 H 234.446 0.199626 0.709449 0
M  V30 2516 H 237.088 1.1412 1.5191 0
M  V30 2517 H 235.238 0.34643 3.86952 0
M  V30 2518 H 236.91 2.93738 3.55691 0
M  V30 2519 H 235.153 2.81543 3.30024 0
M  V30 2520 H 235.824 2.52593 4.90816 0
M  V30 2521 H 238.3 0.78294 4.08668 0
M  V30 2522 H 237.176 0.593242 5.45685 0
M  V30 2523 H 237.437 -0.751049 4.35674 0
M  V30 2524 N 236.496 -1.42363 0.676048 0
M  V30 2525 C 237.459 -2.29199 0.00766941 0
M  V30 2526 C 238.459 -1.43389 -0.727745 0
M  V30 2527 O 239.649 -1.64764 -0.56556 0
M  V30 2528 C 236.781 -3.2591 -0.999785 0
M  V30 2529 H 237.974 -2.89794 0.771988 0
M  V30 2530 H 235.527 -1.50024 0.438468 0
M  V30 2531 H 236.262 -2.70256 -1.79255 0
M  V30 2532 H 236.047 -3.89202 -0.475829 0
M  V30 2533 H 237.537 -3.91028 -1.46583 0
M  V30 2534 N 237.974 -0.419461 -1.51915 0
M  V30 2535 C 238.924 0.418496 -2.24126 0
M  V30 2536 C 239.908 1.00495 -1.25656 0
M  V30 2537 O 241.1 0.926058 -1.50842 0
M  V30 2538 C 238.229 1.52899 -3.07371 0
M  V30 2539 C 237.315 0.952797 -4.13258 0
M  V30 2540 N 237.706 0.104175 -5.05693 0
M  V30 2541 C 236.004 1.22224 -4.28926 0
M  V30 2542 C 236.705 -0.21752 -5.81293 0
M  V30 2543 N 235.681 0.394293 -5.42168 0
M  V30 2544 H 239.483 -0.236048 -2.92951 0
M  V30 2545 H 236.997 -0.230481 -1.60756 0
M  V30 2546 H 238.994 2.14199 -3.57665 0
M  V30 2547 H 237.654 2.18605 -2.40088 0
M  V30 2548 H 238.665 -0.260924 -5.17242 0
M  V30 2549 H 235.342 1.87812 -3.72871 0
M  V30 2550 H 236.732 -0.906992 -6.6575 0
M  V30 2551 N 239.452 1.56882 -0.150215 0
M  V30 2552 C 240.4 2.18214 0.805313 0
M  V30 2553 C 241.394 1.14006 1.25296 0
M  V30 2554 O 242.6 1.3225 1.22107 0
M  V30 2555 H 238.975 0.698762 0.277913 0
M  V30 2556 H 240.946 2.97231 0.263862 0
M  V30 2557 C 239.695 2.82065 2.03309 0
M  V30 2558 H 239.018 3.61968 1.69763 0
M  V30 2559 H 240.458 3.28477 2.68103 0
M  V30 2560 C 238.917 1.80739 2.84315 0
M  V30 2561 O 239.447 1.27983 3.80767 0
M  V30 2562 N 237.653 1.4997 2.48913 0
M  V30 2563 H 237.2 1.93062 1.70542 0
M  V30 2564 H 237.158 0.824217 3.03404 0
M  V30 2565 N 240.93 -0.123565 1.57115 0
M  V30 2566 C 241.863 -1.18202 1.95201 0
M  V30 2567 C 242.841 -1.40349 0.821031 0
M  V30 2568 O 244.025 -1.54578 1.07879 0
M  V30 2569 C 241.152 -2.53671 2.24429 0
M  V30 2570 C 240.198 -2.4798 3.46999 0
M  V30 2571 S 241.031 -1.92389 4.99747 0
M  V30 2572 C 242.187 -3.2954 5.32123 0
M  V30 2573 H 242.42 -0.857212 2.84674 0
M  V30 2574 H 239.953 -0.33014 1.50829 0
M  V30 2575 H 241.911 -3.3162 2.41947 0
M  V30 2576 H 240.572 -2.83332 1.35579 0
M  V30 2577 H 239.765 -3.47758 3.64801 0
M  V30 2578 H 239.367 -1.7815 3.28844 0
M  V30 2579 H 241.659 -4.25736 5.27025 0
M  V30 2580 H 242.602 -3.16569 6.33395 0
M  V30 2581 H 243.01 -3.27758 4.59603 0
M  V30 2582 N 242.408 -1.52605 -0.393616 0
M  V30 2583 C 243.636 -1.71294 -1.16043 0
M  V30 2584 C 244.051 -0.429259 -1.83855 0
M  V30 2585 O 243.408 0.595921 -1.72496 0
M  V30 2586 C 243.459 -2.8593 -2.21193 0
M  V30 2587 O 243.18 -4.09329 -1.56146 0
M  V30 2588 C 244.681 -3.16259 -3.10636 0
M  V30 2589 H 241.901 -0.573641 -0.348104 0
M  V30 2590 H 244.445 -1.99234 -0.461092 0
M  V30 2591 H 242.6 -2.60465 -2.86769 0
M  V30 2592 H 243.014 -4.73323 -2.25978 0
M  V30 2593 H 244.488 -3.99946 -3.80456 0
M  V30 2594 H 244.965 -2.3045 -3.73884 0
M  V30 2595 H 245.571 -3.43547 -2.50711 0
M  V30 2596 N 243.887 0.651787 -1.4349 0
M  V30 2597 C 245.115 1.43937 -1.48626 0
M  V30 2598 C 245.53 1.8851 -0.104587 0
M  V30 2599 O 244.887 1.5958 0.885464 0
M  V30 2600 C 244.938 2.6734 -2.43334 0
M  V30 2601 O 244.659 2.24631 -3.76128 0
M  V30 2602 C 246.16 3.60683 -2.57726 0
M  V30 2603 H 243.38 0.44213 -0.504739 0
M  V30 2604 H 245.924 0.798944 -1.88248 0
M  V30 2605 H 244.079 3.2752 -2.06904 0
M  V30 2606 H 244.493 3.04485 -4.2707 0
M  V30 2607 H 245.967 4.43933 -3.28067 0
M  V30 2608 H 246.444 4.08126 -1.62265 0
M  V30 2609 H 247.05 3.06384 -2.94973 0
M  V30 2610 N 245.365 1.30045 0.890287 0
M  V30 2611 C 246.776 1.16738 1.45702 0
M  V30 2612 C 247.127 -0.233939 1.948 0
M  V30 2613 O 246.252 -1.13021 1.84541 0
M  V30 2614 C 246.847 2.11313 2.64825 0
M  V30 2615 C 245.406 2.02001 3.17604 0
M  V30 2616 C 244.553 2.01699 1.90296 0
M  V30 2617 H 247.504 1.42392 0.700726 0
M  V30 2618 H 247.525 1.69086 3.40867 0
M  V30 2619 H 247.037 3.13294 2.2906 0
M  V30 2620 H 245.138 1.03142 3.5804 0
M  V30 2621 H 245.251 2.90128 3.81264 0
M  V30 2622 H 243.615 1.46427 2.08402 0
M  V30 2623 H 244.398 3.05402 1.56795 0
M  V30 2624 N 246.843 -1.10192 1.12674 0
M  V30 2625 C 247.791 -2.18694 0.792196 0
M  V30 2626 C 248.785 -1.67938 -0.222058 0
M  V30 2627 O 249.991 -1.79822 -0.0800074 0
M  V30 2628 H 246.366 -0.713223 0.238364 0
M  V30 2629 H 248.337 -2.44149 1.71564 0
M  V30 2630 C 247.086 -3.46682 0.265859 0
M  V30 2631 H 246.409 -3.86101 1.03761 0
M  V30 2632 H 247.849 -4.23942 0.0701128 0
M  V30 2633 C 246.308 -3.21506 -1.00675 0
M  V30 2634 O 246.838 -3.43408 -2.08408 0
M  V30 2635 N 245.044 -2.75158 -0.934692 0
M  V30 2636 H 244.591 -2.57535 -0.0578604 0
M  V30 2637 H 244.549 -2.58691 -1.7868 0
M  V30 2638 N 248.321 -0.919034 -1.28029 0
M  V30 2639 C 249.268 -0.410005 -2.27129 0
M  V30 2640 C 250.238 0.518405 -1.57803 0
M  V30 2641 O 251.423 0.439451 -1.8567 0
M  V30 2642 C 248.563 0.339054 -3.4343 0
M  V30 2643 C 247.676 -0.622468 -4.27492 0
M  V30 2644 C 246.811 0.145567 -5.31001 0
M  V30 2645 C 245.85 -0.809226 -6.06727 0
M  V30 2646 N 244.987 -0.0743728 -7.02061 0
M  V30 2647 H 249.827 -1.26011 -2.70047 0
M  V30 2648 H 247.364 -0.632663 -1.328 0
M  V30 2649 H 249.322 0.789586 -4.0966 0
M  V30 2650 H 247.952 1.15346 -3.01488 0
M  V30 2651 H 247.004 -1.19153 -3.61257 0
M  V30 2652 H 248.316 -1.35252 -4.80113 0
M  V30 2653 H 247.47 0.656417 -6.03139 0
M  V30 2654 H 246.209 0.908643 -4.79161 0
M  V30 2655 H 245.214 -1.3314 -5.33436 0
M  V30 2656 H 246.439 -1.57194 -6.60656 0
M  V30 2657 H 244.385 0.670616 -6.52563 0
M  V30 2658 H 244.302 -0.744157 -7.52329 0
M  V30 2659 H 245.57 0.416109 -7.78389 0
M  V30 2660 N 249.799 1.42003 -0.683588 0
M  V30 2661 C 250.729 2.33487 -0.024866 0
M  V30 2662 C 251.71 1.51163 0.779975 0
M  V30 2663 O 252.895 1.79739 0.735362 0
M  V30 2664 C 250.025 3.3487 0.920836 0
M  V30 2665 C 248.979 4.27414 0.223958 0
M  V30 2666 C 248.305 5.19074 1.2832 0
M  V30 2667 C 249.605 5.14445 -0.90242 0
M  V30 2668 H 251.299 2.88819 -0.788921 0
M  V30 2669 H 248.845 1.38873 -0.38083 0
M  V30 2670 H 250.798 3.97787 1.39081 0
M  V30 2671 H 249.522 2.77861 1.71642 0
M  V30 2672 H 248.181 3.65904 -0.225864 0
M  V30 2673 H 247.829 4.58387 2.071 0
M  V30 2674 H 247.529 5.81822 0.821995 0
M  V30 2675 H 249.053 5.84867 1.75392 0
M  V30 2676 H 250.467 5.70998 -0.513272 0
M  V30 2677 H 248.864 5.86072 -1.28997 0
M  V30 2678 H 249.934 4.52322 -1.74737 0
M  V30 2679 N 251.277 0.427512 1.51691 0
M  V30 2680 C 252.207 -0.3796 2.30394 0
M  V30 2681 C 253.188 -1.02982 1.35384 0
M  V30 2682 O 254.373 -1.03534 1.643 0
M  V30 2683 C 251.503 -1.48649 3.1388 0
M  V30 2684 C 250.457 -0.960294 4.17088 0
M  V30 2685 C 249.783 -2.16219 4.89033 0
M  V30 2686 C 251.083 -0.00153679 5.223 0
M  V30 2687 H 252.777 0.277164 2.98114 0
M  V30 2688 H 250.323 0.134739 1.43368 0
M  V30 2689 H 252.276 -2.05826 3.67714 0
M  V30 2690 H 251 -2.1714 2.43962 0
M  V30 2691 H 249.659 -0.410806 3.64291 0
M  V30 2692 H 249.307 -2.83307 4.15628 0
M  V30 2693 H 249.007 -1.81654 5.58816 0
M  V30 2694 H 250.531 -2.73968 5.45687 0
M  V30 2695 H 251.945 -0.482687 5.71264 0
M  V30 2696 H 250.342 0.256199 5.99553 0
M  V30 2697 H 251.412 0.938174 4.75738 0
M  V30 2698 N 252.755 -1.56801 0.158532 0
M  V30 2699 C 254.171 -1.5837 -0.197774 0
M  V30 2700 C 254.371 -1.17334 -1.63814 0
M  V30 2701 O 253.427 -0.878988 -2.36707 0
M  V30 2702 C 254.74 -3.00615 0.0714459 0
M  V30 2703 C 256.288 -3.12999 0.00864533 0
M  V30 2704 C 256.763 -4.57313 0.250685 0
M  V30 2705 N 258.254 -4.62777 0.198014 0
M  V30 2706 C 258.989 -5.72271 0.359642 0
M  V30 2707 N 258.485 -6.90371 0.579625 0
M  V30 2708 N 260.278 -5.61318 0.296438 0
M  V30 2709 H 252.429 -1.81765 1.09887 0
M  V30 2710 H 254.692 -0.841849 0.435884 0
M  V30 2711 H 254.398 -3.35068 1.06874 0
M  V30 2712 H 254.272 -3.71683 -0.642757 0
M  V30 2713 H 256.659 -2.7838 -0.979217 0
M  V30 2714 H 256.74 -2.44393 0.755359 0
M  V30 2715 H 256.384 -4.92639 1.2357 0
M  V30 2716 H 256.314 -5.24061 -0.516489 0
M  V30 2717 H 258.805 -3.77885 0.0331115 0
M  V30 2718 H 259.118 -7.69689 0.69275 0
M  V30 2719 H 257.463 -6.92264 0.616087 0
M  V30 2720 H 260.654 -4.67932 0.125258 0
M  V30 2721 H 260.827 -6.46599 0.425831 0
M  V30 2722 N 254.233 0.115231 -1.57178 0
M  V30 2723 C 255.163 1.1423 -2.03651 0
M  V30 2724 C 256.144 1.42967 -0.921655 0
M  V30 2725 O 257.329 1.53343 -1.19162 0
M  V30 2726 C 254.459 2.4675 -2.44401 0
M  V30 2727 C 253.413 2.32467 -3.59365 0
M  V30 2728 C 252.739 3.69984 -3.86026 0
M  V30 2729 C 254.039 1.78203 -4.90959 0
M  V30 2730 H 255.733 0.755749 -2.89705 0
M  V30 2731 H 253.279 0.362093 -1.39373 0
M  V30 2732 H 255.232 3.18854 -2.75517 0
M  V30 2733 H 253.956 2.87302 -1.55322 0
M  V30 2734 H 252.615 1.62811 -3.28463 0
M  V30 2735 H 252.263 4.08028 -2.94147 0
M  V30 2736 H 251.963 3.61279 -4.63412 0
M  V30 2737 H 253.487 4.43587 -4.19599 0
M  V30 2738 H 254.901 2.40128 -5.20587 0
M  V30 2739 H 253.298 1.8031 -5.72371 0
M  V30 2740 H 254.368 0.739876 -4.79222 0
M  V30 2741 N 255.711 1.52812 0.385517 0
M  V30 2742 C 256.957 1.68275 1.13188 0
M  V30 2743 C 257.29 0.423179 1.89533 0
M  V30 2744 O 256.565 -0.579113 1.85679 0
M  V30 2745 C 256.848 2.92001 2.1073 0
M  V30 2746 C 256.701 4.28067 1.38125 0
M  V30 2747 C 258.02 3.11283 3.11113 0
M  V30 2748 H 255.139 0.612352 0.410115 0
M  V30 2749 H 257.781 1.85415 0.414869 0
M  V30 2750 H 255.931 2.77519 2.71874 0
M  V30 2751 H 257.603 4.54324 0.799187 0
M  V30 2752 H 255.846 4.28388 0.683092 0
M  V30 2753 H 256.517 5.10733 2.09417 0
M  V30 2754 H 258.993 3.2482 2.6006 0
M  V30 2755 H 257.869 3.99325 3.76605 0
M  V30 2756 H 258.13 2.25656 3.80173 0
M  V30 2757 N 257.189 -0.644168 1.43834 0
M  V30 2758 C 258.466 -1.40188 1.36406 0
M  V30 2759 C 258.846 -2.11094 0.0163124 0
M  V30 2760 O 258.194 -2.05426 -1.00062 0
M  V30 2761 C 258.404 -2.3791 2.55343 0
M  V30 2762 C 259.752 -3.01637 2.98832 0
M  V30 2763 O 260.776 -2.48237 2.55455 0
M  V30 2764 O 259.635 -3.98477 3.74003 0
M  V30 2765 H 256.729 -0.626773 0.539523 0
M  V30 2766 H 259.275 -0.670317 1.559 0
M  V30 2767 H 258.047 -1.84525 3.4506 0
M  V30 2768 H 257.67 -3.18503 2.37995 0
M  V30 2769 N 258.668 -1.30515 -0.883378 0
M  V30 2770 C 259.616 -1.16941 -2.01066 0
M  V30 2771 C 260.61 -0.0809148 -1.69207 0
M  V30 2772 O 261.816 -0.241877 -1.78367 0
M  V30 2773 H 258.191 -0.361705 -0.659298 0
M  V30 2774 H 260.162 -2.12344 -2.09649 0
M  V30 2775 C 258.911 -0.879694 -3.36388 0
M  V30 2776 H 258.234 -1.70936 -3.61415 0
M  V30 2777 H 259.674 -0.82483 -4.159 0
M  V30 2778 C 258.133 0.417409 -3.34304 0
M  V30 2779 O 258.663 1.43843 -3.75063 0
M  V30 2780 N 256.869 0.429141 -2.87414 0
M  V30 2781 H 256.416 -0.402222 -2.5444 0
M  V30 2782 H 256.374 1.29696 -2.86403 0
M  V30 2783 N 260.146 1.09593 -1.13257 0
M  V30 2784 C 261.394 1.81375 -0.891492 0
M  V30 2785 C 261.715 1.86049 0.584009 0
M  V30 2786 O 260.985 1.34481 1.42449 0
M  V30 2787 H 259.565 0.671708 -0.326828 0
M  V30 2788 H 262.227 1.3256 -1.42877 0
M  V30 2789 H 261.323 2.84612 -1.28071 0
M  V30 2790 N 261.624 0.925811 1.2754 0
M  V30 2791 C 262.852 0.581509 1.9856 0
M  V30 2792 C 263.267 -0.840041 1.69082 0
M  V30 2793 O 262.624 -1.55805 0.950312 0
M  V30 2794 C 262.675 0.795589 3.52637 0
M  V30 2795 O 262.396 2.16121 3.81082 0
M  V30 2796 C 263.897 0.459744 4.4091 0
M  V30 2797 H 261.117 0.220538 0.633722 0
M  V30 2798 H 263.661 1.24232 1.6244 0
M  V30 2799 H 261.816 0.18161 3.86974 0
M  V30 2800 H 262.23 2.2098 4.75676 0
M  V30 2801 H 263.704 0.660244 5.48037 0
M  V30 2802 H 264.181 -0.604625 4.35018 0
M  V30 2803 H 264.787 1.05178 4.12089 0
M  V30 2804 N 263.102 -1.41638 0.69111 0
M  V30 2805 C 264.032 -2.3347 0.037248 0
M  V30 2806 C 265.013 -1.51575 -0.771947 0
M  V30 2807 O 266.198 -1.80126 -0.72582 0
M  V30 2808 C 263.328 -3.35354 -0.903064 0
M  V30 2809 C 262.282 -4.27526 -0.201288 0
M  V30 2810 C 261.608 -5.19747 -1.25565 0
M  V30 2811 C 262.908 -5.13959 0.929689 0
M  V30 2812 H 264.602 -2.88397 0.804227 0
M  V30 2813 H 262.148 -1.38669 0.388189 0
M  V30 2814 H 264.101 -3.98519 -1.36969 0
M  V30 2815 H 262.825 -2.78767 -1.70166 0
M  V30 2816 H 261.484 -3.65779 0.245265 0
M  V30 2817 H 261.132 -4.59479 -2.04666 0
M  V30 2818 H 260.832 -5.8225 -0.791128 0
M  V30 2819 H 262.356 -5.85789 -1.72288 0
M  V30 2820 H 263.77 -5.70718 0.543546 0
M  V30 2821 H 262.167 -5.85379 1.32103 0
M  V30 2822 H 263.237 -4.51389 1.77133 0
M  V30 2823 N 264.58 -0.43555 -1.51462 0
M  V30 2824 C 265.51 0.367376 -2.30592 0
M  V30 2825 C 266.491 1.02263 -1.35928 0
M  V30 2826 O 267.676 1.02661 -1.64847 0
M  V30 2827 C 264.806 1.46983 -3.14664 0
M  V30 2828 C 263.76 0.938161 -4.17591 0
M  V30 2829 C 263.086 2.13622 -4.90173 0
M  V30 2830 C 264.386 -0.0261621 -5.22293 0
M  V30 2831 H 266.08 -0.292969 -2.97963 0
M  V30 2832 H 263.626 -0.14234 -1.43295 0
M  V30 2833 H 265.579 2.03873 -3.688 0
M  V30 2834 H 264.303 2.15843 -2.4511 0
M  V30 2835 H 262.962 0.391481 -3.64504 0
M  V30 2836 H 262.61 2.81098 -4.17124 0
M  V30 2837 H 262.31 1.78688 -5.59772 0
M  V30 2838 H 263.834 2.7107 -5.47132 0
M  V30 2839 H 265.248 0.452384 -5.71512 0
M  V30 2840 H 263.645 -0.287992 -5.99409 0
M  V30 2841 H 264.715 -0.963391 -4.75233 0
M  V30 2842 N 266.058 1.56714 -0.166846 0
M  V30 2843 C 267.288 2.00828 0.48494 0
M  V30 2844 C 267.696 1.04612 1.57648 0
M  V30 2845 O 267.039 0.0383201 1.8366 0
M  V30 2846 C 267.101 3.4137 1.12723 0
M  V30 2847 C 266.765 4.56654 0.177886 0
M  V30 2848 C 267.762 5.16402 -0.60207 0
M  V30 2849 C 265.447 5.02244 0.0750139 0
M  V30 2850 C 267.441 6.20167 -1.47215 0
M  V30 2851 C 265.128 6.05859 -0.798649 0
M  V30 2852 C 266.126 6.64691 -1.57082 0
M  V30 2853 O 265.814 7.66297 -2.42989 0
M  V30 2854 H 265.546 0.663587 0.128953 0
M  V30 2855 H 268.1 2.03692 -0.264365 0
M  V30 2856 H 266.33 3.35406 1.92457 0
M  V30 2857 H 268.019 3.69466 1.68076 0
M  V30 2858 H 268.785 4.82065 -0.53274 0
M  V30 2859 H 264.664 4.56167 0.665812 0
M  V30 2860 H 268.208 6.66016 -2.07531 0
M  V30 2861 H 264.105 6.39621 -0.869199 0
M  V30 2862 H 264.873 7.83601 -2.36455 0
M  V30 2863 N 267.536 -0.106894 1.57237 0
M  V30 2864 C 268.764 -0.826389 1.8968 0
M  V30 2865 C 269.179 -1.72856 0.759353 0
M  V30 2866 O 268.536 -1.80503 -0.269263 0
M  V30 2867 C 268.587 -1.64967 3.21665 0
M  V30 2868 O 268.308 -0.783804 4.31031 0
M  V30 2869 C 269.809 -2.47326 3.67892 0
M  V30 2870 H 267.029 -0.236927 0.627779 0
M  V30 2871 H 269.573 -0.0876593 2.04312 0
M  V30 2872 H 267.728 -2.34103 3.08666 0
M  V30 2873 H 268.142 -1.35284 5.06753 0
M  V30 2874 H 269.616 -3.00604 4.6297 0
M  V30 2875 H 270.093 -3.25247 2.95146 0
M  V30 2876 H 270.699 -1.83411 3.83719 0
M  V30 2877 N 269.014 -1.53014 -0.377408 0
M  V30 2878 C 269.947 -1.73382 -1.48371 0
M  V30 2879 C 270.925 -0.581879 -1.51832 0
M  V30 2880 O 272.109 -0.81307 -1.70063 0
M  V30 2881 C 269.236 -1.80192 -2.8679 0
M  V30 2882 C 268.282 -3.02056 -3.01105 0
M  V30 2883 S 269.115 -4.61811 -2.71093 0
M  V30 2884 C 270.271 -4.71453 -4.11683 0
M  V30 2885 H 270.504 -2.66946 -1.30872 0
M  V30 2886 H 268.037 -1.43453 -0.571012 0
M  V30 2887 H 269.995 -1.84802 -3.6655 0
M  V30 2888 H 268.656 -0.877008 -3.01608 0
M  V30 2889 H 267.849 -3.03396 -4.02451 0
M  V30 2890 H 267.451 -2.95498 -2.29253 0
M  V30 2891 H 269.743 -4.50781 -5.0577 0
M  V30 2892 H 270.686 -5.73487 -4.15353 0
M  V30 2893 H 271.094 -4.00189 -3.98132 0
M  V30 2894 N 270.492 0.636531 -1.44174 0
M  V30 2895 C 271.908 0.954104 -1.27941 0
M  V30 2896 C 272.108 2.0039 -0.211248 0
M  V30 2897 O 271.164 2.49236 0.404695 0
M  V30 2898 C 272.477 1.4225 -2.64925 0
M  V30 2899 C 274.025 1.53827 -2.72592 0
M  V30 2900 C 274.5 2.04053 -4.10032 0
M  V30 2901 N 275.991 2.11331 -4.12182 0
M  V30 2902 C 276.726 2.51352 -5.15374 0
M  V30 2903 N 276.222 2.90549 -6.2893 0
M  V30 2904 N 278.015 2.51438 -5.02728 0
M  V30 2905 H 270.166 -0.0578386 -2.12321 0
M  V30 2906 H 272.429 0.0367406 -0.947288 0
M  V30 2907 H 272.135 0.725466 -3.44136 0
M  V30 2908 H 272.009 2.39451 -2.9145 0
M  V30 2909 H 274.396 2.22628 -1.93702 0
M  V30 2910 H 274.477 0.550154 -2.49814 0
M  V30 2911 H 274.121 1.35848 -4.89395 0
M  V30 2912 H 274.051 3.03726 -4.30184 0
M  V30 2913 H 276.542 1.83745 -3.30222 0
M  V30 2914 H 276.855 3.19884 -7.03487 0
M  V30 2915 H 275.2 2.88313 -6.32377 0
M  V30 2916 H 278.391 2.20203 -4.13072 0
M  V30 2917 H 278.564 2.82304 -5.83274 0
M  V30 2918 N 271.97 1.30982 0.876444 0
M  V30 2919 C 272.9 1.20668 1.99903 0
M  V30 2920 C 273.881 0.095354 1.69833 0
M  V30 2921 O 275.066 0.27885 1.92188 0
M  V30 2922 C 272.196 0.90655 3.3526 0
M  V30 2923 C 271.15 1.97675 3.79617 0
M  V30 2924 C 270.476 1.52943 5.1236 0
M  V30 2925 C 271.776 3.389 3.97422 0
M  V30 2926 H 273.47 2.14586 2.0879 0
M  V30 2927 H 271.016 1.03308 1.00317 0
M  V30 2928 H 272.969 0.821025 4.13324 0
M  V30 2929 H 271.693 -0.0682969 3.26529 0
M  V30 2930 H 270.352 2.05205 3.03787 0
M  V30 2931 H 270 0.54262 5.00065 0
M  V30 2932 H 269.7 2.24532 5.43009 0
M  V30 2933 H 271.224 1.45786 5.92941 0
M  V30 2934 H 272.638 3.34081 4.659 0
M  V30 2935 H 271.035 4.0865 4.3946 0
M  V30 2936 H 272.105 3.80163 3.01006 0
M  V30 2937 N 273.449 -1.08991 1.13837 0
M  V30 2938 C 274.677 -1.85011 0.926202 0
M  V30 2939 C 275.092 -1.8135 -0.525127 0
M  V30 2940 O 274.449 -1.21287 -1.36366 0
M  V30 2941 C 274.5 -3.32802 1.41155 0
M  V30 2942 O 274.221 -3.36444 2.80601 0
M  V30 2943 C 275.722 -4.25649 1.23847 0
M  V30 2944 H 272.942 -0.584249 0.32999 0
M  V30 2945 H 275.486 -1.37688 1.51202 0
M  V30 2946 H 273.641 -3.77536 0.868631 0
M  V30 2947 H 274.055 -4.28657 3.02248 0
M  V30 2948 H 275.529 -5.27485 1.62675 0
M  V30 2949 H 276.006 -4.38828 0.18065 0
M  V30 2950 H 276.612 -3.86735 1.76964 0
M  V30 2951 N 274.927 -0.932562 -1.27047 0
M  V30 2952 C 276.176 -0.571351 -1.93439 0
M  V30 2953 C 276.489 0.892467 -1.74053 0
M  V30 2954 O 277.695 1.36267 -2.34826 0
M  V30 2955 C 276.151 -0.97106 -3.46552 0
M  V30 2956 C 275.759 -2.4559 -3.74686 0
M  V30 2957 C 277.503 -0.681333 -4.18997 0
M  V30 2958 C 275.41 -2.79475 -5.21198 0
M  V30 2959 H 274.34 -0.209966 -0.724176 0
M  V30 2960 H 276.991 -1.13403 -1.44263 0
M  V30 2961 H 275.373 -0.336983 -3.94564 0
M  V30 2962 H 276.547 -3.13829 -3.37414 0
M  V30 2963 H 274.862 -2.71802 -3.15456 0
M  V30 2964 H 277.459 -0.910939 -5.26883 0
M  V30 2965 H 277.802 0.381628 -4.14547 0
M  V30 2966 H 278.335 -1.27473 -3.76823 0
M  V30 2967 H 275.074 -3.847 -5.30741 0
M  V30 2968 H 274.594 -2.1589 -5.596 0
M  V30 2969 H 276.273 -2.67478 -5.89122 0
M  V30 2970 N 276.405 1.4127 -0.698611 0
M  V30 2971 C 277.355 2.27997 -0.0119836 0
M  V30 2972 C 278.339 1.42363 0.749765 0
M  V30 2973 O 279.531 1.65607 0.624758 0
M  V30 2974 C 276.66 3.30702 0.921458 0
M  V30 2975 C 275.746 4.23814 0.155796 0
M  V30 2976 N 276.137 4.98572 -0.852015 0
M  V30 2977 C 274.435 4.44284 0.390836 0
M  V30 2978 C 275.136 5.66744 -1.3106 0
M  V30 2979 N 274.112 5.39867 -0.635944 0
M  V30 2980 H 277.914 2.83232 -0.784649 0
M  V30 2981 H 275.428 1.53518 -0.529711 0
M  V30 2982 H 277.425 3.91661 1.42854 0
M  V30 2983 H 276.085 2.77028 1.69369 0
M  V30 2984 H 277.096 5.03024 -1.23235 0
M  V30 2985 H 273.773 4.01614 1.14071 0
M  V30 2986 H 275.163 6.36672 -2.14707 0
M  V30 2987 N 277.883 0.443576 1.51229 0
M  V30 2988 C 278.846 -0.353132 2.26463 0
M  V30 2989 C 279.846 -0.944338 1.3015 0
M  V30 2990 O 281.036 -0.817813 1.5381 0
M  V30 2991 C 278.168 -1.50023 3.06114 0
M  V30 2992 H 279.361 0.3063 2.98332 0
M  V30 2993 H 276.914 0.196902 1.55055 0
M  V30 2994 H 277.649 -2.19553 2.38677 0
M  V30 2995 H 277.434 -1.08241 3.76864 0
M  V30 2996 H 278.924 -2.06296 3.63087 0
M  V30 2997 N 279.361 -1.56624 0.175154 0
M  V30 2998 C 280.271 -2.21741 -0.766042 0
M  V30 2999 C 281.287 -1.21023 -1.25018 0
M  V30 3000 O 282.463 -1.53697 -1.3015 0
M  V30 3001 C 279.528 -2.84839 -1.97655 0
M  V30 3002 C 278.589 -4.00769 -1.53892 0
M  V30 3003 C 277.822 -4.60849 -2.69173 0
M  V30 3004 O 278.045 -4.19823 -3.86141 0
M  V30 3005 O 276.979 -5.50655 -2.43028 0
M  V30 3006 H 280.805 -3.02738 -0.241585 0
M  V30 3007 H 278.39 -1.49305 -0.053222 0
M  V30 3008 H 280.272 -3.24834 -2.68442 0
M  V30 3009 H 278.947 -2.06836 -2.48999 0
M  V30 3010 H 277.854 -3.65436 -0.80044 0
M  V30 3011 H 279.187 -4.80376 -1.07236 0
M  V30 3012 N 280.839 0.0985539 -1.57292 0
M  V30 3013 C 282.079 0.808332 -1.87737 0
M  V30 3014 C 282.443 1.7607 -0.76572 0
M  V30 3015 O 283.644 2.51358 -0.952499 0
M  V30 3016 C 281.915 1.52093 -3.23423 0
M  V30 3017 S 283.474 2.26947 -3.75554 0
M  V30 3018 H 280.292 0.269377 -0.657995 0
M  V30 3019 H 282.894 0.0656269 -1.9539 0
M  V30 3020 H 281.598 0.81363 -4.02254 0
M  V30 3021 H 281.129 2.30361 -3.189 0
M  V30 3022 H 283.144 3.53027 -3.48692 0
M  V30 3023 N 282.317 1.53212 0.369288 0
M  V30 3024 C 283.728 1.60943 0.946276 0
M  V30 3025 C 284.079 0.47452 1.90375 0
M  V30 3026 O 283.204 -0.399597 2.12679 0
M  V30 3027 C 283.799 2.91715 1.72302 0
M  V30 3028 C 282.358 3.01792 2.24941 0
M  V30 3029 C 281.505 2.56211 1.06072 0
M  V30 3030 H 284.456 1.58007 0.148198 0
M  V30 3031 H 284.477 2.79309 2.58393 0
M  V30 3032 H 283.989 3.74295 1.0259 0
M  V30 3033 H 282.09 2.23791 2.97906 0
M  V30 3034 H 282.203 4.06803 2.53077 0
M  V30 3035 H 280.567 2.10998 1.4266 0
M  V30 3036 H 281.35 3.41206 0.378639 0
M  V30 3037 N 283.795 -0.628877 1.44509 0
M  V30 3038 C 284.728 -1.75367 1.46019 0
M  V30 3039 C 285.706 -1.59444 0.318787 0
M  V30 3040 O 286.89 -1.81297 0.516099 0
M  V30 3041 C 284.017 -3.12965 1.29501 0
M  V30 3042 C 283.063 -3.47532 2.47233 0
M  V30 3043 S 283.896 -3.44758 4.09758 0
M  V30 3044 C 285.052 -4.84973 3.95667 0
M  V30 3045 H 285.285 -1.7382 2.41193 0
M  V30 3046 H 282.818 -0.803686 1.31834 0
M  V30 3047 H 284.776 -3.92367 1.20658 0
M  V30 3048 H 283.437 -3.12049 0.358341 0
M  V30 3049 H 282.63 -4.47664 2.31544 0
M  V30 3050 H 282.232 -2.75598 2.52828 0
M  V30 3051 H 284.524 -5.74255 3.59496 0
M  V30 3052 H 285.467 -5.05716 4.95638 0
M  V30 3053 H 285.875 -4.59653 3.27688 0
M  V30 3054 N 285.273 -1.31445 -0.869486 0
M  V30 3055 C 286.223 -1.15731 -1.96444 0
M  V30 3056 C 287.207 -0.0681855 -1.60755 0
M  V30 3057 O 288.399 -0.293154 -1.74555 0
M  V30 3058 C 285.528 -0.867255 -3.32165 0
M  V30 3059 C 284.614 -1.99738 -3.74119 0
M  V30 3060 N 285.005 -3.24447 -3.88031 0
M  V30 3061 C 283.303 -1.89723 -4.03635 0
M  V30 3062 C 284.004 -3.98374 -4.23879 0
M  V30 3063 N 282.98 -3.26547 -4.3459 0
M  V30 3064 H 286.782 -2.10296 -2.05312 0
M  V30 3065 H 284.296 -1.23009 -1.06031 0
M  V30 3066 H 286.293 -0.735668 -4.10358 0
M  V30 3067 H 284.953 0.0701614 -3.24624 0
M  V30 3068 H 285.964 -3.59557 -3.72746 0
M  V30 3069 H 282.641 -1.03449 -4.04481 0
M  V30 3070 H 284.031 -5.05844 -4.42235 0
M  V30 3071 N 286.751 1.08385 -1.14413 0
M  V30 3072 C 287.681 2.17321 -0.854044 0
M  V30 3073 C 288.662 1.69024 0.191049 0
M  V30 3074 O 289.847 1.94141 0.0476779 0
M  V30 3075 C 286.977 3.45719 -0.330983 0
M  V30 3076 C 285.931 4.07409 -1.31155 0
M  V30 3077 C 285.257 5.30762 -0.64778 0
M  V30 3078 C 286.557 4.48665 -2.67388 0
M  V30 3079 H 288.251 2.41845 -1.76498 0
M  V30 3080 H 285.797 1.16233 -0.850051 0
M  V30 3081 H 287.75 4.21241 -0.115645 0
M  V30 3082 H 286.474 3.2075 0.615381 0
M  V30 3083 H 285.133 3.33919 -1.51306 0
M  V30 3084 H 284.781 5.02078 0.304398 0
M  V30 3085 H 284.481 5.72992 -1.30207 0
M  V30 3086 H 286.005 6.08998 -0.441972 0
M  V30 3087 H 287.419 5.15364 -2.51143 0
M  V30 3088 H 285.816 5.01814 -3.29093 0
M  V30 3089 H 286.886 3.60543 -3.24248 0
M  V30 3090 N 288.23 0.939286 1.26551 0
M  V30 3091 C 289.14 0.453432 2.30176 0
M  V30 3092 C 290.156 -0.471649 1.67486 0
M  V30 3093 O 291.332 -0.35164 1.98306 0
M  V30 3094 C 288.397 -0.275326 3.45605 0
M  V30 3095 C 287.458 0.686084 4.23782 0
M  V30 3096 C 286.691 -0.00798994 5.33699 0
M  V30 3097 O 286.914 -1.22528 5.57085 0
M  V30 3098 O 285.848 0.669746 5.98162 0
M  V30 3099 H 289.674 1.31416 2.73795 0
M  V30 3100 H 287.259 0.705095 1.31715 0
M  V30 3101 H 289.141 -0.685911 4.1578 0
M  V30 3102 H 287.816 -1.11147 3.0402 0
M  V30 3103 H 286.723 1.14658 3.56096 0
M  V30 3104 H 288.056 1.48979 4.69112 0
M  V30 3105 N 289.708 -1.40897 0.706093 0
M  V30 3106 C 290.985 -1.94868 0.169099 0
M  V30 3107 C 291.365 -1.64485 -1.32318 0
M  V30 3108 O 290.713 -0.95744 -2.07474 0
M  V30 3109 C 290.923 -3.45798 0.471654 0
M  V30 3110 C 292.271 -4.22663 0.405127 0
M  V30 3111 O 293.295 -3.53865 0.407168 0
M  V30 3112 O 292.154 -5.45216 0.374383 0
M  V30 3113 H 289.248 -0.82673 0.0211352 0
M  V30 3114 H 291.794 -1.50558 0.782976 0
M  V30 3115 H 290.566 -3.61235 1.50416 0
M  V30 3116 H 290.189 -3.97225 -0.172666 0
M  V30 3117 N 291.186 -0.45159 -1.50991 0
M  V30 3118 C 292.433 0.110074 -2.02201 0
M  V30 3119 C 292.761 1.4146 -1.33489 0
M  V30 3120 O 292.016 1.90617 -0.443125 0
M  V30 3121 C 292.315 0.361728 -3.55565 0
M  V30 3122 C 291.981 -0.858717 -4.42648 0
M  V30 3123 C 290.643 -1.19338 -4.66167 0
M  V30 3124 C 292.995 -1.67221 -4.93646 0
M  V30 3125 C 290.323 -2.34195 -5.37931 0
M  V30 3126 C 292.675 -2.8119 -5.6667 0
M  V30 3127 C 291.339 -3.15094 -5.88449 0
M  V30 3128 H 290.609 0.040279 -0.739904 0
M  V30 3129 H 293.256 -0.601696 -1.81802 0
M  V30 3130 H 291.561 1.15554 -3.74372 0
M  V30 3131 H 293.258 0.80996 -3.92735 0
M  V30 3132 H 289.848 -0.58796 -4.24548 0
M  V30 3133 H 294.032 -1.42686 -4.75347 0
M  V30 3134 H 289.288 -2.6076 -5.53005 0
M  V30 3135 H 293.462 -3.44585 -6.05173 0
M  V30 3136 H 291.089 -4.04204 -6.43835 0
M  V30 3137 N 292.664 1.56529 -0.183458 0
M  V30 3138 C 294.075 1.83739 0.331177 0
M  V30 3139 C 294.426 1.10373 1.62211 0
M  V30 3140 O 293.551 0.36071 2.13373 0
M  V30 3141 C 294.146 3.33306 0.607646 0
M  V30 3142 C 292.705 3.60969 1.06668 0
M  V30 3143 C 291.852 2.77086 0.109029 0
M  V30 3144 H 294.803 1.53379 -0.407484 0
M  V30 3145 H 294.824 3.51444 1.45832 0
M  V30 3146 H 294.336 3.86677 -0.332086 0
M  V30 3147 H 292.437 3.13021 2.0211 0
M  V30 3148 H 292.55 4.69231 0.967447 0
M  V30 3149 H 290.914 2.47319 0.608714 0
M  V30 3150 H 291.697 3.33241 -0.82494 0
M  V30 3151 N 294.142 -0.090211 1.57342 0
M  V30 3152 C 295.075 -1.14035 1.97664 0
M  V30 3153 C 296.053 -1.38576 0.850616 0
M  V30 3154 O 297.237 -1.52255 1.11134 0
M  V30 3155 C 294.364 -2.48854 2.2976 0
M  V30 3156 C 293.41 -2.40564 3.52181 0
M  V30 3157 S 294.243 -1.81745 5.03715 0
M  V30 3158 C 295.399 -3.18178 5.38993 0
M  V30 3159 H 295.632 -0.796636 2.86428 0
M  V30 3160 H 293.165 -0.298072 1.51496 0
M  V30 3161 H 295.123 -3.26413 2.48927 0
M  V30 3162 H 293.784 -2.80393 1.41558 0
M  V30 3163 H 292.977 -3.39942 3.72096 0
M  V30 3164 H 292.579 -1.71135 3.32549 0
M  V30 3165 H 294.871 -4.14461 5.35937 0
M  V30 3166 H 295.814 -3.03062 6.39968 0
M  V30 3167 H 296.222 -3.17935 4.66452 0
M  V30 3168 N 295.62 -1.53406 -0.361157 0
M  V30 3169 C 296.897 -1.60411 -1.11927 0
M  V30 3170 C 297.277 -0.414385 -2.06993 0
M  V30 3171 O 296.625 0.594976 -2.20618 0
M  V30 3172 C 296.835 -2.95652 -1.85448 0
M  V30 3173 C 298.183 -3.50386 -2.39823 0
M  V30 3174 O 299.207 -2.97711 -1.95568 0
M  V30 3175 O 298.066 -4.42482 -3.20737 0
M  V30 3176 H 295.16 -0.64811 -0.513695 0
M  V30 3177 H 297.706 -1.65749 -0.364065 0
M  V30 3178 H 296.478 -3.73682 -1.16091 0
M  V30 3179 H 296.101 -2.93825 -2.67866 0
M  V30 3180 N 297.098 0.621204 -1.44841 0
M  V30 3181 C 298.344 1.3826 -1.48365 0
M  V30 3182 C 298.677 1.93831 -0.119624 0
M  V30 3183 O 297.952 1.74251 0.864111 0
M  V30 3184 C 298.235 2.54058 -2.55199 0
M  V30 3185 C 298.088 2.03772 -4.00995 0
M  V30 3186 C 299.407 3.56225 -2.58442 0
M  V30 3187 H 296.526 0.501374 -0.540179 0
M  V30 3188 H 299.168 0.7015 -1.76576 0
M  V30 3189 H 297.318 3.12162 -2.31274 0
M  V30 3190 H 298.99 1.50423 -4.36086 0
M  V30 3191 H 297.233 1.34876 -4.12299 0
M  V30 3192 H 297.904 2.87185 -4.71411 0
M  V30 3193 H 300.38 3.07939 -2.79844 0
M  V30 3194 H 299.256 4.34756 -3.3508 0
M  V30 3195 H 299.517 4.10949 -1.63013 0
M  V30 3196 N 298.576 1.31904 0.862503 0
M  V30 3197 C 299.526 1.16772 1.95827 0
M  V30 3198 C 300.51 0.0767098 1.60717 0
M  V30 3199 O 301.702 0.302407 1.74398 0
M  V30 3200 C 298.831 0.884858 3.317 0
M  V30 3201 C 297.917 2.0172 3.73055 0
M  V30 3202 N 298.308 3.265 3.86305 0
M  V30 3203 C 296.606 1.91861 4.02623 0
M  V30 3204 C 297.307 4.00616 4.2176 0
M  V30 3205 N 296.283 3.28847 4.32852 0
M  V30 3206 H 300.085 2.11382 2.04193 0
M  V30 3207 H 297.599 1.2357 1.05377 0
M  V30 3208 H 299.596 0.757419 4.09962 0
M  V30 3209 H 298.256 -0.0529448 3.24657 0
M  V30 3210 H 299.267 3.61529 3.70833 0
M  V30 3211 H 295.944 1.05593 4.03926 0
M  V30 3212 H 297.334 5.08182 4.39546 0
M  V30 3213 N 300.054 -1.07777 1.14986 0
M  V30 3214 C 301.017 -2.13041 0.845358 0
M  V30 3215 C 302.017 -1.60071 -0.152931 0
M  V30 3216 O 303.207 -1.74033 0.0761879 0
M  V30 3217 C 300.339 -3.39896 0.261383 0
M  V30 3218 H 301.532 -2.41485 1.77834 0
M  V30 3219 H 299.085 -1.23595 0.956757 0
M  V30 3220 H 299.82 -3.17091 -0.68 0
M  V30 3221 H 299.605 -3.79642 0.980514 0
M  V30 3222 H 301.095 -4.17548 0.0657687 0
M  V30 3223 N 301.532 -0.945985 -1.26051 0
M  V30 3224 C 302.772 -0.603665 -1.95282 0
M  V30 3225 C 303.136 0.842377 -1.72534 0
M  V30 3226 O 304.337 1.29387 -2.35611 0
M  V30 3227 C 302.608 -0.942292 -3.44754 0
M  V30 3228 S 304.167 -0.711242 -4.32997 0
M  V30 3229 H 300.985 -0.222176 -0.675395 0
M  V30 3230 H 303.587 -1.21832 -1.52896 0
M  V30 3231 H 302.291 -1.99203 -3.58812 0
M  V30 3232 H 301.822 -0.317546 -3.92116 0
M  V30 3233 H 303.837 0.422221 -4.944 0
M  V30 3234 N 303.011 1.40521 -0.713556 0
M  V30 3235 C 304.422 1.83853 -0.324807 0
M  V30 3236 C 304.773 1.59667 1.14021 0
M  V30 3237 O 303.898 1.07649 1.87725 0
M  V30 3238 C 304.493 3.33751 -0.582746 0
M  V30 3239 C 303.052 3.75584 -0.247727 0
M  V30 3240 C 302.199 2.63753 -0.856121 0
M  V30 3241 H 305.15 1.29817 -0.91286 0
M  V30 3242 H 305.171 3.80194 0.152682 0
M  V30 3243 H 304.683 3.51322 -1.64908 0
M  V30 3244 H 302.784 3.63608 0.813624 0
M  V30 3245 H 302.897 4.7373 -0.715307 0
M  V30 3246 H 301.261 2.53108 -0.28432 0
M  V30 3247 H 302.044 2.84137 -1.92668 0
M  V30 3248 N 304.489 0.459591 1.5075 0
M  V30 3249 C 305.419 -0.330644 2.31147 0
M  V30 3250 C 306.4 -1.00087 1.37538 0
M  V30 3251 O 307.585 -1.00025 1.66459 0
M  V30 3252 C 304.715 -1.41958 3.16962 0
M  V30 3253 C 303.669 -0.871608 4.19031 0
M  V30 3254 C 302.995 -2.05797 4.9351 0
M  V30 3255 C 304.295 0.109251 5.22186 0
M  V30 3256 H 305.989 0.340336 2.97459 0
M  V30 3257 H 303.535 0.165119 1.4305 0
M  V30 3258 H 305.488 -1.9798 3.71997 0
M  V30 3259 H 304.212 -2.11917 2.48513 0
M  V30 3260 H 302.871 -0.333442 3.6508 0
M  V30 3261 H 302.519 -2.74427 4.21544 0
M  V30 3262 H 302.219 -1.6976 5.62544 0
M  V30 3263 H 303.743 -2.62331 5.51375 0
M  V30 3264 H 305.157 -0.361405 5.7216 0
M  V30 3265 H 303.554 0.383316 5.98875 0
M  V30 3266 H 304.624 1.03887 4.73641 0
M  V30 3267 N 305.967 -1.56429 0.191757 0
M  V30 3268 C 306.914 -2.18936 -0.730454 0
M  V30 3269 C 307.884 -1.13557 -1.21219 0
M  V30 3270 O 309.069 -1.41794 -1.27668 0
M  V30 3271 C 306.209 -2.85013 -1.9458 0
M  V30 3272 C 305.322 -4.04909 -1.50574 0
M  V30 3273 C 304.457 -4.58853 -2.67634 0
M  V30 3274 C 303.496 -5.71114 -2.20217 0
M  V30 3275 N 302.633 -6.19478 -3.30442 0
M  V30 3276 H 307.473 -2.97389 -0.190664 0
M  V30 3277 H 305.01 -1.46869 -0.0823694 0
M  V30 3278 H 306.968 -3.21492 -2.65893 0
M  V30 3279 H 305.598 -2.09129 -2.45896 0
M  V30 3280 H 304.65 -3.74115 -0.688605 0
M  V30 3281 H 305.962 -4.86113 -1.11784 0
M  V30 3282 H 305.116 -4.97619 -3.47074 0
M  V30 3283 H 303.855 -3.76749 -3.09696 0
M  V30 3284 H 302.86 -5.31879 -1.3923 0
M  V30 3285 H 304.085 -6.55033 -1.79189 0
M  V30 3286 H 302.031 -5.40297 -3.72041 0
M  V30 3287 H 301.948 -6.95725 -2.9581 0
M  V30 3288 H 303.216 -6.62898 -4.10106 0
M  V30 3289 N 307.445 0.0818655 -1.57387 0
M  V30 3290 C 308.692 0.782914 -1.86753 0
M  V30 3291 C 309.02 1.78082 -0.782118 0
M  V30 3292 O 308.275 1.94426 0.22295 0
M  V30 3293 C 308.574 1.53513 -3.22752 0
M  V30 3294 C 308.24 0.678134 -4.45771 0
M  V30 3295 C 306.902 0.441929 -4.79166 0
M  V30 3296 C 309.254 0.0832243 -5.21134 0
M  V30 3297 C 306.582 -0.398833 -5.85343 0
M  V30 3298 C 308.934 -0.744935 -6.28199 0
M  V30 3299 C 307.598 -0.991107 -6.60101 0
M  V30 3300 H 306.868 0.286489 -0.683378 0
M  V30 3301 H 309.515 0.0439808 -1.91449 0
M  V30 3302 H 307.82 2.34599 -3.138 0
M  V30 3303 H 309.517 2.08218 -3.42705 0
M  V30 3304 H 306.107 0.872357 -4.19628 0
M  V30 3305 H 310.291 0.252847 -4.95655 0
M  V30 3306 H 305.547 -0.598405 -6.08465 0
M  V30 3307 H 309.721 -1.21271 -6.8576 0
M  V30 3308 H 307.348 -1.64437 -7.42202 0
M  V30 3309 N 308.923 1.53595 0.353017 0
M  V30 3310 C 310.171 1.70049 1.09215 0
M  V30 3311 C 310.492 0.461406 1.89463 0
M  V30 3312 O 309.762 -0.524633 1.88744 0
M  V30 3313 H 308.342 0.626912 0.40619 0
M  V30 3314 H 311.004 1.90822 0.396585 0
M  V30 3315 H 310.1 2.56718 1.77488 0
M  V30 3316 N 310.401 -0.613514 1.45168 0
M  V30 3317 C 311.626 -1.40437 1.52618 0
M  V30 3318 C 312.051 -1.87438 0.157707 0
M  V30 3319 O 311.409 -1.59791 -0.856537 0
M  V30 3320 C 311.457 -2.58894 2.51011 0
M  V30 3321 O 310.561 -3.59326 2.02382 0
M  V30 3322 H 309.902 -0.419506 0.514695 0
M  V30 3323 H 312.432 -0.747215 1.90467 0
M  V30 3324 H 312.442 -3.06214 2.69624 0
M  V30 3325 H 311.117 -2.24032 3.50403 0
M  V30 3326 H 309.694 -3.18695 1.93618 0
M  V30 3327 N 311.879 -1.3236 -0.855495 0
M  V30 3328 C 313.109 -1.25688 -1.6397 0
M  V30 3329 C 313.517 0.177592 -1.88365 0
M  V30 3330 O 312.86 1.12485 -1.45234 0
M  V30 3331 C 312.922 -1.94602 -3.02275 0
M  V30 3332 C 312.586 -3.43937 -3.00926 0
M  V30 3333 C 313.583 -4.39435 -2.77835 0
M  V30 3334 C 311.268 -3.85858 -3.21588 0
M  V30 3335 C 313.262 -5.74829 -2.75409 0
M  V30 3336 C 310.949 -5.21361 -3.18789 0
M  V30 3337 C 311.947 -6.15658 -2.95727 0
M  V30 3338 O 311.635 -7.48681 -2.928 0
M  V30 3339 H 311.367 -0.434972 -0.51747 0
M  V30 3340 H 313.921 -1.75023 -1.075 0
M  V30 3341 H 312.151 -1.39836 -3.60531 0
M  V30 3342 H 313.84 -1.81651 -3.62985 0
M  V30 3343 H 314.606 -4.08374 -2.6164 0
M  V30 3344 H 310.485 -3.12883 -3.38564 0
M  V30 3345 H 314.029 -6.48404 -2.57328 0
M  V30 3346 H 309.926 -5.52052 -3.34528 0
M  V30 3347 H 310.694 -7.5803 -3.0876 0
M  V30 3348 N 313.357 1.07166 -1.15556 0
M  V30 3349 C 314.32 2.12589 -0.856644 0
M  V30 3350 C 315.32 1.6015 0.14444 0
M  V30 3351 O 316.51 1.7399 -0.0854163 0
M  V30 3352 C 313.642 3.39753 -0.279405 0
M  V30 3353 H 314.835 2.40539 -1.79112 0
M  V30 3354 H 312.388 1.23086 -0.963298 0
M  V30 3355 H 313.123 3.17447 0.663174 0
M  V30 3356 H 312.908 3.79117 -1.00063 0
M  V30 3357 H 314.398 4.17507 -0.0879113 0
M  V30 3358 N 314.835 0.952656 1.25548 0
M  V30 3359 C 316.065 0.622592 1.96996 0
M  V30 3360 C 316.473 -0.809112 1.71026 0
M  V30 3361 O 315.816 -1.55258 0.981861 0
M  V30 3362 C 315.878 0.798946 3.5051 0
M  V30 3363 C 315.542 2.20744 4.00151 0
M  V30 3364 C 316.539 3.18394 4.11001 0
M  V30 3365 C 314.224 2.5311 4.33867 0
M  V30 3366 C 316.218 4.46504 4.54877 0
M  V30 3367 C 313.905 3.8145 4.7743 0
M  V30 3368 C 314.903 4.77959 4.87897 0
M  V30 3369 O 314.591 6.04012 5.30494 0
M  V30 3370 H 314.323 0.232503 0.634758 0
M  V30 3371 H 316.877 1.2789 1.60728 0
M  V30 3372 H 315.107 0.0854903 3.86605 0
M  V30 3373 H 316.796 0.47023 4.03167 0
M  V30 3374 H 317.562 2.94715 3.85186 0
M  V30 3375 H 313.441 1.78719 4.24948 0
M  V30 3376 H 316.985 5.21835 4.62962 0
M  V30 3377 H 312.882 4.04936 5.0269 0
M  V30 3378 H 313.65 6.0736 5.48685 0
M  V30 3379 N 316.313 -1.40141 0.720998 0
M  V30 3380 C 317.541 -2.05096 0.272656 0
M  V30 3381 C 317.956 -1.54334 -1.0875 0
M  V30 3382 O 317.313 -0.702211 -1.6845 0
M  V30 3383 C 317.364 -3.60636 0.249835 0
M  V30 3384 O 317.085 -4.09526 1.55629 0
M  V30 3385 C 318.586 -4.42772 -0.216396 0
M  V30 3386 H 315.806 -0.659897 0.121558 0
M  V30 3387 H 318.35 -1.79449 0.980723 0
M  V30 3388 H 316.505 -3.85232 -0.409237 0
M  V30 3389 H 316.919 -5.03758 1.4604 0
M  V30 3390 H 318.393 -5.51702 -0.181212 0
M  V30 3391 H 318.87 -4.20756 -1.25941 0
M  V30 3392 H 319.476 -4.23294 0.412596 0
M  V30 3393 N 317.792 -0.46758 -1.50504 0
M  V30 3394 C 319.02 0.0864133 -2.06719 0
M  V30 3395 C 319.435 1.33819 -1.33184 0
M  V30 3396 O 318.792 1.78061 -0.400083 0
M  V30 3397 C 318.843 0.378079 -3.59517 0
M  V30 3398 O 318.564 -0.824044 -4.3028 0
M  V30 3399 C 320.065 0.979426 -4.32345 0
M  V30 3400 H 317.285 -0.00551697 -0.670977 0
M  V30 3401 H 319.829 -0.655354 -1.93715 0
M  V30 3402 H 317.984 1.06977 -3.72337 0
M  V30 3403 H 318.398 -0.566518 -5.21432 0
M  V30 3404 H 319.872 1.1333 -5.40241 0
M  V30 3405 H 320.349 1.9686 -3.9261 0
M  V30 3406 H 320.955 0.326216 -4.24047 0
M  V30 3407 N 319.27 1.56325 -0.20005 0
M  V30 3408 C 320.233 2.18084 0.705132 0
M  V30 3409 C 321.233 1.13666 1.1374 0
M  V30 3410 O 322.423 1.39023 1.04968 0
M  V30 3411 C 319.555 2.78689 1.96329 0
M  V30 3412 H 320.748 2.99435 0.167023 0
M  V30 3413 H 318.301 1.56221 0.0495725 0
M  V30 3414 H 319.036 2.0115 2.5438 0
M  V30 3415 H 318.821 3.55133 1.66202 0
M  V30 3416 H 320.311 3.26096 2.60866 0
M  V30 3417 N 320.748 -0.0735177 1.57428 0
M  V30 3418 C 321.658 -1.10547 2.06922 0
M  V30 3419 C 322.674 -1.42506 0.998402 0
M  V30 3420 O 323.85 -1.52717 1.31299 0
M  V30 3421 C 320.915 -2.40019 2.50184 0
M  V30 3422 C 319.976 -2.15046 3.71556 0
M  V30 3423 C 319.209 -3.38345 4.12745 0
M  V30 3424 O 319.432 -4.47399 3.53822 0
M  V30 3425 O 318.366 -3.2666 5.05546 0
M  V30 3426 H 322.192 -0.715013 2.95163 0
M  V30 3427 H 319.777 -0.287531 1.46607 0
M  V30 3428 H 321.659 -3.16218 2.78539 0
M  V30 3429 H 320.334 -2.78447 1.65072 0
M  V30 3430 H 319.241 -1.36558 3.48285 0
M  V30 3431 H 320.574 -1.81499 4.57514 0
M  V30 3432 N 322.226 -1.5378 -0.344866 0
M  V30 3433 C 323.472 -1.71216 -1.08687 0
M  V30 3434 C 323.805 -0.473281 -1.88345 0
M  V30 3435 O 323.08 0.52968 -1.87149 0
M  V30 3436 C 323.363 -2.97486 -2.02914 0
M  V30 3437 C 323.216 -4.31579 -1.26727 0
M  V30 3438 C 324.535 -3.19422 -3.0275 0
M  V30 3439 H 321.654 -0.62301 -0.393735 0
M  V30 3440 H 324.296 -1.8645 -0.365563 0
M  V30 3441 H 322.446 -2.84629 -2.64421 0
M  V30 3442 H 324.118 -4.56284 -0.67845 0
M  V30 3443 H 322.361 -4.30049 -0.569273 0
M  V30 3444 H 323.032 -5.16106 -1.95803 0
M  V30 3445 H 325.508 -3.316 -2.51357 0
M  V30 3446 H 324.384 -4.09169 -3.65885 0
M  V30 3447 H 324.645 -2.35656 -3.74057 0
M  V30 3448 N 323.704 0.605807 -1.45491 0
M  V30 3449 C 324.95 1.36679 -1.49823 0
M  V30 3450 C 325.283 1.93693 -0.140175 0
M  V30 3451 O 324.558 1.75158 0.845581 0
M  V30 3452 C 324.841 2.51337 -2.57879 0
M  V30 3453 C 324.694 1.99508 -4.03134 0
M  V30 3454 C 326.013 3.53463 -2.62205 0
M  V30 3455 H 323.132 0.495617 -0.545466 0
M  V30 3456 H 325.774 0.682732 -1.7731 0
M  V30 3457 H 323.924 3.09691 -2.34571 0
M  V30 3458 H 325.596 1.45789 -4.37656 0
M  V30 3459 H 323.839 1.30496 -4.13707 0
M  V30 3460 H 324.51 2.82169 -4.74431 0
M  V30 3461 H 326.986 3.04953 -2.83095 0
M  V30 3462 H 325.862 4.31178 -3.39672 0
M  V30 3463 H 326.123 4.09197 -1.67363 0
M  V30 3464 N 325.182 1.32811 0.848464 0
M  V30 3465 C 326.412 1.26556 1.63301 0
M  V30 3466 C 326.82 -0.1676 1.88456 0
M  V30 3467 O 326.163 -1.11713 1.45828 0
M  V30 3468 C 326.225 1.96202 3.01239 0
M  V30 3469 C 325.889 3.45528 2.99098 0
M  V30 3470 C 326.886 4.40903 2.75501 0
M  V30 3471 C 324.571 3.87558 3.19537 0
M  V30 3472 C 326.565 5.76282 2.72356 0
M  V30 3473 C 324.252 5.23044 3.16019 0
M  V30 3474 C 325.25 6.17217 2.92458 0
M  V30 3475 O 324.938 7.50223 2.88825 0
M  V30 3476 H 324.67 0.43771 0.515156 0
M  V30 3477 H 327.224 1.7559 1.0657 0
M  V30 3478 H 325.454 1.41746 3.59785 0
M  V30 3479 H 327.143 1.83573 3.62016 0
M  V30 3480 H 327.909 4.09756 2.5947 0
M  V30 3481 H 323.788 3.14674 3.369 0
M  V30 3482 H 327.332 6.4976 2.53886 0
M  V30 3483 H 323.229 5.53818 3.31596 0
M  V30 3484 H 323.997 7.59657 3.04735 0
M  V30 3485 N 326.66 -1.06551 1.16123 0
M  V30 3486 C 327.885 -1.83544 0.965735 0
M  V30 3487 C 328.31 -1.81843 -0.481102 0
M  V30 3488 O 327.668 -1.21732 -1.34354 0
M  V30 3489 C 327.716 -3.28169 1.49457 0
M  V30 3490 O 326.82 -4.0643 0.699157 0
M  V30 3491 H 326.161 -0.568026 0.343864 0
M  V30 3492 H 328.691 -1.34362 1.54299 0
M  V30 3493 H 328.701 -3.78992 1.51092 0
M  V30 3494 H 327.376 -3.28722 2.54784 0
M  V30 3495 H 325.953 -3.65216 0.7531 0
M  V30 3496 N 328.138 -0.959301 -1.25041 0
M  V30 3497 C 329.384 -0.627096 -1.93492 0
M  V30 3498 C 329.739 0.827484 -1.73696 0
M  V30 3499 O 329.032 1.58651 -1.07427 0
M  V30 3500 C 329.226 -0.927136 -3.45165 0
M  V30 3501 C 329.055 -2.40933 -3.79712 0
M  V30 3502 C 327.825 -3.0677 -4.01522 0
M  V30 3503 C 330.023 -3.38894 -3.86853 0
M  V30 3504 N 328.005 -4.44815 -4.231 0
M  V30 3505 C 329.376 -4.62263 -4.13174 0
M  V30 3506 C 331.431 -3.33668 -3.69554 0
M  V30 3507 C 330.134 -5.81052 -4.23995 0
M  V30 3508 C 332.16 -4.518 -3.81616 0
M  V30 3509 C 331.522 -5.73957 -4.08354 0
M  V30 3510 H 327.621 -0.280166 -0.73009 0
M  V30 3511 H 330.205 -1.23244 -1.50729 0
M  V30 3512 H 328.376 -0.350685 -3.86814 0
M  V30 3513 H 330.108 -0.554361 -4.00885 0
M  V30 3514 H 326.863 -2.57327 -3.97593 0
M  V30 3515 H 327.287 -5.16319 -4.37885 0
M  V30 3516 H 331.929 -2.40268 -3.47895 0
M  V30 3517 H 329.647 -6.74888 -4.44468 0
M  V30 3518 H 333.233 -4.49309 -3.69612 0
M  V30 3519 H 332.113 -6.6384 -4.17475 0
M  V30 3520 N 329.616 1.39756 -0.72842 0
M  V30 3521 C 330.844 2.04948 -0.283528 0
M  V30 3522 C 331.259 1.54908 1.0793 0
M  V30 3523 O 330.616 0.711135 1.68075 0
M  V30 3524 C 330.667 3.60498 -0.268957 0
M  V30 3525 O 330.388 4.08695 -1.57798 0
M  V30 3526 C 331.889 4.4288 0.192912 0
M  V30 3527 H 329.109 0.659243 -0.125056 0
M  V30 3528 H 331.653 1.78927 -0.990226 0
M  V30 3529 H 329.808 3.85444 0.388801 0
M  V30 3530 H 330.222 5.02977 -1.48709 0
M  V30 3531 H 331.696 5.51791 0.151952 0
M  V30 3532 H 332.173 4.21418 1.23708 0
M  V30 3533 H 332.779 4.23069 -0.435039 0
M  V30 3534 N 331.094 0.475555 1.50254 0
M  V30 3535 C 332.024 -0.30611 2.31485 0
M  V30 3536 C 333.005 -0.986228 1.38591 0
M  V30 3537 O 334.19 -0.982541 1.67511 0
M  V30 3538 C 331.32 -1.38588 3.1845 0
M  V30 3539 C 330.274 -0.827115 4.19932 0
M  V30 3540 C 329.6 -2.00551 4.95665 0
M  V30 3541 C 330.9 0.16463 5.2204 0
M  V30 3542 H 332.594 0.371866 2.97082 0
M  V30 3543 H 330.14 0.180282 1.42867 0
M  V30 3544 H 332.093 -1.94023 3.74076 0
M  V30 3545 H 330.817 -2.09269 2.50747 0
M  V30 3546 H 329.476 -0.294702 3.65414 0
M  V30 3547 H 329.124 -2.6994 4.2443 0
M  V30 3548 H 328.824 -1.63784 5.64313 0
M  V30 3549 H 330.348 -2.56468 5.54127 0
M  V30 3550 H 331.762 -0.300699 5.72511 0
M  V30 3551 H 330.159 0.446813 5.98434 0
M  V30 3552 H 331.229 1.08905 4.72512 0
M  V30 3553 N 332.573 -1.56217 0.208337 0
M  V30 3554 C 333.821 -1.97558 -0.426076 0
M  V30 3555 C 334.142 -1.09683 -1.61229 0
M  V30 3556 O 333.412 -0.170956 -1.95153 0
M  V30 3557 H 331.992 -0.729575 -0.160405 0
M  V30 3558 H 334.654 -1.92606 0.298155 0
M  V30 3559 H 333.75 -3.02672 -0.761312 0
M  V30 3560 N 334.051 0.0651679 -1.57465 0
M  V30 3561 C 334.998 1.07675 -2.04144 0
M  V30 3562 C 335.968 1.38071 -0.923335 0
M  V30 3563 O 337.153 1.49026 -1.19146 0
M  V30 3564 C 334.293 2.38337 -2.49579 0
M  V30 3565 C 333.406 2.14413 -3.75035 0
M  V30 3566 C 332.541 3.38686 -4.09225 0
M  V30 3567 C 331.58 3.10156 -5.27702 0
M  V30 3568 N 330.717 4.26778 -5.57499 0
M  V30 3569 H 335.557 0.671716 -2.90331 0
M  V30 3570 H 333.094 0.3201 -1.43575 0
M  V30 3571 H 335.052 3.14632 -2.73975 0
M  V30 3572 H 333.682 2.7663 -1.6636 0
M  V30 3573 H 332.734 1.2878 -3.57939 0
M  V30 3574 H 334.046 1.89344 -4.61466 0
M  V30 3575 H 333.2 4.23373 -4.34558 0
M  V30 3576 H 331.939 3.66837 -3.21374 0
M  V30 3577 H 330.944 2.23866 -5.02159 0
M  V30 3578 H 332.169 2.8332 -6.17176 0
M  V30 3579 H 330.115 4.54948 -4.72608 0
M  V30 3580 H 330.032 4.05005 -6.38362 0
M  V30 3581 H 331.3 5.12443 -5.87386 0
M  V30 3582 N 335.529 1.53961 0.336706 0
M  V30 3583 C 336.477 1.83136 1.43401 0
M  V30 3584 C 337.471 0.702313 1.54156 0
M  V30 3585 O 338.677 0.885765 1.56698 0
M  V30 3586 H 335.052 0.580309 0.478273 0
M  V30 3587 H 337.023 2.74925 1.16012 0
M  V30 3588 C 335.772 2.06385 2.79822 0
M  V30 3589 H 335.095 2.92718 2.72316 0
M  V30 3590 H 336.535 2.30761 3.55704 0
M  V30 3591 C 334.994 0.851414 3.25964 0
M  V30 3592 O 335.524 0.0541904 4.01663 0
M  V30 3593 N 333.73 0.66672 2.82848 0
M  V30 3594 H 333.277 1.31665 2.21409 0
M  V30 3595 H 333.235 -0.143032 3.14074 0
M  V30 3596 N 337.007 -0.598083 1.45811 0
M  V30 3597 C 337.954 -1.7082 1.55207 0
M  V30 3598 C 338.924 -1.61278 0.39732 0
M  V30 3599 O 340.109 -1.80717 0.612038 0
M  V30 3600 C 337.249 -3.09144 1.53376 0
M  V30 3601 C 336.362 -3.29423 2.79472 0
M  V30 3602 C 335.497 -4.57907 2.69248 0
M  V30 3603 C 334.536 -4.71476 3.90354 0
M  V30 3604 N 333.673 -5.9127 3.78608 0
M  V30 3605 H 338.513 -1.62125 2.50039 0
M  V30 3606 H 336.05 -0.790389 1.24062 0
M  V30 3607 H 338.008 -3.89186 1.50301 0
M  V30 3608 H 336.638 -3.16773 0.620876 0
M  V30 3609 H 335.69 -2.43091 2.92594 0
M  V30 3610 H 337.002 -3.3532 3.69272 0
M  V30 3611 H 336.156 -5.46157 2.64192 0
M  V30 3612 H 334.895 -4.54423 1.77063 0
M  V30 3613 H 333.9 -3.81648 3.95759 0
M  V30 3614 H 335.125 -4.76751 4.83617 0
M  V30 3615 H 333.071 -5.88813 2.89199 0
M  V30 3616 H 332.988 -5.98369 4.6205 0
M  V30 3617 H 334.256 -6.81992 3.77501 0
M  V30 3618 N 338.485 -1.33259 -0.841409 0
M  V30 3619 C 339.71 -1.2775 -1.63385 0
M  V30 3620 C 340.135 0.149188 -1.87507 0
M  V30 3621 O 339.493 1.10498 -1.43736 0
M  V30 3622 C 339.541 -2.05571 -2.96265 0
M  V30 3623 O 338.645 -1.41257 -3.87453 0
M  V30 3624 H 337.986 -0.439627 -0.497618 0
M  V30 3625 H 340.516 -1.75782 -1.04699 0
M  V30 3626 H 340.526 -2.16241 -3.45982 0
M  V30 3627 H 339.201 -3.09309 -2.7803 0
M  V30 3628 H 337.778 -1.39217 -3.45938 0
M  V30 3629 N 339.963 1.05934 -1.16686 0
M  V30 3630 C 341.209 1.79065 -0.95203 0
M  V30 3631 C 341.542 1.87147 0.518629 0
M  V30 3632 O 340.817 1.36574 1.38484 0
M  V30 3633 C 341.1 3.23359 -1.58464 0
M  V30 3634 C 340.953 3.23336 -3.12689 0
M  V30 3635 C 342.272 4.21004 -1.28232 0
M  V30 3636 H 339.391 0.65005 -0.34728 0
M  V30 3637 H 342.033 1.23868 -1.44072 0
M  V30 3638 H 340.183 3.70493 -1.16908 0
M  V30 3639 H 341.855 2.84336 -3.6325 0
M  V30 3640 H 340.098 2.61886 -3.4583 0
M  V30 3641 H 340.769 4.25144 -3.52075 0
M  V30 3642 H 343.245 3.8233 -1.64203 0
M  V30 3643 H 342.121 5.20225 -1.75092 0
M  V30 3644 H 342.382 4.41639 -0.201791 0
M  V30 3645 N 341.441 0.965919 1.2453 0
M  V30 3646 C 342.351 0.502154 2.29163 0
M  V30 3647 C 343.367 -0.436017 1.68448 0
M  V30 3648 O 344.543 -0.309497 1.99008 0
M  V30 3649 C 341.608 -0.201956 3.46111 0
M  V30 3650 C 340.669 0.775821 4.22232 0
M  V30 3651 C 339.902 0.105217 5.33596 0
M  V30 3652 O 340.125 -1.10683 5.59558 0
M  V30 3653 O 339.059 0.796475 5.96607 0
M  V30 3654 H 342.885 1.37194 2.70946 0
M  V30 3655 H 340.47 0.732875 1.30189 0
M  V30 3656 H 342.352 -0.597564 4.17142 0
M  V30 3657 H 341.027 -1.04673 3.06309 0
M  V30 3658 H 339.934 1.22185 3.53584 0
M  V30 3659 H 341.267 1.58896 4.65846 0
M  V30 3660 N 342.919 -1.39368 0.735821 0
M  V30 3661 C 344.165 -2.00794 0.284544 0
M  V30 3662 C 344.498 -1.58255 -1.12557 0
M  V30 3663 O 343.773 -0.811819 -1.76748 0
M  V30 3664 C 344.056 -3.58011 0.387337 0
M  V30 3665 C 343.909 -4.10566 1.83728 0
M  V30 3666 C 345.228 -4.395 -0.22975 0
M  V30 3667 H 342.347 -0.729501 0.104866 0
M  V30 3668 H 344.989 -1.65564 0.93213 0
M  V30 3669 H 343.139 -3.88154 -0.164006 0
M  V30 3670 H 344.811 -3.91139 2.44556 0
M  V30 3671 H 343.054 -3.64095 2.35833 0
M  V30 3672 H 343.725 -5.19702 1.86047 0
M  V30 3673 H 346.201 -4.15406 0.240257 0
M  V30 3674 H 345.077 -5.48752 -0.127485 0
M  V30 3675 H 345.338 -4.22062 -1.3159 0
M  V30 3676 N 344.397 -0.483516 -1.5 0
M  V30 3677 C 345.36 0.292965 -2.2732 0
M  V30 3678 C 346.36 0.909499 -1.32608 0
M  V30 3679 O 347.55 0.776745 -1.55924 0
M  V30 3680 C 344.682 1.41854 -3.09984 0
M  V30 3681 H 345.875 -0.385289 -2.97415 0
M  V30 3682 H 343.428 -0.237942 -1.54478 0
M  V30 3683 H 344.163 2.13148 -2.44414 0
M  V30 3684 H 343.948 0.982114 -3.79601 0
M  V30 3685 H 345.438 1.96597 -3.68429 0
M  V30 3686 N 345.875 1.56104 -0.216619 0
M  V30 3687 C 346.807 2.17339 0.72776 0
M  V30 3688 C 347.82 1.14109 1.16116 0
M  V30 3689 O 349.009 1.4111 1.09317 0
M  V30 3690 C 346.109 2.73818 1.99693 0
M  V30 3691 C 345.282 4.02168 1.71988 0
M  V30 3692 C 344.341 4.43259 2.83562 0
M  V30 3693 O 343.367 5.10257 2.52244 0
M  V30 3694 N 344.569 4.08535 4.12407 0
M  V30 3695 H 347.334 2.99005 0.203983 0
M  V30 3696 H 344.895 1.61861 -0.0354289 0
M  V30 3697 H 346.887 2.9828 2.73516 0
M  V30 3698 H 345.457 1.96483 2.43132 0
M  V30 3699 H 344.677 3.85612 0.818337 0
M  V30 3700 H 345.965 4.85907 1.50903 0
M  V30 3701 H 345.363 3.54687 4.40696 0
M  V30 3702 H 343.92 4.37901 4.8279 0
M  V30 3703 N 347.353 -0.0568162 1.57498 0
M  V30 3704 C 348.63 -0.786954 1.79071 0
M  V30 3705 C 349.01 -1.95028 0.80792 0
M  V30 3706 O 348.358 -2.27968 -0.155858 0
M  V30 3707 C 348.568 -1.24594 3.26002 0
M  V30 3708 C 349.916 -1.67323 3.90241 0
M  V30 3709 O 350.94 -1.34124 3.29984 0
M  V30 3710 O 349.799 -2.28842 4.9628 0
M  V30 3711 H 346.893 -0.378262 0.735423 0
M  V30 3712 H 349.439 -0.035734 1.69662 0
M  V30 3713 H 348.211 -0.41423 3.89101 0
M  V30 3714 H 347.834 -2.05803 3.40192 0
M  V30 3715 N 348.832 -1.54138 -0.328536 0
M  V30 3716 C 350.08 -1.71765 -1.06496 0
M  V30 3717 C 350.401 -0.49149 -1.88704 0
M  V30 3718 O 349.671 0.494539 -1.89555 0
M  V30 3719 H 348.251 -0.633295 -0.396164 0
M  V30 3720 H 350.913 -1.91429 -0.366176 0
M  V30 3721 H 350.009 -2.5951 -1.73381 0
M  V30 3722 N 350.31 0.590341 -1.46126 0
M  V30 3723 C 351.535 1.37991 -1.54833 0
M  V30 3724 C 351.96 1.87163 -0.187506 0
M  V30 3725 O 351.318 1.61133 0.831008 0
M  V30 3726 C 351.366 2.54867 -2.55098 0
M  V30 3727 O 350.47 3.56061 -2.08073 0
M  V30 3728 H 349.811 0.411265 -0.521303 0
M  V30 3729 H 352.341 0.716819 -1.91632 0
M  V30 3730 H 352.351 3.01886 -2.74461 0
M  V30 3731 H 351.026 2.18429 -3.53923 0
M  V30 3732 H 349.603 3.15574 -1.98664 0
M  V30 3733 N 351.788 1.33704 0.83433 0
M  V30 3734 C 353.204 1.13137 1.12571 0
M  V30 3735 C 353.404 -0.0747261 2.01361 0
M  V30 3736 O 352.46 -0.753647 2.4099 0
M  V30 3737 C 353.773 2.42105 1.78342 0
M  V30 3738 C 355.321 2.48054 1.90888 0
M  V30 3739 C 355.796 3.76995 2.60075 0
M  V30 3740 N 357.287 3.78092 2.67584 0
M  V30 3741 C 358.022 4.74574 3.21818 0
M  V30 3742 N 357.518 5.81434 3.76705 0
M  V30 3743 N 359.311 4.62044 3.20112 0
M  V30 3744 H 351.462 2.11 0.243489 0
M  V30 3745 H 353.725 0.932532 0.17055 0
M  V30 3746 H 353.431 3.30391 1.20561 0
M  V30 3747 H 353.305 2.54594 2.7832 0
M  V30 3748 H 355.692 1.60215 2.47821 0
M  V30 3749 H 355.773 2.39502 0.898459 0
M  V30 3750 H 355.417 4.65219 2.03799 0
M  V30 3751 H 355.347 3.82825 3.61597 0
M  V30 3752 H 357.838 3.00865 2.28667 0
M  V30 3753 H 358.151 6.51084 4.16305 0
M  V30 3754 H 356.496 5.85163 3.7498 0
M  V30 3755 H 359.687 3.77716 2.76493 0
M  V30 3756 H 359.86 5.37406 3.62076 0
M  V30 3757 N 353.266 -1.05314 1.17247 0
M  V30 3758 C 354.196 -2.1498 0.911362 0
M  V30 3759 C 355.177 -1.69471 -0.146169 0
M  V30 3760 O 356.362 -1.942 0.003812 0
M  V30 3761 C 353.492 -3.4472 0.422528 0
M  V30 3762 C 352.446 -4.03789 1.4191 0
M  V30 3763 C 351.772 -5.28858 0.788274 0
M  V30 3764 C 353.072 -4.41418 2.7919 0
M  V30 3765 H 354.766 -2.3708 1.82848 0
M  V30 3766 H 352.312 -1.13938 0.880569 0
M  V30 3767 H 354.265 -4.20787 0.227289 0
M  V30 3768 H 352.989 -3.22269 -0.530123 0
M  V30 3769 H 351.648 -3.2979 1.60106 0
M  V30 3770 H 351.296 -5.02709 -0.171173 0
M  V30 3771 H 350.996 -5.69338 1.45353 0
M  V30 3772 H 352.52 -6.07612 0.603282 0
M  V30 3773 H 353.934 -5.08524 2.64719 0
M  V30 3774 H 352.331 -4.92913 3.42282 0
M  V30 3775 H 353.401 -3.51819 3.33693 0
M  V30 3776 N 354.744 -0.972509 -1.24016 0
M  V30 3777 C 355.692 -0.498562 -2.27194 0
M  V30 3778 C 356.686 0.440372 -1.63576 0
M  V30 3779 O 357.892 0.315133 -1.7722 0
M  V30 3780 H 354.267 -0.142775 -0.738322 0
M  V30 3781 H 356.238 -1.38065 -2.64539 0
M  V30 3782 C 354.987 0.191072 -3.47175 0
M  V30 3783 H 354.31 -0.522318 -3.96373 0
M  V30 3784 H 355.75 0.486445 -4.212 0
M  V30 3785 C 354.209 1.41967 -3.05527 0
M  V30 3786 O 354.739 2.51642 -3.13112 0
M  V30 3787 N 352.945 1.28746 -2.60524 0
M  V30 3788 H 352.492 0.395089 -2.54552 0
M  V30 3789 H 352.45 2.11061 -2.33025 0
M  V30 3790 N 356.222 1.38976 -0.743202 0
M  V30 3791 C 357.154 2.29096 -0.0689228 0
M  V30 3792 C 358.167 1.47229 0.694791 0
M  V30 3793 O 359.356 1.70212 0.537597 0
M  V30 3794 C 356.456 3.25988 0.926548 0
M  V30 3795 C 355.629 4.36833 0.222647 0
M  V30 3796 C 354.688 5.13981 1.12739 0
M  V30 3797 O 353.714 5.6601 0.601795 0
M  V30 3798 N 354.916 5.25966 2.45641 0
M  V30 3799 H 357.681 2.87604 -0.842846 0
M  V30 3800 H 355.242 1.50645 -0.593109 0
M  V30 3801 H 357.234 3.74476 1.5346 0
M  V30 3802 H 355.804 2.68453 1.60162 0
M  V30 3803 H 355.024 3.90116 -0.565983 0
M  V30 3804 H 356.312 5.0811 -0.264841 0
M  V30 3805 H 355.71 4.85228 2.9081 0
M  V30 3806 H 354.267 5.77865 3.01522 0
M  V30 3807 N 357.7 0.491464 1.49741 0
M  V30 3808 C 358.93 -0.0534375 2.06531 0
M  V30 3809 C 359.338 -1.32233 1.35318 0
M  V30 3810 O 358.681 -1.78781 0.422243 0
M  V30 3811 C 358.743 -0.387034 3.57411 0
M  V30 3812 C 358.407 0.782764 4.50246 0
M  V30 3813 C 359.404 1.67059 4.92329 0
M  V30 3814 C 357.089 0.978866 4.9267 0
M  V30 3815 C 359.083 2.73874 5.75562 0
M  V30 3816 C 356.77 2.05022 5.75682 0
M  V30 3817 C 357.768 2.92851 6.17031 0
M  V30 3818 O 357.456 3.98138 6.98385 0
M  V30 3819 H 357.188 0.0129324 0.675876 0
M  V30 3820 H 359.742 0.685238 1.93633 0
M  V30 3821 H 357.972 -1.17918 3.68283 0
M  V30 3822 H 359.661 -0.869419 3.96479 0
M  V30 3823 H 360.427 1.53086 4.60206 0
M  V30 3824 H 356.306 0.304646 4.59992 0
M  V30 3825 H 359.85 3.42458 6.07757 0
M  V30 3826 H 355.747 2.18993 6.07217 0
M  V30 3827 H 356.515 3.95374 7.16674 0
M  V30 3828 N 359.178 -1.55987 0.224894 0
M  V30 3829 C 360.455 -1.90232 -0.455083 0
M  V30 3830 C 360.835 -1.14269 -1.77499 0
M  V30 3831 O 360.183 -0.253079 -2.27094 0
M  V30 3832 C 360.393 -3.42993 -0.644758 0
M  V30 3833 C 361.741 -4.13821 -0.950669 0
M  V30 3834 O 362.765 -3.4861 -0.731423 0
M  V30 3835 O 361.624 -5.29128 -1.36695 0
M  V30 3836 H 358.718 -0.79108 -0.241084 0
M  V30 3837 H 361.264 -1.67581 0.267327 0
M  V30 3838 H 360.036 -3.90252 0.28613 0
M  V30 3839 H 359.659 -3.71434 -1.41853 0
M  V30 3840 N 360.656 0.0484629 -1.57525 0
M  V30 3841 C 361.586 1.0549 -2.08313 0
M  V30 3842 C 362.567 1.38929 -0.981463 0
M  V30 3843 O 363.752 1.48151 -1.25558 0
M  V30 3844 C 360.882 2.36162 -2.54646 0
M  V30 3845 C 359.836 2.17016 -3.68901 0
M  V30 3846 C 359.162 3.53278 -4.01371 0
M  V30 3847 C 360.462 1.57219 -4.98076 0
M  V30 3848 H 362.156 0.632195 -2.92649 0
M  V30 3849 H 359.702 0.302654 -1.40784 0
M  V30 3850 H 361.655 3.06882 -2.88793 0
M  V30 3851 H 360.379 2.80456 -1.67368 0
M  V30 3852 H 359.038 1.48733 -3.35073 0
M  V30 3853 H 358.686 3.95185 -3.11188 0
M  V30 3854 H 358.386 3.41299 -4.78318 0
M  V30 3855 H 359.91 4.25391 -4.38035 0
M  V30 3856 H 361.324 2.17832 -5.30304 0
M  V30 3857 H 359.721 1.55871 -5.79503 0
M  V30 3858 H 360.791 0.535956 -4.81929 0
M  V30 3859 N 362.134 1.5431 0.320358 0
M  V30 3860 C 363.064 1.86912 1.3995 0
M  V30 3861 C 364.045 0.726211 1.53819 0
M  V30 3862 O 365.23 0.980233 1.67646 0
M  V30 3863 C 362.36 2.09932 2.7667 0
M  V30 3864 C 361.314 3.25776 2.77586 0
M  V30 3865 C 360.64 3.34173 4.17412 0
M  V30 3866 C 361.94 4.6335 2.41048 0
M  V30 3867 H 363.634 2.77292 1.12914 0
M  V30 3868 H 361.18 1.33421 0.541738 0
M  V30 3869 H 363.133 2.31324 3.52232 0
M  V30 3870 H 361.857 1.16304 3.0519 0
M  V30 3871 H 360.516 3.04276 2.04479 0
M  V30 3872 H 360.164 2.38098 4.43078 0
M  V30 3873 H 359.864 4.12033 4.18931 0
M  V30 3874 H 361.388 3.57803 4.94782 0
M  V30 3875 H 362.802 4.84602 3.06324 0
M  V30 3876 H 361.199 5.43782 2.53813 0
M  V30 3877 H 362.269 4.65381 1.36193 0
M  V30 3878 N 363.613 -0.582584 1.46437 0
M  V30 3879 C 364.861 -1.33814 1.51453 0
M  V30 3880 C 365.182 -1.94277 0.167792 0
M  V30 3881 O 364.452 -1.78566 -0.805677 0
M  V30 3882 H 363.032 -0.496838 0.557818 0
M  V30 3883 H 365.694 -0.682281 1.82568 0
M  V30 3884 H 364.79 -2.14479 2.26728 0
M  V30 3885 N 365.091 -1.34144 -0.827227 0
M  V30 3886 C 366.041 -1.21923 -1.92663 0
M  V30 3887 C 367.025 -0.119294 -1.60457 0
M  V30 3888 O 368.217 -0.348539 -1.73534 0
M  V30 3889 C 365.346 -0.972492 -3.29238 0
M  V30 3890 C 364.432 -2.1154 -3.67576 0
M  V30 3891 N 364.823 -3.36627 -3.77512 0
M  V30 3892 C 363.121 -2.02468 -3.97395 0
M  V30 3893 C 363.822 -4.11658 -4.1099 0
M  V30 3894 N 362.798 -3.40207 -4.23981 0
M  V30 3895 H 366.6 -2.16721 -1.98517 0
M  V30 3896 H 364.114 -1.2632 -1.02064 0
M  V30 3897 H 366.111 -0.865847 -4.0781 0
M  V30 3898 H 364.771 -0.0331509 -3.24683 0
M  V30 3899 H 365.782 -3.71234 -3.61118 0
M  V30 3900 H 362.459 -1.16265 -4.00985 0
M  V30 3901 H 363.849 -5.19657 -4.25918 0
M  V30 3902 N 366.569 1.04691 -1.17803 0
M  V30 3903 C 367.815 1.78045 -0.970969 0
M  V30 3904 C 368.148 1.87686 0.498751 0
M  V30 3905 O 367.423 1.38035 1.37027 0
M  V30 3906 C 367.706 3.2166 -1.61884 0
M  V30 3907 C 367.559 3.20001 -3.161 0
M  V30 3908 C 368.878 4.1962 -1.3269 0
M  V30 3909 H 365.997 0.64633 -0.354155 0
M  V30 3910 H 368.639 1.22333 -1.45378 0
M  V30 3911 H 366.789 3.69232 -1.20831 0
M  V30 3912 H 368.461 2.80467 -3.66246 0
M  V30 3913 H 366.704 2.58203 -3.48588 0
M  V30 3914 H 367.375 4.21386 -3.56564 0
M  V30 3915 H 369.851 3.80567 -1.68249 0
M  V30 3916 H 368.727 5.18339 -1.80599 0
M  V30 3917 H 368.988 4.414 -0.248622 0
M  V30 3918 N 368.047 0.979072 1.23499 0
M  V30 3919 C 369.293 0.648178 1.92163 0
M  V30 3920 C 369.626 -0.816049 1.76222 0
M  V30 3921 O 368.901 -1.58849 1.12237 0
M  V30 3922 C 369.184 1.03773 3.44824 0
M  V30 3923 C 369.037 2.55948 3.69879 0
M  V30 3924 C 370.356 0.580653 4.36253 0
M  V30 3925 H 367.475 0.236952 0.69787 0
M  V30 3926 H 370.117 1.22012 1.45647 0
M  V30 3927 H 368.267 0.551058 3.84572 0
M  V30 3928 H 369.939 3.12179 3.3962 0
M  V30 3929 H 368.182 2.98641 3.14636 0
M  V30 3930 H 368.853 2.78255 4.76737 0
M  V30 3931 H 371.329 0.998465 4.03943 0
M  V30 3932 H 370.205 0.881663 5.41773 0
M  V30 3933 H 370.466 -0.519052 4.39042 0
M  V30 3934 N 369.525 -1.3858 0.750561 0
M  V30 3935 C 370.773 -1.99789 0.30477 0
M  V30 3936 C 371.094 -1.59874 -1.11649 0
M  V30 3937 O 370.364 -0.85417 -1.76297 0
M  V30 3938 H 368.944 -0.738902 0.109694 0
M  V30 3939 H 371.606 -1.69391 0.963983 0
M  V30 3940 H 370.702 -3.09952 0.365499 0
M  V30 3941 N 371.003 -0.499398 -1.49478 0
M  V30 3942 C 372.231 0.0425456 -2.06856 0
M  V30 3943 C 372.646 1.30964 -1.35992 0
M  V30 3944 O 372.003 1.77172 -0.437762 0
M  V30 3945 C 372.054 0.301735 -3.60239 0
M  V30 3946 O 371.775 -0.915127 -4.28436 0
M  V30 3947 C 373.276 0.887499 -4.34325 0
M  V30 3948 H 370.496 -0.0197482 -0.670709 0
M  V30 3949 H 373.04 -0.696297 -1.92281 0
M  V30 3950 H 371.195 0.990556 -3.74522 0
M  V30 3951 H 371.609 -0.676993 -5.20113 0
M  V30 3952 H 373.083 1.01845 -5.42523 0
M  V30 3953 H 373.56 1.88488 -3.96698 0
M  V30 3954 H 374.166 0.236196 -4.24644 0
M  V30 3955 N 372.481 1.55866 -0.233164 0
M  V30 3956 C 373.391 2.24431 0.683217 0
M  V30 3957 C 374.407 1.2558 1.2044 0
M  V30 3958 O 375.583 1.58422 1.24356 0
M  V30 3959 C 372.648 2.91979 1.86947 0
M  V30 3960 C 371.709 4.06204 1.38912 0
M  V30 3961 C 370.942 4.70522 2.51883 0
M  V30 3962 O 371.165 4.33865 3.70293 0
M  V30 3963 O 370.099 5.59296 2.22423 0
M  V30 3964 H 373.925 3.03426 0.129059 0
M  V30 3965 H 371.51 1.494 -0.0022283 0
M  V30 3966 H 373.392 3.34573 2.56201 0
M  V30 3967 H 372.067 2.15935 2.41151 0
M  V30 3968 H 370.974 3.68155 0.664259 0
M  V30 3969 H 372.307 4.84025 0.893328 0
M  V30 3970 N 373.959 -0.0401083 1.57549 0
M  V30 3971 C 375.208 -0.732108 1.87944 0
M  V30 3972 C 375.521 -1.77107 0.830206 0
M  V30 3973 O 376.727 -2.51488 1.02302 0
M  V30 3974 C 375.183 -1.35315 3.33494 0
M  V30 3975 C 374.791 -0.351105 4.46622 0
M  V30 3976 C 376.535 -2.02566 3.73051 0
M  V30 3977 C 374.442 -0.979859 5.83226 0
M  V30 3978 H 373.372 -0.277188 0.701201 0
M  V30 3979 H 376.023 0.0138501 1.83495 0
M  V30 3980 H 374.405 -2.14844 3.32653 0
M  V30 3981 H 375.579 0.416674 4.58912 0
M  V30 3982 H 373.894 0.218708 4.15825 0
M  V30 3983 H 376.491 -2.50441 4.72423 0
M  V30 3984 H 376.834 -2.83904 3.04474 0
M  V30 3985 H 377.367 -1.29827 3.76018 0
M  V30 3986 H 374.106 -0.206135 6.55176 0
M  V30 3987 H 373.626 -1.71774 5.74677 0
M  V30 3988 H 375.305 -1.49046 6.29599 0
M  V30 3989 N 375.437 -1.54477 -0.31217 0
M  V30 3990 C 376.686 -1.72438 -1.04633 0
M  V30 3991 C 376.999 -0.511163 -1.88803 0
M  V30 3992 O 378.205 -0.572341 -2.65399 0
M  V30 3993 C 376.661 -3.05043 -1.9099 0
M  V30 3994 C 376.269 -4.33806 -1.11877 0
M  V30 3995 C 378.013 -3.32364 -2.64073 0
M  V30 3996 C 375.92 -5.57467 -1.97445 0
M  V30 3997 H 374.85 -0.642647 -0.394361 0
M  V30 3998 H 377.501 -1.80966 -0.303929 0
M  V30 3999 H 375.883 -2.90451 -2.69173 0
M  V30 4000 H 377.057 -4.59199 -0.383843 0
M  V30 4001 H 375.372 -4.13336 -0.504252 0
M  V30 4002 H 377.969 -4.21951 -3.28423 0
M  V30 4003 H 378.312 -2.50745 -3.32314 0
M  V30 4004 H 378.845 -3.47875 -1.92944 0
M  V30 4005 H 375.584 -6.41722 -1.33692 0
M  V30 4006 H 375.104 -5.36277 -2.6864 0
M  V30 4007 H 376.783 -5.94303 -2.5576 0
M  V30 4008 N 376.915 0.57481 -1.46744 0
M  V30 4009 C 378.331 0.898981 -1.31873 0
M  V30 4010 C 378.531 1.99313 -0.29605 0
M  V30 4011 O 377.587 2.50728 0.298621 0
M  V30 4012 C 378.9 1.30886 -2.7072 0
M  V30 4013 C 380.448 1.42127 -2.78871 0
M  V30 4014 C 380.923 1.86478 -4.18318 0
M  V30 4015 N 382.414 1.93658 -4.20774 0
M  V30 4016 C 383.149 2.29267 -5.2557 0
M  V30 4017 N 382.645 2.63612 -6.40688 0
M  V30 4018 N 384.438 2.29889 -5.1294 0
M  V30 4019 H 376.589 -0.147839 -2.11885 0
M  V30 4020 H 378.852 -0.00347013 -0.947994 0
M  V30 4021 H 378.558 0.578853 -3.46904 0
M  V30 4022 H 378.432 2.26874 -3.01343 0
M  V30 4023 H 380.819 2.14213 -2.0297 0
M  V30 4024 H 380.9 0.443705 -2.51922 0
M  V30 4025 H 380.544 1.14968 -4.94717 0
M  V30 4026 H 380.474 2.85207 -4.42679 0
M  V30 4027 H 382.965 1.69574 -3.37718 0
M  V30 4028 H 383.278 2.89759 -7.16421 0
M  V30 4029 H 381.623 2.61232 -6.44036 0
M  V30 4030 H 384.814 2.02485 -4.22039 0
M  V30 4031 H 384.987 2.57312 -5.94722 0
M  V30 4032 N 378.394 1.34581 0.820102 0
M  V30 4033 C 379.619 1.30333 1.61332 0
M  V30 4034 C 380.044 -0.119339 1.87721 0
M  V30 4035 O 379.402 -1.08197 1.45475 0
M  V30 4036 C 379.45 2.10258 2.92957 0
M  V30 4037 O 378.554 1.47404 3.85157 0
M  V30 4038 H 377.895 0.447488 0.490561 0
M  V30 4039 H 380.425 1.77425 1.01889 0
M  V30 4040 H 380.435 2.21718 3.42498 0
M  V30 4041 H 379.11 3.13693 2.73074 0
M  V30 4042 H 377.687 1.44703 3.43679 0
M  V30 4043 N 379.872 -1.04064 1.18357 0
M  V30 4044 C 381.097 -1.81454 1.00445 0
M  V30 4045 C 381.522 -1.82823 -0.442423 0
M  V30 4046 O 380.88 -1.24555 -1.31741 0
M  V30 4047 C 380.928 -3.24925 1.56384 0
M  V30 4048 O 380.032 -4.04856 0.785209 0
M  V30 4049 H 379.373 -0.560604 0.355835 0
M  V30 4050 H 381.903 -1.31059 1.57114 0
M  V30 4051 H 381.913 -3.75702 1.59097 0
M  V30 4052 H 380.588 -3.23244 2.61699 0
M  V30 4053 H 379.165 -3.63537 0.830399 0
M  V30 4054 N 381.35 -0.985608 -1.22978 0
M  V30 4055 C 382.578 -0.675582 -1.95559 0
M  V30 4056 C 382.993 0.758413 -1.72897 0
M  V30 4057 O 382.35 1.51094 -1.02357 0
M  V30 4058 C 382.401 -0.96293 -3.48439 0
M  V30 4059 O 382.122 -2.34057 -3.70336 0
M  V30 4060 C 383.623 -0.669585 -4.38214 0
M  V30 4061 H 380.843 -0.250523 -0.622478 0
M  V30 4062 H 383.387 -1.3184 -1.56328 0
M  V30 4063 H 381.542 -0.366033 -3.85667 0
M  V30 4064 H 381.956 -2.43424 -4.64591 0
M  V30 4065 H 383.43 -0.920967 -5.44263 0
M  V30 4066 H 383.907 0.396383 -4.37408 0
M  V30 4067 H 384.513 -1.2472 -4.06602 0
M  V30 4068 N 382.828 1.3818 -0.7579 0
M  V30 4069 C 384.076 1.99624 -0.315361 0
M  V30 4070 C 384.397 1.60464 1.10799 0
M  V30 4071 O 383.667 0.863507 1.75842 0
M  V30 4072 H 382.247 0.73831 -0.113611 0
M  V30 4073 H 384.909 1.68878 -0.972952 0
M  V30 4074 H 384.005 3.09754 -0.381931 0
M  V30 4075 N 384.306 0.507319 1.49211 0
M  V30 4076 C 385.216 -0.272136 2.33016 0
M  V30 4077 C 386.232 -0.961206 1.45041 0
M  V30 4078 O 387.408 -0.941191 1.78055 0
M  V30 4079 C 384.473 -1.31895 3.20631 0
M  V30 4080 C 383.534 -0.642648 4.24463 0
M  V30 4081 C 382.767 -1.63959 5.07891 0
M  V30 4082 O 382.99 -2.87007 4.92933 0
M  V30 4083 O 381.924 -1.19143 5.8999 0
M  V30 4084 H 385.75 0.413982 3.00865 0
M  V30 4085 H 383.335 0.268556 1.46966 0
M  V30 4086 H 385.217 -1.92446 3.7489 0
M  V30 4087 H 383.892 -1.98788 2.5547 0
M  V30 4088 H 382.799 0.00276252 3.741 0
M  V30 4089 H 384.132 -0.0160534 4.92197 0
M  V30 4090 N 385.784 -1.5574 0.241426 0
M  V30 4091 C 387.014 -2.02913 -0.38857 0
M  V30 4092 C 387.422 -1.12014 -1.52478 0
M  V30 4093 O 386.765 -0.125903 -1.83268 0
M  V30 4094 C 386.827 -3.4636 -0.963075 0
M  V30 4095 C 386.491 -4.56982 0.0401916 0
M  V30 4096 C 387.488 -5.12941 0.847766 0
M  V30 4097 C 385.173 -5.0203 0.164699 0
M  V30 4098 C 387.167 -6.12437 1.76636 0
M  V30 4099 C 384.854 -6.01358 1.0868 0
M  V30 4100 C 385.852 -6.5644 1.88616 0
M  V30 4101 O 385.54 -7.53831 2.79273 0
M  V30 4102 H 385.272 -0.668983 -0.0971452 0
M  V30 4103 H 387.826 -2.02198 0.361248 0
M  V30 4104 H 386.056 -3.44206 -1.76235 0
M  V30 4105 H 387.745 -3.77065 -1.50257 0
M  V30 4106 H 388.511 -4.78974 0.762133 0
M  V30 4107 H 384.39 -4.58824 -0.447411 0
M  V30 4108 H 387.934 -6.55355 2.39071 0
M  V30 4109 H 383.831 -6.34746 1.17338 0
M  V30 4110 H 384.599 -7.71428 2.73572 0
M  V30 4111 N 387.262 0.0317525 -1.57568 0
M  V30 4112 C 388.508 0.724175 -1.8943 0
M  V30 4113 C 388.841 1.75149 -0.838836 0
M  V30 4114 O 388.116 1.93948 0.146422 0
M  V30 4115 C 388.399 1.39615 -3.31933 0
M  V30 4116 C 388.252 0.382537 -4.4817 0
M  V30 4117 C 389.571 2.33084 -3.73309 0
M  V30 4118 H 386.69 0.261797 -0.688935 0
M  V30 4119 H 389.332 -0.013017 -1.89996 0
M  V30 4120 H 387.482 2.02451 -3.31581 0
M  V30 4121 H 389.154 -0.243689 -4.60656 0
M  V30 4122 H 387.397 -0.29844 -4.32772 0
M  V30 4123 H 388.068 0.891145 -5.44759 0
M  V30 4124 H 390.544 1.80295 -3.7501 0
M  V30 4125 H 389.42 2.77084 -4.73831 0
M  V30 4126 H 389.681 3.19643 -3.05419 0
M  V30 4127 N 388.74 1.54641 0.303973 0
M  V30 4128 C 389.986 1.74038 1.04109 0
M  V30 4129 C 390.319 0.523051 1.87024 0
M  V30 4130 O 389.594 -0.479874 1.88487 0
M  V30 4131 C 389.877 3.02761 1.94955 0
M  V30 4132 C 389.73 4.34787 1.1524 0
M  V30 4133 C 391.049 3.27336 2.94175 0
M  V30 4134 H 388.168 0.63323 0.377079 0
M  V30 4135 H 390.81 1.87354 0.316001 0
M  V30 4136 H 388.96 2.9154 2.56782 0
M  V30 4137 H 390.632 4.57922 0.557236 0
M  V30 4138 H 388.875 4.31407 0.455053 0
M  V30 4139 H 389.546 5.21116 1.8205 0
M  V30 4140 H 392.022 3.38148 2.42477 0
M  V30 4141 H 390.898 4.18726 3.54908 0
M  V30 4142 H 391.159 2.45491 3.67677 0
M  V30 4143 N 390.218 -0.567019 1.47046 0
M  V30 4144 C 391.151 -1.69016 1.53326 0
M  V30 4145 C 392.129 -1.57949 0.386126 0
M  V30 4146 O 393.313 -1.78945 0.592529 0
M  V30 4147 C 390.44 -3.07191 1.42658 0
M  V30 4148 C 389.486 -3.36733 2.6175 0
M  V30 4149 S 390.319 -3.27069 4.24012 0
M  V30 4150 C 391.475 -4.67755 4.1588 0
M  V30 4151 H 391.708 -1.63434 2.48348 0
M  V30 4152 H 389.241 -0.747048 1.35124 0
M  V30 4153 H 391.199 -3.86897 1.37191 0
M  V30 4154 H 389.86 -3.10249 0.490369 0
M  V30 4155 H 389.053 -4.37441 2.50323 0
M  V30 4156 H 388.655 -2.64627 2.64289 0
M  V30 4157 H 390.947 -5.58491 3.83529 0
M  V30 4158 H 391.89 -4.84239 5.16641 0
M  V30 4159 H 392.298 -4.45341 3.46889 0
M  V30 4160 N 391.696 -1.35014 -0.812953 0
M  V30 4161 C 392.924 -1.31031 -1.6012 0
M  V30 4162 C 393.339 0.113558 -1.88458 0
M  V30 4163 O 392.696 1.06363 -1.48301 0
M  V30 4164 C 392.747 -2.10872 -2.93624 0
M  V30 4165 O 392.468 -3.47706 -2.66518 0
M  V30 4166 C 393.969 -2.14401 -3.88004 0
M  V30 4167 H 391.189 -0.45037 -0.497401 0
M  V30 4168 H 393.733 -1.77775 -1.01076 0
M  V30 4169 H 391.888 -1.67744 -3.492 0
M  V30 4170 H 392.302 -3.89097 -3.51715 0
M  V30 4171 H 393.776 -2.74669 -4.78812 0
M  V30 4172 H 394.253 -1.14105 -4.24119 0
M  V30 4173 H 394.859 -2.57662 -3.38364 0
M  V30 4174 N 393.175 1.03435 -1.18907 0
M  V30 4175 C 394.403 1.80381 -1.01342 0
M  V30 4176 C 394.818 1.83649 0.438005 0
M  V30 4177 O 394.175 1.27655 1.30424 0
M  V30 4178 C 394.226 3.25689 -1.56873 0
M  V30 4179 O 393.947 3.22673 -2.96334 0
M  V30 4180 C 395.448 4.19255 -1.44014 0
M  V30 4181 H 392.668 0.56784 -0.35749 0
M  V30 4182 H 395.212 1.30317 -1.576 0
M  V30 4183 H 393.367 3.72962 -1.04777 0
M  V30 4184 H 393.781 4.13748 -3.22355 0
M  V30 4185 H 395.255 5.19123 -1.87657 0
M  V30 4186 H 395.732 4.37467 -0.389815 0
M  V30 4187 H 396.338 3.77851 -1.95214 0
M  V30 4188 N 394.653 0.992116 1.22453 0
M  V30 4189 C 395.603 0.512969 2.22155 0
M  V30 4190 C 396.587 -0.418416 1.55364 0
M  V30 4191 O 397.779 -0.245363 1.75291 0
M  V30 4192 C 394.908 -0.171822 3.4287 0
M  V30 4193 C 393.994 0.779822 4.16869 0
M  V30 4194 N 394.385 1.92734 4.6764 0
M  V30 4195 C 392.683 0.59554 4.42006 0
M  V30 4196 C 393.384 2.52458 5.24061 0
M  V30 4197 N 392.36 1.80735 5.12675 0
M  V30 4198 H 396.162 1.38817 2.5905 0
M  V30 4199 H 393.676 0.854277 1.38115 0
M  V30 4200 H 395.673 -0.532469 4.13486 0
M  V30 4201 H 394.333 -1.04317 3.07487 0
M  V30 4202 H 395.344 2.30816 4.63621 0
M  V30 4203 H 392.021 -0.229805 4.16867 0
M  V30 4204 H 393.411 3.49433 5.73887 0
M  V30 4205 N 396.131 -1.37776 0.765217 0
M  V30 4206 C 397.378 -1.99849 0.326588 0
M  V30 4207 C 397.706 -1.60746 -1.09504 0
M  V30 4208 O 396.961 -0.84202 -1.76659 0
M  V30 4209 C 397.26 -3.5504 0.410053 0
M  V30 4210 C 396.926 -4.13891 1.78899 0
M  V30 4211 C 395.588 -4.29678 2.16635 0
M  V30 4212 C 397.94 -4.46236 2.69301 0
M  V30 4213 C 395.268 -4.7511 3.44221 0
M  V30 4214 C 397.62 -4.93089 3.9629 0
M  V30 4215 C 396.284 -5.07082 4.34078 0
M  V30 4216 H 395.554 -0.7313 0.119507 0
M  V30 4217 H 398.201 -1.64645 0.977968 0
M  V30 4218 H 396.506 -3.90451 -0.324878 0
M  V30 4219 H 398.203 -4.00966 0.0520699 0
M  V30 4220 H 394.793 -4.02026 1.48569 0
M  V30 4221 H 398.977 -4.3363 2.41409 0
M  V30 4222 H 394.233 -4.84129 3.73402 0
M  V30 4223 H 398.407 -5.17084 4.66472 0
M  V30 4224 H 396.034 -5.42046 5.33001 0
M  V30 4225 N 397.609 -0.515225 -1.4894 0
M  V30 4226 C 398.559 0.275113 -2.26334 0
M  V30 4227 C 399.543 0.923007 -1.31793 0
M  V30 4228 O 400.735 0.828254 -1.56426 0
M  V30 4229 C 397.864 1.33041 -3.16473 0
M  V30 4230 C 396.95 0.688051 -4.18481 0
M  V30 4231 N 397.341 -0.217638 -5.05332 0
M  V30 4232 C 395.639 0.94699 -4.3583 0
M  V30 4233 C 396.34 -0.58676 -5.78733 0
M  V30 4234 N 395.316 0.0486966 -5.43578 0
M  V30 4235 H 399.118 -0.421876 -2.90856 0
M  V30 4236 H 396.632 -0.332249 -1.58965 0
M  V30 4237 H 398.629 1.9102 -3.70563 0
M  V30 4238 H 397.289 2.02894 -2.53504 0
M  V30 4239 H 398.3 -0.589343 -5.14536 0
M  V30 4240 H 394.977 1.63719 -3.8406 0
M  V30 4241 H 396.367 -1.32855 -6.58634 0
M  V30 4242 N 399.087 1.5561 -0.249682 0
M  V30 4243 C 400.017 2.24477 0.642826 0
M  V30 4244 C 400.998 1.22601 1.17911 0
M  V30 4245 O 402.183 1.5126 1.21795 0
M  V30 4246 C 399.313 2.94638 1.83863 0
M  V30 4247 C 398.267 4.03227 1.435 0
M  V30 4248 C 397.593 4.60828 2.71186 0
M  V30 4249 C 398.893 5.18796 0.604002 0
M  V30 4250 H 400.587 2.99321 0.0685625 0
M  V30 4251 H 398.133 1.43965 0.0315363 0
M  V30 4252 H 400.086 3.41517 2.46868 0
M  V30 4253 H 398.81 2.17287 2.43832 0
M  V30 4254 H 397.469 3.57121 0.828275 0
M  V30 4255 H 397.117 3.80174 3.29358 0
M  V30 4256 H 396.817 5.34132 2.44901 0
M  V30 4257 H 398.341 5.10442 3.35084 0
M  V30 4258 H 399.755 5.61883 1.13842 0
M  V30 4259 H 398.152 5.98506 0.437097 0
M  V30 4260 H 399.222 4.83384 -0.383147 0
M  V30 4261 N 400.565 -0.0233959 1.57583 0
M  V30 4262 C 401.512 -1.02224 2.06927 0
M  V30 4263 C 402.482 -1.35575 0.959617 0
M  V30 4264 O 403.667 -1.45815 1.23055 0
M  V30 4265 C 400.807 -2.31636 2.5581 0
M  V30 4266 C 399.92 -2.04394 3.80588 0
M  V30 4267 C 399.055 -3.27717 4.18061 0
M  V30 4268 C 398.094 -2.96056 5.3574 0
M  V30 4269 N 397.231 -4.11847 5.68618 0
M  V30 4270 H 402.071 -0.594504 2.9201 0
M  V30 4271 H 399.608 -0.281921 1.44373 0
M  V30 4272 H 401.566 -3.07258 2.82221 0
M  V30 4273 H 400.196 -2.72122 1.73636 0
M  V30 4274 H 399.248 -1.19244 3.61227 0
M  V30 4275 H 400.56 -1.77042 4.66323 0
M  V30 4276 H 399.714 -4.11702 4.4563 0
M  V30 4277 H 398.453 -3.58188 3.30988 0
M  V30 4278 H 397.458 -2.10474 5.07918 0
M  V30 4279 H 398.683 -2.66857 6.24471 0
M  V30 4280 H 396.629 -4.42258 4.84504 0
M  V30 4281 H 396.546 -3.87938 6.48876 0
M  V30 4282 H 397.814 -4.96689 6.00766 0
M  V30 4283 N 402.043 -1.548 -0.295768 0
M  V30 4284 C 403.459 -1.4613 -0.641722 0
M  V30 4285 C 403.659 -0.656771 -1.90496 0
M  V30 4286 O 402.715 -0.166547 -2.5195 0
M  V30 4287 C 404.028 -2.90141 -0.789852 0
M  V30 4288 C 405.576 -3.00216 -0.885396 0
M  V30 4289 C 406.051 -4.45434 -1.06548 0
M  V30 4290 N 407.542 -4.49166 -1.13156 0
M  V30 4291 C 408.277 -5.58717 -1.28929 0
M  V30 4292 N 407.773 -6.78182 -1.41567 0
M  V30 4293 N 409.566 -5.46415 -1.31859 0
M  V30 4294 H 401.717 -2.05574 0.534147 0
M  V30 4295 H 403.98 -0.931259 0.177372 0
M  V30 4296 H 403.686 -3.51635 0.0675598 0
M  V30 4297 H 403.56 -3.37859 -1.67724 0
M  V30 4298 H 405.947 -2.38833 -1.73329 0
M  V30 4299 H 406.028 -2.55787 0.0261185 0
M  V30 4300 H 405.672 -5.07413 -0.222335 0
M  V30 4301 H 405.602 -4.87499 -1.9913 0
M  V30 4302 H 408.093 -3.631 -1.04721 0
M  V30 4303 H 408.406 -7.57428 -1.53372 0
M  V30 4304 H 406.751 -6.81037 -1.38613 0
M  V30 4305 H 409.942 -4.5203 -1.21601 0
M  V30 4306 H 410.115 -6.31841 -1.43808 0
M  V30 4307 N 403.521 0.559213 -1.47345 0
M  V30 4308 C 404.468 1.66645 -1.59682 0
M  V30 4309 C 405.438 1.60168 -0.43994 0
M  V30 4310 O 406.623 1.79031 -0.659736 0
M  V30 4311 C 403.763 3.04969 -1.61518 0
M  V30 4312 C 402.876 3.21897 -2.88108 0
M  V30 4313 C 402.011 4.50608 -2.81294 0
M  V30 4314 C 401.05 4.60961 -4.02717 0
M  V30 4315 N 400.187 5.81024 -3.94151 0
M  V30 4316 H 405.027 1.55439 -2.54249 0
M  V30 4317 H 402.564 0.757219 -1.26113 0
M  V30 4318 H 404.522 3.85064 -1.60566 0
M  V30 4319 H 403.152 3.15015 -0.704645 0
M  V30 4320 H 402.204 2.35248 -2.98936 0
M  V30 4321 H 403.516 3.25412 -3.78032 0
M  V30 4322 H 402.67 5.3896 -2.7858 0
M  V30 4323 H 401.409 4.49568 -1.89049 0
M  V30 4324 H 400.414 3.71021 -4.05738 0
M  V30 4325 H 401.639 4.63761 -4.96087 0
M  V30 4326 H 399.585 5.80938 -3.04708 0
M  V30 4327 H 399.502 5.85909 -4.77752 0
M  V30 4328 H 400.77 6.71744 -3.9545 0
M  V30 4329 N 404.999 1.35443 0.805782 0
M  V30 4330 C 406.248 1.28097 1.55801 0
M  V30 4331 C 406.561 -0.142428 1.95081 0
M  V30 4332 O 407.767 -0.33817 2.69386 0
M  V30 4333 C 406.223 2.24653 2.81174 0
M  V30 4334 C 405.831 3.72342 2.49129 0
M  V30 4335 C 407.575 2.2625 3.59181 0
M  V30 4336 C 405.482 4.60719 3.70799 0
M  V30 4337 H 404.412 0.475937 0.584808 0
M  V30 4338 H 407.063 1.60712 0.885661 0
M  V30 4339 H 405.445 1.85011 3.50124 0
M  V30 4340 H 406.619 4.20624 1.88181 0
M  V30 4341 H 404.934 3.73361 1.84366 0
M  V30 4342 H 407.531 2.89495 4.49552 0
M  V30 4343 H 407.874 1.26647 3.96568 0
M  V30 4344 H 408.407 2.64426 2.97193 0
M  V30 4345 H 405.146 5.61324 3.3852 0
M  V30 4346 H 404.666 4.17163 4.3097 0
M  V30 4347 H 406.345 4.76182 4.38018 0
M  V30 4348 N 406.477 -1.02803 1.19454 0
M  V30 4349 C 407.725 -1.75869 0.995722 0
M  V30 4350 C 408.046 -1.89138 -0.474543 0
M  V30 4351 O 407.316 -1.42558 -1.34366 0
M  V30 4352 H 405.896 -0.651511 0.365435 0
M  V30 4353 H 408.558 -1.24004 1.50363 0
M  V30 4354 H 407.654 -2.76661 1.44447 0
M  V30 4355 N 407.956 -0.998596 -1.21925 0
M  V30 4356 C 409.186 -0.695276 -1.94549 0
M  V30 4357 C 409.594 0.745079 -1.73911 0
M  V30 4358 O 408.937 1.51507 -1.03881 0
M  V30 4359 C 408.999 -0.928485 -3.47303 0
M  V30 4360 C 408.663 -2.35443 -3.91683 0
M  V30 4361 C 409.66 -3.33428 -3.98901 0
M  V30 4362 C 407.345 -2.69038 -4.24174 0
M  V30 4363 C 409.339 -4.63079 -4.37992 0
M  V30 4364 C 407.026 -3.98906 -4.62944 0
M  V30 4365 C 408.024 -4.95738 -4.69822 0
M  V30 4366 O 407.712 -6.23285 -5.07711 0
M  V30 4367 H 407.444 -0.255902 -0.625692 0
M  V30 4368 H 409.998 -1.33767 -1.5587 0
M  V30 4369 H 408.228 -0.228917 -3.86022 0
M  V30 4370 H 409.917 -0.619539 -4.01144 0
M  V30 4371 H 410.683 -3.08807 -3.73983 0
M  V30 4372 H 406.562 -1.94367 -4.18022 0
M  V30 4373 H 410.106 -5.38658 -4.43275 0
M  V30 4374 H 406.003 -4.23314 -4.87314 0
M  V30 4375 H 406.771 -6.27306 -5.25766 0
M  V30 4376 N 409.434 1.37368 -0.772513 0
M  V30 4377 C 410.681 1.99673 -0.337182 0
M  V30 4378 C 411.009 1.61324 1.0865 0
M  V30 4379 O 410.264 0.851377 1.7621 0
M  V30 4380 C 410.563 3.54817 -0.428876 0
M  V30 4381 C 410.229 4.12936 -1.81092 0
M  V30 4382 C 408.891 4.28523 -2.1891 0
M  V30 4383 C 411.243 4.44801 -2.71664 0
M  V30 4384 C 408.571 4.73277 -3.46735 0
M  V30 4385 C 410.923 4.90981 -3.98899 0
M  V30 4386 C 409.587 5.04773 -4.36761 0
M  V30 4387 H 408.857 0.730656 -0.123384 0
M  V30 4388 H 411.504 1.64124 -0.986686 0
M  V30 4389 H 409.809 3.90618 0.304167 0
M  V30 4390 H 411.506 4.00933 -0.0733334 0
M  V30 4391 H 408.096 4.01233 -1.50699 0
M  V30 4392 H 412.28 4.32344 -2.43706 0
M  V30 4393 H 407.536 4.82142 -3.75964 0
M  V30 4394 H 411.71 5.14603 -4.69208 0
M  V30 4395 H 409.337 5.39211 -5.35868 0
M  V30 4396 N 410.912 0.523116 1.48665 0
M  V30 4397 C 412.158 -0.0134963 2.02796 0
M  V30 4398 C 412.491 -1.34582 1.40004 0
M  V30 4399 O 411.766 -1.86756 0.543381 0
M  V30 4400 C 412.049 -0.14276 3.59817 0
M  V30 4401 C 411.902 1.21425 4.331 0
M  V30 4402 C 413.221 -0.872856 4.31357 0
M  V30 4403 H 410.34 -0.00343074 0.736992 0
M  V30 4404 H 412.982 0.678816 1.7746 0
M  V30 4405 H 411.132 -0.732401 3.81534 0
M  V30 4406 H 412.804 1.84447 4.2282 0
M  V30 4407 H 411.047 1.79791 3.94788 0
M  V30 4408 H 411.718 1.07687 5.41394 0
M  V30 4409 H 414.194 -0.372555 4.14429 0
M  V30 4410 H 413.07 -0.932185 5.40927 0
M  V30 4411 H 413.331 -1.92161 3.98154 0
M  V30 4412 N 412.39 -1.55475 0.257931 0
M  V30 4413 C 413.639 -1.98383 -0.364275 0
M  V30 4414 C 413.952 -1.14952 -1.58258 0
M  V30 4415 O 415.158 -1.47924 -2.27664 0
M  V30 4416 C 413.614 -3.53037 -0.699479 0
M  V30 4417 C 413.222 -4.45223 0.498046 0
M  V30 4418 C 414.966 -4.04575 -1.28526 0
M  V30 4419 C 412.873 -5.91238 0.138383 0
M  V30 4420 H 411.803 -0.740911 -0.13988 0
M  V30 4421 H 414.454 -1.79936 0.359883 0
M  V30 4422 H 412.836 -3.6722 -1.48207 0
M  V30 4423 H 414.01 -4.42803 1.27522 0
M  V30 4424 H 412.325 -4.04226 0.999503 0
M  V30 4425 H 414.922 -5.11196 -1.56788 0
M  V30 4426 H 415.265 -3.5258 -2.21344 0
M  V30 4427 H 415.798 -3.93762 -0.565337 0
M  V30 4428 H 412.537 -6.47294 1.03398 0
M  V30 4429 H 412.057 -5.96768 -0.602374 0
M  V30 4430 H 413.736 -6.46413 -0.27553 0
M  V30 4431 N 413.868 0.0150385 -1.57593 0
M  V30 4432 C 414.8 1.03912 -2.04291 0
M  V30 4433 C 415.813 1.31618 -0.958146 0
M  V30 4434 O 417.002 1.28859 -1.23522 0
M  V30 4435 C 414.102 2.37749 -2.41514 0
M  V30 4436 C 413.275 2.29198 -3.72541 0
M  V30 4437 C 412.334 3.45598 -3.96797 0
M  V30 4438 O 411.36 3.24461 -4.67668 0
M  V30 4439 N 412.562 4.67945 -3.43523 0
M  V30 4440 H 415.327 0.64099 -2.92765 0
M  V30 4441 H 412.888 0.20272 -1.60626 0
M  V30 4442 H 414.88 3.14364 -2.54867 0
M  V30 4443 H 413.45 2.69357 -1.58637 0
M  V30 4444 H 412.67 1.3759 -3.69408 0
M  V30 4445 H 413.958 2.20642 -4.5847 0
M  V30 4446 H 413.356 4.88017 -2.86104 0
M  V30 4447 H 411.913 5.41878 -3.62232 0
M  V30 4448 N 415.346 1.54954 0.287554 0
M  V30 4449 C 416.574 1.78881 1.03967 0
M  V30 4450 C 416.989 0.554894 1.80462 0
M  V30 4451 O 416.346 -0.475676 1.76192 0
M  V30 4452 C 416.397 3.00488 2.0097 0
M  V30 4453 O 416.118 4.19113 1.27577 0
M  V30 4454 C 417.619 3.36907 2.88112 0
M  V30 4455 H 414.839 0.596259 0.307761 0
M  V30 4456 H 417.383 2.01937 0.322749 0
M  V30 4457 H 415.538 2.79601 2.68145 0
M  V30 4458 H 415.952 4.87765 1.92835 0
M  V30 4459 H 417.426 4.25205 3.52001 0
M  V30 4460 H 417.903 2.55659 3.57121 0
M  V30 4461 H 418.509 3.60001 2.26449 0
M  V30 4462 N 416.824 -0.551391 1.4764 0
M  V30 4463 C 418.054 -1.33163 1.57959 0
M  V30 4464 C 418.462 -1.87785 0.23094 0
M  V30 4465 O 417.805 -1.65996 -0.786825 0
M  V30 4466 C 417.867 -2.53449 2.54958 0
M  V30 4467 C 417.531 -2.20071 4.00522 0
M  V30 4468 C 418.528 -1.77017 4.88836 0
M  V30 4469 C 416.213 -2.31252 4.45901 0
M  V30 4470 C 418.207 -1.4558 6.20552 0
M  V30 4471 C 415.894 -1.99427 5.77644 0
M  V30 4472 C 416.892 -1.56659 6.64791 0
M  V30 4473 O 416.58 -1.25242 7.94084 0
M  V30 4474 H 416.312 -0.412022 0.535923 0
M  V30 4475 H 418.866 -0.674186 1.9402 0
M  V30 4476 H 417.096 -3.22104 2.13976 0
M  V30 4477 H 418.785 -3.15523 2.55343 0
M  V30 4478 H 419.551 -1.67867 4.55023 0
M  V30 4479 H 415.43 -2.63498 3.78272 0
M  V30 4480 H 418.974 -1.12125 6.8853 0
M  V30 4481 H 414.871 -2.08211 6.10998 0
M  V30 4482 H 415.639 -1.38822 8.06642 0
M  V30 4483 N 418.302 -1.35869 -0.798587 0
M  V30 4484 C 419.232 -1.32118 -1.92528 0
M  V30 4485 C 420.213 -0.194209 -1.68988 0
M  V30 4486 O 421.398 -0.390426 -1.90235 0
M  V30 4487 C 418.528 -1.10047 -3.29404 0
M  V30 4488 C 417.482 -2.19471 -3.67446 0
M  V30 4489 C 416.808 -1.82555 -5.02571 0
M  V30 4490 C 418.108 -3.61495 -3.76987 0
M  V30 4491 H 419.802 -2.26394 -1.95924 0
M  V30 4492 H 417.348 -1.08981 -0.94123 0
M  V30 4493 H 419.301 -1.06061 -4.07835 0
M  V30 4494 H 418.025 -0.122195 -3.26371 0
M  V30 4495 H 416.684 -2.22568 -2.91306 0
M  V30 4496 H 416.332 -0.833249 -4.9605 0
M  V30 4497 H 416.032 -2.5581 -5.28995 0
M  V30 4498 H 417.556 -1.80108 -5.83432 0
M  V30 4499 H 418.97 -3.60676 -4.4563 0
M  V30 4500 H 417.367 -4.33577 -4.14887 0
M  V30 4501 H 418.437 -3.97065 -2.78329 0
M  V30 4502 N 419.78 1.02168 -1.19998 0
M  V30 4503 C 421.191 1.57135 -1.00825 0
M  V30 4504 C 421.542 1.91276 0.436818 0
M  V30 4505 O 420.667 1.71679 1.3174 0
M  V30 4506 C 421.262 2.85514 -1.82393 0
M  V30 4507 C 419.821 3.37027 -1.67601 0
M  V30 4508 C 418.968 2.10388 -1.80644 0
M  V30 4509 H 421.919 0.846106 -1.34264 0
M  V30 4510 H 421.94 3.56711 -1.32429 0
M  V30 4511 H 421.452 2.60634 -2.87561 0
M  V30 4512 H 419.553 3.66878 -0.650485 0
M  V30 4513 H 419.666 4.09572 -2.4857 0
M  V30 4514 H 418.03 2.22601 -1.23778 0
M  V30 4515 H 418.813 1.8794 -2.87286 0
M  V30 4516 N 421.258 1.00505 1.21394 0
M  V30 4517 C 422.498 0.696149 1.9218 0
M  V30 4518 C 422.862 -0.759099 1.76357 0
M  V30 4519 O 424.063 -1.17998 2.41516 0
M  V30 4520 C 422.334 1.10571 3.39866 0
M  V30 4521 S 423.893 0.91702 4.29111 0
M  V30 4522 H 420.711 0.254147 0.664026 0
M  V30 4523 H 423.313 1.28988 1.46909 0
M  V30 4524 H 422.017 2.16096 3.489 0
M  V30 4525 H 421.548 0.504268 3.90155 0
M  V30 4526 H 423.563 -0.185855 4.95852 0
M  V30 4527 N 422.737 -1.36956 0.779787 0
M  V30 4528 C 423.986 -1.98738 0.344405 0
M  V30 4529 C 424.299 -1.62596 -1.08728 0
M  V30 4530 O 425.505 -2.1754 -1.62445 0
M  V30 4531 C 423.961 -3.5544 0.564829 0
M  V30 4532 C 423.569 -4.00514 2.0073 0
M  V30 4533 C 425.313 -4.24059 0.193471 0
M  V30 4534 C 423.22 -5.49957 2.17489 0
M  V30 4535 H 422.15 -0.743561 0.12503 0
M  V30 4536 H 424.801 -1.56381 0.960057 0
M  V30 4537 H 423.183 -3.95817 -0.120397 0
M  V30 4538 H 424.357 -3.71362 2.72814 0
M  V30 4539 H 422.672 -3.44703 2.336 0
M  V30 4540 H 425.269 -5.33874 0.297097 0
M  V30 4541 H 425.612 -4.07378 -0.857263 0
M  V30 4542 H 426.145 -3.89012 0.831556 0
M  V30 4543 H 422.884 -5.71574 3.2091 0
M  V30 4544 H 422.404 -5.80767 1.49899 0
M  V30 4545 H 424.083 -6.16043 1.97738 0
M  V30 4546 N 424.215 -0.530993 -1.48385 0
M  V30 4547 C 425.148 0.278511 -2.26494 0
M  V30 4548 C 426.126 0.943905 -1.32398 0
M  V30 4549 O 427.31 0.968098 -1.61741 0
M  V30 4550 C 424.437 1.39453 -3.08659 0
M  V30 4551 C 423.483 0.840434 -4.18137 0
M  V30 4552 S 424.316 -0.292496 -5.34701 0
M  V30 4553 C 425.472 0.825973 -6.20426 0
M  V30 4554 H 425.705 -0.384365 -2.94805 0
M  V30 4555 H 423.238 -0.316799 -1.51115 0
M  V30 4556 H 425.196 2.03382 -3.56575 0
M  V30 4557 H 423.857 2.02913 -2.3976 0
M  V30 4558 H 423.05 1.67769 -4.75257 0
M  V30 4559 H 422.652 0.277819 -3.72967 0
M  V30 4560 H 424.944 1.72438 -6.55188 0
M  V30 4561 H 425.887 0.292728 -7.07495 0
M  V30 4562 H 426.295 1.10683 -5.53543 0
M  V30 4563 N 425.693 1.55336 -0.266172 0
M  V30 4564 C 426.921 2.03801 0.356756 0
M  V30 4565 C 427.336 1.14485 1.50129 0
M  V30 4566 O 426.693 0.163121 1.8177 0
M  V30 4567 C 426.744 3.51455 0.846281 0
M  V30 4568 O 426.465 4.37371 -0.252663 0
M  V30 4569 C 427.966 4.15767 1.53794 0
M  V30 4570 H 425.186 0.665906 0.0825218 0
M  V30 4571 H 427.73 2.00636 -0.39566 0
M  V30 4572 H 425.885 3.55092 1.54881 0
M  V30 4573 H 426.299 5.24358 0.122173 0
M  V30 4574 H 427.773 5.20714 1.83198 0
M  V30 4575 H 428.25 3.63404 2.46646 0
M  V30 4576 H 428.856 4.16107 0.879488 0
M  V30 4577 N 427.171 -0.0066808 1.57599 0
M  V30 4578 C 428.417 -0.693947 1.90558 0
M  V30 4579 C 428.75 -1.73792 0.866594 0
M  V30 4580 O 428.025 -1.94156 -0.115548 0
M  V30 4581 C 428.308 -1.34317 3.34112 0
M  V30 4582 C 428.161 -0.311189 4.48722 0
M  V30 4583 C 429.48 -2.27116 3.7697 0
M  V30 4584 H 426.599 -0.250803 0.693013 0
M  V30 4585 H 429.241 0.043242 1.89951 0
M  V30 4586 H 427.391 -1.9715 3.3476 0
M  V30 4587 H 429.063 0.316944 4.6021 0
M  V30 4588 H 427.306 0.367253 4.32243 0
M  V30 4589 H 427.977 -0.804366 5.46108 0
M  V30 4590 H 430.453 -1.74306 3.77831 0
M  V30 4591 H 429.329 -2.69511 4.78179 0
M  V30 4592 H 429.59 -3.14743 3.10466 0
M  V30 4593 N 428.649 -1.55105 -0.279332 0
M  V30 4594 C 429.898 -1.74618 -1.00952 0
M  V30 4595 C 430.211 -0.551096 -1.87676 0
M  V30 4596 O 431.417 -0.628507 -2.64125 0
M  V30 4597 C 429.873 -3.09025 -1.84476 0
M  V30 4598 C 429.481 -4.36081 -1.0265 0
M  V30 4599 C 431.225 -3.37891 -2.56963 0
M  V30 4600 C 429.132 -5.6153 -1.85576 0
M  V30 4601 H 428.062 -0.650868 -0.38064 0
M  V30 4602 H 430.713 -1.81569 -0.265475 0
M  V30 4603 H 429.095 -2.96095 -2.62952 0
M  V30 4604 H 430.269 -4.59909 -0.286354 0
M  V30 4605 H 428.584 -4.14312 -0.416464 0
M  V30 4606 H 431.181 -4.28822 -3.19399 0
M  V30 4607 H 431.524 -2.57737 -3.26921 0
M  V30 4608 H 432.057 -3.5189 -1.85522 0
M  V30 4609 H 428.796 -6.44413 -1.2005 0
M  V30 4610 H 428.316 -5.41854 -2.57204 0
M  V30 4611 H 429.995 -5.99594 -2.43096 0
M  V30 4612 N 430.127 0.543554 -1.4793 0
M  V30 4613 C 431.057 1.65888 -1.64327 0
M  V30 4614 C 432.038 1.62818 -0.492383 0
M  V30 4615 O 433.223 1.80226 -0.723338 0
M  V30 4616 C 430.353 3.04506 -1.67013 0
M  V30 4617 C 429.307 3.2243 -2.81466 0
M  V30 4618 C 428.633 4.61972 -2.69233 0
M  V30 4619 C 429.933 3.06496 -4.22915 0
M  V30 4620 H 431.627 1.52421 -2.57698 0
M  V30 4621 H 429.173 0.731849 -1.24016 0
M  V30 4622 H 431.126 3.82391 -1.77074 0
M  V30 4623 H 429.85 3.18964 -0.70212 0
M  V30 4624 H 428.509 2.46957 -2.70938 0
M  V30 4625 H 428.157 4.73247 -1.7043 0
M  V30 4626 H 427.857 4.74911 -3.46025 0
M  V30 4627 H 429.381 5.41974 -2.81242 0
M  V30 4628 H 430.795 3.74186 -4.34348 0
M  V30 4629 H 429.192 3.30938 -5.006 0
M  V30 4630 H 430.262 2.03077 -4.40327 0
M  V30 4631 N 431.605 1.3629 0.791371 0
M  V30 4632 C 432.83 1.33726 1.58531 0
M  V30 4633 C 433.255 -0.0794933 1.87932 0
M  V30 4634 O 432.613 -1.05087 1.47738 0
M  V30 4635 C 432.661 2.16425 2.88431 0
M  V30 4636 O 431.765 1.5554 3.81944 0
M  V30 4637 H 431.106 0.457793 0.480959 0
M  V30 4638 H 433.636 1.79547 0.981031 0
M  V30 4639 H 433.646 2.28933 3.37718 0
M  V30 4640 H 432.321 3.19415 2.66359 0
M  V30 4641 H 430.898 1.51961 3.40532 0
M  V30 4642 N 433.083 -1.0153 1.20538 0
M  V30 4643 C 434.015 -2.10224 0.913155 0
M  V30 4644 C 435.028 -1.62495 -0.0995998 0
M  V30 4645 O 436.217 -1.78014 0.131582 0
M  V30 4646 C 433.317 -3.37111 0.347717 0
M  V30 4647 C 432.49 -4.13971 1.41233 0
M  V30 4648 C 431.549 -5.19158 0.857976 0
M  V30 4649 O 430.575 -5.48 1.53897 0
M  V30 4650 N 431.777 -5.7955 -0.331966 0
M  V30 4651 H 434.542 -2.35879 1.84881 0
M  V30 4652 H 432.103 -1.17931 1.10923 0
M  V30 4653 H 434.095 -4.04683 -0.0373026 0
M  V30 4654 H 432.665 -3.08696 -0.492527 0
M  V30 4655 H 431.885 -3.41351 1.97163 0
M  V30 4656 H 433.173 -4.62103 2.12928 0
M  V30 4657 H 432.571 -5.58455 -0.902478 0
M  V30 4658 H 431.128 -6.48464 -0.65861 0
M  V30 4659 N 434.561 -1.01147 -1.20859 0
M  V30 4660 C 435.807 -0.698899 -1.90377 0
M  V30 4661 C 436.14 0.76904 -1.78324 0
M  V30 4662 O 435.415 1.55817 -1.16409 0
M  V30 4663 C 435.698 -1.12878 -3.41951 0
M  V30 4664 C 435.551 -2.65665 -3.62963 0
M  V30 4665 C 436.87 -0.696114 -4.3456 0
M  V30 4666 H 433.989 -0.255372 -0.691342 0
M  V30 4667 H 436.631 -1.25831 -1.42361 0
M  V30 4668 H 434.781 -0.652827 -3.82976 0
M  V30 4669 H 436.453 -3.21074 -3.31224 0
M  V30 4670 H 434.696 -3.06878 -3.06608 0
M  V30 4671 H 435.367 -2.90797 -4.69192 0
M  V30 4672 H 437.843 -1.10521 -4.01154 0
M  V30 4673 H 436.719 -1.025 -5.39245 0
M  V30 4674 H 436.98 0.402465 -4.40264 0
M  V30 4675 N 436.039 1.36541 -0.78704 0
M  V30 4676 C 437.264 2.0409 -0.369053 0
M  V30 4677 C 437.689 1.58957 1.00569 0
M  V30 4678 O 437.047 0.756926 1.64743 0
M  V30 4679 C 437.095 3.57924 -0.438466 0
M  V30 4680 O 436.199 4.08642 0.555479 0
M  V30 4681 H 435.54 0.645142 -0.157122 0
M  V30 4682 H 438.07 1.74545 -1.06749 0
M  V30 4683 H 438.08 4.06887 -0.301218 0
M  V30 4684 H 436.755 3.90127 -1.44132 0
M  V30 4685 H 435.332 3.70958 0.380088 0
M  V30 4686 N 437.518 0.538854 1.48102 0
M  V30 4687 C 438.765 0.0080018 2.02498 0
M  V30 4688 C 439.093 -1.33437 1.41509 0
M  V30 4689 O 438.348 -1.87709 0.553507 0
M  V30 4690 C 438.647 -0.153808 3.57069 0
M  V30 4691 C 438.313 1.11533 4.36888 0
M  V30 4692 C 436.975 1.46314 4.58417 0
M  V30 4693 C 439.327 1.95718 4.83057 0
M  V30 4694 C 436.655 2.6516 5.23361 0
M  V30 4695 C 439.007 3.13751 5.49312 0
M  V30 4696 C 437.671 3.48866 5.69077 0
M  V30 4697 H 436.941 0.00292807 0.740994 0
M  V30 4698 H 439.588 0.706668 1.77984 0
M  V30 4699 H 437.893 -0.935309 3.80472 0
M  V30 4700 H 439.59 -0.579607 3.96789 0
M  V30 4701 H 436.18 0.834484 4.20398 0
M  V30 4702 H 440.364 1.70158 4.66219 0
M  V30 4703 H 435.62 2.92558 5.36861 0
M  V30 4704 H 439.794 3.79282 5.84053 0
M  V30 4705 H 437.421 4.41054 6.19173 0
M  V30 4706 N 438.996 -1.55193 0.274407 0
M  V30 4707 C 440.242 -2.00604 -0.33608 0
M  V30 4708 C 440.597 -1.15948 -1.53538 0
M  V30 4709 O 439.89 -0.221385 -1.90317 0
M  V30 4710 C 440.084 -3.49019 -0.769458 0
M  V30 4711 C 439.913 -4.48038 0.386301 0
M  V30 4712 C 438.683 -4.97757 0.869854 0
M  V30 4713 C 440.881 -4.99558 1.22254 0
M  V30 4714 N 438.863 -5.80575 1.99515 0
M  V30 4715 C 440.234 -5.79816 2.19575 0
M  V30 4716 C 442.289 -4.81799 1.25597 0
M  V30 4717 C 440.992 -6.44208 3.19981 0
M  V30 4718 C 443.018 -5.46989 2.24848 0
M  V30 4719 C 442.38 -6.27058 3.20901 0
M  V30 4720 H 438.479 -0.777013 -0.088172 0
M  V30 4721 H 441.063 -1.90583 0.398266 0
M  V30 4722 H 439.234 -3.59383 -1.47303 0
M  V30 4723 H 440.966 -3.81263 -1.35722 0
M  V30 4724 H 437.721 -4.71464 0.449281 0
M  V30 4725 H 438.145 -6.26675 2.5614 0
M  V30 4726 H 442.787 -4.19501 0.527158 0
M  V30 4727 H 440.505 -7.05656 3.93796 0
M  V30 4728 H 444.091 -5.35189 2.28174 0
M  V30 4729 H 442.971 -6.7661 3.96445 0
M  V30 4730 N 440.474 -0.00167713 -1.576 0
M  V30 4731 C 441.404 0.988091 -2.11563 0
M  V30 4732 C 442.385 1.35736 -1.02517 0
M  V30 4733 O 443.57 1.44082 -1.30208 0
M  V30 4734 C 440.7 2.27941 -2.62031 0
M  V30 4735 C 439.654 2.0517 -3.75619 0
M  V30 4736 C 438.98 3.4033 -4.12407 0
M  V30 4737 C 440.28 1.41294 -5.02825 0
M  V30 4738 H 441.974 0.538771 -2.94513 0
M  V30 4739 H 439.52 0.257712 -1.41675 0
M  V30 4740 H 441.473 2.97539 -2.9841 0
M  V30 4741 H 440.197 2.74989 -1.76205 0
M  V30 4742 H 438.856 1.37998 -3.39635 0
M  V30 4743 H 438.504 3.85085 -3.23603 0
M  V30 4744 H 438.204 3.25909 -4.88935 0
M  V30 4745 H 439.728 4.1124 -4.51347 0
M  V30 4746 H 441.142 2.00851 -5.36965 0
M  V30 4747 H 439.539 1.37356 -5.84169 0
M  V30 4748 H 440.609 0.382362 -4.8339 0
M  V30 4749 N 441.952 1.55251 0.271103 0
M  V30 4750 C 442.9 1.89054 1.35504 0
M  V30 4751 C 443.894 0.767064 1.51038 0
M  V30 4752 O 445.1 0.951429 1.528 0
M  V30 4753 H 441.475 0.600072 0.45323 0
M  V30 4754 H 443.446 2.79598 1.04247 0
M  V30 4755 C 442.195 2.18068 2.70817 0
M  V30 4756 H 441.518 3.04005 2.59656 0
M  V30 4757 H 442.958 2.4564 3.45597 0
M  V30 4758 C 441.417 0.988901 3.2206 0
M  V30 4759 O 441.947 0.224501 4.01072 0
M  V30 4760 N 440.153 0.786085 2.79766 0
M  V30 4761 H 439.7 1.40937 2.15626 0
M  V30 4762 H 439.658 -0.00969349 3.14399 0
M  V30 4763 N 443.43 -0.535701 1.48216 0
M  V30 4764 C 444.846 -0.863701 1.3421 0
M  V30 4765 C 445.046 -1.98458 0.34879 0
M  V30 4766 O 444.102 -2.51432 -0.23204 0
M  V30 4767 C 445.415 -1.23662 2.74095 0
M  V30 4768 C 446.963 -1.34683 2.82541 0
M  V30 4769 C 447.438 -1.75322 4.23115 0
M  V30 4770 N 448.929 -1.82434 4.2576 0
M  V30 4771 C 449.664 -2.15252 5.31464 0
M  V30 4772 N 449.16 -2.46533 6.47452 0
M  V30 4773 N 450.953 -2.16209 5.18855 0
M  V30 4774 H 443.104 0.203965 2.11418 0
M  V30 4775 H 445.367 0.0286033 0.947568 0
M  V30 4776 H 445.073 -0.486674 3.48316 0
M  V30 4777 H 444.947 -2.18805 3.07253 0
M  V30 4778 H 447.334 -2.08756 2.08579 0
M  V30 4779 H 447.415 -0.376756 2.5301 0
M  V30 4780 H 447.059 -1.01812 4.97591 0
M  V30 4781 H 446.989 -2.7337 4.50085 0
M  V30 4782 H 449.48 -1.6056 3.42095 0
M  V30 4783 H 449.793 -2.70662 7.23852 0
M  V30 4784 H 448.138 -2.44065 6.50736 0
M  V30 4785 H 451.329 -1.91224 4.2726 0
M  V30 4786 H 451.502 -2.41453 6.01335 0
M  V30 4787 N 444.908 -1.36708 -0.784132 0
M  V30 4788 C 445.818 -1.3363 -1.92822 0
M  V30 4789 C 446.834 -0.237686 -1.72369 0
M  V30 4790 O 448.01 -0.470962 -1.95816 0
M  V30 4791 C 445.075 -1.13011 -3.27764 0
M  V30 4792 C 444.136 -2.32397 -3.60957 0
M  V30 4793 C 443.369 -2.12752 -4.89461 0
M  V30 4794 O 443.592 -1.10541 -5.59586 0
M  V30 4795 O 442.526 -3.00653 -5.21432 0
M  V30 4796 H 446.352 -2.29964 -1.98369 0
M  V30 4797 H 443.937 -1.1731 -0.925136 0
M  V30 4798 H 445.819 -1.03451 -4.08504 0
M  V30 4799 H 444.494 -0.19743 -3.23097 0
M  V30 4800 H 443.401 -2.47527 -2.80502 0
M  V30 4801 H 444.734 -3.2419 -3.70354 0
M  V30 4802 N 446.386 1.0089 -1.21074 0
M  V30 4803 C 447.611 1.78727 -1.05221 0
M  V30 4804 C 448.036 1.83932 0.393795 0
M  V30 4805 O 447.394 1.28004 1.28393 0
M  V30 4806 C 447.442 3.20665 -1.64944 0
M  V30 4807 O 446.546 4.02632 -0.892273 0
M  V30 4808 H 445.887 0.550973 -0.370574 0
M  V30 4809 H 448.417 1.26847 -1.60534 0
M  V30 4810 H 448.427 3.71352 -1.69002 0
M  V30 4811 H 447.102 3.16191 -2.70177 0
M  V30 4812 H 445.679 3.61207 -0.926492 0
M  V30 4813 N 447.864 1.01787 1.20321 0
M  V30 4814 C 449.11 0.708985 1.90003 0
M  V30 4815 C 449.443 -0.759572 1.78729 0
M  V30 4816 O 448.718 -1.55198 1.17234 0
M  V30 4817 C 449.001 1.1469 3.41348 0
M  V30 4818 C 448.854 2.67586 3.61549 0
M  V30 4819 C 450.173 0.71915 4.34185 0
M  V30 4820 H 447.292 0.259034 0.689978 0
M  V30 4821 H 449.934 1.26584 1.41692 0
M  V30 4822 H 448.084 0.673128 3.82624 0
M  V30 4823 H 449.756 3.22826 3.29517 0
M  V30 4824 H 447.999 3.085 3.04976 0
M  V30 4825 H 448.67 2.93281 4.67643 0
M  V30 4826 H 451.146 1.12647 4.00562 0
M  V30 4827 H 450.022 1.05358 5.38694 0
M  V30 4828 H 450.283 -0.379111 4.40472 0
M  V30 4829 N 449.342 -1.36122 0.79427 0
M  V30 4830 C 450.753 -1.81646 0.431446 0
M  V30 4831 C 451.104 -1.66043 -1.04518 0
M  V30 4832 O 450.229 -1.1841 -1.8113 0
M  V30 4833 C 450.824 -3.29785 0.776341 0
M  V30 4834 C 449.383 -3.73501 0.466282 0
M  V30 4835 C 448.53 -2.58313 1.00844 0
M  V30 4836 H 451.481 -1.24274 0.986995 0
M  V30 4837 H 451.502 -3.80437 0.0692413 0
M  V30 4838 H 451.014 -3.4111 1.8511 0
M  V30 4839 H 449.115 -3.67733 -0.600245 0
M  V30 4840 H 449.228 -4.68754 0.990288 0
M  V30 4841 H 447.592 -2.5102 0.431406 0
M  V30 4842 H 448.375 -2.72421 2.08906 0
M  V30 4843 N 450.82 -0.546701 -1.47814 0
M  V30 4844 C 451.783 0.196287 -2.28358 0
M  V30 4845 C 452.783 0.852437 -1.36346 0
M  V30 4846 O 453.973 0.709913 -1.59078 0
M  V30 4847 C 451.105 1.28579 -3.15722 0
M  V30 4848 H 452.298 -0.511086 -2.95513 0
M  V30 4849 H 449.851 -0.303248 -1.5333 0
M  V30 4850 H 450.586 2.0259 -2.53235 0
M  V30 4851 H 450.371 0.820229 -3.83425 0
M  V30 4852 H 451.861 1.80793 -3.76435 0
M  V30 4853 N 452.299 1.55045 -0.282633 0
M  V30 4854 C 453.715 1.59441 0.0712997 0
M  V30 4855 C 453.915 1.2998 1.53972 0
M  V30 4856 O 452.971 1.06431 2.28973 0
M  V30 4857 C 454.284 2.99097 -0.310104 0
M  V30 4858 C 455.832 3.1194 -0.257343 0
M  V30 4859 C 456.307 4.53875 -0.613297 0
M  V30 4860 N 457.798 4.5974 -0.565134 0
M  V30 4861 C 458.533 5.67603 -0.81326 0
M  V30 4862 N 458.029 6.83582 -1.1264 0
M  V30 4863 N 459.822 5.57187 -0.741553 0
M  V30 4864 H 451.973 1.72458 -1.23984 0
M  V30 4865 H 454.236 0.804549 -0.501403 0
M  V30 4866 H 453.942 3.25516 -1.33163 0
M  V30 4867 H 453.816 3.75616 0.345366 0
M  V30 4868 H 456.203 2.85281 0.754905 0
M  V30 4869 H 456.284 2.37618 -0.947178 0
M  V30 4870 H 455.928 4.81261 -1.62327 0
M  V30 4871 H 455.858 5.26508 0.09841 0
M  V30 4872 H 458.349 3.76427 -0.333294 0
M  V30 4873 H 458.662 7.6175 -1.30219 0
M  V30 4874 H 457.007 6.85179 -1.16425 0
M  V30 4875 H 460.198 4.65457 -0.496705 0
M  V30 4876 H 460.371 6.41171 -0.938306 0
M  V30 4877 N 453.777 0.010035 1.57597 0
M  V30 4878 C 455.005 -0.683413 1.95287 0
M  V30 4879 C 455.42 -1.66747 0.885481 0
M  V30 4880 O 454.777 -1.82003 -0.134629 0
M  V30 4881 C 454.828 -1.40652 3.33015 0
M  V30 4882 O 454.549 -0.461916 4.35658 0
M  V30 4883 C 456.05 -2.19356 3.85225 0
M  V30 4884 H 453.27 -0.189708 0.643624 0
M  V30 4885 H 455.814 0.0641359 2.04399 0
M  V30 4886 H 453.969 -2.10562 3.2518 0
M  V30 4887 H 454.383 -0.973215 5.15392 0
M  V30 4888 H 455.857 -2.65433 4.83993 0
M  V30 4889 H 456.334 -3.02457 3.18459 0
M  V30 4890 H 456.94 -1.54442 3.96267 0
M  V30 4891 N 455.255 -1.55392 -0.262866 0
M  V30 4892 C 456.501 -1.76737 -0.99458 0
M  V30 4893 C 456.834 -0.572453 -1.85571 0
M  V30 4894 O 456.109 0.429732 -1.89693 0
M  V30 4895 C 456.392 -3.07824 -1.8686 0
M  V30 4896 C 456.245 -4.3769 -1.03672 0
M  V30 4897 C 457.564 -3.35021 -2.85393 0
M  V30 4898 H 454.683 -0.643005 -0.360157 0
M  V30 4899 H 457.325 -1.88126 -0.266216 0
M  V30 4900 H 455.475 -2.98245 -2.48962 0
M  V30 4901 H 457.147 -4.59238 -0.43563 0
M  V30 4902 H 455.39 -4.32461 -0.340513 0
M  V30 4903 H 456.061 -5.25759 -1.6817 0
M  V30 4904 H 458.537 -3.44458 -2.33426 0
M  V30 4905 H 457.413 -4.27989 -3.43681 0
M  V30 4906 H 457.674 -2.55153 -3.61039 0
M  V30 4907 N 456.733 0.527833 -1.48498 0
M  V30 4908 C 457.98 1.28354 -1.56625 0
M  V30 4909 C 458.308 1.93 -0.241096 0
M  V30 4910 O 457.563 1.79967 0.768798 0
M  V30 4911 C 457.862 2.39275 -2.65485 0
M  V30 4912 C 457.528 1.92268 -4.07853 0
M  V30 4913 C 456.19 1.79166 -4.46602 0
M  V30 4914 C 458.542 1.56771 -4.97064 0
M  V30 4915 C 455.87 1.28905 -5.72364 0
M  V30 4916 C 458.222 1.07972 -6.23318 0
M  V30 4917 C 456.886 0.934887 -6.60921 0
M  V30 4918 H 456.156 0.469682 -0.573131 0
M  V30 4919 H 458.803 0.588781 -1.82224 0
M  V30 4920 H 457.108 3.1443 -2.33754 0
M  V30 4921 H 458.805 2.974 -2.68988 0
M  V30 4922 H 455.395 2.03417 -3.77252 0
M  V30 4923 H 459.579 1.65753 -4.67803 0
M  V30 4924 H 454.835 1.16381 -6.00221 0
M  V30 4925 H 459.009 0.795775 -6.91838 0
M  V30 4926 H 456.636 0.543231 -7.58257 0
M  V30 4927 N 458.211 1.37122 0.776871 0
M  V30 4928 C 459.459 1.31787 1.53221 0
M  V30 4929 C 459.78 -0.0987589 1.9475 0
M  V30 4930 O 459.05 -1.0417 1.65908 0
M  V30 4931 H 457.63 0.484839 0.568278 0
M  V30 4932 H 460.292 1.71556 0.924917 0
M  V30 4933 H 459.388 1.95355 2.43398 0
M  V30 4934 N 459.689 -1.00246 1.21608 0
M  V30 4935 C 460.935 -1.74319 1.03638 0
M  V30 4936 C 461.268 -1.89408 -0.428749 0
M  V30 4937 O 460.543 -1.43026 -1.3181 0
M  V30 4938 C 460.826 -3.15431 1.73711 0
M  V30 4939 C 460.679 -3.08049 3.27759 0
M  V30 4940 C 461.998 -4.14407 1.48173 0
M  V30 4941 H 459.117 -0.632741 0.377899 0
M  V30 4942 H 461.759 -1.16853 1.49818 0
M  V30 4943 H 459.909 -3.64493 1.34452 0
M  V30 4944 H 461.581 -2.66681 3.76403 0
M  V30 4945 H 459.824 -2.45088 3.57931 0
M  V30 4946 H 460.495 -4.07862 3.71958 0
M  V30 4947 H 462.971 -3.74061 1.82258 0
M  V30 4948 H 461.847 -5.11279 1.99713 0
M  V30 4949 H 462.108 -4.40174 0.412273 0
M  V30 4950 N 461.167 -1.02423 -1.1978 0
M  V30 4951 C 462.395 -0.737456 -1.93311 0
M  V30 4952 C 462.81 0.703023 -1.75223 0
M  V30 4953 O 462.167 1.47761 -1.07112 0
M  V30 4954 C 462.218 -1.0733 -3.45199 0
M  V30 4955 O 461.939 -2.4572 -3.62702 0
M  V30 4956 C 463.44 -0.80866 -4.35862 0
M  V30 4957 H 460.66 -0.2702 -0.614193 0
M  V30 4958 H 463.204 -1.36747 -1.52054 0
M  V30 4959 H 461.359 -0.488545 -3.84307 0
M  V30 4960 H 461.773 -2.58081 -4.56612 0
M  V30 4961 H 463.247 -1.09365 -5.41057 0
M  V30 4962 H 463.724 0.257025 -4.38447 0
M  V30 4963 H 464.33 -1.37592 -4.02428 0
M  V30 4964 N 462.645 1.35699 -0.801477 0
M  V30 4965 C 463.873 2.03157 -0.391768 0
M  V30 4966 C 464.288 1.60412 0.995668 0
M  V30 4967 O 463.645 0.799228 1.64069 0
M  V30 4968 C 463.696 3.58566 -0.459671 0
M  V30 4969 O 463.417 3.99756 -1.7924 0
M  V30 4970 C 464.918 4.4328 -0.0421205 0
M  V30 4971 H 462.138 0.651688 -0.159825 0
M  V30 4972 H 464.682 1.73426 -1.08368 0
M  V30 4973 H 462.837 3.86963 0.183939 0
M  V30 4974 H 463.251 4.94387 -1.75162 0
M  V30 4975 H 464.725 5.51821 -0.140754 0
M  V30 4976 H 465.202 4.27383 1.01196 0
M  V30 4977 H 465.808 4.20168 -0.658687 0
M  V30 4978 N 464.123 0.554532 1.47522 0
M  V30 4979 C 465.369 0.0295227 2.02779 0
M  V30 4980 C 465.702 -1.31582 1.42828 0
M  V30 4981 O 464.977 -1.85561 0.582872 0
M  V30 4982 C 465.26 -0.0664057 3.60039 0
M  V30 4983 C 465.113 1.30585 4.30427 0
M  V30 4984 C 466.432 -0.781162 4.33112 0
M  V30 4985 H 463.551 0.0122027 0.736899 0
M  V30 4986 H 466.193 0.716305 1.7598 0
M  V30 4987 H 464.343 -0.651307 3.83002 0
M  V30 4988 H 466.015 1.93374 4.18813 0
M  V30 4989 H 464.258 1.88125 3.90886 0
M  V30 4990 H 464.929 1.19147 5.38988 0
M  V30 4991 H 467.405 -0.284565 4.15126 0
M  V30 4992 H 466.281 -0.817237 5.42782 0
M  V30 4993 H 466.542 -1.83672 4.0214 0
M  V30 4994 N 465.601 -1.54893 0.290851 0
M  V30 4995 C 466.531 -2.26103 -0.583084 0
M  V30 4996 C 467.512 -1.25684 -1.14619 0
M  V30 4997 O 468.697 -1.54436 -1.17741 0
M  V30 4998 C 465.827 -2.99409 -1.75987 0
M  V30 4999 C 464.781 -4.0689 -1.32758 0
M  V30 5000 C 464.107 -4.67856 -2.58872 0
M  V30 5001 C 465.407 -5.20215 -0.46624 0
M  V30 5002 H 467.101 -2.99398 0.0108214 0
M  V30 5003 H 464.647 -1.43998 0.00664468 0
M  V30 5004 H 466.6 -3.47943 -2.37727 0
M  V30 5005 H 465.324 -2.23675 -2.37985 0
M  V30 5006 H 463.983 -3.59191 -0.733299 0
M  V30 5007 H 463.631 -3.88772 -3.19163 0
M  V30 5008 H 463.331 -5.40438 -2.30653 0
M  V30 5009 H 464.855 -5.19147 -3.21433 0
M  V30 5010 H 466.269 -5.64704 -0.989047 0
M  V30 5011 H 464.666 -5.99455 -0.27826 0
M  V30 5012 H 465.736 -4.82198 0.511173 0
M  V30 5013 N 467.08 -0.0183926 -1.57589 0
M  V30 5014 C 468.308 0.673046 -1.95647 0
M  V30 5015 C 468.723 1.66275 -0.894312 0
M  V30 5016 O 468.08 1.82072 0.124975 0
M  V30 5017 C 468.131 1.38884 -3.33756 0
M  V30 5018 O 467.852 0.438806 -4.35897 0
M  V30 5019 C 469.353 2.1731 -3.86383 0
M  V30 5020 H 466.573 0.186292 -0.644621 0
M  V30 5021 H 469.117 -0.0749748 -2.04363 0
M  V30 5022 H 467.272 2.08835 -3.26293 0
M  V30 5023 H 467.686 0.945869 -5.15901 0
M  V30 5024 H 469.16 2.62863 -4.85394 0
M  V30 5025 H 469.637 3.00764 -3.20059 0
M  V30 5026 H 470.243 1.52339 -3.97081 0
M  V30 5027 N 468.558 1.5553 0.254621 0
M  V30 5028 C 469.491 1.84624 1.34124 0
M  V30 5029 C 470.469 0.700693 1.46728 0
M  V30 5030 O 471.653 0.94564 1.63064 0
M  V30 5031 C 468.78 2.02412 2.71564 0
M  V30 5032 C 467.826 3.25028 2.7615 0
M  V30 5033 S 468.659 4.81893 2.33538 0
M  V30 5034 C 469.815 5.02677 3.72917 0
M  V30 5035 H 470.048 2.76501 1.09245 0
M  V30 5036 H 467.581 1.47537 0.455211 0
M  V30 5037 H 469.539 2.13345 3.50705 0
M  V30 5038 H 468.2 1.11391 2.93685 0
M  V30 5039 H 467.393 3.34418 3.77069 0
M  V30 5040 H 466.995 3.12781 2.05046 0
M  V30 5041 H 469.287 4.89546 4.68349 0
M  V30 5042 H 470.23 6.0468 3.68467 0
M  V30 5043 H 470.638 4.30561 3.65072 0
M  V30 5044 N 470.036 -0.519951 1.48776 0
M  V30 5045 C 471.264 -1.29971 1.60982 0
M  V30 5046 C 471.679 -1.86803 0.273885 0
M  V30 5047 O 471.036 -1.66904 -0.738193 0
M  V30 5048 C 471.087 -2.44346 2.66415 0
M  V30 5049 O 470.808 -1.89855 3.94825 0
M  V30 5050 C 472.309 -3.36014 2.89153 0
M  V30 5051 H 469.529 -0.394891 0.542496 0
M  V30 5052 H 472.073 -0.626214 1.94676 0
M  V30 5053 H 470.228 -3.07562 2.35552 0
M  V30 5054 H 470.642 -2.64798 4.5275 0
M  V30 5055 H 472.116 -4.12593 3.66703 0
M  V30 5056 H 472.593 -3.91859 1.98351 0
M  V30 5057 H 473.199 -2.78582 3.21359 0
M  V30 5058 N 471.514 -1.37532 -0.769588 0
M  V30 5059 C 472.742 -1.36059 -1.55871 0
M  V30 5060 C 473.157 0.053544 -1.88724 0
M  V30 5061 O 472.514 1.01591 -1.5161 0
M  V30 5062 C 472.565 -2.20107 -2.86767 0
M  V30 5063 O 472.286 -3.56009 -2.55321 0
M  V30 5064 C 473.787 -2.26636 -3.80987 0
M  V30 5065 H 471.007 -0.465967 -0.482821 0
M  V30 5066 H 473.551 -1.80901 -0.953686 0
M  V30 5067 H 471.706 -1.78768 -3.43687 0
M  V30 5068 H 472.12 -4.0009 -3.39158 0
M  V30 5069 H 473.594 -2.89763 -4.69831 0
M  V30 5070 H 474.071 -1.2754 -4.20274 0
M  V30 5071 H 474.677 -2.68296 -3.29996 0
M  V30 5072 N 472.992 0.995999 -1.22138 0
M  V30 5073 C 473.922 2.10387 -1.01289 0
M  V30 5074 C 474.903 1.69975 0.0651454 0
M  V30 5075 O 476.088 1.9396 -0.0964628 0
M  V30 5076 C 473.218 3.42312 -0.586517 0
M  V30 5077 C 472.172 3.96558 -1.61014 0
M  V30 5078 C 471.498 5.24494 -1.0397 0
M  V30 5079 C 472.798 4.27595 -2.99933 0
M  V30 5080 H 474.492 2.28086 -1.93951 0
M  V30 5081 H 472.038 1.09607 -0.933928 0
M  V30 5082 H 473.991 4.19223 -0.427793 0
M  V30 5083 H 472.715 3.24431 0.375761 0
M  V30 5084 H 471.374 3.21776 -1.75658 0
M  V30 5085 H 471.022 5.02953 -0.0688703 0
M  V30 5086 H 470.722 5.61755 -1.72352 0
M  V30 5087 H 472.246 6.04042 -0.892494 0
M  V30 5088 H 473.66 4.95315 -2.8868 0
M  V30 5089 H 472.057 4.76021 -3.6541 0
M  V30 5090 H 473.127 3.35498 -3.50099 0
M  V30 5091 N 474.47 1.03057 1.19235 0
M  V30 5092 C 475.695 0.74757 1.93458 0
M  V30 5093 C 476.12 -0.687648 1.7508 0
M  V30 5094 O 475.478 -1.47499 1.05422 0
M  V30 5095 C 475.526 1.10604 3.43219 0
M  V30 5096 O 474.63 0.225671 4.11782 0
M  V30 5097 H 473.971 0.276047 0.603899 0
M  V30 5098 H 476.501 1.3777 1.51263 0
M  V30 5099 H 476.511 1.06366 3.93891 0
M  V30 5100 H 475.186 2.15165 3.55917 0
M  V30 5101 H 473.763 0.326795 3.71465 0
M  V30 5102 N 475.948 -1.35272 0.808662 0
M  V30 5103 C 477.197 -1.97963 0.386483 0
M  V30 5104 C 477.51 -1.64866 -1.05255 0
M  V30 5105 O 478.716 -2.20937 -1.57794 0
M  V30 5106 C 477.172 -3.54162 0.640096 0
M  V30 5107 C 476.78 -3.96166 2.0918 0
M  V30 5108 C 478.524 -4.23553 0.283376 0
M  V30 5109 C 476.431 -5.4522 2.29106 0
M  V30 5110 H 475.361 -0.740742 0.140774 0
M  V30 5111 H 478.012 -1.5431 0.993012 0
M  V30 5112 H 476.394 -3.95983 -0.0364117 0
M  V30 5113 H 477.568 -3.65491 2.80629 0
M  V30 5114 H 475.883 -3.3967 2.40859 0
M  V30 5115 H 478.48 -5.33124 0.410273 0
M  V30 5116 H 478.823 -4.09105 -0.770659 0
M  V30 5117 H 479.356 -3.8716 0.913884 0
M  V30 5118 H 476.095 -5.64638 3.32962 0
M  V30 5119 H 475.615 -5.77457 1.62184 0
M  V30 5120 H 477.294 -6.1171 2.1076 0
M  V30 5121 N 477.426 -0.562348 -1.47226 0
M  V30 5122 C 478.651 -0.0432632 -2.07355 0
M  V30 5123 C 479.076 1.24332 -1.41149 0
M  V30 5124 O 478.434 1.74603 -0.488226 0
M  V30 5125 C 478.482 0.130288 -3.60365 0
M  V30 5126 O 477.586 1.19166 -3.94808 0
M  V30 5127 H 476.927 -0.0536334 -0.66183 0
M  V30 5128 H 479.457 -0.779495 -1.89169 0
M  V30 5129 H 479.467 0.342881 -4.06557 0
M  V30 5130 H 478.142 -0.809389 -4.07948 0
M  V30 5131 H 476.719 0.959153 -3.60354 0
M  V30 5132 N 478.904 1.54736 -0.299062 0
M  V30 5133 C 479.867 2.22127 0.565012 0
M  V30 5134 C 480.867 1.20669 1.06281 0
M  V30 5135 O 482.057 1.45417 0.959145 0
M  V30 5136 C 479.189 2.90611 1.78208 0
M  V30 5137 H 480.382 2.99891 -0.0237448 0
M  V30 5138 H 477.935 1.5622 -0.0498788 0
M  V30 5139 H 478.67 2.16921 2.41072 0
M  V30 5140 H 478.455 3.64984 1.43281 0
M  V30 5141 H 479.945 3.42026 2.396 0
M  V30 5142 N 480.382 0.0267497 1.57577 0
M  V30 5143 C 481.798 -0.32962 1.56159 0
M  V30 5144 C 481.998 -1.73059 1.03213 0
M  V30 5145 O 481.054 -2.43233 0.677804 0
M  V30 5146 C 482.367 -0.18039 3.00158 0
M  V30 5147 C 483.915 -0.253334 3.11973 0
M  V30 5148 C 484.39 -0.132921 4.57807 0
M  V30 5149 N 485.881 -0.189979 4.6281 0
M  V30 5150 C 486.616 -0.120554 5.73273 0
M  V30 5151 N 486.112 -0.000180315 6.928 0
M  V30 5152 N 487.905 -0.174369 5.61829 0
M  V30 5153 H 480.056 0.942896 1.90324 0
M  V30 5154 H 482.319 0.3639 0.875375 0
M  V30 5155 H 482.025 0.784576 3.42837 0
M  V30 5156 H 481.899 -0.951565 3.65 0
M  V30 5157 H 484.286 -1.20876 2.69208 0
M  V30 5158 H 484.367 0.548177 2.49857 0
M  V30 5159 H 484.011 0.819073 5.01252 0
M  V30 5160 H 483.941 -0.953264 5.179 0
M  V30 5161 H 486.432 -0.283257 3.76837 0
M  V30 5162 H 486.745 0.0461666 7.72786 0
M  V30 5163 H 485.09 0.034569 6.94991 0
M  V30 5164 H 488.281 -0.266794 4.67339 0
M  V30 5165 H 488.454 -0.116802 6.47895 0
M  V30 5166 N 481.861 -1.55662 -0.24637 0
M  V30 5167 C 482.809 -1.91186 -1.3248 0
M  V30 5168 C 483.803 -0.790996 -1.49799 0
M  V30 5169 O 485.009 -0.975617 -1.51267 0
M  V30 5170 H 481.384 -0.607207 -0.443626 0
M  V30 5171 H 483.355 -2.81221 -0.997853 0
M  V30 5172 C 482.104 -2.22349 -2.67313 0
M  V30 5173 H 481.427 -3.08097 -2.54786 0
M  V30 5174 H 482.867 -2.51107 -3.41645 0
M  V30 5175 C 481.326 -1.04001 -3.20446 0
M  V30 5176 O 481.856 -0.28828 -4.00664 0
M  V30 5177 N 480.062 -0.830494 -2.7848 0
M  V30 5178 H 479.609 -1.4435 -2.13356 0
M  V30 5179 H 479.567 -0.0403258 -3.14374 0
M  V30 5180 N 483.339 0.512053 -1.4905 0
M  V30 5181 C 484.564 1.2959 -1.6193 0
M  V30 5182 C 484.989 1.85906 -0.286454 0
M  V30 5183 O 484.347 1.65312 0.744426 0
M  V30 5184 C 484.395 2.40987 -2.68249 0
M  V30 5185 O 483.499 3.44531 -2.26654 0
M  V30 5186 H 482.84 0.383053 -0.542371 0
M  V30 5187 H 485.37 0.614231 -1.95162 0
M  V30 5188 H 485.38 2.86913 -2.90078 0
M  V30 5189 H 484.055 1.99361 -3.65004 0
M  V30 5190 H 482.632 3.046 -2.15112 0
M  V30 5191 N 484.817 1.37938 0.762283 0
M  V30 5192 C 485.747 1.37176 1.88958 0
M  V30 5193 C 486.728 0.238945 1.68413 0
M  V30 5194 O 487.913 0.440726 1.89133 0
M  V30 5195 C 485.043 1.18742 3.2637 0
M  V30 5196 C 483.997 2.29136 3.61498 0
M  V30 5197 C 483.323 1.95816 4.97554 0
M  V30 5198 C 484.623 3.71363 3.6727 0
M  V30 5199 H 486.317 2.31509 1.89853 0
M  V30 5200 H 483.863 1.11438 0.912005 0
M  V30 5201 H 485.816 1.16837 4.04879 0
M  V30 5202 H 484.54 0.208683 3.25933 0
M  V30 5203 H 483.199 2.30213 2.85303 0
M  V30 5204 H 482.847 0.964475 4.93667 0
M  V30 5205 H 482.547 2.69745 5.22026 0
M  V30 5206 H 484.071 1.95513 5.78452 0
M  V30 5207 H 485.485 3.72364 4.35911 0
M  V30 5208 H 483.882 4.44425 4.03245 0
M  V30 5209 H 484.952 4.04305 2.67704 0
M  V30 5210 N 486.295 -0.989507 1.22664 0
M  V30 5211 C 487.706 -1.54406 1.04955 0
M  V30 5212 C 488.057 -1.92366 -0.385951 0
M  V30 5213 O 487.182 -1.75111 -1.27142 0
M  V30 5214 C 487.777 -2.80578 1.89899 0
M  V30 5215 C 486.336 -3.32464 1.76478 0
M  V30 5216 C 485.483 -2.05524 1.86159 0
M  V30 5217 H 488.434 -0.810211 1.3646 0
M  V30 5218 H 488.455 -3.53075 1.4184 0
M  V30 5219 H 487.967 -2.52918 2.94371 0
M  V30 5220 H 486.068 -3.65024 0.747528 0
M  V30 5221 H 486.181 -4.02838 2.59342 0
M  V30 5222 H 484.545 -2.19241 1.29636 0
M  V30 5223 H 485.328 -1.80258 2.92168 0
M  V30 5224 N 487.773 -1.03688 -1.18687 0
M  V30 5225 C 488.72 -0.624624 -2.22187 0
M  V30 5226 C 489.69 0.365636 -1.62026 0
M  V30 5227 O 490.875 0.260481 -1.89014 0
M  V30 5228 C 488.015 0.0101738 -3.45099 0
M  V30 5229 C 487.128 -1.02709 -4.19613 0
M  V30 5230 C 486.263 -0.361213 -5.2997 0
M  V30 5231 C 485.302 -1.38384 -5.96252 0
M  V30 5232 N 484.439 -0.743196 -6.98155 0
M  V30 5233 H 489.279 -1.51176 -2.56807 0
M  V30 5234 H 486.816 -0.75636 -1.26165 0
M  V30 5235 H 488.774 0.395528 -4.15321 0
M  V30 5236 H 487.404 0.860848 -3.1111 0
M  V30 5237 H 486.456 -1.53043 -3.48256 0
M  V30 5238 H 487.768 -1.80398 -4.65036 0
M  V30 5239 H 486.922 0.0785537 -6.06649 0
M  V30 5240 H 485.661 0.447799 -4.8564 0
M  V30 5241 H 484.666 -1.83378 -5.18317 0
M  V30 5242 H 485.891 -2.19448 -6.42666 0
M  V30 5243 H 483.837 0.0455789 -6.55984 0
M  V30 5244 H 483.754 -1.45784 -7.41811 0
M  V30 5245 H 485.022 -0.327698 -7.78811 0
M  V30 5246 N 489.251 1.34841 -0.815825 0
M  V30 5247 C 490.497 1.98793 -0.401129 0
M  V30 5248 C 490.83 1.64548 1.03139 0
M  V30 5249 O 490.105 0.913487 1.71714 0
M  V30 5250 C 490.388 3.55143 -0.595409 0
M  V30 5251 C 490.241 3.99155 -2.07352 0
M  V30 5252 C 491.56 4.40092 -0.0268823 0
M  V30 5253 H 488.679 0.722146 -0.14722 0
M  V30 5254 H 491.321 1.59847 -1.02707 0
M  V30 5255 H 489.471 3.8845 -0.0625779 0
M  V30 5256 H 491.143 3.76216 -2.66945 0
M  V30 5257 H 489.386 3.49726 -2.56659 0
M  V30 5258 H 490.057 5.07971 -2.1603 0
M  V30 5259 H 492.533 4.13298 -0.482042 0
M  V30 5260 H 491.409 5.48562 -0.19267 0
M  V30 5261 H 491.67 4.29016 1.06759 0
M  V30 5262 N 490.729 0.570148 1.46925 0
M  V30 5263 C 491.692 -0.159933 2.28641 0
M  V30 5264 C 492.692 -0.830638 1.37685 0
M  V30 5265 O 493.882 -0.684516 1.60187 0
M  V30 5266 C 491.014 -1.2354 3.17727 0
M  V30 5267 H 492.207 0.558035 2.94662 0
M  V30 5268 H 489.76 0.327603 1.52828 0
M  V30 5269 H 490.495 -1.98535 2.56426 0
M  V30 5270 H 490.28 -0.759125 3.84681 0
M  V30 5271 H 491.77 -1.74782 3.79264 0
M  V30 5272 N 492.207 -1.54576 0.307264 0
M  V30 5273 C 493.437 -2.04378 -0.302158 0
M  V30 5274 C 493.845 -1.18381 -1.47589 0
M  V30 5275 O 493.188 -0.20352 -1.82569 0
M  V30 5276 C 493.25 -3.50133 -0.815305 0
M  V30 5277 C 492.914 -4.56401 0.233977 0
M  V30 5278 C 493.911 -5.08884 1.06456 0
M  V30 5279 C 491.596 -5.0088 0.377478 0
M  V30 5280 C 493.59 -6.04394 2.02452 0
M  V30 5281 C 491.277 -5.96208 1.34088 0
M  V30 5282 C 492.275 -6.47849 2.16288 0
M  V30 5283 O 491.963 -7.41308 3.10994 0
M  V30 5284 H 491.695 -0.672502 -0.0686839 0
M  V30 5285 H 494.249 -2.00484 0.446682 0
M  V30 5286 H 492.479 -3.51371 -1.61478 0
M  V30 5287 H 494.168 -3.83098 -1.34129 0
M  V30 5288 H 494.934 -4.75311 0.964596 0
M  V30 5289 H 490.813 -4.60309 -0.252405 0
M  V30 5290 H 494.357 -6.44626 2.66652 0
M  V30 5291 H 490.254 -6.29198 1.44154 0
M  V30 5292 H 491.022 -7.5913 3.06045 0
M  V30 5293 N 493.685 -0.035106 -1.57561 0
M  V30 5294 C 494.648 0.929819 -2.09492 0
M  V30 5295 C 495.648 1.25026 -1.01119 0
M  V30 5296 O 496.838 1.18961 -1.27255 0
M  V30 5297 C 493.97 2.24457 -2.56577 0
M  V30 5298 H 495.163 0.479935 -2.96035 0
M  V30 5299 H 492.716 0.213033 -1.54841 0
M  V30 5300 H 493.451 2.74061 -1.73382 0
M  V30 5301 H 493.236 2.02508 -3.35757 0
M  V30 5302 H 494.726 2.93607 -2.96959 0
M  V30 5303 N 495.163 1.55791 0.238111 0
M  V30 5304 C 496.391 1.82098 0.982233 0
M  V30 5305 C 496.806 0.612025 1.78605 0
M  V30 5306 O 496.163 -0.419381 1.77616 0
M  V30 5307 C 496.214 3.0673 1.91309 0
M  V30 5308 O 495.935 4.2296 1.14179 0
M  V30 5309 C 497.436 3.45903 2.77248 0
M  V30 5310 H 494.656 0.605748 0.288635 0
M  V30 5311 H 497.2 2.02862 0.258341 0
M  V30 5312 H 495.355 2.87991 2.59114 0
M  V30 5313 H 495.769 4.93653 1.7722 0
M  V30 5314 H 497.243 4.36189 3.38295 0
M  V30 5315 H 497.72 2.66891 3.48806 0
M  V30 5316 H 498.326 3.67024 2.14881 0
M  V30 5317 N 496.642 -0.504142 1.49319 0
M  V30 5318 C 497.605 -1.5883 1.65244 0
M  V30 5319 C 498.605 -1.52009 0.524386 0
M  V30 5320 O 499.795 -1.55218 0.79077 0
M  V30 5321 C 496.927 -2.98481 1.64687 0
M  V30 5322 H 498.12 -1.4604 2.61939 0
M  V30 5323 H 495.673 -0.728144 1.38303 0
M  V30 5324 H 496.408 -3.16751 0.695644 0
M  V30 5325 H 496.193 -3.0484 2.46607 0
M  V30 5326 H 497.683 -3.77256 1.79075 0
M  V30 5327 N 498.12 -1.38341 -0.754957 0
M  V30 5328 C 499.053 -1.29837 -1.87663 0
M  V30 5329 C 500.031 -0.175659 -1.61648 0
M  V30 5330 O 501.215 -0.352745 -1.8517 0
M  V30 5331 C 498.342 -1.01141 -3.23246 0
M  V30 5332 C 497.388 -2.15331 -3.6815 0
M  V30 5333 S 498.221 -3.77459 -3.79849 0
M  V30 5334 C 499.377 -3.50948 -5.18253 0
M  V30 5335 H 499.61 -2.24771 -1.9459 0
M  V30 5336 H 497.143 -1.24161 -0.917796 0
M  V30 5337 H 499.101 -0.852687 -4.01546 0
M  V30 5338 H 497.762 -0.0792784 -3.14 0
M  V30 5339 H 496.955 -1.90795 -4.6649 0
M  V30 5340 H 496.557 -2.27304 -2.97 0
M  V30 5341 H 498.849 -3.06977 -6.03963 0
M  V30 5342 H 499.792 -4.48677 -5.47809 0
M  V30 5343 H 500.2 -2.85492 -4.86985 0
M  V30 5344 N 499.598 0.982988 -1.23187 0
M  V30 5345 C 500.875 1.69814 -0.970707 0
M  V30 5346 C 501.255 2.04811 0.511424 0
M  V30 5347 O 500.603 1.73924 1.48198 0
M  V30 5348 C 500.813 2.94143 -1.87831 0
M  V30 5349 C 502.161 3.66712 -2.14026 0
M  V30 5350 O 503.185 3.04171 -1.8536 0
M  V30 5351 O 502.044 4.79258 -2.62629 0
M  V30 5352 H 499.138 0.741659 -0.365884 0
M  V30 5353 H 501.684 1.03844 -1.34218 0
M  V30 5354 H 500.456 2.64858 -2.88038 0
M  V30 5355 H 500.079 3.6785 -1.50905 0
M  V30 5356 N 501.076 1.04316 1.18135 0
M  V30 5357 C 502.322 0.758899 1.88712 0
M  V30 5358 C 502.677 -0.705863 1.78984 0
M  V30 5359 O 501.97 -1.50874 1.18101 0
M  V30 5360 C 502.164 1.16271 3.37958 0
M  V30 5361 C 501.993 2.66518 3.62213 0
M  V30 5362 C 500.763 3.33702 3.79436 0
M  V30 5363 C 502.961 3.64739 3.62588 0
M  V30 5364 N 500.943 4.72904 3.91452 0
M  V30 5365 C 502.314 4.89627 3.80348 0
M  V30 5366 C 504.369 3.58333 3.4569 0
M  V30 5367 C 503.072 6.08879 3.8296 0
M  V30 5368 C 505.098 4.77016 3.49586 0
M  V30 5369 C 504.46 6.00724 3.67845 0
M  V30 5370 H 500.559 0.329795 0.709055 0
M  V30 5371 H 503.143 1.33334 1.4188 0
M  V30 5372 H 501.314 0.616319 3.83479 0
M  V30 5373 H 503.046 0.829205 3.96114 0
M  V30 5374 H 499.801 2.84105 3.78921 0
M  V30 5375 H 500.225 5.45258 4.01277 0
M  V30 5376 H 504.867 2.63663 3.30517 0
M  V30 5377 H 502.585 7.03903 3.96921 0
M  V30 5378 H 506.171 4.73703 3.37782 0
M  V30 5379 H 505.051 6.91022 3.70753 0
M  V30 5380 N 502.554 -1.34406 0.822964 0
M  V30 5381 C 503.801 -1.98284 0.411057 0
M  V30 5382 C 504.129 -1.65245 -1.02588 0
M  V30 5383 O 503.384 -0.91619 -1.72929 0
M  V30 5384 C 503.683 -3.52981 0.560268 0
M  V30 5385 C 503.349 -4.05931 1.96293 0
M  V30 5386 C 502.011 -4.20103 2.34664 0
M  V30 5387 C 504.363 -4.34412 2.87985 0
M  V30 5388 C 501.691 -4.60082 3.64062 0
M  V30 5389 C 504.043 -4.75838 4.16847 0
M  V30 5390 C 502.707 -4.88215 4.55195 0
M  V30 5391 H 501.977 -0.725573 0.150416 0
M  V30 5392 H 504.624 -1.60349 1.04692 0
M  V30 5393 H 502.929 -3.91477 -0.158982 0
M  V30 5394 H 504.626 -4.00385 0.222087 0
M  V30 5395 H 501.216 -3.95363 1.65487 0
M  V30 5396 H 505.4 -4.23001 2.59584 0
M  V30 5397 H 500.656 -4.67856 3.93599 0
M  V30 5398 H 504.83 -4.96834 4.87984 0
M  V30 5399 H 502.457 -5.18952 5.55512 0
M  V30 5400 N 504.032 -0.577932 -1.46621 0
M  V30 5401 C 505.281 -0.0594281 -2.01612 0
M  V30 5402 C 505.594 1.30663 -1.45556 0
M  V30 5403 O 506.8 1.91621 -1.92337 0
M  V30 5404 C 505.256 -0.0556666 -3.59857 0
M  V30 5405 C 504.864 -1.41975 -4.24908 0
M  V30 5406 C 506.608 0.409143 -4.22524 0
M  V30 5407 C 504.515 -1.37397 -5.75218 0
M  V30 5408 H 503.445 -0.0184469 -0.753774 0
M  V30 5409 H 506.096 -0.728869 -1.68404 0
M  V30 5410 H 504.478 0.679843 -3.90121 0
M  V30 5411 H 505.652 -2.17461 -4.0626 0
M  V30 5412 H 503.967 -1.82419 -3.74316 0
M  V30 5413 H 506.564 0.46211 -5.32699 0
M  V30 5414 H 506.907 1.42565 -3.91128 0
M  V30 5415 H 507.44 -0.272152 -3.96868 0
M  V30 5416 H 504.179 -2.36714 -6.11267 0
M  V30 5417 H 503.699 -0.661239 -5.96144 0
M  V30 5418 H 505.378 -1.08484 -6.3784 0
M  V30 5419 N 505.51 1.54411 -0.315457 0
M  V30 5420 C 506.473 2.22713 0.54142 0
M  V30 5421 C 507.473 1.2179 1.04995 0
M  V30 5422 O 508.663 1.46426 0.943667 0
M  V30 5423 C 505.795 2.92485 1.75116 0
M  V30 5424 H 506.988 2.99849 -0.0555508 0
M  V30 5425 H 504.541 1.56159 -0.0664453 0
M  V30 5426 H 505.276 2.19466 2.38758 0
M  V30 5427 H 505.061 3.66483 1.39401 0
M  V30 5428 H 506.551 3.44548 2.35959 0
M  V30 5429 N 506.988 0.0434614 1.5754 0
M  V30 5430 C 508.234 -0.632971 1.92669 0
M  V30 5431 C 508.567 -1.70947 0.921446 0
M  V30 5432 O 507.842 -1.94426 -0.0537202 0
M  V30 5433 C 508.125 -1.23619 3.38216 0
M  V30 5434 C 507.978 -0.168274 4.49485 0
M  V30 5435 C 509.297 -2.15008 3.84005 0
M  V30 5436 H 506.416 -0.228629 0.700641 0
M  V30 5437 H 509.058 0.103651 1.89717 0
M  V30 5438 H 507.208 -1.864 3.40863 0
M  V30 5439 H 508.88 0.463196 4.58969 0
M  V30 5440 H 507.123 0.504581 4.30855 0
M  V30 5441 H 507.794 -0.630218 5.48391 0
M  V30 5442 H 510.27 -1.62198 3.83185 0
M  V30 5443 H 509.146 -2.54161 4.86511 0
M  V30 5444 H 509.407 -3.04707 3.20322 0
M  V30 5445 N 508.466 -1.55915 -0.229846 0
M  V30 5446 C 509.706 -1.80314 -0.962614 0
M  V30 5447 C 510.07 -0.61568 -1.81861 0
M  V30 5448 O 511.271 -0.738795 -2.58448 0
M  V30 5449 C 509.542 -3.0956 -1.78627 0
M  V30 5450 S 511.101 -3.55243 -2.57581 0
M  V30 5451 H 507.919 -0.633142 -0.323499 0
M  V30 5452 H 510.521 -1.94155 -0.228919 0
M  V30 5453 H 509.225 -3.94033 -1.14742 0
M  V30 5454 H 508.756 -2.98503 -2.56241 0
M  V30 5455 H 510.771 -3.17924 -3.80971 0
M  V30 5456 N 509.944 0.496216 -1.49584 0
M  V30 5457 C 511.174 1.27209 -1.62793 0
M  V30 5458 C 511.582 1.86799 -0.300476 0
M  V30 5459 O 510.925 1.68802 0.724674 0
M  V30 5460 C 510.987 2.43812 -2.64189 0
M  V30 5461 C 510.651 2.05055 -4.08414 0
M  V30 5462 C 511.648 1.58752 -4.9507 0
M  V30 5463 C 509.333 2.14543 -4.54177 0
M  V30 5464 C 511.327 1.22448 -6.25528 0
M  V30 5465 C 509.014 1.77851 -5.84647 0
M  V30 5466 C 510.012 1.31878 -6.70147 0
M  V30 5467 O 509.7 0.956834 -7.98185 0
M  V30 5468 H 509.432 0.391848 -0.550846 0
M  V30 5469 H 511.986 0.601712 -1.96389 0
M  V30 5470 H 510.216 3.13941 -2.25783 0
M  V30 5471 H 511.905 3.05829 -2.66877 0
M  V30 5472 H 512.671 1.50863 -4.60939 0
M  V30 5473 H 508.55 2.49277 -3.87791 0
M  V30 5474 H 512.094 0.864933 -6.92217 0
M  V30 5475 H 507.991 1.8539 -6.18305 0
M  V30 5476 H 508.759 1.08789 -8.11238 0
M  V30 5477 N 511.423 1.38739 0.74761 0
M  V30 5478 C 512.386 1.36241 1.84312 0
M  V30 5479 C 513.386 0.261811 1.58654 0
M  V30 5480 O 514.576 0.519031 1.66288 0
M  V30 5481 C 511.708 1.12253 3.21888 0
M  V30 5482 H 512.901 2.33712 1.87933 0
M  V30 5483 H 510.454 1.2412 0.949946 0
M  V30 5484 H 511.189 0.154133 3.23934 0
M  V30 5485 H 510.974 1.91943 3.41907 0
M  V30 5486 H 512.464 1.13215 4.0196 0
M  V30 5487 N 512.901 -0.976442 1.23707 0
M  V30 5488 C 514.148 -1.71827 1.07153 0
M  V30 5489 C 514.476 -1.9053 -0.390982 0
M  V30 5490 O 513.731 -1.45779 -1.30564 0
M  V30 5491 C 514.03 -3.11814 1.74662 0
M  V30 5492 C 513.696 -3.12978 3.24585 0
M  V30 5493 C 512.358 -3.13003 3.6549 0
M  V30 5494 C 514.71 -3.07986 4.20469 0
M  V30 5495 C 512.038 -3.05757 5.00729 0
M  V30 5496 C 514.39 -3.02282 5.55705 0
M  V30 5497 C 513.054 -3.00631 5.95968 0
M  V30 5498 H 512.324 -0.628758 0.392102 0
M  V30 5499 H 514.971 -1.14239 1.53693 0
M  V30 5500 H 513.276 -3.72812 1.20492 0
M  V30 5501 H 514.973 -3.67989 1.59328 0
M  V30 5502 H 511.563 -3.13718 2.92026 0
M  V30 5503 H 515.747 -3.07103 3.89874 0
M  V30 5504 H 511.003 -3.02834 5.31132 0
M  V30 5505 H 515.177 -2.97376 6.29714 0
M  V30 5506 H 512.804 -2.94771 7.00724 0
M  V30 5507 N 514.379 -1.04941 -1.1758 0
M  V30 5508 C 515.625 -0.759112 -1.88057 0
M  V30 5509 C 515.958 0.711918 -1.8068 0
M  V30 5510 O 515.233 1.52035 -1.21308 0
M  V30 5511 C 515.516 -1.237 -3.38187 0
M  V30 5512 C 515.369 -2.77078 -3.54327 0
M  V30 5513 C 516.688 -0.834014 -4.32125 0
M  V30 5514 H 513.807 -0.277237 -0.682868 0
M  V30 5515 H 516.449 -1.30296 -1.38286 0
M  V30 5516 H 514.599 -0.774337 -3.80705 0
M  V30 5517 H 516.271 -3.31449 -3.20842 0
M  V30 5518 H 514.514 -3.16477 -2.96689 0
M  V30 5519 H 515.185 -3.05577 -4.59703 0
M  V30 5520 H 517.661 -1.23228 -3.97434 0
M  V30 5521 H 516.537 -1.19603 -5.35711 0
M  V30 5522 H 516.798 0.262195 -4.41322 0
M  V30 5523 N 515.857 1.33968 -0.830081 0
M  V30 5524 C 517.104 1.98063 -0.421566 0
M  V30 5525 C 517.432 1.65787 1.0171 0
M  V30 5526 O 516.687 0.925348 1.72441 0
M  V30 5527 C 516.986 3.52679 -0.57898 0
M  V30 5528 C 516.652 4.04884 -1.98443 0
M  V30 5529 C 515.314 4.18852 -2.36888 0
M  V30 5530 C 517.666 4.32879 -2.90285 0
M  V30 5531 C 514.994 4.58145 -3.66497 0
M  V30 5532 C 517.346 4.7362 -4.19364 0
M  V30 5533 C 516.01 4.85794 -4.57778 0
M  V30 5534 H 515.28 0.724765 -0.154262 0
M  V30 5535 H 517.927 1.59792 -1.05541 0
M  V30 5536 H 516.232 3.91556 0.138219 0
M  V30 5537 H 517.929 4.00261 -0.243317 0
M  V30 5538 H 514.519 3.9448 -1.67581 0
M  V30 5539 H 518.703 4.21619 -2.61823 0
M  V30 5540 H 513.959 4.65762 -3.96075 0
M  V30 5541 H 518.133 4.9424 -4.90612 0
M  V30 5542 H 515.76 5.15998 -5.58256 0
M  V30 5543 N 517.335 0.585699 1.46312 0
M  V30 5544 C 518.56 0.0762461 2.0726 0
M  V30 5545 C 518.985 -1.22071 1.43109 0
M  V30 5546 O 518.343 -1.73804 0.515942 0
M  V30 5547 C 518.391 -0.0729404 3.60526 0
M  V30 5548 O 517.495 -1.1287 3.96654 0
M  V30 5549 H 516.836 0.0641558 0.660893 0
M  V30 5550 H 519.366 0.809492 1.87905 0
M  V30 5551 H 519.376 -0.278158 4.07051 0
M  V30 5552 H 518.051 0.874188 4.06609 0
M  V30 5553 H 516.628 -0.901703 3.61834 0
M  V30 5554 N 518.813 -1.54241 0.323641 0
M  V30 5555 C 519.776 -2.22997 -0.529602 0
M  V30 5556 C 520.776 -1.22345 -1.04347 0
M  V30 5557 O 521.966 -1.46924 -0.935889 0
M  V30 5558 C 519.098 -2.93409 -1.73562 0
M  V30 5559 H 520.291 -2.99815 0.0714518 0
M  V30 5560 H 517.844 -1.56121 0.0747258 0
M  V30 5561 H 518.579 -2.20729 -2.37591 0
M  V30 5562 H 518.364 -3.67217 -1.37456 0
M  V30 5563 H 519.854 -3.45794 -2.34128 0
M  V30 5564 N 520.291 -0.0518155 -1.57515 0
M  V30 5565 C 521.221 0.920283 -2.146 0
M  V30 5566 C 522.202 1.32406 -1.06783 0
M  V30 5567 O 523.387 1.39866 -1.34726 0
M  V30 5568 C 520.517 2.1949 -2.6915 0
M  V30 5569 C 519.471 1.93116 -3.81956 0
M  V30 5570 C 518.797 3.27037 -4.23026 0
M  V30 5571 C 520.097 1.25225 -5.07066 0
M  V30 5572 H 521.791 0.444801 -2.96077 0
M  V30 5573 H 519.337 0.212508 -1.42423 0
M  V30 5574 H 521.29 2.87894 -3.07725 0
M  V30 5575 H 520.014 2.69244 -1.84865 0
M  V30 5576 H 518.673 1.27123 -3.43854 0
M  V30 5577 H 518.321 3.74595 -3.3569 0
M  V30 5578 H 518.021 3.10189 -4.99056 0
M  V30 5579 H 519.545 3.96673 -4.64202 0
M  V30 5580 H 520.959 1.83666 -5.43083 0
M  V30 5581 H 519.356 1.18702 -5.88243 0
M  V30 5582 H 520.426 0.228382 -4.84362 0
M  V30 5583 N 521.769 1.56035 0.221574 0
M  V30 5584 C 523.018 1.78245 0.944016 0
M  V30 5585 C 523.331 0.620371 1.85501 0
M  V30 5586 O 524.537 0.726103 2.6161 0
M  V30 5587 C 522.993 3.15659 1.7288 0
M  V30 5588 C 522.601 4.39591 0.863942 0
M  V30 5589 C 524.345 3.47195 2.44246 0
M  V30 5590 C 522.252 5.6803 1.64607 0
M  V30 5591 H 521.182 0.664547 0.356222 0
M  V30 5592 H 523.833 1.8243 0.197904 0
M  V30 5593 H 522.215 3.0565 2.51781 0
M  V30 5594 H 523.389 4.60655 0.115464 0
M  V30 5595 H 521.704 4.15572 0.262407 0
M  V30 5596 H 524.301 4.40381 3.03263 0
M  V30 5597 H 524.644 2.69693 3.1713 0
M  V30 5598 H 525.177 3.58533 1.72334 0
M  V30 5599 H 521.916 6.48425 0.960507 0
M  V30 5600 H 521.436 5.51027 2.36917 0
M  V30 5601 H 523.115 6.08203 2.20675 0
M  V30 5602 N 523.247 -0.488276 1.49845 0
M  V30 5603 C 524.157 -1.61451 1.70207 0
M  V30 5604 C 525.173 -1.63877 0.584846 0
M  V30 5605 O 526.349 -1.82063 0.861107 0
M  V30 5606 C 523.414 -2.9776 1.77594 0
M  V30 5607 C 522.475 -3.05861 3.01243 0
M  V30 5608 C 521.708 -4.35668 3.08268 0
M  V30 5609 O 521.931 -5.25197 2.22541 0
M  V30 5610 O 520.865 -4.49005 4.00847 0
M  V30 5611 H 524.691 -1.47199 2.65643 0
M  V30 5612 H 522.276 -0.665939 1.33737 0
M  V30 5613 H 524.158 -3.7875 1.84732 0
M  V30 5614 H 522.833 -3.12248 0.8534 0
M  V30 5615 H 521.74 -2.24012 2.99616 0
M  V30 5616 H 523.073 -2.96304 3.9302 0
M  V30 5617 N 524.725 -1.39134 -0.740242 0
M  V30 5618 C 525.972 -1.36071 -1.49969 0
M  V30 5619 C 526.3 0.0450245 -1.94448 0
M  V30 5620 O 525.555 1.02482 -1.66721 0
M  V30 5621 C 525.854 -2.27457 -2.75678 0
M  V30 5622 C 525.52 -3.75185 -2.50094 0
M  V30 5623 C 524.182 -4.15439 -2.42825 0
M  V30 5624 C 526.534 -4.68643 -2.28086 0
M  V30 5625 C 523.862 -5.4722 -2.11584 0
M  V30 5626 C 526.214 -6.00695 -1.98363 0
M  V30 5627 C 524.878 -6.40018 -1.8956 0
M  V30 5628 H 524.148 -0.497921 -0.548777 0
M  V30 5629 H 526.795 -1.71599 -0.85007 0
M  V30 5630 H 525.1 -1.8503 -3.45356 0
M  V30 5631 H 526.797 -2.22384 -3.33686 0
M  V30 5632 H 523.387 -3.43279 -2.56627 0
M  V30 5633 H 527.571 -4.3838 -2.32672 0
M  V30 5634 H 522.827 -5.76615 -2.03287 0
M  V30 5635 H 527.001 -6.72644 -1.80341 0
M  V30 5636 H 524.628 -7.42051 -1.65117 0
M  V30 5637 N 526.204 0.969867 -1.24223 0
M  V30 5638 C 527.167 2.04564 -1.03373 0
M  V30 5639 C 528.167 1.60798 0.00819206 0
M  V30 5640 O 529.357 1.72641 -0.232567 0
M  V30 5641 C 526.489 3.36163 -0.566343 0
M  V30 5642 H 527.682 2.24494 -1.98853 0
M  V30 5643 H 525.235 1.1448 -1.06415 0
M  V30 5644 H 525.97 3.21925 0.391751 0
M  V30 5645 H 525.755 3.69273 -1.31834 0
M  V30 5646 H 527.245 4.1526 -0.441435 0
M  V30 5647 N 527.682 1.05563 1.17022 0
M  V30 5648 C 528.91 0.78845 1.91288 0
M  V30 5649 C 529.325 -0.656318 1.77025 0
M  V30 5650 O 528.682 -1.44869 1.10992 0
M  V30 5651 C 528.733 1.16444 3.42232 0
M  V30 5652 O 528.454 2.5525 3.5606 0
M  V30 5653 C 529.955 0.923937 4.33565 0
M  V30 5654 H 527.175 0.286389 0.606813 0
M  V30 5655 H 529.719 1.4073 1.48375 0
M  V30 5656 H 527.874 0.590266 3.82877 0
M  V30 5657 H 528.288 2.70097 4.49609 0
M  V30 5658 H 529.762 1.23672 5.37968 0
M  V30 5659 H 530.239 -0.140688 4.38975 0
M  V30 5660 H 530.845 1.48214 3.98639 0
M  V30 5661 N 529.16 -1.33526 0.837174 0
M  V30 5662 C 530.406 -1.9813 0.432704 0
M  V30 5663 C 530.739 -1.66168 -1.00508 0
M  V30 5664 O 530.014 -0.94069 -1.70239 0
M  V30 5665 C 530.297 -3.54151 0.651834 0
M  V30 5666 C 530.15 -3.95806 2.13676 0
M  V30 5667 C 531.469 -4.39993 0.0968937 0
M  V30 5668 H 528.588 -0.719713 0.15869 0
M  V30 5669 H 531.23 -1.58193 1.05237 0
M  V30 5670 H 529.38 -3.88301 0.124369 0
M  V30 5671 H 531.052 -3.71921 2.72896 0
M  V30 5672 H 529.295 -3.45599 2.62191 0
M  V30 5673 H 529.966 -5.0447 2.24084 0
M  V30 5674 H 532.442 -4.12479 0.547733 0
M  V30 5675 H 531.318 -5.48186 0.279917 0
M  V30 5676 H 531.579 -4.3066 -0.9992 0
M  V30 5677 N 530.638 -0.59345 -1.46 0
M  V30 5678 C 531.586 0.146268 -2.3214 0
M  V30 5679 C 532.58 0.873743 -1.45128 0
M  V30 5680 O 533.786 0.790912 -1.61693 0
M  V30 5681 H 530.161 0.0660349 -0.749095 0
M  V30 5682 H 532.132 -0.598895 -2.92328 0
M  V30 5683 C 530.881 1.1396 -3.28494 0
M  V30 5684 H 530.204 0.589252 -3.95434 0
M  V30 5685 H 531.644 1.62738 -3.91526 0
M  V30 5686 C 530.103 2.20604 -2.54628 0
M  V30 5687 O 530.633 3.28128 -2.31722 0
M  V30 5688 N 528.839 1.95502 -2.15005 0
M  V30 5689 H 528.386 1.0807 -2.33834 0
M  V30 5690 H 528.344 2.67064 -1.65904 0
M  V30 5691 N 532.116 1.54067 -0.331816 0
M  V30 5692 C 533.346 2.04833 0.269605 0
M  V30 5693 C 533.754 1.20714 1.45687 0
M  V30 5694 O 533.097 0.232539 1.82222 0
M  V30 5695 C 533.159 3.51386 0.759499 0
M  V30 5696 C 532.823 4.55971 -0.306557 0
M  V30 5697 C 533.82 5.07126 -1.14538 0
M  V30 5698 C 531.505 5.00216 -0.457116 0
M  V30 5699 C 533.499 6.01096 -2.12042 0
M  V30 5700 C 531.186 5.93999 -1.43556 0
M  V30 5701 C 532.184 6.44326 -2.26568 0
M  V30 5702 O 531.872 7.36267 -3.22749 0
M  V30 5703 H 531.604 0.673509 0.0579763 0
M  V30 5704 H 534.158 1.99748 -0.478521 0
M  V30 5705 H 532.388 3.53896 1.55867 0
M  V30 5706 H 534.077 3.85184 1.28017 0
M  V30 5707 H 534.843 4.73716 -1.04009 0
M  V30 5708 H 530.722 4.60652 0.179142 0
M  V30 5709 H 534.266 6.40302 -2.76873 0
M  V30 5710 H 530.163 6.26825 -1.54146 0
M  V30 5711 H 530.931 7.54165 -3.18083 0
M  V30 5712 N 533.594 0.0601682 1.57485 0
M  V30 5713 C 534.841 -0.611594 1.93043 0
M  V30 5714 C 535.169 -1.70317 0.939274 0
M  V30 5715 O 534.424 -1.95644 -0.046996 0
M  V30 5716 C 534.723 -1.23831 3.35262 0
M  V30 5717 C 534.389 -0.274037 4.50066 0
M  V30 5718 C 533.051 -0.00872394 4.81199 0
M  V30 5719 C 535.403 0.386308 5.19766 0
M  V30 5720 C 532.731 0.924218 5.79375 0
M  V30 5721 C 535.083 1.3075 6.1894 0
M  V30 5722 C 533.747 1.58139 6.48497 0
M  V30 5723 H 533.017 -0.223798 0.706396 0
M  V30 5724 H 535.664 0.128566 1.91068 0
M  V30 5725 H 533.969 -2.05394 3.33647 0
M  V30 5726 H 535.666 -1.76517 3.60059 0
M  V30 5727 H 532.256 -0.491008 4.25778 0
M  V30 5728 H 536.44 0.194436 4.95919 0
M  V30 5729 H 531.696 1.1438 6.00606 0
M  V30 5730 H 535.87 1.82519 6.72056 0
M  V30 5731 H 533.497 2.30593 7.24383 0
M  V30 5732 N 535.072 -1.5615 -0.213296 0
M  V30 5733 C 536.3 -1.83638 -0.953139 0
M  V30 5734 C 536.715 -0.640362 -1.77609 0
M  V30 5735 O 536.072 0.391071 -1.78261 0
M  V30 5736 C 536.123 -3.09735 -1.86405 0
M  V30 5737 O 535.844 -4.24723 -1.07435 0
M  V30 5738 C 537.345 -3.5027 -2.71709 0
M  V30 5739 H 534.565 -0.610263 -0.278962 0
M  V30 5740 H 537.109 -2.03247 -0.226035 0
M  V30 5741 H 535.264 -2.92077 -2.545 0
M  V30 5742 H 535.678 -4.9641 -1.69343 0
M  V30 5743 H 537.152 -4.41515 -3.31313 0
M  V30 5744 H 537.629 -2.72406 -3.44516 0
M  V30 5745 H 538.235 -3.70396 -2.09015 0
M  V30 5746 N 536.55 0.480323 -1.50102 0
M  V30 5747 C 537.497 1.57946 -1.6829 0
M  V30 5748 C 538.467 1.57611 -0.524223 0
M  V30 5749 O 539.652 1.75282 -0.753709 0
M  V30 5750 C 536.792 2.95978 -1.77457 0
M  V30 5751 C 535.905 3.06173 -3.04766 0
M  V30 5752 C 535.04 4.35063 -3.04784 0
M  V30 5753 C 534.079 4.38966 -4.26586 0
M  V30 5754 N 533.216 5.59314 -4.24396 0
M  V30 5755 H 538.056 1.41743 -2.62131 0
M  V30 5756 H 535.593 0.689304 -1.2995 0
M  V30 5757 H 537.551 3.76011 -1.80752 0
M  V30 5758 H 536.181 3.10837 -0.870637 0
M  V30 5759 H 535.233 2.19071 -3.10986 0
M  V30 5760 H 536.545 3.04916 -3.9475 0
M  V30 5761 H 535.699 5.23436 -3.06757 0
M  V30 5762 H 534.438 4.38915 -2.12614 0
M  V30 5763 H 533.443 3.48992 -4.24835 0
M  V30 5764 H 534.668 4.36813 -5.19972 0
M  V30 5765 H 532.614 5.63969 -3.35074 0
M  V30 5766 H 532.531 5.5976 -5.08138 0
M  V30 5767 H 533.799 6.49837 -4.30502 0
M  V30 5768 N 538.028 1.39524 0.732853 0
M  V30 5769 C 539.444 1.21176 1.03868 0
M  V30 5770 C 539.644 0.0748448 2.01361 0
M  V30 5771 O 538.7 -0.57281 2.45917 0
M  V30 5772 C 540.013 2.54667 1.59892 0
M  V30 5773 C 541.561 2.6153 1.71962 0
M  V30 5774 C 542.036 3.95248 2.31394 0
M  V30 5775 N 543.527 3.96899 2.38801 0
M  V30 5776 C 544.262 4.97138 2.85729 0
M  V30 5777 N 543.758 6.07775 3.32537 0
M  V30 5778 N 545.551 4.84516 2.84957 0
M  V30 5779 H 537.702 2.12225 0.086304 0
M  V30 5780 H 539.965 0.942614 0.100907 0
M  V30 5781 H 539.671 3.38423 0.95721 0
M  V30 5782 H 539.545 2.74538 2.58668 0
M  V30 5783 H 541.932 1.78156 2.35254 0
M  V30 5784 H 542.013 2.45507 0.718327 0
M  V30 5785 H 541.657 4.79054 1.68729 0
M  V30 5786 H 541.587 4.08593 3.32204 0
M  V30 5787 H 544.078 3.16998 2.05719 0
M  V30 5788 H 544.391 6.8017 3.66862 0
M  V30 5789 H 542.736 6.11366 3.30541 0
M  V30 5790 H 545.927 3.97185 2.47713 0
M  V30 5791 H 546.1 5.62783 3.21215 0
M  V30 5792 N 539.506 -0.963266 1.24736 0
M  V30 5793 C 540.731 -1.74699 1.11781 0
M  V30 5794 C 541.156 -1.85267 -0.325258 0
M  V30 5795 O 540.514 -1.32681 -1.23553 0
M  V30 5796 C 540.562 -3.14322 1.76731 0
M  V30 5797 O 539.666 -3.99043 1.04109 0
M  V30 5798 H 539.007 -0.53684 0.390767 0
M  V30 5799 H 541.537 -1.20801 1.65131 0
M  V30 5800 H 541.547 -3.64824 1.82668 0
M  V30 5801 H 540.222 -3.05946 2.81726 0
M  V30 5802 H 538.799 -3.5752 1.05991 0
M  V30 5803 N 540.985 -1.06182 -1.16461 0
M  V30 5804 C 542.231 -0.788825 -1.87481 0
M  V30 5805 C 542.586 0.677298 -1.80085 0
M  V30 5806 O 541.879 1.48976 -1.20486 0
M  V30 5807 C 542.073 -1.21633 -3.36066 0
M  V30 5808 C 541.902 -2.72247 -3.57927 0
M  V30 5809 C 540.672 -3.39696 -3.74079 0
M  V30 5810 C 542.87 -3.70461 -3.56739 0
M  V30 5811 N 540.852 -4.79072 -3.83879 0
M  V30 5812 C 542.223 -4.95616 -3.72511 0
M  V30 5813 C 544.278 -3.63788 -3.39945 0
M  V30 5814 C 542.981 -6.14895 -3.73225 0
M  V30 5815 C 545.007 -4.82517 -3.41953 0
M  V30 5816 C 544.369 -6.065 -3.58242 0
M  V30 5817 H 540.468 -0.341034 -0.703719 0
M  V30 5818 H 543.052 -1.35575 -1.39741 0
M  V30 5819 H 541.223 -0.67725 -3.8245 0
M  V30 5820 H 542.955 -0.892119 -3.94745 0
M  V30 5821 H 539.71 -2.90097 -3.74354 0
M  V30 5822 H 540.134 -5.51573 -3.92551 0
M  V30 5823 H 544.776 -2.68888 -3.26281 0
M  V30 5824 H 542.494 -7.10129 -3.85672 0
M  V30 5825 H 546.08 -4.79017 -3.30203 0
M  V30 5826 H 544.96 -6.96833 -3.59712 0
M  V30 5827 N 542.463 1.3308 -0.844243 0
M  V30 5828 C 543.426 2.27403 -0.286485 0
M  V30 5829 C 544.426 1.51179 0.547872 0
M  V30 5830 O 545.616 1.70421 0.360886 0
M  V30 5831 C 542.748 3.35653 0.595813 0
M  V30 5832 H 543.941 2.78248 -1.11885 0
M  V30 5833 H 541.494 1.43574 -0.617749 0
M  V30 5834 H 542.229 2.90058 1.4504 0
M  V30 5835 H 542.014 3.921 -0.00125994 0
M  V30 5836 H 543.504 4.05958 0.979168 0
M  V30 5837 N 543.941 0.601185 1.45683 0
M  V30 5838 C 545.187 0.102425 2.03142 0
M  V30 5839 C 545.542 -1.25066 1.46207 0
M  V30 5840 O 544.835 -1.81126 0.624806 0
M  V30 5841 C 545.029 -0.00222425 3.574 0
M  V30 5842 C 544.858 1.33917 4.29298 0
M  V30 5843 C 543.628 1.91818 4.67476 0
M  V30 5844 C 545.826 2.26652 4.61664 0
M  V30 5845 N 543.808 3.19504 5.24204 0
M  V30 5846 C 545.179 3.38933 5.19157 0
M  V30 5847 C 547.234 2.26103 4.43601 0
M  V30 5848 C 545.937 4.50823 5.60492 0
M  V30 5849 C 547.963 3.37036 4.85964 0
M  V30 5850 C 547.325 4.48039 5.43545 0
M  V30 5851 H 543.424 0.0806974 0.777825 0
M  V30 5852 H 546.008 0.798134 1.77589 0
M  V30 5853 H 544.179 -0.66714 3.82627 0
M  V30 5854 H 545.911 -0.507058 4.01511 0
M  V30 5855 H 542.666 1.45097 4.50826 0
M  V30 5856 H 543.09 3.84705 5.57073 0
M  V30 5857 H 547.732 1.41547 3.98402 0
M  V30 5858 H 545.45 5.36108 6.0466 0
M  V30 5859 H 549.036 3.37752 4.73725 0
M  V30 5860 H 547.916 5.32459 5.75723 0
M  V30 5861 N 545.419 -1.53889 0.339982 0
M  V30 5862 C 546.329 -2.28604 -0.526988 0
M  V30 5863 C 547.345 -1.33578 -1.11503 0
M  V30 5864 O 548.521 -1.66612 -1.13148 0
M  V30 5865 C 545.586 -3.04164 -1.66389 0
M  V30 5866 C 544.647 -4.14809 -1.10599 0
M  V30 5867 C 543.88 -4.86756 -2.18871 0
M  V30 5868 O 544.103 -4.58343 -3.39526 0
M  V30 5869 O 543.037 -5.73289 -1.83366 0
M  V30 5870 H 546.863 -3.03594 0.0802707 0
M  V30 5871 H 544.448 -1.4903 0.105141 0
M  V30 5872 H 546.33 -3.51427 -2.32544 0
M  V30 5873 H 545.005 -2.32035 -2.25703 0
M  V30 5874 H 543.912 -3.71857 -0.409067 0
M  V30 5875 H 545.245 -4.89029 -0.557771 0
M  V30 5876 N 546.897 -0.0685191 -1.57451 0
M  V30 5877 C 548.145 0.60016 -1.92983 0
M  V30 5878 C 548.466 1.70348 -0.949028 0
M  V30 5879 O 547.736 1.959 0.00335647 0
M  V30 5880 H 546.316 0.224682 -0.712409 0
M  V30 5881 H 548.978 -0.125605 -1.94495 0
M  V30 5882 H 548.074 1.02759 -2.94698 0
M  V30 5883 N 548.375 1.56261 0.205012 0
M  V30 5884 C 549.322 1.93754 1.25411 0
M  V30 5885 C 550.292 0.796826 1.45739 0
M  V30 5886 O 551.477 1.05414 1.59036 0
M  V30 5887 C 548.617 2.27383 2.59598 0
M  V30 5888 C 547.73 3.5447 2.46931 0
M  V30 5889 C 546.865 3.77468 3.73753 0
M  V30 5890 C 545.904 4.98014 3.55877 0
M  V30 5891 N 545.041 5.17316 4.74688 0
M  V30 5892 H 549.881 2.83203 0.92737 0
M  V30 5893 H 547.418 1.40158 0.446574 0
M  V30 5894 H 549.376 2.44895 3.37761 0
M  V30 5895 H 548.006 1.41088 2.90335 0
M  V30 5896 H 547.058 3.45061 1.60116 0
M  V30 5897 H 548.37 4.42789 2.29651 0
M  V30 5898 H 547.524 3.95165 4.60358 0
M  V30 5899 H 546.263 2.87461 3.93976 0
M  V30 5900 H 545.268 4.80249 2.67657 0
M  V30 5901 H 546.493 5.8952 3.37109 0
M  V30 5902 H 544.439 4.30255 4.95194 0
M  V30 5903 H 544.356 5.99796 4.60197 0
M  V30 5904 H 545.624 5.39463 5.62672 0
M  V30 5905 N 549.853 -0.472356 1.50355 0
M  V30 5906 C 550.8 -1.57051 1.69126 0
M  V30 5907 C 551.77 -1.5733 0.532574 0
M  V30 5908 O 552.955 -1.7488 0.762994 0
M  V30 5909 C 550.095 -2.95033 1.79024 0
M  V30 5910 C 549.208 -3.04552 3.06386 0
M  V30 5911 C 548.343 -4.33441 3.07087 0
M  V30 5912 C 547.382 -4.36697 4.28908 0
M  V30 5913 N 546.519 -5.57056 4.27356 0
M  V30 5914 H 551.359 -1.40351 2.62879 0
M  V30 5915 H 548.896 -0.682403 1.30314 0
M  V30 5916 H 550.854 -3.75048 1.82744 0
M  V30 5917 H 549.484 -3.10371 0.887109 0
M  V30 5918 H 548.536 -2.17419 3.12143 0
M  V30 5919 H 549.848 -3.02818 3.96362 0
M  V30 5920 H 549.002 -5.21801 3.09529 0
M  V30 5921 H 547.741 -4.37782 2.14939 0
M  V30 5922 H 546.746 -3.46734 4.2668 0
M  V30 5923 H 547.971 -4.34049 5.22282 0
M  V30 5924 H 545.917 -5.62184 3.3806 0
M  V30 5925 H 545.834 -5.57058 5.111 0
M  V30 5926 H 547.102 -6.47545 4.33942 0
M  V30 5927 N 551.331 -1.39911 -0.725443 0
M  V30 5928 C 552.577 -1.37858 -1.48738 0
M  V30 5929 C 552.91 0.0224187 -1.94187 0
M  V30 5930 O 552.185 0.989204 -1.67466 0
M  V30 5931 C 552.468 -2.3594 -2.72038 0
M  V30 5932 C 552.321 -3.85023 -2.32546 0
M  V30 5933 C 553.64 -2.31704 -3.74167 0
M  V30 5934 H 550.759 -0.502074 -0.539528 0
M  V30 5935 H 553.401 -1.70974 -0.828728 0
M  V30 5936 H 551.551 -2.0783 -3.28236 0
M  V30 5937 H 553.223 -4.2392 -1.81905 0
M  V30 5938 H 551.466 -4.01334 -1.64661 0
M  V30 5939 H 552.137 -4.49152 -3.20884 0
M  V30 5940 H 554.613 -2.5658 -3.27576 0
M  V30 5941 H 553.489 -3.02395 -4.58092 0
M  V30 5942 H 553.75 -1.3253 -4.21768 0
M  V30 5943 N 552.809 0.956637 -1.25245 0
M  V30 5944 C 554.22 1.51569 -1.09012 0
M  V30 5945 C 554.571 1.93322 0.334813 0
M  V30 5946 O 553.696 1.78421 1.22454 0
M  V30 5947 C 554.291 2.75444 -1.97271 0
M  V30 5948 C 552.85 3.27669 -1.8523 0
M  V30 5949 C 551.997 2.00517 -1.91542 0
M  V30 5950 H 554.948 0.773746 -1.3856 0
M  V30 5951 H 554.969 3.4919 -1.51151 0
M  V30 5952 H 554.481 2.45024 -3.00973 0
M  V30 5953 H 552.582 3.62914 -0.844045 0
M  V30 5954 H 552.695 3.9582 -2.69932 0
M  V30 5955 H 551.059 2.15727 -1.35404 0
M  V30 5956 H 551.842 1.72448 -2.96844 0
M  V30 5957 N 554.287 1.06798 1.15896 0
M  V30 5958 C 555.197 0.694564 2.24083 0
M  V30 5959 C 556.213 -0.291687 1.71538 0
M  V30 5960 O 557.389 -0.139723 2.00915 0
M  V30 5961 C 554.454 0.0921014 3.46578 0
M  V30 5962 C 553.515 1.13087 4.14137 0
M  V30 5963 C 552.748 0.557064 5.30785 0
M  V30 5964 O 552.971 -0.628623 5.66925 0
M  V30 5965 O 551.905 1.29924 5.8771 0
M  V30 5966 H 555.731 1.59663 2.58344 0
M  V30 5967 H 553.316 0.840575 1.2351 0
M  V30 5968 H 555.198 -0.241884 4.20705 0
M  V30 5969 H 553.873 -0.78337 3.14078 0
M  V30 5970 H 552.78 1.51712 3.41957 0
M  V30 5971 H 554.113 1.97805 4.50704 0
M  V30 5972 N 555.766 -1.3263 0.851289 0
M  V30 5973 C 556.729 -2.27247 0.298541 0
M  V30 5974 C 557.729 -1.51467 -0.539847 0
M  V30 5975 O 558.919 -1.7061 -0.351843 0
M  V30 5976 C 556.051 -3.35964 -0.578004 0
M  V30 5977 H 557.244 -2.7765 1.13359 0
M  V30 5978 H 554.797 -1.43245 0.625354 0
M  V30 5979 H 555.532 -2.90823 -1.435 0
M  V30 5980 H 555.317 -3.92094 0.0220539 0
M  V30 5981 H 556.807 -4.06472 -0.957626 0
M  V30 5982 N 557.244 -0.608902 -1.45362 0
M  V30 5983 C 558.174 0.0964526 -2.33301 0
M  V30 5984 C 559.155 0.857444 -1.46908 0
M  V30 5985 O 560.34 0.827735 -1.75676 0
M  V30 5986 C 557.47 1.09354 -3.29635 0
M  V30 5987 C 556.424 0.445676 -4.25673 0
M  V30 5988 C 555.75 1.5511 -5.11708 0
M  V30 5989 C 557.05 -0.633972 -5.18438 0
M  V30 5990 H 558.744 -0.637829 -2.92527 0
M  V30 5991 H 556.29 -0.308178 -1.40664 0
M  V30 5992 H 558.243 1.59556 -3.90025 0
M  V30 5993 H 556.967 1.85843 -2.6857 0
M  V30 5994 H 555.626 -0.0354897 -3.66583 0
M  V30 5995 H 555.274 2.30631 -4.4701 0
M  V30 5996 H 554.974 1.12311 -5.76767 0
M  V30 5997 H 556.498 2.05537 -5.74967 0
M  V30 5998 H 557.912 -0.215974 -5.72893 0
M  V30 5999 H 556.309 -0.983789 -5.91981 0
M  V30 6000 H 557.379 -1.51005 -4.60788 0
M  V30 6001 N 558.722 1.53707 -0.348139 0
M  V30 6002 C 559.632 2.28881 0.514857 0
M  V30 6003 C 560.648 1.34168 1.10793 0
M  V30 6004 O 561.824 1.6721 1.12262 0
M  V30 6005 C 558.889 3.05042 1.64774 0
M  V30 6006 C 557.95 4.15389 1.08398 0
M  V30 6007 C 557.183 4.87909 2.16287 0
M  V30 6008 O 557.406 4.60137 3.3709 0
M  V30 6009 O 556.34 5.74254 1.80323 0
M  V30 6010 H 560.166 3.03547 -0.0963699 0
M  V30 6011 H 557.751 1.48972 -0.113043 0
M  V30 6012 H 559.633 3.52656 2.30677 0
M  V30 6013 H 558.308 2.33228 2.24469 0
M  V30 6014 H 557.215 3.72068 0.389341 0
M  V30 6015 H 558.548 4.89318 0.531829 0
M  V30 6016 N 560.2 0.0768682 1.57412 0
M  V30 6017 C 561.133 -0.924685 2.08626 0
M  V30 6018 C 562.111 -1.28792 0.992542 0
M  V30 6019 O 563.295 -1.39634 1.26628 0
M  V30 6020 C 560.422 -2.23131 2.54814 0
M  V30 6021 C 559.468 -2.01928 3.75669 0
M  V30 6022 S 560.301 -1.27397 5.20125 0
M  V30 6023 C 561.457 -2.59329 5.69648 0
M  V30 6024 H 561.69 -0.488928 2.93252 0
M  V30 6025 H 559.223 -0.136014 1.538 0
M  V30 6026 H 561.181 -2.98226 2.82084 0
M  V30 6027 H 559.842 -2.63831 1.70447 0
M  V30 6028 H 559.035 -2.98639 4.05993 0
M  V30 6029 H 558.637 -1.34967 3.48798 0
M  V30 6030 H 560.929 -3.55394 5.76803 0
M  V30 6031 H 561.872 -2.33608 6.68456 0
M  V30 6032 H 562.28 -2.66767 4.9749 0
M  V30 6033 N 561.678 -1.56367 -0.196722 0
M  V30 6034 C 562.625 -1.94417 -1.24382 0
M  V30 6035 C 563.595 -0.804543 -1.45315 0
M  V30 6036 O 564.78 -1.06256 -1.58475 0
M  V30 6037 C 561.92 -2.28757 -2.58388 0
M  V30 6038 C 561.033 -3.55775 -2.45047 0
M  V30 6039 C 560.168 -3.79445 -3.71746 0
M  V30 6040 C 559.207 -4.99894 -3.53231 0
M  V30 6041 N 558.344 -5.19826 -4.71938 0
M  V30 6042 H 563.184 -2.83691 -0.912338 0
M  V30 6043 H 560.721 -1.40392 -0.439135 0
M  V30 6044 H 562.679 -2.46682 -3.36457 0
M  V30 6045 H 561.309 -1.42625 -2.89582 0
M  V30 6046 H 560.361 -3.45905 -1.58284 0
M  V30 6047 H 561.673 -4.44 -2.27299 0
M  V30 6048 H 560.827 -3.97601 -4.58256 0
M  V30 6049 H 559.566 -2.89546 -3.92446 0
M  V30 6050 H 558.571 -4.81662 -2.65107 0
M  V30 6051 H 559.796 -5.913 -3.33978 0
M  V30 6052 H 557.742 -4.32875 -4.92905 0
M  V30 6053 H 557.659 -6.02228 -4.57009 0
M  V30 6054 H 558.927 -5.42439 -5.59803 0
M  V30 6055 N 563.156 0.464375 -1.50603 0
M  V30 6056 C 564.103 1.56152 -1.69956 0
M  V30 6057 C 565.073 1.57046 -0.54091 0
M  V30 6058 O 566.258 1.74473 -0.772258 0
M  V30 6059 C 563.398 2.94079 -1.80586 0
M  V30 6060 C 562.511 3.02923 -3.07996 0
M  V30 6061 C 561.646 4.31806 -3.09382 0
M  V30 6062 C 560.685 4.34417 -4.31218 0
M  V30 6063 N 559.822 5.54782 -4.30304 0
M  V30 6064 H 564.662 1.38955 -2.6362 0
M  V30 6065 H 562.199 0.675482 -1.30674 0
M  V30 6066 H 564.157 3.74073 -1.8473 0
M  V30 6067 H 562.787 3.09896 -0.903556 0
M  V30 6068 H 561.839 2.1576 -3.13292 0
M  V30 6069 H 563.151 3.00712 -3.97962 0
M  V30 6070 H 562.305 5.20153 -3.12292 0
M  V30 6071 H 561.044 4.36636 -2.17257 0
M  V30 6072 H 560.049 3.44467 -4.28512 0
M  V30 6073 H 561.274 4.31273 -5.24576 0
M  V30 6074 H 559.22 5.60384 -3.41037 0
M  V30 6075 H 559.137 5.54339 -5.14047 0
M  V30 6076 H 560.405 6.45235 -4.3737 0
M  V30 6077 N 564.634 1.40294 0.718013 0
M  V30 6078 C 565.581 1.40367 1.8321 0
M  V30 6079 C 566.551 0.260952 1.64037 0
M  V30 6080 O 567.736 0.458648 1.85205 0
M  V30 6081 C 564.876 1.26965 3.20895 0
M  V30 6082 C 563.989 2.50922 3.51656 0
M  V30 6083 C 563.124 2.29981 4.78834 0
M  V30 6084 C 562.163 3.49527 5.02491 0
M  V30 6085 N 561.3 3.27796 6.20882 0
M  V30 6086 H 566.14 2.35593 1.82482 0
M  V30 6087 H 563.677 1.17012 0.891444 0
M  V30 6088 H 565.635 1.17202 4.00399 0
M  V30 6089 H 564.265 0.353591 3.20858 0
M  V30 6090 H 563.317 2.71223 2.66725 0
M  V30 6091 H 564.629 3.39913 3.65048 0
M  V30 6092 H 563.783 2.17558 5.66351 0
M  V30 6093 H 562.522 1.38411 4.67647 0
M  V30 6094 H 561.527 3.6243 4.1343 0
M  V30 6095 H 562.752 4.42021 5.15553 0
M  V30 6096 H 560.698 2.38906 6.1095 0
M  V30 6097 H 560.615 4.10351 6.34939 0
M  V30 6098 H 561.883 3.19101 7.11193 0
M  V30 6099 N 566.112 -0.949982 1.2575 0
M  V30 6100 C 567.34 -1.72972 1.13527 0
M  V30 6101 C 567.755 -1.8623 -0.310453 0
M  V30 6102 O 567.112 -1.36336 -1.2132 0
M  V30 6103 C 567.163 -3.14108 1.78936 0
M  V30 6104 O 566.884 -3.01493 3.17858 0
M  V30 6105 C 568.385 -4.08338 1.72554 0
M  V30 6106 H 565.605 -0.541864 0.395758 0
M  V30 6107 H 568.149 -1.19151 1.66202 0
M  V30 6108 H 566.304 -3.64858 1.30221 0
M  V30 6109 H 566.718 -3.90559 3.50092 0
M  V30 6110 H 568.192 -5.04963 2.22973 0
M  V30 6111 H 568.669 -4.33742 0.690251 0
M  V30 6112 H 569.275 -3.63506 2.2078 0
M  V30 6113 N 567.59 -1.07411 -1.15328 0
M  V30 6114 C 569.001 -0.820261 -1.67716 0
M  V30 6115 C 569.352 0.654539 -1.8496 0
M  V30 6116 O 568.477 1.50664 -1.55337 0
M  V30 6117 C 569.072 -1.48242 -3.04647 0
M  V30 6118 C 567.631 -1.27606 -3.5411 0
M  V30 6119 C 566.778 -1.5517 -2.29821 0
M  V30 6120 H 569.729 -1.23608 -0.995332 0
M  V30 6121 H 569.75 -0.903984 -3.69606 0
M  V30 6122 H 569.262 -2.55578 -2.92064 0
M  V30 6123 H 567.363 -0.222948 -3.71932 0
M  V30 6124 H 567.476 -1.99667 -4.35511 0
M  V30 6125 H 565.84 -0.972747 -2.35393 0
M  V30 6126 H 566.623 -2.63689 -2.19824 0
M  V30 6127 N 569.068 1.32177 -0.85831 0
M  V30 6128 C 570.031 2.27086 -0.310588 0
M  V30 6129 C 571.031 1.51751 0.531806 0
M  V30 6130 O 572.221 1.70794 0.34279 0
M  V30 6131 C 569.353 3.36266 0.560179 0
M  V30 6132 H 570.546 2.77045 -1.1483 0
M  V30 6133 H 568.099 1.42911 -0.632942 0
M  V30 6134 H 568.834 2.9158 1.41956 0
M  V30 6135 H 568.619 3.92077 -0.0428473 0
M  V30 6136 H 570.109 4.06974 0.936056 0
M  V30 6137 N 570.547 0.616602 1.45037 0
M  V30 6138 C 571.51 -0.0871112 2.29034 0
M  V30 6139 C 572.51 -0.786414 1.40258 0
M  V30 6140 O 573.7 -0.633207 1.62284 0
M  V30 6141 C 570.832 -1.13369 3.21497 0
M  V30 6142 H 572.025 0.651497 2.92738 0
M  V30 6143 H 569.578 0.376058 1.51709 0
M  V30 6144 H 570.313 -1.90277 2.62612 0
M  V30 6145 H 570.098 -0.636358 3.86902 0
M  V30 6146 H 571.588 -1.62627 3.84633 0
M  V30 6147 N 572.025 -1.5352 0.356285 0
M  V30 6148 C 573.436 -1.86282 -0.12492 0
M  V30 6149 C 573.787 -1.27717 -1.48939 0
M  V30 6150 O 572.912 -0.595614 -2.08042 0
M  V30 6151 C 573.507 -3.37995 -0.23345 0
M  V30 6152 C 572.066 -3.70588 -0.658899 0
M  V30 6153 C 571.213 -2.76581 0.199596 0
M  V30 6154 H 574.164 -1.47901 0.575423 0
M  V30 6155 H 574.185 -3.65475 -1.0587 0
M  V30 6156 H 573.697 -3.8059 0.759776 0
M  V30 6157 H 571.798 -3.33544 -1.66069 0
M  V30 6158 H 571.911 -4.77076 -0.439957 0
M  V30 6159 H 570.275 -2.52552 -0.330076 0
M  V30 6160 H 571.058 -3.22008 1.19019 0
M  V30 6161 N 573.503 -0.0852151 -1.57369 0
M  V30 6162 C 574.466 0.8627 -2.12344 0
M  V30 6163 C 575.466 1.21746 -1.05046 0
M  V30 6164 O 576.656 1.14852 -1.30976 0
M  V30 6165 C 573.788 2.1618 -2.63589 0
M  V30 6166 H 574.981 0.385511 -2.97412 0
M  V30 6167 H 572.534 0.163663 -1.55441 0
M  V30 6168 H 573.269 2.68406 -1.82013 0
M  V30 6169 H 573.054 1.91723 -3.4203 0
M  V30 6170 H 574.544 2.84011 -3.06149 0
M  V30 6171 N 574.981 1.5647 0.188427 0
M  V30 6172 C 575.928 1.95073 1.23349 0
M  V30 6173 C 576.898 0.812238 1.44886 0
M  V30 6174 O 578.083 1.07095 1.57909 0
M  V30 6175 C 575.223 2.30124 2.57171 0
M  V30 6176 C 574.336 3.57069 2.43157 0
M  V30 6177 C 573.471 3.81411 3.69729 0
M  V30 6178 C 572.51 5.0176 3.50575 0
M  V30 6179 N 571.647 5.22321 4.69175 0
M  V30 6180 H 576.487 2.84171 0.89728 0
M  V30 6181 H 574.024 1.40623 0.431683 0
M  V30 6182 H 575.982 2.48463 3.35145 0
M  V30 6183 H 574.612 1.44159 2.88822 0
M  V30 6184 H 573.664 3.4674 1.56447 0
M  V30 6185 H 574.976 4.452 2.24942 0
M  V30 6186 H 574.13 4.00026 4.56141 0
M  V30 6187 H 572.869 2.91624 3.90905 0
M  V30 6188 H 571.874 4.83061 2.62549 0
M  V30 6189 H 573.099 5.93063 3.30837 0
M  V30 6190 H 571.045 4.35483 4.90602 0
M  V30 6191 H 570.962 6.04643 4.53809 0
M  V30 6192 H 572.23 5.45401 5.56919 0
M  V30 6193 N 576.459 -0.456382 1.50847 0
M  V30 6194 C 577.406 -1.55249 1.70782 0
M  V30 6195 C 578.376 -1.56757 0.549231 0
M  V30 6196 O 579.561 -1.74061 0.7815 0
M  V30 6197 C 576.701 -2.93118 1.82143 0
M  V30 6198 C 575.814 -3.01285 3.09598 0
M  V30 6199 C 574.949 -4.30159 3.11667 0
M  V30 6200 C 573.988 -4.32124 4.33515 0
M  V30 6201 N 573.125 -5.52492 4.3324 0
M  V30 6202 H 577.965 -1.37555 2.64353 0
M  V30 6203 H 575.502 -0.668543 1.3103 0
M  V30 6204 H 577.46 -3.73088 1.86711 0
M  V30 6205 H 576.09 -3.09413 0.919978 0
M  V30 6206 H 575.142 -2.14096 3.14431 0
M  V30 6207 H 576.454 -2.98597 3.99551 0
M  V30 6208 H 575.608 -5.18489 3.15046 0
M  V30 6209 H 574.347 -4.35477 2.1957 0
M  V30 6210 H 573.352 -3.42189 4.30333 0
M  V30 6211 H 574.577 -4.28485 5.26856 0
M  V30 6212 H 572.523 -5.58567 3.44004 0
M  V30 6213 H 572.44 -5.51605 5.16979 0
M  V30 6214 H 573.708 -6.42906 4.40786 0
M  V30 6215 N 577.937 -1.40673 -0.710563 0
M  V30 6216 C 579.165 -1.42547 -1.4996 0
M  V30 6217 C 579.58 -0.0265485 -1.88781 0
M  V30 6218 O 578.937 0.950694 -1.55782 0
M  V30 6219 C 578.988 -2.32071 -2.77173 0
M  V30 6220 O 578.709 -3.66518 -2.39992 0
M  V30 6221 C 580.21 -2.42591 -3.71032 0
M  V30 6222 H 577.43 -0.486025 -0.462623 0
M  V30 6223 H 579.974 -1.84783 -0.876102 0
M  V30 6224 H 578.129 -1.93184 -3.35795 0
M  V30 6225 H 578.543 -4.14115 -3.21884 0
M  V30 6226 H 580.017 -3.09429 -4.57119 0
M  V30 6227 H 580.494 -1.4525 -4.14486 0
M  V30 6228 H 581.1 -2.82051 -3.18319 0
M  V30 6229 N 579.415 0.9433 -1.26252 0
M  V30 6230 C 580.64 1.72898 -1.14547 0
M  V30 6231 C 581.065 1.85761 0.295743 0
M  V30 6232 O 580.423 1.3463 1.21427 0
M  V30 6233 C 580.471 3.11471 -1.8171 0
M  V30 6234 O 579.575 3.97336 -1.10445 0
M  V30 6235 H 578.916 0.530555 -0.399259 0
M  V30 6236 H 581.446 1.18159 -1.67032 0
M  V30 6237 H 581.456 3.61872 -1.88449 0
M  V30 6238 H 580.131 3.01425 -2.86558 0
M  V30 6239 H 578.708 3.55788 -1.11666 0
M  V30 6240 N 580.893 1.08022 1.14757 0
M  V30 6241 C 582.121 0.828847 1.89572 0
M  V30 6242 C 582.536 -0.618621 1.78377 0
M  V30 6243 O 581.893 -1.42482 1.1404 0
M  V30 6244 C 581.944 1.23677 3.39685 0
M  V30 6245 O 581.665 2.62746 3.50566 0
M  V30 6246 C 583.166 1.01569 4.31507 0
M  V30 6247 H 580.386 0.299196 0.600602 0
M  V30 6248 H 582.93 1.43846 1.45357 0
M  V30 6249 H 581.085 0.671347 3.81539 0
M  V30 6250 H 581.499 2.79573 4.43778 0
M  V30 6251 H 582.973 1.35055 5.35223 0
M  V30 6252 H 583.45 -0.0475433 4.39174 0
M  V30 6253 H 584.056 1.56636 3.95405 0
M  V30 6254 N 582.371 -1.3172 0.865308 0
M  V30 6255 C 583.599 -2.01057 0.488251 0
M  V30 6256 C 584.014 -1.64979 -0.918 0
M  V30 6257 O 583.371 -0.876597 -1.60069 0
M  V30 6258 C 583.422 -3.55964 0.630224 0
M  V30 6259 O 583.143 -3.90749 1.98109 0
M  V30 6260 C 584.644 -4.42574 0.253567 0
M  V30 6261 H 581.864 -0.64332 0.190736 0
M  V30 6262 H 584.408 -1.68058 1.16519 0
M  V30 6263 H 582.563 -3.874 0.000895422 0
M  V30 6264 H 582.977 -4.85467 1.9855 0
M  V30 6265 H 584.451 -5.50521 0.403875 0
M  V30 6266 H 584.928 -4.31724 -0.806895 0
M  V30 6267 H 585.534 -4.16547 0.858404 0
M  V30 6268 N 583.85 -0.624285 -1.44708 0
M  V30 6269 C 585.096 -0.126051 -2.02107 0
M  V30 6270 C 585.425 1.2496 -1.49048 0
M  V30 6271 O 584.68 1.84163 -0.662005 0
M  V30 6272 C 584.979 -0.0546353 -3.57358 0
M  V30 6273 C 584.644 -1.36815 -4.29642 0
M  V30 6274 C 583.307 -1.72792 -4.49106 0
M  V30 6275 C 585.659 -2.23549 -4.70824 0
M  V30 6276 C 582.986 -2.95222 -5.07012 0
M  V30 6277 C 585.339 -3.45243 -5.30085 0
M  V30 6278 C 584.003 -3.81452 -5.47769 0
M  V30 6279 H 583.273 -0.0461252 -0.739563 0
M  V30 6280 H 585.92 -0.809236 -1.73562 0
M  V30 6281 H 584.225 0.711891 -3.85278 0
M  V30 6282 H 585.922 0.347282 -3.99493 0
M  V30 6283 H 582.512 -1.07817 -4.14817 0
M  V30 6284 H 586.696 -1.9705 -4.55505 0
M  V30 6285 H 581.952 -3.23361 -5.18891 0
M  V30 6286 H 586.125 -4.12689 -5.60946 0
M  V30 6287 H 583.753 -4.76403 -5.92405 0
M  V30 6288 N 585.328 1.53329 -0.364422 0
M  V30 6289 C 586.276 2.27212 0.497737 0
M  V30 6290 C 587.27 1.30146 1.08437 0
M  V30 6291 O 588.476 1.47778 1.0277 0
M  V30 6292 H 584.851 0.730329 0.179232 0
M  V30 6293 H 586.822 2.98037 -0.147182 0
M  V30 6294 C 585.571 3.07333 1.6261 0
M  V30 6295 H 584.894 3.81866 1.184 0
M  V30 6296 H 586.334 3.62209 2.20409 0
M  V30 6297 C 584.793 2.18102 2.56775 0
M  V30 6298 O 585.323 1.79104 3.59562 0
M  V30 6299 N 583.529 1.82759 2.25937 0
M  V30 6300 H 583.076 2.14671 1.42387 0
M  V30 6301 H 583.034 1.23342 2.89196 0
M  V30 6302 N 586.806 0.0935595 1.57322 0
M  V30 6303 C 588.055 -0.570191 1.93473 0
M  V30 6304 C 588.368 -1.69434 0.977318 0
M  V30 6305 O 589.574 -2.41914 1.23248 0
M  V30 6306 C 588.03 -1.06564 3.43762 0
M  V30 6307 C 587.638 0.0286723 4.47991 0
M  V30 6308 C 589.382 -1.70221 3.88877 0
M  V30 6309 C 587.289 -0.482046 5.89432 0
M  V30 6310 H 586.219 -0.216764 0.72217 0
M  V30 6311 H 588.87 0.169313 1.82717 0
M  V30 6312 H 587.252 -1.85878 3.49664 0
M  V30 6313 H 588.426 0.804106 4.5373 0
M  V30 6314 H 586.741 0.570336 4.12476 0
M  V30 6315 H 589.338 -2.09502 4.91948 0
M  V30 6316 H 589.681 -2.57078 3.27439 0
M  V30 6317 H 590.214 -0.974919 3.85668 0
M  V30 6318 H 586.953 0.349871 6.54566 0
M  V30 6319 H 586.473 -1.22452 5.87167 0
M  V30 6320 H 588.152 -0.951508 6.39965 0
M  V30 6321 N 588.284 -1.56567 -0.180126 0
M  V30 6322 C 589.53 -1.81761 -0.899497 0
M  V30 6323 C 589.863 -0.670015 -1.82276 0
M  V30 6324 O 589.138 0.328575 -1.91705 0
M  V30 6325 C 589.421 -3.17296 -1.7028 0
M  V30 6326 C 589.274 -4.4257 -0.803255 0
M  V30 6327 C 590.593 -3.49678 -2.67233 0
M  V30 6328 H 587.712 -0.661192 -0.325567 0
M  V30 6329 H 590.354 -1.89272 -0.16612 0
M  V30 6330 H 588.504 -3.11023 -2.32802 0
M  V30 6331 H 590.176 -4.60902 -0.191585 0
M  V30 6332 H 588.419 -4.33658 -0.110796 0
M  V30 6333 H 589.09 -5.33935 -1.40064 0
M  V30 6334 H 591.566 -3.56347 -2.14839 0
M  V30 6335 H 590.442 -4.45605 -3.20511 0
M  V30 6336 H 590.703 -2.73932 -3.47007 0
M  V30 6337 N 589.762 0.448376 -1.51087 0
M  V30 6338 C 591.01 1.19635 -1.62886 0
M  V30 6339 C 591.331 1.91977 -0.342024 0
M  V30 6340 O 590.601 1.85094 0.641636 0
M  V30 6341 H 589.181 0.444598 -0.600285 0
M  V30 6342 H 591.843 0.515138 -1.87969 0
M  V30 6343 H 590.939 1.93194 -2.45117 0
M  V30 6344 N 591.24 1.41047 0.703093 0
M  V30 6345 C 592.468 1.4334 1.49202 0
M  V30 6346 C 592.883 0.0365596 1.88765 0
M  V30 6347 O 592.24 -0.942419 1.56284 0
M  V30 6348 C 592.291 2.33538 2.75939 0
M  V30 6349 O 592.012 3.67786 2.38045 0
M  V30 6350 C 593.513 2.44555 3.6974 0
M  V30 6351 H 590.733 0.488472 0.460039 0
M  V30 6352 H 593.277 1.85245 0.86629 0
M  V30 6353 H 591.432 1.94962 3.34766 0
M  V30 6354 H 591.846 4.15816 3.19683 0
M  V30 6355 H 593.32 3.11849 4.55471 0
M  V30 6356 H 593.797 1.47447 4.1371 0
M  V30 6357 H 594.403 2.83735 3.16819 0
M  V30 6358 N 592.718 -0.936591 1.26751 0
M  V30 6359 C 593.946 -1.71758 1.15355 0
M  V30 6360 C 594.361 -1.86549 -0.290683 0
M  V30 6361 O 593.718 -1.37616 -1.19868 0
M  V30 6362 C 593.769 -3.12193 1.82258 0
M  V30 6363 O 593.49 -2.98105 3.21038 0
M  V30 6364 C 594.991 -4.06485 1.76875 0
M  V30 6365 H 592.211 -0.537636 0.401483 0
M  V30 6366 H 594.755 -1.17382 1.67457 0
M  V30 6367 H 592.91 -3.63456 1.34083 0
M  V30 6368 H 593.324 -3.86824 3.54214 0
M  V30 6369 H 594.798 -5.02569 2.28316 0
M  V30 6370 H 595.275 -4.32986 0.736216 0
M  V30 6371 H 595.881 -3.61144 2.24623 0
M  V30 6372 N 594.196 -1.08629 -1.14182 0
M  V30 6373 C 595.426 -0.837673 -1.88856 0
M  V30 6374 C 595.834 0.614024 -1.78959 0
M  V30 6375 O 595.177 1.43384 -1.14833 0
M  V30 6376 C 595.239 -1.18355 -3.39459 0
M  V30 6377 C 594.903 -2.63848 -3.73139 0
M  V30 6378 C 595.9 -3.62099 -3.73069 0
M  V30 6379 C 593.585 -2.99761 -4.03049 0
M  V30 6380 C 595.579 -4.94292 -4.02435 0
M  V30 6381 C 593.266 -4.32147 -4.32078 0
M  V30 6382 C 594.264 -5.29223 -4.31755 0
M  V30 6383 O 593.952 -6.59229 -4.60079 0
M  V30 6384 H 593.684 -0.301609 -0.604986 0
M  V30 6385 H 596.238 -1.44961 -1.45518 0
M  V30 6386 H 594.468 -0.514628 -3.8326 0
M  V30 6387 H 596.157 -0.915391 -3.95443 0
M  V30 6388 H 596.923 -3.35698 -3.50046 0
M  V30 6389 H 592.802 -2.2484 -4.02453 0
M  V30 6390 H 596.346 -5.70055 -4.02098 0
M  V30 6391 H 592.243 -4.58296 -4.54571 0
M  V30 6392 H 593.011 -6.64578 -4.77785 0
M  V30 6393 N 595.674 1.31259 -0.872281 0
M  V30 6394 C 597.085 1.78822 -0.536617 0
M  V30 6395 C 597.436 1.71855 0.946594 0
M  V30 6396 O 596.561 1.28769 1.73918 0
M  V30 6397 C 597.156 3.24698 -0.967294 0
M  V30 6398 C 595.715 3.70147 -0.683251 0
M  V30 6399 C 594.862 2.51994 -1.15733 0
M  V30 6400 H 597.813 1.18308 -1.05777 0
M  V30 6401 H 597.834 3.79386 -0.290929 0
M  V30 6402 H 597.346 3.29737 -2.04683 0
M  V30 6403 H 595.447 3.70607 0.384825 0
M  V30 6404 H 595.56 4.62183 -1.2619 0
M  V30 6405 H 593.924 2.48078 -0.577024 0
M  V30 6406 H 594.707 2.59778 -2.24434 0
M  V30 6407 N 597.152 0.631951 1.44375 0
M  V30 6408 C 598.401 0.134214 2.01253 0
M  V30 6409 C 598.714 -1.25171 1.50305 0
M  V30 6410 O 599.92 -1.8435 1.99317 0
M  V30 6411 C 598.376 0.189187 3.59402 0
M  V30 6412 C 597.984 1.57647 4.19346 0
M  V30 6413 C 599.728 -0.252044 4.23751 0
M  V30 6414 C 597.635 1.58651 5.69722 0
M  V30 6415 H 596.565 0.0464101 0.75257 0
M  V30 6416 H 599.216 0.790868 1.65582 0
M  V30 6417 H 597.598 -0.534584 3.92375 0
M  V30 6418 H 598.772 2.32389 3.97909 0
M  V30 6419 H 597.087 1.96186 3.67288 0
M  V30 6420 H 599.684 -0.264084 5.34047 0
M  V30 6421 H 600.027 -1.27951 3.96149 0
M  V30 6422 H 600.56 0.41926 3.95584 0
M  V30 6423 H 597.299 2.59237 6.0206 0
M  V30 6424 H 596.819 0.882039 5.93279 0
M  V30 6425 H 598.498 1.32082 6.33375 0
M  V30 6426 N 598.631 -1.53133 0.372548 0
M  V30 6427 C 599.579 -2.27473 -0.485681 0
M  V30 6428 C 600.573 -1.30719 -1.07745 0
M  V30 6429 O 601.779 -1.48321 -1.01985 0
M  V30 6430 H 598.154 -0.731269 -0.175356 0
M  V30 6431 H 600.125 -2.97955 0.162986 0
M  V30 6432 C 598.874 -3.08191 -1.60978 0
M  V30 6433 H 598.197 -3.82488 -1.16373 0
M  V30 6434 H 599.637 -3.63373 -2.18485 0
M  V30 6435 C 598.096 -2.19461 -2.55614 0
M  V30 6436 O 598.626 -1.81008 -3.58607 0
M  V30 6437 N 596.832 -1.83955 -2.24965 0
M  V30 6438 H 596.379 -2.15423 -1.41247 0
M  V30 6439 H 596.337 -1.24874 -2.88538 0
M  V30 6440 N 600.109 -0.101901 -1.5727 0
M  V30 6441 C 601.039 0.851544 -2.17419 0
M  V30 6442 C 602.02 1.28942 -1.10941 0
M  V30 6443 O 603.205 1.35509 -1.39107 0
M  V30 6444 C 600.335 2.10816 -2.75996 0
M  V30 6445 C 599.289 1.80867 -3.87906 0
M  V30 6446 C 598.615 3.13413 -4.33216 0
M  V30 6447 C 599.915 1.0903 -5.10793 0
M  V30 6448 H 601.609 0.350381 -2.97343 0
M  V30 6449 H 599.155 0.16709 -1.43027 0
M  V30 6450 H 601.108 2.77959 -3.16729 0
M  V30 6451 H 599.832 2.63227 -1.93337 0
M  V30 6452 H 598.491 1.16119 -3.47724 0
M  V30 6453 H 598.139 3.63725 -3.47438 0
M  V30 6454 H 597.839 2.94155 -5.08671 0
M  V30 6455 H 599.363 3.81704 -4.76586 0
M  V30 6456 H 600.777 1.66295 -5.48652 0
M  V30 6457 H 599.174 0.99927 -5.91722 0
M  V30 6458 H 600.244 0.0741704 -4.84843 0
M  V30 6459 N 601.587 1.56661 0.17182 0
M  V30 6460 C 602.55 1.9549 1.19651 0
M  V30 6461 C 603.55 0.838501 1.37207 0
M  V30 6462 O 604.74 1.10556 1.34622 0
M  V30 6463 C 601.872 2.24927 2.56166 0
M  V30 6464 H 603.065 2.87184 0.864007 0
M  V30 6465 H 600.618 1.50711 0.41425 0
M  V30 6466 H 601.353 1.35944 2.94431 0
M  V30 6467 H 601.138 3.06301 2.4479 0
M  V30 6468 H 602.628 2.55891 3.30014 0
M  V30 6469 N 603.065 -0.440357 1.51323 0
M  V30 6470 C 604.012 -1.53429 1.72419 0
M  V30 6471 C 604.982 -1.56165 0.565826 0
M  V30 6472 O 606.167 -1.73222 0.799917 0
M  V30 6473 C 603.307 -2.91169 1.85242 0
M  V30 6474 C 602.42 -2.97985 3.12777 0
M  V30 6475 C 601.555 -4.26829 3.16212 0
M  V30 6476 C 600.594 -4.27501 4.38074 0
M  V30 6477 N 599.731 -5.47866 4.39076 0
M  V30 6478 H 604.571 -1.34743 2.65797 0
M  V30 6479 H 602.108 -0.654608 1.31732 0
M  V30 6480 H 604.066 -3.71087 1.90658 0
M  V30 6481 H 602.696 -3.0842 0.952744 0
M  V30 6482 H 601.748 -2.10749 3.16685 0
M  V30 6483 H 603.06 -2.94342 4.02696 0
M  V30 6484 H 602.214 -5.15118 3.20527 0
M  V30 6485 H 600.953 -4.33124 2.24176 0
M  V30 6486 H 599.958 -3.37606 4.33938 0
M  V30 6487 H 601.183 -4.22873 5.31371 0
M  V30 6488 H 599.129 -5.54887 3.49909 0
M  V30 6489 H 599.046 -5.46091 5.22801 0
M  V30 6490 H 600.314 -6.38195 4.4758 0
M  V30 6491 N 604.543 -1.41418 -0.695603 0
M  V30 6492 C 605.82 -1.31264 -1.45014 0
M  V30 6493 C 606.2 0.0597994 -2.11015 0
M  V30 6494 O 605.548 1.07403 -2.01685 0
M  V30 6495 C 605.758 -2.466 -2.4696 0
M  V30 6496 C 607.106 -2.87763 -3.12214 0
M  V30 6497 O 608.13 -2.46339 -2.57285 0
M  V30 6498 O 606.989 -3.59395 -4.11701 0
M  V30 6499 H 604.083 -0.516576 -0.645816 0
M  V30 6500 H 606.629 -1.53382 -0.726084 0
M  V30 6501 H 605.401 -3.38183 -1.96845 0
M  V30 6502 H 605.024 -2.26358 -3.26876 0
M  V30 6503 N 606.021 0.929856 -1.27246 0
M  V30 6504 C 607.249 1.71144 -1.16265 0
M  V30 6505 C 607.664 1.867 0.280786 0
M  V30 6506 O 607.021 1.38249 1.19136 0
M  V30 6507 C 607.072 3.11222 -1.83911 0
M  V30 6508 O 606.793 2.96398 -3.22614 0
M  V30 6509 C 608.294 4.05541 -1.79028 0
M  V30 6510 H 605.514 0.535499 -0.404328 0
M  V30 6511 H 608.058 1.16492 -1.68077 0
M  V30 6512 H 606.213 3.6274 -1.36009 0
M  V30 6513 H 606.627 3.8494 -3.56261 0
M  V30 6514 H 608.101 5.01351 -2.30978 0
M  V30 6515 H 608.578 4.32589 -0.759168 0
M  V30 6516 H 609.184 3.59947 -2.26535 0
M  V30 6517 N 607.499 1.09233 1.13605 0
M  V30 6518 C 608.409 0.741939 2.22559 0
M  V30 6519 C 609.425 -0.255236 1.72118 0
M  V30 6520 O 610.601 -0.0970747 2.01166 0
M  V30 6521 C 607.666 0.165595 3.46304 0
M  V30 6522 C 606.727 1.21846 4.11645 0
M  V30 6523 C 605.96 0.669526 5.29484 0
M  V30 6524 O 606.183 -0.508228 5.68131 0
M  V30 6525 O 605.117 1.42361 5.84822 0
M  V30 6526 H 608.943 1.65107 2.54899 0
M  V30 6527 H 606.528 0.866584 1.21699 0
M  V30 6528 H 608.41 -0.152592 4.21124 0
M  V30 6529 H 607.085 -0.716573 3.15669 0
M  V30 6530 H 605.992 1.58931 3.38662 0
M  V30 6531 H 607.325 2.07321 4.46407 0
M  V30 6532 N 608.977 -1.30795 0.87923 0
M  V30 6533 C 610.224 -1.96362 0.494786 0
M  V30 6534 C 610.552 -1.69448 -0.954868 0
M  V30 6535 O 609.807 -0.988711 -1.68888 0
M  V30 6536 C 610.106 -3.50287 0.709476 0
M  V30 6537 C 609.772 -3.9724 2.13333 0
M  V30 6538 C 608.434 -4.09772 2.52271 0
M  V30 6539 C 610.786 -4.21807 3.06151 0
M  V30 6540 C 608.114 -4.44227 3.83248 0
M  V30 6541 C 610.466 -4.5773 4.36654 0
M  V30 6542 C 609.13 -4.68469 4.75492 0
M  V30 6543 H 608.4 -0.71854 0.181055 0
M  V30 6544 H 611.047 -1.55764 1.11399 0
M  V30 6545 H 609.352 -3.91799 0.0072 0
M  V30 6546 H 611.049 -3.99082 0.391703 0
M  V30 6547 H 607.639 -3.87988 1.82107 0
M  V30 6548 H 611.823 -4.11611 2.77291 0
M  V30 6549 H 607.079 -4.50741 4.13089 0
M  V30 6550 H 611.253 -4.7569 5.08617 0
M  V30 6551 H 608.88 -4.94923 5.77022 0
M  V30 6552 N 610.455 -0.639598 -1.44038 0
M  V30 6553 C 611.68 -0.153117 -2.06834 0
M  V30 6554 C 612.105 1.16676 -1.47541 0
M  V30 6555 O 611.463 1.71769 -0.580093 0
M  V30 6556 C 611.511 -0.0609169 -3.60549 0
M  V30 6557 O 610.615 0.98071 -4.00569 0
M  V30 6558 H 609.956 -0.0886402 -0.658057 0
M  V30 6559 H 612.486 -0.878674 -1.84771 0
M  V30 6560 H 612.496 0.126892 -4.07803 0
M  V30 6561 H 611.171 -1.0245 -4.03084 0
M  V30 6562 H 609.748 0.766789 -3.64931 0
M  V30 6563 N 611.933 1.52934 -0.380664 0
M  V30 6564 C 613.161 2.05886 0.204599 0
M  V30 6565 C 613.576 1.25305 1.41223 0
M  V30 6566 O 612.933 0.297504 1.80059 0
M  V30 6567 C 612.984 3.56764 0.583249 0
M  V30 6568 O 612.705 4.34292 -0.576398 0
M  V30 6569 C 614.206 4.2603 1.2253 0
M  V30 6570 H 611.426 0.670193 0.0328991 0
M  V30 6571 H 613.97 1.97148 -0.543397 0
M  V30 6572 H 612.125 3.65603 1.28115 0
M  V30 6573 H 612.539 5.23819 -0.267119 0
M  V30 6574 H 614.013 5.32868 1.44068 0
M  V30 6575 H 614.49 3.80698 2.19011 0
M  V30 6576 H 615.096 4.21485 0.568407 0
M  V30 6577 N 613.412 0.11024 1.57214 0
M  V30 6578 C 614.661 -0.549638 1.94067 0
M  V30 6579 C 614.974 -1.68388 0.995234 0
M  V30 6580 O 616.18 -2.40593 1.25807 0
M  V30 6581 C 614.636 -1.02912 3.44873 0
M  V30 6582 C 614.244 0.0761861 4.47935 0
M  V30 6583 C 615.988 -1.66087 3.9066 0
M  V30 6584 C 613.895 -0.419502 5.8991 0
M  V30 6585 H 612.825 -0.209092 0.724428 0
M  V30 6586 H 615.476 0.188683 1.82527 0
M  V30 6587 H 613.858 -1.82159 3.51616 0
M  V30 6588 H 615.032 0.852185 4.52851 0
M  V30 6589 H 613.347 0.614052 4.11847 0
M  V30 6590 H 615.944 -2.04272 4.94143 0
M  V30 6591 H 616.287 -2.53591 3.30148 0
M  V30 6592 H 616.82 -0.933959 3.86681 0
M  V30 6593 H 613.559 0.419277 6.54158 0
M  V30 6594 H 613.079 -1.16217 5.88433 0
M  V30 6595 H 614.758 -0.883577 6.40938 0
M  V30 6596 N 614.89 -1.56749 -0.16351 0
M  V30 6597 C 616.115 -1.86938 -0.898264 0
M  V30 6598 C 616.54 -0.697456 -1.74692 0
M  V30 6599 O 615.898 0.353327 -1.77824 0
M  V30 6600 C 615.946 -3.15599 -1.74441 0
M  V30 6601 O 615.05 -2.98371 -2.8469 0
M  V30 6602 H 614.391 -0.614659 -0.251178 0
M  V30 6603 H 616.921 -2.03979 -0.159298 0
M  V30 6604 H 616.931 -3.47202 -2.14277 0
M  V30 6605 H 615.606 -4.00505 -1.1211 0
M  V30 6606 H 614.183 -2.7814 -2.4838 0
M  V30 6607 N 616.368 0.432326 -1.51554 0
M  V30 6608 C 617.315 1.52512 -1.7323 0
M  V30 6609 C 618.285 1.55863 -0.5741 0
M  V30 6610 O 619.47 1.72796 -0.809093 0
M  V30 6611 C 616.61 2.90183 -1.86783 0
M  V30 6612 C 615.723 2.96322 -3.14352 0
M  V30 6613 C 614.858 4.25147 -3.18471 0
M  V30 6614 C 613.897 4.25172 -4.40335 0
M  V30 6615 N 613.034 5.45529 -4.41975 0
M  V30 6616 H 617.874 1.33332 -2.66508 0
M  V30 6617 H 615.411 0.647613 -1.32077 0
M  V30 6618 H 617.369 3.70071 -1.92623 0
M  V30 6619 H 615.999 3.0791 -0.969087 0
M  V30 6620 H 615.051 2.09066 -3.17798 0
M  V30 6621 H 616.363 2.92203 -4.04251 0
M  V30 6622 H 615.517 5.13411 -3.23255 0
M  V30 6623 H 614.256 4.31929 -2.2647 0
M  V30 6624 H 613.261 3.353 -4.35723 0
M  V30 6625 H 614.486 4.20049 -5.33606 0
M  V30 6626 H 612.432 5.53024 -3.52847 0
M  V30 6627 H 612.349 5.43311 -5.25689 0
M  V30 6628 H 613.617 6.35812 -4.50958 0
M  V30 6629 N 617.846 1.41785 0.688094 0
M  V30 6630 C 619.094 1.41264 1.4453 0
M  V30 6631 C 619.415 0.0252946 1.94984 0
M  V30 6632 O 618.685 -0.934081 1.72197 0
M  V30 6633 H 617.265 0.519998 0.536294 0
M  V30 6634 H 619.927 1.7709 0.813941 0
M  V30 6635 H 619.023 2.10439 2.30482 0
M  V30 6636 N 619.324 -0.923095 1.27737 0
M  V30 6637 C 620.287 -2.00587 1.10894 0
M  V30 6638 C 621.287 -1.60718 0.0514927 0
M  V30 6639 O 622.477 -1.71658 0.296481 0
M  V30 6640 C 619.609 -3.33829 0.690717 0
M  V30 6641 H 620.802 -2.16959 2.07048 0
M  V30 6642 H 618.355 -1.10451 1.1059 0
M  V30 6643 H 619.09 -3.23157 -0.272 0
M  V30 6644 H 618.875 -3.64125 1.45448 0
M  V30 6645 H 620.365 -4.13336 0.595252 0
M  V30 6646 N 620.802 -1.09834 -1.13024 0
M  V30 6647 C 621.765 -0.745058 -2.16752 0
M  V30 6648 C 622.765 0.227435 -1.59183 0
M  V30 6649 O 623.955 0.0050786 -1.74199 0
M  V30 6650 C 621.087 -0.102543 -3.40746 0
M  V30 6651 H 622.28 -1.66375 -2.49518 0
M  V30 6652 H 619.833 -0.898061 -1.27924 0
M  V30 6653 H 620.568 0.827177 -3.13573 0
M  V30 6654 H 620.353 -0.80235 -3.83803 0
M  V30 6655 H 621.843 0.129082 -4.174 0
M  V30 6656 N 622.28 1.30327 -0.886154 0
M  V30 6657 C 623.691 1.78243 -0.555554 0
M  V30 6658 C 624.042 1.72849 0.928314 0
M  V30 6659 O 623.167 1.30607 1.72542 0
M  V30 6660 C 623.762 3.23654 -1.00168 0
M  V30 6661 C 622.321 3.69401 -0.722471 0
M  V30 6662 C 621.468 2.50753 -1.18399 0
M  V30 6663 H 624.419 1.1718 -1.07026 0
M  V30 6664 H 624.44 3.79056 -0.331152 0
M  V30 6665 H 623.952 3.27548 -2.08169 0
M  V30 6666 H 622.053 3.70995 0.345496 0
M  V30 6667 H 622.166 4.60818 -1.31085 0
M  V30 6668 H 620.53 2.47452 -0.603303 0
M  V30 6669 H 621.313 2.57383 -2.27176 0
M  V30 6670 N 623.758 0.647228 1.43697 0
M  V30 6671 C 624.983 0.164083 2.0675 0
M  V30 6672 C 625.408 -1.15892 1.48158 0
M  V30 6673 O 624.766 -1.71459 0.589194 0
M  V30 6674 C 624.814 0.0800368 3.60511 0
M  V30 6675 O 623.918 -0.959453 4.01084 0
M  V30 6676 H 623.259 0.0921288 0.657578 0
M  V30 6677 H 625.789 0.88846 1.84303 0
M  V30 6678 H 625.799 -0.105263 4.07864 0
M  V30 6679 H 624.474 1.04586 4.02535 0
M  V30 6680 H 623.051 -0.747425 3.65333 0
M  V30 6681 N 625.236 -1.5273 0.388769 0
M  V30 6682 C 626.199 -2.25043 -0.434544 0
M  V30 6683 C 627.199 -1.26661 -0.990644 0
M  V30 6684 O 628.389 -1.50762 -0.872731 0
M  V30 6685 C 625.521 -3.00507 -1.60961 0
M  V30 6686 H 626.714 -2.99242 0.198549 0
M  V30 6687 H 624.267 -1.55664 0.140875 0
M  V30 6688 H 625.002 -2.30607 -2.28015 0
M  V30 6689 H 624.787 -3.72716 -1.21757 0
M  V30 6690 H 626.277 -3.55413 -2.19251 0
M  V30 6691 N 626.714 -0.118576 -1.57153 0
M  V30 6692 C 627.939 0.550582 -1.99958 0
M  V30 6693 C 628.364 1.59458 -0.997736 0
M  V30 6694 O 627.722 1.81274 0.0306269 0
M  V30 6695 C 627.77 1.15379 -3.41643 0
M  V30 6696 O 626.874 2.26932 -3.44348 0
M  V30 6697 H 626.215 0.137567 -0.649593 0
M  V30 6698 H 628.745 -0.206926 -2.03551 0
M  V30 6699 H 628.755 1.48942 -3.79843 0
M  V30 6700 H 627.43 0.389087 -4.14076 0
M  V30 6701 H 626.007 1.94812 -3.17967 0
M  V30 6702 N 628.193 1.56834 0.155195 0
M  V30 6703 C 629.418 1.87412 0.888337 0
M  V30 6704 C 629.843 0.70671 1.74319 0
M  V30 6705 O 629.201 -0.343892 1.78009 0
M  V30 6706 C 629.249 3.1652 1.72765 0
M  V30 6707 O 628.353 2.99877 2.83103 0
M  V30 6708 H 627.694 0.615983 0.247914 0
M  V30 6709 H 630.224 2.04061 0.148478 0
M  V30 6710 H 630.234 3.48334 2.12433 0
M  V30 6711 H 628.909 4.01094 1.09985 0
M  V30 6712 H 627.486 2.79453 2.46902 0
M  V30 6713 N 629.671 -0.424282 1.51781 0
M  V30 6714 C 630.899 -1.1947 1.68921 0
M  V30 6715 C 631.314 -1.84683 0.39213 0
M  V30 6716 O 630.671 -1.71261 -0.630554 0
M  V30 6717 C 630.722 -2.26909 2.81416 0
M  V30 6718 O 630.443 -1.64361 4.061 0
M  V30 6719 C 631.944 -3.16945 3.09937 0
M  V30 6720 H 629.164 -0.359591 0.566511 0
M  V30 6721 H 631.708 -0.501139 1.98265 0
M  V30 6722 H 629.863 -2.91959 2.54635 0
M  V30 6723 H 630.277 -2.35468 4.68674 0
M  V30 6724 H 631.751 -3.88437 3.922 0
M  V30 6725 H 632.228 -3.78451 2.22871 0
M  V30 6726 H 632.834 -2.57581 3.38426 0
M  V30 6727 N 631.149 -1.42148 -0.680565 0
M  V30 6728 C 632.56 -1.3768 -1.26099 0
M  V30 6729 C 632.911 -0.0672348 -1.96085 0
M  V30 6730 O 632.036 0.834172 -1.99676 0
M  V30 6731 C 632.631 -2.49387 -2.29328 0
M  V30 6732 C 631.19 -2.4827 -2.82911 0
M  V30 6733 C 630.337 -2.2847 -1.57152 0
M  V30 6734 H 633.288 -1.51446 -0.474326 0
M  V30 6735 H 633.309 -2.19307 -3.10941 0
M  V30 6736 H 632.821 -3.44686 -1.78363 0
M  V30 6737 H 630.922 -1.56773 -3.38013 0
M  V30 6738 H 631.035 -3.45109 -3.3232 0
M  V30 6739 H 629.399 -1.76623 -1.83511 0
M  V30 6740 H 630.182 -3.25816 -1.0816 0
M  V30 6741 N 632.627 0.916307 -1.28225 0
M  V30 6742 C 633.855 1.69901 -1.18073 0
M  V30 6743 C 634.27 1.86988 0.260968 0
M  V30 6744 O 633.627 1.39505 1.17663 0
M  V30 6745 C 633.678 3.09254 -1.87201 0
M  V30 6746 O 633.399 2.92959 -3.2574 0
M  V30 6747 C 634.9 4.0362 -1.83319 0
M  V30 6748 H 632.12 0.531181 -0.409985 0
M  V30 6749 H 634.664 1.14703 -1.69303 0
M  V30 6750 H 632.819 3.61277 -1.39848 0
M  V30 6751 H 633.233 3.81139 -3.60324 0
M  V30 6752 H 634.707 4.98873 -2.36282 0
M  V30 6753 H 635.184 4.3176 -0.805007 0
M  V30 6754 H 635.79 3.57524 -2.3034 0
M  V30 6755 N 634.105 1.10431 1.1244 0
M  V30 6756 C 635.354 0.841539 1.83306 0
M  V30 6757 C 635.667 -0.634961 1.85007 0
M  V30 6758 O 636.873 -1.01363 2.51869 0
M  V30 6759 C 635.329 1.45565 3.29149 0
M  V30 6760 C 634.937 2.96544 3.35806 0
M  V30 6761 C 636.681 1.27227 4.04986 0
M  V30 6762 C 634.588 3.5099 4.75983 0
M  V30 6763 H 633.518 0.311156 0.686803 0
M  V30 6764 H 636.169 1.32829 1.26604 0
M  V30 6765 H 634.551 0.896574 3.85717 0
M  V30 6766 H 635.725 3.58766 2.89177 0
M  V30 6767 H 634.04 3.14036 2.73442 0
M  V30 6768 H 636.637 1.65348 5.08492 0
M  V30 6769 H 636.98 0.213834 4.1575 0
M  V30 6770 H 637.513 1.79941 3.54776 0
M  V30 6771 H 634.252 4.56499 4.70413 0
M  V30 6772 H 633.772 2.93535 5.23065 0
M  V30 6773 H 635.451 3.48808 5.44924 0
M  V30 6774 N 635.583 -1.29855 0.893053 0
M  V30 6775 C 636.832 -1.95104 0.511597 0
M  V30 6776 C 637.145 -1.71226 -0.945567 0
M  V30 6777 O 638.351 -2.30525 -1.43424 0
M  V30 6778 C 636.807 -3.49374 0.864034 0
M  V30 6779 C 636.415 -3.82061 2.33952 0
M  V30 6780 C 638.159 -4.20894 0.552167 0
M  V30 6781 C 636.066 -5.29546 2.63316 0
M  V30 6782 H 634.996 -0.73029 0.187597 0
M  V30 6783 H 637.647 -1.47682 1.08914 0
M  V30 6784 H 636.029 -3.95413 0.215493 0
M  V30 6785 H 637.203 -3.46904 3.03305 0
M  V30 6786 H 635.518 -3.23665 2.61973 0
M  V30 6787 H 638.115 -5.29435 0.748489 0
M  V30 6788 H 638.458 -4.13178 -0.508924 0
M  V30 6789 H 638.991 -3.80564 1.15825 0
M  V30 6790 H 635.73 -5.4232 3.68197 0
M  V30 6791 H 635.25 -5.65974 1.9858 0
M  V30 6792 H 636.929 -5.97068 2.49236 0
M  V30 6793 N 637.061 -0.65484 -1.43351 0
M  V30 6794 C 638.024 0.0263562 -2.29185 0
M  V30 6795 C 639.024 0.748951 -1.42293 0
M  V30 6796 O 640.214 0.589957 -1.63906 0
M  V30 6797 C 637.346 1.04806 -3.2439 0
M  V30 6798 H 638.539 -0.728883 -2.90908 0
M  V30 6799 H 636.092 -0.416149 -1.50658 0
M  V30 6800 H 636.827 1.83247 -2.67565 0
M  V30 6801 H 636.612 0.533554 -3.88453 0
M  V30 6802 H 638.102 1.52372 -3.88809 0
M  V30 6803 N 638.539 1.52521 -0.396863 0
M  V30 6804 C 639.764 2.06571 0.185258 0
M  V30 6805 C 640.189 1.26605 1.39115 0
M  V30 6806 O 639.547 0.293055 1.78916 0
M  V30 6807 C 639.595 3.5674 0.526189 0
M  V30 6808 O 638.699 3.7929 1.61903 0
M  V30 6809 H 638.04 0.663712 0.0195474 0
M  V30 6810 H 640.57 1.966 -0.566519 0
M  V30 6811 H 640.58 4.00311 0.788338 0
M  V30 6812 H 639.255 4.14379 -0.355397 0
M  V30 6813 H 637.832 3.47605 1.35 0
M  V30 6814 N 640.017 0.126909 1.57088 0
M  V30 6815 C 641.428 -0.397201 1.82426 0
M  V30 6816 C 641.779 -1.66084 1.04453 0
M  V30 6817 O 640.904 -2.14534 0.283552 0
M  V30 6818 C 641.499 -0.727411 3.30899 0
M  V30 6819 C 640.058 -1.19612 3.56889 0
M  V30 6820 C 639.205 -0.20885 2.76512 0
M  V30 6821 H 642.156 0.351924 1.54749 0
M  V30 6822 H 642.177 -1.58407 3.45959 0
M  V30 6823 H 641.689 0.19247 3.87622 0
M  V30 6824 H 639.79 -2.13263 3.05532 0
M  V30 6825 H 639.903 -1.13598 4.65438 0
M  V30 6826 H 638.267 -0.697479 2.44964 0
M  V30 6827 H 639.05 0.704267 3.35998 0
M  V30 6828 N 641.495 -1.56914 -0.146875 0
M  V30 6829 C 642.442 -1.98275 -1.18134 0
M  V30 6830 C 643.412 -0.850367 -1.42681 0
M  V30 6831 O 644.597 -1.11244 -1.55014 0
M  V30 6832 C 641.737 -2.36861 -2.5098 0
M  V30 6833 C 640.85 -3.63391 -2.33605 0
M  V30 6834 C 639.985 -3.91079 -3.59486 0
M  V30 6835 C 639.024 -5.10879 -3.37149 0
M  V30 6836 N 638.161 -5.34577 -4.55161 0
M  V30 6837 H 643.001 -2.8645 -0.821622 0
M  V30 6838 H 640.538 -1.41718 -0.394248 0
M  V30 6839 H 642.496 -2.57262 -3.28439 0
M  V30 6840 H 641.126 -1.51766 -2.84898 0
M  V30 6841 H 640.178 -3.50766 -1.47199 0
M  V30 6842 H 641.49 -4.51007 -2.13059 0
M  V30 6843 H 640.644 -4.11979 -4.45374 0
M  V30 6844 H 639.383 -3.01885 -3.83036 0
M  V30 6845 H 638.388 -4.89853 -2.49649 0
M  V30 6846 H 639.613 -6.01626 -3.14997 0
M  V30 6847 H 637.559 -4.48337 -4.78884 0
M  V30 6848 H 637.476 -6.16463 -4.37618 0
M  V30 6849 H 638.744 -5.59975 -5.42263 0
M  V30 6850 N 642.974 0.416227 -1.52004 0
M  V30 6851 C 643.937 1.48926 -1.74223 0
M  V30 6852 C 644.937 1.48693 -0.612119 0
M  V30 6853 O 646.127 1.50343 -0.879921 0
M  V30 6854 C 643.259 2.88372 -1.81809 0
M  V30 6855 H 644.452 1.3052 -2.70008 0
M  V30 6856 H 642.005 0.646271 -1.42313 0
M  V30 6857 H 642.74 3.12157 -0.879135 0
M  V30 6858 H 642.525 2.89944 -2.6396 0
M  V30 6859 H 644.015 3.66173 -2.00766 0
M  V30 6860 N 644.452 1.42507 0.673017 0
M  V30 6861 C 645.68 1.46473 1.46128 0
M  V30 6862 C 646.095 0.0765912 1.88645 0
M  V30 6863 O 645.452 -0.909057 1.58248 0
M  V30 6864 C 645.503 2.39339 2.70923 0
M  V30 6865 O 645.224 3.72752 2.3019 0
M  V30 6866 C 646.725 2.52343 3.64469 0
M  V30 6867 H 643.945 0.49812 0.449575 0
M  V30 6868 H 646.489 1.87041 0.826802 0
M  V30 6869 H 644.644 2.02019 3.30556 0
M  V30 6870 H 645.058 4.22503 3.10791 0
M  V30 6871 H 646.532 3.2144 4.48754 0
M  V30 6872 H 647.009 1.56189 4.1049 0
M  V30 6873 H 647.615 2.90392 3.10729 0
M  V30 6874 N 645.93 -0.909495 1.28709 0
M  V30 6875 C 647.16 -1.69027 1.188 0
M  V30 6876 C 647.568 -1.87469 -0.255329 0
M  V30 6877 O 646.911 -1.40458 -1.18394 0
M  V30 6878 C 646.973 -3.10064 1.81936 0
M  V30 6879 C 646.637 -3.14891 3.31199 0
M  V30 6880 C 647.634 -2.95768 4.27571 0
M  V30 6881 C 645.319 -3.37269 3.7223 0
M  V30 6882 C 647.313 -2.98942 5.6295 0
M  V30 6883 C 645 -3.40074 5.07733 0
M  V30 6884 C 645.998 -3.20932 6.02903 0
M  V30 6885 O 645.686 -3.23507 7.35934 0
M  V30 6886 H 645.418 -0.535014 0.413203 0
M  V30 6887 H 647.972 -1.14645 1.70428 0
M  V30 6888 H 646.202 -3.66005 1.24808 0
M  V30 6889 H 647.891 -3.70185 1.66486 0
M  V30 6890 H 648.657 -2.78302 3.97206 0
M  V30 6891 H 644.536 -3.51212 2.98615 0
M  V30 6892 H 648.08 -2.83919 6.37209 0
M  V30 6893 H 643.977 -3.5707 5.37747 0
M  V30 6894 H 644.745 -3.3984 7.44615 0
M  V30 6895 N 647.408 -1.11026 -1.11852 0
M  V30 6896 C 648.654 -0.857729 -1.83768 0
M  V30 6897 C 648.987 0.615143 -1.842 0
M  V30 6898 O 648.262 1.45391 -1.29196 0
M  V30 6899 C 648.545 -1.41453 -3.31154 0
M  V30 6900 C 648.398 -2.95471 -3.39142 0
M  V30 6901 C 649.717 -1.0619 -4.27097 0
M  V30 6902 H 646.836 -0.313044 -0.667212 0
M  V30 6903 H 649.478 -1.37443 -1.31185 0
M  V30 6904 H 647.628 -0.975052 -3.76065 0
M  V30 6905 H 649.3 -3.4799 -3.02821 0
M  V30 6906 H 647.543 -3.31759 -2.79497 0
M  V30 6907 H 648.214 -3.29515 -4.42859 0
M  V30 6908 H 650.69 -1.44122 -3.90344 0
M  V30 6909 H 649.566 -1.47832 -5.28618 0
M  V30 6910 H 649.827 0.0278912 -4.42091 0
M  V30 6911 N 648.886 1.2938 -0.899927 0
M  V30 6912 C 649.818 2.26737 -0.335139 0
M  V30 6913 C 650.831 1.54316 0.518681 0
M  V30 6914 O 652.02 1.75313 0.335803 0
M  V30 6915 C 649.12 3.34558 0.540774 0
M  V30 6916 C 648.293 4.36455 -0.287372 0
M  V30 6917 C 647.352 5.2361 0.52141 0
M  V30 6918 O 646.378 5.69167 -0.0611735 0
M  V30 6919 N 647.58 5.50985 1.82745 0
M  V30 6920 H 650.345 2.75838 -1.17191 0
M  V30 6921 H 647.906 1.42716 -0.764438 0
M  V30 6922 H 649.898 3.89794 1.08825 0
M  V30 6923 H 648.468 2.85272 1.27823 0
M  V30 6924 H 647.688 3.80875 -1.01626 0
M  V30 6925 H 648.976 5.01573 -0.854518 0
M  V30 6926 H 648.374 5.15781 2.32349 0
M  V30 6927 H 646.931 6.09036 2.32204 0
M  V30 6928 N 650.364 0.662433 1.43002 0
M  V30 6929 C 651.641 0.109096 1.95296 0
M  V30 6930 C 652.021 -1.37313 1.60338 0
M  V30 6931 O 651.369 -2.1032 0.893187 0
M  V30 6932 C 651.579 0.365096 3.47085 0
M  V30 6933 C 652.927 0.274964 4.23709 0
M  V30 6934 O 653.951 0.29816 3.5495 0
M  V30 6935 O 652.81 0.206549 5.4611 0
M  V30 6936 H 649.904 -0.00429724 0.826989 0
M  V30 6937 H 652.45 0.736308 1.52894 0
M  V30 6938 H 651.222 1.39237 3.65689 0
M  V30 6939 H 650.845 -0.294733 3.96506 0
M  V30 6940 N 651.842 -1.52309 0.404946 0
M  V30 6941 C 653.067 -2.06666 -0.1743 0
M  V30 6942 C 653.492 -1.27341 -1.38441 0
M  V30 6943 O 652.85 -0.302539 -1.78758 0
M  V30 6944 C 652.898 -3.57014 -0.507262 0
M  V30 6945 O 652.002 -3.80144 -1.59889 0
M  V30 6946 H 651.343 -0.663807 -0.0160273 0
M  V30 6947 H 653.873 -1.96297 0.576937 0
M  V30 6948 H 653.883 -4.00724 -0.767098 0
M  V30 6949 H 652.558 -4.14184 0.377368 0
M  V30 6950 H 651.135 -3.48316 -1.33155 0
M  V30 6951 N 653.32 -0.135238 -1.57019 0
M  V30 6952 C 654.731 0.387521 -1.82634 0
M  V30 6953 C 655.082 1.65528 -1.05332 0
M  V30 6954 O 654.207 2.14381 -0.294926 0
M  V30 6955 C 654.802 0.709852 -3.3128 0
M  V30 6956 C 653.361 1.17718 -3.57518 0
M  V30 6957 C 652.508 0.194183 -2.76619 0
M  V30 6958 H 655.459 -0.360126 -1.5456 0
M  V30 6959 H 655.48 1.5657 -3.46794 0
M  V30 6960 H 654.992 -0.213024 -3.87515 0
M  V30 6961 H 653.093 2.1164 -3.06658 0
M  V30 6962 H 653.206 1.11128 -4.66034 0
M  V30 6963 H 651.57 0.684478 -2.4533 0
M  V30 6964 H 652.353 -0.722076 -3.3562 0
M  V30 6965 N 654.798 1.5699 0.138552 0
M  V30 6966 C 656.026 1.87976 0.864437 0
M  V30 6967 C 656.441 0.724372 1.74351 0
M  V30 6968 O 655.798 -0.305575 1.79924 0
M  V30 6969 C 655.849 3.18276 1.71414 0
M  V30 6970 O 655.57 4.29365 0.870487 0
M  V30 6971 C 657.071 3.62834 2.54688 0
M  V30 6972 H 654.291 0.622878 0.249528 0
M  V30 6973 H 656.835 2.04094 0.128805 0
M  V30 6974 H 654.99 3.03886 2.40274 0
M  V30 6975 H 655.404 5.03924 1.45466 0
M  V30 6976 H 656.878 4.5682 3.0987 0
M  V30 6977 H 657.355 2.88533 3.31127 0
M  V30 6978 H 657.961 3.79946 1.91105 0
M  V30 6979 N 656.276 -0.40816 1.52223 0
M  V30 6980 C 657.186 -1.52202 1.78526 0
M  V30 6981 C 658.202 -1.60546 0.670892 0
M  V30 6982 O 659.378 -1.77242 0.956404 0
M  V30 6983 C 656.443 -2.87928 1.93128 0
M  V30 6984 C 655.504 -2.89463 3.17033 0
M  V30 6985 C 654.737 -4.18715 3.30929 0
M  V30 6986 O 654.96 -5.12662 2.50067 0
M  V30 6987 O 653.894 -4.27125 4.24084 0
M  V30 6988 H 657.72 -1.32911 2.73072 0
M  V30 6989 H 655.305 -0.594112 1.37079 0
M  V30 6990 H 657.187 -3.68426 2.04549 0
M  V30 6991 H 655.862 -3.07285 1.01772 0
M  V30 6992 H 654.769 -2.07815 3.11069 0
M  V30 6993 H 656.102 -2.75055 4.08174 0
M  V30 6994 N 657.755 -1.42862 -0.66545 0
M  V30 6995 C 658.983 -1.47246 -1.45349 0
M  V30 6996 C 659.398 -0.0865944 -1.88601 0
M  V30 6997 O 658.755 0.900652 -1.58728 0
M  V30 6998 C 658.806 -2.40772 -2.6965 0
M  V30 6999 O 658.527 -3.73968 -2.2821 0
M  V30 7000 C 660.028 -2.54272 -3.63126 0
M  V30 7001 H 657.248 -0.500497 -0.446927 0
M  V30 7002 H 659.792 -1.87477 -0.816871 0
M  V30 7003 H 657.947 -2.0377 -3.29479 0
M  V30 7004 H 658.361 -4.24146 -3.08546 0
M  V30 7005 H 659.835 -3.23815 -4.47043 0
M  V30 7006 H 660.312 -1.58364 -4.09656 0
M  V30 7007 H 660.918 -2.92036 -3.09185 0
M  V30 7008 N 659.233 0.902656 -1.29189 0
M  V30 7009 C 660.18 2.00643 -1.14066 0
M  V30 7010 C 661.15 1.66064 -0.0347756 0
M  V30 7011 O 662.335 1.8973 -0.201752 0
M  V30 7012 C 659.475 3.35214 -0.820104 0
M  V30 7013 C 658.588 3.82594 -2.00614 0
M  V30 7014 C 657.723 5.05727 -1.62522 0
M  V30 7015 C 656.762 5.45469 -2.77724 0
M  V30 7016 N 655.899 6.59789 -2.40048 0
M  V30 7017 H 660.739 2.1291 -2.08502 0
M  V30 7018 H 658.276 1.04271 -1.03759 0
M  V30 7019 H 660.234 4.12643 -0.614949 0
M  V30 7020 H 658.864 3.22682 0.0873452 0
M  V30 7021 H 657.916 3.01226 -2.32308 0
M  V30 7022 H 659.228 4.07999 -2.86946 0
M  V30 7023 H 658.382 5.90732 -1.38277 0
M  V30 7024 H 657.121 4.82155 -0.733333 0
M  V30 7025 H 656.126 4.59 -3.02653 0
M  V30 7026 H 657.351 5.71024 -3.67572 0
M  V30 7027 H 655.297 6.37826 -1.53343 0
M  V30 7028 H 655.214 6.84975 -3.19914 0
M  V30 7029 H 656.482 7.4807 -2.19116 0
M  V30 7030 N 660.711 1.11618 1.11262 0
M  V30 7031 C 661.939 0.888739 1.8684 0
M  V30 7032 C 662.354 -0.561558 1.80255 0
M  V30 7033 O 661.711 -1.38782 1.18515 0
M  V30 7034 C 661.762 1.34422 3.35579 0
M  V30 7035 O 661.483 2.73766 3.42029 0
M  V30 7036 C 662.984 1.15246 4.28058 0
M  V30 7037 H 660.204 0.318152 0.590779 0
M  V30 7038 H 662.748 1.48398 1.40707 0
M  V30 7039 H 660.903 0.79239 3.7921 0
M  V30 7040 H 661.317 2.9355 4.34659 0
M  V30 7041 H 662.791 1.52015 5.30656 0
M  V30 7042 H 663.268 0.0922007 4.39103 0
M  V30 7043 H 663.874 1.69136 3.90222 0
M  V30 7044 N 662.189 -1.289 0.906776 0
M  V30 7045 C 663.419 -1.99112 0.551168 0
M  V30 7046 C 663.827 -1.67998 -0.870243 0
M  V30 7047 O 663.17 -0.92525 -1.58697 0
M  V30 7048 C 663.232 -3.53162 0.672065 0
M  V30 7049 C 662.896 -4.07849 2.06174 0
M  V30 7050 C 663.893 -4.22212 3.0337 0
M  V30 7051 C 661.578 -4.4271 2.37304 0
M  V30 7052 C 663.572 -4.70678 4.29815 0
M  V30 7053 C 661.259 -4.90871 3.6399 0
M  V30 7054 C 662.257 -5.04811 4.6006 0
M  V30 7055 O 661.945 -5.51925 5.84495 0
M  V30 7056 H 661.677 -0.642728 0.209469 0
M  V30 7057 H 664.231 -1.65234 1.22012 0
M  V30 7058 H 662.461 -3.86662 -0.05394 0
M  V30 7059 H 664.15 -4.046 0.324579 0
M  V30 7060 H 664.916 -3.9556 2.80637 0
M  V30 7061 H 660.795 -4.31114 1.63283 0
M  V30 7062 H 664.339 -4.81474 5.04806 0
M  V30 7063 H 660.236 -5.16961 3.86551 0
M  V30 7064 H 661.004 -5.70225 5.87185 0
M  V30 7065 N 663.667 -0.670007 -1.42649 0
M  V30 7066 C 664.615 0.0230106 -2.32589 0
M  V30 7067 C 665.609 0.795585 -1.49555 0
M  V30 7068 O 666.815 0.70409 -1.65658 0
M  V30 7069 H 663.19 0.0262342 -0.751542 0
M  V30 7070 H 665.161 -0.753009 -2.88743 0
M  V30 7071 C 663.91 0.963872 -3.34073 0
M  V30 7072 H 663.233 0.378813 -3.98001 0
M  V30 7073 H 664.673 1.41755 -3.99602 0
M  V30 7074 C 663.132 2.06797 -2.65964 0
M  V30 7075 O 663.662 3.15383 -2.48789 0
M  V30 7076 N 661.868 1.83831 -2.25066 0
M  V30 7077 H 661.415 0.955235 -2.39234 0
M  V30 7078 H 661.373 2.57895 -1.79827 0
M  V30 7079 N 665.145 1.52092 -0.413018 0
M  V30 7080 C 666.37 2.06756 0.163338 0
M  V30 7081 C 666.795 1.28073 1.37764 0
M  V30 7082 O 666.153 0.312015 1.78595 0
M  V30 7083 C 666.201 3.57278 0.488322 0
M  V30 7084 O 665.305 3.80986 1.57871 0
M  V30 7085 H 664.646 0.663882 0.0125068 0
M  V30 7086 H 667.176 1.95988 -0.587339 0
M  V30 7087 H 667.186 4.01125 0.745836 0
M  V30 7088 H 665.861 4.13978 -0.399327 0
M  V30 7089 H 664.438 3.49017 1.31306 0
M  V30 7090 N 666.623 0.143563 1.56945 0
M  V30 7091 C 667.869 -0.50916 1.96304 0
M  V30 7092 C 668.202 -1.64741 1.0283 0
M  V30 7093 O 667.477 -1.94374 0.0700361 0
M  V30 7094 C 667.76 -1.0186 3.45393 0
M  V30 7095 C 667.613 0.117923 4.49645 0
M  V30 7096 C 668.932 -1.90151 3.96901 0
M  V30 7097 H 666.051 -0.183608 0.713763 0
M  V30 7098 H 668.693 0.224095 1.88674 0
M  V30 7099 H 666.843 -1.64345 3.52027 0
M  V30 7100 H 668.515 0.754145 4.55094 0
M  V30 7101 H 666.758 0.777568 4.26774 0
M  V30 7102 H 667.429 -0.280187 5.51288 0
M  V30 7103 H 669.905 -1.375 3.92725 0
M  V30 7104 H 668.781 -2.22707 5.0169 0
M  V30 7105 H 669.042 -2.83718 3.39052 0
M  V30 7106 N 668.101 -1.57061 -0.130224 0
M  V30 7107 C 669.326 -1.88802 -0.858409 0
M  V30 7108 C 669.751 -0.734353 -1.73173 0
M  V30 7109 O 669.109 0.315529 -1.78533 0
M  V30 7110 C 669.157 -3.19228 -1.67708 0
M  V30 7111 O 668.261 -3.04343 -2.78297 0
M  V30 7112 H 667.602 -0.619849 -0.238083 0
M  V30 7113 H 670.132 -2.04271 -0.115995 0
M  V30 7114 H 670.142 -3.51669 -2.06864 0
M  V30 7115 H 668.817 -4.02793 -1.0359 0
M  V30 7116 H 667.394 -2.83346 -2.42425 0
M  V30 7117 N 669.579 0.400081 -1.52437 0
M  V30 7118 C 670.526 1.48803 -1.76426 0
M  V30 7119 C 671.496 1.5461 -0.607032 0
M  V30 7120 O 672.681 1.71041 -0.845563 0
M  V30 7121 C 669.821 2.86156 -1.92896 0
M  V30 7122 C 668.934 2.89587 -3.20567 0
M  V30 7123 C 668.069 4.18296 -3.27417 0
M  V30 7124 C 667.108 4.15736 -4.49255 0
M  V30 7125 N 666.245 5.36032 -4.53447 0
M  V30 7126 H 671.085 1.27649 -2.69276 0
M  V30 7127 H 668.622 0.619451 -1.33421 0
M  V30 7128 H 670.58 3.65901 -2.00429 0
M  V30 7129 H 669.21 3.05785 -1.03418 0
M  V30 7130 H 668.262 2.02278 -3.22161 0
M  V30 7131 H 669.574 2.83562 -4.10358 0
M  V30 7132 H 668.728 5.06439 -3.34072 0
M  V30 7133 H 667.467 4.27028 -2.35581 0
M  V30 7134 H 666.472 3.25982 -4.42737 0
M  V30 7135 H 667.697 4.08636 -5.42396 0
M  V30 7136 H 665.643 5.45415 -3.64498 0
M  V30 7137 H 665.56 5.32038 -5.37096 0
M  V30 7138 H 666.828 6.26104 -4.64343 0
M  V30 7139 N 671.057 1.43213 0.657864 0
M  V30 7140 C 672.303 1.44798 1.41991 0
M  V30 7141 C 672.636 0.070256 1.94073 0
M  V30 7142 O 671.911 -0.908177 1.71995 0
M  V30 7143 C 672.194 2.4865 2.60471 0
M  V30 7144 C 672.047 3.95679 2.13911 0
M  V30 7145 C 673.366 2.49292 3.62686 0
M  V30 7146 H 670.485 0.527244 0.514959 0
M  V30 7147 H 673.127 1.74733 0.74621 0
M  V30 7148 H 671.277 2.23254 3.17946 0
M  V30 7149 H 672.949 4.32116 1.61472 0
M  V30 7150 H 671.192 4.08733 1.45325 0
M  V30 7151 H 671.863 4.6395 2.99089 0
M  V30 7152 H 674.339 2.71917 3.14961 0
M  V30 7153 H 673.215 3.23907 4.43143 0
M  V30 7154 H 673.476 1.52502 4.14964 0
M  V30 7155 N 672.536 -0.895792 1.29666 0
M  V30 7156 C 673.813 -1.62723 1.08538 0
M  V30 7157 C 674.193 -2.07848 -0.369119 0
M  V30 7158 O 673.541 -1.8372 -1.35864 0
M  V30 7159 C 673.751 -2.80505 2.07648 0
M  V30 7160 C 675.099 -3.51098 2.3878 0
M  V30 7161 O 676.123 -2.90679 2.05874 0
M  V30 7162 O 674.982 -4.60028 2.9502 0
M  V30 7163 H 672.076 -0.714692 0.416106 0
M  V30 7164 H 674.622 -0.943517 1.41053 0
M  V30 7165 H 673.394 -2.44386 3.05599 0
M  V30 7166 H 673.017 -3.5658 1.75887 0
M  V30 7167 N 674.014 -1.12206 -1.10668 0
M  V30 7168 C 674.961 -0.787716 -2.16942 0
M  V30 7169 C 675.931 0.244442 -1.64291 0
M  V30 7170 O 677.116 0.119558 -1.90425 0
M  V30 7171 C 674.256 -0.24584 -3.44223 0
M  V30 7172 C 673.369 -1.33552 -4.10838 0
M  V30 7173 C 672.504 -0.753337 -5.25831 0
M  V30 7174 C 671.543 -1.82231 -5.84344 0
M  V30 7175 N 670.68 -1.25902 -6.90719 0
M  V30 7176 H 675.52 -1.69809 -2.44885 0
M  V30 7177 H 673.057 -0.847862 -1.20207 0
M  V30 7178 H 675.015 0.0863639 -4.17111 0
M  V30 7179 H 673.645 0.627702 -3.16638 0
M  V30 7180 H 672.697 -1.78454 -3.35944 0
M  V30 7181 H 674.009 -2.14396 -4.50373 0
M  V30 7182 H 673.163 -0.37166 -6.05561 0
M  V30 7183 H 671.902 0.0863297 -4.87624 0
M  V30 7184 H 670.907 -2.2132 -5.03287 0
M  V30 7185 H 672.132 -2.66515 -6.24617 0
M  V30 7186 H 670.078 -0.44114 -6.54515 0
M  V30 7187 H 669.995 -2.00408 -7.28953 0
M  V30 7188 H 671.263 -0.904498 -7.74235 0
M  V30 7189 N 675.492 1.28418 -0.913599 0
M  V30 7190 C 676.741 1.94265 -0.542572 0
M  V30 7191 C 677.054 1.72709 0.918207 0
M  V30 7192 O 678.26 2.32778 1.39738 0
M  V30 7193 C 676.716 3.47956 -0.919507 0
M  V30 7194 C 676.324 3.78291 -2.4 0
M  V30 7195 C 678.068 4.19962 -0.619057 0
M  V30 7196 C 675.975 5.2529 -2.71707 0
M  V30 7197 H 674.905 0.727213 -0.199192 0
M  V30 7198 H 677.556 1.45931 -1.11249 0
M  V30 7199 H 675.938 3.9502 -0.278372 0
M  V30 7200 H 677.112 3.42035 -3.08786 0
M  V30 7201 H 675.427 3.19456 -2.67089 0
M  V30 7202 H 678.024 5.28178 -0.832623 0
M  V30 7203 H 678.367 4.13935 0.443126 0
M  V30 7204 H 678.9 3.78674 -1.21865 0
M  V30 7205 H 675.639 5.36394 -3.76778 0
M  V30 7206 H 675.159 5.62743 -2.07559 0
M  V30 7207 H 676.838 5.93027 -2.58703 0
M  V30 7208 N 676.97 0.677563 1.42291 0
M  V30 7209 C 678.195 0.207901 2.06355 0
M  V30 7210 C 678.62 -1.12723 1.50583 0
M  V30 7211 O 677.978 -1.70171 0.62543 0
M  V30 7212 C 678.026 0.156489 3.6026 0
M  V30 7213 O 677.13 -0.874162 4.03029 0
M  V30 7214 H 676.471 0.106056 0.655475 0
M  V30 7215 H 679.001 0.927354 1.82377 0
M  V30 7216 H 679.011 -0.0187258 4.07996 0
M  V30 7217 H 677.686 1.13101 4.00226 0
M  V30 7218 H 676.263 -0.669764 3.66836 0
M  V30 7219 N 678.448 -1.51871 0.421078 0
M  V30 7220 C 679.864 -1.59435 0.0725398 0
M  V30 7221 C 680.064 -1.43315 -1.41644 0
M  V30 7222 O 679.12 -1.26614 -2.18461 0
M  V30 7223 C 680.433 -2.9509 0.578132 0
M  V30 7224 C 681.981 -3.08356 0.537149 0
M  V30 7225 C 682.456 -4.4651 1.01945 0
M  V30 7226 N 683.947 -4.52784 0.976758 0
M  V30 7227 C 684.682 -5.57976 1.32099 0
M  V30 7228 N 684.178 -6.70664 1.73727 0
M  V30 7229 N 685.971 -5.48248 1.2402 0
M  V30 7230 H 678.122 -1.60595 1.39007 0
M  V30 7231 H 680.385 -0.756138 0.571803 0
M  V30 7232 H 680.091 -3.12205 1.61929 0
M  V30 7233 H 679.965 -3.772 -0.00578374 0
M  V30 7234 H 682.352 -2.90919 -0.494991 0
M  V30 7235 H 682.433 -2.28125 1.15727 0
M  V30 7236 H 682.077 -4.64692 2.04997 0
M  V30 7237 H 682.007 -5.25256 0.376023 0
M  V30 7238 H 684.498 -3.71898 0.670851 0
M  V30 7239 H 684.811 -7.46932 1.98274 0
M  V30 7240 H 683.156 -6.71914 1.77641 0
M  V30 7241 H 686.347 -4.59095 0.913756 0
M  V30 7242 H 686.52 -6.30119 1.51176 0
M  V30 7243 N 679.926 -0.151884 -1.56866 0
M  V30 7244 C 681.175 0.497992 -1.95456 0
M  V30 7245 C 681.488 1.6569 -1.03953 0
M  V30 7246 O 682.694 2.37173 -1.32142 0
M  V30 7247 C 681.15 0.93732 -3.4748 0
M  V30 7248 C 680.758 -0.194921 -4.47576 0
M  V30 7249 C 682.502 1.55671 -3.94926 0
M  V30 7250 C 680.409 0.26295 -5.90815 0
M  V30 7251 H 679.339 0.189811 -0.729717 0
M  V30 7252 H 681.99 -0.237011 -1.81963 0
M  V30 7253 H 680.372 1.72773 -3.56322 0
M  V30 7254 H 681.546 -0.971951 -4.50433 0
M  V30 7255 H 679.861 -0.72303 -4.10075 0
M  V30 7256 H 682.458 1.91099 -4.99385 0
M  V30 7257 H 682.801 2.44748 -3.36755 0
M  V30 7258 H 683.334 0.831109 -3.89021 0
M  V30 7259 H 680.073 -0.592568 -6.52816 0
M  V30 7260 H 679.593 1.00575 -5.91308 0
M  V30 7261 H 681.272 0.713333 -6.43056 0
M  V30 7262 N 681.404 1.57128 0.121893 0
M  V30 7263 C 682.653 1.83888 0.828748 0
M  V30 7264 C 682.966 0.737087 1.81181 0
M  V30 7265 O 684.172 0.891007 2.56463 0
M  V30 7266 C 682.628 3.26014 1.52455 0
M  V30 7267 C 682.236 4.44195 0.58263 0
M  V30 7268 C 683.98 3.62025 2.21671 0
M  V30 7269 C 681.887 5.77349 1.28149 0
M  V30 7270 H 680.817 0.685856 0.313238 0
M  V30 7271 H 683.468 1.83319 0.0814851 0
M  V30 7272 H 681.85 3.21044 2.31834 0
M  V30 7273 H 683.024 4.60457 -0.177729 0
M  V30 7274 H 681.339 4.164 -0.00241228 0
M  V30 7275 H 683.936 4.58776 2.74643 0
M  V30 7276 H 684.279 2.89315 2.99337 0
M  V30 7277 H 684.812 3.68767 1.49184 0
M  V30 7278 H 681.551 6.53221 0.546189 0
M  V30 7279 H 681.071 5.64978 2.01394 0
M  V30 7280 H 682.75 6.21006 1.81549 0
M  V30 7281 N 682.882 -0.391992 1.52647 0
M  V30 7282 C 684.129 -1.13732 1.67545 0
M  V30 7283 C 684.457 -1.90045 0.413881 0
M  V30 7284 O 683.712 -1.86157 -0.603646 0
M  V30 7285 C 684.011 -2.14401 2.85949 0
M  V30 7286 C 683.677 -1.54767 4.23507 0
M  V30 7287 C 682.339 -1.38229 4.60919 0
M  V30 7288 C 684.691 -1.11382 5.0916 0
M  V30 7289 C 682.019 -0.7685 5.81645 0
M  V30 7290 C 684.371 -0.514143 6.30507 0
M  V30 7291 C 683.035 -0.33604 6.66654 0
M  V30 7292 H 682.305 -0.416174 0.613091 0
M  V30 7293 H 684.952 -0.422327 1.86785 0
M  V30 7294 H 683.257 -2.92108 2.61114 0
M  V30 7295 H 684.954 -2.71974 2.94671 0
M  V30 7296 H 681.544 -1.68626 3.94035 0
M  V30 7297 H 685.728 -1.22962 4.80826 0
M  V30 7298 H 680.984 -0.618681 6.08262 0
M  V30 7299 H 685.158 -0.169657 6.96193 0
M  V30 7300 H 682.785 0.14166 7.60068 0
M  V30 7301 N 684.36 -1.4356 -0.65026 0
M  V30 7302 C 685.771 -1.40324 -1.2315 0
M  V30 7303 C 686.122 -0.108812 -1.95898 0
M  V30 7304 O 685.247 0.79163 -2.01401 0
M  V30 7305 C 685.842 -2.54195 -2.23987 0
M  V30 7306 C 684.401 -2.54215 -2.77582 0
M  V30 7307 C 683.548 -2.31752 -1.5227 0
M  V30 7308 H 686.499 -1.52418 -0.442095 0
M  V30 7309 H 686.52 -2.25854 -3.0622 0
M  V30 7310 H 686.032 -3.48392 -1.71011 0
M  V30 7311 H 684.133 -1.63907 -3.34612 0
M  V30 7312 H 684.246 -3.52081 -3.24925 0
M  V30 7313 H 682.61 -1.80476 -1.79723 0
M  V30 7314 H 683.393 -3.28037 -1.01225 0
M  V30 7315 N 685.838 0.888903 -1.30139 0
M  V30 7316 C 687.084 1.6428 -1.18912 0
M  V30 7317 C 687.417 1.92499 0.256477 0
M  V30 7318 O 686.692 1.54312 1.18397 0
M  V30 7319 C 686.975 2.9851 -2.01405 0
M  V30 7320 C 686.828 2.77288 -3.54163 0
M  V30 7321 C 688.147 3.99383 -1.84882 0
M  V30 7322 H 685.266 0.596148 -0.433333 0
M  V30 7323 H 687.908 1.0289 -1.5973 0
M  V30 7324 H 686.058 3.50907 -1.66722 0
M  V30 7325 H 687.73 2.31709 -3.98884 0
M  V30 7326 H 685.973 2.11867 -3.78543 0
M  V30 7327 H 686.644 3.72717 -4.07168 0
M  V30 7328 H 689.12 3.56132 -2.15196 0
M  V30 7329 H 687.996 4.91222 -2.44934 0
M  V30 7330 H 688.257 4.34674 -0.806902 0
M  V30 7331 N 687.317 1.12792 1.10072 0
M  V30 7332 C 688.247 0.821688 2.18565 0
M  V30 7333 C 689.228 -0.21612 1.68721 0
M  V30 7334 O 690.413 -0.0764932 1.94049 0
M  V30 7335 C 687.543 0.279624 3.46172 0
M  V30 7336 C 686.497 1.25092 4.09312 0
M  V30 7337 C 685.823 0.568916 5.31665 0
M  V30 7338 C 687.123 2.60699 4.52585 0
M  V30 7339 H 688.817 1.72888 2.44438 0
M  V30 7340 H 686.363 0.832702 1.17482 0
M  V30 7341 H 688.316 0.053099 4.21367 0
M  V30 7342 H 687.04 -0.662929 3.19801 0
M  V30 7343 H 685.699 1.46332 3.36129 0
M  V30 7344 H 685.347 -0.378898 5.01571 0
M  V30 7345 H 685.047 1.21687 5.74862 0
M  V30 7346 H 686.571 0.351517 6.09587 0
M  V30 7347 H 687.985 2.43465 5.19035 0
M  V30 7348 H 686.382 3.21608 5.06644 0
M  V30 7349 H 687.452 3.1886 3.65317 0
M  V30 7350 N 688.795 -1.27931 0.920396 0
M  V30 7351 C 690.042 -1.94689 0.557007 0
M  V30 7352 C 690.37 -1.724 -0.900476 0
M  V30 7353 O 689.625 -1.04194 -1.65657 0
M  V30 7354 C 689.924 -3.47853 0.820558 0
M  V30 7355 C 689.59 -3.90252 2.25863 0
M  V30 7356 C 688.252 -4.01539 2.65179 0
M  V30 7357 C 690.604 -4.11853 3.19415 0
M  V30 7358 C 687.932 -4.3181 3.97187 0
M  V30 7359 C 690.284 -4.43606 4.50995 0
M  V30 7360 C 688.948 -4.53105 4.90155 0
M  V30 7361 H 688.218 -0.712416 0.203823 0
M  V30 7362 H 690.865 -1.52142 1.16298 0
M  V30 7363 H 689.17 -3.91578 0.131844 0
M  V30 7364 H 690.867 -3.97634 0.51847 0
M  V30 7365 H 687.457 -3.81999 1.94358 0
M  V30 7366 H 691.641 -4.0258 2.90246 0
M  V30 7367 H 686.897 -4.37371 4.2722 0
M  V30 7368 H 691.071 -4.59268 5.23494 0
M  V30 7369 H 688.698 -4.76315 5.92476 0
M  V30 7370 N 690.273 -0.685099 -1.4193 0
M  V30 7371 C 691.236 -0.0222632 -2.29189 0
M  V30 7372 C 692.236 0.7186 -1.4385 0
M  V30 7373 O 693.426 0.555058 -1.6512 0
M  V30 7374 C 690.558 0.979013 -3.2654 0
M  V30 7375 H 691.751 -0.790424 -2.89296 0
M  V30 7376 H 689.304 -0.448012 -1.49742 0
M  V30 7377 H 690.039 1.77531 -2.71392 0
M  V30 7378 H 689.824 0.451037 -3.89497 0
M  V30 7379 H 691.314 1.44091 -3.91954 0
M  V30 7380 N 691.751 1.51645 -0.429126 0
M  V30 7381 C 693 2.01203 0.141538 0
M  V30 7382 C 693.313 1.31828 1.44502 0
M  V30 7383 O 694.519 1.7231 2.09813 0
M  V30 7384 C 692.975 3.58624 0.302786 0
M  V30 7385 C 692.583 4.3693 -0.989775 0
M  V30 7386 C 694.327 4.16353 0.827661 0
M  V30 7387 C 692.234 5.86037 -0.794619 0
M  V30 7388 H 691.164 0.751867 0.05667 0
M  V30 7389 H 693.815 1.74822 -0.557633 0
M  V30 7390 H 692.197 3.81417 1.06476 0
M  V30 7391 H 693.371 4.25887 -1.75945 0
M  V30 7392 H 691.686 3.90614 -1.44256 0
M  V30 7393 H 694.283 5.25455 0.990026 0
M  V30 7394 H 694.626 3.74995 1.80787 0
M  V30 7395 H 695.159 3.97606 0.124213 0
M  V30 7396 H 691.898 6.31792 -1.74697 0
M  V30 7397 H 691.418 5.99765 -0.0645968 0
M  V30 7398 H 693.097 6.45471 -0.444591 0
M  V30 7399 N 693.229 0.160201 1.56784 0
M  V30 7400 C 694.476 -0.487588 1.96542 0
M  V30 7401 C 694.804 -1.63999 1.04569 0
M  V30 7402 O 694.059 -1.95546 0.0775211 0
M  V30 7403 C 694.358 -1.02259 3.42459 0
M  V30 7404 C 694.024 0.0127436 4.50898 0
M  V30 7405 C 692.686 0.297318 4.80281 0
M  V30 7406 C 695.038 0.716078 5.16257 0
M  V30 7407 C 692.366 1.29081 5.72324 0
M  V30 7408 C 694.718 1.69847 6.09372 0
M  V30 7409 C 693.382 1.99061 6.37127 0
M  V30 7410 H 692.652 -0.178421 0.719199 0
M  V30 7411 H 695.299 0.249818 1.89864 0
M  V30 7412 H 693.604 -1.8376 3.46034 0
M  V30 7413 H 695.301 -1.53261 3.70556 0
M  V30 7414 H 691.891 -0.219235 4.28039 0
M  V30 7415 H 696.075 0.509428 4.93679 0
M  V30 7416 H 691.331 1.52344 5.92116 0
M  V30 7417 H 695.505 2.2489 6.59088 0
M  V30 7418 H 693.132 2.76194 7.08252 0
M  V30 7419 N 694.707 -1.5719 -0.113559 0
M  V30 7420 C 695.655 -2.01725 -1.158 0
M  V30 7421 C 696.649 -0.915105 -1.42556 0
M  V30 7422 O 697.855 -1.10031 -1.42454 0
M  V30 7423 H 694.23 -0.64262 -0.390569 0
M  V30 7424 H 696.201 -2.88666 -0.755926 0
M  V30 7425 C 694.95 -2.44203 -2.47507 0
M  V30 7426 H 694.273 -3.28582 -2.27758 0
M  V30 7427 H 695.713 -2.79158 -3.19135 0
M  V30 7428 C 694.172 -1.30785 -3.10478 0
M  V30 7429 O 694.702 -0.626807 -3.9678 0
M  V30 7430 N 692.908 -1.06352 -2.7044 0
M  V30 7431 H 692.455 -1.61913 -2.00355 0
M  V30 7432 H 692.413 -0.306614 -3.12901 0
M  V30 7433 N 696.185 0.383891 -1.52853 0
M  V30 7434 C 697.115 1.47559 -1.80965 0
M  V30 7435 C 698.096 1.5669 -0.661986 0
M  V30 7436 O 699.281 1.71556 -0.910072 0
M  V30 7437 C 696.411 2.85114 -1.98312 0
M  V30 7438 C 695.365 2.9082 -3.14019 0
M  V30 7439 C 694.691 4.30873 -3.16627 0
M  V30 7440 C 695.991 2.60001 -4.52986 0
M  V30 7441 H 697.685 1.24283 -2.72386 0
M  V30 7442 H 695.231 0.596445 -1.31067 0
M  V30 7443 H 697.184 3.61496 -2.16561 0
M  V30 7444 H 695.908 3.09738 -1.03585 0
M  V30 7445 H 694.567 2.16886 -2.9556 0
M  V30 7446 H 694.215 4.52545 -2.19573 0
M  V30 7447 H 693.915 4.3561 -3.94357 0
M  V30 7448 H 695.439 5.09154 -3.37038 0
M  V30 7449 H 696.853 3.261 -4.71521 0
M  V30 7450 H 695.25 2.76081 -5.32822 0
M  V30 7451 H 696.32 1.5532 -4.59351 0
M  V30 7452 N 697.663 1.43903 0.642637 0
M  V30 7453 C 698.909 1.46296 1.40447 0
M  V30 7454 C 699.242 0.0908361 1.93987 0
M  V30 7455 O 698.517 -0.889884 1.72949 0
M  V30 7456 C 698.8 2.51399 2.57819 0
M  V30 7457 C 698.653 3.97926 2.09702 0
M  V30 7458 C 699.972 2.53125 3.60022 0
M  V30 7459 H 697.091 0.532676 0.509338 0
M  V30 7460 H 699.733 1.75515 0.727635 0
M  V30 7461 H 697.883 2.26614 3.1556 0
M  V30 7462 H 699.555 4.33804 1.5688 0
M  V30 7463 H 697.798 4.10252 1.40982 0
M  V30 7464 H 698.469 4.67096 2.94152 0
M  V30 7465 H 700.945 2.75242 3.12059 0
M  V30 7466 H 699.821 3.28589 4.39682 0
M  V30 7467 H 700.082 1.56895 4.13324 0
M  V30 7468 N 699.141 -0.881989 1.30609 0
M  V30 7469 C 700.371 -1.66469 1.22359 0
M  V30 7470 C 700.779 -1.87969 -0.215507 0
M  V30 7471 O 700.122 -1.42938 -1.15388 0
M  V30 7472 C 700.184 -3.06135 1.88472 0
M  V30 7473 C 699.848 -3.07795 3.37804 0
M  V30 7474 C 700.845 -2.86633 4.33749 0
M  V30 7475 C 698.53 -3.29297 3.793 0
M  V30 7476 C 700.524 -2.86934 5.69164 0
M  V30 7477 C 698.211 -3.29228 5.14832 0
M  V30 7478 C 699.209 -3.08071 6.09574 0
M  V30 7479 O 698.897 -3.07824 7.4263 0
M  V30 7480 H 698.629 -0.526129 0.424458 0
M  V30 7481 H 701.183 -1.11004 1.72821 0
M  V30 7482 H 699.413 -3.63276 1.32543 0
M  V30 7483 H 701.102 -3.66571 1.74301 0
M  V30 7484 H 701.868 -2.69814 4.0302 0
M  V30 7485 H 697.747 -3.44799 3.05998 0
M  V30 7486 H 701.291 -2.70339 6.43088 0
M  V30 7487 H 697.188 -3.45583 5.452 0
M  V30 7488 H 697.956 -3.2397 7.51656 0
M  V30 7489 N 700.619 -1.13374 -1.09472 0
M  V30 7490 C 701.865 -0.906459 -1.82085 0
M  V30 7491 C 702.22 0.5614 -1.84027 0
M  V30 7492 O 701.513 1.41012 -1.29716 0
M  V30 7493 C 701.707 -1.42759 -3.2765 0
M  V30 7494 C 701.536 -2.94459 -3.39888 0
M  V30 7495 C 700.306 -3.62798 -3.51718 0
M  V30 7496 C 702.504 -3.92398 -3.32457 0
M  V30 7497 N 700.486 -5.02516 -3.52635 0
M  V30 7498 C 701.857 -5.18304 -3.40237 0
M  V30 7499 C 703.912 -3.84671 -3.16122 0
M  V30 7500 C 702.615 -6.37386 -3.33364 0
M  V30 7501 C 704.641 -5.03287 -3.10574 0
M  V30 7502 C 704.003 -6.28055 -3.18945 0
M  V30 7503 H 700.102 -0.385097 -0.680606 0
M  V30 7504 H 702.686 -1.44187 -1.30836 0
M  V30 7505 H 700.857 -0.919102 -3.77369 0
M  V30 7506 H 702.589 -1.14136 -3.88272 0
M  V30 7507 H 699.344 -3.13317 -3.55147 0
M  V30 7508 H 699.768 -5.75421 -3.56679 0
M  V30 7509 H 704.41 -2.89094 -3.0852 0
M  V30 7510 H 702.128 -7.33219 -3.3973 0
M  V30 7511 H 705.714 -4.99047 -2.9907 0
M  V30 7512 H 704.594 -7.18299 -3.14668 0
M  V30 7513 N 702.098 1.27442 -0.927168 0
M  V30 7514 C 703.061 2.2512 -0.430525 0
M  V30 7515 C 704.061 1.54357 0.450619 0
M  V30 7516 O 705.251 1.72371 0.251774 0
M  V30 7517 C 702.383 3.38763 0.381144 0
M  V30 7518 H 703.576 2.70569 -1.29354 0
M  V30 7519 H 701.129 1.39355 -0.707806 0
M  V30 7520 H 701.864 2.98695 1.263 0
M  V30 7521 H 701.649 3.91298 -0.250618 0
M  V30 7522 H 703.139 4.11364 0.719012 0
M  V30 7523 N 703.576 0.692616 1.41565 0
M  V30 7524 C 704.804 0.231279 2.05603 0
M  V30 7525 C 705.219 -1.11837 1.52111 0
M  V30 7526 O 704.576 -1.6983 0.66813 0
M  V30 7527 C 704.627 0.177125 3.61066 0
M  V30 7528 O 704.348 1.47346 4.12578 0
M  V30 7529 C 705.849 -0.30556 4.42246 0
M  V30 7530 H 703.069 0.108238 0.662213 0
M  V30 7531 H 705.613 0.944369 1.81389 0
M  V30 7532 H 703.768 -0.486769 3.8433 0
M  V30 7533 H 704.182 1.35861 5.06599 0
M  V30 7534 H 705.656 -0.29233 5.51225 0
M  V30 7535 H 706.133 -1.34393 4.18133 0
M  V30 7536 H 706.739 0.327229 4.24039 0
M  V30 7537 N 705.054 -1.51416 0.437162 0
M  V30 7538 C 706.284 -2.06204 -0.127859 0
M  V30 7539 C 706.692 -1.30463 -1.37026 0
M  V30 7540 O 706.035 -0.357516 -1.80187 0
M  V30 7541 C 706.097 -3.55783 -0.515632 0
M  V30 7542 C 705.761 -4.52776 0.619937 0
M  V30 7543 C 706.758 -4.98031 1.49201 0
M  V30 7544 C 704.443 -4.95878 0.800618 0
M  V30 7545 C 706.437 -5.85061 2.52947 0
M  V30 7546 C 704.124 -5.82699 1.84135 0
M  V30 7547 C 705.122 -6.27188 2.70416 0
M  V30 7548 O 704.81 -7.12284 3.72702 0
M  V30 7549 H 704.542 -0.675903 -0.011442 0
M  V30 7550 H 707.096 -1.95977 0.614986 0
M  V30 7551 H 705.326 -3.63793 -1.31118 0
M  V30 7552 H 707.015 -3.93087 -1.01179 0
M  V30 7553 H 707.781 -4.65426 1.36395 0
M  V30 7554 H 703.66 -4.60792 0.138617 0
M  V30 7555 H 707.204 -6.19708 3.20325 0
M  V30 7556 H 703.101 -6.14717 1.9696 0
M  V30 7557 H 703.869 -7.30462 3.69281 0
M  V30 7558 N 706.532 -0.168513 -1.56696 0
M  V30 7559 C 707.778 0.477865 -1.9709 0
M  V30 7560 C 708.111 1.63084 -1.05438 0
M  V30 7561 O 707.386 1.94238 -0.10095 0
M  V30 7562 C 707.669 0.963521 -3.4697 0
M  V30 7563 C 707.522 -0.189443 -4.49401 0
M  V30 7564 C 708.841 1.83813 -3.99876 0
M  V30 7565 H 705.96 0.172229 -0.716593 0
M  V30 7566 H 708.602 -0.254083 -1.88293 0
M  V30 7567 H 706.752 1.58724 -3.54597 0
M  V30 7568 H 708.424 -0.826451 -4.53836 0
M  V30 7569 H 706.667 -0.845366 -4.25483 0
M  V30 7570 H 707.338 0.192446 -5.51664 0
M  V30 7571 H 709.814 1.31235 -3.94863 0
M  V30 7572 H 708.69 2.14697 -5.0517 0
M  V30 7573 H 708.951 2.78289 -3.43523 0
M  V30 7574 N 708.01 1.57248 0.105221 0
M  V30 7575 C 708.958 2.02337 1.14728 0
M  V30 7576 C 709.952 0.922652 1.42069 0
M  V30 7577 O 711.158 1.10785 1.41869 0
M  V30 7578 H 707.533 0.644682 0.387155 0
M  V30 7579 H 709.504 2.89063 0.740607 0
M  V30 7580 C 708.253 2.45513 2.46209 0
M  V30 7581 H 707.576 3.29785 2.26013 0
M  V30 7582 H 709.016 2.80846 3.1765 0
M  V30 7583 C 707.475 1.3243 3.09781 0
M  V30 7584 O 708.005 0.647841 3.96442 0
M  V30 7585 N 706.211 1.07785 2.69872 0
M  V30 7586 H 705.758 1.62973 1.99493 0
M  V30 7587 H 705.716 0.323204 3.12734 0
M  V30 7588 N 709.488 -0.375779 1.53054 0
M  V30 7589 C 710.904 -0.716764 1.426 0
M  V30 7590 C 711.104 -1.93651 0.556931 0
M  V30 7591 O 710.16 -2.52475 0.0354461 0
M  V30 7592 C 711.473 -0.939499 2.85646 0
M  V30 7593 C 713.021 -1.04015 2.95212 0
M  V30 7594 C 713.496 -1.29543 4.39298 0
M  V30 7595 N 714.987 -1.36335 4.42682 0
M  V30 7596 C 715.722 -1.57778 5.51266 0
M  V30 7597 N 715.218 -1.76604 6.69913 0
M  V30 7598 N 717.011 -1.60065 5.38828 0
M  V30 7599 H 709.162 0.42664 2.08071 0
M  V30 7600 H 711.425 0.128758 0.939215 0
M  V30 7601 H 711.131 -0.115189 3.51511 0
M  V30 7602 H 711.005 -1.85048 3.2869 0
M  V30 7603 H 713.392 -1.85501 2.29507 0
M  V30 7604 H 713.473 -0.106785 2.55577 0
M  V30 7605 H 713.117 -0.485611 5.05573 0
M  V30 7606 H 713.047 -2.24184 4.76497 0
M  V30 7607 H 715.538 -1.23441 3.5717 0
M  V30 7608 H 715.851 -1.9251 7.48438 0
M  V30 7609 H 714.196 -1.73802 6.72917 0
M  V30 7610 H 717.387 -1.44917 4.45103 0
M  V30 7611 H 717.56 -1.76435 6.23518 0
M  V30 7612 N 710.966 -1.44241 -0.634997 0
M  V30 7613 C 711.876 -1.53293 -1.77591 0
M  V30 7614 C 712.892 -0.418831 -1.68884 0
M  V30 7615 O 714.068 -0.675619 -1.8973 0
M  V30 7616 C 711.133 -1.47075 -3.13958 0
M  V30 7617 C 710.194 -2.69304 -3.34326 0
M  V30 7618 C 709.427 -2.63374 -4.64187 0
M  V30 7619 O 709.65 -1.69161 -5.44739 0
M  V30 7620 O 708.584 -3.54166 -4.86673 0
M  V30 7621 H 712.41 -2.49673 -1.72908 0
M  V30 7622 H 709.995 -1.26445 -0.795745 0
M  V30 7623 H 711.877 -1.46117 -3.95257 0
M  V30 7624 H 710.552 -0.538373 -3.19192 0
M  V30 7625 H 709.459 -2.75831 -2.52721 0
M  V30 7626 H 710.792 -3.61576 -3.33951 0
M  V30 7627 N 712.444 0.87505 -1.31075 0
M  V30 7628 C 713.669 1.66583 -1.23551 0
M  V30 7629 C 714.094 1.87067 0.19686 0
M  V30 7630 O 713.452 1.40877 1.1412 0
M  V30 7631 C 713.5 3.01401 -1.97965 0
M  V30 7632 O 712.604 3.90923 -1.31351 0
M  V30 7633 H 711.945 0.508645 -0.426821 0
M  V30 7634 H 714.475 1.09139 -1.7306 0
M  V30 7635 H 714.485 3.51374 -2.07366 0
M  V30 7636 H 713.16 2.85812 -3.02133 0
M  V30 7637 H 711.737 3.49369 -1.30368 0
M  V30 7638 N 713.922 1.13953 1.08869 0
M  V30 7639 C 714.885 0.824991 2.13838 0
M  V30 7640 C 715.885 -0.168198 1.59918 0
M  V30 7641 O 717.075 0.0595778 1.74098 0
M  V30 7642 C 714.207 0.228938 3.4013 0
M  V30 7643 H 715.4 1.75521 2.43171 0
M  V30 7644 H 712.953 0.94492 1.24503 0
M  V30 7645 H 713.688 -0.710227 3.16427 0
M  V30 7646 H 713.473 0.944243 3.80561 0
M  V30 7647 H 714.963 0.0259223 4.17592 0
M  V30 7648 N 715.4 -1.26948 0.933913 0
M  V30 7649 C 716.649 -1.93378 0.573409 0
M  V30 7650 C 716.962 -1.74148 -0.890614 0
M  V30 7651 O 718.168 -2.34971 -1.36017 0
M  V30 7652 C 716.624 -3.46449 0.974747 0
M  V30 7653 C 716.232 -3.74425 2.45988 0
M  V30 7654 C 717.976 -4.18924 0.685791 0
M  V30 7655 C 715.883 -5.209 2.8003 0
M  V30 7656 H 714.813 -0.723952 0.210736 0
M  V30 7657 H 717.464 -1.44143 1.13557 0
M  V30 7658 H 715.846 -3.94528 0.341181 0
M  V30 7659 H 717.02 -3.37079 3.14188 0
M  V30 7660 H 715.335 -3.15167 2.72138 0
M  V30 7661 H 717.932 -5.26786 0.916546 0
M  V30 7662 H 718.275 -4.14587 -0.377217 0
M  V30 7663 H 718.808 -3.76687 1.27874 0
M  V30 7664 H 715.547 -5.30332 3.85264 0
M  V30 7665 H 715.067 -5.59369 2.16485 0
M  V30 7666 H 716.746 -5.88837 2.68105 0
M  V30 7667 N 716.879 -0.700114 -1.41195 0
M  V30 7668 C 717.826 -0.0376652 -2.30769 0
M  V30 7669 C 718.796 0.766544 -1.47354 0
M  V30 7670 O 719.981 0.73365 -1.76131 0
M  V30 7671 C 717.121 0.889452 -3.33441 0
M  V30 7672 C 716.234 0.076373 -4.31932 0
M  V30 7673 C 715.369 1.00155 -5.21673 0
M  V30 7674 C 714.408 0.181644 -6.1183 0
M  V30 7675 N 713.545 1.06087 -6.94039 0
M  V30 7676 H 718.385 -0.80726 -2.86858 0
M  V30 7677 H 715.922 -0.409798 -1.41277 0
M  V30 7678 H 717.88 1.44107 -3.91522 0
M  V30 7679 H 716.51 1.6254 -2.78892 0
M  V30 7680 H 715.562 -0.592223 -3.75762 0
M  V30 7681 H 716.874 -0.559076 -4.95657 0
M  V30 7682 H 716.028 1.62223 -5.8461 0
M  V30 7683 H 714.767 1.67085 -4.58186 0
M  V30 7684 H 713.772 -0.452085 -5.47938 0
M  V30 7685 H 714.997 -0.483925 -6.77374 0
M  V30 7686 H 712.943 1.7161 -6.33156 0
M  V30 7687 H 712.86 0.481094 -7.54468 0
M  V30 7688 H 714.128 1.66822 -7.6144 0
M  V30 7689 N 718.357 1.51182 -0.445186 0
M  V30 7690 C 719.605 2.01753 0.11841 0
M  V30 7691 C 719.926 1.33087 1.42523 0
M  V30 7692 O 719.196 0.467891 1.9023 0
M  V30 7693 H 717.776 0.745536 0.0467492 0
M  V30 7694 H 720.438 1.85765 -0.589688 0
M  V30 7695 H 719.534 3.10762 0.288665 0
M  V30 7696 N 719.835 0.176821 1.56605 0
M  V30 7697 C 720.768 -0.790135 2.14084 0
M  V30 7698 C 721.746 -1.22219 1.07244 0
M  V30 7699 O 722.93 -1.31298 1.35252 0
M  V30 7700 C 720.057 -2.06475 2.68488 0
M  V30 7701 C 719.103 -1.77628 3.87751 0
M  V30 7702 S 719.936 -0.940612 5.27174 0
M  V30 7703 C 721.092 -2.22577 5.84988 0
M  V30 7704 H 721.325 -0.30144 2.95768 0
M  V30 7705 H 718.858 -0.0379279 1.54353 0
M  V30 7706 H 720.816 -2.79683 3.00479 0
M  V30 7707 H 719.477 -2.52457 1.8688 0
M  V30 7708 H 718.67 -2.72215 4.24164 0
M  V30 7709 H 718.272 -1.12512 3.56675 0
M  V30 7710 H 720.564 -3.17992 5.98237 0
M  V30 7711 H 721.507 -1.90624 6.81959 0
M  V30 7712 H 721.915 -2.34588 5.13448 0
M  V30 7713 N 721.313 -1.57302 -0.09688 0
M  V30 7714 C 722.562 -1.85183 -0.799388 0
M  V30 7715 C 722.875 -0.765818 -1.79985 0
M  V30 7716 O 724.081 -0.931696 -2.55013 0
M  V30 7717 C 722.537 -3.28399 -1.47249 0
M  V30 7718 C 722.145 -4.45066 -0.511888 0
M  V30 7719 C 723.889 -3.65506 -2.15883 0
M  V30 7720 C 721.796 -5.79315 -1.18948 0
M  V30 7721 H 720.726 -0.690752 -0.302287 0
M  V30 7722 H 723.377 -1.83425 -0.0523104 0
M  V30 7723 H 721.759 -3.24692 -2.26697 0
M  V30 7724 H 722.933 -4.60116 0.250962 0
M  V30 7725 H 721.248 -4.16343 0.0686576 0
M  V30 7726 H 723.845 -4.63087 -2.67309 0
M  V30 7727 H 724.188 -2.94041 -2.94696 0
M  V30 7728 H 724.721 -3.71094 -1.43298 0
M  V30 7729 H 721.46 -6.54007 -0.442198 0
M  V30 7730 H 720.98 -5.68111 -1.9238 0
M  V30 7731 H 722.659 -6.23816 -1.71646 0
M  V30 7732 N 722.791 0.367657 -1.53252 0
M  V30 7733 C 724.207 0.709191 -1.42978 0
M  V30 7734 C 724.407 1.93352 -0.567193 0
M  V30 7735 O 723.463 2.52453 -0.0488349 0
M  V30 7736 C 724.776 0.924338 -2.86141 0
M  V30 7737 C 726.324 1.02448 -2.95759 0
M  V30 7738 C 726.799 1.27211 -4.39979 0
M  V30 7739 N 728.29 1.33986 -4.43398 0
M  V30 7740 C 729.025 1.54852 -5.52095 0
M  V30 7741 N 728.521 1.73049 -6.7084 0
M  V30 7742 N 730.314 1.57205 -5.39669 0
M  V30 7743 H 722.465 -0.437669 -2.07842 0
M  V30 7744 H 724.728 -0.133737 -0.938519 0
M  V30 7745 H 724.434 0.0965455 -3.51567 0
M  V30 7746 H 724.308 1.83302 -3.29667 0
M  V30 7747 H 726.695 1.84282 -2.30487 0
M  V30 7748 H 726.776 0.0932301 -2.5563 0
M  V30 7749 H 726.42 0.458792 -5.05824 0
M  V30 7750 H 726.35 2.21654 -4.77679 0
M  V30 7751 H 728.841 1.21545 -3.5782 0
M  V30 7752 H 729.154 1.88538 -7.49449 0
M  V30 7753 H 727.499 1.70231 -6.7383 0
M  V30 7754 H 730.69 1.42555 -4.45865 0
M  V30 7755 H 730.863 1.73126 -6.24445 0
M  V30 7756 N 724.269 1.44576 0.627338 0
M  V30 7757 C 725.216 1.51734 1.73912 0
M  V30 7758 C 726.186 0.364745 1.62046 0
M  V30 7759 O 727.371 0.575503 1.81914 0
M  V30 7760 C 724.511 1.47116 3.12171 0
M  V30 7761 C 723.624 2.72778 3.34986 0
M  V30 7762 C 722.759 2.59968 4.63239 0
M  V30 7763 C 721.798 3.80776 4.79245 0
M  V30 7764 N 720.935 3.66618 5.98778 0
M  V30 7765 H 725.775 2.46722 1.6713 0
M  V30 7766 H 723.312 1.22444 0.815224 0
M  V30 7767 H 725.27 1.42429 3.92135 0
M  V30 7768 H 723.9 0.556928 3.17959 0
M  V30 7769 H 722.952 2.87637 2.48936 0
M  V30 7770 H 724.264 3.62441 3.42692 0
M  V30 7771 H 723.418 2.53135 5.51369 0
M  V30 7772 H 722.157 1.67872 4.57898 0
M  V30 7773 H 721.162 3.87989 3.89544 0
M  V30 7774 H 722.387 4.73913 4.86398 0
M  V30 7775 H 720.333 2.77277 5.9452 0
M  V30 7776 H 720.25 4.499 6.07557 0
M  V30 7777 H 721.518 3.63684 6.89459 0
M  V30 7778 N 725.747 -0.868086 1.31537 0
M  V30 7779 C 726.679 -1.98165 1.15166 0
M  V30 7780 C 727.692 -1.6255 0.0902335 0
M  V30 7781 O 728.881 -1.75272 0.33791 0
M  V30 7782 C 725.981 -3.30772 0.737776 0
M  V30 7783 C 725.154 -3.94716 1.88462 0
M  V30 7784 C 724.213 -5.05641 1.45648 0
M  V30 7785 O 723.239 -5.2636 2.16642 0
M  V30 7786 N 724.441 -5.79474 0.34493 0
M  V30 7787 H 727.206 -2.12754 2.11083 0
M  V30 7788 H 724.767 -1.04217 1.23897 0
M  V30 7789 H 726.759 -4.02366 0.434032 0
M  V30 7790 H 725.329 -3.1233 -0.129834 0
M  V30 7791 H 724.549 -3.16079 2.35558 0
M  V30 7792 H 725.837 -4.34175 2.65273 0
M  V30 7793 H 725.235 -5.65164 -0.246259 0
M  V30 7794 H 723.792 -6.51722 0.100728 0
M  V30 7795 O 727.264 -1.26432 -1.00485 0
M  V30 7796 H 727.955 -1.05382 -1.62525 0
M  V30 END ATOM
M  V30 BEGIN BOND
M  V30 END BOND
M  V30 END CTAB
M  END
$$$$
