drugbank_target|P33316 Deoxyuridine 5'-triphosphate nucleotidohydrolase, mitochondrial (DB03413; DB04685)
 OpenBabel12092119493D

  0  0  0     0  0            999 V3000
M  V30 BEGIN CTAB
M  V30 COUNTS 3736 3778 0 0 0
M  V30 BEGIN ATOM
M  V30 1 H -0.908 1.98254 -0.117106 0
M  V30 2 N 0 1.576 0 0
M  V30 3 C 0.933 2.03868 1.02534 0
M  V30 4 C 1.911 0.928543 1.3348 0
M  V30 5 O 3.095 1.19667 1.45644 0
M  V30 6 C 0.222 2.43627 2.35294 0
M  V30 7 C -0.732 3.65373 2.2001 0
M  V30 8 S 0.101 5.13292 1.52614 0
M  V30 9 C 1.257 5.56322 2.86805 0
M  V30 10 H 1.49 2.90518 0.631377 0
M  V30 11 H -0.977 1.52953 0.210867 0
M  V30 12 H 0.981 2.67203 3.11629 0
M  V30 13 H -0.358 1.57376 2.7183 0
M  V30 14 H -1.165 3.90944 3.18086 0
M  V30 15 H -1.563 3.418 1.51819 0
M  V30 16 H 0.729 5.58782 3.83104 0
M  V30 17 H 1.672 6.56266 2.65933 0
M  V30 18 H 2.08 4.83886 2.90714 0
M  V30 19 N 1.4781 -0.272755 1.55222 0
M  V30 20 C 2.7061 -1.02255 1.79865 0
M  V30 21 C 3.1211 -1.79924 0.572088 0
M  V30 22 O 2.4781 -1.76638 -0.458842 0
M  V30 23 C 2.5291 -1.98094 3.02392 0
M  V30 24 O 2.2501 -1.23572 4.20311 0
M  V30 25 C 3.7511 -2.84884 3.39641 0
M  V30 26 H 0.9711 -0.302057 0.599168 0
M  V30 27 H 3.5151 -0.303465 2.02236 0
M  V30 28 H 1.6701 -2.65465 2.82147 0
M  V30 29 H 2.0841 -1.88172 4.89583 0
M  V30 30 H 3.5581 -3.47927 4.28545 0
M  V30 31 H 4.0351 -3.54665 2.59055 0
M  V30 32 H 4.6411 -2.23003 3.62146 0
M  V30 33 N 2.9562 -1.48159 -0.537278 0
M  V30 34 C 4.3672 -1.49429 -1.11928 0
M  V30 35 C 4.7182 -0.26 -1.9447 0
M  V30 36 O 3.8432 0.633489 -2.0692 0
M  V30 37 C 4.4382 -2.70758 -2.03656 0
M  V30 38 C 2.9972 -2.74923 -2.57088 0
M  V30 39 C 2.1442 -2.42835 -1.3389 0
M  V30 40 H 5.0952 -1.55381 -0.322886 0
M  V30 41 H 5.1162 -2.48861 -2.87834 0
M  V30 42 H 4.6282 -3.60575 -1.43553 0
M  V30 43 H 2.7292 -1.89296 -3.20933 0
M  V30 44 H 2.8422 -3.76157 -2.9672 0
M  V30 45 H 1.2062 -1.93836 -1.65226 0
M  V30 46 H 1.9892 -3.34884 -0.755504 0
M  V30 47 N 4.4343 0.785586 -1.36625 0
M  V30 48 C 5.3643 1.91259 -1.33949 0
M  V30 49 C 6.3453 1.68795 -0.210325 0
M  V30 50 O 7.5303 1.89854 -0.408561 0
M  V30 51 C 4.6603 3.28339 -1.13186 0
M  V30 52 C 3.6143 3.65335 -2.22967 0
M  V30 53 C 2.9403 5.00806 -1.87342 0
M  V30 54 C 4.2403 3.7352 -3.65075 0
M  V30 55 H 5.9343 1.93755 -2.28253 0
M  V30 56 H 3.4803 0.930788 -1.09874 0
M  V30 57 H 5.4333 4.06804 -1.09948 0
M  V30 58 H 4.1573 3.2624 -0.153332 0
M  V30 59 H 2.8163 2.89169 -2.25337 0
M  V30 60 H 2.4643 4.95233 -0.880545 0
M  V30 61 H 2.1643 5.26529 -2.60846 0
M  V30 62 H 3.6883 5.81687 -1.85667 0
M  V30 63 H 5.1023 4.42168 -3.64911 0
M  V30 64 H 3.4993 4.10731 -4.37516 0
M  V30 65 H 4.5693 2.74527 -3.99703 0
M  V30 66 N 5.9124 1.20967 1.01018 0
M  V30 67 C 7.1524 1.03511 1.76252 0
M  V30 68 C 7.5164 -0.42458 1.87247 0
M  V30 69 O 8.7174 -0.719508 2.58991 0
M  V30 70 C 6.9884 1.70726 3.13986 0
M  V30 71 S 8.5474 1.68458 4.05176 0
M  V30 72 H 5.3654 0.371037 0.606508 0
M  V30 73 H 7.9674 1.53628 1.20908 0
M  V30 74 H 6.6714 2.76128 3.03614 0
M  V30 75 H 6.2024 1.20767 3.74405 0
M  V30 76 H 8.2174 0.721987 4.90919 0
M  V30 77 N 7.3905 -1.2043 1.01659 0
M  V30 78 C 8.8015 -1.71517 0.737482 0
M  V30 79 C 9.1525 -1.81547 -0.743973 0
M  V30 80 O 8.2775 -1.47803 -1.58061 0
M  V30 81 C 8.8725 -3.11515 1.33206 0
M  V30 82 C 7.4315 -3.59912 1.10183 0
M  V30 83 C 6.5785 -2.37116 1.43776 0
M  V30 84 H 9.5295 -1.05444 1.18606 0
M  V30 85 H 9.5505 -3.73575 0.722636 0
M  V30 86 H 9.0625 -3.04182 2.41028 0
M  V30 87 H 7.1635 -3.72577 0.0412756 0
M  V30 88 H 7.2765 -4.44731 1.78188 0
M  V30 89 H 5.6405 -2.39857 0.856778 0
M  V30 90 H 6.4235 -2.32424 2.52654 0
M  V30 91 N 8.8686 -0.792821 -1.36206 0
M  V30 92 C 10.2846 -0.474903 -1.52371 0
M  V30 93 C 10.4846 1.00622 -1.74578 0
M  V30 94 O 9.5406 1.79162 -1.77924 0
M  V30 95 C 10.8536 -1.3083 -2.70747 0
M  V30 96 C 12.4016 -1.30234 -2.84619 0
M  V30 97 C 12.8766 -2.11956 -4.06004 0
M  V30 98 N 14.3676 -2.09419 -4.13156 0
M  V30 99 C 15.1026 -2.69419 -5.06163 0
M  V30 100 N 14.5986 -3.3829 -6.04592 0
M  V30 101 N 16.3916 -2.59134 -4.98804 0
M  V30 102 H 8.5426 -1.75222 -1.20046 0
M  V30 103 H 10.8056 -0.745024 -0.586211 0
M  V30 104 H 10.5116 -2.35881 -2.6087 0
M  V30 105 H 10.3856 -0.95196 -3.6499 0
M  V30 106 H 12.7726 -0.259748 -2.93955 0
M  V30 107 H 12.8536 -1.69847 -1.91274 0
M  V30 108 H 12.4976 -3.16248 -3.97429 0
M  V30 109 H 12.4276 -1.69711 -4.98503 0
M  V30 110 H 14.9186 -1.59297 -3.42685 0
M  V30 111 H 15.2316 -3.81394 -6.7213 0
M  V30 112 H 13.5766 -3.42393 -6.04807 0
M  V30 113 H 16.7676 -2.04927 -4.20859 0
M  V30 114 H 16.9406 -3.06185 -5.711 0
M  V30 115 N 10.3467 1.47872 -0.545128 0
M  V30 116 C 11.7577 1.86384 -0.108581 0
M  V30 117 C 12.1087 1.45309 1.31832 0
M  V30 118 O 11.2337 0.850641 1.9898 0
M  V30 119 C 11.8287 3.38265 -0.190274 0
M  V30 120 C 10.3877 3.75914 0.191164 0
M  V30 121 C 9.5347 2.71926 -0.543273 0
M  V30 122 H 12.4857 1.39561 -0.755537 0
M  V30 123 H 12.5067 3.75831 0.594217 0
M  V30 124 H 12.0187 3.6813 -1.2289 0
M  V30 125 H 10.1197 3.51665 1.23136 0
M  V30 126 H 10.2327 4.78836 -0.158987 0
M  V30 127 H 8.5967 2.54697 0.0122495 0
M  V30 128 H 9.3797 3.04634 -1.58282 0
M  V30 129 N 11.8248 0.280983 1.55075 0
M  V30 130 C 12.7878 -0.590896 2.21452 0
M  V30 131 C 13.7878 -1.07682 1.19421 0
M  V30 132 O 14.9778 -0.97605 1.44288 0
M  V30 133 C 12.1098 -1.81587 2.88511 0
M  V30 134 H 13.3028 -0.0112554 2.99898 0
M  V30 135 H 10.8558 0.0316438 1.56268 0
M  V30 136 H 11.5908 -2.43587 2.14093 0
M  V30 137 H 11.3758 -1.4753 3.63287 0
M  V30 138 H 12.8658 -2.43575 3.39206 0
M  V30 139 N 13.3029 -1.57598 0.00835791 0
M  V30 140 C 14.2329 -2.1198 -0.979113 0
M  V30 141 C 15.2139 -1.03091 -1.35301 0
M  V30 142 O 16.3989 -1.30818 -1.43528 0
M  V30 143 C 13.5289 -2.62995 -2.26828 0
M  V30 144 C 12.4829 -3.76485 -2.03576 0
M  V30 145 C 11.8089 -4.13846 -3.38579 0
M  V30 146 C 13.1089 -5.0342 -1.39161 0
M  V30 147 H 14.8029 -2.94738 -0.526281 0
M  V30 148 H 12.3489 -1.41783 -0.251704 0
M  V30 149 H 14.3019 -2.99669 -2.96271 0
M  V30 150 H 13.0259 -1.7737 -2.7424 0
M  V30 151 H 11.6849 -3.40217 -1.36557 0
M  V30 152 H 11.3329 -3.25232 -3.83709 0
M  V30 153 H 11.0329 -4.90312 -3.23834 0
M  V30 154 H 12.5569 -4.53086 -4.09323 0
M  V30 155 H 13.9709 -5.37812 -1.98573 0
M  V30 156 H 12.3679 -5.84746 -1.34878 0
M  V30 157 H 13.4379 -4.83548 -0.361868 0
M  V30 158 N 14.781 0.264519 -1.55364 0
M  V30 159 C 16.021 1.00254 -1.78125 0
M  V30 160 C 16.385 1.83187 -0.575017 0
M  V30 161 O 17.586 2.60029 -0.681042 0
M  V30 162 C 15.857 1.85478 -3.05504 0
M  V30 163 S 17.416 2.6543 -3.49417 0
M  V30 164 H 14.234 0.337522 -0.625779 0
M  V30 165 H 16.836 0.272111 -1.93597 0
M  V30 166 H 15.54 1.23491 -3.9138 0
M  V30 167 H 15.071 2.62827 -2.92721 0
M  V30 168 H 17.086 3.87958 -3.09359 0
M  V30 169 N 16.2591 1.48442 0.529413 0
M  V30 170 C 17.4891 1.59919 1.30804 0
M  V30 171 C 17.8971 0.258792 1.87422 0
M  V30 172 O 17.2401 -0.762096 1.67146 0
M  V30 173 C 17.3021 2.58693 2.49636 0
M  V30 174 C 16.9661 4.03745 2.14101 0
M  V30 175 C 17.9631 4.9141 1.6974 0
M  V30 176 C 15.6481 4.49285 2.24607 0
M  V30 177 C 17.6421 6.22645 1.36351 0
M  V30 178 C 15.3291 5.8054 1.9083 0
M  V30 179 C 16.3271 6.67043 1.46773 0
M  V30 180 O 16.0151 7.95856 1.1344 0
M  V30 181 H 15.7471 0.541981 0.404021 0
M  V30 182 H 18.3011 1.95 0.645309 0
M  V30 183 H 16.5311 2.18734 3.18892 0
M  V30 184 H 18.2201 2.59999 3.11698 0
M  V30 185 H 18.9861 4.57465 1.61094 0
M  V30 186 H 14.8651 3.82142 2.57854 0
M  V30 187 H 18.4091 6.90119 1.01891 0
M  V30 188 H 14.3061 6.14022 1.99117 0
M  V30 189 H 15.0741 8.08613 1.26832 0
M  V30 190 N 17.7372 -0.778329 1.37039 0
M  V30 191 C 18.6872 -1.88142 1.28789 0
M  V30 192 C 19.6712 -1.59923 0.177063 0
M  V30 193 O 20.8632 -1.72165 0.410873 0
M  V30 194 C 17.9922 -3.25518 1.09055 0
M  V30 195 C 17.0782 -3.5971 2.24654 0
M  V30 196 N 17.4692 -3.65131 3.50018 0
M  V30 197 C 15.7672 -3.89837 2.16663 0
M  V30 198 C 16.4682 -3.95882 4.26207 0
M  V30 199 N 15.4442 -4.11441 3.55271 0
M  V30 200 H 19.2462 -1.90575 2.23737 0
M  V30 201 H 16.7602 -0.974435 1.29917 0
M  V30 202 H 18.7572 -4.04423 1.0123 0
M  V30 203 H 17.4172 -3.24353 0.15018 0
M  V30 204 H 18.4282 -3.475 3.84011 0
M  V30 205 H 15.1052 -3.96533 1.30645 0
M  V30 206 H 16.4952 -4.06907 5.34674 0
M  V30 207 N 19.2153 -1.21501 -1.00376 0
M  V30 208 C 20.4623 -1.03299 -1.74171 0
M  V30 209 C 20.7903 0.433326 -1.89612 0
M  V30 210 O 20.0453 1.33779 -1.42834 0
M  V30 211 C 20.3443 -1.67673 -3.15627 0
M  V30 212 C 20.0103 -3.17533 -3.2013 0
M  V30 213 C 18.6723 -3.58427 -3.21067 0
M  V30 214 C 21.0243 -4.13504 -3.17275 0
M  V30 215 C 18.3523 -4.93794 -3.16835 0
M  V30 216 C 20.7043 -5.48834 -3.14585 0
M  V30 217 C 19.3683 -5.89123 -3.13831 0
M  V30 218 H 18.6383 -0.377999 -0.637336 0
M  V30 219 H 21.2853 -1.51111 -1.17634 0
M  V30 220 H 19.5903 -1.12158 -3.75404 0
M  V30 221 H 21.2873 -1.51091 -3.71446 0
M  V30 222 H 17.8773 -2.84965 -3.20145 0
M  V30 223 H 22.0613 -3.82936 -3.15711 0
M  V30 224 H 17.3173 -5.24255 -3.1459 0
M  V30 225 H 21.4913 -6.22934 -3.1133 0
M  V30 226 H 19.1183 -6.93984 -3.10307 0
M  V30 227 N 20.6934 1.19889 -1.02296 0
M  V30 228 C 21.6234 2.25141 -0.619174 0
M  V30 229 C 22.6044 1.66051 0.368915 0
M  V30 230 O 23.7894 1.92546 0.252941 0
M  V30 231 C 20.9194 3.4728 0.0368783 0
M  V30 232 C 19.8734 4.19005 -0.872865 0
M  V30 233 C 19.1994 5.34637 -0.0822402 0
M  V30 234 C 20.4994 4.74452 -2.18387 0
M  V30 235 H 22.1934 2.59171 -1.49903 0
M  V30 236 H 19.7394 1.24579 -0.722222 0
M  V30 237 H 21.6924 4.20098 0.330958 0
M  V30 238 H 20.4164 3.12433 0.95149 0
M  V30 239 H 19.0754 3.48061 -1.15105 0
M  V30 240 H 18.7234 4.96034 0.83422 0
M  V30 241 H 18.4234 5.83557 -0.688149 0
M  V30 242 H 19.9474 6.10255 0.205238 0
M  V30 243 H 21.3614 5.39055 -1.95172 0
M  V30 244 H 19.7584 5.33834 -2.74119 0
M  V30 245 H 20.8284 3.92844 -2.84257 0
M  V30 246 N 22.1715 0.800033 1.35784 0
M  V30 247 C 23.3995 0.389606 2.03199 0
M  V30 248 C 23.8145 -0.997375 1.60306 0
M  V30 249 O 23.1715 -1.64154 0.797481 0
M  V30 250 C 23.2225 0.455855 3.58614 0
M  V30 251 O 22.9435 1.78815 3.99946 0
M  V30 252 C 24.4445 0.0374032 4.43284 0
M  V30 253 H 21.6645 0.159132 0.651857 0
M  V30 254 H 24.2085 1.08183 1.73541 0
M  V30 255 H 22.3635 -0.188057 3.86943 0
M  V30 256 H 22.7775 1.74636 4.94573 0
M  V30 257 H 24.2515 0.134882 5.51835 0
M  V30 258 H 24.7285 -1.01651 4.27275 0
M  V30 259 H 25.3345 0.654215 4.20238 0
M  V30 260 N 23.6496 -1.47581 0.552962 0
M  V30 261 C 24.8746 -2.07378 0.0300593 0
M  V30 262 C 25.2996 -1.40355 -1.25229 0
M  V30 263 O 24.6576 -0.477099 -1.7491 0
M  V30 264 C 24.7056 -3.60274 -0.153231 0
M  V30 265 O 23.8096 -3.94041 -1.21678 0
M  V30 266 H 23.1506 -0.662158 0.0494182 0
M  V30 267 H 25.6806 -1.89662 0.767434 0
M  V30 268 H 25.6906 -4.0633 -0.368761 0
M  V30 269 H 24.3656 -4.08455 0.783397 0
M  V30 270 H 22.9426 -3.59735 -0.982079 0
M  V30 271 N 25.1277 -0.289203 -1.54924 0
M  V30 272 C 26.0577 0.58549 -2.2604 0
M  V30 273 C 27.0387 1.14753 -1.25562 0
M  V30 274 O 28.2237 1.17906 -1.54311 0
M  V30 275 C 25.3537 1.76305 -2.99222 0
M  V30 276 C 24.3077 1.33191 -4.06748 0
M  V30 277 C 23.6337 2.5937 -4.6758 0
M  V30 278 C 24.9337 0.471775 -5.20165 0
M  V30 279 H 26.6277 -0.00763532 -2.99399 0
M  V30 280 H 24.1737 -0.00511229 -1.43999 0
M  V30 281 H 26.1267 2.38097 -3.47689 0
M  V30 282 H 24.8507 2.38223 -2.23422 0
M  V30 283 H 23.5097 0.737121 -3.59113 0
M  V30 284 H 23.1577 3.19576 -3.88433 0
M  V30 285 H 22.8577 2.31228 -5.40192 0
M  V30 286 H 24.3817 3.21985 -5.18804 0
M  V30 287 H 25.7957 0.995056 -5.64599 0
M  V30 288 H 24.1927 0.284639 -5.99425 0
M  V30 289 H 25.2627 -0.506041 -4.82252 0
M  V30 290 N 26.6058 1.57591 -0.0167156 0
M  V30 291 C 27.5358 2.12496 0.967858 0
M  V30 292 C 28.5168 1.03807 1.34752 0
M  V30 293 O 29.7018 1.31577 1.42833 0
M  V30 294 C 26.8318 2.64194 2.25431 0
M  V30 295 C 25.7858 3.77559 2.01576 0
M  V30 296 C 25.1118 4.15636 3.36379 0
M  V30 297 C 26.4118 5.04151 1.36489 0
M  V30 298 H 28.1058 2.95013 0.510643 0
M  V30 299 H 25.6518 1.41915 0.244181 0
M  V30 300 H 27.6048 3.01236 2.94678 0
M  V30 301 H 26.3288 1.78821 2.73296 0
M  V30 302 H 24.9878 3.40937 1.34751 0
M  V30 303 H 24.6358 3.27263 3.81979 0
M  V30 304 H 24.3358 4.92022 3.21229 0
M  V30 305 H 25.8598 4.5525 4.06915 0
M  V30 306 H 27.2738 5.38857 1.95718 0
M  V30 307 H 25.6708 5.85453 1.31776 0
M  V30 308 H 26.7408 4.83733 0.336219 0
M  V30 309 N 28.0839 -0.256276 1.55502 0
M  V30 310 C 29.4999 -0.604325 1.47716 0
M  V30 311 C 29.6999 -1.88763 0.705039 0
M  V30 312 O 28.7559 -2.51445 0.230613 0
M  V30 313 C 30.0689 -0.715756 2.92057 0
M  V30 314 C 31.6169 -0.808706 3.02372 0
M  V30 315 C 32.0919 -0.951777 4.48001 0
M  V30 316 N 33.5829 -1.01688 4.519 0
M  V30 317 C 34.3179 -1.14668 5.61817 0
M  V30 318 N 33.8139 -1.24261 6.81565 0
M  V30 319 N 35.6069 -1.1791 5.49594 0
M  V30 320 H 27.7579 0.586291 2.04148 0
M  V30 321 H 30.0209 0.201015 0.926443 0
M  V30 322 H 29.7269 0.157027 3.51349 0
M  V30 323 H 29.6009 -1.59071 3.42018 0
M  V30 324 H 31.9879 -1.67195 2.43166 0
M  V30 325 H 32.0689 0.0912063 2.55637 0
M  V30 326 H 31.7129 -0.0931291 5.07815 0
M  V30 327 H 31.6429 -1.86659 4.92408 0
M  V30 328 H 34.1339 -0.954468 3.65648 0
M  V30 329 H 34.4469 -1.34046 7.61086 0
M  V30 330 H 32.7919 -1.21236 6.84344 0
M  V30 331 H 35.9829 -1.10057 4.54978 0
M  V30 332 H 36.1559 -1.27681 6.35296 0
M  V30 333 N 29.562 -1.4872 -0.521534 0
M  V30 334 C 30.787 -1.61101 -1.30618 0
M  V30 335 C 31.212 -0.274611 -1.86085 0
M  V30 336 O 30.57 0.754937 -1.64834 0
M  V30 337 C 30.618 -2.66709 -2.4269 0
M  V30 338 O 29.722 -2.24456 -3.45967 0
M  V30 339 H 29.063 -0.539921 -0.386499 0
M  V30 340 H 31.593 -1.94767 -0.626645 0
M  V30 341 H 31.603 -2.88245 -2.88754 0
M  V30 342 H 30.278 -3.63727 -2.01682 0
M  V30 343 H 28.855 -2.13168 -3.05964 0
M  V30 344 N 31.0401 0.771051 -1.3745 0
M  V30 345 C 32.0031 1.86598 -1.33093 0
M  V30 346 C 33.0031 1.59076 -0.234845 0
M  V30 347 O 34.1931 1.67145 -0.490732 0
M  V30 348 C 31.3251 3.23747 -1.06773 0
M  V30 349 H 32.5181 1.91873 -2.30488 0
M  V30 350 H 30.0711 0.970876 -1.2249 0
M  V30 351 H 30.8061 3.24148 -0.099129 0
M  V30 352 H 30.5911 3.45115 -1.86112 0
M  V30 353 H 32.0811 4.03824 -1.06377 0
M  V30 354 N 32.5182 1.22032 0.997298 0
M  V30 355 C 33.4512 0.929735 2.08401 0
M  V30 356 C 34.4292 -0.125681 1.62114 0
M  V30 357 O 35.6132 0.00495409 1.88499 0
M  V30 358 C 32.7402 0.397488 3.3636 0
M  V30 359 C 31.7862 1.4369 4.01566 0
M  V30 360 S 32.6192 3.00874 4.42984 0
M  V30 361 C 33.7752 2.49276 5.74119 0
M  V30 362 H 34.0082 1.84998 2.32729 0
M  V30 363 H 31.5412 1.0509 1.13117 0
M  V30 364 H 33.4992 0.0969846 4.10385 0
M  V30 365 H 32.1602 -0.501571 3.10069 0
M  V30 366 H 31.3532 1.01427 4.93689 0
M  V30 367 H 30.9552 1.68588 3.33847 0
M  V30 368 H 33.2472 1.90242 6.50242 0
M  V30 369 H 34.1902 3.39872 6.21203 0
M  V30 370 H 34.5982 1.90714 5.31308 0
M  V30 371 N 33.9963 -1.19345 1.0293 0
M  V30 372 C 34.9283 -2.22036 0.56857 0
M  V30 373 C 35.9413 -1.58865 -0.355779 0
M  V30 374 O 37.1303 -1.77851 -0.152103 0
M  V30 375 C 34.2303 -3.38363 -0.190752 0
M  V30 376 C 33.4033 -4.31118 0.738643 0
M  V30 377 C 32.4623 -5.26194 0.0246497 0
M  V30 378 O 31.4883 -5.65461 0.651354 0
M  V30 379 N 32.6903 -5.66971 -1.24594 0
M  V30 380 H 35.4553 -2.6219 1.45177 0
M  V30 381 H 33.0163 -1.34015 0.908381 0
M  V30 382 H 35.0083 -3.98981 -0.677961 0
M  V30 383 H 33.5783 -2.96994 -0.975366 0
M  V30 384 H 32.7983 -3.68276 1.40593 0
M  V30 385 H 34.0863 -4.90001 1.37029 0
M  V30 386 H 33.4843 -5.37104 -1.77583 0
M  V30 387 H 32.0413 -6.2984 -1.67764 0
M  V30 388 N 35.4744 -0.807222 -1.35358 0
M  V30 389 C 36.4224 -0.20614 -2.31685 0
M  V30 390 C 37.4164 0.644445 -1.56663 0
M  V30 391 O 38.6224 0.537538 -1.71786 0
M  V30 392 H 34.9974 -0.0479006 -0.750473 0
M  V30 393 H 36.9684 -1.03369 -2.79924 0
M  V30 394 C 35.7174 0.630212 -3.41941 0
M  V30 395 H 35.0404 -0.0149558 -3.99797 0
M  V30 396 H 36.4804 1.01716 -4.11619 0
M  V30 397 C 34.9394 1.79601 -2.85035 0
M  V30 398 O 35.4694 2.89351 -2.78637 0
M  V30 399 N 33.6754 1.60774 -2.42074 0
M  V30 400 H 33.2224 0.715009 -2.47478 0
M  V30 401 H 33.1804 2.38933 -2.04349 0
M  V30 402 N 36.9525 1.47285 -0.560781 0
M  V30 403 C 37.9155 2.28535 0.174488 0
M  V30 404 C 38.9155 1.37153 0.839388 0
M  V30 405 O 40.1055 1.59748 0.694702 0
M  V30 406 C 37.2375 3.16934 1.25561 0
M  V30 407 H 38.4305 2.95012 -0.539262 0
M  V30 408 H 35.9835 1.53034 -0.317865 0
M  V30 409 H 36.7185 2.55157 2.00164 0
M  V30 410 H 36.5035 3.8419 0.783604 0
M  V30 411 H 37.9935 3.78143 1.77193 0
M  V30 412 N 38.4306 0.297415 1.54768 0
M  V30 413 C 39.8466 -0.0560823 1.59501 0
M  V30 414 C 40.0466 -1.52725 1.31444 0
M  V30 415 O 39.1026 -2.27947 1.08611 0
M  V30 416 C 40.4156 0.338631 2.98787 0
M  V30 417 C 41.9636 0.287097 3.11681 0
M  V30 418 C 42.4386 0.656579 4.53269 0
M  V30 419 N 43.9296 0.608977 4.59179 0
M  V30 420 C 44.6646 0.867385 5.66802 0
M  V30 421 N 44.1606 1.19157 6.82476 0
M  V30 422 N 45.9536 0.794687 5.56454 0
M  V30 423 H 38.1046 1.25624 1.71267 0
M  V30 424 H 40.3676 0.509057 0.799728 0
M  V30 425 H 40.0736 1.36263 3.2423 0
M  V30 426 H 39.9476 -0.309508 3.75928 0
M  V30 427 H 42.3346 -0.727649 2.85988 0
M  V30 428 H 42.4156 0.969809 2.36703 0
M  V30 429 H 42.0596 1.66912 4.7969 0
M  V30 430 H 41.9896 -0.0481649 5.26578 0
M  V30 431 H 44.4806 0.369198 3.76092 0
M  V30 432 H 44.7936 1.37482 7.60473 0
M  V30 433 H 43.1386 1.22958 6.84037 0
M  V30 434 H 46.3296 0.541098 4.64962 0
M  V30 435 H 46.5026 0.999445 6.40246 0
M  V30 436 N 39.9087 -1.5758 0.0250728 0
M  V30 437 C 41.1567 -1.91255 -0.653151 0
M  V30 438 C 41.4777 -0.901691 -1.729 0
M  V30 439 O 40.7477 0.0573785 -1.95816 0
M  V30 440 H 39.3277 -0.705942 -0.244243 0
M  V30 441 H 41.9897 -1.94767 0.0719209 0
M  V30 442 H 41.0857 -2.91752 -1.10847 0
M  V30 443 N 41.3868 0.248026 -1.55636 0
M  V30 444 C 42.3498 1.29044 -1.89421 0
M  V30 445 C 43.3498 1.41134 -0.770581 0
M  V30 446 O 44.5398 1.39854 -1.03858 0
M  V30 447 C 41.6718 2.66831 -2.12165 0
M  V30 448 H 42.8648 1.00305 -2.82629 0
M  V30 449 H 40.4178 0.487265 -1.48511 0
M  V30 450 H 41.1528 3.00711 -1.21422 0
M  V30 451 H 40.9378 2.59438 -2.93997 0
M  V30 452 H 42.4278 3.42103 -2.3949 0
M  V30 453 N 42.8649 1.48995 0.513639 0
M  V30 454 C 44.2809 1.35478 0.843682 0
M  V30 455 C 44.4809 0.378213 1.97919 0
M  V30 456 O 43.5369 -0.194689 2.51748 0
M  V30 457 C 44.8499 2.75901 1.1958 0
M  V30 458 C 46.3979 2.84509 1.30474 0
M  V30 459 C 46.8729 4.25671 1.69021 0
M  V30 460 N 48.3639 4.28422 1.76094 0
M  V30 461 C 49.0989 5.34601 2.07338 0
M  V30 462 N 48.5949 6.5104 2.36894 0
M  V30 463 N 50.3879 5.22007 2.08483 0
M  V30 464 H 42.5389 2.11092 -0.235328 0
M  V30 465 H 44.8019 0.947039 -0.0426669 0
M  V30 466 H 44.5079 3.49001 0.434913 0
M  V30 467 H 44.3819 3.10467 2.1422 0
M  V30 468 H 46.7689 2.11655 2.05637 0
M  V30 469 H 46.8499 2.53542 0.339155 0
M  V30 470 H 46.4939 4.99048 0.944135 0
M  V30 471 H 46.4239 4.54094 2.66658 0
M  V30 472 H 48.9149 3.44441 1.55464 0
M  V30 473 H 49.2279 7.2779 2.59887 0
M  V30 474 H 47.5729 6.54287 2.34378 0
M  V30 475 H 50.7639 4.30051 1.84861 0
M  V30 476 H 50.9369 6.04854 2.325 0
M  V30 477 N 44.343 -0.763751 1.37857 0
M  V30 478 C 45.275 -1.88664 1.30148 0
M  V30 479 C 46.288 -1.61365 0.215685 0
M  V30 480 O 47.477 -1.72134 0.472459 0
M  V30 481 C 44.577 -3.24075 0.991396 0
M  V30 482 C 43.75 -3.78958 2.18426 0
M  V30 483 C 42.809 -4.92862 1.8432 0
M  V30 484 O 41.835 -5.08027 2.56704 0
M  V30 485 N 43.037 -5.75071 0.792081 0
M  V30 486 H 45.802 -1.95791 2.26905 0
M  V30 487 H 43.363 -0.943226 1.31586 0
M  V30 488 H 45.355 -3.97804 0.743935 0
M  V30 489 H 43.925 -3.12399 0.112122 0
M  V30 490 H 43.145 -2.96913 2.59299 0
M  V30 491 H 44.433 -4.12357 2.98058 0
M  V30 492 H 43.831 -5.65375 0.191595 0
M  V30 493 H 42.388 -6.48991 0.60449 0
M  V30 494 N 45.8211 -1.22559 -0.990812 0
M  V30 495 C 47.2371 -0.985996 -1.255 0
M  V30 496 C 47.4371 0.319173 -1.98956 0
M  V30 497 O 46.4931 1.04127 -2.3003 0
M  V30 498 C 47.8061 -2.18607 -2.06474 0
M  V30 499 C 49.3541 -2.22985 -2.19651 0
M  V30 500 C 49.8291 -3.4255 -3.04012 0
M  V30 501 N 51.3201 -3.42725 -3.11599 0
M  V30 502 C 52.0551 -4.31892 -3.7717 0
M  V30 503 N 51.5511 -5.31279 -4.44651 0
M  V30 504 N 53.3441 -4.19662 -3.73952 0
M  V30 505 H 45.4951 -2.06469 -0.49841 0
M  V30 506 H 47.7581 -0.904853 -0.282747 0
M  V30 507 H 47.4641 -3.13267 -1.59865 0
M  V30 508 H 47.3381 -2.18838 -3.07229 0
M  V30 509 H 49.7251 -1.28871 -2.65474 0
M  V30 510 H 49.8061 -2.26791 -1.18319 0
M  V30 511 H 49.4501 -4.36965 -2.58889 0
M  V30 512 H 49.3801 -3.35984 -4.0549 0
M  V30 513 H 51.8711 -2.70807 -2.63575 0
M  V30 514 H 52.1841 -5.95593 -4.92431 0
M  V30 515 H 50.5291 -5.3519 -4.43392 0
M  V30 516 H 53.7201 -3.41268 -3.20396 0
M  V30 517 H 53.8931 -4.89358 -4.24774 0
M  V30 518 N 47.2992 1.18797 -1.03562 0
M  V30 519 C 48.2622 2.20464 -0.626769 0
M  V30 520 C 49.2622 1.57721 0.313173 0
M  V30 521 O 50.4522 1.73917 0.0992615 0
M  V30 522 C 47.5842 3.40802 0.0818498 0
M  V30 523 H 48.7772 2.58149 -1.5264 0
M  V30 524 H 46.3302 1.32593 -0.827578 0
M  V30 525 H 47.0652 3.08642 0.995518 0
M  V30 526 H 46.8502 3.8758 -0.593652 0
M  V30 527 H 48.3402 4.16092 0.354584 0
M  V30 528 N 48.7773 0.814389 1.34928 0
M  V30 529 C 49.6873 0.231978 2.3345 0
M  V30 530 C 50.7033 -0.629139 1.62228 0
M  V30 531 O 51.8793 -0.539052 1.94052 0
M  V30 532 C 48.9443 -0.603482 3.41407 0
M  V30 533 C 48.0053 0.279037 4.28392 0
M  V30 534 C 47.2383 -0.516643 5.31193 0
M  V30 535 O 47.4613 -1.75068 5.4287 0
M  V30 536 O 46.3953 0.0965652 6.01823 0
M  V30 537 H 50.2213 1.04721 2.85074 0
M  V30 538 H 47.8063 0.576343 1.37836 0
M  V30 539 H 49.6883 -1.07908 4.0735 0
M  V30 540 H 48.3633 -1.39618 2.92042 0
M  V30 541 H 47.2703 0.801948 3.65403 0
M  V30 542 H 48.6033 1.03588 4.81176 0
M  V30 543 N 50.2554 -1.46986 0.568584 0
M  V30 544 C 51.2184 -2.28624 -0.162366 0
M  V30 545 C 52.2184 -1.37596 -0.832103 0
M  V30 546 O 53.4084 -1.60115 -0.68622 0
M  V30 547 C 50.5404 -3.17596 -1.23878 0
M  V30 548 H 51.7334 -2.94722 0.554899 0
M  V30 549 H 49.2864 -1.52863 0.325976 0
M  V30 550 H 50.0214 -2.56214 -1.98808 0
M  V30 551 H 49.8064 -3.846 -0.763219 0
M  V30 552 H 51.2964 -3.79078 -1.75185 0
M  V30 553 N 51.7335 -0.305618 -1.54608 0
M  V30 554 C 52.6965 0.555591 -2.22364 0
M  V30 555 C 53.6965 1.05768 -1.21119 0
M  V30 556 O 54.8865 0.952972 -1.45822 0
M  V30 557 C 52.0185 1.76974 -2.91364 0
M  V30 558 H 53.2115 -0.0364572 -2.99878 0
M  V30 559 H 50.7645 -0.0565007 -1.56198 0
M  V30 560 H 51.4995 2.40151 -2.17941 0
M  V30 561 H 51.2845 1.41732 -3.65588 0
M  V30 562 H 52.7745 2.38148 -3.43038 0
M  V30 563 N 53.2116 1.57565 -0.0334293 0
M  V30 564 C 54.4576 1.92262 0.645226 0
M  V30 565 C 54.7906 0.910543 1.71531 0
M  V30 566 O 54.0656 -0.066099 1.94388 0
M  V30 567 C 54.3486 3.37422 1.2577 0
M  V30 568 C 54.2016 4.49369 0.196891 0
M  V30 569 C 55.5206 3.82628 2.17449 0
M  V30 570 H 52.6396 0.699171 0.233085 0
M  V30 571 H 55.2816 1.89779 -0.0915694 0
M  V30 572 H 53.4316 3.39669 1.88566 0
M  V30 573 H 55.1036 4.59254 -0.433962 0
M  V30 574 H 53.3466 4.31168 -0.477137 0
M  V30 575 H 54.0176 5.47978 0.665124 0
M  V30 576 H 56.4936 3.82145 1.64634 0
M  V30 577 H 55.3696 4.84883 2.57254 0
M  V30 578 H 55.6306 3.18376 3.0674 0
M  V30 579 N 54.6897 -0.239769 1.55765 0
M  V30 580 C 55.6197 -1.30052 1.9393 0
M  V30 581 C 56.6007 -1.49839 0.805132 0
M  V30 582 O 57.7857 -1.62328 1.06599 0
M  V30 583 C 54.9157 -2.65391 2.2402 0
M  V30 584 C 53.8697 -2.60289 3.39755 0
M  V30 585 C 53.1957 -3.99489 3.55405 0
M  V30 586 C 54.4957 -2.16654 4.75246 0
M  V30 587 H 56.1897 -0.983573 2.82783 0
M  V30 588 H 53.7357 -0.471701 1.36055 0
M  V30 589 H 55.6887 -3.3974 2.49308 0
M  V30 590 H 54.4127 -2.98736 1.32 0
M  V30 591 H 53.0717 -1.88398 3.14487 0
M  V30 592 H 52.7197 -4.30112 2.60793 0
M  V30 593 H 52.4197 -3.96962 4.33238 0
M  V30 594 H 53.9437 -4.75528 3.83022 0
M  V30 595 H 55.3577 -2.80737 4.99859 0
M  V30 596 H 53.7547 -2.25223 5.56232 0
M  V30 597 H 54.8247 -1.11835 4.71827 0
M  V30 598 N 56.1678 -1.49265 -0.50573 0
M  V30 599 C 57.3928 -1.62478 -1.28902 0
M  V30 600 C 57.8178 -0.294332 -1.85783 0
M  V30 601 O 57.1758 0.737412 -1.65626 0
M  V30 602 C 57.2238 -2.69268 -2.39848 0
M  V30 603 O 56.3278 -2.28113 -3.43567 0
M  V30 604 H 55.6688 -0.54399 -0.380751 0
M  V30 605 H 58.1988 -1.95421 -0.605952 0
M  V30 606 H 58.2088 -2.91291 -2.85681 0
M  V30 607 H 56.8838 -3.65846 -1.97812 0
M  V30 608 H 55.4608 -2.16401 -3.03685 0
M  V30 609 N 57.6459 0.756429 -1.3826 0
M  V30 610 C 58.8939 1.51248 -1.34047 0
M  V30 611 C 59.2149 1.94875 0.0698372 0
M  V30 612 O 58.4849 1.67436 1.01696 0
M  V30 613 H 57.0649 0.561018 -0.493222 0
M  V30 614 H 59.7269 0.899347 -1.7291 0
M  V30 615 H 58.8229 2.40472 -1.98947 0
M  V30 616 N 59.124 1.23083 0.984299 0
M  V30 617 C 60.535 1.05609 1.5396 0
M  V30 618 C 60.886 -0.377793 1.92528 0
M  V30 619 O 60.011 -1.26398 1.75649 0
M  V30 620 C 60.606 1.91087 2.7977 0
M  V30 621 C 59.165 1.77885 3.31713 0
M  V30 622 C 58.312 1.87028 2.04733 0
M  V30 623 H 61.263 1.36802 0.804419 0
M  V30 624 H 61.284 1.43336 3.5247 0
M  V30 625 H 60.796 2.9544 2.51668 0
M  V30 626 H 58.897 0.762995 3.64704 0
M  V30 627 H 59.01 2.61047 4.01735 0
M  V30 628 H 57.374 1.30565 2.18689 0
M  V30 629 H 58.157 2.92929 1.79017 0
M  V30 630 N 60.6021 -1.18246 1.0419 0
M  V30 631 C 61.8501 -1.87886 0.744543 0
M  V30 632 C 62.1711 -1.8082 -0.730006 0
M  V30 633 O 61.4411 -1.22736 -1.52685 0
M  V30 634 H 60.0211 -0.695556 0.272417 0
M  V30 635 H 62.6831 -1.43494 1.31892 0
M  V30 636 H 61.7791 -2.9389 1.05049 0
M  V30 637 N 62.0802 -0.821533 -1.34494 0
M  V30 638 C 63.4912 -0.467956 -1.8074 0
M  V30 639 C 63.8422 1.01151 -1.68116 0
M  V30 640 O 62.9672 1.78707 -1.22036 0
M  V30 641 C 63.5622 -0.842627 -3.28154 0
M  V30 642 C 62.1212 -0.541439 -3.72485 0
M  V30 643 C 61.2682 -1.06028 -2.56229 0
M  V30 644 H 64.2192 -1.01183 -1.22261 0
M  V30 645 H 64.2402 -0.145876 -3.8022 0
M  V30 646 H 63.7522 -1.91945 -3.37311 0
M  V30 647 H 61.8532 0.526034 -3.68868 0
M  V30 648 H 61.9662 -1.08453 -4.66663 0
M  V30 649 H 60.3302 -0.481892 -2.501 0
M  V30 650 H 61.1132 -2.14352 -2.68157 0
M  V30 651 N 63.5583 1.46682 -0.576371 0
M  V30 652 C 64.9693 1.86112 -0.148091 0
M  V30 653 C 65.3203 1.48073 1.2872 0
M  V30 654 O 64.4453 0.892656 1.97131 0
M  V30 655 C 65.0403 3.37786 -0.261982 0
M  V30 656 C 63.5993 3.76235 0.111384 0
M  V30 657 C 62.7463 2.70713 -0.60083 0
M  V30 658 H 65.6973 1.37927 -0.78497 0
M  V30 659 H 65.7183 3.77007 0.514364 0
M  V30 660 H 65.2303 3.6544 -1.30671 0
M  V30 661 H 63.3313 3.54198 1.15649 0
M  V30 662 H 63.4443 4.78391 -0.26052 0
M  V30 663 H 61.8083 2.54666 -0.0417783 0
M  V30 664 H 62.5913 3.01208 -1.64708 0
M  V30 665 N 65.0364 0.313813 1.54444 0
M  V30 666 C 65.9664 -0.549454 2.26943 0
M  V30 667 C 66.9474 -1.12741 1.27372 0
M  V30 668 O 68.1324 -1.15436 1.56167 0
M  V30 669 C 65.2624 -1.71523 3.01989 0
M  V30 670 C 64.2164 -1.26703 4.08816 0
M  V30 671 C 63.5424 -2.51898 4.71647 0
M  V30 672 C 64.8424 -0.388962 5.2085 0
M  V30 673 H 66.5364 0.0552661 2.99349 0
M  V30 674 H 64.0824 0.0280207 1.43973 0
M  V30 675 H 66.0354 -2.32535 3.51433 0
M  V30 676 H 64.7594 -2.34639 2.27183 0
M  V30 677 H 63.4184 -0.679896 3.6024 0
M  V30 678 H 63.0664 -3.13356 3.93468 0
M  V30 679 H 62.7664 -2.22605 5.43802 0
M  V30 680 H 64.2904 -3.1369 5.23861 0
M  V30 681 H 65.7044 -0.905107 5.6611 0
M  V30 682 H 64.1014 -0.18924 5.99802 0
M  V30 683 H 65.1714 0.582699 4.81386 0
M  V30 684 N 66.5145 -1.57545 0.0417849 0
M  V30 685 C 67.7625 -1.91937 -0.632829 0
M  V30 686 C 68.0835 -0.919978 -1.71934 0
M  V30 687 O 67.3535 0.0366064 -1.95866 0
M  V30 688 H 65.9335 -0.708493 -0.236742 0
M  V30 689 H 68.5955 -1.9468 0.0925745 0
M  V30 690 H 67.6915 -2.92912 -1.07746 0
M  V30 691 N 67.9926 0.231505 -1.5589 0
M  V30 692 C 69.4086 0.580748 -1.48659 0
M  V30 693 C 69.6086 1.87617 -0.73498 0
M  V30 694 O 68.6646 2.51046 -0.270586 0
M  V30 695 C 69.9776 0.669202 -2.93159 0
M  V30 696 C 71.5256 0.760499 -3.03621 0
M  V30 697 C 72.0006 0.880383 -4.49459 0
M  V30 698 N 73.4916 0.944861 -4.53461 0
M  V30 699 C 74.2266 1.05716 -5.63571 0
M  V30 700 N 73.7226 1.13403 -6.83456 0
M  V30 701 N 75.5156 1.09152 -5.514 0
M  V30 702 H 67.6666 -0.618695 -2.03189 0
M  V30 703 H 69.9296 -0.215728 -0.923128 0
M  V30 704 H 69.6356 -0.212904 -3.51055 0
M  V30 705 H 69.5096 1.5361 -3.44505 0
M  V30 706 H 71.8966 1.63305 -2.45796 0
M  V30 707 H 71.9776 -0.131864 -2.5546 0
M  V30 708 H 71.6216 0.0123284 -5.07899 0
M  V30 709 H 71.5516 1.78802 -4.95316 0
M  V30 710 H 74.0426 0.896176 -3.6712 0
M  V30 711 H 74.3556 1.21921 -7.63122 0
M  V30 712 H 72.7006 1.10333 -6.86186 0
M  V30 713 H 75.8916 1.02805 -4.56671 0
M  V30 714 H 76.0646 1.17558 -6.37247 0
M  V30 715 N 69.4707 1.49531 0.497807 0
M  V30 716 C 70.4337 1.65916 1.58128 0
M  V30 717 C 71.4337 0.530825 1.51786 0
M  V30 718 O 72.6237 0.797342 1.54881 0
M  V30 719 C 69.7557 1.65951 2.9778 0
M  V30 720 H 70.9487 2.62556 1.44929 0
M  V30 721 H 68.5017 1.38611 0.722275 0
M  V30 722 H 69.2367 0.709065 3.16453 0
M  V30 723 H 69.0217 2.47897 3.03792 0
M  V30 724 H 70.5117 1.80673 3.76493 0
M  V30 725 N 70.9488 -0.749086 1.3866 0
M  V30 726 C 71.9118 -1.84457 1.36045 0
M  V30 727 C 72.9118 -1.58682 0.260122 0
M  V30 728 O 74.1018 -1.66343 0.517261 0
M  V30 729 C 71.2338 -3.22008 1.11911 0
M  V30 730 H 72.4268 -1.88182 2.33512 0
M  V30 731 H 69.9798 -0.951266 1.24019 0
M  V30 732 H 70.7148 -3.2395 0.150686 0
M  V30 733 H 70.4998 -3.42111 1.91579 0
M  V30 734 H 71.9898 -4.0208 1.12788 0
M  V30 735 N 72.4269 -1.23603 -0.977757 0
M  V30 736 C 73.3589 -0.977369 -2.07317 0
M  V30 737 C 74.3719 0.0495845 -1.62724 0
M  V30 738 O 75.5609 -0.186261 -1.77526 0
M  V30 739 C 72.6609 -0.451216 -3.35883 0
M  V30 740 C 71.8339 -1.53896 -4.09432 0
M  V30 741 C 70.8929 -1.01721 -5.16274 0
M  V30 742 O 69.9189 -1.70676 -5.43009 0
M  V30 743 N 71.1209 0.153594 -5.80297 0
M  V30 744 H 73.8859 -1.92047 -2.30082 0
M  V30 745 H 71.4469 -1.14497 -1.14465 0
M  V30 746 H 73.4389 -0.0871574 -4.04606 0
M  V30 747 H 72.0089 0.397368 -3.10064 0
M  V30 748 H 71.2289 -2.07566 -3.35127 0
M  V30 749 H 72.5169 -2.27037 -4.55337 0
M  V30 750 H 71.9149 0.730323 -5.60966 0
M  V30 751 H 70.4719 0.458892 -6.50183 0
M  V30 752 N 73.905 1.17692 -1.04816 0
M  V30 753 C 74.855 2.1952 -0.616042 0
M  V30 754 C 75.839 1.57147 0.345485 0
M  V30 755 O 77.031 1.76245 0.163325 0
M  V30 756 C 74.16 3.43298 0.0116917 0
M  V30 757 C 73.246 4.12777 -0.973435 0
M  V30 758 N 73.637 4.5814 -2.14339 0
M  V30 759 C 71.935 4.38747 -0.80108 0
M  V30 760 C 72.636 5.11713 -2.7663 0
M  V30 761 N 71.612 5.03686 -2.04453 0
M  V30 762 H 75.414 2.52293 -1.5075 0
M  V30 763 H 72.928 1.3398 -0.917776 0
M  V30 764 H 74.925 4.15519 0.339006 0
M  V30 765 H 73.585 3.12018 0.898593 0
M  V30 766 H 74.596 4.52349 -2.52191 0
M  V30 767 H 71.273 4.17485 0.0350934 0
M  V30 768 H 72.663 5.56962 -3.75823 0
M  V30 769 N 75.3831 0.828654 1.34056 0
M  V30 770 C 76.6311 0.41863 1.97717 0
M  V30 771 C 76.9521 -1.02314 1.66002 0
M  V30 772 O 76.2221 -1.71119 0.953683 0
M  V30 773 H 74.8021 0.151809 0.731412 0
M  V30 774 H 77.4641 1.05936 1.63596 0
M  V30 775 H 76.5601 0.542318 3.07352 0
M  V30 776 N 76.8612 -1.46375 0.584142 0
M  V30 777 C 78.1102 -2.01585 0.0679741 0
M  V30 778 C 78.4232 -1.46109 -1.30045 0
M  V30 779 O 79.6292 -1.93148 -1.90804 0
M  V30 780 C 78.0852 -3.5983 0.0709207 0
M  V30 781 C 77.6932 -4.24303 1.43775 0
M  V30 782 C 79.4372 -4.22693 -0.391228 0
M  V30 783 C 77.3442 -5.74631 1.39834 0
M  V30 784 H 76.2742 -0.753689 0.0216421 0
M  V30 785 H 78.9252 -1.68093 0.736001 0
M  V30 786 H 77.3072 -3.90405 -0.663299 0
M  V30 787 H 78.4812 -4.05335 2.19181 0
M  V30 788 H 76.7962 -3.73539 1.84004 0
M  V30 789 H 79.3932 -5.3289 -0.439524 0
M  V30 790 H 79.7362 -3.91728 -1.40906 0
M  V30 791 H 80.2692 -3.96749 0.288974 0
M  V30 792 H 77.0082 -6.10258 2.39303 0
M  V30 793 H 76.5282 -5.95858 0.686505 0
M  V30 794 H 78.2072 -6.37375 1.11187 0
M  V30 795 N 78.3393 -0.321999 -1.54275 0
M  V30 796 C 79.7503 0.166384 -1.85957 0
M  V30 797 C 80.1013 1.51747 -1.24367 0
M  V30 798 O 79.2263 2.09317 -0.549124 0
M  V30 799 C 79.8213 0.308681 -3.37391 0
M  V30 800 C 78.3803 0.741286 -3.69028 0
M  V30 801 C 77.5273 -0.137937 -2.76957 0
M  V30 802 H 80.4783 -0.542335 -1.49146 0
M  V30 803 H 80.4993 1.13984 -3.63026 0
M  V30 804 H 80.0113 -0.674809 -3.82188 0
M  V30 805 H 78.1123 1.73458 -3.29762 0
M  V30 806 H 78.2253 0.546118 -4.75977 0
M  V30 807 H 76.5893 0.386251 -2.51754 0
M  V30 808 H 77.3723 -1.11816 -3.2458 0
M  V30 809 N 79.8174 1.5752 -0.0501392 0
M  V30 810 C 81.2334 1.56631 0.306402 0
M  V30 811 C 81.4334 1.0577 1.71508 0
M  V30 812 O 80.4894 0.713837 2.422 0
M  V30 813 C 81.8024 3.00393 0.135811 0
M  V30 814 C 83.3504 3.12315 0.206993 0
M  V30 815 C 83.8254 4.57954 0.064944 0
M  V30 816 N 85.3164 4.63041 0.121254 0
M  V30 817 C 86.0514 5.73389 0.0354381 0
M  V30 818 N 85.5474 6.92724 -0.102666 0
M  V30 819 N 87.3404 5.62026 0.090946 0
M  V30 820 H 79.4914 1.88903 -0.971046 0
M  V30 821 H 81.7544 0.869876 -0.376855 0
M  V30 822 H 81.4604 3.41635 -0.835384 0
M  V30 823 H 81.3344 3.66373 0.897275 0
M  V30 824 H 83.7214 2.70973 1.16866 0
M  V30 825 H 83.8024 2.49016 -0.585208 0
M  V30 826 H 83.4464 4.99981 -0.893394 0
M  V30 827 H 83.3764 5.19258 0.876277 0
M  V30 828 H 85.8674 3.77216 0.227284 0
M  V30 829 H 86.1804 7.72633 -0.160882 0
M  V30 830 H 84.5254 6.94864 -0.137737 0
M  V30 831 H 87.7164 4.67684 0.197388 0
M  V30 832 H 87.8894 6.47997 0.0206089 0
M  V30 833 N 81.2955 -0.223234 1.56011 0
M  V30 834 C 82.7065 -0.790368 1.69145 0
M  V30 835 C 83.0575 -1.85055 0.651845 0
M  V30 836 O 82.1825 -2.15498 -0.197359 0
M  V30 837 C 82.7775 -1.4404 3.06656 0
M  V30 838 C 81.3365 -1.95494 3.2165 0
M  V30 839 C 80.4835 -0.814506 2.65068 0
M  V30 840 H 83.4345 0.00139011 1.587 0
M  V30 841 H 83.4555 -2.30916 3.0242 0
M  V30 842 H 82.9675 -0.668543 3.82298 0
M  V30 843 H 81.0685 -2.75487 2.50874 0
M  V30 844 H 81.1815 -2.13607 4.28846 0
M  V30 845 H 79.5455 -1.22137 2.23505 0
M  V30 846 H 80.3285 -0.0553515 3.43255 0
M  V30 847 N 82.7736 -1.49793 -0.48987 0
M  V30 848 C 83.7036 -1.70201 -1.59856 0
M  V30 849 C 84.6846 -0.55076 -1.60937 0
M  V30 850 O 85.8696 -0.787841 -1.77501 0
M  V30 851 C 82.9996 -1.77882 -2.98287 0
M  V30 852 C 81.9536 -2.92907 -3.12073 0
M  V30 853 C 81.2796 -2.85712 -4.51965 0
M  V30 854 C 82.5796 -4.3369 -2.91051 0
M  V30 855 H 84.2736 -2.63025 -1.43032 0
M  V30 856 H 81.8196 -1.26574 -0.686664 0
M  V30 857 H 83.7726 -1.90744 -3.75759 0
M  V30 858 H 82.4966 -0.816653 -3.16225 0
M  V30 859 H 81.1556 -2.79665 -2.37029 0
M  V30 860 H 80.8036 -1.8738 -4.66795 0
M  V30 861 H 80.5036 -3.62921 -4.62128 0
M  V30 862 H 82.0276 -3.00598 -5.31482 0
M  V30 863 H 83.4416 -4.47555 -3.58284 0
M  V30 864 H 81.8386 -5.12205 -3.12675 0
M  V30 865 H 82.9086 -4.47362 -1.87071 0
M  V30 866 N 84.2517 0.741722 -1.39055 0
M  V30 867 C 85.4767 1.53607 -1.39354 0
M  V30 868 C 85.9017 1.88096 0.0116905 0
M  V30 869 O 85.2597 1.5143 0.996924 0
M  V30 870 C 85.3077 2.80441 -2.26682 0
M  V30 871 O 84.4117 3.76088 -1.69208 0
M  V30 872 H 83.7527 0.464142 -0.474835 0
M  V30 873 H 86.2827 0.915665 -1.82967 0
M  V30 874 H 86.2927 3.29246 -2.40959 0
M  V30 875 H 84.9677 2.5467 -3.2881 0
M  V30 876 H 83.5447 3.34833 -1.64138 0
M  V30 877 N 85.7298 1.2412 0.971189 0
M  V30 878 C 86.9548 1.10667 1.75407 0
M  V30 879 C 87.3798 -0.337048 1.85056 0
M  V30 880 O 86.7378 -1.24396 1.31892 0
M  V30 881 C 86.7858 1.74726 3.15441 0
M  V30 882 O 85.8898 1.01566 3.99697 0
M  V30 883 H 85.2308 0.387341 0.539317 0
M  V30 884 H 87.7608 1.64358 1.2185 0
M  V30 885 H 87.7708 1.80341 3.6598 0
M  V30 886 H 86.4458 2.79773 3.07734 0
M  V30 887 H 85.0228 1.03713 3.58187 0
M  V30 888 N 87.2079 -1.17134 1.05439 0
M  V30 889 C 88.1709 -2.19439 0.661764 0
M  V30 890 C 89.1709 -1.58199 -0.288042 0
M  V30 891 O 90.3609 -1.74053 -0.0715803 0
M  V30 892 C 87.4929 -3.40889 -0.0276209 0
M  V30 893 H 88.6859 -2.55688 1.56728 0
M  V30 894 H 86.2389 -1.31259 0.848567 0
M  V30 895 H 86.9739 -3.10187 -0.94629 0
M  V30 896 H 86.7589 -3.86586 0.655238 0
M  V30 897 H 88.2489 -4.16603 -0.288342 0
M  V30 898 N 88.686 -0.835752 -1.33615 0
M  V30 899 C 89.934 -0.429109 -1.97492 0
M  V30 900 C 90.255 1.01433 -1.66543 0
M  V30 901 O 89.525 1.70611 -0.962744 0
M  V30 902 H 88.105 -0.155686 -0.730596 0
M  V30 903 H 90.767 -1.06802 -1.63031 0
M  V30 904 H 89.863 -0.55861 -3.0706 0
M  V30 905 N 90.1641 1.46063 -0.591896 0
M  V30 906 C 91.5801 1.57561 -0.254288 0
M  V30 907 C 91.7801 1.58565 1.24336 0
M  V30 908 O 90.8361 1.50753 2.02558 0
M  V30 909 C 92.1491 2.86549 -0.911611 0
M  V30 910 C 93.6971 3.00197 -0.886059 0
M  V30 911 C 94.1721 4.31933 -1.5231 0
M  V30 912 N 95.6631 4.38654 -1.48786 0
M  V30 913 C 96.3981 5.39222 -1.95006 0
M  V30 914 N 95.8941 6.46414 -2.49241 0
M  V30 915 N 97.6871 5.3048 -1.85868 0
M  V30 916 H 89.8381 1.43655 -1.56451 0
M  V30 917 H 92.1011 0.68583 -0.654478 0
M  V30 918 H 91.8071 2.91651 -1.96551 0
M  V30 919 H 91.6811 3.74794 -0.425368 0
M  V30 920 H 94.0681 2.9467 0.159246 0
M  V30 921 H 94.1491 2.13403 -1.41041 0
M  V30 922 H 93.7931 4.38217 -2.56765 0
M  V30 923 H 93.7231 5.17516 -0.973891 0
M  V30 924 H 96.2141 3.61793 -1.09151 0
M  V30 925 H 96.5271 7.19376 -2.82344 0
M  V30 926 H 94.8721 6.47208 -2.53272 0
M  V30 927 H 98.0631 4.45643 -1.43248 0
M  V30 928 H 98.2361 6.08711 -2.22204 0
M  V30 929 N 91.6422 0.330177 1.54103 0
M  V30 930 C 92.5722 -0.525353 2.27513 0
M  V30 931 C 93.5532 -1.11383 1.2856 0
M  V30 932 O 94.7382 -1.13773 1.57383 0
M  V30 933 C 91.8682 -1.6831 3.03791 0
M  V30 934 C 90.8222 -1.2236 4.10137 0
M  V30 935 C 90.1482 -2.46882 4.74293 0
M  V30 936 C 91.4482 -0.333697 5.21233 0
M  V30 937 H 93.1422 0.087013 2.99274 0
M  V30 938 H 90.6882 0.0432893 1.43935 0
M  V30 939 H 92.6412 -2.28795 3.5388 0
M  V30 940 H 91.3652 -2.32216 2.29659 0
M  V30 941 H 90.0242 -0.64165 3.60941 0
M  V30 942 H 89.6722 -3.09165 3.96769 0
M  V30 943 H 89.3722 -2.16825 5.46133 0
M  V30 944 H 90.8962 -3.08117 5.27159 0
M  V30 945 H 92.3102 -0.845013 5.67038 0
M  V30 946 H 90.7072 -0.125612 5.99969 0
M  V30 947 H 91.7772 0.633724 4.80741 0
M  V30 948 N 93.1203 -1.57491 0.0584922 0
M  V30 949 C 94.3453 -1.97711 -0.62652 0
M  V30 950 C 94.7703 -0.936132 -1.63151 0
M  V30 951 O 94.1283 0.099811 -1.81025 0
M  V30 952 C 94.1763 -3.36989 -1.28338 0
M  V30 953 O 93.2803 -3.35433 -2.39913 0
M  V30 954 H 92.6213 -0.643868 -0.162266 0
M  V30 955 H 95.1513 -2.04193 0.129064 0
M  V30 956 H 95.1613 -3.73879 -1.63335 0
M  V30 957 H 93.8363 -4.12289 -0.546889 0
M  V30 958 H 92.4133 -3.10298 -2.06809 0
M  V30 959 N 94.5984 0.214957 -1.56127 0
M  V30 960 C 95.5304 1.29004 -1.89448 0
M  V30 961 C 96.5434 1.42716 -0.783326 0
M  V30 962 O 97.7324 1.43496 -1.06166 0
M  V30 963 C 94.8324 2.66482 -2.09381 0
M  V30 964 C 94.0054 2.74633 -3.40434 0
M  V30 965 C 93.0644 3.9317 -3.49719 0
M  V30 966 O 92.0904 3.812 -4.227 0
M  V30 967 N 93.2924 5.07765 -2.81346 0
M  V30 968 H 96.0574 1.00743 -2.82261 0
M  V30 969 H 93.6184 0.40497 -1.56753 0
M  V30 970 H 95.6104 3.44173 -2.12901 0
M  V30 971 H 94.1804 2.87314 -1.23163 0
M  V30 972 H 93.4004 1.83368 -3.48955 0
M  V30 973 H 94.6884 2.77054 -4.26754 0
M  V30 974 H 94.0864 5.20386 -2.21843 0
M  V30 975 H 92.6434 5.83474 -2.90519 0
M  V30 976 N 96.0765 1.50051 0.48192 0
M  V30 977 C 97.3245 1.60181 1.23234 0
M  V30 978 C 97.6455 0.299176 1.92691 0
M  V30 979 O 96.9155 -0.682708 1.83619 0
M  V30 980 H 95.4955 0.590232 0.457859 0
M  V30 981 H 98.1575 1.86775 0.556881 0
M  V30 982 H 97.2535 2.40753 1.98607 0
M  V30 983 N 97.5546 -0.734337 1.39446 0
M  V30 984 C 98.7946 -1.50655 1.38139 0
M  V30 985 C 99.1586 -1.91986 -0.0228701 0
M  V30 986 O 100.36 -2.68318 -0.160947 0
M  V30 987 C 98.6306 -2.71251 2.32718 0
M  V30 988 S 100.19 -3.60892 2.49605 0
M  V30 989 H 97.0076 -0.515315 0.489869 0
M  V30 990 H 99.6096 -0.860392 1.75549 0
M  V30 991 H 98.3136 -2.39027 3.33608 0
M  V30 992 H 97.8446 -3.40795 1.96526 0
M  V30 993 H 99.8596 -4.64899 1.73446 0
M  V30 994 N 99.0327 -1.24633 -0.964593 0
M  V30 995 C 100.449 -1.01239 -1.2338 0
M  V30 996 C 100.649 0.2769 -1.99588 0
M  V30 997 O 99.7047 0.992241 -2.32187 0
M  V30 998 C 101.018 -2.22937 -2.01791 0
M  V30 999 C 102.566 -2.27594 -2.14872 0
M  V30 1000 C 103.041 -3.48921 -2.96678 0
M  V30 1001 N 104.532 -3.49257 -3.04259 0
M  V30 1002 C 105.267 -4.39795 -3.67924 0
M  V30 1003 N 104.763 -5.40591 -4.33281 0
M  V30 1004 N 106.556 -4.275 -3.64966 0
M  V30 1005 H 98.7067 -2.0748 -0.454502 0
M  V30 1006 H 100.97 -0.910647 -0.26349 0
M  V30 1007 H 100.676 -3.16587 -1.53184 0
M  V30 1008 H 100.55 -2.25306 -3.02518 0
M  V30 1009 H 102.937 -1.34473 -2.6268 0
M  V30 1010 H 103.018 -2.2925 -1.13482 0
M  V30 1011 H 102.662 -4.42359 -2.49562 0
M  V30 1012 H 102.592 -3.4451 -3.98272 0
M  V30 1013 H 105.083 -2.76337 -2.57771 0
M  V30 1014 H 105.396 -6.05904 -4.79687 0
M  V30 1015 H 103.741 -5.44475 -4.3194 0
M  V30 1016 H 106.932 -3.47987 -3.13086 0
M  V30 1017 H 107.105 -4.98258 -4.14298 0
M  V30 1018 N 100.511 1.16574 -1.06058 0
M  V30 1019 C 101.759 1.86677 -0.77434 0
M  V30 1020 C 102.08 1.81959 0.701147 0
M  V30 1021 O 101.35 1.2515 1.50713 0
M  V30 1022 H 99.9298 0.691134 -0.283449 0
M  V30 1023 H 102.592 1.41378 -1.34158 0
M  V30 1024 H 101.688 2.92181 -1.09711 0
M  V30 1025 N 101.989 0.842826 1.3317 0
M  V30 1026 C 102.952 0.284065 2.27433 0
M  V30 1027 C 103.952 -0.54948 1.5112 0
M  V30 1028 O 105.142 -0.362699 1.70382 0
M  V30 1029 C 102.274 -0.599384 3.35589 0
M  V30 1030 H 103.467 1.11589 2.78366 0
M  V30 1031 H 101.02 0.616221 1.4364 0
M  V30 1032 H 101.755 -1.45349 2.89904 0
M  V30 1033 H 101.54 -0.00291266 3.921 0
M  V30 1034 H 103.03 -0.983488 4.05854 0
M  V30 1035 N 103.467 -1.45747 0.599634 0
M  V30 1036 C 104.692 -2.07178 0.0960198 0
M  V30 1037 C 105.117 -1.44268 -1.207 0
M  V30 1038 O 104.475 -0.532503 -1.73303 0
M  V30 1039 C 104.523 -3.60579 -0.0385348 0
M  V30 1040 O 103.627 -3.97713 -1.0908 0
M  V30 1041 H 102.968 -0.660251 0.0704593 0
M  V30 1042 H 105.498 -1.87124 0.827385 0
M  V30 1043 H 105.508 -4.07298 -0.239304 0
M  V30 1044 H 104.183 -4.05756 0.912947 0
M  V30 1045 H 102.76 -3.62678 -0.867135 0
M  V30 1046 N 104.945 -0.338344 -1.53925 0
M  V30 1047 C 106.173 0.261298 -2.05243 0
M  V30 1048 C 106.588 1.44625 -1.21363 0
M  V30 1049 O 105.945 1.80811 -0.247736 0
M  V30 1050 C 105.996 0.681412 -3.5502 0
M  V30 1051 O 105.717 -0.456414 -4.35716 0
M  V30 1052 C 107.218 1.34232 -4.22489 0
M  V30 1053 H 104.438 0.0513685 -0.669031 0
M  V30 1054 H 106.982 -0.488822 -1.98572 0
M  V30 1055 H 105.137 1.38148 -3.61931 0
M  V30 1056 H 105.551 -0.122564 -5.24357 0
M  V30 1057 H 107.025 1.58708 -5.28693 0
M  V30 1058 H 107.502 2.29426 -3.74514 0
M  V30 1059 H 108.108 0.684424 -4.19757 0
M  V30 1060 N 106.423 1.57458 -0.0668435 0
M  V30 1061 C 107.669 1.93587 0.6043 0
M  V30 1062 C 108.002 0.946722 1.69561 0
M  V30 1063 O 107.277 -0.0248516 1.94484 0
M  V30 1064 C 107.56 3.40014 1.18585 0
M  V30 1065 C 107.413 4.49685 0.101529 0
M  V30 1066 C 108.732 3.87154 2.09284 0
M  V30 1067 H 105.851 0.703958 0.218202 0
M  V30 1068 H 108.493 1.89542 -0.131804 0
M  V30 1069 H 106.643 3.43592 1.81319 0
M  V30 1070 H 108.315 4.5823 -0.531279 0
M  V30 1071 H 106.558 4.30059 -0.568487 0
M  V30 1072 H 107.229 5.49266 0.54874 0
M  V30 1073 H 109.705 3.85551 1.56491 0
M  V30 1074 H 108.581 4.90231 2.46911 0
M  V30 1075 H 108.842 3.2481 2.99918 0
M  V30 1076 N 107.901 -0.206675 1.56239 0
M  V30 1077 C 109.149 -0.927007 1.79586 0
M  V30 1078 C 109.47 -1.8427 0.637929 0
M  V30 1079 O 108.74 -1.92849 -0.344398 0
M  V30 1080 H 107.32 -0.345292 0.662407 0
M  V30 1081 H 109.982 -0.21496 1.93711 0
M  V30 1082 H 109.078 -1.52501 2.72305 0
M  V30 1083 N 109.379 -1.50304 -0.473955 0
M  V30 1084 C 110.342 -1.6841 -1.55469 0
M  V30 1085 C 111.342 -0.554905 -1.50922 0
M  V30 1086 O 112.532 -0.821882 -1.53593 0
M  V30 1087 C 109.664 -1.70667 -2.95102 0
M  V30 1088 H 110.857 -2.64828 -1.40733 0
M  V30 1089 H 108.41 -1.39742 -0.700132 0
M  V30 1090 H 109.145 -0.75932 -3.15285 0
M  V30 1091 H 108.93 -2.52698 -2.9981 0
M  V30 1092 H 110.42 -1.8664 -3.73571 0
M  V30 1093 N 110.857 0.726932 -1.39834 0
M  V30 1094 C 111.82 1.82269 -1.38962 0
M  V30 1095 C 112.82 1.58248 -0.285334 0
M  V30 1096 O 114.01 1.65499 -0.54366 0
M  V30 1097 C 111.142 3.20186 -1.17019 0
M  V30 1098 H 112.335 1.84443 -2.36476 0
M  V30 1099 H 109.888 0.931416 -1.25516 0
M  V30 1100 H 110.623 3.23669 -0.202204 0
M  V30 1101 H 110.408 3.3902 -1.96998 0
M  V30 1102 H 111.898 4.00235 -1.1917 0
M  V30 1103 N 112.336 1.25143 0.95797 0
M  V30 1104 C 113.584 1.09476 1.69881 0
M  V30 1105 C 113.905 -0.365502 1.91544 0
M  V30 1106 O 113.175 -1.25985 1.50015 0
M  V30 1107 H 111.755 0.402128 0.629525 0
M  V30 1108 H 114.417 1.57214 1.15194 0
M  V30 1109 H 113.513 1.60046 2.6794 0
M  V30 1110 N 113.814 -1.1601 1.06675 0
M  V30 1111 C 115.06 -1.87145 0.796766 0
M  V30 1112 C 115.415 -1.8037 -0.669658 0
M  V30 1113 O 114.708 -1.21116 -1.48463 0
M  V30 1114 C 114.902 -3.35547 1.23057 0
M  V30 1115 C 114.731 -3.56769 2.73762 0
M  V30 1116 C 113.501 -3.72635 3.41279 0
M  V30 1117 C 115.699 -3.55166 3.7197 0
M  V30 1118 N 113.681 -3.81845 4.80695 0
M  V30 1119 C 115.052 -3.70406 4.97191 0
M  V30 1120 C 117.107 -3.384 3.65226 0
M  V30 1121 C 115.81 -3.70615 6.16471 0
M  V30 1122 C 117.836 -3.39904 4.83962 0
M  V30 1123 C 117.198 -3.55667 6.08013 0
M  V30 1124 H 113.297 -0.702267 0.344014 0
M  V30 1125 H 115.881 -1.39165 1.36166 0
M  V30 1126 H 114.052 -3.82159 0.693456 0
M  V30 1127 H 115.784 -3.94363 0.908844 0
M  V30 1128 H 112.539 -3.73121 2.91681 0
M  V30 1129 H 112.963 -3.90209 5.53232 0
M  V30 1130 H 117.605 -3.25138 2.70269 0
M  V30 1131 H 115.323 -3.82658 7.11757 0
M  V30 1132 H 118.909 -3.28169 4.80413 0
M  V30 1133 H 117.789 -3.56755 6.98352 0
M  V30 1134 N 115.292 -0.849877 -1.32721 0
M  V30 1135 C 116.239 -0.289033 -2.28983 0
M  V30 1136 C 117.209 0.601324 -1.54833 0
M  V30 1137 O 118.394 0.537253 -1.8308 0
M  V30 1138 C 115.534 0.520623 -3.4115 0
M  V30 1139 C 114.647 -0.394989 -4.3019 0
M  V30 1140 C 113.782 0.426834 -5.29482 0
M  V30 1141 C 112.821 -0.486476 -6.10164 0
M  V30 1142 N 111.958 0.297879 -7.01468 0
M  V30 1143 H 116.798 -1.11519 -2.76347 0
M  V30 1144 H 114.335 -0.56138 -1.35967 0
M  V30 1145 H 116.293 1.00563 -4.04899 0
M  V30 1146 H 114.923 1.31165 -2.9495 0
M  V30 1147 H 113.975 -0.99836 -3.67065 0
M  V30 1148 H 115.287 -1.09612 -4.86607 0
M  V30 1149 H 114.441 0.975205 -5.98811 0
M  V30 1150 H 113.18 1.16136 -4.73671 0
M  V30 1151 H 112.185 -1.04677 -5.39743 0
M  V30 1152 H 113.41 -1.21953 -6.6806 0
M  V30 1153 H 111.356 1.01558 -6.48091 0
M  V30 1154 H 111.273 -0.344318 -7.55216 0
M  V30 1155 H 112.541 0.828131 -7.75089 0
M  V30 1156 N 116.77 1.45427 -0.607355 0
M  V30 1157 C 118.018 2.01841 -0.102253 0
M  V30 1158 C 118.339 1.47832 1.27164 0
M  V30 1159 O 117.609 0.672497 1.83995 0
M  V30 1160 H 116.189 0.746188 -0.0348101 0
M  V30 1161 H 118.851 1.78229 -0.7887 0
M  V30 1162 H 117.947 3.12057 -0.0518585 0
M  V30 1163 N 118.248 0.346503 1.53744 0
M  V30 1164 C 119.158 -0.517293 2.28826 0
M  V30 1165 C 120.174 -1.10935 1.3405 0
M  V30 1166 O 121.35 -1.1244 1.6709 0
M  V30 1167 C 118.415 -1.65098 3.04866 0
M  V30 1168 C 117.476 -1.0884 4.15274 0
M  V30 1169 C 116.709 -2.16806 4.87679 0
M  V30 1170 O 116.932 -3.3758 4.59778 0
M  V30 1171 O 115.866 -1.80934 5.74061 0
M  V30 1172 H 119.692 0.0931396 3.03557 0
M  V30 1173 H 117.277 0.111458 1.48984 0
M  V30 1174 H 119.159 -2.31053 3.5241 0
M  V30 1175 H 117.834 -2.24717 2.32989 0
M  V30 1176 H 116.741 -0.3933 3.72027 0
M  V30 1177 H 118.074 -0.537036 4.89261 0
M  V30 1178 N 119.726 -1.57421 0.075193 0
M  V30 1179 C 120.656 -2.15942 -0.888324 0
M  V30 1180 C 121.637 -1.08737 -1.30806 0
M  V30 1181 O 122.822 -1.36787 -1.37851 0
M  V30 1182 C 119.952 -2.72379 -2.1547 0
M  V30 1183 C 118.906 -3.8478 -1.87425 0
M  V30 1184 C 118.232 -4.27834 -3.20721 0
M  V30 1185 C 119.532 -5.08869 -1.17684 0
M  V30 1186 H 121.226 -2.96705 -0.400799 0
M  V30 1187 H 118.772 -1.42723 -0.191342 0
M  V30 1188 H 120.725 -3.11965 -2.83295 0
M  V30 1189 H 119.449 -1.88841 -2.6647 0
M  V30 1190 H 118.108 -3.45703 -1.22004 0
M  V30 1191 H 117.756 -3.41214 -3.6957 0
M  V30 1192 H 117.456 -5.03605 -3.02746 0
M  V30 1193 H 118.98 -4.70039 -3.89738 0
M  V30 1194 H 120.394 -5.4575 -1.75584 0
M  V30 1195 H 118.791 -5.8994 -1.09956 0
M  V30 1196 H 119.861 -4.84648 -0.156453 0
M  V30 1197 N 121.204 0.198386 -1.56346 0
M  V30 1198 C 122.615 0.763358 -1.70381 0
M  V30 1199 C 122.966 1.83995 -0.681203 0
M  V30 1200 O 122.091 2.15785 0.16305 0
M  V30 1201 C 122.686 1.39143 -3.08909 0
M  V30 1202 C 121.245 1.90352 -3.2472 0
M  V30 1203 C 120.392 0.772233 -2.6633 0
M  V30 1204 H 123.343 -0.0266377 -1.58678 0
M  V30 1205 H 123.364 2.26076 -3.06055 0
M  V30 1206 H 122.876 0.607638 -3.83314 0
M  V30 1207 H 120.977 2.71461 -2.55225 0
M  V30 1208 H 121.09 2.06757 -4.3219 0
M  V30 1209 H 119.454 1.18566 -2.2542 0
M  V30 1210 H 120.237 0.00073556 -3.433 0
M  V30 1211 N 122.682 1.50554 0.465978 0
M  V30 1212 C 123.629 1.6979 1.56333 0
M  V30 1213 C 124.599 0.539239 1.57103 0
M  V30 1214 O 125.784 0.770401 1.74555 0
M  V30 1215 C 122.924 1.80273 2.94271 0
M  V30 1216 C 122.037 3.07674 3.0325 0
M  V30 1217 C 121.172 3.08922 4.32135 0
M  V30 1218 C 120.211 4.30755 4.34875 0
M  V30 1219 N 119.348 4.29714 5.55239 0
M  V30 1220 H 124.188 2.63472 1.39235 0
M  V30 1221 H 121.725 1.30602 0.676873 0
M  V30 1222 H 123.683 1.84332 3.74269 0
M  V30 1223 H 122.313 0.900258 3.09992 0
M  V30 1224 H 121.365 3.13062 2.16094 0
M  V30 1225 H 122.677 3.97642 3.01135 0
M  V30 1226 H 121.831 3.11738 5.20485 0
M  V30 1227 H 120.57 2.16792 4.36866 0
M  V30 1228 H 119.575 4.28146 3.44922 0
M  V30 1229 H 120.8 5.24117 4.31831 0
M  V30 1230 H 118.746 3.4044 5.60746 0
M  V30 1231 H 118.663 5.13456 5.54886 0
M  V30 1232 H 119.931 4.36683 6.457 0
M  V30 1233 N 124.16 -0.719506 1.40217 0
M  V30 1234 C 125.123 -1.8153 1.39927 0
M  V30 1235 C 126.123 -1.58095 0.293723 0
M  V30 1236 O 127.313 -1.65209 0.552429 0
M  V30 1237 C 124.445 -3.19561 1.18716 0
M  V30 1238 H 125.638 -1.83186 2.37451 0
M  V30 1239 H 123.191 -0.924746 1.26008 0
M  V30 1240 H 123.926 -3.23557 0.219366 0
M  V30 1241 H 123.711 -3.3797 1.98793 0
M  V30 1242 H 125.201 -3.99598 1.21291 0
M  V30 1243 N 125.638 -1.25649 -0.95132 0
M  V30 1244 C 126.886 -1.10375 -1.69298 0
M  V30 1245 C 127.207 0.355339 -1.91735 0
M  V30 1246 O 126.477 1.25188 -1.50681 0
M  V30 1247 H 125.057 -0.405461 -0.627384 0
M  V30 1248 H 127.719 -1.57823 -1.14358 0
M  V30 1249 H 126.815 -1.61465 -2.67087 0
M  V30 1250 N 127.117 1.15442 -1.07289 0
M  V30 1251 C 128.365 1.85845 -0.794096 0
M  V30 1252 C 128.686 1.82692 0.681809 0
M  V30 1253 O 127.956 1.26741 1.49377 0
M  V30 1254 H 126.536 0.688089 -0.290763 0
M  V30 1255 H 129.198 1.39947 -1.3565 0
M  V30 1256 H 128.294 2.91001 -1.12804 0
M  V30 1257 N 128.595 0.856903 1.32268 0
M  V30 1258 C 129.82 0.474569 2.01897 0
M  V30 1259 C 130.245 -0.921766 1.63967 0
M  V30 1260 O 129.603 -1.60589 0.84148 0
M  V30 1261 C 129.651 0.623799 3.55164 0
M  V30 1262 O 128.755 -0.342459 4.10976 0
M  V30 1263 H 128.096 0.190422 0.63611 0
M  V30 1264 H 130.626 1.15672 1.68764 0
M  V30 1265 H 130.636 0.512169 4.04773 0
M  V30 1266 H 129.311 1.64202 3.82113 0
M  V30 1267 H 127.888 -0.18688 3.72431 0
M  V30 1268 N 130.073 -1.45103 0.615059 0
M  V30 1269 C 131.484 -1.85654 0.197383 0
M  V30 1270 C 131.835 -1.51433 -1.24749 0
M  V30 1271 O 130.96 -0.944608 -1.94695 0
M  V30 1272 C 131.555 -3.36972 0.351448 0
M  V30 1273 C 130.114 -3.76398 -0.011593 0
M  V30 1274 C 129.261 -2.69024 0.672394 0
M  V30 1275 H 132.212 -1.35797 0.821263 0
M  V30 1276 H 132.233 -3.78239 -0.414227 0
M  V30 1277 H 131.745 -3.61847 1.40314 0
M  V30 1278 H 129.846 -3.5714 -1.06217 0
M  V30 1279 H 129.959 -4.77532 0.387265 0
M  V30 1280 H 128.323 -2.54465 0.109284 0
M  V30 1281 H 129.106 -2.96735 1.72636 0
M  V30 1282 N 131.551 -0.354651 -1.53558 0
M  V30 1283 C 132.514 0.484566 -2.24019 0
M  V30 1284 C 133.514 1.01861 -1.24422 0
M  V30 1285 O 134.704 0.906097 -1.4878 0
M  V30 1286 C 131.836 1.67615 -2.96847 0
M  V30 1287 H 133.029 -0.131843 -2.9961 0
M  V30 1288 H 130.582 -0.106165 -1.55939 0
M  V30 1289 H 131.317 2.33095 -2.25471 0
M  V30 1290 H 131.102 1.30029 -3.69912 0
M  V30 1291 H 132.592 2.27114 -3.50441 0
M  V30 1292 N 133.029 1.57378 -0.0835403 0
M  V30 1293 C 134.44 1.81261 0.447358 0
M  V30 1294 C 134.791 0.998331 1.68902 0
M  V30 1295 O 133.916 0.224282 2.15235 0
M  V30 1296 C 134.511 3.28767 0.818386 0
M  V30 1297 C 133.07 3.53455 1.29409 0
M  V30 1298 C 132.217 2.75831 0.285024 0
M  V30 1299 H 135.168 1.5566 -0.309115 0
M  V30 1300 H 135.189 3.41459 1.67887 0
M  V30 1301 H 134.701 3.88006 -0.0855019 0
M  V30 1302 H 132.802 2.99534 2.21608 0
M  V30 1303 H 132.915 4.62128 1.2639 0
M  V30 1304 H 131.279 2.42947 0.764767 0
M  V30 1305 H 132.062 3.37813 -0.611341 0
M  V30 1306 N 134.507 -0.190092 1.56449 0
M  V30 1307 C 135.755 -0.907908 1.80559 0
M  V30 1308 C 136.076 -1.83583 0.657438 0
M  V30 1309 O 135.346 -1.93203 -0.323924 0
M  V30 1310 H 133.926 -0.338247 0.666032 0
M  V30 1311 H 136.588 -0.194403 1.93928 0
M  V30 1312 H 135.684 -1.49604 2.73907 0
M  V30 1313 N 135.985 -1.50799 -0.457987 0
M  V30 1314 C 137.396 -1.55152 -1.0385 0
M  V30 1315 C 137.747 -0.362719 -1.92818 0
M  V30 1316 O 136.872 0.522915 -2.09987 0
M  V30 1317 C 137.467 -2.81173 -1.89017 0
M  V30 1318 C 136.026 -2.88164 -2.42154 0
M  V30 1319 C 135.173 -2.49591 -1.20829 0
M  V30 1320 H 138.124 -1.56874 -0.240068 0
M  V30 1321 H 138.145 -2.63769 -2.74238 0
M  V30 1322 H 137.657 -3.67677 -1.24238 0
M  V30 1323 H 135.758 -2.06042 -3.10447 0
M  V30 1324 H 135.871 -3.91356 -2.76364 0
M  V30 1325 H 134.235 -2.02322 -1.54719 0
M  V30 1326 H 135.018 -3.38418 -0.576927 0
M  V30 1327 N 137.463 0.71206 -1.40597 0
M  V30 1328 C 138.373 1.8562 -1.43466 0
M  V30 1329 C 139.389 1.70902 -0.326902 0
M  V30 1330 O 140.565 1.93105 -0.572043 0
M  V30 1331 C 137.63 3.21451 -1.29884 0
M  V30 1332 C 136.691 3.48398 -2.50833 0
M  V30 1333 C 135.924 4.77749 -2.3789 0
M  V30 1334 O 136.147 5.53089 -1.39459 0
M  V30 1335 O 135.081 5.05111 -3.27333 0
M  V30 1336 H 138.907 1.86155 -2.39958 0
M  V30 1337 H 136.492 0.86295 -1.21957 0
M  V30 1338 H 138.374 4.02579 -1.24531 0
M  V30 1339 H 137.049 3.21636 -0.364997 0
M  V30 1340 H 135.956 2.67265 -2.61763 0
M  V30 1341 H 137.289 3.53014 -3.4299 0
M  V30 1342 N 138.941 1.26152 0.944643 0
M  V30 1343 C 140.169 1.14259 1.72489 0
M  V30 1344 C 140.584 -0.302555 1.8636 0
M  V30 1345 O 139.941 -1.20741 1.36849 0
M  V30 1346 C 139.992 1.80266 3.13347 0
M  V30 1347 O 139.713 3.19133 3.00143 0
M  V30 1348 C 141.214 1.74283 4.07603 0
M  V30 1349 H 138.434 0.398051 0.540181 0
M  V30 1350 H 140.978 1.66706 1.18446 0
M  V30 1351 H 139.133 1.31766 3.64303 0
M  V30 1352 H 139.547 3.51744 3.89071 0
M  V30 1353 H 141.021 2.25111 5.04013 0
M  V30 1354 H 141.498 0.708631 4.33446 0
M  V30 1355 H 142.104 2.22319 3.62567 0
M  V30 1356 N 140.419 -1.14872 1.07899 0
M  V30 1357 C 141.83 -1.67367 0.827363 0
M  V30 1358 C 142.181 -1.85236 -0.646693 0
M  V30 1359 O 141.306 -1.55974 -1.50004 0
M  V30 1360 C 141.901 -3.04016 1.49532 0
M  V30 1361 C 140.46 -3.53566 1.29106 0
M  V30 1362 C 139.607 -2.29161 1.56143 0
M  V30 1363 H 142.558 -0.990083 1.24028 0
M  V30 1364 H 142.579 -3.69219 0.919643 0
M  V30 1365 H 142.091 -2.90978 2.56814 0
M  V30 1366 H 140.192 -3.71835 0.238713 0
M  V30 1367 H 140.305 -4.34661 2.01511 0
M  V30 1368 H 138.669 -2.34978 0.982717 0
M  V30 1369 H 139.452 -2.18705 2.64619 0
M  V30 1370 N 141.898 -0.863906 -1.31812 0
M  V30 1371 C 142.861 -0.320212 -2.26952 0
M  V30 1372 C 143.861 0.525369 -1.51975 0
M  V30 1373 O 145.051 0.335547 -1.70938 0
M  V30 1374 C 142.183 0.545919 -3.365 0
M  V30 1375 H 143.376 -1.16004 -2.76556 0
M  V30 1376 H 140.929 -0.638995 -1.42641 0
M  V30 1377 H 141.664 1.40718 -2.92179 0
M  V30 1378 H 141.449 -0.0594674 -3.92055 0
M  V30 1379 H 142.939 0.918796 -4.07367 0
M  V30 1380 N 143.376 1.44774 -0.622745 0
M  V30 1381 C 144.625 2.01334 -0.121397 0
M  V30 1382 C 144.938 1.49505 1.26125 0
M  V30 1383 O 146.144 1.98139 1.85616 0
M  V30 1384 C 144.6 3.59516 -0.166298 0
M  V30 1385 C 144.208 4.20342 -1.54974 0
M  V30 1386 C 145.952 4.23582 0.279021 0
M  V30 1387 C 143.859 5.70721 -1.55021 0
M  V30 1388 H 142.789 0.752851 -0.0416172 0
M  V30 1389 H 145.44 1.66083 -0.780309 0
M  V30 1390 H 143.822 3.92027 0.559557 0
M  V30 1391 H 144.996 3.99381 -2.29851 0
M  V30 1392 H 143.311 3.68529 -1.93843 0
M  V30 1393 H 145.908 5.33868 0.298083 0
M  V30 1394 H 146.251 3.95327 1.30471 0
M  V30 1395 H 146.784 3.95843 -0.394063 0
M  V30 1396 H 143.523 6.03698 -2.55399 0
M  V30 1397 H 143.043 5.93829 -0.844245 0
M  V30 1398 H 144.722 6.34203 -1.28047 0
M  V30 1399 N 144.854 0.36279 1.53368 0
M  V30 1400 C 146.079 -0.231226 2.06107 0
M  V30 1401 C 146.504 -1.419 1.23474 0
M  V30 1402 O 145.862 -1.79524 0.253128 0
M  V30 1403 C 145.91 -0.605523 3.5548 0
M  V30 1404 O 145.014 -1.70312 3.7559 0
M  V30 1405 H 144.355 -0.034327 0.663112 0
M  V30 1406 H 146.885 0.522584 1.97814 0
M  V30 1407 H 146.895 -0.877314 3.98456 0
M  V30 1408 H 145.57 0.263004 4.15068 0
M  V30 1409 H 144.147 -1.4271 3.44512 0
M  V30 1410 N 146.332 -1.57332 0.0918853 0
M  V30 1411 C 147.743 -1.81496 -0.437739 0
M  V30 1412 C 148.094 -1.00727 -1.6837 0
M  V30 1413 O 147.219 -0.235694 -2.15113 0
M  V30 1414 C 147.814 -3.29197 -0.800939 0
M  V30 1415 C 146.373 -3.54136 -1.27532 0
M  V30 1416 C 145.52 -2.75979 -0.270392 0
M  V30 1417 H 148.471 -1.55494 0.317366 0
M  V30 1418 H 148.492 -3.42344 -1.66074 0
M  V30 1419 H 148.004 -3.87955 0.106078 0
M  V30 1420 H 146.105 -3.00705 -2.20016 0
M  V30 1421 H 146.218 -4.62792 -1.23938 0
M  V30 1422 H 144.582 -2.43349 -0.751872 0
M  V30 1423 H 145.365 -3.37484 0.629248 0
M  V30 1424 N 147.81 0.181792 -1.56548 0
M  V30 1425 C 149.035 0.920019 -1.85877 0
M  V30 1426 C 149.46 1.75494 -0.677021 0
M  V30 1427 O 148.818 1.77399 0.374056 0
M  V30 1428 C 148.866 1.78112 -3.13542 0
M  V30 1429 O 147.97 2.88152 -2.95029 0
M  V30 1430 H 147.311 0.258334 -0.611686 0
M  V30 1431 H 149.841 0.183092 -2.03779 0
M  V30 1432 H 149.851 2.18314 -3.44678 0
M  V30 1433 H 148.526 1.16777 -3.99169 0
M  V30 1434 H 147.103 2.51609 -2.75222 0
M  V30 1435 N 149.288 1.51039 0.449983 0
M  V30 1436 C 150.235 1.71439 1.54523 0
M  V30 1437 C 151.205 0.555871 1.56522 0
M  V30 1438 O 152.39 0.788871 1.73728 0
M  V30 1439 C 149.53 1.83384 2.92343 0
M  V30 1440 C 148.643 3.10873 2.9997 0
M  V30 1441 C 147.778 3.13488 4.28834 0
M  V30 1442 C 146.817 4.35343 4.30282 0
M  V30 1443 N 145.954 4.35579 5.5065 0
M  V30 1444 H 150.794 2.64934 1.36433 0
M  V30 1445 H 148.331 1.31312 0.662982 0
M  V30 1446 H 150.289 1.88291 3.72293 0
M  V30 1447 H 148.919 0.933086 3.0902 0
M  V30 1448 H 147.971 3.15336 2.12761 0
M  V30 1449 H 149.283 4.00814 2.96901 0
M  V30 1450 H 148.437 3.17241 5.17149 0
M  V30 1451 H 147.176 2.21414 4.34543 0
M  V30 1452 H 146.181 4.3178 3.40362 0
M  V30 1453 H 147.406 5.28668 4.26248 0
M  V30 1454 H 145.352 3.46369 5.57104 0
M  V30 1455 H 145.269 5.19313 5.49409 0
M  V30 1456 H 146.537 4.43507 6.41032 0
M  V30 1457 N 150.766 -0.704594 1.40972 0
M  V30 1458 C 152.182 -1.01406 1.23244 0
M  V30 1459 C 152.382 -2.01169 0.115399 0
M  V30 1460 O 151.438 -2.47021 -0.523147 0
M  V30 1461 C 152.751 -1.54728 2.57836 0
M  V30 1462 C 154.299 -1.66658 2.64942 0
M  V30 1463 C 154.774 -2.23383 3.9983 0
M  V30 1464 N 156.265 -2.30756 4.01629 0
M  V30 1465 C 157 -2.75655 5.02794 0
M  V30 1466 N 156.496 -3.20225 6.14352 0
M  V30 1467 N 158.289 -2.75138 4.90159 0
M  V30 1468 H 150.44 -0.0435285 2.12355 0
M  V30 1469 H 152.703 -0.0818951 0.944456 0
M  V30 1470 H 152.409 -0.888832 3.40283 0
M  V30 1471 H 152.283 -2.53084 2.79693 0
M  V30 1472 H 154.67 -2.31617 1.8286 0
M  V30 1473 H 154.751 -0.668717 2.46904 0
M  V30 1474 H 154.395 -1.59043 4.82357 0
M  V30 1475 H 154.325 -3.23904 4.15203 0
M  V30 1476 H 156.816 -1.99291 3.21079 0
M  V30 1477 H 157.129 -3.53084 6.87424 0
M  V30 1478 H 155.474 -3.18156 6.17901 0
M  V30 1479 H 158.665 -2.39661 4.02095 0
M  V30 1480 H 158.838 -3.09812 5.6914 0
M  V30 1481 N 152.244 -1.26651 -0.937939 0
M  V30 1482 C 153.207 -1.08546 -2.01867 0
M  V30 1483 C 154.207 -0.0327327 -1.60767 0
M  V30 1484 O 155.397 -0.276427 -1.71993 0
M  V30 1485 C 152.529 -0.651711 -3.34613 0
M  V30 1486 H 153.722 -2.04502 -2.1936 0
M  V30 1487 H 151.275 -1.09294 -1.11734 0
M  V30 1488 H 152.01 0.309696 -3.22818 0
M  V30 1489 H 151.795 -1.41189 -3.65798 0
M  V30 1490 H 153.285 -0.546973 -4.14002 0
M  V30 1491 N 153.722 1.14298 -1.08507 0
M  V30 1492 C 155.138 1.37347 -0.812901 0
M  V30 1493 C 155.338 1.93052 0.577325 0
M  V30 1494 O 154.394 2.14389 1.33393 0
M  V30 1495 C 155.707 2.33359 -1.89642 0
M  V30 1496 C 157.255 2.46996 -1.92255 0
M  V30 1497 C 157.73 3.46309 -2.99724 0
M  V30 1498 N 159.221 3.53853 -2.98902 0
M  V30 1499 C 159.956 4.3055 -3.787 0
M  V30 1500 N 159.452 5.10482 -4.6838 0
M  V30 1501 N 161.245 4.25757 -3.66998 0
M  V30 1502 H 153.396 0.764867 -1.9815 0
M  V30 1503 H 155.659 0.398966 -0.859959 0
M  V30 1504 H 155.365 1.99565 -2.89597 0
M  V30 1505 H 155.239 3.33274 -1.76659 0
M  V30 1506 H 157.626 2.80081 -0.929445 0
M  V30 1507 H 157.707 1.47039 -2.09316 0
M  V30 1508 H 157.351 3.13957 -3.99241 0
M  V30 1509 H 157.281 4.46049 -2.79907 0
M  V30 1510 H 159.772 2.96812 -2.33904 0
M  V30 1511 H 160.085 5.66284 -5.25873 0
M  V30 1512 H 158.43 5.09747 -4.72422 0
M  V30 1513 H 161.621 3.62383 -2.96304 0
M  V30 1514 H 161.794 4.85279 -4.29427 0
M  V30 1515 N 155.201 0.870884 1.31352 0
M  V30 1516 C 156.612 0.534714 1.78879 0
M  V30 1517 C 156.963 -0.948423 1.71754 0
M  V30 1518 O 156.088 -1.74055 1.28584 0
M  V30 1519 C 156.683 0.963839 3.24801 0
M  V30 1520 C 155.242 0.679311 3.70219 0
M  V30 1521 C 154.389 1.15465 2.52117 0
M  V30 1522 H 157.34 1.05651 1.18421 0
M  V30 1523 H 157.361 0.286892 3.79417 0
M  V30 1524 H 156.873 2.04332 3.29955 0
M  V30 1525 H 154.974 -0.388769 3.70566 0
M  V30 1526 H 155.087 1.25698 4.62317 0
M  V30 1527 H 153.451 0.574383 2.48139 0
M  V30 1528 H 154.234 2.24157 2.60016 0
M  V30 1529 N 156.679 -1.44442 0.630414 0
M  V30 1530 C 157.642 -2.29107 -0.0652523 0
M  V30 1531 C 158.642 -1.41002 -0.772995 0
M  V30 1532 O 159.832 -1.62881 -0.617692 0
M  V30 1533 C 156.964 -3.22564 -1.10296 0
M  V30 1534 H 158.157 -2.92103 0.679401 0
M  V30 1535 H 155.71 -1.51343 0.390517 0
M  V30 1536 H 156.445 -2.64416 -1.87762 0
M  V30 1537 H 156.23 -3.87491 -0.59941 0
M  V30 1538 H 157.72 -3.86167 -1.5895 0
M  V30 1539 N 158.157 -0.370918 -1.53173 0
M  V30 1540 C 159.067 0.480823 -2.2962 0
M  V30 1541 C 160.083 1.08789 -1.35798 0
M  V30 1542 O 161.259 1.09768 -1.68858 0
M  V30 1543 C 158.324 1.60227 -3.07454 0
M  V30 1544 C 157.385 1.0222 -4.16953 0
M  V30 1545 C 156.618 2.0902 -4.91066 0
M  V30 1546 O 156.841 3.30222 -4.65091 0
M  V30 1547 O 155.775 1.71778 -5.76867 0
M  V30 1548 H 159.601 -0.141421 -3.03371 0
M  V30 1549 H 157.186 -0.135146 -1.48787 0
M  V30 1550 H 159.068 2.25417 -3.56041 0
M  V30 1551 H 157.743 2.20982 -2.36535 0
M  V30 1552 H 156.65 0.334064 -3.72605 0
M  V30 1553 H 157.983 0.459131 -4.90054 0
M  V30 1554 N 159.635 1.57281 -0.100228 0
M  V30 1555 C 160.881 1.94826 0.563101 0
M  V30 1556 C 161.214 0.982475 1.67514 0
M  V30 1557 O 160.489 0.0164069 1.94493 0
M  V30 1558 C 160.772 3.42453 1.11346 0
M  V30 1559 C 160.625 4.498 0.00612081 0
M  V30 1560 C 161.944 3.91506 2.01024 0
M  V30 1561 H 159.063 0.708428 0.203221 0
M  V30 1562 H 161.705 1.8922 -0.171979 0
M  V30 1563 H 159.855 3.47361 1.7399 0
M  V30 1564 H 161.527 4.57 -0.628357 0
M  V30 1565 H 159.77 4.28756 -0.659581 0
M  V30 1566 H 160.441 5.50306 0.432109 0
M  V30 1567 H 162.917 3.88784 1.48278 0
M  V30 1568 H 161.793 4.95358 2.36457 0
M  V30 1569 H 162.054 3.31099 2.92961 0
M  V30 1570 N 161.113 -0.173488 1.56642 0
M  V30 1571 C 162.361 -0.888706 1.81512 0
M  V30 1572 C 162.682 -1.82875 0.676872 0
M  V30 1573 O 161.952 -1.93536 -0.303414 0
M  V30 1574 H 160.532 -0.331164 0.669582 0
M  V30 1575 H 163.194 -0.173823 1.94123 0
M  V30 1576 H 162.29 -1.46691 2.75478 0
M  V30 1577 N 162.591 -1.51276 -0.441967 0
M  V30 1578 C 163.839 -1.63392 -1.18943 0
M  V30 1579 C 164.16 -0.350159 -1.9183 0
M  V30 1580 O 163.43 0.633784 -1.85364 0
M  V30 1581 H 162.01 -0.602164 -0.442049 0
M  V30 1582 H 164.672 -1.88186 -0.507165 0
M  V30 1583 H 163.768 -2.45934 -1.92154 0
M  V30 1584 N 164.069 0.697108 -1.41344 0
M  V30 1585 C 165.002 1.82134 -1.37486 0
M  V30 1586 C 165.98 1.60784 -0.242351 0
M  V30 1587 O 167.164 1.83553 -0.429012 0
M  V30 1588 C 164.291 3.18788 -1.14421 0
M  V30 1589 C 163.337 3.58932 -2.3037 0
M  V30 1590 S 164.17 3.63916 -3.92843 0
M  V30 1591 C 165.326 5.03298 -3.72078 0
M  V30 1592 H 165.559 1.85129 -2.32625 0
M  V30 1593 H 163.092 0.865671 -1.2785 0
M  V30 1594 H 165.05 3.97677 -1.018 0
M  V30 1595 H 163.711 3.13404 -0.20905 0
M  V30 1596 H 162.904 4.58202 -2.09922 0
M  V30 1597 H 162.506 2.87347 -2.39391 0
M  V30 1598 H 164.798 5.90753 -3.31688 0
M  V30 1599 H 165.741 5.28788 -4.70945 0
M  V30 1600 H 166.149 4.74764 -3.05384 0
M  V30 1601 N 165.547 1.27147 0.931209 0
M  V30 1602 C 166.479 1.05364 2.03546 0
M  V30 1603 C 167.492 0.0108438 1.62796 0
M  V30 1604 O 168.681 0.25202 1.76712 0
M  V30 1605 C 165.781 0.575566 3.33977 0
M  V30 1606 C 164.954 1.68985 4.03439 0
M  V30 1607 C 164.013 1.20813 5.12143 0
M  V30 1608 O 163.039 1.90712 5.363 0
M  V30 1609 N 164.241 0.0618851 5.80467 0
M  V30 1610 H 167.006 2.00454 2.22796 0
M  V30 1611 H 164.567 1.18666 1.10136 0
M  V30 1612 H 166.559 0.237264 4.04004 0
M  V30 1613 H 165.129 -0.282016 3.11325 0
M  V30 1614 H 164.349 2.19861 3.27192 0
M  V30 1615 H 165.637 2.4378 4.46597 0
M  V30 1616 H 165.035 -0.521621 5.6329 0
M  V30 1617 H 163.592 -0.217264 6.51438 0
M  V30 1618 N 167.025 -1.13721 1.09112 0
M  V30 1619 C 167.955 -2.21148 0.749385 0
M  V30 1620 C 168.936 -1.6792 -0.271475 0
M  V30 1621 O 170.121 -1.93693 -0.140251 0
M  V30 1622 C 167.251 -3.46905 0.165659 0
M  V30 1623 C 166.205 -4.13203 1.11567 0
M  V30 1624 C 165.531 -5.33248 0.393809 0
M  V30 1625 C 166.831 -4.60912 2.45678 0
M  V30 1626 H 168.525 -2.4999 1.64758 0
M  V30 1627 H 166.071 -1.20156 0.793626 0
M  V30 1628 H 168.024 -4.21313 -0.085466 0
M  V30 1629 H 166.748 -3.17449 -0.767714 0
M  V30 1630 H 165.407 -3.40758 1.35202 0
M  V30 1631 H 165.055 -5.00054 -0.543599 0
M  V30 1632 H 164.755 -5.78552 1.02721 0
M  V30 1633 H 166.279 -6.10413 0.150908 0
M  V30 1634 H 167.693 -5.26759 2.26269 0
M  V30 1635 H 166.09 -5.16944 3.04776 0
M  V30 1636 H 167.16 -3.75603 3.06677 0
M  V30 1637 N 168.503 -0.877838 -1.30888 0
M  V30 1638 C 169.919 -0.570844 -1.49042 0
M  V30 1639 C 170.119 0.893159 -1.80624 0
M  V30 1640 O 169.175 1.67485 -1.88958 0
M  V30 1641 C 170.488 -1.47784 -2.61878 0
M  V30 1642 C 172.036 -1.48071 -2.75761 0
M  V30 1643 C 172.511 -2.37347 -3.91702 0
M  V30 1644 N 174.002 -2.35271 -3.99001 0
M  V30 1645 C 174.737 -3.01063 -4.88004 0
M  V30 1646 N 174.233 -3.76055 -5.81854 0
M  V30 1647 N 176.026 -2.90332 -4.81315 0
M  V30 1648 H 168.177 -1.82502 -1.0866 0
M  V30 1649 H 170.44 -0.780797 -0.537644 0
M  V30 1650 H 170.146 -2.51993 -2.45341 0
M  V30 1651 H 170.02 -1.18215 -3.58197 0
M  V30 1652 H 172.407 -0.446166 -2.91708 0
M  V30 1653 H 172.488 -1.81668 -1.80085 0
M  V30 1654 H 172.132 -3.40883 -3.76512 0
M  V30 1655 H 172.062 -2.01071 -4.86701 0
M  V30 1656 H 174.553 -1.80768 -3.3186 0
M  V30 1657 H 174.866 -4.23366 -6.46514 0
M  V30 1658 H 173.211 -3.80163 -5.81808 0
M  V30 1659 H 176.402 -2.31278 -4.06974 0
M  V30 1660 H 176.575 -3.41885 -5.50471 0
M  V30 1661 N 169.982 1.44106 -0.638065 0
M  V30 1662 C 171.229 2.01978 -0.14533 0
M  V30 1663 C 171.557 1.50234 1.23532 0
M  V30 1664 O 170.812 0.679548 1.83523 0
M  V30 1665 C 171.111 3.5729 -0.0887327 0
M  V30 1666 C 170.777 4.28317 -1.40909 0
M  V30 1667 C 169.439 4.47437 -1.77069 0
M  V30 1668 C 171.791 4.6867 -2.28031 0
M  V30 1669 C 169.119 5.04171 -3.00047 0
M  V30 1670 C 171.471 5.26766 -3.50286 0
M  V30 1671 C 170.135 5.44104 -3.86661 0
M  V30 1672 H 169.405 0.739089 -0.0531801 0
M  V30 1673 H 172.052 1.72781 -0.825761 0
M  V30 1674 H 170.357 3.8594 0.675095 0
M  V30 1675 H 172.054 3.99807 0.309145 0
M  V30 1676 H 168.644 4.1377 -1.1177 0
M  V30 1677 H 172.828 4.53604 -2.01388 0
M  V30 1678 H 168.084 5.15782 -3.28298 0
M  V30 1679 H 172.258 5.56983 -4.18023 0
M  V30 1680 H 169.885 5.87832 -4.82034 0
M  V30 1681 N 171.46 0.379036 1.52974 0
M  V30 1682 C 172.423 -0.448865 2.24762 0
M  V30 1683 C 173.423 -0.998689 1.26027 0
M  V30 1684 O 174.613 -0.882313 1.50203 0
M  V30 1685 C 171.745 -1.62872 2.99476 0
M  V30 1686 H 172.938 0.179491 2.99362 0
M  V30 1687 H 170.491 0.13096 1.5575 0
M  V30 1688 H 171.226 -2.29479 2.29151 0
M  V30 1689 H 171.011 -1.24128 3.71934 0
M  V30 1690 H 172.501 -2.2151 3.5401 0
M  V30 1691 N 172.938 -1.57226 0.108567 0
M  V30 1692 C 174.354 -1.5766 -0.248058 0
M  V30 1693 C 174.554 -1.12063 -1.67464 0
M  V30 1694 O 173.61 -0.803236 -2.39383 0
M  V30 1695 C 174.923 -3.0069 -0.0242287 0
M  V30 1696 C 176.471 -3.12868 -0.0909372 0
M  V30 1697 C 176.946 -4.57879 0.105067 0
M  V30 1698 N 178.437 -4.63172 0.0506846 0
M  V30 1699 C 179.172 -5.73126 0.177396 0
M  V30 1700 N 178.668 -6.91866 0.359696 0
M  V30 1701 N 180.461 -5.61977 0.117709 0
M  V30 1702 H 172.612 -1.85169 1.04049 0
M  V30 1703 H 174.875 -0.85529 0.40888 0
M  V30 1704 H 174.581 -3.38299 0.961604 0
M  V30 1705 H 174.455 -3.6945 -0.76068 0
M  V30 1706 H 176.842 -2.75124 -1.06729 0
M  V30 1707 H 176.923 -2.46672 0.677225 0
M  V30 1708 H 176.567 -4.96321 1.07834 0
M  V30 1709 H 176.497 -5.22153 -0.682954 0
M  V30 1710 H 178.988 -3.778 -0.0871266 0
M  V30 1711 H 179.301 -7.71503 0.447529 0
M  V30 1712 H 177.646 -6.93874 0.395536 0
M  V30 1713 H 180.837 -4.68094 -0.0236741 0
M  V30 1714 H 181.01 -6.47627 0.219905 0
M  V30 1715 N 174.416 0.165178 -1.56732 0
M  V30 1716 C 175.346 1.20651 -1.99914 0
M  V30 1717 C 176.327 1.45827 -0.875705 0
M  V30 1718 O 177.512 1.57057 -1.14223 0
M  V30 1719 C 174.642 2.54401 -2.36427 0
M  V30 1720 C 173.596 2.43782 -3.51787 0
M  V30 1721 C 172.922 3.82078 -3.7406 0
M  V30 1722 C 174.222 1.93732 -4.85041 0
M  V30 1723 H 175.916 0.847534 -2.87154 0
M  V30 1724 H 173.462 0.40625 -1.38151 0
M  V30 1725 H 175.415 3.27458 -2.65234 0
M  V30 1726 H 174.139 2.92098 -1.46103 0
M  V30 1727 H 172.798 1.73178 -3.23117 0
M  V30 1728 H 172.446 4.17179 -2.81017 0
M  V30 1729 H 172.146 3.7584 -4.51684 0
M  V30 1730 H 173.67 4.56712 -4.05274 0
M  V30 1731 H 175.084 2.56569 -5.12684 0
M  V30 1732 H 173.481 1.98428 -5.66345 0
M  V30 1733 H 174.551 0.891962 -4.76626 0
M  V30 1734 N 175.894 1.51508 0.433938 0
M  V30 1735 C 177.119 1.68443 1.21003 0
M  V30 1736 C 177.544 0.382636 1.84167 0
M  V30 1737 O 176.902 -0.65755 1.68956 0
M  V30 1738 C 176.95 2.80405 2.26727 0
M  V30 1739 O 176.054 2.44245 3.32292 0
M  V30 1740 H 175.395 0.561536 0.354363 0
M  V30 1741 H 177.925 1.9809 0.512024 0
M  V30 1742 H 177.935 3.0459 2.71457 0
M  V30 1743 H 176.61 3.74867 1.80132 0
M  V30 1744 H 175.187 2.30644 2.93015 0
M  V30 1745 N 177.372 -0.689602 1.41712 0
M  V30 1746 C 178.282 -1.83314 1.46401 0
M  V30 1747 C 179.298 -1.7036 0.35405 0
M  V30 1748 O 180.474 -1.92171 0.602692 0
M  V30 1749 C 177.539 -3.19344 1.34982 0
M  V30 1750 C 176.6 -3.44363 2.56344 0
M  V30 1751 C 175.833 -4.73904 2.45461 0
M  V30 1752 O 176.056 -5.508 1.48241 0
M  V30 1753 O 174.99 -4.99839 3.35328 0
M  V30 1754 H 178.816 -1.82314 2.42889 0
M  V30 1755 H 176.401 -0.843438 1.23315 0
M  V30 1756 H 178.283 -4.00547 1.3092 0
M  V30 1757 H 176.958 -3.21014 0.41612 0
M  V30 1758 H 175.865 -2.63067 2.65982 0
M  V30 1759 H 177.198 -3.47512 3.48563 0
M  V30 1760 N 178.85 -1.27639 -0.924453 0
M  V30 1761 C 179.8 -1.07295 -2.01176 0
M  V30 1762 C 180.784 5.77352e-05 -1.609 0
M  V30 1763 O 181.976 -0.218855 -1.75642 0
M  V30 1764 C 179.105 -0.725592 -3.35544 0
M  V30 1765 C 178.191 -1.83691 -3.82254 0
M  V30 1766 N 178.582 -3.07697 -4.01443 0
M  V30 1767 C 176.88 -1.72433 -4.11319 0
M  V30 1768 C 177.581 -3.80037 -4.40394 0
M  V30 1769 N 176.557 -3.0782 -4.48049 0
M  V30 1770 H 180.359 -2.01399 -2.14046 0
M  V30 1771 H 177.873 -1.18401 -1.11153 0
M  V30 1772 H 179.87 -0.560959 -4.13109 0
M  V30 1773 H 178.53 0.207782 -3.24034 0
M  V30 1774 H 179.541 -3.43424 -3.8766 0
M  V30 1775 H 176.218 -0.862005 -4.08504 0
M  V30 1776 H 177.608 -4.86632 -4.63291 0
M  V30 1777 N 180.328 1.1314 -1.09713 0
M  V30 1778 C 181.291 2.16831 -0.742751 0
M  V30 1779 C 182.291 1.59159 0.229129 0
M  V30 1780 O 183.481 1.74199 0.00693237 0
M  V30 1781 C 180.613 3.40756 -0.0989168 0
M  V30 1782 H 181.806 2.49695 -1.66109 0
M  V30 1783 H 179.359 1.2802 -0.896699 0
M  V30 1784 H 180.094 3.13485 0.830514 0
M  V30 1785 H 179.879 3.83888 -0.798265 0
M  V30 1786 H 181.369 4.17386 0.133524 0
M  V30 1787 N 181.806 0.884767 1.30421 0
M  V30 1788 C 183.034 0.518044 2.0031 0
M  V30 1789 C 183.449 -0.893408 1.66324 0
M  V30 1790 O 182.806 -1.5875 0.900262 0
M  V30 1791 C 182.857 0.682997 3.54989 0
M  V30 1792 O 182.578 2.03888 3.87764 0
M  V30 1793 C 184.079 0.31924 4.42149 0
M  V30 1794 H 181.299 0.200265 0.640418 0
M  V30 1795 H 183.843 1.19001 1.6631 0
M  V30 1796 H 181.998 0.0584052 3.87356 0
M  V30 1797 H 182.412 2.05735 4.82466 0
M  V30 1798 H 183.886 0.485555 5.4986 0
M  V30 1799 H 184.363 -0.742717 4.32875 0
M  V30 1800 H 184.969 0.920147 4.15227 0
M  V30 1801 N 183.284 -1.43765 0.645699 0
M  V30 1802 C 184.247 -2.29163 -0.0409488 0
M  V30 1803 C 185.247 -1.41813 -0.757996 0
M  V30 1804 O 186.437 -1.63527 -0.600382 0
M  V30 1805 C 183.569 -3.23716 -1.06869 0
M  V30 1806 H 184.762 -2.91366 0.710345 0
M  V30 1807 H 182.315 -1.5092 0.406547 0
M  V30 1808 H 183.05 -2.66393 -1.84947 0
M  V30 1809 H 182.835 -3.88105 -0.558277 0
M  V30 1810 H 184.325 -3.87831 -1.54845 0
M  V30 1811 N 184.763 -0.387143 -1.52771 0
M  V30 1812 C 186.174 0.0873634 -1.86495 0
M  V30 1813 C 186.525 1.46336 -1.30691 0
M  V30 1814 O 185.65 2.068 -0.637409 0
M  V30 1815 C 186.245 0.165305 -3.38396 0
M  V30 1816 C 184.804 0.584101 -3.7184 0
M  V30 1817 C 183.951 -0.255279 -2.76122 0
M  V30 1818 H 186.902 -0.605104 -1.46711 0
M  V30 1819 H 186.923 0.984848 -3.67534 0
M  V30 1820 H 186.435 -0.836301 -3.78982 0
M  V30 1821 H 184.536 1.59315 -3.36823 0
M  V30 1822 H 184.649 0.343749 -4.77865 0
M  V30 1823 H 183.013 0.279126 -2.53166 0
M  V30 1824 H 183.796 -1.25482 -3.19545 0
M  V30 1825 N 186.241 1.57166 -0.116904 0
M  V30 1826 C 187.469 1.99473 0.549383 0
M  V30 1827 C 187.884 0.996541 1.60357 0
M  V30 1828 O 187.241 -0.0108731 1.82497 0
M  V30 1829 C 187.292 3.41788 1.17741 0
M  V30 1830 O 187.013 4.37788 0.165362 0
M  V30 1831 C 188.514 3.99216 1.92722 0
M  V30 1832 H 185.734 0.655009 0.145616 0
M  V30 1833 H 188.278 2.03494 -0.202625 0
M  V30 1834 H 186.433 3.38713 1.88021 0
M  V30 1835 H 186.847 5.20806 0.621403 0
M  V30 1836 H 188.321 5.00882 2.31995 0
M  V30 1837 H 188.798 3.3824 2.80161 0
M  V30 1838 H 189.404 4.0583 1.27209 0
M  V30 1839 N 187.719 -0.156864 1.56817 0
M  V30 1840 C 189.135 -0.50916 1.5126 0
M  V30 1841 C 189.335 -1.83897 0.823658 0
M  V30 1842 O 188.391 -2.49469 0.390055 0
M  V30 1843 C 189.704 -0.52857 2.96018 0
M  V30 1844 C 191.252 -0.614771 3.06903 0
M  V30 1845 C 191.727 -0.664938 4.53147 0
M  V30 1846 N 193.218 -0.727433 4.57452 0
M  V30 1847 C 193.953 -0.787067 5.67973 0
M  V30 1848 N 193.449 -0.806649 6.88088 0
M  V30 1849 N 195.242 -0.827195 5.5598 0
M  V30 1850 H 187.393 0.714935 2.00006 0
M  V30 1851 H 189.656 0.259526 0.911784 0
M  V30 1852 H 189.362 0.380154 3.49639 0
M  V30 1853 H 189.236 -1.36998 3.51442 0
M  V30 1854 H 191.623 -1.51392 2.53307 0
M  V30 1855 H 191.704 0.253597 2.5454 0
M  V30 1856 H 191.348 0.230011 5.07379 0
M  V30 1857 H 191.278 -1.54966 5.03282 0
M  V30 1858 H 193.769 -0.719998 3.70978 0
M  V30 1859 H 194.082 -0.853727 7.6807 0
M  V30 1860 H 192.427 -0.774687 6.90669 0
M  V30 1861 H 195.618 -0.808998 4.61056 0
M  V30 1862 H 195.791 -0.870206 6.4213 0
M  V30 1863 N 189.197 -1.51736 -0.425897 0
M  V30 1864 C 190.445 -1.64644 -1.17204 0
M  V30 1865 C 190.766 -0.370486 -1.91448 0
M  V30 1866 O 190.036 0.614088 -1.86026 0
M  V30 1867 H 188.616 -0.606819 -0.435638 0
M  V30 1868 H 191.278 -1.88713 -0.487177 0
M  V30 1869 H 190.374 -2.47958 -1.89534 0
M  V30 1870 N 190.675 0.682077 -1.42076 0
M  V30 1871 C 191.9 1.47558 -1.45744 0
M  V30 1872 C 192.325 1.87977 -0.0680981 0
M  V30 1873 O 191.683 1.55522 0.9318 0
M  V30 1874 C 191.731 2.70575 -2.38373 0
M  V30 1875 O 190.835 3.68573 -1.85007 0
M  V30 1876 H 190.176 0.443585 -0.494093 0
M  V30 1877 H 192.706 0.837238 -1.86686 0
M  V30 1878 H 192.716 3.18729 -2.54707 0
M  V30 1879 H 191.391 2.40495 -3.39315 0
M  V30 1880 H 189.968 3.2757 -1.78192 0
M  V30 1881 N 192.153 1.28127 0.917671 0
M  V30 1882 C 193.116 1.11744 2.00115 0
M  V30 1883 C 194.116 0.0583052 1.60694 0
M  V30 1884 O 195.306 0.303755 1.71531 0
M  V30 1885 C 192.438 0.704862 3.33533 0
M  V30 1886 H 193.631 2.07966 2.16079 0
M  V30 1887 H 191.184 1.11058 1.09981 0
M  V30 1888 H 191.919 -0.258299 3.2327 0
M  V30 1889 H 191.704 1.4699 3.63505 0
M  V30 1890 H 193.194 0.612768 4.1308 0
M  V30 1891 N 193.631 -1.12557 1.10312 0
M  V30 1892 C 195.047 -1.36036 0.834649 0
M  V30 1893 C 195.247 -1.93946 -0.546539 0
M  V30 1894 O 194.303 -2.16484 -1.29966 0
M  V30 1895 C 195.616 -2.30312 1.9333 0
M  V30 1896 C 197.164 -2.43906 1.9616 0
M  V30 1897 C 197.639 -3.41496 3.05195 0
M  V30 1898 N 199.13 -3.49053 3.04494 0
M  V30 1899 C 199.865 -4.24471 3.85502 0
M  V30 1900 N 199.361 -5.02966 4.76442 0
M  V30 1901 N 201.154 -4.19864 3.73725 0
M  V30 1902 H 193.305 -0.733246 1.99342 0
M  V30 1903 H 195.568 -0.385234 0.866198 0
M  V30 1904 H 195.274 -1.94933 2.92735 0
M  V30 1905 H 195.148 -3.30421 1.81939 0
M  V30 1906 H 197.535 -2.78567 0.973886 0
M  V30 1907 H 197.616 -1.4369 2.11629 0
M  V30 1908 H 197.26 -3.07565 4.04186 0
M  V30 1909 H 197.19 -4.41539 2.86968 0
M  V30 1910 H 199.681 -2.93053 2.38596 0
M  V30 1911 H 199.994 -5.57846 5.34815 0
M  V30 1912 H 198.339 -5.02167 4.80472 0
M  V30 1913 H 201.53 -3.57623 3.02032 0
M  V30 1914 H 201.703 -4.78386 4.37093 0
M  V30 1915 N 195.109 -0.891671 -1.2995 0
M  V30 1916 C 196.072 -0.36828 -2.26222 0
M  V30 1917 C 197.072 0.493014 -1.53056 0
M  V30 1918 O 198.262 0.299213 -1.71611 0
M  V30 1919 C 195.394 0.47442 -3.37583 0
M  V30 1920 H 196.587 -1.21844 -2.74033 0
M  V30 1921 H 194.14 -0.669107 -1.41254 0
M  V30 1922 H 194.875 1.34489 -2.95099 0
M  V30 1923 H 194.66 -0.142615 -3.91841 0
M  V30 1924 H 196.15 0.83218 -4.09224 0
M  V30 1925 N 196.587 1.43421 -0.653314 0
M  V30 1926 C 197.55 2.29182 0.0287951 0
M  V30 1927 C 198.55 1.42213 0.750465 0
M  V30 1928 O 199.74 1.63843 0.591701 0
M  V30 1929 C 196.872 3.24278 1.05151 0
M  V30 1930 H 198.065 2.90985 -0.725786 0
M  V30 1931 H 195.618 1.50702 -0.414545 0
M  V30 1932 H 196.353 2.6737 1.83532 0
M  V30 1933 H 196.138 3.88396 0.537687 0
M  V30 1934 H 197.628 3.88647 1.52786 0
M  V30 1935 N 198.065 0.39524 1.52563 0
M  V30 1936 C 199.313 -0.184678 2.01254 0
M  V30 1937 C 199.634 -1.46822 1.28329 0
M  V30 1938 O 198.904 -1.91666 0.405094 0
M  V30 1939 H 197.484 -0.0712355 0.743596 0
M  V30 1940 H 200.146 0.528293 1.87603 0
M  V30 1941 H 199.242 -0.390681 3.09645 0
M  V30 1942 N 199.544 -1.57102 0.125237 0
M  V30 1943 C 200.774 -1.99472 -0.538015 0
M  V30 1944 C 201.182 -1.00395 -1.60366 0
M  V30 1945 O 200.525 0.0103875 -1.83697 0
M  V30 1946 C 200.587 -3.38262 -1.21734 0
M  V30 1947 C 200.251 -4.56021 -0.298897 0
M  V30 1948 C 201.248 -5.17817 0.464943 0
M  V30 1949 C 198.933 -5.01869 -0.208149 0
M  V30 1950 C 200.927 -6.23852 1.3072 0
M  V30 1951 C 198.614 -6.07763 0.637736 0
M  V30 1952 C 199.612 -6.68622 1.39403 0
M  V30 1953 O 199.3 -7.7247 2.22586 0
M  V30 1954 H 199.032 -0.659934 -0.146501 0
M  V30 1955 H 201.586 -2.04321 0.210267 0
M  V30 1956 H 199.816 -3.30185 -2.01282 0
M  V30 1957 H 201.505 -3.6488 -1.77813 0
M  V30 1958 H 202.271 -4.83308 0.404741 0
M  V30 1959 H 198.15 -4.54241 -0.786522 0
M  V30 1960 H 201.694 -6.71284 1.898 0
M  V30 1961 H 197.591 -6.41701 0.699309 0
M  V30 1962 H 198.359 -7.89595 2.15596 0
M  V30 1963 N 201.022 0.148545 -1.56898 0
M  V30 1964 C 202.299 0.890019 -1.74178 0
M  V30 1965 C 202.679 1.99407 -0.692839 0
M  V30 1966 O 202.027 2.26671 0.288505 0
M  V30 1967 C 202.237 1.43389 -3.18183 0
M  V30 1968 C 203.585 1.89791 -3.79822 0
M  V30 1969 O 204.609 1.53134 -3.21603 0
M  V30 1970 O 203.468 2.57387 -4.82093 0
M  V30 1971 H 200.562 0.420496 -0.712118 0
M  V30 1972 H 203.108 0.134591 -1.69165 0
M  V30 1973 H 201.88 0.640383 -3.86024 0
M  V30 1974 H 201.503 2.25287 -3.27615 0
M  V30 1975 N 202.5 1.5196 0.417844 0
M  V30 1976 C 203.43 1.77634 1.51554 0
M  V30 1977 C 204.411 0.626918 1.58126 0
M  V30 1978 O 205.596 0.871632 1.7354 0
M  V30 1979 C 202.726 1.91911 2.8946 0
M  V30 1980 C 201.68 3.07463 2.97743 0
M  V30 1981 C 201.006 3.06951 4.37819 0
M  V30 1982 C 202.306 4.47082 2.70027 0
M  V30 1983 H 204 2.6955 1.3032 0
M  V30 1984 H 201.546 1.29706 0.625492 0
M  V30 1985 H 203.499 2.08455 3.6623 0
M  V30 1986 H 202.223 0.966598 3.11969 0
M  V30 1987 H 200.882 2.90656 2.23416 0
M  V30 1988 H 200.53 2.09438 4.57323 0
M  V30 1989 H 200.23 3.84556 4.44286 0
M  V30 1990 H 201.754 3.25613 5.16535 0
M  V30 1991 H 203.168 4.6414 3.36522 0
M  V30 1992 H 201.565 5.2654 2.87881 0
M  V30 1993 H 202.635 4.55777 1.65514 0
M  V30 1994 N 203.978 -0.674533 1.42435 0
M  V30 1995 C 205.208 -1.46071 1.46105 0
M  V30 1996 C 205.616 -1.89067 0.0709605 0
M  V30 1997 O 204.959 -1.58731 -0.924677 0
M  V30 1998 C 205.021 -2.74145 2.32561 0
M  V30 1999 C 204.685 -2.53224 3.8043 0
M  V30 2000 C 205.682 -2.17809 4.72075 0
M  V30 2001 C 203.367 -2.6821 4.24698 0
M  V30 2002 C 205.361 -1.97648 6.05982 0
M  V30 2003 C 203.048 -2.47665 5.58664 0
M  V30 2004 C 204.046 -2.12437 6.49122 0
M  V30 2005 O 203.734 -1.9209 7.80613 0
M  V30 2006 H 203.466 -0.455959 0.499076 0
M  V30 2007 H 206.02 -0.836193 1.87609 0
M  V30 2008 H 204.25 -3.3908 1.85908 0
M  V30 2009 H 205.939 -3.36028 2.27683 0
M  V30 2010 H 206.705 -2.05826 4.39159 0
M  V30 2011 H 202.584 -2.94609 3.54579 0
M  V30 2012 H 206.128 -1.70075 6.7655 0
M  V30 2013 H 202.025 -2.59244 5.91154 0
M  V30 2014 H 202.793 -2.06686 7.91974 0
M  V30 2015 N 205.456 -1.28612 -0.910864 0
M  V30 2016 C 206.681 -1.1891 -1.69927 0
M  V30 2017 C 207.106 0.248372 -1.86453 0
M  V30 2018 O 206.464 1.17961 -1.37676 0
M  V30 2019 C 206.512 -1.89578 -3.06745 0
M  V30 2020 O 205.616 -1.20521 -3.94396 0
M  V30 2021 H 204.957 -0.412632 -0.520222 0
M  V30 2022 H 207.487 -1.69985 -1.1387 0
M  V30 2023 H 207.497 -1.97597 -3.56958 0
M  V30 2024 H 206.172 -2.94136 -2.94035 0
M  V30 2025 H 204.749 -1.20684 -3.52831 0
M  V30 2026 N 206.934 1.1197 -1.10907 0
M  V30 2027 C 207.897 2.16031 -0.765707 0
M  V30 2028 C 208.897 1.59393 0.212235 0
M  V30 2029 O 210.087 1.74196 -0.0115441 0
M  V30 2030 C 207.219 3.40632 -0.135053 0
M  V30 2031 H 208.412 2.47919 -1.68748 0
M  V30 2032 H 205.965 1.27061 -0.910226 0
M  V30 2033 H 206.7 3.14348 0.797218 0
M  V30 2034 H 206.485 3.8302 -0.838937 0
M  V30 2035 H 207.975 4.17505 0.0892469 0
M  V30 2036 N 208.412 0.89855 1.29475 0
M  V30 2037 C 209.642 0.538479 1.99459 0
M  V30 2038 C 210.05 -0.880922 1.67441 0
M  V30 2039 O 209.393 -1.59283 0.915127 0
M  V30 2040 C 209.455 0.649564 3.53583 0
M  V30 2041 C 209.119 2.03573 4.09154 0
M  V30 2042 C 210.116 3.00675 4.24135 0
M  V30 2043 C 207.801 2.3448 4.44212 0
M  V30 2044 C 209.795 4.26809 4.73405 0
M  V30 2045 C 207.482 3.60857 4.93179 0
M  V30 2046 C 208.48 4.56836 5.0773 0
M  V30 2047 O 208.168 5.80969 5.55635 0
M  V30 2048 H 207.9 0.205372 0.644048 0
M  V30 2049 H 210.454 1.20958 1.66007 0
M  V30 2050 H 208.684 -0.0785592 3.8662 0
M  V30 2051 H 210.373 0.29881 4.04799 0
M  V30 2052 H 211.139 2.78112 3.97339 0
M  V30 2053 H 207.018 1.60534 4.32145 0
M  V30 2054 H 210.562 5.0173 4.84678 0
M  V30 2055 H 206.459 3.83251 5.19412 0
M  V30 2056 H 207.227 5.83542 5.73952 0
M  V30 2057 N 209.89 -1.43072 0.660911 0
M  V30 2058 C 211.167 -1.95307 0.107017 0
M  V30 2059 C 211.547 -1.60192 -1.37484 0
M  V30 2060 O 210.895 -0.890949 -2.10415 0
M  V30 2061 C 211.105 -3.47124 0.361402 0
M  V30 2062 C 212.453 -4.23738 0.270455 0
M  V30 2063 O 213.477 -3.54981 0.294382 0
M  V30 2064 O 212.336 -5.46131 0.200737 0
M  V30 2065 H 209.43 -0.826984 -0.00517729 0
M  V30 2066 H 211.976 -1.52972 0.734681 0
M  V30 2067 H 210.748 -3.65837 1.38848 0
M  V30 2068 H 210.371 -3.96475 -0.298953 0
M  V30 2069 N 211.368 -0.403325 -1.52352 0
M  V30 2070 C 212.598 0.17376 -2.05868 0
M  V30 2071 C 213.006 1.39898 -1.27378 0
M  V30 2072 O 212.349 1.80939 -0.31729 0
M  V30 2073 C 212.411 0.594756 -3.54546 0
M  V30 2074 C 212.075 -0.518926 -4.54044 0
M  V30 2075 C 213.072 -1.3807 -5.01231 0
M  V30 2076 C 210.757 -0.689961 -4.97539 0
M  V30 2077 C 212.751 -2.39852 -5.90551 0
M  V30 2078 C 210.438 -1.71109 -5.86656 0
M  V30 2079 C 211.436 -2.56378 -6.33056 0
M  V30 2080 O 211.124 -3.56743 -7.20409 0
M  V30 2081 H 210.856 0.0264951 -0.675481 0
M  V30 2082 H 213.41 -0.571179 -1.97299 0
M  V30 2083 H 211.64 1.39189 -3.60782 0
M  V30 2084 H 213.329 1.0991 -3.90736 0
M  V30 2085 H 214.095 -1.25994 -4.68349 0
M  V30 2086 H 209.974 -0.035939 -4.60986 0
M  V30 2087 H 213.518 -3.06441 -6.26689 0
M  V30 2088 H 209.415 -1.83218 -6.18952 0
M  V30 2089 H 210.183 -3.52918 -7.38506 0
M  V30 2090 N 212.846 1.57033 -0.133567 0
M  V30 2091 C 214.074 2.00044 0.528195 0
M  V30 2092 C 214.489 1.01349 1.59291 0
M  V30 2093 O 213.846 0.00848369 1.82498 0
M  V30 2094 C 213.897 3.43018 1.1411 0
M  V30 2095 O 213.618 4.37939 0.11892 0
M  V30 2096 C 215.119 4.01237 1.88477 0
M  V30 2097 H 212.339 0.656517 0.138661 0
M  V30 2098 H 214.883 2.03267 -0.224196 0
M  V30 2099 H 213.038 3.40688 1.84418 0
M  V30 2100 H 213.452 5.21436 0.56613 0
M  V30 2101 H 214.926 5.03314 2.26669 0
M  V30 2102 H 215.403 3.41193 2.76558 0
M  V30 2103 H 216.009 4.07156 1.22898 0
M  V30 2104 N 214.325 -0.140222 1.56975 0
M  V30 2105 C 215.574 -0.850152 1.82908 0
M  V30 2106 C 215.887 -1.82028 0.715892 0
M  V30 2107 O 217.093 -2.57485 0.861016 0
M  V30 2108 C 215.549 -1.5625 3.24213 0
M  V30 2109 C 215.157 -0.63443 4.43485 0
M  V30 2110 C 216.901 -2.25881 3.59413 0
M  V30 2111 C 214.808 -1.34879 5.75814 0
M  V30 2112 H 213.738 -0.321221 0.682153 0
M  V30 2113 H 216.389 -0.102874 1.83211 0
M  V30 2114 H 214.771 -2.35565 3.18316 0
M  V30 2115 H 215.945 0.12398 4.60633 0
M  V30 2116 H 214.26 -0.0461836 4.16374 0
M  V30 2117 H 216.857 -2.79978 4.5554 0
M  V30 2118 H 217.2 -3.02693 2.85802 0
M  V30 2119 H 217.733 -1.53477 3.67001 0
M  V30 2120 H 214.472 -0.622385 6.52539 0
M  V30 2121 H 213.992 -2.07974 5.6259 0
M  V30 2122 H 215.671 -1.88784 6.18845 0
M  V30 2123 N 215.803 -1.52179 -0.40978 0
M  V30 2124 C 217.214 -1.58377 -0.988615 0
M  V30 2125 C 217.565 -0.423879 -1.91566 0
M  V30 2126 O 216.69 0.455844 -2.11544 0
M  V30 2127 C 217.285 -2.87044 -1.79976 0
M  V30 2128 C 215.844 -2.95722 -2.32863 0
M  V30 2129 C 214.991 -2.53309 -1.12828 0
M  V30 2130 H 217.942 -1.57558 -0.190039 0
M  V30 2131 H 217.963 -2.7236 -2.65707 0
M  V30 2132 H 217.475 -3.71444 -1.12478 0
M  V30 2133 H 215.576 -2.15814 -3.03735 0
M  V30 2134 H 215.689 -3.99951 -2.63773 0
M  V30 2135 H 214.053 -2.07142 -1.48204 0
M  V30 2136 H 214.836 -3.40082 -0.46897 0
M  V30 2137 N 217.281 0.66697 -1.42791 0
M  V30 2138 C 218.692 1.2478 -1.38877 0
M  V30 2139 C 219.043 1.96012 -0.0859426 0
M  V30 2140 O 218.168 2.00463 0.815081 0
M  V30 2141 C 218.763 2.26938 -2.51564 0
M  V30 2142 C 217.322 2.80529 -2.50959 0
M  V30 2143 C 216.469 1.54965 -2.29959 0
M  V30 2144 H 219.42 0.459853 -1.51892 0
M  V30 2145 H 219.441 3.08834 -2.22265 0
M  V30 2146 H 218.953 1.75065 -3.46372 0
M  V30 2147 H 217.054 3.36502 -1.59991 0
M  V30 2148 H 217.167 3.29012 -3.48265 0
M  V30 2149 H 215.531 1.81817 -1.78366 0
M  V30 2150 H 216.314 1.05047 -3.26833 0
M  V30 2151 N 218.759 1.29093 0.90403 0
M  V30 2152 C 219.692 1.08176 2.00931 0
M  V30 2153 C 220.67 -0.005083 1.62599 0
M  V30 2154 O 221.854 0.144765 1.87943 0
M  V30 2155 C 218.981 0.645897 3.32484 0
M  V30 2156 C 218.027 1.73081 3.89801 0
M  V30 2157 S 218.86 3.32905 4.19446 0
M  V30 2158 C 220.016 2.91176 5.54046 0
M  V30 2159 H 220.249 2.01752 2.18365 0
M  V30 2160 H 217.782 1.13191 1.0501 0
M  V30 2161 H 219.74 0.401131 4.08535 0
M  V30 2162 H 218.401 -0.270188 3.12936 0
M  V30 2163 H 217.594 1.37768 4.84805 0
M  V30 2164 H 217.196 1.92888 3.20422 0
M  V30 2165 H 219.488 2.37952 6.34338 0
M  V30 2166 H 220.431 3.85014 5.94281 0
M  V30 2167 H 220.839 2.296 5.15698 0
M  V30 2168 N 220.237 -1.11381 1.11499 0
M  V30 2169 C 221.147 -2.21019 0.786628 0
M  V30 2170 C 222.163 -1.72597 -0.220507 0
M  V30 2171 O 223.339 -2.01321 -0.0565251 0
M  V30 2172 C 220.404 -3.459 0.235333 0
M  V30 2173 C 219.465 -4.09107 1.30115 0
M  V30 2174 C 218.698 -5.28027 0.776068 0
M  V30 2175 O 218.921 -5.6904 -0.393661 0
M  V30 2176 O 217.855 -5.81835 1.54114 0
M  V30 2177 H 221.681 -2.51521 1.70209 0
M  V30 2178 H 219.266 -1.19928 0.890928 0
M  V30 2179 H 221.148 -4.21346 -0.067715 0
M  V30 2180 H 219.823 -3.17049 -0.652828 0
M  V30 2181 H 218.73 -3.35391 1.65722 0
M  V30 2182 H 220.063 -4.42139 2.16273 0
M  V30 2183 N 221.715 -0.905404 -1.28997 0
M  V30 2184 C 222.662 -0.385892 -2.27551 0
M  V30 2185 C 223.632 0.535113 -1.57244 0
M  V30 2186 O 224.817 0.459119 -1.85194 0
M  V30 2187 C 221.957 0.375461 -3.43051 0
M  V30 2188 C 221.07 -0.577092 -4.28128 0
M  V30 2189 C 220.205 0.201879 -5.30816 0
M  V30 2190 C 219.244 -0.744829 -6.07551 0
M  V30 2191 N 218.381 9.42587e-05 -7.021 0
M  V30 2192 H 223.221 -1.23139 -2.71368 0
M  V30 2193 H 220.758 -0.618542 -1.33463 0
M  V30 2194 H 222.716 0.832992 -4.088 0
M  V30 2195 H 221.346 1.18537 -3.00248 0
M  V30 2196 H 220.398 -1.15315 -3.62501 0
M  V30 2197 H 221.71 -1.30152 -4.8152 0
M  V30 2198 H 220.864 0.720351 -6.02408 0
M  V30 2199 H 219.603 0.959413 -4.7817 0
M  V30 2200 H 218.608 -1.27475 -5.34818 0
M  V30 2201 H 219.833 -1.50178 -6.62286 0
M  V30 2202 H 217.779 0.739791 -6.51815 0
M  V30 2203 H 217.696 -0.664321 -7.53076 0
M  V30 2204 H 218.964 0.498644 -7.77903 0
M  V30 2205 N 223.193 1.4272 -0.668489 0
M  V30 2206 C 224.156 2.292 0.00448567 0
M  V30 2207 C 225.156 1.43001 0.735339 0
M  V30 2208 O 226.346 1.64461 0.57429 0
M  V30 2209 C 223.478 3.25375 1.01705 0
M  V30 2210 H 224.671 2.90199 -0.756608 0
M  V30 2211 H 222.224 1.50254 -0.430506 0
M  V30 2212 H 222.959 2.69301 1.80686 0
M  V30 2213 H 222.744 3.88944 0.496463 0
M  V30 2214 H 224.234 3.90245 1.48655 0
M  V30 2215 N 224.671 0.411399 1.52136 0
M  V30 2216 C 225.917 -0.163888 2.02137 0
M  V30 2217 C 226.25 -1.44597 1.29636 0
M  V30 2218 O 225.525 -1.90272 0.403353 0
M  V30 2219 C 225.808 -0.40927 3.57767 0
M  V30 2220 C 225.661 0.889643 4.40914 0
M  V30 2221 C 226.98 -1.19042 4.23694 0
M  V30 2222 H 224.099 -0.0580896 0.734707 0
M  V30 2223 H 226.741 0.54531 1.82007 0
M  V30 2224 H 224.891 -1.0134 3.7505 0
M  V30 2225 H 226.563 1.52575 4.35337 0
M  V30 2226 H 224.806 1.50011 4.07037 0
M  V30 2227 H 225.477 0.672314 5.4789 0
M  V30 2228 H 227.953 -0.678942 4.10524 0
M  V30 2229 H 226.829 -1.33086 5.32522 0
M  V30 2230 H 227.09 -2.21166 3.82803 0
M  V30 2231 N 226.149 -1.5696 0.141893 0
M  V30 2232 C 227.395 -1.9625 -0.511248 0
M  V30 2233 C 227.728 -1.02654 -1.64851 0
M  V30 2234 O 227.003 -0.0679676 -1.94381 0
M  V30 2235 C 227.286 -3.45285 -1.02227 0
M  V30 2236 C 227.139 -4.49658 0.113138 0
M  V30 2237 C 228.458 -3.96698 -1.90574 0
M  V30 2238 H 225.577 -0.713567 -0.184367 0
M  V30 2239 H 228.219 -1.88698 0.222087 0
M  V30 2240 H 226.369 -3.51852 -1.64719 0
M  V30 2241 H 228.041 -4.55174 0.749302 0
M  V30 2242 H 226.284 -4.26857 0.773026 0
M  V30 2243 H 226.955 -5.51258 -0.286053 0
M  V30 2244 H 229.431 -3.92578 -1.37918 0
M  V30 2245 H 228.307 -5.01453 -2.2324 0
M  V30 2246 H 228.568 -3.3875 -2.84079 0
M  V30 2247 N 227.627 0.131896 -1.57047 0
M  V30 2248 C 228.574 1.16236 -1.99393 0
M  V30 2249 C 229.544 1.41863 -0.863943 0
M  V30 2250 O 230.729 1.53946 -1.12718 0
M  V30 2251 C 227.869 2.48708 -2.39245 0
M  V30 2252 C 226.982 2.30127 -3.65603 0
M  V30 2253 C 226.117 3.55738 -3.94492 0
M  V30 2254 C 225.156 3.32259 -5.14073 0
M  V30 2255 N 224.293 4.50039 -5.38896 0
M  V30 2256 H 229.133 0.794251 -2.87221 0
M  V30 2257 H 226.67 0.380707 -1.42088 0
M  V30 2258 H 228.628 3.25969 -2.60384 0
M  V30 2259 H 227.258 2.83437 -1.54478 0
M  V30 2260 H 226.31 1.43845 -3.52154 0
M  V30 2261 H 227.622 2.08746 -4.5302 0
M  V30 2262 H 226.776 4.41423 -4.1621 0
M  V30 2263 H 225.515 3.80138 -3.05526 0
M  V30 2264 H 224.52 2.44963 -4.92212 0
M  V30 2265 H 225.745 3.09242 -6.04604 0
M  V30 2266 H 223.691 4.74584 -4.52886 0
M  V30 2267 H 223.608 4.31716 -6.2061 0
M  V30 2268 H 224.876 5.36895 -5.65123 0
M  V30 2269 N 229.106 1.52395 0.401703 0
M  V30 2270 C 230.334 1.70676 1.16949 0
M  V30 2271 C 230.749 0.419503 1.8408 0
M  V30 2272 O 230.106 -0.605061 1.72178 0
M  V30 2273 C 230.157 2.84753 2.22706 0
M  V30 2274 O 229.878 4.08495 1.58314 0
M  V30 2275 C 231.379 3.14608 3.12309 0
M  V30 2276 H 228.599 0.571787 0.351142 0
M  V30 2277 H 231.143 1.98987 0.471652 0
M  V30 2278 H 229.298 2.58941 2.88147 0
M  V30 2279 H 229.712 4.72117 2.28485 0
M  V30 2280 H 231.186 3.97923 3.82572 0
M  V30 2281 H 231.663 2.28464 3.75101 0
M  V30 2282 H 232.269 3.42212 2.52529 0
M  V30 2283 N 230.584 -0.659388 1.43143 0
M  V30 2284 C 231.861 -1.41627 1.34912 0
M  V30 2285 C 232.241 -2.11099 -0.00607785 0
M  V30 2286 O 231.589 -2.04353 -1.02236 0
M  V30 2287 C 231.799 -2.40604 2.52805 0
M  V30 2288 C 233.147 -3.04789 2.95616 0
M  V30 2289 O 234.171 -2.50932 2.52807 0
M  V30 2290 O 233.03 -4.02421 3.69756 0
M  V30 2291 H 230.124 -0.63246 0.532844 0
M  V30 2292 H 232.67 -0.686814 1.5518 0
M  V30 2293 H 231.442 -1.88174 3.43083 0
M  V30 2294 H 231.065 -3.21009 2.34604 0
M  V30 2295 N 232.062 -1.29571 -0.897171 0
M  V30 2296 C 233.311 -1.1706 -1.64256 0
M  V30 2297 C 233.624 0.276476 -1.93636 0
M  V30 2298 O 234.83 0.52294 -2.66416 0
M  V30 2299 C 233.286 -2.0475 -2.95982 0
M  V30 2300 C 232.894 -3.54295 -2.74187 0
M  V30 2301 C 234.638 -2.0097 -3.73914 0
M  V30 2302 C 232.545 -4.34081 -4.01656 0
M  V30 2303 H 231.475 -0.43452 -0.616205 0
M  V30 2304 H 234.126 -1.54229 -0.994268 0
M  V30 2305 H 232.508 -1.60452 -3.62038 0
M  V30 2306 H 233.682 -4.06662 -2.1671 0
M  V30 2307 H 231.997 -3.59773 -2.09648 0
M  V30 2308 H 234.594 -2.57838 -4.68427 0
M  V30 2309 H 234.937 -0.990273 -4.0435 0
M  V30 2310 H 235.47 -2.43325 -3.14703 0
M  V30 2311 H 232.209 -5.36671 -3.76384 0
M  V30 2312 H 231.729 -3.86483 -4.58684 0
M  V30 2313 H 233.408 -4.44877 -4.69781 0
M  V30 2314 N 233.54 1.10788 -1.12088 0
M  V30 2315 C 234.472 2.16816 -0.743213 0
M  V30 2316 C 235.485 1.6119 0.228412 0
M  V30 2317 O 236.674 1.78497 0.0102931 0
M  V30 2318 C 233.774 3.38809 -0.0787313 0
M  V30 2319 C 232.947 4.23885 -1.0789 0
M  V30 2320 C 232.006 5.24334 -0.442713 0
M  V30 2321 O 231.032 5.58497 -1.09864 0
M  V30 2322 N 232.234 5.75079 0.791457 0
M  V30 2323 H 234.999 2.49825 -1.65552 0
M  V30 2324 H 232.56 1.26373 -1.012 0
M  V30 2325 H 234.552 4.03107 0.358766 0
M  V30 2326 H 233.122 3.03805 0.736275 0
M  V30 2327 H 232.342 3.55939 -1.69414 0
M  V30 2328 H 233.63 4.77562 -1.75533 0
M  V30 2329 H 233.028 5.49517 1.3434 0
M  V30 2330 H 231.585 6.4118 1.17183 0
M  V30 2331 N 235.018 0.912232 1.28515 0
M  V30 2332 C 236.267 0.540504 1.94323 0
M  V30 2333 C 236.58 -0.920044 1.72611 0
M  V30 2334 O 237.786 -1.39986 2.32629 0
M  V30 2335 C 236.242 0.915803 3.48053 0
M  V30 2336 C 235.85 2.39598 3.78546 0
M  V30 2337 C 237.594 0.614588 4.20027 0
M  V30 2338 C 235.501 2.71148 5.25578 0
M  V30 2339 H 234.431 0.198418 0.727424 0
M  V30 2340 H 237.082 1.11094 1.46049 0
M  V30 2341 H 235.464 0.274168 3.9505 0
M  V30 2342 H 236.638 3.08422 3.42364 0
M  V30 2343 H 234.953 2.66749 3.1974 0
M  V30 2344 H 237.55 0.827002 5.28266 0
M  V30 2345 H 237.893 -0.447531 4.13887 0
M  V30 2346 H 238.426 1.21462 3.78803 0
M  V30 2347 H 235.165 3.76207 5.36794 0
M  V30 2348 H 234.685 2.0696 5.62963 0
M  V30 2349 H 236.364 2.58072 5.93302 0
M  V30 2350 N 236.496 -1.42363 0.676048 0
M  V30 2351 C 237.459 -2.29199 0.00766941 0
M  V30 2352 C 238.459 -1.43389 -0.727745 0
M  V30 2353 O 239.649 -1.64764 -0.56556 0
M  V30 2354 C 236.781 -3.2591 -0.999785 0
M  V30 2355 H 237.974 -2.89794 0.771988 0
M  V30 2356 H 235.527 -1.50024 0.438468 0
M  V30 2357 H 236.262 -2.70256 -1.79255 0
M  V30 2358 H 236.047 -3.89202 -0.475829 0
M  V30 2359 H 237.537 -3.91028 -1.46583 0
M  V30 2360 N 237.974 -0.419461 -1.51915 0
M  V30 2361 C 238.904 0.391813 -2.30189 0
M  V30 2362 C 239.885 1.03699 -1.34836 0
M  V30 2363 O 241.07 1.04403 -1.63748 0
M  V30 2364 C 238.2 1.50312 -3.13087 0
M  V30 2365 C 237.154 0.9824 -4.16573 0
M  V30 2366 C 236.48 2.18809 -4.8788 0
M  V30 2367 C 237.78 0.0292356 -5.22292 0
M  V30 2368 H 239.474 -0.26135 -2.98257 0
M  V30 2369 H 237.02 -0.127134 -1.43438 0
M  V30 2370 H 238.973 2.07773 -3.66617 0
M  V30 2371 H 237.697 2.18431 -2.42807 0
M  V30 2372 H 236.356 0.430119 -3.64068 0
M  V30 2373 H 236.004 2.85507 -4.14119 0
M  V30 2374 H 235.704 1.84615 -5.57845 0
M  V30 2375 H 237.228 2.76858 -5.44226 0
M  V30 2376 H 238.642 0.512976 -5.71 0
M  V30 2377 H 237.039 -0.2244 -5.9968 0
M  V30 2378 H 238.109 -0.912931 -4.76228 0
M  V30 2379 N 239.452 1.56882 -0.150215 0
M  V30 2380 C 240.863 1.82995 0.370076 0
M  V30 2381 C 241.214 1.06907 1.64515 0
M  V30 2382 O 240.339 0.315369 2.1409 0
M  V30 2383 C 240.934 3.31942 0.678208 0
M  V30 2384 C 239.493 3.58625 1.14301 0
M  V30 2385 C 238.64 2.76792 0.167778 0
M  V30 2386 H 241.591 1.54209 -0.374858 0
M  V30 2387 H 241.612 3.48272 1.53254 0
M  V30 2388 H 241.124 3.87294 -0.249991 0
M  V30 2389 H 239.225 3.08664 2.08704 0
M  V30 2390 H 239.338 4.67073 1.06676 0
M  V30 2391 H 237.702 2.45972 0.661037 0
M  V30 2392 H 238.485 3.34916 -0.754069 0
M  V30 2393 N 240.93 -0.123565 1.57115 0
M  V30 2394 C 242.155 -0.850398 1.89164 0
M  V30 2395 C 242.58 -1.7286 0.741688 0
M  V30 2396 O 241.938 -1.78665 -0.307958 0
M  V30 2397 C 241.986 -1.66353 3.19936 0
M  V30 2398 O 241.09 -2.77004 3.0552 0
M  V30 2399 H 240.431 -0.235454 0.620852 0
M  V30 2400 H 242.961 -0.107335 2.04318 0
M  V30 2401 H 242.971 -2.05372 3.52543 0
M  V30 2402 H 241.646 -1.01881 4.03228 0
M  V30 2403 H 240.223 -2.41221 2.84371 0
M  V30 2404 N 242.408 -1.52605 -0.393616 0
M  V30 2405 C 243.656 -1.67093 -1.13685 0
M  V30 2406 C 243.977 -0.411011 -1.90619 0
M  V30 2407 O 243.247 0.574491 -1.87287 0
M  V30 2408 H 241.827 -0.615923 -0.422668 0
M  V30 2409 H 244.489 -1.89704 -0.447039 0
M  V30 2410 H 243.585 -2.51922 -1.84232 0
M  V30 2411 N 243.887 0.651787 -1.4349 0
M  V30 2412 C 245.127 1.42345 -1.46688 0
M  V30 2413 C 245.491 1.91793 -0.0891023 0
M  V30 2414 O 246.692 2.688 0.00423594 0
M  V30 2415 C 244.963 2.57221 -2.48137 0
M  V30 2416 S 246.522 3.45725 -2.70221 0
M  V30 2417 H 243.34 0.485878 -0.51908 0
M  V30 2418 H 245.942 0.756578 -1.80267 0
M  V30 2419 H 244.646 2.1917 -3.46976 0
M  V30 2420 H 244.177 3.28757 -2.16061 0
M  V30 2421 H 246.192 4.53996 -2.00255 0
M  V30 2422 N 245.365 1.30045 0.890287 0
M  V30 2423 C 246.595 1.21296 1.67245 0
M  V30 2424 C 247.003 -0.227471 1.87828 0
M  V30 2425 O 246.346 -1.16296 1.422 0
M  V30 2426 C 246.408 1.86519 3.07329 0
M  V30 2427 C 246.072 3.35837 3.09939 0
M  V30 2428 C 247.069 4.31915 2.89389 0
M  V30 2429 C 244.754 3.77196 3.31706 0
M  V30 2430 C 246.748 5.67325 2.90552 0
M  V30 2431 C 244.435 5.12725 3.32499 0
M  V30 2432 C 245.433 6.076 3.11947 0
M  V30 2433 O 245.121 7.40655 3.12547 0
M  V30 2434 H 244.853 0.4211 0.528821 0
M  V30 2435 H 247.407 1.72111 1.12103 0
M  V30 2436 H 245.637 1.30228 3.64112 0
M  V30 2437 H 247.326 1.71963 3.67673 0
M  V30 2438 H 248.092 4.01294 2.72375 0
M  V30 2439 H 243.971 3.03796 3.4674 0
M  V30 2440 H 247.515 6.41354 2.74429 0
M  V30 2441 H 243.412 5.42988 3.49047 0
M  V30 2442 H 244.18 7.49577 3.28749 0
M  V30 2443 N 246.843 -1.10192 1.12674 0
M  V30 2444 C 248.091 -1.81845 0.881861 0
M  V30 2445 C 248.412 -1.85737 -0.593867 0
M  V30 2446 O 247.682 -1.33724 -1.4316 0
M  V30 2447 H 246.262 -0.673432 0.323261 0
M  V30 2448 H 248.924 -1.33316 1.42172 0
M  V30 2449 H 248.02 -2.85288 1.2656 0
M  V30 2450 N 248.321 -0.919034 -1.28029 0
M  V30 2451 C 249.737 -0.617972 -1.4715 0
M  V30 2452 C 249.937 0.835242 -1.83374 0
M  V30 2453 O 248.993 1.61388 -1.94191 0
M  V30 2454 C 250.306 -1.56041 -2.57044 0
M  V30 2455 C 251.854 -1.56769 -2.7091 0
M  V30 2456 C 252.329 -2.49688 -3.83953 0
M  V30 2457 N 253.82 -2.47845 -3.91314 0
M  V30 2458 C 254.555 -3.16437 -4.78179 0
M  V30 2459 N 254.051 -3.94376 -5.69596 0
M  V30 2460 N 255.844 -3.05498 -4.71834 0
M  V30 2461 H 247.995 -1.85866 -1.02798 0
M  V30 2462 H 250.258 -0.797506 -0.512531 0
M  V30 2463 H 249.964 -2.59671 -2.372 0
M  V30 2464 H 249.838 -1.29551 -3.54255 0
M  V30 2465 H 252.225 -0.538745 -2.90141 0
M  V30 2466 H 252.306 -1.87305 -1.74214 0
M  V30 2467 H 251.95 -3.52688 -3.65477 0
M  V30 2468 H 251.88 -2.16453 -4.80058 0
M  V30 2469 H 254.371 -1.91234 -3.25941 0
M  V30 2470 H 254.684 -4.43721 -6.32718 0
M  V30 2471 H 253.029 -3.98481 -5.69419 0
M  V30 2472 H 256.22 -2.44108 -3.99411 0
M  V30 2473 H 256.393 -3.59225 -5.39316 0
M  V30 2474 N 249.799 1.42003 -0.683588 0
M  V30 2475 C 251.045 2.01712 -0.209825 0
M  V30 2476 C 251.378 1.53968 1.18353 0
M  V30 2477 O 250.653 0.745661 1.79639 0
M  V30 2478 C 250.936 3.59202 -0.254197 0
M  V30 2479 C 250.789 4.17102 -1.68363 0
M  V30 2480 C 252.108 4.38344 0.392709 0
M  V30 2481 H 249.227 0.732891 -0.0777189 0
M  V30 2482 H 251.869 1.68909 -0.87004 0
M  V30 2483 H 250.019 3.87278 0.307954 0
M  V30 2484 H 251.691 3.99946 -2.29871 0
M  V30 2485 H 249.934 3.72597 -2.22157 0
M  V30 2486 H 250.605 5.26249 -1.6663 0
M  V30 2487 H 253.081 4.16011 -0.0859162 0
M  V30 2488 H 251.957 5.47901 0.331063 0
M  V30 2489 H 252.218 4.16887 1.47164 0
M  V30 2490 N 251.277 0.427512 1.51691 0
M  V30 2491 C 252.24 -0.377132 2.26076 0
M  V30 2492 C 253.24 -0.958089 1.29141 0
M  V30 2493 O 254.43 -0.83408 1.52934 0
M  V30 2494 C 251.562 -1.53262 3.04506 0
M  V30 2495 H 252.755 0.27464 2.9864 0
M  V30 2496 H 250.308 0.180445 1.55255 0
M  V30 2497 H 251.043 -2.22072 2.36335 0
M  V30 2498 H 250.828 -1.12232 3.75694 0
M  V30 2499 H 252.318 -2.10135 3.60878 0
M  V30 2500 N 252.755 -1.56801 0.158532 0
M  V30 2501 C 254.166 -1.83189 -0.360366 0
M  V30 2502 C 254.517 -1.07778 -1.63946 0
M  V30 2503 O 253.642 -0.326718 -2.13919 0
M  V30 2504 C 254.237 -3.32297 -0.660595 0
M  V30 2505 C 252.796 -3.59227 -1.12398 0
M  V30 2506 C 251.943 -2.76877 -0.153097 0
M  V30 2507 H 254.894 -1.54008 0.383031 0
M  V30 2508 H 254.915 -3.4908 -1.51405 0
M  V30 2509 H 254.427 -3.87156 0.270527 0
M  V30 2510 H 252.528 -3.09766 -2.07064 0
M  V30 2511 H 252.641 -4.67632 -1.04197 0
M  V30 2512 H 251.005 -2.46319 -0.647983 0
M  V30 2513 H 251.788 -3.34511 0.77182 0
M  V30 2514 N 254.233 0.115231 -1.57178 0
M  V30 2515 C 255.649 0.468877 -1.52557 0
M  V30 2516 C 255.849 1.81649 -0.872125 0
M  V30 2517 O 254.905 2.48347 -0.45606 0
M  V30 2518 C 256.218 0.4499 -2.97315 0
M  V30 2519 C 257.766 0.533185 -3.08425 0
M  V30 2520 C 258.241 0.54456 -4.54751 0
M  V30 2521 N 259.732 0.605892 -4.5922 0
M  V30 2522 C 260.467 0.636203 -5.6986 0
M  V30 2523 N 259.963 0.623931 -6.89985 0
M  V30 2524 N 261.756 0.679496 -5.57978 0
M  V30 2525 H 253.907 -0.767712 -1.9804 0
M  V30 2526 H 256.17 -0.283609 -0.904583 0
M  V30 2527 H 255.876 -0.472721 -3.48509 0
M  V30 2528 H 255.75 1.27632 -3.5495 0
M  V30 2529 H 258.137 1.44623 -2.57232 0
M  V30 2530 H 258.218 -0.320995 -2.53778 0
M  V30 2531 H 257.862 -0.364452 -5.06591 0
M  V30 2532 H 257.792 1.41568 -5.07214 0
M  V30 2533 H 260.283 0.621386 -3.72756 0
M  V30 2534 H 260.596 0.649787 -7.70063 0
M  V30 2535 H 258.941 0.591296 -6.9248 0
M  V30 2536 H 262.132 0.686472 -4.63039 0
M  V30 2537 H 262.305 0.69965 -6.44212 0
M  V30 2538 N 255.711 1.52812 0.385517 0
M  V30 2539 C 256.936 1.72207 1.15583 0
M  V30 2540 C 257.361 0.441034 1.82857 0
M  V30 2541 O 256.719 -0.603465 1.70962 0
M  V30 2542 C 256.767 2.87476 2.17692 0
M  V30 2543 O 255.871 2.54693 3.24354 0
M  V30 2544 H 255.212 0.572526 0.336319 0
M  V30 2545 H 257.742 1.99618 0.448744 0
M  V30 2546 H 257.752 3.13072 2.6163 0
M  V30 2547 H 256.427 3.80408 1.68115 0
M  V30 2548 H 255.004 2.3985 2.85529 0
M  V30 2549 N 257.189 -0.644168 1.43834 0
M  V30 2550 C 258.437 -1.40117 1.45642 0
M  V30 2551 C 258.758 -1.94814 0.0852413 0
M  V30 2552 O 258.028 -1.74988 -0.880688 0
M  V30 2553 H 256.608 -0.52005 0.536243 0
M  V30 2554 H 259.27 -0.7591 1.7951 0
M  V30 2555 H 258.366 -2.23902 2.17427 0
M  V30 2556 N 258.668 -1.30515 -0.883378 0
M  V30 2557 C 259.598 -1.19607 -2.00541 0
M  V30 2558 C 260.579 -0.086346 -1.69881 0
M  V30 2559 O 261.764 -0.268654 -1.92333 0
M  V30 2560 C 258.894 -0.888758 -3.35736 0
M  V30 2561 C 257.848 -1.95659 -3.8066 0
M  V30 2562 C 257.174 -1.50224 -5.13164 0
M  V30 2563 C 258.474 -3.36788 -3.99213 0
M  V30 2564 H 260.168 -2.13476 -2.09925 0
M  V30 2565 H 257.714 -1.02775 -1.00863 0
M  V30 2566 H 259.667 -0.799094 -4.13754 0
M  V30 2567 H 258.391 0.0856125 -3.26488 0
M  V30 2568 H 257.05 -2.03591 -3.04871 0
M  V30 2569 H 256.698 -0.516092 -5.00345 0
M  V30 2570 H 256.398 -2.2165 -5.44192 0
M  V30 2571 H 257.922 -1.42639 -5.93706 0
M  V30 2572 H 259.336 -3.31605 -4.67665 0
M  V30 2573 H 257.733 -4.06314 -4.41621 0
M  V30 2574 H 258.803 -3.78561 -3.03017 0
M  V30 2575 N 260.146 1.09593 -1.13257 0
M  V30 2576 C 261.109 2.14359 -0.811358 0
M  V30 2577 C 262.109 1.59808 0.178377 0
M  V30 2578 O 263.299 1.74132 -0.0484911 0
M  V30 2579 C 260.431 3.40269 -0.207276 0
M  V30 2580 H 261.624 2.44284 -1.73969 0
M  V30 2581 H 259.177 1.25102 -0.936973 0
M  V30 2582 H 259.912 3.15969 0.73036 0
M  V30 2583 H 259.697 3.81154 -0.919992 0
M  V30 2584 H 261.187 4.176 0.000667944 0
M  V30 2585 N 261.624 0.925811 1.2754 0
M  V30 2586 C 262.587 0.428129 2.25166 0
M  V30 2587 C 263.587 -0.452261 1.54309 0
M  V30 2588 O 264.777 -0.253608 1.72344 0
M  V30 2589 C 261.909 -0.384749 3.38722 0
M  V30 2590 H 263.102 1.29066 2.70706 0
M  V30 2591 H 260.655 0.706323 1.3943 0
M  V30 2592 H 261.39 -1.26618 2.98561 0
M  V30 2593 H 261.175 0.246454 3.91325 0
M  V30 2594 H 262.665 -0.723389 4.11287 0
M  V30 2595 N 263.102 -1.41638 0.69111 0
M  V30 2596 C 264.049 -2.30789 0.0229705 0
M  V30 2597 C 265.019 -1.46863 -0.775911 0
M  V30 2598 O 266.204 -1.75661 -0.74485 0
M  V30 2599 C 263.344 -3.32868 -0.910666 0
M  V30 2600 C 262.457 -4.31875 -0.103874 0
M  V30 2601 C 261.592 -5.21024 -1.03475 0
M  V30 2602 C 260.631 -6.11702 -0.220598 0
M  V30 2603 N 259.768 -6.93349 -1.10504 0
M  V30 2604 H 264.608 -2.87366 0.788978 0
M  V30 2605 H 262.145 -1.41535 0.400794 0
M  V30 2606 H 264.103 -3.90596 -1.46597 0
M  V30 2607 H 262.733 -2.77851 -1.64312 0
M  V30 2608 H 261.785 -3.76131 0.568285 0
M  V30 2609 H 263.097 -4.96003 0.527504 0
M  V30 2610 H 262.251 -5.83565 -1.65943 0
M  V30 2611 H 260.99 -4.57112 -1.69999 0
M  V30 2612 H 259.995 -5.48215 0.417187 0
M  V30 2613 H 261.22 -6.77668 0.440784 0
M  V30 2614 H 259.166 -6.3205 -1.75638 0
M  V30 2615 H 259.083 -7.54146 -0.529125 0
M  V30 2616 H 260.351 -7.60362 -1.71667 0
M  V30 2617 N 264.58 -0.43555 -1.51462 0
M  V30 2618 C 265.53 0.394701 -2.24558 0
M  V30 2619 C 266.514 0.99157 -1.26715 0
M  V30 2620 O 267.706 0.910007 -1.51815 0
M  V30 2621 C 264.835 1.4963 -3.08975 0
M  V30 2622 C 263.921 0.908912 -4.14246 0
M  V30 2623 N 264.312 0.0505335 -5.05775 0
M  V30 2624 C 262.61 1.17668 -4.30198 0
M  V30 2625 C 263.311 -0.279161 -5.8103 0
M  V30 2626 N 262.287 0.336767 -5.42556 0
M  V30 2627 H 266.089 -0.267106 -2.92684 0
M  V30 2628 H 263.603 -0.247518 -1.60503 0
M  V30 2629 H 265.6 2.10394 -3.59917 0
M  V30 2630 H 264.26 2.16046 -2.42393 0
M  V30 2631 H 265.271 -0.31577 -5.16936 0
M  V30 2632 H 261.948 1.83847 -3.74842 0
M  V30 2633 H 263.338 -0.977553 -6.64751 0
M  V30 2634 N 266.058 1.56714 -0.166846 0
M  V30 2635 C 267.305 1.96747 0.479252 0
M  V30 2636 C 267.633 1.05263 1.63554 0
M  V30 2637 O 266.888 0.0858098 1.95512 0
M  V30 2638 C 267.187 3.42889 1.00806 0
M  V30 2639 C 266.853 4.50889 -0.0318574 0
M  V30 2640 C 265.515 4.8015 -0.317675 0
M  V30 2641 C 267.867 5.15949 -0.737956 0
M  V30 2642 C 265.195 5.71772 -1.31506 0
M  V30 2643 C 267.547 6.08647 -1.72429 0
M  V30 2644 C 266.211 6.36277 -2.0176 0
M  V30 2645 H 265.481 0.719949 0.175371 0
M  V30 2646 H 268.128 1.89756 -0.257864 0
M  V30 2647 H 266.433 3.4681 1.82291 0
M  V30 2648 H 268.13 3.71203 1.51689 0
M  V30 2649 H 264.72 4.28128 0.201088 0
M  V30 2650 H 268.904 4.93458 -0.530351 0
M  V30 2651 H 264.16 5.91465 -1.54853 0
M  V30 2652 H 268.334 6.58129 -2.27682 0
M  V30 2653 H 265.961 7.07075 -2.79194 0
M  V30 2654 N 267.536 -0.106894 1.57237 0
M  V30 2655 C 268.785 -0.811163 1.8467 0
M  V30 2656 C 269.098 -1.80469 0.754342 0
M  V30 2657 O 270.304 -2.55601 0.915439 0
M  V30 2658 C 268.76 -1.49337 3.27454 0
M  V30 2659 C 268.368 -0.540217 4.44731 0
M  V30 2660 C 270.112 -2.18206 3.64124 0
M  V30 2661 C 268.019 -1.22634 5.78545 0
M  V30 2662 H 266.949 -0.306679 0.688813 0
M  V30 2663 H 269.6 -0.0639887 1.83388 0
M  V30 2664 H 267.982 -2.2876 3.23241 0
M  V30 2665 H 269.156 0.221659 4.60267 0
M  V30 2666 H 267.471 0.042146 4.16379 0
M  V30 2667 H 270.068 -2.70253 4.61376 0
M  V30 2668 H 270.411 -2.96562 2.92158 0
M  V30 2669 H 270.944 -1.45658 3.70174 0
M  V30 2670 H 267.683 -0.483832 6.53712 0
M  V30 2671 H 267.203 -1.95993 5.66874 0
M  V30 2672 H 268.882 -1.75615 6.2271 0
M  V30 2673 N 269.014 -1.53014 -0.377408 0
M  V30 2674 C 270.291 -1.59215 -1.13622 0
M  V30 2675 C 270.671 -0.392407 -2.07421 0
M  V30 2676 O 270.019 0.618342 -2.19975 0
M  V30 2677 C 270.229 -2.93669 -1.88573 0
M  V30 2678 C 271.577 -3.47822 -2.43526 0
M  V30 2679 O 272.601 -2.9562 -1.98715 0
M  V30 2680 O 271.46 -4.39055 -3.25412 0
M  V30 2681 H 268.554 -0.642625 -0.52054 0
M  V30 2682 H 271.1 -1.65353 -0.381625 0
M  V30 2683 H 269.872 -3.7243 -1.20048 0
M  V30 2684 H 269.495 -2.90968 -2.70968 0
M  V30 2685 N 270.492 0.636531 -1.44174 0
M  V30 2686 C 271.738 1.39826 -1.4689 0
M  V30 2687 C 272.071 1.93947 -0.0990585 0
M  V30 2688 O 271.346 1.73325 0.882544 0
M  V30 2689 C 271.629 2.56751 -2.5249 0
M  V30 2690 C 271.482 2.08014 -3.98811 0
M  V30 2691 C 272.801 3.58946 -2.54649 0
M  V30 2692 H 269.92 0.507075 -0.53483 0
M  V30 2693 H 272.562 0.720188 -1.75822 0
M  V30 2694 H 270.712 3.14597 -2.2795 0
M  V30 2695 H 272.384 1.5504 -4.34466 0
M  V30 2696 H 270.627 1.39242 -4.10846 0
M  V30 2697 H 271.298 2.92169 -4.68339 0
M  V30 2698 H 273.774 3.1089 -2.76563 0
M  V30 2699 H 272.65 4.38286 -3.3045 0
M  V30 2700 H 272.911 4.12655 -1.58646 0
M  V30 2701 N 271.97 1.30982 0.876444 0
M  V30 2702 C 273.218 1.20058 1.62575 0
M  V30 2703 C 273.539 -0.242947 1.93481 0
M  V30 2704 O 272.809 -1.1619 1.57724 0
M  V30 2705 H 271.389 0.44135 0.602677 0
M  V30 2706 H 274.051 1.64222 1.04962 0
M  V30 2707 H 273.147 1.76762 2.57219 0
M  V30 2708 N 273.449 -1.08991 1.13837 0
M  V30 2709 C 274.412 -2.13925 0.822715 0
M  V30 2710 C 275.412 -1.599 -0.1699 0
M  V30 2711 O 276.602 -1.74104 0.0577251 0
M  V30 2712 C 273.734 -3.40155 0.225318 0
M  V30 2713 H 274.927 -2.43358 1.75262 0
M  V30 2714 H 272.48 -1.24603 0.943594 0
M  V30 2715 H 273.215 -3.16352 -0.713594 0
M  V30 2716 H 273 -3.80661 0.940193 0
M  V30 2717 H 274.49 -4.17594 0.0214784 0
M  V30 2718 N 274.927 -0.932562 -1.27047 0
M  V30 2719 C 276.175 -0.574422 -1.93765 0
M  V30 2720 C 276.496 0.887993 -1.73608 0
M  V30 2721 O 275.766 1.62999 -1.08665 0
M  V30 2722 H 274.346 -0.209451 -0.717035 0
M  V30 2723 H 277.008 -1.18601 -1.5466 0
M  V30 2724 H 276.104 -0.784841 -3.02071 0
M  V30 2725 N 276.405 1.4127 -0.698611 0
M  V30 2726 C 277.651 2.01478 -0.231207 0
M  V30 2727 C 277.984 1.55215 1.16713 0
M  V30 2728 O 277.259 0.764672 1.78838 0
M  V30 2729 C 277.542 3.58912 -0.292281 0
M  V30 2730 C 277.395 4.15293 -1.72778 0
M  V30 2731 C 278.714 4.38736 0.346194 0
M  V30 2732 H 275.833 0.732025 -0.0854878 0
M  V30 2733 H 278.475 1.67977 -0.887906 0
M  V30 2734 H 276.625 3.87582 0.26686 0
M  V30 2735 H 278.297 3.97486 -2.341 0
M  V30 2736 H 276.54 3.7022 -2.26096 0
M  V30 2737 H 277.211 5.24452 -1.72202 0
M  V30 2738 H 279.687 4.15897 -0.130035 0
M  V30 2739 H 278.563 5.48221 0.272932 0
M  V30 2740 H 278.824 4.18425 1.42734 0
M  V30 2741 N 277.883 0.443576 1.51229 0
M  V30 2742 C 279.132 -0.122332 2.01329 0
M  V30 2743 C 279.445 -1.43237 1.33201 0
M  V30 2744 O 280.651 -2.0816 1.74304 0
M  V30 2745 C 279.107 -0.268551 3.58897 0
M  V30 2746 C 278.715 1.03142 4.35965 0
M  V30 2747 C 280.459 -0.787894 4.17124 0
M  V30 2748 C 278.366 0.850504 5.85252 0
M  V30 2749 H 277.296 -0.0494929 0.752374 0
M  V30 2750 H 279.947 0.574289 1.74282 0
M  V30 2751 H 278.329 -1.02832 3.82415 0
M  V30 2752 H 279.503 1.80001 4.24189 0
M  V30 2753 H 277.818 1.47977 3.89219 0
M  V30 2754 H 280.415 -0.939841 5.26375 0
M  V30 2755 H 280.758 -1.77201 3.76703 0
M  V30 2756 H 281.291 -0.0862669 3.97706 0
M  V30 2757 H 278.03 1.80718 6.30096 0
M  V30 2758 H 277.55 0.121825 5.99676 0
M  V30 2759 H 279.229 0.506163 6.45017 0
M  V30 2760 N 279.361 -1.56624 0.175154 0
M  V30 2761 C 280.638 -1.88688 -0.515373 0
M  V30 2762 C 281.018 -1.08564 -1.81044 0
M  V30 2763 O 280.366 -0.180703 -2.27784 0
M  V30 2764 C 280.576 -3.40768 -0.753552 0
M  V30 2765 C 281.924 -4.10587 -1.08184 0
M  V30 2766 O 282.948 -3.46106 -0.841961 0
M  V30 2767 O 281.807 -5.24512 -1.53459 0
M  V30 2768 H 278.901 -0.78301 -0.26613 0
M  V30 2769 H 281.447 -1.68347 0.213877 0
M  V30 2770 H 280.219 -3.90965 0.161829 0
M  V30 2771 H 279.842 -3.66733 -1.53598 0
M  V30 2772 N 280.839 0.0985539 -1.57292 0
M  V30 2773 C 281.749 1.13824 -2.05137 0
M  V30 2774 C 282.765 1.44076 -0.975604 0
M  V30 2775 O 283.941 1.54786 -1.28853 0
M  V30 2776 C 281.006 2.43969 -2.46333 0
M  V30 2777 C 280.067 2.2093 -3.68087 0
M  V30 2778 C 279.3 3.44869 -4.0731 0
M  V30 2779 O 279.523 4.52972 -3.46659 0
M  V30 2780 O 278.457 3.34661 -5.00285 0
M  V30 2781 H 282.283 0.761881 -2.93988 0
M  V30 2782 H 279.868 0.310818 -1.46131 0
M  V30 2783 H 281.75 3.20609 -2.73473 0
M  V30 2784 H 280.425 2.81038 -1.60621 0
M  V30 2785 H 279.332 1.42081 -3.46069 0
M  V30 2786 H 280.665 1.88755 -4.54568 0
M  V30 2787 N 282.317 1.53212 0.369288 0
M  V30 2788 C 283.594 1.59815 1.12776 0
M  V30 2789 C 283.974 0.403402 2.0721 0
M  V30 2790 O 283.322 -0.606667 2.20299 0
M  V30 2791 C 283.532 2.94664 1.87013 0
M  V30 2792 C 284.88 3.49109 2.41677 0
M  V30 2793 O 285.904 2.96669 1.97144 0
M  V30 2794 O 284.763 4.40775 3.23079 0
M  V30 2795 H 281.857 0.645376 0.517125 0
M  V30 2796 H 284.403 1.65553 0.37285 0
M  V30 2797 H 283.175 3.73061 1.18071 0
M  V30 2798 H 282.798 2.92401 2.69421 0
M  V30 2799 N 283.795 -0.628877 1.44509 0
M  V30 2800 C 285.025 -1.41349 1.50678 0
M  V30 2801 C 285.433 -1.88745 0.131075 0
M  V30 2802 O 284.776 -1.61592 -0.87371 0
M  V30 2803 C 284.838 -2.66608 2.41165 0
M  V30 2804 C 284.502 -2.40993 3.88293 0
M  V30 2805 C 285.499 -2.0268 4.78766 0
M  V30 2806 C 283.184 -2.54563 4.33016 0
M  V30 2807 C 285.178 -1.78269 6.11963 0
M  V30 2808 C 282.865 -2.29766 5.6626 0
M  V30 2809 C 283.863 -1.91678 6.55552 0
M  V30 2810 O 283.551 -1.67158 7.86329 0
M  V30 2811 H 283.283 -0.439851 0.51333 0
M  V30 2812 H 285.837 -0.776084 1.90174 0
M  V30 2813 H 284.067 -3.32994 1.96601 0
M  V30 2814 H 285.756 -3.28615 2.38259 0
M  V30 2815 H 286.522 -1.91751 4.45485 0
M  V30 2816 H 282.401 -2.83179 3.63773 0
M  V30 2817 H 285.945 -1.48465 6.81619 0
M  V30 2818 H 281.842 -2.40306 5.99102 0
M  V30 2819 H 282.61 -1.81386 7.98149 0
M  V30 2820 N 285.273 -1.31445 -0.869486 0
M  V30 2821 C 286.689 -1.10113 -1.15531 0
M  V30 2822 C 286.889 0.128087 -2.01092 0
M  V30 2823 O 285.945 0.817276 -2.38908 0
M  V30 2824 C 287.258 -2.37291 -1.84698 0
M  V30 2825 C 288.806 -2.42906 -1.97397 0
M  V30 2826 C 289.281 -3.69967 -2.69979 0
M  V30 2827 N 290.772 -3.70864 -2.77514 0
M  V30 2828 C 291.507 -4.65875 -3.34287 0
M  V30 2829 N 291.003 -5.71242 -3.91988 0
M  V30 2830 N 292.796 -4.53394 -3.3225 0
M  V30 2831 H 284.947 -2.1028 -0.299347 0
M  V30 2832 H 287.21 -0.927683 -0.195214 0
M  V30 2833 H 286.916 -3.27078 -1.29278 0
M  V30 2834 H 286.79 -2.47125 -2.84972 0
M  V30 2835 H 289.177 -1.53588 -2.51982 0
M  V30 2836 H 289.258 -2.37036 -0.961643 0
M  V30 2837 H 288.902 -4.59652 -2.16062 0
M  V30 2838 H 288.832 -3.73103 -3.7162 0
M  V30 2839 H 291.323 -2.94697 -2.36563 0
M  V30 2840 H 291.636 -6.39817 -4.33421 0
M  V30 2841 H 289.981 -5.75015 -3.90362 0
M  V30 2842 H 293.172 -3.70252 -2.8641 0
M  V30 2843 H 293.345 -5.27617 -3.76197 0
M  V30 2844 N 286.751 1.08385 -1.14413 0
M  V30 2845 C 287.999 1.80419 -0.910679 0
M  V30 2846 C 288.32 1.86658 0.564243 0
M  V30 2847 O 287.59 1.35985 1.41014 0
M  V30 2848 H 286.17 0.668204 -0.333934 0
M  V30 2849 H 288.832 1.31037 -1.44275 0
M  V30 2850 H 287.928 2.83238 -1.31082 0
M  V30 2851 N 288.23 0.939286 1.26551 0
M  V30 2852 C 289.178 0.43815 2.28436 0
M  V30 2853 C 290.172 -0.483587 1.62351 0
M  V30 2854 O 291.378 -0.362009 1.76322 0
M  V30 2855 H 287.753 0.123149 0.741848 0
M  V30 2856 H 289.724 1.31002 2.68106 0
M  V30 2857 C 288.473 -0.283052 3.46546 0
M  V30 2858 H 287.796 0.417043 3.97619 0
M  V30 2859 H 289.236 -0.597948 4.19763 0
M  V30 2860 C 287.695 -1.50018 3.01656 0
M  V30 2861 O 288.225 -2.59855 3.0633 0
M  V30 2862 N 286.431 -1.35608 2.57019 0
M  V30 2863 H 285.978 -0.46244 2.53415 0
M  V30 2864 H 285.936 -2.17165 2.27347 0
M  V30 2865 N 289.708 -1.40897 0.706093 0
M  V30 2866 C 290.954 -2.01352 0.241889 0
M  V30 2867 C 291.287 -1.55832 -1.15888 0
M  V30 2868 O 290.562 -0.774145 -1.7843 0
M  V30 2869 C 290.845 -3.58752 0.311311 0
M  V30 2870 C 290.698 -4.1437 1.74978 0
M  V30 2871 C 292.017 -4.38914 -0.322922 0
M  V30 2872 H 289.136 -0.731562 0.0893687 0
M  V30 2873 H 291.778 -1.67504 0.896802 0
M  V30 2874 H 289.928 -3.87718 -0.246302 0
M  V30 2875 H 291.6 -3.96239 2.36205 0
M  V30 2876 H 289.843 -3.69016 2.28057 0
M  V30 2877 H 290.514 -5.23532 1.74981 0
M  V30 2878 H 292.99 -4.15822 0.152089 0
M  V30 2879 H 291.866 -5.48358 -0.243855 0
M  V30 2880 H 292.127 -4.19176 -1.40513 0
M  V30 2881 N 291.186 -0.45159 -1.50991 0
M  V30 2882 C 292.434 0.109857 -2.01801 0
M  V30 2883 C 292.755 1.41958 -1.3369 0
M  V30 2884 O 292.025 1.9003 -0.475951 0
M  V30 2885 H 290.605 0.0435884 -0.745727 0
M  V30 2886 H 293.267 -0.597557 -1.85514 0
M  V30 2887 H 292.363 0.275489 -3.10882 0
M  V30 2888 N 292.664 1.56529 -0.183458 0
M  V30 2889 C 293.91 1.97537 0.459036 0
M  V30 2890 C 294.243 1.06989 1.62071 0
M  V30 2891 O 293.518 0.11948 1.94133 0
M  V30 2892 C 293.801 3.47874 0.930368 0
M  V30 2893 C 293.654 4.492 -0.232317 0
M  V30 2894 C 294.973 4.01612 1.79989 0
M  V30 2895 H 292.092 0.718204 0.165383 0
M  V30 2896 H 294.734 1.88042 -0.272038 0
M  V30 2897 H 292.884 3.56095 1.55333 0
M  V30 2898 H 294.556 4.53027 -0.86972 0
M  V30 2899 H 292.799 4.24657 -0.885928 0
M  V30 2900 H 293.47 5.51823 0.139796 0
M  V30 2901 H 295.946 3.96097 1.27461 0
M  V30 2902 H 294.822 5.07195 2.09867 0
M  V30 2903 H 295.083 3.46163 2.74998 0
M  V30 2904 N 294.142 -0.090211 1.57342 0
M  V30 2905 C 295.388 -0.793982 1.86611 0
M  V30 2906 C 295.721 -1.78142 0.773252 0
M  V30 2907 O 294.996 -1.93271 -0.218304 0
M  V30 2908 C 295.279 -1.51839 3.26523 0
M  V30 2909 C 295.132 -0.548609 4.46442 0
M  V30 2910 C 296.451 -2.46779 3.64401 0
M  V30 2911 H 293.57 -0.287186 0.678744 0
M  V30 2912 H 296.212 -0.0575076 1.89913 0
M  V30 2913 H 294.362 -2.14617 3.23839 0
M  V30 2914 H 296.034 0.0725513 4.61243 0
M  V30 2915 H 294.277 0.137614 4.33582 0
M  V30 2916 H 294.948 -1.09271 5.41076 0
M  V30 2917 H 297.424 -1.94089 3.68061 0
M  V30 2918 H 296.3 -2.94479 4.63221 0
M  V30 2919 H 296.561 -3.30758 2.93346 0
M  V30 2920 N 295.62 -1.53406 -0.361157 0
M  V30 2921 C 296.55 -1.83136 -1.44857 0
M  V30 2922 C 297.531 -0.685174 -1.5569 0
M  V30 2923 O 298.716 -0.93544 -1.70186 0
M  V30 2924 C 295.846 -2.02522 -2.82138 0
M  V30 2925 C 294.8 -3.18302 -2.86126 0
M  V30 2926 C 294.126 -3.22989 -4.26125 0
M  V30 2927 C 295.426 -4.56796 -2.53248 0
M  V30 2928 H 297.12 -2.74201 -1.20226 0
M  V30 2929 H 294.666 -1.31938 -0.576922 0
M  V30 2930 H 296.619 -2.21904 -3.58241 0
M  V30 2931 H 295.343 -1.08172 -3.08166 0
M  V30 2932 H 294.002 -2.98747 -2.12475 0
M  V30 2933 H 293.65 -2.26267 -4.49235 0
M  V30 2934 H 293.35 -4.00781 -4.29708 0
M  V30 2935 H 294.874 -3.44559 -5.04094 0
M  V30 2936 H 296.288 -4.7631 -3.19064 0
M  V30 2937 H 294.685 -5.36862 -2.68141 0
M  V30 2938 H 295.755 -4.61606 -1.48484 0
M  V30 2939 N 297.098 0.621204 -1.44841 0
M  V30 2940 C 298.345 1.38055 -1.48145 0
M  V30 2941 C 298.673 1.94143 -0.117867 0
M  V30 2942 O 297.928 1.74713 0.881694 0
M  V30 2943 C 298.227 2.55675 -2.4973 0
M  V30 2944 C 297.893 2.17817 -3.94799 0
M  V30 2945 C 296.555 2.07205 -4.34303 0
M  V30 2946 C 298.907 1.88065 -4.86087 0
M  V30 2947 C 296.235 1.65045 -5.63007 0
M  V30 2948 C 298.587 1.47394 -6.15189 0
M  V30 2949 C 297.251 1.35331 -6.53637 0
M  V30 2950 H 296.521 0.505181 -0.542101 0
M  V30 2951 H 299.168 0.703477 -1.78111 0
M  V30 2952 H 297.473 3.2866 -2.13284 0
M  V30 2953 H 299.17 3.13904 -2.4953 0
M  V30 2954 H 295.76 2.26998 -3.63552 0
M  V30 2955 H 299.944 1.95168 -4.56315 0
M  V30 2956 H 295.2 1.54317 -5.91605 0
M  V30 2957 H 299.374 1.23415 -6.85377 0
M  V30 2958 H 297.001 1.02435 -7.53267 0
M  V30 2959 N 298.576 1.31904 0.862503 0
M  V30 2960 C 299.524 1.20125 1.9918 0
M  V30 2961 C 300.518 0.107824 1.69056 0
M  V30 2962 O 301.724 0.270223 1.7796 0
M  V30 2963 H 298.099 0.372148 0.65346 0
M  V30 2964 H 300.07 2.15652 2.06244 0
M  V30 2965 C 298.819 0.933099 3.34946 0
M  V30 2966 H 298.142 1.76664 3.5865 0
M  V30 2967 H 299.582 0.890892 4.14535 0
M  V30 2968 C 298.041 -0.364172 3.34926 0
M  V30 2969 O 298.571 -1.37858 3.77304 0
M  V30 2970 N 296.777 -0.383362 2.8806 0
M  V30 2971 H 296.324 0.442651 2.53768 0
M  V30 2972 H 296.282 -1.25123 2.8843 0
M  V30 2973 N 300.054 -1.07777 1.14986 0
M  V30 2974 C 301.301 -1.8029 0.922056 0
M  V30 2975 C 301.629 -1.86531 -0.55105 0
M  V30 2976 O 300.884 -1.34189 -1.42449 0
M  V30 2977 C 301.183 -3.25495 1.47608 0
M  V30 2978 C 300.849 -3.39361 2.96893 0
M  V30 2979 C 299.511 -3.42852 3.37647 0
M  V30 2980 C 301.863 -3.42512 3.92854 0
M  V30 2981 C 299.191 -3.47094 4.73015 0
M  V30 2982 C 301.543 -3.4829 5.28088 0
M  V30 2983 C 300.207 -3.50058 5.68345 0
M  V30 2984 H 299.477 -0.659727 0.337404 0
M  V30 2985 H 302.124 -1.26854 1.43459 0
M  V30 2986 H 300.429 -3.81683 0.88463 0
M  V30 2987 H 302.126 -3.80168 1.27568 0
M  V30 2988 H 298.716 -3.37339 2.64387 0
M  V30 2989 H 302.9 -3.3904 3.62444 0
M  V30 2990 H 298.156 -3.46758 5.03556 0
M  V30 2991 H 302.33 -3.49675 6.02246 0
M  V30 2992 H 299.957 -3.53097 6.73221 0
M  V30 2993 N 301.532 -0.945985 -1.26051 0
M  V30 2994 C 302.78 -0.594941 -1.93145 0
M  V30 2995 C 303.101 0.86953 -1.7454 0
M  V30 2996 O 302.371 1.61838 -1.10387 0
M  V30 2997 H 300.951 -0.217044 -0.714773 0
M  V30 2998 H 303.613 -1.20235 -1.53393 0
M  V30 2999 H 302.709 -0.816835 -3.01221 0
M  V30 3000 N 303.011 1.40521 -0.713556 0
M  V30 3001 C 303.958 2.30723 -0.059684 0
M  V30 3002 C 304.928 1.48079 0.752448 0
M  V30 3003 O 306.113 1.76823 0.71681 0
M  V30 3004 C 303.253 3.34274 0.857594 0
M  V30 3005 C 302.366 4.31986 0.0351536 0
M  V30 3006 C 301.501 5.22605 0.951724 0
M  V30 3007 C 300.54 6.11976 0.123253 0
M  V30 3008 N 299.677 6.9502 0.99459 0
M  V30 3009 H 304.517 2.86074 -0.834596 0
M  V30 3010 H 302.054 1.40879 -0.42326 0
M  V30 3011 H 304.012 3.92879 1.40364 0
M  V30 3012 H 302.642 2.8043 1.59871 0
M  V30 3013 H 301.694 3.7518 -0.628052 0
M  V30 3014 H 303.006 4.95101 -0.606347 0
M  V30 3015 H 302.16 5.86131 1.56638 0
M  V30 3016 H 300.899 4.59759 1.62705 0
M  V30 3017 H 299.904 5.47482 -0.50435 0
M  V30 3018 H 301.129 6.76881 -0.548539 0
M  V30 3019 H 299.075 6.34764 1.6556 0
M  V30 3020 H 298.992 7.54892 0.40908 0
M  V30 3021 H 300.26 7.62997 1.59549 0
M  V30 3022 N 304.489 0.459591 1.5075 0
M  V30 3023 C 305.399 -0.34613 2.32033 0
M  V30 3024 C 306.415 -1.00686 1.41909 0
M  V30 3025 O 307.591 -0.997361 1.7497 0
M  V30 3026 C 304.656 -1.42029 3.16273 0
M  V30 3027 C 303.717 -0.777362 4.22203 0
M  V30 3028 C 302.95 -1.80034 5.02418 0
M  V30 3029 O 303.173 -3.02544 4.83553 0
M  V30 3030 O 302.107 -1.37853 5.85901 0
M  V30 3031 H 305.933 0.318054 3.0203 0
M  V30 3032 H 303.518 0.221663 1.47746 0
M  V30 3033 H 305.4 -2.04275 3.68578 0
M  V30 3034 H 304.075 -2.06815 2.49016 0
M  V30 3035 H 302.982 -0.116256 3.73919 0
M  V30 3036 H 304.315 -0.172634 4.91897 0
M  V30 3037 N 305.967 -1.56429 0.191757 0
M  V30 3038 C 306.914 -2.18936 -0.730454 0
M  V30 3039 C 307.884 -1.13557 -1.21219 0
M  V30 3040 O 309.069 -1.41794 -1.27668 0
M  V30 3041 C 306.209 -2.85013 -1.9458 0
M  V30 3042 C 305.322 -4.04909 -1.50574 0
M  V30 3043 C 304.457 -4.58853 -2.67634 0
M  V30 3044 C 303.496 -5.71114 -2.20217 0
M  V30 3045 N 302.633 -6.19478 -3.30442 0
M  V30 3046 H 307.473 -2.97389 -0.190664 0
M  V30 3047 H 305.01 -1.46869 -0.0823694 0
M  V30 3048 H 306.968 -3.21492 -2.65893 0
M  V30 3049 H 305.598 -2.09129 -2.45896 0
M  V30 3050 H 304.65 -3.74115 -0.688605 0
M  V30 3051 H 305.962 -4.86113 -1.11784 0
M  V30 3052 H 305.116 -4.97619 -3.47074 0
M  V30 3053 H 303.855 -3.76749 -3.09696 0
M  V30 3054 H 302.86 -5.31879 -1.3923 0
M  V30 3055 H 304.085 -6.55033 -1.79189 0
M  V30 3056 H 302.031 -5.40297 -3.72041 0
M  V30 3057 H 301.948 -6.95725 -2.9581 0
M  V30 3058 H 303.216 -6.62898 -4.10106 0
M  V30 3059 N 307.445 0.0818655 -1.57387 0
M  V30 3060 C 308.692 0.782914 -1.86753 0
M  V30 3061 C 309.02 1.78082 -0.782118 0
M  V30 3062 O 308.275 1.94426 0.22295 0
M  V30 3063 C 308.574 1.53513 -3.22752 0
M  V30 3064 C 308.24 0.678134 -4.45771 0
M  V30 3065 C 306.902 0.441929 -4.79166 0
M  V30 3066 C 309.254 0.0832243 -5.21134 0
M  V30 3067 C 306.582 -0.398833 -5.85343 0
M  V30 3068 C 308.934 -0.744935 -6.28199 0
M  V30 3069 C 307.598 -0.991107 -6.60101 0
M  V30 3070 H 306.868 0.286489 -0.683378 0
M  V30 3071 H 309.515 0.0439808 -1.91449 0
M  V30 3072 H 307.82 2.34599 -3.138 0
M  V30 3073 H 309.517 2.08218 -3.42705 0
M  V30 3074 H 306.107 0.872357 -4.19628 0
M  V30 3075 H 310.291 0.252847 -4.95655 0
M  V30 3076 H 305.547 -0.598405 -6.08465 0
M  V30 3077 H 309.721 -1.21271 -6.8576 0
M  V30 3078 H 307.348 -1.64437 -7.42202 0
M  V30 3079 N 308.923 1.53595 0.353017 0
M  V30 3080 C 309.833 1.83897 1.45667 0
M  V30 3081 C 310.849 0.728334 1.58023 0
M  V30 3082 O 312.025 1.01968 1.73679 0
M  V30 3083 C 309.09 2.03383 2.80778 0
M  V30 3084 C 308.151 3.27262 2.77845 0
M  V30 3085 C 307.384 3.45809 4.06512 0
M  V30 3086 O 307.607 2.68387 5.03314 0
M  V30 3087 O 306.541 4.39207 4.11559 0
M  V30 3088 H 310.367 2.77686 1.2298 0
M  V30 3089 H 307.952 1.39132 0.544308 0
M  V30 3090 H 309.834 2.17698 3.60812 0
M  V30 3091 H 308.509 1.12783 3.03417 0
M  V30 3092 H 307.416 3.18359 1.96465 0
M  V30 3093 H 308.749 4.17824 2.60161 0
M  V30 3094 N 310.401 -0.613514 1.45168 0
M  V30 3095 C 311.647 -1.37471 1.49096 0
M  V30 3096 C 311.98 -1.93765 0.129901 0
M  V30 3097 O 311.255 -1.74707 -0.854858 0
M  V30 3098 C 311.538 -2.52701 2.56542 0
M  V30 3099 C 311.391 -2.01643 4.0207 0
M  V30 3100 C 312.71 -3.54849 2.60327 0
M  V30 3101 H 309.829 -0.498502 0.54283 0
M  V30 3102 H 312.471 -0.692125 1.76945 0
M  V30 3103 H 310.621 -3.10931 2.32926 0
M  V30 3104 H 312.293 -1.48108 4.36877 0
M  V30 3105 H 310.536 -1.32688 4.13009 0
M  V30 3106 H 311.207 -2.84681 4.72928 0
M  V30 3107 H 313.683 -3.0645 2.81474 0
M  V30 3108 H 312.559 -4.32973 3.37381 0
M  V30 3109 H 312.82 -4.10079 1.6519 0
M  V30 3110 N 311.879 -1.3236 -0.855495 0
M  V30 3111 C 312.826 -1.21225 -1.964 0
M  V30 3112 C 313.796 -0.0946204 -1.6583 0
M  V30 3113 O 314.981 -0.27002 -1.8888 0
M  V30 3114 C 312.121 -0.940419 -3.32039 0
M  V30 3115 C 311.234 -2.14276 -3.75113 0
M  V30 3116 C 310.369 -1.80648 -4.9954 0
M  V30 3117 C 309.408 -2.97208 -5.35102 0
M  V30 3118 N 308.545 -2.63678 -6.50706 0
M  V30 3119 H 313.385 -2.16042 -2.05255 0
M  V30 3120 H 310.922 -1.07451 -1.00463 0
M  V30 3121 H 312.88 -0.763311 -4.10158 0
M  V30 3122 H 311.51 -0.0290413 -3.22787 0
M  V30 3123 H 310.562 -2.43017 -2.92655 0
M  V30 3124 H 311.874 -3.01468 -3.97389 0
M  V30 3125 H 311.028 -1.59484 -5.85363 0
M  V30 3126 H 309.767 -0.906678 -4.79198 0
M  V30 3127 H 308.772 -3.19004 -4.47791 0
M  V30 3128 H 309.997 -3.87918 -5.57401 0
M  V30 3129 H 307.943 -1.76238 -6.31883 0
M  V30 3130 H 307.86 -3.444 -6.72997 0
M  V30 3131 H 309.128 -2.45942 -7.39684 0
M  V30 3132 N 313.357 1.07166 -1.15556 0
M  V30 3133 C 314.304 2.14417 -0.854055 0
M  V30 3134 C 315.274 1.64965 0.193806 0
M  V30 3135 O 316.459 1.90703 0.0609443 0
M  V30 3136 C 313.599 3.43304 -0.351574 0
M  V30 3137 C 312.712 4.06537 -1.46123 0
M  V30 3138 C 311.847 5.23266 -0.914677 0
M  V30 3139 C 310.886 5.78464 -2.00114 0
M  V30 3140 N 310.023 6.86521 -1.47083 0
M  V30 3141 H 314.863 2.39548 -1.77259 0
M  V30 3142 H 312.4 1.17543 -0.884425 0
M  V30 3143 H 314.358 4.17179 -0.0419409 0
M  V30 3144 H 312.988 3.18419 0.530037 0
M  V30 3145 H 312.04 3.30297 -1.88701 0
M  V30 3146 H 313.352 4.43567 -2.28144 0
M  V30 3147 H 312.506 6.04131 -0.557698 0
M  V30 3148 H 311.245 4.87658 -0.0636583 0
M  V30 3149 H 310.25 4.96243 -2.36692 0
M  V30 3150 H 311.475 6.16126 -2.85597 0
M  V30 3151 H 309.421 6.52849 -0.642198 0
M  V30 3152 H 309.338 7.22446 -2.22729 0
M  V30 3153 H 310.606 7.71087 -1.14215 0
M  V30 3154 N 314.835 0.952656 1.25548 0
M  V30 3155 C 316.083 0.605176 1.92826 0
M  V30 3156 C 316.404 -0.860261 1.74999 0
M  V30 3157 O 315.674 -1.6125 1.11244 0
M  V30 3158 H 314.254 0.220832 0.713612 0
M  V30 3159 H 316.916 1.21047 1.52754 0
M  V30 3160 H 316.012 0.832798 3.00784 0
M  V30 3161 N 316.313 -1.40141 0.720998 0
M  V30 3162 C 317.59 -1.94677 0.189757 0
M  V30 3163 C 317.97 -1.65879 -1.30566 0
M  V30 3164 O 317.318 -0.979391 -2.06447 0
M  V30 3165 C 317.528 -3.45279 0.508304 0
M  V30 3166 C 318.876 -4.22209 0.449934 0
M  V30 3167 O 319.9 -3.53413 0.444677 0
M  V30 3168 O 318.759 -5.44788 0.432189 0
M  V30 3169 H 315.853 -0.826459 0.0299026 0
M  V30 3170 H 318.399 -1.49719 0.7989 0
M  V30 3171 H 317.171 -3.59619 1.54239 0
M  V30 3172 H 316.794 -3.97386 -0.130525 0
M  V30 3173 N 317.792 -0.46758 -1.50504 0
M  V30 3174 C 319.208 -0.121533 -1.59137 0
M  V30 3175 C 319.408 1.3717 -1.47603 0
M  V30 3176 O 318.464 2.14464 -1.33272 0
M  V30 3177 C 319.777 -0.6686 -2.93173 0
M  V30 3178 C 321.325 -0.631716 -3.06559 0
M  V30 3179 C 321.8 -1.15627 -4.43164 0
M  V30 3180 N 323.291 -1.11553 -4.49567 0
M  V30 3181 C 324.026 -1.49195 -5.5365 0
M  V30 3182 N 323.522 -1.94269 -6.65005 0
M  V30 3183 N 325.315 -1.4082 -5.44175 0
M  V30 3184 H 317.466 -1.4388 -1.56245 0
M  V30 3185 H 319.729 -0.594784 -0.738198 0
M  V30 3186 H 319.435 -1.71453 -3.07078 0
M  V30 3187 H 319.309 -0.11021 -3.77039 0
M  V30 3188 H 321.696 0.405297 -2.92304 0
M  V30 3189 H 321.777 -1.22687 -2.24458 0
M  V30 3190 H 321.421 -2.1919 -4.58168 0
M  V30 3191 H 321.351 -0.537365 -5.23851 0
M  V30 3192 H 323.842 -0.784895 -3.69659 0
M  V30 3193 H 324.155 -2.21148 -7.40482 0
M  V30 3194 H 322.5 -1.98219 -6.66134 0
M  V30 3195 H 325.691 -1.0545 -4.56068 0
M  V30 3196 H 325.864 -1.70481 -6.25172 0
M  V30 3197 N 319.27 1.56325 -0.20005 0
M  V30 3198 C 320.519 1.96895 0.437652 0
M  V30 3199 C 320.832 1.08999 1.62415 0
M  V30 3200 O 322.038 1.39372 2.32997 0
M  V30 3201 C 320.494 3.50198 0.830025 0
M  V30 3202 C 320.102 4.46765 -0.332461 0
M  V30 3203 C 321.846 3.99526 1.43453 0
M  V30 3204 C 319.753 5.91344 0.0811468 0
M  V30 3205 H 318.683 0.735209 0.167282 0
M  V30 3206 H 321.334 1.81148 -0.292853 0
M  V30 3207 H 319.716 3.61467 1.61734 0
M  V30 3208 H 320.89 4.47231 -1.11 0
M  V30 3209 H 319.205 4.07657 -0.848789 0
M  V30 3210 H 321.802 5.05025 1.75652 0
M  V30 3211 H 322.145 3.44122 2.34277 0
M  V30 3212 H 322.678 3.91393 0.71109 0
M  V30 3213 H 319.417 6.50685 -0.793033 0
M  V30 3214 H 318.937 5.94121 0.823445 0
M  V30 3215 H 320.616 6.44945 0.515252 0
M  V30 3216 N 320.748 -0.0735177 1.57428 0
M  V30 3217 C 321.711 -1.07192 2.02589 0
M  V30 3218 C 322.711 -1.31695 0.922661 0
M  V30 3219 O 323.901 -1.27445 1.18758 0
M  V30 3220 C 321.033 -2.41599 2.40506 0
M  V30 3221 H 322.226 -0.682727 2.92025 0
M  V30 3222 H 319.779 -0.319193 1.53006 0
M  V30 3223 H 320.514 -2.85354 1.5409 0
M  V30 3224 H 320.299 -2.25156 3.21009 0
M  V30 3225 H 321.789 -3.13367 2.76027 0
M  V30 3226 N 322.226 -1.5378 -0.344866 0
M  V30 3227 C 323.158 -1.77988 -1.44406 0
M  V30 3228 C 324.171 -0.661138 -1.48771 0
M  V30 3229 O 325.36 -0.937842 -1.51877 0
M  V30 3230 C 322.46 -1.86345 -2.8307 0
M  V30 3231 C 321.633 -3.16256 -3.0216 0
M  V30 3232 C 320.692 -3.15588 -4.21059 0
M  V30 3233 O 319.718 -3.89314 -4.15239 0
M  V30 3234 N 320.92 -2.37864 -5.29529 0
M  V30 3235 H 323.685 -2.72839 -1.24012 0
M  V30 3236 H 321.246 -1.52814 -0.534737 0
M  V30 3237 H 323.238 -1.83351 -3.60783 0
M  V30 3238 H 321.808 -0.986858 -2.96614 0
M  V30 3239 H 321.028 -3.32385 -2.11929 0
M  V30 3240 H 322.316 -4.0207 -3.11797 0
M  V30 3241 H 321.714 -1.77514 -5.37127 0
M  V30 3242 H 320.271 -2.40668 -6.05741 0
M  V30 3243 N 323.704 0.605807 -1.45491 0
M  V30 3244 C 324.634 1.72709 -1.57143 0
M  V30 3245 C 325.615 1.6476 -0.422884 0
M  V30 3246 O 326.8 1.83132 -0.646247 0
M  V30 3247 C 323.93 3.11316 -1.53948 0
M  V30 3248 C 322.884 3.34077 -2.67537 0
M  V30 3249 C 322.21 4.72975 -2.49397 0
M  V30 3250 C 323.51 3.24158 -4.09535 0
M  V30 3251 H 325.204 1.63214 -2.51001 0
M  V30 3252 H 322.75 0.78379 -1.208 0
M  V30 3253 H 324.703 3.89557 -1.60696 0
M  V30 3254 H 323.427 3.21655 -0.566205 0
M  V30 3255 H 322.086 2.58227 -2.6022 0
M  V30 3256 H 321.734 4.8005 -1.50205 0
M  V30 3257 H 321.434 4.8916 -3.25571 0
M  V30 3258 H 322.958 5.53414 -2.58002 0
M  V30 3259 H 324.372 3.92271 -4.18086 0
M  V30 3260 H 322.769 3.51872 -4.86113 0
M  V30 3261 H 323.839 2.2157 -4.31317 0
M  V30 3262 N 325.182 1.32811 0.848464 0
M  V30 3263 C 326.431 1.23075 1.59798 0
M  V30 3264 C 326.744 -0.204419 1.94529 0
M  V30 3265 O 327.95 -0.423701 2.68173 0
M  V30 3266 C 326.406 2.15594 2.88179 0
M  V30 3267 C 326.014 3.64228 2.60849 0
M  V30 3268 C 327.758 2.14709 3.66197 0
M  V30 3269 C 325.665 4.48689 3.85269 0
M  V30 3270 H 324.595 0.457091 0.599653 0
M  V30 3271 H 327.246 1.57813 0.936342 0
M  V30 3272 H 325.628 1.73778 3.55833 0
M  V30 3273 H 326.802 4.14424 2.01467 0
M  V30 3274 H 325.117 3.67306 1.96151 0
M  V30 3275 H 327.714 2.75046 4.58534 0
M  V30 3276 H 328.057 1.13966 4.00397 0
M  V30 3277 H 328.59 2.54837 3.05455 0
M  V30 3278 H 325.329 5.5027 3.56207 0
M  V30 3279 H 324.849 4.03241 4.44024 0
M  V30 3280 H 326.528 4.62006 4.52946 0
M  V30 3281 N 326.66 -1.06551 1.16123 0
M  V30 3282 C 327.9 -1.80889 0.951766 0
M  V30 3283 C 328.264 -1.85062 -0.511465 0
M  V30 3284 O 329.465 -2.55353 -0.83954 0
M  V30 3285 C 327.736 -3.21609 1.55893 0
M  V30 3286 S 329.295 -4.12593 1.49373 0
M  V30 3287 H 326.113 -0.623156 0.342341 0
M  V30 3288 H 328.715 -1.27943 1.47821 0
M  V30 3289 H 327.419 -3.16165 2.61664 0
M  V30 3290 H 326.95 -3.79631 1.0317 0
M  V30 3291 H 328.965 -4.93753 0.492196 0
M  V30 3292 N 328.138 -0.959301 -1.25041 0
M  V30 3293 C 329.048 -0.489994 -2.29426 0
M  V30 3294 C 330.064 0.444944 -1.68215 0
M  V30 3295 O 331.24 0.320046 -1.98841 0
M  V30 3296 C 328.305 0.220309 -3.45999 0
M  V30 3297 C 327.366 -0.753418 -4.22637 0
M  V30 3298 C 326.599 -0.076918 -5.33645 0
M  V30 3299 O 326.822 1.13649 -5.58963 0
M  V30 3300 O 325.756 -0.764824 -5.97021 0
M  V30 3301 H 329.582 -1.35755 -2.71669 0
M  V30 3302 H 327.167 -0.725961 -1.30576 0
M  V30 3303 H 329.049 0.619677 -4.16819 0
M  V30 3304 H 327.724 1.06296 -3.0575 0
M  V30 3305 H 326.631 -1.20308 -3.54227 0
M  V30 3306 H 327.964 -1.56423 -4.66683 0
M  V30 3307 N 329.616 1.39756 -0.72842 0
M  V30 3308 C 331.032 1.5442 -0.403308 0
M  V30 3309 C 331.232 1.69694 1.08656 0
M  V30 3310 O 330.288 1.69373 1.87267 0
M  V30 3311 C 331.601 2.76555 -1.18058 0
M  V30 3312 C 333.149 2.90384 -1.16815 0
M  V30 3313 C 333.624 4.15449 -1.92785 0
M  V30 3314 N 335.115 4.22475 -1.89918 0
M  V30 3315 C 335.85 5.1818 -2.45514 0
M  V30 3316 N 335.346 6.19714 -3.09719 0
M  V30 3317 N 337.139 5.1035 -2.35584 0
M  V30 3318 H 329.29 1.28089 -1.69431 0
M  V30 3319 H 331.553 0.620327 -0.716867 0
M  V30 3320 H 331.259 2.7159 -2.23455 0
M  V30 3321 H 331.133 3.69033 -0.780662 0
M  V30 3322 H 333.52 2.94846 -0.12234 0
M  V30 3323 H 333.601 1.98988 -1.6074 0
M  V30 3324 H 333.245 4.11749 -2.97364 0
M  V30 3325 H 333.175 5.05877 -1.46272 0
M  V30 3326 H 335.666 3.49743 -1.43138 0
M  V30 3327 H 335.979 6.8919 -3.49625 0
M  V30 3328 H 334.324 6.20121 -3.13807 0
M  V30 3329 H 337.515 4.2996 -1.85072 0
M  V30 3330 H 337.688 5.84761 -2.79211 0
M  V30 3331 N 331.094 0.475555 1.50254 0
M  V30 3332 C 332.343 -0.0795996 2.01543 0
M  V30 3333 C 332.656 -1.4038 1.36209 0
M  V30 3334 O 333.862 -2.04415 1.7868 0
M  V30 3335 C 332.318 -0.192363 3.59386 0
M  V30 3336 C 331.926 1.12367 4.33679 0
M  V30 3337 C 333.67 -0.699238 4.18701 0
M  V30 3338 C 331.577 0.974453 5.83317 0
M  V30 3339 H 330.507 -0.0335228 0.753254 0
M  V30 3340 H 333.158 0.611128 1.73025 0
M  V30 3341 H 331.54 -0.946974 3.84511 0
M  V30 3342 H 332.714 1.88958 4.20276 0
M  V30 3343 H 331.029 1.562 3.85993 0
M  V30 3344 H 333.626 -0.827978 5.28251 0
M  V30 3345 H 333.969 -1.69171 3.80377 0
M  V30 3346 H 334.502 -0.00188807 3.978 0
M  V30 3347 H 331.241 1.94042 6.26121 0
M  V30 3348 H 330.761 0.248998 5.99283 0
M  V30 3349 H 332.44 0.642867 6.43798 0
M  V30 3350 N 332.573 -1.56217 0.208337 0
M  V30 3351 C 333.82 -1.97949 -0.42692 0
M  V30 3352 C 334.148 -1.09562 -1.60706 0
M  V30 3353 O 333.403 -0.137616 -1.95216 0
M  V30 3354 C 333.702 -3.45441 -0.916797 0
M  V30 3355 C 333.368 -4.50646 0.151391 0
M  V30 3356 C 332.03 -4.79139 0.444867 0
M  V30 3357 C 334.382 -5.13811 0.874492 0
M  V30 3358 C 331.71 -5.68084 1.46619 0
M  V30 3359 C 334.062 -6.03861 1.88506 0
M  V30 3360 C 332.726 -6.30704 2.18559 0
M  V30 3361 H 331.996 -0.724345 -0.156221 0
M  V30 3362 H 334.643 -1.89006 0.308084 0
M  V30 3363 H 332.948 -3.51521 -1.73032 0
M  V30 3364 H 334.645 -3.75094 -1.41794 0
M  V30 3365 H 331.235 -4.28511 -0.0875068 0
M  V30 3366 H 335.419 -4.91879 0.660996 0
M  V30 3367 H 330.675 -5.87151 1.7048 0
M  V30 3368 H 334.849 -6.51861 2.45051 0
M  V30 3369 H 332.476 -6.99424 2.97843 0
M  V30 3370 N 334.051 0.0651679 -1.57465 0
M  V30 3371 C 335.281 0.774683 -1.91526 0
M  V30 3372 C 335.689 1.71305 -0.803196 0
M  V30 3373 O 335.032 1.82231 0.231881 0
M  V30 3374 C 335.094 1.61645 -3.21109 0
M  V30 3375 C 334.758 0.846753 -4.49087 0
M  V30 3376 C 335.755 0.163024 -5.19644 0
M  V30 3377 C 333.44 0.811966 -4.95694 0
M  V30 3378 C 335.434 -0.54519 -6.35064 0
M  V30 3379 C 333.121 0.0999836 -6.11018 0
M  V30 3380 C 334.119 -0.577388 -6.80555 0
M  V30 3381 O 333.807 -1.27789 -7.93678 0
M  V30 3382 H 333.539 0.225031 -0.637446 0
M  V30 3383 H 336.093 0.0377134 -2.05365 0
M  V30 3384 H 334.323 2.39638 -3.03497 0
M  V30 3385 H 336.012 2.20525 -3.40769 0
M  V30 3386 H 336.778 0.181163 -4.84662 0
M  V30 3387 H 332.657 1.32867 -4.41438 0
M  V30 3388 H 336.201 -1.07446 -6.89276 0
M  V30 3389 H 332.098 0.0797945 -6.45451 0
M  V30 3390 H 332.866 -1.18784 -8.09835 0
M  V30 3391 N 335.529 1.53961 0.336706 0
M  V30 3392 C 336.94 1.62914 0.911925 0
M  V30 3393 C 337.291 0.514795 1.89326 0
M  V30 3394 O 336.416 -0.354395 2.13478 0
M  V30 3395 C 337.011 2.95304 1.66076 0
M  V30 3396 C 335.57 3.06496 2.18489 0
M  V30 3397 C 334.717 2.58403 1.00613 0
M  V30 3398 H 337.668 1.58285 0.114649 0
M  V30 3399 H 337.689 2.84727 2.5241 0
M  V30 3400 H 337.201 3.76387 0.946276 0
M  V30 3401 H 335.302 2.3006 2.93092 0
M  V30 3402 H 335.415 4.1208 2.44391 0
M  V30 3403 H 333.779 2.13977 1.38152 0
M  V30 3404 H 334.562 3.41932 0.306179 0
M  V30 3405 N 337.007 -0.598083 1.45811 0
M  V30 3406 C 337.917 -1.73632 1.57763 0
M  V30 3407 C 338.933 -1.67763 0.461676 0
M  V30 3408 O 340.109 -1.87949 0.723685 0
M  V30 3409 C 337.174 -3.10114 1.55018 0
M  V30 3410 C 336.235 -3.27364 2.77726 0
M  V30 3411 C 335.468 -4.57334 2.75102 0
M  V30 3412 O 335.691 -5.40258 1.8297 0
M  V30 3413 O 334.625 -4.77502 3.66437 0
M  V30 3414 H 338.451 -1.66498 2.53992 0
M  V30 3415 H 336.036 -0.763308 1.28429 0
M  V30 3416 H 337.918 -3.9141 1.56129 0
M  V30 3417 H 336.593 -3.17718 0.619431 0
M  V30 3418 H 335.5 -2.45619 2.82174 0
M  V30 3419 H 336.833 -3.24641 3.69958 0
M  V30 3420 N 338.485 -1.33259 -0.841409 0
M  V30 3421 C 339.734 -1.23921 -1.59143 0
M  V30 3422 C 340.047 0.1941 -1.94635 0
M  V30 3423 O 341.253 0.409474 -2.68394 0
M  V30 3424 C 339.709 -2.17119 -2.87032 0
M  V30 3425 C 339.317 -3.65606 -2.58914 0
M  V30 3426 C 341.061 -2.16648 -3.65053 0
M  V30 3427 C 338.968 -4.50726 -3.82884 0
M  V30 3428 H 337.898 -0.460264 -0.597221 0
M  V30 3429 H 340.549 -1.58307 -0.927959 0
M  V30 3430 H 338.931 -1.75663 -3.54906 0
M  V30 3431 H 340.105 -4.15487 -1.99267 0
M  V30 3432 H 338.42 -3.68341 -1.942 0
M  V30 3433 H 341.017 -2.77474 -4.57069 0
M  V30 3434 H 341.36 -1.16088 -3.99787 0
M  V30 3435 H 341.893 -2.56453 -3.041 0
M  V30 3436 H 338.632 -5.52151 -3.53283 0
M  V30 3437 H 338.152 -4.0559 -4.41879 0
M  V30 3438 H 339.831 -4.64401 -4.50489 0
M  V30 3439 N 339.963 1.05934 -1.16686 0
M  V30 3440 C 340.873 2.17014 -0.891183 0
M  V30 3441 C 341.889 1.73453 0.137907 0
M  V30 3442 O 343.065 2.01361 -0.039592 0
M  V30 3443 C 340.13 3.44384 -0.400099 0
M  V30 3444 C 339.191 4.02433 -1.49486 0
M  V30 3445 C 338.424 5.23723 -1.02711 0
M  V30 3446 O 338.647 5.7027 0.121716 0
M  V30 3447 O 337.581 5.7382 -1.81699 0
M  V30 3448 H 341.407 2.43113 -1.82015 0
M  V30 3449 H 338.992 1.15541 -0.947132 0
M  V30 3450 H 340.874 4.21189 -0.133392 0
M  V30 3451 H 339.549 3.19802 0.500817 0
M  V30 3452 H 338.456 3.27102 -1.81535 0
M  V30 3453 H 339.789 4.31317 -2.37121 0
M  V30 3454 N 341.441 0.965919 1.2453 0
M  V30 3455 C 342.351 0.502154 2.29163 0
M  V30 3456 C 343.367 -0.436017 1.68448 0
M  V30 3457 O 344.543 -0.309497 1.99008 0
M  V30 3458 C 341.608 -0.201956 3.46111 0
M  V30 3459 C 340.669 0.775821 4.22232 0
M  V30 3460 C 339.902 0.105217 5.33596 0
M  V30 3461 O 340.125 -1.10683 5.59558 0
M  V30 3462 O 339.059 0.796475 5.96607 0
M  V30 3463 H 342.885 1.37194 2.70946 0
M  V30 3464 H 340.47 0.732875 1.30189 0
M  V30 3465 H 342.352 -0.597564 4.17142 0
M  V30 3466 H 341.027 -1.04673 3.06309 0
M  V30 3467 H 339.934 1.22185 3.53584 0
M  V30 3468 H 341.267 1.58896 4.65846 0
M  V30 3469 N 342.919 -1.39368 0.735821 0
M  V30 3470 C 344.165 -2.00794 0.284544 0
M  V30 3471 C 344.498 -1.58255 -1.12557 0
M  V30 3472 O 343.773 -0.811819 -1.76748 0
M  V30 3473 C 344.056 -3.58011 0.387337 0
M  V30 3474 C 343.909 -4.10566 1.83728 0
M  V30 3475 C 345.228 -4.395 -0.22975 0
M  V30 3476 H 342.347 -0.729501 0.104866 0
M  V30 3477 H 344.989 -1.65564 0.93213 0
M  V30 3478 H 343.139 -3.88154 -0.164006 0
M  V30 3479 H 344.811 -3.91139 2.44556 0
M  V30 3480 H 343.054 -3.64095 2.35833 0
M  V30 3481 H 343.725 -5.19702 1.86047 0
M  V30 3482 H 346.201 -4.15406 0.240257 0
M  V30 3483 H 345.077 -5.48752 -0.127485 0
M  V30 3484 H 345.338 -4.22062 -1.3159 0
M  V30 3485 N 344.397 -0.483516 -1.5 0
M  V30 3486 C 345.329 0.340634 -2.26655 0
M  V30 3487 C 346.342 0.946152 -1.32483 0
M  V30 3488 O 347.531 0.832453 -1.579 0
M  V30 3489 C 344.631 1.4929 -3.04246 0
M  V30 3490 C 343.804 0.997903 -4.25865 0
M  V30 3491 C 342.863 2.02569 -4.85646 0
M  V30 3492 O 341.889 1.60128 -5.46212 0
M  V30 3493 N 343.091 3.3548 -4.73744 0
M  V30 3494 H 345.856 -0.316577 -2.98023 0
M  V30 3495 H 343.417 -0.315024 -1.58806 0
M  V30 3496 H 345.409 2.17766 -3.41116 0
M  V30 3497 H 343.979 2.05458 -2.35597 0
M  V30 3498 H 343.199 0.138617 -3.93956 0
M  V30 3499 H 344.487 0.645305 -5.04691 0
M  V30 3500 H 343.885 3.72661 -4.25605 0
M  V30 3501 H 342.442 3.99718 -5.14848 0
M  V30 3502 N 345.875 1.56104 -0.216619 0
M  V30 3503 C 346.838 2.18819 0.681962 0
M  V30 3504 C 347.838 1.14866 1.12528 0
M  V30 3505 O 349.028 1.40128 1.03488 0
M  V30 3506 C 346.16 2.80756 1.93362 0
M  V30 3507 H 347.353 2.99595 0.135254 0
M  V30 3508 H 344.906 1.56265 0.0330003 0
M  V30 3509 H 345.641 2.03837 2.52232 0
M  V30 3510 H 345.426 3.56876 1.62426 0
M  V30 3511 H 346.916 3.28844 2.57393 0
M  V30 3512 N 347.353 -0.0568162 1.57498 0
M  V30 3513 C 348.283 -1.06593 2.0775 0
M  V30 3514 C 349.264 -1.39448 0.974082 0
M  V30 3515 O 350.449 -1.48815 1.24771 0
M  V30 3516 C 347.579 -2.37509 2.5339 0
M  V30 3517 C 346.533 -2.1897 3.67745 0
M  V30 3518 C 345.859 -3.55402 3.99492 0
M  V30 3519 C 347.159 -1.59859 4.97235 0
M  V30 3520 H 348.853 -0.647706 2.9231 0
M  V30 3521 H 346.399 -0.310116 1.40621 0
M  V30 3522 H 348.352 -3.08409 2.87162 0
M  V30 3523 H 347.076 -2.8134 1.65878 0
M  V30 3524 H 345.735 -1.50508 3.3428 0
M  V30 3525 H 345.383 -3.9683 3.09088 0
M  V30 3526 H 345.083 -3.43831 4.76502 0
M  V30 3527 H 346.607 -4.27708 4.35773 0
M  V30 3528 H 348.021 -2.20642 5.29141 0
M  V30 3529 H 346.418 -1.58942 5.78669 0
M  V30 3530 H 347.488 -0.561506 4.81638 0
M  V30 3531 N 348.832 -1.54138 -0.328536 0
M  V30 3532 C 350.109 -1.62749 -1.08499 0
M  V30 3533 C 350.489 -0.458198 -2.06067 0
M  V30 3534 O 349.837 0.548046 -2.2183 0
M  V30 3535 C 350.047 -2.99519 -1.79135 0
M  V30 3536 C 351.395 -3.55394 -2.32337 0
M  V30 3537 O 352.419 -3.01792 -1.89209 0
M  V30 3538 O 351.278 -4.49186 -3.11279 0
M  V30 3539 H 348.372 -0.65886 -0.499832 0
M  V30 3540 H 350.918 -1.66484 -0.328826 0
M  V30 3541 H 349.69 -3.76061 -1.08139 0
M  V30 3542 H 349.313 -2.99441 -2.61574 0
M  V30 3543 N 350.31 0.590341 -1.46126 0
M  V30 3544 C 351.587 1.35029 -1.41515 0
M  V30 3545 C 351.967 2.10888 -0.0946472 0
M  V30 3546 O 351.315 2.08998 0.923693 0
M  V30 3547 C 351.525 2.28269 -2.63997 0
M  V30 3548 C 352.873 2.90338 -3.09821 0
M  V30 3549 O 353.897 2.38585 -2.64492 0
M  V30 3550 O 352.756 3.84321 -3.88535 0
M  V30 3551 H 349.85 0.606317 -0.562413 0
M  V30 3552 H 352.396 0.611994 -1.58281 0
M  V30 3553 H 351.168 1.71591 -3.51671 0
M  V30 3554 H 350.791 3.0945 -2.49652 0
M  V30 3555 N 351.788 1.33704 0.83433 0
M  V30 3556 C 353.016 1.28467 1.62185 0
M  V30 3557 C 353.431 -0.143526 1.88254 0
M  V30 3558 O 352.788 -1.08709 1.4659 0
M  V30 3559 C 352.839 2.06174 2.96942 0
M  V30 3560 O 352.56 3.43422 2.72016 0
M  V30 3561 C 354.061 2.08201 3.91366 0
M  V30 3562 H 351.281 0.4424 0.504503 0
M  V30 3563 H 353.825 1.76145 1.03891 0
M  V30 3564 H 351.98 1.62167 3.51825 0
M  V30 3565 H 352.394 3.83453 3.57861 0
M  V30 3566 H 353.868 2.67017 4.83121 0
M  V30 3567 H 354.345 1.07343 4.2588 0
M  V30 3568 H 354.951 2.52246 3.42421 0
M  V30 3569 N 353.266 -1.05314 1.17247 0
M  V30 3570 C 354.176 -2.16538 0.90268 0
M  V30 3571 C 355.192 -1.73523 -0.128707 0
M  V30 3572 O 356.368 -2.01337 0.0502701 0
M  V30 3573 C 353.433 -3.44167 0.418356 0
M  V30 3574 C 352.494 -4.01635 1.51618 0
M  V30 3575 C 351.727 -5.23171 1.05487 0
M  V30 3576 O 351.95 -5.70327 -0.0914715 0
M  V30 3577 O 350.884 -5.72848 1.8474 0
M  V30 3578 H 354.71 -2.42145 1.83302 0
M  V30 3579 H 352.295 -1.15037 0.953246 0
M  V30 3580 H 354.177 -4.21112 0.155726 0
M  V30 3581 H 352.852 -3.20063 -0.48385 0
M  V30 3582 H 351.759 -3.26135 1.83268 0
M  V30 3583 H 353.092 -4.30053 2.39405 0
M  V30 3584 N 354.744 -0.972509 -1.24016 0
M  V30 3585 C 356.16 -0.679827 -1.44397 0
M  V30 3586 C 356.36 0.756716 -1.86751 0
M  V30 3587 O 355.416 1.53007 -2.00861 0
M  V30 3588 C 356.729 -1.66803 -2.50195 0
M  V30 3589 C 358.277 -1.68119 -2.64017 0
M  V30 3590 C 358.752 -2.65748 -3.73017 0
M  V30 3591 N 360.243 -2.64219 -3.8045 0
M  V30 3592 C 360.978 -3.36433 -4.64328 0
M  V30 3593 N 360.474 -4.1818 -5.52356 0
M  V30 3594 N 362.267 -3.25235 -4.58453 0
M  V30 3595 H 354.418 -1.90059 -0.948228 0
M  V30 3596 H 356.681 -0.818527 -0.478245 0
M  V30 3597 H 356.387 -2.69498 -2.25973 0
M  V30 3598 H 356.261 -1.4446 -3.48441 0
M  V30 3599 H 358.648 -0.661319 -2.87594 0
M  V30 3600 H 358.729 -1.94525 -1.66113 0
M  V30 3601 H 358.373 -3.67872 -3.50189 0
M  V30 3602 H 358.303 -2.36619 -4.70446 0
M  V30 3603 H 360.794 -2.04887 -3.17537 0
M  V30 3604 H 361.107 -4.70157 -6.13329 0
M  V30 3605 H 359.452 -4.22273 -5.52006 0
M  V30 3606 H 362.643 -2.60829 -3.88698 0
M  V30 3607 H 362.816 -3.81776 -5.23594 0
M  V30 3608 N 356.222 1.38976 -0.743202 0
M  V30 3609 C 357.47 1.99948 -0.29417 0
M  V30 3610 C 357.791 1.59279 1.12495 0
M  V30 3611 O 357.061 0.844808 1.76748 0
M  V30 3612 H 355.641 0.739473 -0.105774 0
M  V30 3613 H 358.303 1.699 -0.954986 0
M  V30 3614 H 357.399 3.10142 -0.349056 0
M  V30 3615 N 357.7 0.491464 1.49741 0
M  V30 3616 C 358.925 -0.0557177 2.07325 0
M  V30 3617 C 359.35 -1.30925 1.35056 0
M  V30 3618 O 358.708 -1.76733 0.404365 0
M  V30 3619 C 358.756 -0.302074 3.59333 0
M  V30 3620 O 357.86 -1.37868 3.88672 0
M  V30 3621 H 357.201 0.0219956 0.663636 0
M  V30 3622 H 359.731 0.688352 1.92673 0
M  V30 3623 H 359.741 -0.536464 4.04458 0
M  V30 3624 H 358.416 0.61383 4.11345 0
M  V30 3625 H 356.993 -1.12999 3.55367 0
M  V30 3626 N 359.178 -1.55987 0.224894 0
M  V30 3627 C 360.426 -1.97998 -0.405099 0
M  V30 3628 C 360.747 -1.11387 -1.60056 0
M  V30 3629 O 360.017 -0.191645 -1.9496 0
M  V30 3630 H 358.597 -0.731235 -0.152658 0
M  V30 3631 H 361.259 -1.92279 0.318567 0
M  V30 3632 H 360.355 -3.03463 -0.729167 0
M  V30 3633 N 360.656 0.0484629 -1.57525 0
M  V30 3634 C 361.904 0.741657 -1.88 0
M  V30 3635 C 362.225 1.76918 -0.820054 0
M  V30 3636 O 361.495 1.95335 0.148661 0
M  V30 3637 H 360.075 0.276908 -0.69378 0
M  V30 3638 H 362.737 0.019013 -1.94891 0
M  V30 3639 H 361.833 1.24336 -2.86264 0
M  V30 3640 N 362.134 1.5431 0.320358 0
M  V30 3641 C 363.381 1.72668 1.05792 0
M  V30 3642 C 363.709 0.502084 1.87908 0
M  V30 3643 O 362.964 -0.516149 1.88771 0
M  V30 3644 C 363.263 2.95639 2.00828 0
M  V30 3645 C 362.929 4.30265 1.34843 0
M  V30 3646 C 361.591 4.66865 1.16578 0
M  V30 3647 C 363.943 5.13801 0.875095 0
M  V30 3648 C 361.271 5.84597 0.496336 0
M  V30 3649 C 363.623 6.32219 0.219463 0
M  V30 3650 C 362.287 6.67495 0.0246915 0
M  V30 3651 H 361.557 0.631837 0.387121 0
M  V30 3652 H 364.204 1.88552 0.334735 0
M  V30 3653 H 362.509 2.74456 2.79609 0
M  V30 3654 H 364.206 3.07038 2.57932 0
M  V30 3655 H 360.796 4.01472 1.50061 0
M  V30 3656 H 364.98 4.86039 1.00398 0
M  V30 3657 H 360.236 6.10486 0.334264 0
M  V30 3658 H 364.41 6.96227 -0.155291 0
M  V30 3659 H 362.037 7.5858 -0.496065 0
M  V30 3660 N 363.613 -0.582584 1.46437 0
M  V30 3661 C 364.861 -1.33814 1.51453 0
M  V30 3662 C 365.182 -1.94277 0.167792 0
M  V30 3663 O 364.452 -1.78566 -0.805677 0
M  V30 3664 H 363.032 -0.496838 0.557818 0
M  V30 3665 H 365.694 -0.682281 1.82568 0
M  V30 3666 H 364.79 -2.14479 2.26728 0
M  V30 3667 N 365.091 -1.34144 -0.827227 0
M  V30 3668 C 366.316 -1.29476 -1.62021 0
M  V30 3669 C 366.741 0.129292 -1.87655 0
M  V30 3670 O 366.099 1.08967 -1.449 0
M  V30 3671 C 366.147 -2.08702 -2.94068 0
M  V30 3672 O 365.251 -1.45359 -3.85933 0
M  V30 3673 H 364.592 -0.444881 -0.492927 0
M  V30 3674 H 367.122 -1.76882 -1.02829 0
M  V30 3675 H 367.132 -2.19898 -3.43669 0
M  V30 3676 H 365.807 -3.12241 -2.74734 0
M  V30 3677 H 364.384 -1.42879 -3.44442 0
M  V30 3678 N 366.569 1.04691 -1.17803 0
M  V30 3679 C 367.797 1.81446 -0.99423 0
M  V30 3680 C 368.212 1.83174 0.457459 0
M  V30 3681 O 367.569 1.26265 1.31771 0
M  V30 3682 C 367.62 3.27334 -1.5341 0
M  V30 3683 O 367.341 3.25798 -2.92895 0
M  V30 3684 C 368.842 4.20759 -1.39559 0
M  V30 3685 H 366.062 0.571599 -0.351447 0
M  V30 3686 H 368.606 1.31982 -1.56208 0
M  V30 3687 H 366.761 3.74052 -1.00815 0
M  V30 3688 H 367.175 4.17144 -3.17949 0
M  V30 3689 H 368.649 5.21084 -1.82141 0
M  V30 3690 H 369.126 4.37856 -0.343394 0
M  V30 3691 H 369.732 3.79901 -1.91195 0
M  V30 3692 N 368.047 0.979072 1.23499 0
M  V30 3693 C 369.295 0.645941 1.91499 0
M  V30 3694 C 369.616 -0.822948 1.76784 0
M  V30 3695 O 368.886 -1.58854 1.14639 0
M  V30 3696 H 367.466 0.235919 0.708767 0
M  V30 3697 H 370.128 1.2426 1.50152 0
M  V30 3698 H 369.224 0.896411 2.9895 0
M  V30 3699 N 369.525 -1.3858 0.750561 0
M  V30 3700 C 370.472 -2.30483 0.120835 0
M  V30 3701 C 371.442 -1.50022 -0.712923 0
M  V30 3702 O 372.627 -1.78662 -0.669676 0
M  V30 3703 C 369.767 -3.36431 -0.768666 0
M  V30 3704 C 368.88 -4.31927 0.0793922 0
M  V30 3705 C 368.015 -5.24944 -0.81283 0
M  V30 3706 C 367.054 -6.12088 0.0390447 0
M  V30 3707 N 366.191 -6.97412 -0.809969 0
M  V30 3708 H 371.031 -2.83761 0.91015 0
M  V30 3709 H 368.568 -1.39707 0.460463 0
M  V30 3710 H 370.526 -3.96462 -1.29898 0
M  V30 3711 H 369.156 -2.8457 -1.5238 0
M  V30 3712 H 368.208 -3.73382 0.727303 0
M  V30 3713 H 369.52 -4.93319 0.737401 0
M  V30 3714 H 368.674 -5.90078 -1.41042 0
M  V30 3715 H 367.413 -4.63911 -1.50458 0
M  V30 3716 H 366.418 -5.45952 0.649328 0
M  V30 3717 H 367.643 -6.75189 0.727809 0
M  V30 3718 H 365.589 -6.38931 -1.48672 0
M  V30 3719 H 365.506 -7.55712 -0.208789 0
M  V30 3720 H 366.774 -7.66959 -1.39263 0
M  V30 3721 N 371.003 -0.499398 -1.49478 0
M  V30 3722 C 371.951 0.293604 -2.3074 0
M  V30 3723 C 372.945 0.96427 -1.39277 0
M  V30 3724 O 374.151 0.892141 -1.56336 0
M  V30 3725 H 370.526 0.113541 -0.743379 0
M  V30 3726 H 372.497 -0.411772 -2.95545 0
M  V30 3727 C 371.246 1.3462 -3.20582 0
M  V30 3728 H 370.569 0.83954 -3.90886 0
M  V30 3729 H 372.009 1.87308 -3.80384 0
M  V30 3730 C 370.468 2.36351 -2.40083 0
M  V30 3731 O 370.998 3.422 -2.10385 0
M  V30 3732 N 369.204 2.0878 -2.02137 0
M  V30 3733 H 368.751 1.22723 -2.26488 0
M  V30 3734 H 368.709 2.77075 -1.48583 0
M  V30 3735 O 372.52 1.5709 -0.374834 0
M  V30 3736 H 373.211 1.9292 0.173648 0
M  V30 END ATOM
M  V30 BEGIN BOND
M  V30 END BOND
M  V30 END CTAB
M  END
$$$$
