drugbank_target|P07998 Ribonuclease pancreatic (DB00128; DB00536; DB01812; DB01842; DB01942; DB01961; DB02098; DB02363; DB02573; DB02714; DB02805; DB02987; DB03155; DB03186; DB03326; DB03447; DB03448; DB03512; DB03726; DB03765; DB03792; DB03900; DB04272; DB04464; DB04514; DB08596; DB08661)
 OpenBabel12092120303D

  0  0  0     0  0            999 V3000
M  V30 BEGIN CTAB
M  V30 COUNTS 2456 2479 0 0 0
M  V30 BEGIN ATOM
M  V30 1 H -0.908 1.98254 -0.117106 0
M  V30 2 N 0 1.576 0 0
M  V30 3 C 0.933 2.03868 1.02534 0
M  V30 4 C 1.911 0.928543 1.3348 0
M  V30 5 O 3.095 1.19667 1.45644 0
M  V30 6 C 0.222 2.43627 2.35294 0
M  V30 7 C -0.732 3.65373 2.2001 0
M  V30 8 S 0.101 5.13292 1.52614 0
M  V30 9 C 1.257 5.56322 2.86805 0
M  V30 10 H 1.49 2.90518 0.631377 0
M  V30 11 H -0.977 1.52953 0.210867 0
M  V30 12 H 0.981 2.67203 3.11629 0
M  V30 13 H -0.358 1.57376 2.7183 0
M  V30 14 H -1.165 3.90944 3.18086 0
M  V30 15 H -1.563 3.418 1.51819 0
M  V30 16 H 0.729 5.58782 3.83104 0
M  V30 17 H 1.672 6.56266 2.65933 0
M  V30 18 H 2.08 4.83886 2.90714 0
M  V30 19 N 1.4781 -0.272755 1.55222 0
M  V30 20 C 2.4411 -1.32041 1.87344 0
M  V30 21 C 3.4411 -1.42342 0.74803 0
M  V30 22 O 4.6311 -1.41488 1.0162 0
M  V30 23 C 1.7631 -2.70173 2.07893 0
M  V30 24 H 2.9561 -1.04789 2.80997 0
M  V30 25 H 0.5091 -0.51083 1.47717 0
M  V30 26 H 1.2441 -3.02605 1.16622 0
M  V30 27 H 1.0291 -2.64082 2.89833 0
M  V30 28 H 2.5191 -3.45869 2.34017 0
M  V30 29 N 2.9562 -1.48159 -0.537278 0
M  V30 30 C 3.8862 -1.65029 -1.6519 0
M  V30 31 C 4.8672 -0.499281 -1.62607 0
M  V30 32 O 6.0522 -0.730972 -1.79918 0
M  V30 33 C 3.1822 -1.68303 -3.03795 0
M  V30 34 C 2.1362 -2.8283 -3.21234 0
M  V30 35 C 1.4622 -2.71189 -4.60826 0
M  V30 36 C 2.7622 -4.24211 -3.04701 0
M  V30 37 H 4.4562 -2.58341 -1.51328 0
M  V30 38 H 2.0022 -1.24325 -0.726585 0
M  V30 39 H 3.9552 -1.78693 -3.81637 0
M  V30 40 H 2.6792 -0.715635 -3.18663 0
M  V30 41 H 1.3382 -2.71983 -2.45807 0
M  V30 42 H 0.9862 -1.72435 -4.7252 0
M  V30 43 H 0.6862 -3.48035 -4.7344 0
M  V30 44 H 2.2102 -2.83537 -5.40777 0
M  V30 45 H 3.6242 -4.3593 -3.72341 0
M  V30 46 H 2.0212 -5.01998 -3.28813 0
M  V30 47 H 3.0912 -4.41184 -2.01209 0
M  V30 48 N 4.4343 0.785586 -1.36625 0
M  V30 49 C 5.3443 1.92964 -1.33425 0
M  V30 50 C 6.3603 1.72394 -0.235851 0
M  V30 51 O 7.5363 1.95866 -0.468878 0
M  V30 52 C 4.6013 3.27884 -1.12662 0
M  V30 53 C 3.6623 3.61204 -2.32013 0
M  V30 54 C 2.8953 4.89687 -2.12231 0
M  V30 55 O 3.1183 5.59704 -1.09945 0
M  V30 56 O 2.0523 5.21752 -3.00098 0
M  V30 57 H 5.8783 1.98613 -2.29753 0
M  V30 58 H 3.4633 0.926384 -1.17211 0
M  V30 59 H 5.3453 4.08614 -1.03016 0
M  V30 60 H 4.0203 3.23118 -0.193991 0
M  V30 61 H 2.9273 2.80765 -2.47228 0
M  V30 62 H 4.2603 3.70698 -3.23796 0
M  V30 63 N 5.9124 1.20967 1.01018 0
M  V30 64 C 6.8594 0.964281 2.09691 0
M  V30 65 C 7.8294 -0.107853 1.65749 0
M  V30 66 O 9.0144 0.0381987 1.90762 0
M  V30 67 C 6.1544 0.52943 3.41015 0
M  V30 68 C 5.2674 1.67043 3.98398 0
M  V30 69 C 4.4024 1.18525 5.17808 0
M  V30 70 C 3.4414 2.29892 5.67288 0
M  V30 71 N 2.5784 1.82546 6.77954 0
M  V30 72 H 7.4184 1.89463 2.30017 0
M  V30 73 H 4.9554 0.944289 1.1279 0
M  V30 74 H 6.9134 0.258588 4.16398 0
M  V30 75 H 5.5434 -0.363919 3.20742 0
M  V30 76 H 4.5954 2.05603 3.20049 0
M  V30 77 H 5.9074 2.50877 4.31117 0
M  V30 78 H 5.0614 0.870762 6.00419 0
M  V30 79 H 3.8004 0.316887 4.86669 0
M  V30 80 H 2.8054 2.6215 4.83278 0
M  V30 81 H 4.0304 3.17216 6.00459 0
M  V30 82 H 1.9764 0.980454 6.48632 0
M  V30 83 H 1.8934 2.59956 7.09901 0
M  V30 84 H 3.1614 1.54115 7.64113 0
M  V30 85 N 7.3905 -1.2043 1.01659 0
M  V30 86 C 8.6155 -1.94318 0.724942 0
M  V30 87 C 9.0405 -1.74266 -0.708034 0
M  V30 88 O 8.3985 -1.03694 -1.48719 0
M  V30 89 C 8.4465 -3.44486 1.06591 0
M  V30 90 O 7.5505 -4.12017 0.177599 0
M  V30 91 H 6.8915 -0.60708 0.26898 0
M  V30 92 H 9.4215 -1.52861 1.35995 0
M  V30 93 H 9.4315 -3.95106 1.01762 0
M  V30 94 H 8.1065 -3.58404 2.10997 0
M  V30 95 H 6.6835 -3.71821 0.283421 0
M  V30 96 N 8.8686 -0.792821 -1.36206 0
M  V30 97 C 9.7986 -0.207853 -2.32573 0
M  V30 98 C 10.7796 0.659055 -1.56813 0
M  V30 99 O 11.9646 0.592176 -1.84951 0
M  V30 100 C 9.0946 0.655449 -3.41059 0
M  V30 101 C 8.0486 -0.111842 -4.27854 0
M  V30 102 C 7.3746 0.872274 -5.27537 0
M  V30 103 C 8.6746 -1.30299 -5.05786 0
M  V30 104 H 10.3686 -1.01294 -2.81744 0
M  V30 105 H 7.9146 -0.48854 -1.3546 0
M  V30 106 H 9.8676 1.07464 -4.07467 0
M  V30 107 H 8.5916 1.49328 -2.90463 0
M  V30 108 H 7.2506 -0.512053 -3.63006 0
M  V30 109 H 6.8986 1.70523 -4.73214 0
M  V30 110 H 6.5986 0.363291 -5.86476 0
M  V30 111 H 8.1226 1.28996 -5.96818 0
M  V30 112 H 9.5366 -0.959379 -5.65216 0
M  V30 113 H 7.9336 -1.7455 -5.74154 0
M  V30 114 H 9.0036 -2.09663 -4.37229 0
M  V30 115 N 10.3467 1.47872 -0.545128 0
M  V30 116 C 11.5927 2.02793 -0.0166104 0
M  V30 117 C 11.9257 1.41987 1.32489 0
M  V30 118 O 11.2007 0.571045 1.85928 0
M  V30 119 C 11.4837 3.59989 0.0893294 0
M  V30 120 C 11.3367 4.3125 -1.27841 0
M  V30 121 C 12.6557 4.32606 0.808724 0
M  V30 122 H 9.7747 0.736962 -0.00751035 0
M  V30 123 H 12.4167 1.76433 -0.705085 0
M  V30 124 H 10.5667 3.82579 0.675681 0
M  V30 125 H 12.2387 4.20035 -1.90704 0
M  V30 126 H 10.4817 3.92076 -1.85632 0
M  V30 127 H 11.1527 5.39736 -1.15713 0
M  V30 128 H 13.6287 4.14936 0.310992 0
M  V30 129 H 12.5047 5.42251 0.851782 0
M  V30 130 H 12.7657 4.00963 1.86229 0
M  V30 131 N 11.8248 0.280983 1.55075 0
M  V30 132 C 13.2408 -0.0729964 1.59433 0
M  V30 133 C 13.4408 -1.5411 1.29817 0
M  V30 134 O 12.4968 -2.29086 1.06187 0
M  V30 135 C 13.8098 0.306921 2.9913 0
M  V30 136 C 15.3578 0.254023 3.11968 0
M  V30 137 C 15.8328 0.608467 4.5394 0
M  V30 138 N 17.3238 0.560241 4.59799 0
M  V30 139 C 18.0588 0.80722 5.6769 0
M  V30 140 N 17.5548 1.11912 6.83701 0
M  V30 141 N 19.3478 0.735623 5.57266 0
M  V30 142 H 11.4988 1.238 1.7259 0
M  V30 143 H 13.7618 0.500547 0.805082 0
M  V30 144 H 13.4678 1.32816 3.25657 0
M  V30 145 H 13.3418 -0.349363 3.75579 0
M  V30 146 H 15.7288 -0.75794 2.852 0
M  V30 147 H 15.8098 0.944649 2.37718 0
M  V30 148 H 15.4538 1.61814 4.81434 0
M  V30 149 H 15.3838 -0.104013 5.26497 0
M  V30 150 H 17.8748 0.329288 3.76463 0
M  V30 151 H 18.1878 1.29409 7.61888 0
M  V30 152 H 16.5328 1.15695 6.85303 0
M  V30 153 H 19.7238 0.491752 4.6551 0
M  V30 154 H 19.8968 0.931482 6.4127 0
M  V30 155 N 13.3029 -1.57598 0.00835791 0
M  V30 156 C 14.2329 -2.1198 -0.979113 0
M  V30 157 C 15.2139 -1.03091 -1.35301 0
M  V30 158 O 16.3989 -1.30818 -1.43528 0
M  V30 159 C 13.5289 -2.62995 -2.26828 0
M  V30 160 C 12.4829 -3.76485 -2.03576 0
M  V30 161 C 11.8089 -4.13846 -3.38579 0
M  V30 162 C 13.1089 -5.0342 -1.39161 0
M  V30 163 H 14.8029 -2.94738 -0.526281 0
M  V30 164 H 12.3489 -1.41783 -0.251704 0
M  V30 165 H 14.3019 -2.99669 -2.96271 0
M  V30 166 H 13.0259 -1.7737 -2.7424 0
M  V30 167 H 11.6849 -3.40217 -1.36557 0
M  V30 168 H 11.3329 -3.25232 -3.83709 0
M  V30 169 H 11.0329 -4.90312 -3.23834 0
M  V30 170 H 12.5569 -4.53086 -4.09323 0
M  V30 171 H 13.9709 -5.37812 -1.98573 0
M  V30 172 H 12.3679 -5.84746 -1.34878 0
M  V30 173 H 13.4379 -4.83548 -0.361868 0
M  V30 174 N 14.781 0.264519 -1.55364 0
M  V30 175 C 15.711 1.33121 -1.91836 0
M  V30 176 C 16.692 1.51101 -0.781192 0
M  V30 177 O 17.877 1.64003 -1.04003 0
M  V30 178 C 15.007 2.68921 -2.19769 0
M  V30 179 C 13.961 2.65661 -3.35571 0
M  V30 180 C 13.287 4.05093 -3.49004 0
M  V30 181 C 14.587 2.24187 -4.71739 0
M  V30 182 H 16.281 1.02844 -2.81182 0
M  V30 183 H 13.827 0.493286 -1.35287 0
M  V30 184 H 15.78 3.43663 -2.43872 0
M  V30 185 H 14.504 3.00799 -1.27231 0
M  V30 186 H 13.163 1.93377 -3.1145 0
M  V30 187 H 12.811 4.34206 -2.53917 0
M  V30 188 H 12.511 4.03804 -4.26868 0
M  V30 189 H 14.035 4.81561 -3.75408 0
M  V30 190 H 15.449 2.88654 -4.9533 0
M  V30 191 H 13.846 2.34044 -5.52579 0
M  V30 192 H 14.916 1.19327 -4.69988 0
M  V30 193 N 16.2591 1.48442 0.529413 0
M  V30 194 C 17.1891 1.65902 1.64313 0
M  V30 195 C 18.1701 0.507897 1.6234 0
M  V30 196 O 19.3551 0.740503 1.79528 0
M  V30 197 C 16.4851 1.69911 3.02898 0
M  V30 198 C 15.4391 2.8453 3.19729 0
M  V30 199 C 14.7651 2.73629 4.59381 0
M  V30 200 C 16.0651 4.25821 3.02447 0
M  V30 201 H 17.7591 2.5914 1.49955 0
M  V30 202 H 15.3051 1.24709 0.719982 0
M  V30 203 H 17.2581 1.80715 3.80684 0
M  V30 204 H 15.9821 0.732524 3.18279 0
M  V30 205 H 14.6411 2.73283 2.44361 0
M  V30 206 H 14.2891 1.74938 4.71599 0
M  V30 207 H 13.9891 3.50541 4.71588 0
M  V30 208 H 15.5131 2.86401 5.39265 0
M  V30 209 H 16.9271 4.37898 3.70024 0
M  V30 210 H 15.3241 5.03735 3.26146 0
M  V30 211 H 16.3941 4.42244 1.98867 0
M  V30 212 N 17.7372 -0.778329 1.37039 0
M  V30 213 C 18.6672 -1.90546 1.34962 0
M  V30 214 C 19.6482 -1.68681 0.219274 0
M  V30 215 O 20.8332 -1.89634 0.418624 0
M  V30 216 C 17.9632 -3.27734 1.14925 0
M  V30 217 C 16.9172 -3.64147 2.24902 0
M  V30 218 C 16.2432 -4.99806 1.89996 0
M  V30 219 C 17.5432 -3.71579 3.67051 0
M  V30 220 H 19.2372 -1.92541 2.29277 0
M  V30 221 H 16.7832 -0.924948 1.10366 0
M  V30 222 H 18.7362 -4.06215 1.12104 0
M  V30 223 H 17.4602 -3.26154 0.170631 0
M  V30 224 H 16.1192 -2.8797 2.26868 0
M  V30 225 H 15.7672 -4.94759 0.906796 0
M  V30 226 H 15.4672 -5.25139 2.63634 0
M  V30 227 H 16.9912 -5.80694 1.88749 0
M  V30 228 H 18.4052 -4.40227 3.67251 0
M  V30 229 H 16.8022 -4.08405 4.39688 0
M  V30 230 H 17.8722 -2.72404 4.01154 0
M  V30 231 N 19.2153 -1.21501 -1.00376 0
M  V30 232 C 20.4613 -1.03452 -1.74429 0
M  V30 233 C 20.7943 0.430764 -1.89362 0
M  V30 234 O 20.0693 1.31962 -1.42886 0
M  V30 235 C 20.3523 -1.73375 -3.15615 0
M  V30 236 C 20.2053 -3.27431 -3.08397 0
M  V30 237 C 21.5243 -1.47732 -4.14564 0
M  V30 238 H 18.6433 -0.377226 -0.633143 0
M  V30 239 H 21.2853 -1.49693 -1.17013 0
M  V30 240 H 19.4353 -1.34064 -3.64636 0
M  V30 241 H 21.1073 -3.76119 -2.67081 0
M  V30 242 H 19.3503 -3.5767 -2.45468 0
M  V30 243 H 20.0213 -3.71524 -4.08258 0
M  V30 244 H 22.4973 -1.8186 -3.74254 0
M  V30 245 H 21.3733 -1.99169 -5.11491 0
M  V30 246 H 21.6343 -0.407589 -4.40217 0
M  V30 247 N 20.6934 1.19889 -1.02296 0
M  V30 248 C 21.6234 2.25141 -0.619174 0
M  V30 249 C 22.6044 1.66051 0.368915 0
M  V30 250 O 23.7894 1.92546 0.252941 0
M  V30 251 C 20.9194 3.4728 0.0368783 0
M  V30 252 C 19.8734 4.19005 -0.872865 0
M  V30 253 C 19.1994 5.34637 -0.0822402 0
M  V30 254 C 20.4994 4.74452 -2.18387 0
M  V30 255 H 22.1934 2.59171 -1.49903 0
M  V30 256 H 19.7394 1.24579 -0.722222 0
M  V30 257 H 21.6924 4.20098 0.330958 0
M  V30 258 H 20.4164 3.12433 0.95149 0
M  V30 259 H 19.0754 3.48061 -1.15105 0
M  V30 260 H 18.7234 4.96034 0.83422 0
M  V30 261 H 18.4234 5.83557 -0.688149 0
M  V30 262 H 19.9474 6.10255 0.205238 0
M  V30 263 H 21.3614 5.39055 -1.95172 0
M  V30 264 H 19.7584 5.33834 -2.74119 0
M  V30 265 H 20.8284 3.92844 -2.84257 0
M  V30 266 N 22.1715 0.800033 1.35784 0
M  V30 267 C 23.4205 0.37387 1.98205 0
M  V30 268 C 23.7335 -1.06302 1.64193 0
M  V30 269 O 24.9395 -1.59198 2.19928 0
M  V30 270 C 23.3955 0.617532 3.54562 0
M  V30 271 C 23.0035 2.06654 3.9749 0
M  V30 272 C 24.7475 0.256401 4.23725 0
M  V30 273 C 22.6545 2.2563 5.46667 0
M  V30 274 H 21.5845 0.136055 0.741623 0
M  V30 275 H 24.2355 0.983166 1.54939 0
M  V30 276 H 22.6175 -0.0616248 3.95952 0
M  V30 277 H 23.7915 2.78296 3.67271 0
M  V30 278 H 22.1065 2.38691 3.41197 0
M  V30 279 H 24.7035 0.376318 5.33374 0
M  V30 280 H 25.0465 -0.796692 4.08606 0
M  V30 281 H 25.5795 0.889214 3.87734 0
M  V30 282 H 22.3185 3.2936 5.66747 0
M  V30 283 H 21.8385 1.58504 5.78478 0
M  V30 284 H 23.5175 2.06861 6.1304 0
M  V30 285 N 23.6496 -1.47581 0.552962 0
M  V30 286 C 24.5796 -2.32762 -0.185451 0
M  V30 287 C 25.5606 -1.43527 -0.912905 0
M  V30 288 O 26.7456 -1.72388 -0.894201 0
M  V30 289 C 23.8756 -3.25219 -1.21859 0
M  V30 290 C 22.8296 -4.23661 -0.607864 0
M  V30 291 C 22.1556 -5.05413 -1.74533 0
M  V30 292 C 23.4556 -5.20481 0.435582 0
M  V30 293 H 25.1496 -2.94749 0.525684 0
M  V30 294 H 22.6956 -1.41738 0.254251 0
M  V30 295 H 24.6486 -3.8365 -1.7433 0
M  V30 296 H 23.3726 -2.61279 -1.95961 0
M  V30 297 H 22.0316 -3.66451 -0.104489 0
M  V30 298 H 21.6796 -4.3788 -2.47529 0
M  V30 299 H 21.3796 -5.72059 -1.34249 0
M  V30 300 H 22.9036 -5.66701 -2.27338 0
M  V30 301 H 24.3176 -5.733 -0.00290157 0
M  V30 302 H 22.7146 -5.95305 0.757067 0
M  V30 303 H 23.7846 -4.66217 1.33303 0
M  V30 304 N 25.1277 -0.289203 -1.54924 0
M  V30 305 C 26.0577 0.58549 -2.2604 0
M  V30 306 C 27.0387 1.14753 -1.25562 0
M  V30 307 O 28.2237 1.17906 -1.54311 0
M  V30 308 C 25.3537 1.76305 -2.99222 0
M  V30 309 C 24.3077 1.33191 -4.06748 0
M  V30 310 C 23.6337 2.5937 -4.6758 0
M  V30 311 C 24.9337 0.471775 -5.20165 0
M  V30 312 H 26.6277 -0.00763532 -2.99399 0
M  V30 313 H 24.1737 -0.00511229 -1.43999 0
M  V30 314 H 26.1267 2.38097 -3.47689 0
M  V30 315 H 24.8507 2.38223 -2.23422 0
M  V30 316 H 23.5097 0.737121 -3.59113 0
M  V30 317 H 23.1577 3.19576 -3.88433 0
M  V30 318 H 22.8577 2.31228 -5.40192 0
M  V30 319 H 24.3817 3.21985 -5.18804 0
M  V30 320 H 25.7957 0.995056 -5.64599 0
M  V30 321 H 24.1927 0.284639 -5.99425 0
M  V30 322 H 25.2627 -0.506041 -4.82252 0
M  V30 323 N 26.6058 1.57591 -0.0167156 0
M  V30 324 C 27.8518 1.91567 0.665582 0
M  V30 325 C 28.1848 0.892298 1.72487 0
M  V30 326 O 27.4598 -0.0867127 1.94307 0
M  V30 327 C 27.7428 3.36069 1.29342 0
M  V30 328 C 27.5958 4.49135 0.244541 0
M  V30 329 C 28.9148 3.803 2.21495 0
M  V30 330 H 26.0338 0.69666 0.240488 0
M  V30 331 H 28.6758 1.89866 -0.0714356 0
M  V30 332 H 26.8258 3.3765 1.92158 0
M  V30 333 H 28.4978 4.59689 -0.385228 0
M  V30 334 H 26.7408 4.3165 -0.431379 0
M  V30 335 H 27.4118 5.47242 0.723207 0
M  V30 336 H 29.8878 3.80377 1.68678 0
M  V30 337 H 28.7638 4.82127 2.62382 0
M  V30 338 H 29.0248 3.15104 3.101 0
M  V30 339 N 28.0839 -0.256276 1.55502 0
M  V30 340 C 29.0139 -1.32102 1.92539 0
M  V30 341 C 29.9949 -1.50684 0.789194 0
M  V30 342 O 31.1799 -1.63449 1.04872 0
M  V30 343 C 28.3099 -2.67752 2.21192 0
M  V30 344 C 27.2639 -2.63878 3.36975 0
M  V30 345 C 26.5899 -4.03236 3.51147 0
M  V30 346 C 27.8899 -2.21682 4.72921 0
M  V30 347 H 29.5839 -1.01351 2.81724 0
M  V30 348 H 27.1299 -0.486105 1.35547 0
M  V30 349 H 29.0829 -3.42365 2.45691 0
M  V30 350 H 27.8069 -3.0012 1.28824 0
M  V30 351 H 26.4659 -1.91722 3.12471 0
M  V30 352 H 26.1139 -4.32854 2.56216 0
M  V30 353 H 25.8139 -4.01535 4.29003 0
M  V30 354 H 27.3379 -4.79563 3.77957 0
M  V30 355 H 28.7519 -2.86023 4.96854 0
M  V30 356 H 27.1489 -2.3111 5.53812 0
M  V30 357 H 28.2189 -1.16833 4.70615 0
M  V30 358 N 29.562 -1.4872 -0.521534 0
M  V30 359 C 30.81 -1.56857 -1.27437 0
M  V30 360 C 31.131 -0.247982 -1.93417 0
M  V30 361 O 30.401 0.731151 -1.81744 0
M  V30 362 H 28.981 -0.577885 -0.473347 0
M  V30 363 H 31.643 -1.85233 -0.606205 0
M  V30 364 H 30.739 -2.35402 -2.0492 0
M  V30 365 N 31.0401 0.771051 -1.3745 0
M  V30 366 C 32.2861 1.53109 -1.339 0
M  V30 367 C 32.6411 1.9225 0.0758401 0
M  V30 368 O 31.9341 1.61264 1.03463 0
M  V30 369 C 32.1281 2.80676 -2.2126 0
M  V30 370 C 31.9571 2.54003 -3.71096 0
M  V30 371 C 30.7271 2.48097 -4.402 0
M  V30 372 C 32.9251 2.21953 -4.63941 0
M  V30 373 N 30.9071 2.13515 -5.75573 0
M  V30 374 C 32.2781 1.97516 -5.87697 0
M  V30 375 C 34.3331 2.08114 -4.5232 0
M  V30 376 C 33.0361 1.60638 -7.01133 0
M  V30 377 C 35.0621 1.72636 -5.65642 0
M  V30 378 C 34.4241 1.4906 -6.88448 0
M  V30 379 H 30.5231 0.56055 -0.54526 0
M  V30 380 H 33.1071 0.899472 -1.72678 0
M  V30 381 H 31.2781 3.41674 -1.84698 0
M  V30 382 H 33.0101 3.46578 -2.08963 0
M  V30 383 H 29.7651 2.63974 -3.93211 0
M  V30 384 H 30.1891 1.98919 -6.47117 0
M  V30 385 H 34.8311 2.25024 -3.57944 0
M  V30 386 H 32.5491 1.42467 -7.95443 0
M  V30 387 H 36.1351 1.62586 -5.58621 0
M  V30 388 H 35.0151 1.22014 -7.7465 0
M  V30 389 N 32.5182 1.22032 0.997298 0
M  V30 390 C 33.7642 1.04376 1.73878 0
M  V30 391 C 34.0972 -0.420716 1.89588 0
M  V30 392 O 33.3722 -1.31202 1.43583 0
M  V30 393 C 33.6552 1.75047 3.14691 0
M  V30 394 C 33.5082 3.29062 3.06656 0
M  V30 395 C 34.8272 1.49928 4.13775 0
M  V30 396 H 31.9462 0.380578 0.631133 0
M  V30 397 H 34.5882 1.50312 1.16217 0
M  V30 398 H 32.7382 1.35996 3.63919 0
M  V30 399 H 34.4102 3.7753 2.65083 0
M  V30 400 H 32.6532 3.58967 2.43568 0
M  V30 401 H 33.3242 3.73683 4.06282 0
M  V30 402 H 35.8002 1.83842 3.73285 0
M  V30 403 H 34.6762 2.01878 5.10428 0
M  V30 404 H 34.9372 0.430929 4.39995 0
M  V30 405 N 33.9963 -1.19345 1.0293 0
M  V30 406 C 34.9283 -2.22036 0.56857 0
M  V30 407 C 35.9413 -1.58865 -0.355779 0
M  V30 408 O 37.1303 -1.77851 -0.152103 0
M  V30 409 C 34.2303 -3.38363 -0.190752 0
M  V30 410 C 33.4033 -4.31118 0.738643 0
M  V30 411 C 32.4623 -5.26194 0.0246497 0
M  V30 412 O 31.4883 -5.65461 0.651354 0
M  V30 413 N 32.6903 -5.66971 -1.24594 0
M  V30 414 H 35.4553 -2.6219 1.45177 0
M  V30 415 H 33.0163 -1.34015 0.908381 0
M  V30 416 H 35.0083 -3.98981 -0.677961 0
M  V30 417 H 33.5783 -2.96994 -0.975366 0
M  V30 418 H 32.7983 -3.68276 1.40593 0
M  V30 419 H 34.0863 -4.90001 1.37029 0
M  V30 420 H 33.4843 -5.37104 -1.77583 0
M  V30 421 H 32.0413 -6.2984 -1.67764 0
M  V30 422 N 35.4744 -0.807222 -1.35358 0
M  V30 423 C 36.8854 -0.44876 -1.81226 0
M  V30 424 C 37.2364 1.02929 -1.67033 0
M  V30 425 O 36.3614 1.79991 -1.20133 0
M  V30 426 C 36.9564 -0.807774 -3.2903 0
M  V30 427 C 35.5154 -0.501901 -3.73039 0
M  V30 428 C 34.6624 -1.03304 -2.57339 0
M  V30 429 H 37.6134 -0.998808 -1.23327 0
M  V30 430 H 37.6344 -0.10554 -3.80354 0
M  V30 431 H 37.1464 -1.88357 -3.39328 0
M  V30 432 H 35.2474 0.565128 -3.68289 0
M  V30 433 H 35.3604 -1.03497 -4.67787 0
M  V30 434 H 33.7244 -0.455339 -2.50597 0
M  V30 435 H 34.5074 -2.11496 -2.70415 0
M  V30 436 N 36.9525 1.47285 -0.560781 0
M  V30 437 C 38.1775 2.07359 -0.0410566 0
M  V30 438 C 38.6025 1.41017 1.24483 0
M  V30 439 O 37.9605 0.486368 1.74654 0
M  V30 440 C 38.0085 3.6035 0.134123 0
M  V30 441 O 37.1125 3.94681 1.19587 0
M  V30 442 H 36.4535 0.661887 -0.0529291 0
M  V30 443 H 38.9835 1.89252 -0.777482 0
M  V30 444 H 38.9935 4.0652 0.347207 0
M  V30 445 H 37.6685 4.08034 -0.805047 0
M  V30 446 H 36.2455 3.60251 0.962987 0
M  V30 447 N 38.4306 0.297415 1.54768 0
M  V30 448 C 39.3606 -0.573494 2.26348 0
M  V30 449 C 40.3416 -1.14085 1.26169 0
M  V30 450 O 41.5266 -1.17086 1.54934 0
M  V30 451 C 38.6566 -1.74716 3.00153 0
M  V30 452 C 37.6106 -1.31032 4.07449 0
M  V30 453 C 36.9366 -2.56887 4.68949 0
M  V30 454 C 38.2366 -0.444183 5.20408 0
M  V30 455 H 39.9306 0.0235131 2.99391 0
M  V30 456 H 37.4766 0.0127488 1.43994 0
M  V30 457 H 39.4296 -2.3625 3.48947 0
M  V30 458 H 38.1536 -2.37035 2.24682 0
M  V30 459 H 36.8126 -0.718066 3.59499 0
M  V30 460 H 36.4606 -3.17512 3.90122 0
M  V30 461 H 36.1606 -2.2836 5.41411 0
M  V30 462 H 37.6846 -3.19229 5.20505 0
M  V30 463 H 39.0986 -0.9651 5.65118 0
M  V30 464 H 37.4956 -0.252846 5.99567 0
M  V30 465 H 38.5656 0.531609 4.81977 0
M  V30 466 N 39.9087 -1.5758 0.0250728 0
M  V30 467 C 41.1567 -1.91255 -0.653151 0
M  V30 468 C 41.4777 -0.901691 -1.729 0
M  V30 469 O 40.7477 0.0573785 -1.95816 0
M  V30 470 H 39.3277 -0.705942 -0.244243 0
M  V30 471 H 41.9897 -1.94767 0.0719209 0
M  V30 472 H 41.0857 -2.91752 -1.10847 0
M  V30 473 N 41.3868 0.248026 -1.55636 0
M  V30 474 C 42.3338 1.30707 -1.90222 0
M  V30 475 C 43.3038 1.47881 -0.756332 0
M  V30 476 O 44.4888 1.61883 -1.00988 0
M  V30 477 C 41.6288 2.65769 -2.20138 0
M  V30 478 C 40.7418 2.56612 -3.47526 0
M  V30 479 C 39.8768 3.8402 -3.67017 0
M  V30 480 C 38.9158 3.69476 -4.8801 0
M  V30 481 N 38.0528 4.88774 -5.04029 0
M  V30 482 H 42.8928 1.00512 -2.80538 0
M  V30 483 H 40.4298 0.485055 -1.38873 0
M  V30 484 H 42.3878 3.44386 -2.35487 0
M  V30 485 H 41.0178 2.94115 -1.33027 0
M  V30 486 H 40.0698 1.69571 -3.40514 0
M  V30 487 H 41.3818 2.41774 -4.36287 0
M  V30 488 H 40.5358 4.7108 -3.8232 0
M  V30 489 H 39.2748 4.01754 -2.76487 0
M  V30 490 H 38.2798 2.80799 -4.72686 0
M  V30 491 H 39.5048 3.53238 -5.8 0
M  V30 492 H 37.4508 5.0687 -4.16435 0
M  V30 493 H 37.3678 4.76562 -5.86877 0
M  V30 494 H 38.6358 5.77335 -5.23741 0
M  V30 495 N 42.8649 1.48995 0.513639 0
M  V30 496 C 43.7749 1.67443 1.64317 0
M  V30 497 C 44.7909 0.556947 1.64846 0
M  V30 498 O 45.9669 0.830082 1.83498 0
M  V30 499 C 43.0319 1.72515 3.00732 0
M  V30 500 C 42.0929 2.96009 3.1093 0
M  V30 501 C 41.3259 3.00829 4.40837 0
M  V30 502 O 41.5489 2.13594 5.28898 0
M  V30 503 O 40.4829 3.93168 4.55744 0
M  V30 504 H 44.3089 2.63106 1.51687 0
M  V30 505 H 41.8939 1.32588 0.688543 0
M  V30 506 H 43.7759 1.78277 3.81831 0
M  V30 507 H 42.4509 0.800278 3.13651 0
M  V30 508 H 41.3579 2.9577 2.29065 0
M  V30 509 H 42.6909 3.87934 3.02933 0
M  V30 510 N 44.343 -0.763751 1.37857 0
M  V30 511 C 45.568 -1.55805 1.36893 0
M  V30 512 C 45.993 -1.88054 -0.0416135 0
M  V30 513 O 45.351 -1.49825 -1.02089 0
M  V30 514 C 45.399 -2.84012 2.22192 0
M  V30 515 O 44.503 -3.78732 1.63204 0
M  V30 516 H 43.844 -0.471638 0.46739 0
M  V30 517 H 46.374 -0.944657 1.81487 0
M  V30 518 H 46.384 -3.33037 2.35691 0
M  V30 519 H 45.059 -2.59869 3.24716 0
M  V30 520 H 43.636 -3.37402 1.58791 0
M  V30 521 N 45.8211 -1.22559 -0.990812 0
M  V30 522 C 47.2371 -0.985996 -1.255 0
M  V30 523 C 47.4371 0.319173 -1.98956 0
M  V30 524 O 46.4931 1.04127 -2.3003 0
M  V30 525 C 47.8061 -2.18607 -2.06474 0
M  V30 526 C 49.3541 -2.22985 -2.19651 0
M  V30 527 C 49.8291 -3.4255 -3.04012 0
M  V30 528 N 51.3201 -3.42725 -3.11599 0
M  V30 529 C 52.0551 -4.31892 -3.7717 0
M  V30 530 N 51.5511 -5.31279 -4.44651 0
M  V30 531 N 53.3441 -4.19662 -3.73952 0
M  V30 532 H 45.4951 -2.06469 -0.49841 0
M  V30 533 H 47.7581 -0.904853 -0.282747 0
M  V30 534 H 47.4641 -3.13267 -1.59865 0
M  V30 535 H 47.3381 -2.18838 -3.07229 0
M  V30 536 H 49.7251 -1.28871 -2.65474 0
M  V30 537 H 49.8061 -2.26791 -1.18319 0
M  V30 538 H 49.4501 -4.36965 -2.58889 0
M  V30 539 H 49.3801 -3.35984 -4.0549 0
M  V30 540 H 51.8711 -2.70807 -2.63575 0
M  V30 541 H 52.1841 -5.95593 -4.92431 0
M  V30 542 H 50.5291 -5.3519 -4.43392 0
M  V30 543 H 53.7201 -3.41268 -3.20396 0
M  V30 544 H 53.8931 -4.89358 -4.24774 0
M  V30 545 N 47.2992 1.18797 -1.03562 0
M  V30 546 C 48.2622 2.20464 -0.626769 0
M  V30 547 C 49.2622 1.57721 0.313173 0
M  V30 548 O 50.4522 1.73917 0.0992615 0
M  V30 549 C 47.5842 3.40802 0.0818498 0
M  V30 550 H 48.7772 2.58149 -1.5264 0
M  V30 551 H 46.3302 1.32593 -0.827578 0
M  V30 552 H 47.0652 3.08642 0.995518 0
M  V30 553 H 46.8502 3.8758 -0.593652 0
M  V30 554 H 48.3402 4.16092 0.354584 0
M  V30 555 N 48.7773 0.814389 1.34928 0
M  V30 556 C 49.7243 0.22822 2.29669 0
M  V30 557 C 50.6943 -0.642164 1.53184 0
M  V30 558 O 51.8793 -0.585605 1.81591 0
M  V30 559 C 49.0193 -0.61089 3.3965 0
M  V30 560 C 48.1323 0.280792 4.31086 0
M  V30 561 C 47.2673 -0.567067 5.28165 0
M  V30 562 C 46.3063 0.324531 6.11239 0
M  V30 563 N 45.4433 -0.483756 7.00431 0
M  V30 564 H 50.2833 1.04153 2.79206 0
M  V30 565 H 47.8203 0.525133 1.37407 0
M  V30 566 H 49.7783 -1.11263 4.0209 0
M  V30 567 H 48.4083 -1.38939 2.91369 0
M  V30 568 H 47.4603 0.900688 3.69583 0
M  V30 569 H 48.7723 0.966723 4.89342 0
M  V30 570 H 47.9263 -1.13363 5.96015 0
M  V30 571 H 46.6653 -1.28654 4.70425 0
M  V30 572 H 45.6703 0.903298 5.42329 0
M  V30 573 H 46.8953 1.04198 6.71059 0
M  V30 574 H 44.8413 -1.18706 6.45171 0
M  V30 575 H 44.7583 0.143965 7.55863 0
M  V30 576 H 46.0263 -1.03334 7.7262 0
M  V30 577 N 50.2554 -1.46986 0.568584 0
M  V30 578 C 51.2024 -2.30153 -0.172707 0
M  V30 579 C 52.1724 -1.39759 -0.897586 0
M  V30 580 O 53.3574 -1.68716 -0.891044 0
M  V30 581 C 50.4974 -3.23952 -1.1895 0
M  V30 582 C 49.6104 -4.29441 -0.469517 0
M  V30 583 C 48.7454 -5.1038 -1.47259 0
M  V30 584 C 47.7844 -6.07632 -0.738225 0
M  V30 585 N 46.9214 -6.8149 -1.68868 0
M  V30 586 H 51.7614 -2.93019 0.542596 0
M  V30 587 H 49.2984 -1.44422 0.279401 0
M  V30 588 H 51.2564 -3.76767 -1.79173 0
M  V30 589 H 49.8864 -2.62926 -1.87269 0
M  V30 590 H 48.9384 -3.79594 0.247467 0
M  V30 591 H 50.2504 -4.98689 0.105241 0
M  V30 592 H 49.4044 -5.67402 -2.14803 0
M  V30 593 H 48.1434 -4.4106 -2.08128 0
M  V30 594 H 47.1484 -5.49778 -0.0489293 0
M  V30 595 H 48.3734 -6.78966 -0.135129 0
M  V30 596 H 46.3194 -6.14891 -2.28573 0
M  V30 597 H 46.2364 -7.46948 -1.16636 0
M  V30 598 H 47.5044 -7.43078 -2.3549 0
M  V30 599 N 51.7335 -0.305618 -1.54608 0
M  V30 600 C 52.9805 0.302298 -2.00231 0
M  V30 601 C 53.3085 1.5354 -1.19398 0
M  V30 602 O 52.5635 1.93973 -0.259423 0
M  V30 603 C 52.8625 0.698983 -3.50498 0
M  V30 604 C 52.5285 -0.432903 -4.48817 0
M  V30 605 C 51.1905 -0.743622 -4.75419 0
M  V30 606 C 53.5425 -1.19409 -5.07337 0
M  V30 607 C 50.8705 -1.81857 -5.57804 0
M  V30 608 C 53.2225 -2.25899 -5.90891 0
M  V30 609 C 51.8865 -2.57572 -6.15803 0
M  V30 610 H 51.1565 0.110619 -0.732697 0
M  V30 611 H 53.8035 -0.425674 -1.86709 0
M  V30 612 H 52.1085 1.50711 -3.61654 0
M  V30 613 H 53.8055 1.1806 -3.83227 0
M  V30 614 H 50.3955 -0.18063 -4.28219 0
M  V30 615 H 54.5795 -0.967295 -4.86782 0
M  V30 616 H 49.8355 -2.06864 -5.75341 0
M  V30 617 H 54.0095 -2.85335 -6.35261 0
M  V30 618 H 51.6365 -3.40998 -6.7943 0
M  V30 619 N 53.2116 1.57565 -0.0334293 0
M  V30 620 C 54.1436 2.0739 0.975811 0
M  V30 621 C 55.1566 0.998166 1.2861 0
M  V30 622 O 56.3456 1.27426 1.25 0
M  V30 623 C 53.4456 2.4871 2.30209 0
M  V30 624 C 52.6186 3.79413 2.17634 0
M  V30 625 C 51.6776 4.07237 3.33233 0
M  V30 626 O 50.7036 4.77425 3.09927 0
M  V30 627 N 51.9056 3.5775 4.5716 0
M  V30 628 H 54.6706 2.94598 0.55066 0
M  V30 629 H 52.2316 1.61173 0.15323 0
M  V30 630 H 54.2236 2.64413 3.06378 0
M  V30 631 H 52.7936 1.66845 2.64351 0
M  V30 632 H 52.0136 3.73465 1.26165 0
M  V30 633 H 53.3016 4.65038 2.0644 0
M  V30 634 H 52.6996 3.00976 4.78989 0
M  V30 635 H 51.2566 3.78724 5.30482 0
M  V30 636 N 54.6897 -0.239769 1.55765 0
M  V30 637 C 56.1057 -0.588624 1.48349 0
M  V30 638 C 56.3057 -1.88005 0.72502 0
M  V30 639 O 55.3617 -2.51186 0.257269 0
M  V30 640 C 56.6747 -0.68474 2.928 0
M  V30 641 C 58.2227 -0.77659 3.03213 0
M  V30 642 C 58.6977 -0.904207 4.48986 0
M  V30 643 N 60.1887 -0.968896 4.52953 0
M  V30 644 C 60.9237 -1.08703 5.63002 0
M  V30 645 N 60.4197 -1.17026 6.82845 0
M  V30 646 N 62.2127 -1.12074 5.50814 0
M  V30 647 H 54.3637 0.607911 2.03515 0
M  V30 648 H 56.6267 0.21083 0.924259 0
M  V30 649 H 56.3327 0.194284 3.51163 0
M  V30 650 H 56.2067 -1.55435 3.43686 0
M  V30 651 H 58.5937 -1.64606 2.44926 0
M  V30 652 H 58.6747 0.118315 2.55526 0
M  V30 653 H 58.3187 -0.0392633 5.07885 0
M  V30 654 H 58.2487 -1.81426 4.9436 0
M  V30 655 H 60.7397 -0.915633 3.6664 0
M  V30 656 H 61.0527 -1.25966 7.62465 0
M  V30 657 H 59.3977 -1.13971 6.85591 0
M  V30 658 H 62.5887 -1.05226 4.5612 0
M  V30 659 H 62.7617 -1.20936 6.36615 0
M  V30 660 N 56.1678 -1.49265 -0.50573 0
M  V30 661 C 57.0998 -1.617 -1.62437 0
M  V30 662 C 58.1128 -0.499924 -1.54934 0
M  V30 663 O 59.3018 -0.771785 -1.60953 0
M  V30 664 C 56.4018 -1.5533 -3.01207 0
M  V30 665 C 55.5748 -2.8249 -3.33943 0
M  V30 666 C 54.6338 -2.69238 -4.52103 0
M  V30 667 O 53.6598 -3.43167 -4.5412 0
M  V30 668 N 54.8618 -1.80468 -5.51735 0
M  V30 669 H 57.6268 -2.58177 -1.52199 0
M  V30 670 H 55.1878 -1.46294 -0.693511 0
M  V30 671 H 57.1798 -1.44125 -3.78167 0
M  V30 672 H 55.7498 -0.667297 -3.05395 0
M  V30 673 H 54.9698 -3.08081 -2.45926 0
M  V30 674 H 56.2578 -3.66802 -3.5261 0
M  V30 675 H 55.6558 -1.19653 -5.52901 0
M  V30 676 H 54.2128 -1.75188 -6.27816 0
M  V30 677 N 57.6459 0.756429 -1.3826 0
M  V30 678 C 58.5959 1.86069 -1.31766 0
M  V30 679 C 59.5799 1.59621 -0.202483 0
M  V30 680 O 60.7719 1.7149 -0.438211 0
M  V30 681 C 57.9009 3.23742 -1.1422 0
M  V30 682 C 56.9869 3.56091 -2.30348 0
M  V30 683 N 57.3779 3.59517 -3.55783 0
M  V30 684 C 55.6759 3.86341 -2.22838 0
M  V30 685 C 56.3769 3.89052 -4.32451 0
M  V30 686 N 55.3529 4.05736 -3.61772 0
M  V30 687 H 59.1549 1.86992 -2.26741 0
M  V30 688 H 56.6689 0.953643 -1.31451 0
M  V30 689 H 58.6659 4.02761 -1.07652 0
M  V30 690 H 57.3259 3.24073 -0.201763 0
M  V30 691 H 58.3369 3.41347 -3.89491 0
M  V30 692 H 55.0139 3.94404 -1.36937 0
M  V30 693 H 56.4039 3.98349 -5.4108 0
M  V30 694 N 59.124 1.23083 0.984299 0
M  V30 695 C 60.057 0.951786 2.07404 0
M  V30 696 C 61.035 -0.10848 1.62238 0
M  V30 697 O 62.219 0.0249467 1.88483 0
M  V30 698 C 59.346 0.433142 3.35919 0
M  V30 699 C 58.392 1.47941 4.0002 0
M  V30 700 S 59.225 3.05556 4.39768 0
M  V30 701 C 60.381 2.55351 5.71442 0
M  V30 702 H 60.614 1.87456 2.30754 0
M  V30 703 H 58.147 1.06284 1.11996 0
M  V30 704 H 60.105 0.140506 4.10259 0
M  V30 705 H 58.766 -0.468656 3.10584 0
M  V30 706 H 57.959 1.06658 4.92585 0
M  V30 707 H 57.561 1.7212 3.3204 0
M  V30 708 H 59.853 1.97128 6.48187 0
M  V30 709 H 60.796 3.46441 6.17563 0
M  V30 710 H 61.204 1.96339 5.29255 0
M  V30 711 N 60.6021 -1.18246 1.0419 0
M  V30 712 C 61.8791 -1.84121 0.660208 0
M  V30 713 C 62.2591 -1.92778 -0.860221 0
M  V30 714 O 61.6071 -1.45464 -1.76217 0
M  V30 715 C 61.8171 -3.22355 1.33747 0
M  V30 716 C 63.1651 -3.98376 1.46906 0
M  V30 717 O 64.1891 -3.31799 1.29568 0
M  V30 718 O 63.0481 -5.17665 1.75171 0
M  V30 719 H 60.1421 -0.794036 0.231161 0
M  V30 720 H 62.6881 -1.25628 1.14087 0
M  V30 721 H 61.4601 -3.10964 2.37522 0
M  V30 722 H 61.0831 -3.88506 0.845515 0
M  V30 723 N 62.0802 -0.821533 -1.34494 0
M  V30 724 C 63.3052 -0.420873 -2.03085 0
M  V30 725 C 63.7302 0.964915 -1.61465 0
M  V30 726 O 63.0882 1.62763 -0.798607 0
M  V30 727 C 63.1362 -0.529414 -3.56693 0
M  V30 728 O 62.2402 0.451302 -4.09923 0
M  V30 729 H 61.5812 -0.173489 -0.640935 0
M  V30 730 H 64.1112 -1.11157 -1.71771 0
M  V30 731 H 64.1212 -0.404671 -4.05988 0
M  V30 732 H 62.7962 -1.54014 -3.86332 0
M  V30 733 H 61.3732 0.285558 -3.71805 0
M  V30 734 N 63.5583 1.46682 -0.576371 0
M  V30 735 C 64.8353 1.95599 0.00703437 0
M  V30 736 C 65.2153 1.51904 1.46589 0
M  V30 737 O 64.5633 0.766755 2.15251 0
M  V30 738 C 64.7733 3.4864 -0.158404 0
M  V30 739 C 66.1213 4.24594 -0.0229439 0
M  V30 740 O 67.1453 3.56094 -0.0869173 0
M  V30 741 O 66.0043 5.46373 0.118015 0
M  V30 742 H 63.0983 0.825275 0.053384 0
M  V30 743 H 65.6443 1.56996 -0.644244 0
M  V30 744 H 64.4163 3.7331 -1.17282 0
M  V30 745 H 64.0393 3.94057 0.5296 0
M  V30 746 N 65.0364 0.313813 1.54444 0
M  V30 747 C 66.2614 -0.296681 2.05267 0
M  V30 748 C 66.6864 -1.45757 1.18897 0
M  V30 749 O 66.0444 -1.80239 0.195886 0
M  V30 750 C 66.0924 -0.71831 3.53373 0
M  V30 751 O 65.1964 -1.82175 3.69981 0
M  V30 752 H 64.5374 -0.0554061 0.661684 0
M  V30 753 H 67.0674 0.459387 1.99376 0
M  V30 754 H 67.0774 -1.00364 3.95463 0
M  V30 755 H 65.7524 0.130821 4.15694 0
M  V30 756 H 64.3294 -1.53598 3.39797 0
M  V30 757 N 66.5145 -1.57545 0.0417849 0
M  V30 758 C 67.7395 -1.97035 -0.647455 0
M  V30 759 C 68.1645 -0.918775 -1.64135 0
M  V30 760 O 67.5225 0.119006 -1.80909 0
M  V30 761 C 67.5705 -3.35609 -1.31905 0
M  V30 762 O 66.6745 -3.3287 -2.43457 0
M  V30 763 H 66.0155 -0.64211 -0.169086 0
M  V30 764 H 68.5455 -2.04318 0.107399 0
M  V30 765 H 68.5555 -3.72126 -1.67291 0
M  V30 766 H 67.2305 -4.11685 -0.590586 0
M  V30 767 H 65.8075 -3.08087 -2.10088 0
M  V30 768 N 67.9926 0.231505 -1.5589 0
M  V30 769 C 69.4036 0.799327 -1.68724 0
M  V30 770 C 69.7546 1.85398 -0.642022 0
M  V30 771 O 68.8796 2.1539 0.208784 0
M  V30 772 C 69.4746 1.45664 -3.05888 0
M  V30 773 C 68.0336 1.97197 -3.20609 0
M  V30 774 C 67.1806 0.828552 -2.64632 0
M  V30 775 H 70.1316 0.00702616 -1.58698 0
M  V30 776 H 70.1526 2.32517 -3.01191 0
M  V30 777 H 69.6646 0.688808 -3.81939 0
M  V30 778 H 67.7656 2.76813 -2.4941 0
M  V30 779 H 67.8786 2.15878 -4.27707 0
M  V30 780 H 66.2426 1.23321 -2.22854 0
M  V30 781 H 67.0256 0.0735544 -3.43221 0
M  V30 782 N 69.4707 1.49531 0.497807 0
M  V30 783 C 70.6957 1.63159 1.28039 0
M  V30 784 C 71.1207 0.30418 1.85624 0
M  V30 785 O 70.4787 -0.728618 1.66015 0
M  V30 786 C 70.5267 2.70537 2.38416 0
M  V30 787 O 69.6307 2.29931 3.42353 0
M  V30 788 H 68.9717 0.546001 0.377861 0
M  V30 789 H 71.5017 1.9574 0.59558 0
M  V30 790 H 71.5117 2.92802 2.84132 0
M  V30 791 H 70.1867 3.6689 1.95869 0
M  V30 792 H 68.7637 2.18009 3.02533 0
M  V30 793 N 70.9488 -0.749086 1.3866 0
M  V30 794 C 72.1738 -1.54344 1.38538 0
M  V30 795 C 72.5988 -1.88088 -0.0216655 0
M  V30 796 O 71.9568 -1.50899 -1.00494 0
M  V30 797 C 72.0048 -2.8164 2.25192 0
M  V30 798 O 71.1088 -3.7698 1.67212 0
M  V30 799 H 70.4498 -0.466654 0.472367 0
M  V30 800 H 72.9798 -0.925355 1.82478 0
M  V30 801 H 72.9898 -3.30519 2.3921 0
M  V30 802 H 71.6648 -2.56411 3.27454 0
M  V30 803 H 70.2418 -3.35699 1.6236 0
M  V30 804 N 72.4269 -1.23603 -0.977757 0
M  V30 805 C 73.6519 -1.09735 -1.75991 0
M  V30 806 C 74.0769 0.346858 -1.84874 0
M  V30 807 O 73.4349 1.25093 -1.3123 0
M  V30 808 C 73.4829 -1.73051 -3.16363 0
M  V30 809 O 72.5869 -0.994452 -4.0023 0
M  V30 810 H 71.9279 -0.384476 -0.541364 0
M  V30 811 H 74.4579 -1.6371 -1.2272 0
M  V30 812 H 74.4679 -1.78398 -3.66931 0
M  V30 813 H 73.1429 -2.78137 -3.09213 0
M  V30 814 H 71.7199 -1.01812 -3.58732 0
M  V30 815 N 73.905 1.17692 -1.04816 0
M  V30 816 C 75.13 1.92327 -0.776207 0
M  V30 817 C 75.555 1.76082 0.661581 0
M  V30 818 O 74.913 1.076 1.45917 0
M  V30 819 C 74.961 3.41539 -1.15687 0
M  V30 820 O 74.065 4.11402 -0.286775 0
M  V30 821 H 73.406 0.599735 -0.284981 0
M  V30 822 H 75.936 1.49201 -1.4 0
M  V30 823 H 75.946 3.92269 -1.12202 0
M  V30 824 H 74.621 3.52684 -2.20425 0
M  V30 825 H 73.198 3.70939 -0.381903 0
M  V30 826 N 75.3831 0.828654 1.34056 0
M  V30 827 C 76.6111 0.43262 2.02326 0
M  V30 828 C 77.0261 -0.963147 1.62385 0
M  V30 829 O 76.3831 -1.62425 0.832121 0
M  V30 830 C 76.4341 0.53182 3.57567 0
M  V30 831 O 76.1551 1.87258 3.96063 0
M  V30 832 C 77.6561 0.131422 4.43105 0
M  V30 833 H 74.8761 0.172923 0.648335 0
M  V30 834 H 77.4201 1.1184 1.71208 0
M  V30 835 H 75.5751 -0.105938 3.87255 0
M  V30 836 H 75.9891 1.85087 4.90758 0
M  V30 837 H 77.4631 0.251904 5.51425 0
M  V30 838 H 77.9401 -0.925645 4.29335 0
M  V30 839 H 78.5461 0.743207 4.18756 0
M  V30 840 N 76.8612 -1.46375 0.584142 0
M  V30 841 C 78.0912 -2.06461 0.0758195 0
M  V30 842 C 78.4992 -1.43322 -1.23512 0
M  V30 843 O 77.8422 -0.533216 -1.75791 0
M  V30 844 C 77.9042 -3.59131 -0.162773 0
M  V30 845 C 77.5682 -4.4447 1.06279 0
M  V30 846 C 78.5652 -4.80918 1.97519 0
M  V30 847 C 76.2502 -4.85584 1.28504 0
M  V30 848 C 78.2442 -5.57309 3.09331 0
M  V30 849 C 75.9312 -5.61734 2.4062 0
M  V30 850 C 76.9292 -5.9751 3.30863 0
M  V30 851 O 76.6172 -6.72121 4.41032 0
M  V30 852 H 76.3492 -0.673745 0.0551725 0
M  V30 853 H 78.9032 -1.88969 0.804984 0
M  V30 854 H 77.1332 -3.74936 -0.946565 0
M  V30 855 H 78.8222 -4.0114 -0.619782 0
M  V30 856 H 79.5882 -4.49732 1.81565 0
M  V30 857 H 75.4672 -4.57187 0.591702 0
M  V30 858 H 79.0112 -5.85152 3.79793 0
M  V30 859 H 74.9082 -5.92334 2.56537 0
M  V30 860 H 75.6762 -6.90547 4.39417 0
M  V30 861 N 78.3393 -0.321999 -1.54275 0
M  V30 862 C 79.5793 0.281657 -2.0245 0
M  V30 863 C 79.9433 1.49468 -1.20513 0
M  V30 864 O 81.1443 2.17109 -1.58484 0
M  V30 865 C 79.4153 0.609014 -3.52173 0
M  V30 866 S 80.9743 1.19255 -4.22284 0
M  V30 867 H 77.7923 0.0852825 -0.705867 0
M  V30 868 H 80.3943 -0.454758 -1.90137 0
M  V30 869 H 79.0983 -0.281982 -4.0943 0
M  V30 870 H 78.6293 1.37567 -3.68563 0
M  V30 871 H 80.6443 2.47944 -4.29812 0
M  V30 872 N 79.8174 1.5752 -0.0501392 0
M  V30 873 C 80.7654 2.12651 0.942459 0
M  V30 874 C 81.7594 1.05807 1.32292 0
M  V30 875 O 82.9654 1.24217 1.3027 0
M  V30 876 H 79.3404 0.679673 0.321789 0
M  V30 877 H 81.3114 2.94951 0.452356 0
M  V30 878 C 80.0604 2.68565 2.20836 0
M  V30 879 H 79.3834 3.50439 1.92439 0
M  V30 880 H 80.8234 3.10761 2.8845 0
M  V30 881 C 79.2824 1.62291 2.95234 0
M  V30 882 O 79.8124 1.03508 3.88135 0
M  V30 883 N 78.0184 1.33836 2.57946 0
M  V30 884 H 77.5654 1.81826 1.82475 0
M  V30 885 H 77.5234 0.629595 3.08032 0
M  V30 886 N 81.2955 -0.223234 1.56011 0
M  V30 887 C 82.2275 -1.30006 1.88762 0
M  V30 888 C 83.2405 -1.43129 0.775746 0
M  V30 889 O 84.4295 -1.44057 1.05403 0
M  V30 890 C 81.5295 -2.67589 2.07965 0
M  V30 891 C 80.7025 -2.76434 3.38973 0
M  V30 892 C 79.7615 -3.95019 3.47629 0
M  V30 893 O 78.7875 -3.83436 4.20672 0
M  V30 894 N 79.9895 -5.09249 2.78649 0
M  V30 895 H 82.7545 -1.02238 2.81722 0
M  V30 896 H 80.3155 -0.413278 1.56536 0
M  V30 897 H 82.3075 -3.45297 2.11073 0
M  V30 898 H 80.8775 -2.87964 1.21638 0
M  V30 899 H 80.0975 -1.85216 3.47978 0
M  V30 900 H 81.3855 -2.79313 4.25278 0
M  V30 901 H 80.7835 -5.21556 2.19081 0
M  V30 902 H 79.3405 -5.85007 2.8742 0
M  V30 903 N 82.7736 -1.49793 -0.48987 0
M  V30 904 C 83.7066 -1.61898 -1.60823 0
M  V30 905 C 84.6846 -0.467651 -1.5573 0
M  V30 906 O 85.8686 -0.684682 -1.75626 0
M  V30 907 C 82.9956 -1.58422 -2.99366 0
M  V30 908 C 82.0416 -2.78889 -3.22682 0
M  V30 909 S 82.8746 -4.40429 -3.04602 0
M  V30 910 C 84.0306 -4.39617 -4.4552 0
M  V30 911 H 84.2636 -2.56502 -1.50312 0
M  V30 912 H 81.7966 -1.38822 -0.675849 0
M  V30 913 H 83.7546 -1.57103 -3.79248 0
M  V30 914 H 82.4156 -0.650866 -3.07283 0
M  V30 915 H 81.6086 -2.72708 -4.23847 0
M  V30 916 H 81.2106 -2.77678 -2.50541 0
M  V30 917 H 83.5026 -4.12022 -5.37814 0
M  V30 918 H 84.4456 -5.41097 -4.56749 0
M  V30 919 H 84.8536 -3.69554 -4.2672 0
M  V30 920 N 84.2517 0.741722 -1.39055 0
M  V30 921 C 85.1847 1.86416 -1.31622 0
M  V30 922 C 86.1627 1.61473 -0.191076 0
M  V30 923 O 87.3467 1.84825 -0.370399 0
M  V30 924 C 84.4737 3.22266 -1.04221 0
M  V30 925 C 83.5197 3.66079 -2.18834 0
M  V30 926 S 84.3527 3.7623 -3.81066 0
M  V30 927 C 85.5087 5.14881 -3.55877 0
M  V30 928 H 85.7417 1.92437 -2.26617 0
M  V30 929 H 83.2747 0.905907 -1.25031 0
M  V30 930 H 85.2327 4.00714 -0.890964 0
M  V30 931 H 83.8937 3.1391 -0.109237 0
M  V30 932 H 83.0867 4.64648 -1.95238 0
M  V30 933 H 82.6887 2.94817 -2.30128 0
M  V30 934 H 84.9807 6.01006 -3.12726 0
M  V30 935 H 85.9237 5.43503 -4.53884 0
M  V30 936 H 86.3317 4.84239 -2.90126 0
M  V30 937 N 85.7298 1.2412 0.971189 0
M  V30 938 C 87.1458 1.00584 1.23916 0
M  V30 939 C 87.3458 -0.287481 1.99439 0
M  V30 940 O 86.4018 -1.00454 2.31658 0
M  V30 941 C 87.7148 2.21864 2.0297 0
M  V30 942 C 89.2628 2.26452 2.16076 0
M  V30 943 C 89.7378 3.47343 2.98524 0
M  V30 944 N 91.2288 3.47639 3.06107 0
M  V30 945 C 91.9638 4.37837 3.70251 0
M  V30 946 N 91.4598 5.38286 4.36142 0
M  V30 947 N 93.2528 4.25558 3.67228 0
M  V30 948 H 85.4038 2.07236 0.465499 0
M  V30 949 H 87.6668 0.909236 0.268315 0
M  V30 950 H 87.3728 3.15771 1.54861 0
M  V30 951 H 87.2468 2.23698 3.03709 0
M  V30 952 H 89.6338 1.33078 2.6339 0
M  V30 953 H 89.7148 2.28645 1.14696 0
M  V30 954 H 89.3588 4.41029 2.51905 0
M  V30 955 H 89.2888 3.42393 4.00093 0
M  V30 956 H 91.7798 2.74966 2.59233 0
M  V30 957 H 92.0928 6.03352 4.82894 0
M  V30 958 H 90.4378 5.42176 4.34822 0
M  V30 959 H 93.6288 3.46322 3.14927 0
M  V30 960 H 93.8018 4.96054 4.16935 0
M  V30 961 N 87.2079 -1.17134 1.05439 0
M  V30 962 C 88.6239 -1.39454 0.776201 0
M  V30 963 C 88.8239 -1.91454 -0.628307 0
M  V30 964 O 87.8799 -2.10777 -1.39031 0
M  V30 965 C 89.1929 -2.38305 1.83388 0
M  V30 966 C 90.7409 -2.52006 1.85639 0
M  V30 967 C 91.2159 -3.54133 2.90437 0
M  V30 968 N 92.7069 -3.61653 2.89415 0
M  V30 969 C 93.4419 -4.4044 3.67152 0
M  V30 970 N 92.9379 -5.22721 4.54681 0
M  V30 971 N 94.7309 -4.35337 3.55581 0
M  V30 972 H 86.8819 -0.817134 1.96053 0
M  V30 973 H 89.1449 -0.421626 0.849079 0
M  V30 974 H 88.8509 -2.07173 2.84204 0
M  V30 975 H 88.7249 -3.37841 1.67761 0
M  V30 976 H 91.1119 -2.82447 0.85486 0
M  V30 977 H 91.1929 -1.52537 2.05344 0
M  V30 978 H 90.8369 -3.24431 3.90777 0
M  V30 979 H 90.7669 -4.53313 2.67983 0
M  V30 980 H 93.2579 -3.02909 2.25952 0
M  V30 981 H 93.5709 -5.80027 5.10674 0
M  V30 982 H 91.9159 -5.22093 4.58741 0
M  V30 983 H 95.1069 -3.70112 2.86592 0
M  V30 984 H 95.2799 -4.96494 4.1641 0
M  V30 985 N 88.686 -0.835752 -1.33615 0
M  V30 986 C 90.102 -0.523139 -1.50783 0
M  V30 987 C 90.302 0.950171 -1.77691 0
M  V30 988 O 89.358 1.73411 -1.83534 0
M  V30 989 C 90.671 -1.39378 -2.66448 0
M  V30 990 C 92.219 -1.39223 -2.80332 0
M  V30 991 C 92.694 -2.24765 -3.99055 0
M  V30 992 N 94.185 -2.22458 -4.06284 0
M  V30 993 C 94.92 -2.85386 -4.97336 0
M  V30 994 N 94.416 -3.57354 -5.93523 0
M  V30 995 N 96.209 -2.74872 -4.90308 0
M  V30 996 H 88.36 -1.78952 -1.14411 0
M  V30 997 H 90.623 -0.763297 -0.562212 0
M  V30 998 H 90.329 -2.44061 -2.53234 0
M  V30 999 H 90.203 -1.0676 -3.61776 0
M  V30 1000 H 92.59 -0.353136 -2.92979 0
M  V30 1001 H 92.671 -1.75846 -1.85773 0
M  V30 1002 H 92.315 -3.28732 -3.87167 0
M  V30 1003 H 92.245 -1.85485 -4.92852 0
M  V30 1004 H 94.736 -1.70119 -3.37443 0
M  V30 1005 H 95.049 -4.02584 -6.59656 0
M  V30 1006 H 93.394 -3.61461 -5.93608 0
M  V30 1007 H 96.585 -2.18213 -4.14126 0
M  V30 1008 H 96.758 -3.24199 -5.61069 0
M  V30 1009 N 90.1641 1.46063 -0.591896 0
M  V30 1010 C 91.1121 2.32124 0.148739 0
M  V30 1011 C 92.1061 1.45035 0.875286 0
M  V30 1012 O 93.3121 1.61609 0.792632 0
M  V30 1013 H 89.6871 0.749024 0.066832 0
M  V30 1014 H 91.6581 2.92392 -0.595783 0
M  V30 1015 C 90.4071 3.28373 1.1431 0
M  V30 1016 H 89.7301 3.95371 0.59346 0
M  V30 1017 H 91.1701 3.91352 1.63155 0
M  V30 1018 C 89.6291 2.54393 2.20875 0
M  V30 1019 O 90.1591 2.31373 3.28374 0
M  V30 1020 N 88.3651 2.14797 1.95731 0
M  V30 1021 H 87.9121 2.33719 1.08319 0
M  V30 1022 H 87.8701 1.65619 2.67241 0
M  V30 1023 N 91.6422 0.330177 1.54103 0
M  V30 1024 C 92.5752 -0.575477 2.20825 0
M  V30 1025 C 93.5532 -1.11064 1.18758 0
M  V30 1026 O 94.7372 -1.17341 1.47524 0
M  V30 1027 C 91.8642 -1.79032 2.87516 0
M  V30 1028 C 90.9102 -1.38581 4.03358 0
M  V30 1029 S 91.7432 -0.416911 5.33875 0
M  V30 1030 C 92.8992 -1.63889 6.04062 0
M  V30 1031 H 93.1322 -0.00872114 2.97299 0
M  V30 1032 H 90.6652 0.114254 1.53977 0
M  V30 1033 H 92.6232 -2.48734 3.2656 0
M  V30 1034 H 91.2842 -2.32827 2.10832 0
M  V30 1035 H 90.4772 -2.29123 4.48908 0
M  V30 1036 H 90.0792 -0.768419 3.66021 0
M  V30 1037 H 92.3712 -2.57536 6.26643 0
M  V30 1038 H 93.3142 -1.22542 6.97416 0
M  V30 1039 H 93.7222 -1.82887 5.34053 0
M  V30 1040 N 93.1203 -1.57491 0.0584922 0
M  V30 1041 C 94.3483 -1.97296 -0.623037 0
M  V30 1042 C 94.7633 -0.936338 -1.63946 0
M  V30 1043 O 94.1203 0.0785981 -1.82331 0
M  V30 1044 C 94.1713 -3.37183 -1.30345 0
M  V30 1045 O 93.8923 -4.36872 -0.32773 0
M  V30 1046 C 95.3933 -3.91788 -2.07406 0
M  V30 1047 H 92.6133 -0.649153 -0.169826 0
M  V30 1048 H 95.1573 -2.04106 0.12696 0
M  V30 1049 H 93.3123 -3.31502 -2.00463 0
M  V30 1050 H 93.7263 -5.18141 -0.814269 0
M  V30 1051 H 95.2003 -4.91926 -2.50425 0
M  V30 1052 H 95.6773 -3.27609 -2.92521 0
M  V30 1053 H 96.2833 -4.00829 -1.42184 0
M  V30 1054 N 94.5984 0.214957 -1.56127 0
M  V30 1055 C 95.5304 1.29004 -1.89448 0
M  V30 1056 C 96.5434 1.42716 -0.783326 0
M  V30 1057 O 97.7324 1.43496 -1.06166 0
M  V30 1058 C 94.8324 2.66482 -2.09381 0
M  V30 1059 C 94.0054 2.74633 -3.40434 0
M  V30 1060 C 93.0644 3.9317 -3.49719 0
M  V30 1061 O 92.0904 3.812 -4.227 0
M  V30 1062 N 93.2924 5.07765 -2.81346 0
M  V30 1063 H 96.0574 1.00743 -2.82261 0
M  V30 1064 H 93.6184 0.40497 -1.56753 0
M  V30 1065 H 95.6104 3.44173 -2.12901 0
M  V30 1066 H 94.1804 2.87314 -1.23163 0
M  V30 1067 H 93.4004 1.83368 -3.48955 0
M  V30 1068 H 94.6884 2.77054 -4.26754 0
M  V30 1069 H 94.0864 5.20386 -2.21843 0
M  V30 1070 H 92.6434 5.83474 -2.90519 0
M  V30 1071 N 96.0765 1.50051 0.48192 0
M  V30 1072 C 97.3245 1.60181 1.23234 0
M  V30 1073 C 97.6455 0.299176 1.92691 0
M  V30 1074 O 96.9155 -0.682708 1.83619 0
M  V30 1075 H 95.4955 0.590232 0.457859 0
M  V30 1076 H 98.1575 1.86775 0.556881 0
M  V30 1077 H 97.2535 2.40753 1.98607 0
M  V30 1078 N 97.5546 -0.734337 1.39446 0
M  V30 1079 C 98.9706 -1.03997 1.21065 0
M  V30 1080 C 99.1706 -2.01369 0.0727019 0
M  V30 1081 O 98.2266 -2.45856 -0.575426 0
M  V30 1082 C 99.5396 -1.60163 2.54496 0
M  V30 1083 C 101.088 -1.7224 2.61347 0
M  V30 1084 C 101.563 -2.31814 3.95002 0
M  V30 1085 N 103.054 -2.39223 3.96644 0
M  V30 1086 C 103.789 -2.86258 4.96834 0
M  V30 1087 N 103.285 -3.33184 6.07421 0
M  V30 1088 N 105.078 -2.85473 4.84213 0
M  V30 1089 H 97.2286 -0.0885624 2.12215 0
M  V30 1090 H 99.4916 -0.10191 0.942506 0
M  V30 1091 H 99.1976 -0.960811 3.38321 0
M  V30 1092 H 99.0716 -2.5896 2.74262 0
M  V30 1093 H 101.459 -2.35443 1.77906 0
M  V30 1094 H 101.54 -0.720939 2.4543 0
M  V30 1095 H 101.184 -1.69238 4.78875 0
M  V30 1096 H 101.114 -3.32638 4.08239 0
M  V30 1097 H 103.605 -2.06057 3.16779 0
M  V30 1098 H 103.918 -3.67586 6.7978 0
M  V30 1099 H 102.263 -3.31191 6.11013 0
M  V30 1100 H 105.454 -2.48136 3.96921 0
M  V30 1101 H 105.627 -3.21814 5.62441 0
M  V30 1102 N 99.0327 -1.24633 -0.964593 0
M  V30 1103 C 100.273 -1.09981 -1.72289 0
M  V30 1104 C 100.637 0.354792 -1.88693 0
M  V30 1105 O 101.838 0.62289 -2.61483 0
M  V30 1106 C 100.109 -1.82262 -3.07434 0
M  V30 1107 S 101.668 -1.83379 -3.98645 0
M  V30 1108 H 98.4857 -0.393292 -0.59232 0
M  V30 1109 H 101.088 -1.58009 -1.15123 0
M  V30 1110 H 99.7917 -2.87206 -2.93157 0
M  V30 1111 H 99.3227 -1.3458 -3.69664 0
M  V30 1112 H 101.338 -0.903691 -4.87901 0
M  V30 1113 N 100.511 1.16574 -1.06058 0
M  V30 1114 C 101.458 2.20883 -0.669263 0
M  V30 1115 C 102.428 1.62729 0.332918 0
M  V30 1116 O 103.613 1.895 0.222346 0
M  V30 1117 C 100.753 3.45049 -0.0593572 0
M  V30 1118 C 99.8658 4.17458 -1.11143 0
M  V30 1119 C 99.0008 5.29135 -0.467916 0
M  V30 1120 C 98.0398 5.93343 -1.50369 0
M  V30 1121 N 97.1768 6.96516 -0.883706 0
M  V30 1122 H 102.017 2.53709 -1.5632 0
M  V30 1123 H 99.5538 1.24616 -0.781625 0
M  V30 1124 H 101.512 4.16033 0.311771 0
M  V30 1125 H 100.142 3.12781 0.797992 0
M  V30 1126 H 99.1938 3.45101 -1.60029 0
M  V30 1127 H 100.506 4.61307 -1.89731 0
M  V30 1128 H 99.6598 6.06684 -0.0436871 0
M  V30 1129 H 98.3988 4.86443 0.349864 0
M  V30 1130 H 97.4038 5.14517 -1.93784 0
M  V30 1131 H 98.6288 6.38114 -2.32352 0
M  V30 1132 H 96.5748 6.55943 -0.086595 0
M  V30 1133 H 96.4918 7.38723 -1.607 0
M  V30 1134 H 97.7598 7.77993 -0.484543 0
M  V30 1135 N 101.989 0.842826 1.3317 0
M  V30 1136 C 103.4 0.496651 1.79973 0
M  V30 1137 C 103.751 -0.984641 1.69703 0
M  V30 1138 O 102.876 -1.76743 1.24863 0
M  V30 1139 C 103.471 0.894727 3.26772 0
M  V30 1140 C 102.03 0.600629 3.71577 0
M  V30 1141 C 101.177 1.10091 2.5451 0
M  V30 1142 H 104.128 1.03116 1.20635 0
M  V30 1143 H 104.149 0.206347 3.7994 0
M  V30 1144 H 103.661 1.97287 3.34215 0
M  V30 1145 H 101.762 -0.467284 3.69658 0
M  V30 1146 H 101.875 1.15863 4.64879 0
M  V30 1147 H 100.239 0.52162 2.49301 0
M  V30 1148 H 101.022 2.18591 2.64713 0
M  V30 1149 N 103.467 -1.45747 0.599634 0
M  V30 1150 C 104.713 -2.02592 0.0918643 0
M  V30 1151 C 105.046 -1.46806 -1.27128 0
M  V30 1152 O 104.321 -0.639658 -1.83681 0
M  V30 1153 C 104.604 -3.60073 0.0443398 0
M  V30 1154 C 104.457 -4.26208 1.43759 0
M  V30 1155 C 105.776 -4.35309 -0.647608 0
M  V30 1156 H 102.895 -0.736175 0.034857 0
M  V30 1157 H 105.537 -1.73694 0.770081 0
M  V30 1158 H 103.687 -3.84823 -0.533224 0
M  V30 1159 H 105.359 -4.12668 2.06162 0
M  V30 1160 H 103.602 -3.84916 2.00056 0
M  V30 1161 H 104.273 -5.35069 1.35665 0
M  V30 1162 H 106.749 -4.15805 -0.156776 0
M  V30 1163 H 105.625 -5.45038 -0.649942 0
M  V30 1164 H 105.886 -4.07598 -1.71219 0
M  V30 1165 N 104.945 -0.338344 -1.53925 0
M  V30 1166 C 105.893 0.536231 -2.26335 0
M  V30 1167 C 106.887 1.1063 -1.28286 0
M  V30 1168 O 108.093 1.05264 -1.46012 0
M  V30 1169 H 104.468 0.191602 -0.727181 0
M  V30 1170 H 106.439 -0.0965747 -2.98244 0
M  V30 1171 C 105.188 1.67803 -3.04528 0
M  V30 1172 H 104.511 1.24864 -3.79801 0
M  V30 1173 H 105.951 2.26526 -3.58416 0
M  V30 1174 C 104.41 2.60439 -2.13712 0
M  V30 1175 O 104.94 3.6255 -1.72975 0
M  V30 1176 N 103.146 2.29006 -1.78898 0
M  V30 1177 H 102.693 1.46011 -2.12223 0
M  V30 1178 H 102.651 2.91248 -1.18416 0
M  V30 1179 N 106.423 1.57458 -0.0668435 0
M  V30 1180 C 107.651 1.97624 0.612565 0
M  V30 1181 C 108.066 0.94502 1.63447 0
M  V30 1182 O 107.423 -0.0689276 1.8237 0
M  V30 1183 C 107.474 3.37869 1.28555 0
M  V30 1184 O 107.195 4.3704 0.304557 0
M  V30 1185 C 108.696 3.92882 2.05325 0
M  V30 1186 H 105.916 0.650045 0.166381 0
M  V30 1187 H 108.46 2.04035 -0.137782 0
M  V30 1188 H 106.615 3.3256 1.98702 0
M  V30 1189 H 107.029 5.18565 0.786779 0
M  V30 1190 H 108.503 4.93247 2.47812 0
M  V30 1191 H 108.98 3.29156 2.9078 0
M  V30 1192 H 109.586 4.01577 1.40056 0
M  V30 1193 N 107.901 -0.206675 1.56239 0
M  V30 1194 C 109.148 -0.928842 1.79941 0
M  V30 1195 C 109.476 -1.83734 0.638131 0
M  V30 1196 O 108.731 -1.92039 -0.376746 0
M  V30 1197 C 109.03 -1.78675 3.09532 0
M  V30 1198 C 108.696 -1.03022 4.38973 0
M  V30 1199 C 107.358 -0.821302 4.74139 0
M  V30 1200 C 109.71 -0.497081 5.18824 0
M  V30 1201 C 107.038 -0.0675719 5.86661 0
M  V30 1202 C 109.39 0.24338 6.32132 0
M  V30 1203 C 108.054 0.463422 6.65889 0
M  V30 1204 H 107.324 -0.339887 0.658451 0
M  V30 1205 H 109.971 -0.195977 1.90495 0
M  V30 1206 H 108.276 -2.58794 2.94165 0
M  V30 1207 H 109.973 -2.34792 3.25075 0
M  V30 1208 H 106.563 -1.20306 4.11369 0
M  V30 1209 H 110.747 -0.645921 4.92079 0
M  V30 1210 H 106.003 0.112995 6.11296 0
M  V30 1211 H 110.177 0.66393 6.93228 0
M  V30 1212 H 107.804 1.04938 7.52922 0
M  V30 1213 N 109.379 -1.50304 -0.473955 0
M  V30 1214 C 110.625 -1.61389 -1.22806 0
M  V30 1215 C 110.958 -0.311955 -1.91678 0
M  V30 1216 O 110.233 0.686384 -1.81986 0
M  V30 1217 C 110.516 -2.79219 -2.27396 0
M  V30 1218 C 110.369 -4.19286 -1.62848 0
M  V30 1219 C 111.688 -2.92614 -3.28732 0
M  V30 1220 H 108.807 -0.587399 -0.445119 0
M  V30 1221 H 111.449 -1.82681 -0.522265 0
M  V30 1222 H 109.599 -2.61195 -2.87592 0
M  V30 1223 H 111.271 -4.48892 -1.06271 0
M  V30 1224 H 109.514 -4.23677 -0.931693 0
M  V30 1225 H 110.185 -4.97655 -2.38838 0
M  V30 1226 H 112.661 -3.09105 -2.78556 0
M  V30 1227 H 111.537 -3.76688 -3.99246 0
M  V30 1228 H 111.798 -2.03107 -3.92683 0
M  V30 1229 N 110.857 0.726932 -1.39834 0
M  V30 1230 C 111.807 1.83232 -1.35683 0
M  V30 1231 C 112.791 1.59155 -0.236295 0
M  V30 1232 O 113.983 1.70522 -0.474488 0
M  V30 1233 C 111.112 3.21246 -1.21062 0
M  V30 1234 C 110.198 3.51125 -2.37849 0
M  V30 1235 N 110.589 3.51889 -3.63329 0
M  V30 1236 C 108.887 3.81527 -2.30982 0
M  V30 1237 C 109.588 3.79791 -4.40606 0
M  V30 1238 N 108.564 3.97971 -3.70297 0
M  V30 1239 H 112.366 1.8214 -2.30656 0
M  V30 1240 H 109.88 0.925545 -1.33444 0
M  V30 1241 H 111.877 4.00387 -1.16171 0
M  V30 1242 H 110.537 3.23572 -0.270458 0
M  V30 1243 H 111.548 3.33008 -3.96643 0
M  V30 1244 H 108.225 3.91411 -1.45272 0
M  V30 1245 H 109.615 3.86783 -5.49408 0
M  V30 1246 N 112.336 1.25143 0.95797 0
M  V30 1247 C 113.246 1.06968 2.08794 0
M  V30 1248 C 114.262 0.00773911 1.73998 0
M  V30 1249 O 115.438 0.207972 2.00323 0
M  V30 1250 C 112.503 0.68691 3.39827 0
M  V30 1251 C 111.564 1.82641 3.88511 0
M  V30 1252 C 110.797 1.46181 5.1329 0
M  V30 1253 O 111.02 0.355971 5.69288 0
M  V30 1254 O 109.954 2.29085 5.566 0
M  V30 1255 H 113.78 2.01723 2.27027 0
M  V30 1256 H 111.365 1.04051 1.07209 0
M  V30 1257 H 113.247 0.485417 4.18595 0
M  V30 1258 H 111.922 -0.231417 3.22872 0
M  V30 1259 H 110.829 2.08274 3.10762 0
M  V30 1260 H 112.162 2.72386 4.09959 0
M  V30 1261 N 113.814 -1.1601 1.06675 0
M  V30 1262 C 115.225 -1.68235 0.809565 0
M  V30 1263 C 115.576 -1.8454 -0.666303 0
M  V30 1264 O 114.701 -1.54374 -1.5165 0
M  V30 1265 C 115.296 -3.05585 1.46299 0
M  V30 1266 C 113.855 -3.54915 1.25349 0
M  V30 1267 C 113.002 -2.30804 1.53703 0
M  V30 1268 H 115.953 -1.00318 1.22971 0
M  V30 1269 H 115.974 -3.70174 0.880431 0
M  V30 1270 H 115.486 -2.93686 2.53713 0
M  V30 1271 H 113.587 -3.72067 0.199261 0
M  V30 1272 H 113.7 -4.36774 1.9689 0
M  V30 1273 H 112.064 -2.36007 0.957739 0
M  V30 1274 H 112.847 -2.21499 2.62284 0
M  V30 1275 N 115.292 -0.849877 -1.32721 0
M  V30 1276 C 116.222 -0.306308 -2.31482 0
M  V30 1277 C 117.203 0.591952 -1.59468 0
M  V30 1278 O 118.388 0.513199 -1.87296 0
M  V30 1279 C 115.518 0.510204 -3.43532 0
M  V30 1280 C 114.472 -0.293209 -4.26994 0
M  V30 1281 C 113.798 0.647743 -5.30762 0
M  V30 1282 C 115.098 -1.51634 -4.99804 0
M  V30 1283 H 116.792 -1.13153 -2.77195 0
M  V30 1284 H 114.338 -0.545553 -1.33266 0
M  V30 1285 H 116.291 0.900856 -4.11658 0
M  V30 1286 H 115.015 1.36874 -2.96535 0
M  V30 1287 H 113.674 -0.665555 -3.60508 0
M  V30 1288 H 113.322 1.50299 -4.8002 0
M  V30 1289 H 113.022 0.11422 -5.87489 0
M  V30 1290 H 114.546 1.03567 -6.01753 0
M  V30 1291 H 115.96 -1.19824 -5.60638 0
M  V30 1292 H 114.357 -1.98745 -5.66234 0
M  V30 1293 H 115.427 -2.28018 -4.27943 0
M  V30 1294 N 116.77 1.45427 -0.607355 0
M  V30 1295 C 118.016 2.0254 -0.102607 0
M  V30 1296 C 118.349 1.47478 1.26348 0
M  V30 1297 O 117.624 0.64939 1.83339 0
M  V30 1298 C 117.907 3.60044 -0.0634347 0
M  V30 1299 C 117.76 4.2544 -1.46017 0
M  V30 1300 C 119.079 4.35646 0.624514 0
M  V30 1301 H 116.198 0.73598 -0.0387607 0
M  V30 1302 H 118.84 1.73284 -0.779282 0
M  V30 1303 H 116.99 3.85101 0.512808 0
M  V30 1304 H 118.662 4.11569 -2.08347 0
M  V30 1305 H 116.905 3.83849 -2.02094 0
M  V30 1306 H 117.576 5.34342 -1.385 0
M  V30 1307 H 120.052 4.15882 0.134723 0
M  V30 1308 H 118.928 5.45376 0.621028 0
M  V30 1309 H 119.189 4.08501 1.69055 0
M  V30 1310 N 118.248 0.346503 1.53744 0
M  V30 1311 C 119.525 -0.304532 1.93215 0
M  V30 1312 C 119.905 -1.67993 1.27834 0
M  V30 1313 O 119.253 -2.24411 0.430352 0
M  V30 1314 C 119.463 -0.373852 3.46992 0
M  V30 1315 C 120.811 -0.62329 4.2 0
M  V30 1316 O 121.835 -0.455847 3.53271 0
M  V30 1317 O 120.694 -0.947879 5.38217 0
M  V30 1318 H 117.788 -0.178318 0.807547 0
M  V30 1319 H 120.334 0.397895 1.64969 0
M  V30 1320 H 119.106 0.591224 3.86808 0
M  V30 1321 H 118.729 -1.12294 3.81413 0
M  V30 1322 N 119.726 -1.57421 0.075193 0
M  V30 1323 C 120.972 -1.93905 -0.594025 0
M  V30 1324 C 121.305 -0.955701 -1.69056 0
M  V30 1325 O 120.58 0.0145373 -1.94495 0
M  V30 1326 C 120.863 -3.40638 -1.1678 0
M  V30 1327 C 120.716 -4.49733 -0.0776792 0
M  V30 1328 C 122.035 -3.88259 -2.07228 0
M  V30 1329 H 119.154 -0.705105 -0.214466 0
M  V30 1330 H 121.796 -1.8947 0.141854 0
M  V30 1331 H 119.946 -3.44549 -1.79494 0
M  V30 1332 H 121.618 -4.57942 0.555573 0
M  V30 1333 H 119.861 -4.29751 0.591286 0
M  V30 1334 H 120.532 -5.49549 -0.519603 0
M  V30 1335 H 123.008 -3.86376 -1.54445 0
M  V30 1336 H 121.884 -4.91533 -2.44308 0
M  V30 1337 H 122.145 -3.26396 -2.98191 0
M  V30 1338 N 121.204 0.198386 -1.56346 0
M  V30 1339 C 122.136 1.26987 -1.90806 0
M  V30 1340 C 123.149 1.41877 -0.798419 0
M  V30 1341 O 124.338 1.42362 -1.07682 0
M  V30 1342 C 121.438 2.64246 -2.12196 0
M  V30 1343 C 120.611 2.71007 -3.43328 0
M  V30 1344 C 119.67 3.89439 -3.5387 0
M  V30 1345 O 118.696 3.76695 -4.26719 0
M  V30 1346 N 119.898 5.04752 -2.86715 0
M  V30 1347 H 122.663 0.977433 -2.83313 0
M  V30 1348 H 120.224 0.388322 -1.57174 0
M  V30 1349 H 122.216 3.41896 -2.1654 0
M  V30 1350 H 120.786 2.85992 -1.26204 0
M  V30 1351 H 120.006 1.79657 -3.50881 0
M  V30 1352 H 121.294 2.72512 -4.29668 0
M  V30 1353 H 120.692 5.18004 -2.2735 0
M  V30 1354 H 119.249 5.8036 -2.96691 0
M  V30 1355 N 122.682 1.50554 0.465978 0
M  V30 1356 C 123.63 1.70324 1.58406 0
M  V30 1357 C 124.624 0.569139 1.59553 0
M  V30 1358 O 125.83 0.749776 1.63641 0
M  V30 1359 H 122.205 0.537688 0.525734 0
M  V30 1360 H 124.176 2.64104 1.38894 0
M  V30 1361 C 122.925 1.81928 2.96307 0
M  V30 1362 H 122.248 2.68586 2.96144 0
M  V30 1363 H 123.688 1.99784 3.73982 0
M  V30 1364 C 122.147 0.572095 3.32007 0
M  V30 1365 O 122.677 -0.286416 4.00678 0
M  V30 1366 N 120.883 0.424606 2.87481 0
M  V30 1367 H 120.43 1.12427 2.31771 0
M  V30 1368 H 120.388 -0.408697 3.11732 0
M  V30 1369 N 124.16 -0.719506 1.40217 0
M  V30 1370 C 125.406 -1.48152 1.38488 0
M  V30 1371 C 125.739 -1.94195 -0.0141867 0
M  V30 1372 O 125.014 -1.67884 -0.982096 0
M  V30 1373 C 125.297 -2.71035 2.37091 0
M  V30 1374 C 125.15 -2.30912 3.86005 0
M  V30 1375 C 126.469 -3.73182 2.33288 0
M  V30 1376 H 123.588 -0.537395 0.504357 0
M  V30 1377 H 126.23 -0.821472 1.71324 0
M  V30 1378 H 124.38 -3.27352 2.0922 0
M  V30 1379 H 126.052 -1.80107 4.24687 0
M  V30 1380 H 124.295 -1.62958 4.02029 0
M  V30 1381 H 124.966 -3.18978 4.50508 0
M  V30 1382 H 127.442 -3.26485 2.57966 0
M  V30 1383 H 126.318 -4.56806 3.04334 0
M  V30 1384 H 126.579 -4.21202 1.34317 0
M  V30 1385 N 125.638 -1.25649 -0.95132 0
M  V30 1386 C 126.878 -1.11802 -1.71113 0
M  V30 1387 C 127.242 0.334758 -1.89059 0
M  V30 1388 O 128.443 0.595121 -2.62129 0
M  V30 1389 C 126.714 -1.85512 -3.05483 0
M  V30 1390 S 128.273 -1.87597 -3.96677 0
M  V30 1391 H 125.091 -0.399552 -0.588115 0
M  V30 1392 H 127.693 -1.59222 -1.1344 0
M  V30 1393 H 126.397 -2.90299 -2.90094 0
M  V30 1394 H 125.928 -1.38493 -3.68216 0
M  V30 1395 H 127.943 -0.955389 -4.86916 0
M  V30 1396 N 127.117 1.15442 -1.07289 0
M  V30 1397 C 128.364 1.86213 -0.795668 0
M  V30 1398 C 128.692 1.82291 0.678238 0
M  V30 1399 O 127.947 1.24057 1.51355 0
M  V30 1400 C 128.246 3.3489 -1.24834 0
M  V30 1401 C 127.912 3.59007 -2.72809 0
M  V30 1402 C 126.574 3.65298 -3.13227 0
M  V30 1403 C 128.926 3.68762 -3.68326 0
M  V30 1404 C 126.254 3.78854 -4.4798 0
M  V30 1405 C 128.606 3.83842 -5.0284 0
M  V30 1406 C 127.27 3.88378 -5.4288 0
M  V30 1407 H 126.54 0.681403 -0.291155 0
M  V30 1408 H 129.187 1.36435 -1.34379 0
M  V30 1409 H 127.492 3.8687 -0.619595 0
M  V30 1410 H 129.189 3.88052 -1.01076 0
M  V30 1411 H 125.779 3.5475 -2.40521 0
M  V30 1412 H 129.963 3.63202 -3.38227 0
M  V30 1413 H 125.219 3.80623 -4.78472 0
M  V30 1414 H 129.393 3.90332 -5.76727 0
M  V30 1415 H 127.02 3.98635 -6.47298 0
M  V30 1416 N 128.595 0.856903 1.32268 0
M  V30 1417 C 129.527 0.260412 2.27716 0
M  V30 1418 C 130.54 -0.569137 1.52528 0
M  V30 1419 O 131.729 -0.39326 1.74114 0
M  V30 1420 C 128.829 -0.650477 3.32599 0
M  V30 1421 C 128.002 0.14372 4.37164 0
M  V30 1422 C 127.061 -0.69328 5.21613 0
M  V30 1423 O 126.087 -0.12599 5.69061 0
M  V30 1424 N 127.289 -2.00761 5.44679 0
M  V30 1425 H 130.054 1.08059 2.79541 0
M  V30 1426 H 127.615 0.717103 1.45152 0
M  V30 1427 H 129.607 -1.21581 3.86005 0
M  V30 1428 H 128.177 -1.37133 2.80915 0
M  V30 1429 H 127.397 0.890486 3.8401 0
M  V30 1430 H 128.685 0.68915 5.04111 0
M  V30 1431 H 128.083 -2.49181 5.07863 0
M  V30 1432 H 126.64 -2.52103 6.01072 0
M  V30 1433 N 130.073 -1.45103 0.615059 0
M  V30 1434 C 130.983 -2.34382 -0.101034 0
M  V30 1435 C 131.999 -1.51681 -0.852585 0
M  V30 1436 O 133.175 -1.8446 -0.808484 0
M  V30 1437 C 130.24 -3.29417 -1.08099 0
M  V30 1438 C 129.301 -4.28025 -0.330577 0
M  V30 1439 C 128.534 -5.1852 -1.26385 0
M  V30 1440 O 128.757 -5.12598 -2.50198 0
M  V30 1441 O 127.691 -5.97122 -0.756866 0
M  V30 1442 H 131.517 -2.97033 0.632855 0
M  V30 1443 H 129.102 -1.4461 0.375293 0
M  V30 1444 H 130.984 -3.87958 -1.6452 0
M  V30 1445 H 129.659 -2.69321 -1.79577 0
M  V30 1446 H 128.566 -3.73078 0.276283 0
M  V30 1447 H 129.899 -4.90997 0.343866 0
M  V30 1448 N 131.551 -0.354651 -1.53558 0
M  V30 1449 C 132.498 0.496968 -2.25386 0
M  V30 1450 C 133.468 1.0865 -1.25636 0
M  V30 1451 O 134.653 1.12104 -1.54394 0
M  V30 1452 C 131.793 1.63637 -3.03837 0
M  V30 1453 C 130.906 1.07307 -4.18461 0
M  V30 1454 C 130.041 2.18068 -4.84376 0
M  V30 1455 C 129.08 1.59147 -5.91049 0
M  V30 1456 N 128.217 2.63695 -6.50699 0
M  V30 1457 H 133.057 -0.122075 -2.9775 0
M  V30 1458 H 130.594 -0.0720154 -1.46924 0
M  V30 1459 H 132.552 2.30734 -3.47589 0
M  V30 1460 H 131.182 2.22623 -2.33749 0
M  V30 1461 H 130.234 0.292708 -3.79272 0
M  V30 1462 H 131.546 0.602193 -4.95152 0
M  V30 1463 H 130.7 2.93007 -5.31255 0
M  V30 1464 H 129.439 2.68504 -4.07133 0
M  V30 1465 H 128.444 0.827175 -5.43542 0
M  V30 1466 H 129.669 1.09549 -6.70206 0
M  V30 1467 H 127.615 3.13365 -5.76315 0
M  V30 1468 H 127.532 2.21263 -7.22896 0
M  V30 1469 H 128.8 3.3837 -7.02229 0
M  V30 1470 N 133.029 1.57378 -0.0835403 0
M  V30 1471 C 134.275 1.94217 0.583733 0
M  V30 1472 C 134.608 0.964653 1.68547 0
M  V30 1473 O 133.883 -0.00422258 1.945 0
M  V30 1474 C 134.166 3.41253 1.14972 0
M  V30 1475 C 134.019 4.49768 0.0538277 0
M  V30 1476 C 135.338 3.89352 2.05166 0
M  V30 1477 H 132.457 0.706233 0.210724 0
M  V30 1478 H 135.099 1.89392 -0.1519 0
M  V30 1479 H 133.249 3.45496 1.77665 0
M  V30 1480 H 134.921 4.57641 -0.579851 0
M  V30 1481 H 133.164 4.29432 -0.614068 0
M  V30 1482 H 133.835 5.49817 0.490452 0
M  V30 1483 H 136.311 3.87189 1.52393 0
M  V30 1484 H 135.187 4.92822 2.41698 0
M  V30 1485 H 135.448 3.27973 2.96456 0
M  V30 1486 N 134.507 -0.190092 1.56449 0
M  V30 1487 C 135.735 -0.925772 1.85033 0
M  V30 1488 C 136.15 -1.76638 0.666658 0
M  V30 1489 O 135.507 -1.78822 -0.364565 0
M  V30 1490 C 135.558 -1.81786 3.12468 0
M  V30 1491 O 135.279 -1.01118 4.26271 0
M  V30 1492 C 136.78 -2.6648 3.54265 0
M  V30 1493 H 134 -0.269872 0.614337 0
M  V30 1494 H 136.544 -0.195837 2.0356 0
M  V30 1495 H 134.699 -2.50136 2.95822 0
M  V30 1496 H 135.113 -1.61956 4.98869 0
M  V30 1497 H 136.587 -3.24722 4.46385 0
M  V30 1498 H 137.064 -3.40434 2.77491 0
M  V30 1499 H 137.67 -2.03493 3.73458 0
M  V30 1500 N 135.985 -1.50799 -0.457987 0
M  V30 1501 C 137.225 -1.64088 -1.21879 0
M  V30 1502 C 137.589 -0.339848 -1.88968 0
M  V30 1503 O 138.79 -0.348301 -2.66534 0
M  V30 1504 C 137.061 -2.79726 -2.2246 0
M  V30 1505 S 138.62 -3.13225 -3.07303 0
M  V30 1506 H 135.438 -0.578314 -0.41361 0
M  V30 1507 H 138.04 -1.88632 -0.513645 0
M  V30 1508 H 136.744 -3.72722 -1.71775 0
M  V30 1509 H 136.275 -2.57308 -2.97584 0
M  V30 1510 H 138.29 -2.58062 -4.23814 0
M  V30 1511 N 137.463 0.71206 -1.40597 0
M  V30 1512 C 138.41 1.82613 -1.41142 0
M  V30 1513 C 139.38 1.63925 -0.267903 0
M  V30 1514 O 140.565 1.85009 -0.466495 0
M  V30 1515 C 137.705 3.20354 -1.28324 0
M  V30 1516 C 136.818 3.50589 -2.52411 0
M  V30 1517 C 135.953 4.77855 -2.32009 0
M  V30 1518 C 134.992 5.01005 -3.51654 0
M  V30 1519 N 134.129 6.19487 -3.30425 0
M  V30 1520 H 138.969 1.81482 -2.36365 0
M  V30 1521 H 136.506 0.886475 -1.17388 0
M  V30 1522 H 138.464 3.99899 -1.18899 0
M  V30 1523 H 137.094 3.20705 -0.367189 0
M  V30 1524 H 136.146 2.65573 -2.72351 0
M  V30 1525 H 137.458 3.63604 -3.41458 0
M  V30 1526 H 136.612 5.65424 -2.19956 0
M  V30 1527 H 135.351 4.67056 -1.40392 0
M  V30 1528 H 134.356 4.1189 -3.64179 0
M  V30 1529 H 135.581 5.13674 -4.44202 0
M  V30 1530 H 133.527 6.09932 -2.41494 0
M  V30 1531 H 133.444 6.33194 -4.13039 0
M  V30 1532 H 134.712 7.09834 -3.22113 0
M  V30 1533 N 138.941 1.26152 0.944643 0
M  V30 1534 C 139.889 1.07215 2.06417 0
M  V30 1535 C 140.883 9.2007e-05 1.694 0
M  V30 1536 O 142.089 0.1565 1.79318 0
M  V30 1537 H 138.464 0.329837 0.675805 0
M  V30 1538 H 140.435 2.02099 2.19541 0
M  V30 1539 C 139.184 0.718197 3.40202 0
M  V30 1540 H 138.507 1.53497 3.69159 0
M  V30 1541 H 139.947 0.625459 4.19361 0
M  V30 1542 C 138.406 -0.576435 3.31932 0
M  V30 1543 O 138.936 -1.61574 3.67773 0
M  V30 1544 N 137.142 -0.565781 2.85039 0
M  V30 1545 H 136.689 0.280367 2.5607 0
M  V30 1546 H 136.647 -1.43213 2.79888 0
M  V30 1547 N 140.419 -1.14872 1.07899 0
M  V30 1548 C 141.667 -1.85422 0.803941 0
M  V30 1549 C 141.988 -1.83051 -0.67211 0
M  V30 1550 O 141.258 -1.27532 -1.48703 0
M  V30 1551 H 139.838 -0.686537 0.294408 0
M  V30 1552 H 142.5 -1.39226 1.3639 0
M  V30 1553 H 141.596 -2.90399 1.14346 0
M  V30 1554 N 141.898 -0.863906 -1.31812 0
M  V30 1555 C 142.83 -0.272485 -2.27575 0
M  V30 1556 C 143.843 0.56104 -1.52827 0
M  V30 1557 O 145.032 0.384021 -1.7432 0
M  V30 1558 C 142.132 0.63283 -3.32939 0
M  V30 1559 C 141.305 -0.166902 -4.37081 0
M  V30 1560 C 140.364 0.665608 -5.21973 0
M  V30 1561 O 139.39 0.0958091 -5.69119 0
M  V30 1562 N 140.592 1.9787 -5.45736 0
M  V30 1563 H 143.357 -1.0954 -2.78964 0
M  V30 1564 H 140.918 -0.724791 -1.4477 0
M  V30 1565 H 142.91 1.19532 -3.86645 0
M  V30 1566 H 141.48 1.35642 -2.81638 0
M  V30 1567 H 140.7 -0.910838 -3.83533 0
M  V30 1568 H 141.988 -0.715874 -5.03739 0
M  V30 1569 H 141.386 2.46484 -5.09178 0
M  V30 1570 H 139.943 2.48911 -6.024 0
M  V30 1571 N 143.376 1.44774 -0.622745 0
M  V30 1572 C 144.624 2.01721 -0.123655 0
M  V30 1573 C 144.945 1.49172 1.25589 0
M  V30 1574 O 144.215 0.691974 1.83272 0
M  V30 1575 H 142.795 0.745777 -0.0427225 0
M  V30 1576 H 145.457 1.77382 -0.807559 0
M  V30 1577 H 144.553 3.11984 -0.0849534 0
M  V30 1578 N 144.854 0.36279 1.53368 0
M  V30 1579 C 145.802 -0.500155 2.27159 0
M  V30 1580 C 146.796 -1.08575 1.3003 0
M  V30 1581 O 148.002 -1.02927 1.47668 0
M  V30 1582 H 144.377 -0.180009 0.730138 0
M  V30 1583 H 146.348 0.14401 2.98052 0
M  V30 1584 C 145.097 -1.62937 3.07159 0
M  V30 1585 H 144.42 -1.18806 3.8174 0
M  V30 1586 H 145.86 -2.20795 3.61975 0
M  V30 1587 C 144.319 -2.57007 2.17829 0
M  V30 1588 O 144.849 -3.59752 1.78721 0
M  V30 1589 N 143.055 -2.26131 1.82518 0
M  V30 1590 H 142.602 -1.42616 2.14519 0
M  V30 1591 H 142.56 -2.89327 1.23034 0
M  V30 1592 N 146.332 -1.57332 0.0918853 0
M  V30 1593 C 147.572 -1.96117 -0.575988 0
M  V30 1594 C 147.936 -0.972499 -1.65549 0
M  V30 1595 O 149.137 -1.24872 -2.38034 0
M  V30 1596 C 147.408 -3.39407 -1.11973 0
M  V30 1597 S 148.967 -4.00185 -1.79992 0
M  V30 1598 H 145.785 -0.685682 -0.188045 0
M  V30 1599 H 148.387 -1.94755 0.170525 0
M  V30 1600 H 147.091 -4.09131 -0.322504 0
M  V30 1601 H 146.622 -3.44358 -1.90214 0
M  V30 1602 H 148.637 -3.88728 -3.08391 0
M  V30 1603 N 147.81 0.181792 -1.56548 0
M  V30 1604 C 149.04 0.914618 -1.85252 0
M  V30 1605 C 149.448 1.76791 -0.673914 0
M  V30 1606 O 148.791 1.80009 0.366416 0
M  V30 1607 C 148.853 1.85019 -3.08234 0
M  V30 1608 C 148.517 1.17754 -4.41569 0
M  V30 1609 C 149.514 0.548035 -5.17003 0
M  V30 1610 C 147.199 1.17742 -4.88305 0
M  V30 1611 C 149.193 -0.0726128 -6.37359 0
M  V30 1612 C 146.88 0.552946 -6.08593 0
M  V30 1613 C 147.878 -0.070978 -6.82963 0
M  V30 1614 O 147.566 -0.685635 -8.00971 0
M  V30 1615 H 147.298 0.271695 -0.618998 0
M  V30 1616 H 149.852 0.189944 -2.0452 0
M  V30 1617 H 148.082 2.61491 -2.84885 0
M  V30 1618 H 149.771 2.45195 -3.23472 0
M  V30 1619 H 150.537 0.540174 -4.81982 0
M  V30 1620 H 146.416 1.65246 -4.30366 0
M  V30 1621 H 149.96 -0.560213 -6.95347 0
M  V30 1622 H 145.857 0.558354 -6.43081 0
M  V30 1623 H 146.625 -0.58385 -8.16415 0
M  V30 1624 N 149.288 1.51039 0.449983 0
M  V30 1625 C 150.235 1.71439 1.54523 0
M  V30 1626 C 151.205 0.555871 1.56522 0
M  V30 1627 O 152.39 0.788871 1.73728 0
M  V30 1628 C 149.53 1.83384 2.92343 0
M  V30 1629 C 148.643 3.10873 2.9997 0
M  V30 1630 C 147.778 3.13488 4.28834 0
M  V30 1631 C 146.817 4.35343 4.30282 0
M  V30 1632 N 145.954 4.35579 5.5065 0
M  V30 1633 H 150.794 2.64934 1.36433 0
M  V30 1634 H 148.331 1.31312 0.662982 0
M  V30 1635 H 150.289 1.88291 3.72293 0
M  V30 1636 H 148.919 0.933086 3.0902 0
M  V30 1637 H 147.971 3.15336 2.12761 0
M  V30 1638 H 149.283 4.00814 2.96901 0
M  V30 1639 H 148.437 3.17241 5.17149 0
M  V30 1640 H 147.176 2.21414 4.34543 0
M  V30 1641 H 146.181 4.3178 3.40362 0
M  V30 1642 H 147.406 5.28668 4.26248 0
M  V30 1643 H 145.352 3.46369 5.57104 0
M  V30 1644 H 145.269 5.19313 5.49409 0
M  V30 1645 H 146.537 4.43507 6.41032 0
M  V30 1646 N 150.766 -0.704594 1.40972 0
M  V30 1647 C 151.991 -1.49858 1.43378 0
M  V30 1648 C 152.416 -1.88061 0.038184 0
M  V30 1649 O 151.774 -1.5402 -0.956425 0
M  V30 1650 C 151.822 -2.74333 2.34038 0
M  V30 1651 O 150.926 -3.7147 1.7912 0
M  V30 1652 H 150.267 -0.45139 0.486974 0
M  V30 1653 H 152.797 -0.866832 1.8533 0
M  V30 1654 H 152.807 -3.22741 2.49604 0
M  V30 1655 H 151.482 -2.45863 3.35446 0
M  V30 1656 H 150.059 -3.30363 1.72958 0
M  V30 1657 N 152.244 -1.26651 -0.937939 0
M  V30 1658 C 153.192 -1.08308 -2.05845 0
M  V30 1659 C 154.186 -0.0090757 -1.69398 0
M  V30 1660 O 155.392 -0.166007 -1.79233 0
M  V30 1661 H 151.767 -0.333416 -0.674046 0
M  V30 1662 H 153.738 -2.03261 -2.18467 0
M  V30 1663 C 152.487 -0.736229 -3.39816 0
M  V30 1664 H 151.81 -1.55453 -3.6834 0
M  V30 1665 H 153.25 -0.64769 -4.19024 0
M  V30 1666 C 151.709 0.558824 -3.32233 0
M  V30 1667 O 152.239 1.59621 -3.68624 0
M  V30 1668 N 150.445 0.550657 -2.85335 0
M  V30 1669 H 149.992 -0.293943 -2.55917 0
M  V30 1670 H 149.95 1.41726 -2.80644 0
M  V30 1671 N 153.722 1.14298 -1.08507 0
M  V30 1672 C 154.947 1.8976 -0.837001 0
M  V30 1673 C 155.372 1.78097 0.605228 0
M  V30 1674 O 154.73 1.12188 1.4242 0
M  V30 1675 C 154.778 3.37685 -1.26495 0
M  V30 1676 O 153.882 4.10281 -0.417514 0
M  V30 1677 H 153.223 0.590365 -0.303917 0
M  V30 1678 H 155.753 1.44672 -1.44676 0
M  V30 1679 H 155.763 3.88501 -1.24625 0
M  V30 1680 H 154.438 3.45492 -2.31534 0
M  V30 1681 H 153.015 3.69536 -0.499722 0
M  V30 1682 N 155.201 0.870884 1.31352 0
M  V30 1683 C 156.426 0.495957 2.01383 0
M  V30 1684 C 156.851 -0.904324 1.64935 0
M  V30 1685 O 156.209 -1.59687 0.858466 0
M  V30 1686 C 156.257 0.661433 3.54482 0
M  V30 1687 O 155.361 -0.298851 4.11316 0
M  V30 1688 H 154.702 0.197158 0.634054 0
M  V30 1689 H 157.232 1.17455 1.67527 0
M  V30 1690 H 157.242 0.555072 4.04207 0
M  V30 1691 H 155.917 1.68246 3.8035 0
M  V30 1692 H 154.494 -0.147368 3.72609 0
M  V30 1693 N 156.679 -1.44442 0.630414 0
M  V30 1694 C 157.612 -2.27862 -0.124247 0
M  V30 1695 C 158.59 -1.38495 -0.851931 0
M  V30 1696 O 159.774 -1.67935 -0.856166 0
M  V30 1697 C 156.901 -3.17407 -1.18197 0
M  V30 1698 C 155.947 -4.22875 -0.554892 0
M  V30 1699 S 156.78 -5.31485 0.654489 0
M  V30 1700 C 157.936 -6.246 -0.40326 0
M  V30 1701 H 158.169 -2.91519 0.583435 0
M  V30 1702 H 155.702 -1.48618 0.418565 0
M  V30 1703 H 157.66 -3.69549 -1.78728 0
M  V30 1704 H 156.321 -2.52971 -1.86184 0
M  V30 1705 H 155.514 -4.85542 -1.35148 0
M  V30 1706 H 155.116 -3.73992 -0.0242105 0
M  V30 1707 H 157.408 -6.65375 -1.27602 0
M  V30 1708 H 158.351 -7.07851 0.187813 0
M  V30 1709 H 158.759 -5.59775 -0.728837 0
M  V30 1710 N 158.157 -0.370918 -1.53173 0
M  V30 1711 C 159.107 0.489588 -2.22681 0
M  V30 1712 C 160.091 1.04442 -1.22395 0
M  V30 1713 O 161.283 0.973578 -1.47819 0
M  V30 1714 C 158.412 1.626 -3.02351 0
M  V30 1715 C 157.498 1.08379 -4.10018 0
M  V30 1716 N 157.889 0.265004 -5.05105 0
M  V30 1717 C 156.187 1.35809 -4.2482 0
M  V30 1718 C 156.888 -0.0324755 -5.81691 0
M  V30 1719 N 155.864 0.566581 -5.40639 0
M  V30 1720 H 159.666 -0.142729 -2.93553 0
M  V30 1721 H 157.18 -0.179221 -1.61408 0
M  V30 1722 H 159.177 2.2547 -3.50669 0
M  V30 1723 H 157.837 2.26132 -2.33011 0
M  V30 1724 H 158.848 -0.0962352 -5.17811 0
M  V30 1725 H 155.525 1.9958 -3.66707 0
M  V30 1726 H 156.915 -0.69473 -6.68299 0
M  V30 1727 N 159.635 1.57281 -0.100228 0
M  V30 1728 C 160.884 1.93713 0.561984 0
M  V30 1729 C 161.197 0.984492 1.69018 0
M  V30 1730 O 162.403 1.24273 2.41389 0
M  V30 1731 C 160.859 3.4421 1.05106 0
M  V30 1732 C 160.467 4.47975 -0.0476628 0
M  V30 1733 C 162.211 3.89595 1.68571 0
M  V30 1734 C 160.118 5.89631 0.457055 0
M  V30 1735 H 159.048 0.723082 0.2137 0
M  V30 1736 H 161.699 1.82644 -0.177057 0
M  V30 1737 H 160.081 3.50449 1.84395 0
M  V30 1738 H 161.255 4.53385 -0.823333 0
M  V30 1739 H 159.57 4.1223 -0.587816 0
M  V30 1740 H 162.167 4.92832 2.07414 0
M  V30 1741 H 162.51 3.28526 2.55688 0
M  V30 1742 H 163.043 3.86078 0.958562 0
M  V30 1743 H 159.782 6.54411 -0.377616 0
M  V30 1744 H 159.302 5.87681 1.19962 0
M  V30 1745 H 160.981 6.40363 0.92437 0
M  V30 1746 N 161.113 -0.173488 1.56642 0
M  V30 1747 C 162.341 -0.906095 1.86004 0
M  V30 1748 C 162.756 -1.75921 0.685355 0
M  V30 1749 O 162.113 -1.79198 -0.345578 0
M  V30 1750 C 162.164 -1.78462 3.14378 0
M  V30 1751 O 161.885 -0.965914 4.27319 0
M  V30 1752 C 163.386 -2.62707 3.57071 0
M  V30 1753 H 160.606 -0.263341 0.617165 0
M  V30 1754 H 163.15 -0.174236 2.03756 0
M  V30 1755 H 161.305 -2.46984 2.98459 0
M  V30 1756 H 161.719 -1.56655 5.00559 0
M  V30 1757 H 163.193 -3.19969 4.49804 0
M  V30 1758 H 163.67 -3.37472 2.81086 0
M  V30 1759 H 164.276 -1.99521 3.75595 0
M  V30 1760 N 162.591 -1.51276 -0.441967 0
M  V30 1761 C 163.868 -1.54252 -1.20273 0
M  V30 1762 C 164.248 -0.30408 -2.08898 0
M  V30 1763 O 163.596 0.711084 -2.17154 0
M  V30 1764 C 163.806 -2.85406 -2.00859 0
M  V30 1765 C 165.154 -3.37181 -2.58059 0
M  V30 1766 O 166.178 -2.86925 -2.11074 0
M  V30 1767 O 165.037 -4.24858 -3.43741 0
M  V30 1768 H 162.131 -0.619969 -0.547328 0
M  V30 1769 H 164.677 -1.63586 -0.451413 0
M  V30 1770 H 163.449 -3.67003 -1.35736 0
M  V30 1771 H 163.072 -2.79213 -2.83065 0
M  V30 1772 N 164.069 0.697108 -1.41344 0
M  V30 1773 C 165.309 1.46939 -1.42085 0
M  V30 1774 C 165.673 1.9198 -0.0280397 0
M  V30 1775 O 166.874 2.6865 0.0897504 0
M  V30 1776 C 165.145 2.64985 -2.39828 0
M  V30 1777 S 166.704 3.54147 -2.59085 0
M  V30 1778 H 163.522 0.502146 -0.503359 0
M  V30 1779 H 166.124 0.813546 -1.77769 0
M  V30 1780 H 164.828 2.30098 -3.39828 0
M  V30 1781 H 164.359 3.35464 -2.05493 0
M  V30 1782 H 166.374 4.60137 -1.85711 0
M  V30 1783 N 165.547 1.27147 0.931209 0
M  V30 1784 C 166.963 1.04475 1.20653 0
M  V30 1785 C 167.163 -0.223885 2.00252 0
M  V30 1786 O 166.219 -0.930332 2.34736 0
M  V30 1787 C 167.532 2.28209 1.95809 0
M  V30 1788 C 169.08 2.33211 2.08762 0
M  V30 1789 C 169.555 3.56665 2.87323 0
M  V30 1790 N 171.046 3.57201 2.94892 0
M  V30 1791 C 171.781 4.49395 3.56134 0
M  V30 1792 N 171.277 5.51889 4.18796 0
M  V30 1793 N 173.07 4.37026 3.53504 0
M  V30 1794 H 165.221 2.08612 0.399333 0
M  V30 1795 H 167.484 0.917312 0.239253 0
M  V30 1796 H 167.19 3.20538 1.44736 0
M  V30 1797 H 167.064 2.33247 2.96438 0
M  V30 1798 H 169.451 1.41391 2.59023 0
M  V30 1799 H 169.532 2.32178 1.07364 0
M  V30 1800 H 169.176 4.4882 2.37746 0
M  V30 1801 H 169.106 3.54948 3.88998 0
M  V30 1802 H 171.597 2.83074 2.50354 0
M  V30 1803 H 171.91 6.18409 4.63454 0
M  V30 1804 H 170.255 5.55735 4.17353 0
M  V30 1805 H 173.446 3.56166 3.03749 0
M  V30 1806 H 173.619 5.09067 4.00942 0
M  V30 1807 N 167.025 -1.13721 1.09112 0
M  V30 1808 C 167.955 -2.21148 0.749385 0
M  V30 1809 C 168.936 -1.6792 -0.271475 0
M  V30 1810 O 170.121 -1.93693 -0.140251 0
M  V30 1811 C 167.251 -3.46905 0.165659 0
M  V30 1812 C 166.205 -4.13203 1.11567 0
M  V30 1813 C 165.531 -5.33248 0.393809 0
M  V30 1814 C 166.831 -4.60912 2.45678 0
M  V30 1815 H 168.525 -2.4999 1.64758 0
M  V30 1816 H 166.071 -1.20156 0.793626 0
M  V30 1817 H 168.024 -4.21313 -0.085466 0
M  V30 1818 H 166.748 -3.17449 -0.767714 0
M  V30 1819 H 165.407 -3.40758 1.35202 0
M  V30 1820 H 165.055 -5.00054 -0.543599 0
M  V30 1821 H 164.755 -5.78552 1.02721 0
M  V30 1822 H 166.279 -6.10413 0.150908 0
M  V30 1823 H 167.693 -5.26759 2.26269 0
M  V30 1824 H 166.09 -5.16944 3.04776 0
M  V30 1825 H 167.16 -3.75603 3.06677 0
M  V30 1826 N 168.503 -0.877838 -1.30888 0
M  V30 1827 C 169.731 -0.507414 -2.00581 0
M  V30 1828 C 170.146 0.902216 -1.65848 0
M  V30 1829 O 169.503 1.59225 -0.891831 0
M  V30 1830 C 169.554 -0.664162 -3.55347 0
M  V30 1831 O 169.275 -2.01829 -3.8884 0
M  V30 1832 C 170.776 -0.295787 -4.42312 0
M  V30 1833 H 167.996 -0.196866 -0.641471 0
M  V30 1834 H 170.54 -1.18117 -1.66939 0
M  V30 1835 H 168.695 -0.0378619 -3.87381 0
M  V30 1836 H 169.109 -2.03174 -4.8355 0
M  V30 1837 H 170.583 -0.456388 -5.5011 0
M  V30 1838 H 171.06 0.765663 -4.32475 0
M  V30 1839 H 171.666 -0.898113 -4.15709 0
M  V30 1840 N 169.982 1.44106 -0.638065 0
M  V30 1841 C 170.93 2.3248 0.0748149 0
M  V30 1842 C 171.924 1.47746 0.828702 0
M  V30 1843 O 173.13 1.64049 0.740816 0
M  V30 1844 H 169.505 0.750771 0.0429686 0
M  V30 1845 H 171.476 2.90348 -0.688504 0
M  V30 1846 C 170.225 3.31843 1.03805 0
M  V30 1847 H 169.548 3.97059 0.467375 0
M  V30 1848 H 170.988 3.96345 1.50622 0
M  V30 1849 C 169.447 2.61291 2.1267 0
M  V30 1850 O 169.977 2.41702 3.20847 0
M  V30 1851 N 168.183 2.20915 1.88798 0
M  V30 1852 H 167.73 2.37047 1.00829 0
M  V30 1853 H 167.688 1.74038 2.61836 0
M  V30 1854 N 171.46 0.379036 1.52974 0
M  V30 1855 C 172.708 -0.206014 2.01047 0
M  V30 1856 C 173.029 -1.48175 1.26765 0
M  V30 1857 O 172.299 -1.92085 0.384743 0
M  V30 1858 H 170.879 -0.0791184 0.742798 0
M  V30 1859 H 173.541 0.508366 1.88153 0
M  V30 1860 H 172.637 -0.423501 3.09213 0
M  V30 1861 N 172.938 -1.57226 0.108567 0
M  V30 1862 C 174.163 -1.99604 -0.563303 0
M  V30 1863 C 174.588 -0.987563 -1.6009 0
M  V30 1864 O 173.946 0.0421687 -1.81251 0
M  V30 1865 C 173.994 -3.40902 -1.17552 0
M  V30 1866 O 173.098 -3.42896 -2.2912 0
M  V30 1867 H 172.439 -0.648704 -0.1417 0
M  V30 1868 H 174.969 -2.03679 0.193961 0
M  V30 1869 H 174.979 -3.78886 -1.51357 0
M  V30 1870 H 173.654 -4.1382 -0.415445 0
M  V30 1871 H 172.231 -3.1672 -1.96832 0
M  V30 1872 N 174.416 0.165178 -1.56732 0
M  V30 1873 C 175.832 0.517174 -1.50988 0
M  V30 1874 C 176.032 1.84331 -0.813894 0
M  V30 1875 O 175.088 2.49672 -0.37682 0
M  V30 1876 C 176.401 0.544261 -2.95733 0
M  V30 1877 C 177.949 0.631039 -3.06573 0
M  V30 1878 C 178.424 0.68896 -4.52788 0
M  V30 1879 N 179.915 0.751683 -4.5706 0
M  V30 1880 C 180.65 0.817177 -5.67547 0
M  V30 1881 N 180.146 0.843129 -6.8765 0
M  V30 1882 N 181.939 0.856668 -5.55534 0
M  V30 1883 H 174.09 -0.704318 -2.00382 0
M  V30 1884 H 176.353 -0.254687 -0.913148 0
M  V30 1885 H 176.059 -0.361607 -3.49836 0
M  V30 1886 H 175.933 1.3886 -3.5071 0
M  V30 1887 H 178.32 1.52733 -2.52501 0
M  V30 1888 H 178.401 -0.240095 -2.54671 0
M  V30 1889 H 178.045 -0.2031 -5.07494 0
M  V30 1890 H 177.975 1.57633 -5.02454 0
M  V30 1891 H 180.466 0.739661 -3.70591 0
M  V30 1892 H 180.779 0.894448 -7.67606 0
M  V30 1893 H 179.124 0.811304 -6.90248 0
M  V30 1894 H 182.315 0.833437 -4.60621 0
M  V30 1895 H 182.488 0.904247 -6.4166 0
M  V30 1896 N 175.894 1.51508 0.433938 0
M  V30 1897 C 177.124 1.67914 1.20369 0
M  V30 1898 C 177.532 0.377461 1.85397 0
M  V30 1899 O 176.875 -0.654255 1.71654 0
M  V30 1900 C 176.937 2.74045 2.32679 0
M  V30 1901 C 176.601 4.16543 1.87991 0
M  V30 1902 C 177.598 5.01211 1.38145 0
M  V30 1903 C 175.283 4.6266 1.95579 0
M  V30 1904 C 177.277 6.30056 0.964774 0
M  V30 1905 C 174.964 5.91501 1.53523 0
M  V30 1906 C 175.962 6.75027 1.04055 0
M  V30 1907 O 175.65 8.01459 0.625964 0
M  V30 1908 H 175.382 0.566578 0.368735 0
M  V30 1909 H 177.936 1.98709 0.51999 0
M  V30 1910 H 176.166 2.38572 3.04336 0
M  V30 1911 H 177.855 2.79295 2.94532 0
M  V30 1912 H 178.621 4.66783 1.31675 0
M  V30 1913 H 174.5 3.97767 2.33029 0
M  V30 1914 H 178.044 6.95202 0.57796 0
M  V30 1915 H 173.941 6.25442 1.59665 0
M  V30 1916 H 174.709 8.15043 0.751509 0
M  V30 1917 N 177.372 -0.689602 1.41712 0
M  V30 1918 C 178.783 -1.26973 1.36875 0
M  V30 1919 C 179.134 -1.96124 0.054748 0
M  V30 1920 O 178.259 -1.99141 -0.84687 0
M  V30 1921 C 178.854 -2.30912 2.47922 0
M  V30 1922 C 177.413 -2.84486 2.46464 0
M  V30 1923 C 176.56 -1.58603 2.27465 0
M  V30 1924 H 179.511 -0.48396 1.51141 0
M  V30 1925 H 179.532 -3.12331 2.17323 0
M  V30 1926 H 179.044 -1.80554 3.43543 0
M  V30 1927 H 177.145 -3.39005 1.54617 0
M  V30 1928 H 177.258 -3.34511 3.42986 0
M  V30 1929 H 175.622 -1.84632 1.75451 0
M  V30 1930 H 176.405 -1.10233 3.25121 0
M  V30 1931 N 178.85 -1.27639 -0.924453 0
M  V30 1932 C 179.798 -1.10485 -2.04685 0
M  V30 1933 C 180.792 -0.0270421 -1.69378 0
M  V30 1934 O 181.998 -0.185008 -1.79047 0
M  V30 1935 H 178.373 -0.340546 -0.670472 0
M  V30 1936 H 180.344 -2.05566 -2.16298 0
M  V30 1937 C 179.093 -0.772229 -3.39016 0
M  V30 1938 H 178.416 -1.59351 -3.66671 0
M  V30 1939 H 179.856 -0.692097 -4.18313 0
M  V30 1940 C 178.315 0.523554 -3.32807 0
M  V30 1941 O 178.845 1.55702 -3.70297 0
M  V30 1942 N 177.051 0.520363 -2.85903 0
M  V30 1943 H 176.598 -0.32107 -2.55591 0
M  V30 1944 H 176.556 1.38742 -2.82131 0
M  V30 1945 N 180.328 1.1314 -1.09713 0
M  V30 1946 C 181.568 1.8613 -0.844683 0
M  V30 1947 C 181.932 1.81765 0.618491 0
M  V30 1948 O 183.133 2.50024 0.98699 0
M  V30 1949 C 181.404 3.30151 -1.36877 0
M  V30 1950 S 182.963 4.206 -1.25064 0
M  V30 1951 H 179.781 0.642056 -0.305427 0
M  V30 1952 H 182.383 1.36343 -1.4011 0
M  V30 1953 H 181.087 3.30883 -2.42786 0
M  V30 1954 H 180.618 3.85 -0.808614 0
M  V30 1955 H 182.633 4.95783 -0.203486 0
M  V30 1956 N 181.806 0.884767 1.30421 0
M  V30 1957 C 182.769 0.356277 2.26414 0
M  V30 1958 C 183.769 -0.501124 1.52792 0
M  V30 1959 O 184.959 -0.30831 1.7145 0
M  V30 1960 C 182.091 -0.492316 3.37326 0
M  V30 1961 H 183.284 1.20389 2.74675 0
M  V30 1962 H 180.837 0.661607 1.41607 0
M  V30 1963 H 181.572 -1.36052 2.94381 0
M  V30 1964 H 181.357 0.121832 3.91911 0
M  V30 1965 H 182.847 -0.853871 4.08777 0
M  V30 1966 N 183.284 -1.43765 0.645699 0
M  V30 1967 C 184.514 -2.05953 0.163318 0
M  V30 1968 C 184.922 -1.48432 -1.17322 0
M  V30 1969 O 184.265 -0.607295 -1.73371 0
M  V30 1970 C 184.327 -3.59499 -0.0103065 0
M  V30 1971 C 183.991 -4.39563 1.25035 0
M  V30 1972 C 184.988 -4.72108 2.17739 0
M  V30 1973 C 182.673 -4.79697 1.48983 0
M  V30 1974 C 184.667 -5.43688 3.3269 0
M  V30 1975 C 182.354 -5.51023 2.64229 0
M  V30 1976 C 183.352 -5.8294 3.55908 0
M  V30 1977 O 183.04 -6.5281 4.69142 0
M  V30 1978 H 182.772 -0.670798 0.0836986 0
M  V30 1979 H 185.326 -1.85384 0.884407 0
M  V30 1980 H 183.556 -3.78613 -0.78669 0
M  V30 1981 H 185.245 -4.03408 -0.449087 0
M  V30 1982 H 186.011 -4.41627 2.00476 0
M  V30 1983 H 181.89 -4.54266 0.785078 0
M  V30 1984 H 185.434 -5.68517 4.04269 0
M  V30 1985 H 181.331 -5.8092 2.81429 0
M  V30 1986 H 182.099 -6.71288 4.6831 0
M  V30 1987 N 184.763 -0.387143 -1.52771 0
M  V30 1988 C 186.179 -0.037007 -1.59557 0
M  V30 1989 C 186.379 1.44801 -1.40124 0
M  V30 1990 O 185.435 2.21227 -1.21716 0
M  V30 1991 C 186.748 -0.512256 -2.96305 0
M  V30 1992 C 188.296 -0.468328 -3.09476 0
M  V30 1993 C 188.771 -0.919731 -4.4867 0
M  V30 1994 N 190.262 -0.875656 -4.54848 0
M  V30 1995 C 190.997 -1.19637 -5.6078 0
M  V30 1996 N 190.493 -1.58745 -6.74368 0
M  V30 1997 N 192.286 -1.11776 -5.50874 0
M  V30 1998 H 184.437 -1.35395 -1.63652 0
M  V30 1999 H 186.7 -0.554818 -0.768688 0
M  V30 2000 H 186.406 -1.54935 -3.15734 0
M  V30 2001 H 186.28 0.089805 -3.77093 0
M  V30 2002 H 188.667 0.559671 -2.89744 0
M  V30 2003 H 188.748 -1.10616 -2.30646 0
M  V30 2004 H 188.392 -1.94595 -4.69143 0
M  V30 2005 H 188.322 -0.258927 -5.25963 0
M  V30 2006 H 190.813 -0.587843 -3.733 0
M  V30 2007 H 191.126 -1.81586 -7.51163 0
M  V30 2008 H 189.471 -1.6263 -6.75705 0
M  V30 2009 H 192.662 -0.811264 -4.61016 0
M  V30 2010 H 192.835 -1.37103 -6.3333 0
M  V30 2011 N 186.241 1.57166 -0.116904 0
M  V30 2012 C 187.469 1.99473 0.549383 0
M  V30 2013 C 187.884 0.996541 1.60357 0
M  V30 2014 O 187.241 -0.0108731 1.82497 0
M  V30 2015 C 187.292 3.41788 1.17741 0
M  V30 2016 O 187.013 4.37788 0.165362 0
M  V30 2017 C 188.514 3.99216 1.92722 0
M  V30 2018 H 185.734 0.655009 0.145616 0
M  V30 2019 H 188.278 2.03494 -0.202625 0
M  V30 2020 H 186.433 3.38713 1.88021 0
M  V30 2021 H 186.847 5.20806 0.621403 0
M  V30 2022 H 188.321 5.00882 2.31995 0
M  V30 2023 H 188.798 3.3824 2.80161 0
M  V30 2024 H 189.404 4.0583 1.27209 0
M  V30 2025 N 187.719 -0.156864 1.56817 0
M  V30 2026 C 188.944 -0.890331 1.87318 0
M  V30 2027 C 189.369 -1.74394 0.704855 0
M  V30 2028 O 188.727 -1.77972 -0.345786 0
M  V30 2029 C 188.775 -1.73102 3.16336 0
M  V30 2030 O 187.879 -2.83422 2.99576 0
M  V30 2031 H 187.22 -0.24857 0.615718 0
M  V30 2032 H 189.75 -0.150649 2.04045 0
M  V30 2033 H 189.76 -2.12803 3.48107 0
M  V30 2034 H 188.435 -1.10412 4.00976 0
M  V30 2035 H 187.012 -2.47199 2.7919 0
M  V30 2036 N 189.197 -1.51736 -0.425897 0
M  V30 2037 C 190.608 -1.5732 -1.00536 0
M  V30 2038 C 190.959 -0.403537 -1.92005 0
M  V30 2039 O 190.084 0.478256 -2.11049 0
M  V30 2040 C 190.679 -2.85119 -1.8301 0
M  V30 2041 C 189.238 -2.93236 -2.35987 0
M  V30 2042 C 188.385 -2.52098 -1.15508 0
M  V30 2043 H 191.336 -1.57348 -0.206739 0
M  V30 2044 H 191.357 -2.69526 -2.68581 0
M  V30 2045 H 190.869 -3.7023 -1.16411 0
M  V30 2046 H 188.97 -2.12581 -3.06007 0
M  V30 2047 H 189.083 -3.9713 -2.68001 0
M  V30 2048 H 187.447 -2.05558 -1.50393 0
M  V30 2049 H 188.23 -3.39565 -0.505014 0
M  V30 2050 N 190.675 0.682077 -1.42076 0
M  V30 2051 C 191.622 1.79578 -1.44984 0
M  V30 2052 C 192.592 1.6332 -0.302614 0
M  V30 2053 O 193.777 1.83978 -0.505633 0
M  V30 2054 C 190.917 3.1756 -1.35091 0
M  V30 2055 C 190.03 3.45156 -2.59791 0
M  V30 2056 C 189.165 4.72826 -2.42093 0
M  V30 2057 C 188.204 4.93433 -3.62202 0
M  V30 2058 N 187.341 6.12338 -3.43491 0
M  V30 2059 H 192.181 1.76427 -2.40161 0
M  V30 2060 H 189.718 0.861376 -1.19242 0
M  V30 2061 H 191.676 3.97287 -1.27354 0
M  V30 2062 H 190.306 3.19854 -0.435133 0
M  V30 2063 H 189.358 2.59736 -2.77923 0
M  V30 2064 H 190.67 3.5628 -3.49094 0
M  V30 2065 H 189.824 5.60631 -2.319 0
M  V30 2066 H 188.563 4.63973 -1.50268 0
M  V30 2067 H 187.568 4.04073 -3.72834 0
M  V30 2068 H 188.793 5.04136 -4.54998 0
M  V30 2069 H 186.739 6.04672 -2.54377 0
M  V30 2070 H 186.656 6.2429 -4.26377 0
M  V30 2071 H 187.924 7.02841 -3.37097 0
M  V30 2072 N 192.153 1.28127 0.917671 0
M  V30 2073 C 193.063 1.13556 2.05286 0
M  V30 2074 C 194.079 0.0630914 1.73886 0
M  V30 2075 O 195.255 0.271598 1.9956 0
M  V30 2076 C 192.32 0.794676 3.3747 0
M  V30 2077 C 191.381 1.94909 3.82504 0
M  V30 2078 C 190.614 1.62437 5.0838 0
M  V30 2079 O 190.837 0.536905 5.67867 0
M  V30 2080 O 189.771 2.46677 5.4903 0
M  V30 2081 H 193.597 2.08844 2.20495 0
M  V30 2082 H 191.182 1.07409 1.03845 0
M  V30 2083 H 193.064 0.618344 4.16839 0
M  V30 2084 H 191.739 -0.128581 3.23445 0
M  V30 2085 H 190.646 2.18055 3.03978 0
M  V30 2086 H 191.979 2.85291 4.01086 0
M  V30 2087 N 193.631 -1.12557 1.10312 0
M  V30 2088 C 195.047 -1.36036 0.834649 0
M  V30 2089 C 195.247 -1.93946 -0.546539 0
M  V30 2090 O 194.303 -2.16484 -1.29966 0
M  V30 2091 C 195.616 -2.30312 1.9333 0
M  V30 2092 C 197.164 -2.43906 1.9616 0
M  V30 2093 C 197.639 -3.41496 3.05195 0
M  V30 2094 N 199.13 -3.49053 3.04494 0
M  V30 2095 C 199.865 -4.24471 3.85502 0
M  V30 2096 N 199.361 -5.02966 4.76442 0
M  V30 2097 N 201.154 -4.19864 3.73725 0
M  V30 2098 H 193.305 -0.733246 1.99342 0
M  V30 2099 H 195.568 -0.385234 0.866198 0
M  V30 2100 H 195.274 -1.94933 2.92735 0
M  V30 2101 H 195.148 -3.30421 1.81939 0
M  V30 2102 H 197.535 -2.78567 0.973886 0
M  V30 2103 H 197.616 -1.4369 2.11629 0
M  V30 2104 H 197.26 -3.07565 4.04186 0
M  V30 2105 H 197.19 -4.41539 2.86968 0
M  V30 2106 H 199.681 -2.93053 2.38596 0
M  V30 2107 H 199.994 -5.57846 5.34815 0
M  V30 2108 H 198.339 -5.02167 4.80472 0
M  V30 2109 H 201.53 -3.57623 3.02032 0
M  V30 2110 H 201.703 -4.78386 4.37093 0
M  V30 2111 N 195.109 -0.891671 -1.2995 0
M  V30 2112 C 196.059 -0.334811 -2.25528 0
M  V30 2113 C 197.043 0.540553 -1.51548 0
M  V30 2114 O 198.235 0.383882 -1.72787 0
M  V30 2115 C 195.364 0.44374 -3.4042 0
M  V30 2116 C 194.45 -0.44609 -4.21747 0
M  V30 2117 N 194.841 -1.54963 -4.81477 0
M  V30 2118 C 193.139 -0.242415 -4.45341 0
M  V30 2119 C 193.84 -2.10015 -5.42465 0
M  V30 2120 N 192.816 -1.39423 -5.25416 0
M  V30 2121 H 196.618 -1.17792 -2.69262 0
M  V30 2122 H 194.132 -0.741822 -1.44467 0
M  V30 2123 H 196.129 0.859362 -4.07947 0
M  V30 2124 H 194.789 1.28421 -2.98225 0
M  V30 2125 H 195.8 -1.93244 -4.80497 0
M  V30 2126 H 192.477 0.560342 -4.13723 0
M  V30 2127 H 193.867 -3.02724 -5.9984 0
M  V30 2128 N 196.587 1.43421 -0.653314 0
M  V30 2129 C 197.836 2.01032 -0.164076 0
M  V30 2130 C 198.149 1.52147 1.22926 0
M  V30 2131 O 199.355 2.02031 1.81371 0
M  V30 2132 C 197.811 3.59082 -0.24252 0
M  V30 2133 C 197.419 4.1696 -1.63855 0
M  V30 2134 C 199.163 4.24079 0.18911 0
M  V30 2135 C 197.07 5.67304 -1.67092 0
M  V30 2136 H 196 0.751798 -0.0575769 0
M  V30 2137 H 198.651 1.6439 -0.815362 0
M  V30 2138 H 197.033 3.93125 0.476276 0
M  V30 2139 H 198.207 3.94416 -2.38271 0
M  V30 2140 H 196.522 3.64335 -2.01616 0
M  V30 2141 H 199.119 5.34381 0.184775 0
M  V30 2142 H 199.462 3.98005 1.22056 0
M  V30 2143 H 199.995 3.94918 -0.477938 0
M  V30 2144 H 196.734 5.98145 -2.68146 0
M  V30 2145 H 196.254 5.91904 -0.970014 0
M  V30 2146 H 197.933 6.31344 -1.4147 0
M  V30 2147 N 198.065 0.39524 1.52563 0
M  V30 2148 C 199.314 -0.186321 2.00838 0
M  V30 2149 C 199.627 -1.47402 1.28577 0
M  V30 2150 O 200.833 -2.13599 1.67593 0
M  V30 2151 C 199.289 -0.382595 3.57861 0
M  V30 2152 C 198.897 0.892202 4.39026 0
M  V30 2153 C 200.641 -0.9202 4.14406 0
M  V30 2154 C 198.548 0.66388 5.87662 0
M  V30 2155 H 197.478 -0.0734041 0.750418 0
M  V30 2156 H 200.129 0.518552 1.76021 0
M  V30 2157 H 198.511 -1.14946 3.7895 0
M  V30 2158 H 199.685 1.66414 4.29701 0
M  V30 2159 H 198 1.35519 3.9373 0
M  V30 2160 H 200.597 -1.10683 5.23119 0
M  V30 2161 H 200.94 -1.89096 3.70875 0
M  V30 2162 H 201.473 -0.212751 3.97231 0
M  V30 2163 H 198.212 1.6058 6.35527 0
M  V30 2164 H 197.732 -0.0690193 5.9976 0
M  V30 2165 H 199.411 0.300699 6.46301 0
M  V30 2166 N 199.544 -1.57102 0.125237 0
M  V30 2167 C 200.79 -1.95697 -0.532035 0
M  V30 2168 C 201.123 -1.009 -1.6593 0
M  V30 2169 O 200.398 -0.047347 -1.94442 0
M  V30 2170 C 200.681 -3.44181 -1.05884 0
M  V30 2171 C 200.534 -4.49752 0.0654392 0
M  V30 2172 C 201.853 -3.94655 -1.9477 0
M  V30 2173 H 198.972 -0.711571 -0.191925 0
M  V30 2174 H 201.614 -1.88923 0.20206 0
M  V30 2175 H 199.764 -3.50085 -1.68442 0
M  V30 2176 H 201.436 -4.55943 0.700982 0
M  V30 2177 H 199.679 -4.27653 0.727709 0
M  V30 2178 H 200.35 -5.50924 -0.344505 0
M  V30 2179 H 202.826 -3.91094 -1.42074 0
M  V30 2180 H 201.702 -4.99057 -2.28546 0
M  V30 2181 H 201.963 -3.35718 -2.87656 0
M  V30 2182 N 201.022 0.148545 -1.56898 0
M  V30 2183 C 201.985 1.16736 -1.97244 0
M  V30 2184 C 202.985 1.35947 -0.858777 0
M  V30 2185 O 204.175 1.32966 -1.12542 0
M  V30 2186 C 201.307 2.52798 -2.28705 0
M  V30 2187 H 202.5 0.821279 -2.88435 0
M  V30 2188 H 200.053 0.391831 -1.51309 0
M  V30 2189 H 200.788 2.92381 -1.403 0
M  V30 2190 H 200.573 2.40216 -3.09901 0
M  V30 2191 H 202.063 3.26179 -2.60762 0
M  V30 2192 N 202.5 1.5196 0.417844 0
M  V30 2193 C 203.74 1.67262 1.17486 0
M  V30 2194 C 204.104 0.38983 1.88001 0
M  V30 2195 O 205.305 0.418845 2.65517 0
M  V30 2196 C 203.576 2.85526 2.14965 0
M  V30 2197 S 205.135 3.21263 2.98891 0
M  V30 2198 H 201.953 0.589077 0.398132 0
M  V30 2199 H 204.555 1.89927 0.463452 0
M  V30 2200 H 203.259 3.77145 1.61833 0
M  V30 2201 H 202.79 2.65107 2.90657 0
M  V30 2202 H 204.805 2.69208 4.16823 0
M  V30 2203 N 203.978 -0.674533 1.42435 0
M  V30 2204 C 204.888 -1.81751 1.48337 0
M  V30 2205 C 205.904 -1.69975 0.372099 0
M  V30 2206 O 207.08 -1.91521 0.62304 0
M  V30 2207 C 204.145 -3.17895 1.38361 0
M  V30 2208 C 203.206 -3.41625 2.59982 0
M  V30 2209 C 202.439 -4.71274 2.50473 0
M  V30 2210 O 202.662 -5.49197 1.54075 0
M  V30 2211 O 201.596 -4.96254 3.4061 0
M  V30 2212 H 205.422 -1.79728 2.44809 0
M  V30 2213 H 203.007 -0.830312 1.24202 0
M  V30 2214 H 204.889 -3.99136 1.35161 0
M  V30 2215 H 203.564 -3.20555 0.450144 0
M  V30 2216 H 202.471 -2.60231 2.68757 0
M  V30 2217 H 203.804 -3.43796 3.52229 0
M  V30 2218 N 205.456 -1.28612 -0.910864 0
M  V30 2219 C 206.704 -1.15705 -1.65701 0
M  V30 2220 C 207.025 0.29416 -1.92769 0
M  V30 2221 O 206.295 1.20331 -1.54588 0
M  V30 2222 H 204.875 -0.425216 -0.614167 0
M  V30 2223 H 207.537 -1.61381 -1.0928 0
M  V30 2224 H 206.633 -1.6988 -2.61815 0
M  V30 2225 N 206.934 1.1197 -1.10907 0
M  V30 2226 C 208.159 1.87942 -0.877064 0
M  V30 2227 C 208.584 1.79341 0.567314 0
M  V30 2228 O 207.942 1.15184 1.40009 0
M  V30 2229 C 207.99 3.34926 -1.33629 0
M  V30 2230 O 207.094 4.09303 -0.504447 0
M  V30 2231 H 206.435 0.583785 -0.316371 0
M  V30 2232 H 208.965 1.4157 -1.47712 0
M  V30 2233 H 208.975 3.8577 -1.32837 0
M  V30 2234 H 207.65 3.40504 -2.3881 0
M  V30 2235 H 206.227 3.68393 -0.577993 0
M  V30 2236 N 208.412 0.89855 1.29475 0
M  V30 2237 C 209.823 0.572537 1.77705 0
M  V30 2238 C 210.174 -0.911778 1.73727 0
M  V30 2239 O 209.299 -1.71288 1.32247 0
M  V30 2240 C 209.894 1.03252 3.22683 0
M  V30 2241 C 208.453 0.757687 3.68695 0
M  V30 2242 C 207.6 1.20787 2.49612 0
M  V30 2243 H 210.551 1.08139 1.16153 0
M  V30 2244 H 210.572 0.367307 3.78723 0
M  V30 2245 H 210.084 2.11285 3.25546 0
M  V30 2246 H 208.185 -0.310079 3.71308 0
M  V30 2247 H 208.298 1.35476 4.59547 0
M  V30 2248 H 206.662 0.626888 2.46865 0
M  V30 2249 H 207.445 2.29622 2.55203 0
M  V30 2250 N 209.89 -1.43072 0.660911 0
M  V30 2251 C 211.12 -2.05769 0.185153 0
M  V30 2252 C 211.528 -1.49668 -1.15742 0
M  V30 2253 O 210.871 -0.625649 -1.72717 0
M  V30 2254 C 210.933 -3.59489 0.0278237 0
M  V30 2255 C 210.597 -4.38212 1.2969 0
M  V30 2256 C 211.594 -4.69772 2.22734 0
M  V30 2257 C 209.279 -4.7809 1.54063 0
M  V30 2258 C 211.273 -5.40129 3.38437 0
M  V30 2259 C 208.96 -5.4819 2.70058 0
M  V30 2260 C 209.958 -5.79132 3.62071 0
M  V30 2261 O 209.646 -6.47798 4.76039 0
M  V30 2262 H 209.378 -0.669873 0.0908086 0
M  V30 2263 H 211.932 -1.84436 0.90402 0
M  V30 2264 H 210.162 -3.79426 -0.746489 0
M  V30 2265 H 211.851 -4.03862 -0.406275 0
M  V30 2266 H 212.617 -4.39476 2.05149 0
M  V30 2267 H 208.496 -4.53408 0.833215 0
M  V30 2268 H 212.04 -5.64198 4.10277 0
M  V30 2269 H 207.937 -5.77902 2.87574 0
M  V30 2270 H 208.705 -6.66283 4.75404 0
M  V30 2271 N 211.368 -0.403325 -1.52352 0
M  V30 2272 C 212.614 0.174605 -2.02047 0
M  V30 2273 C 212.947 1.45282 -1.28867 0
M  V30 2274 O 212.222 1.90483 -0.393257 0
M  V30 2275 C 212.505 0.428238 -3.57545 0
M  V30 2276 C 212.358 -0.866248 -4.4138 0
M  V30 2277 C 213.677 1.21287 -4.23057 0
M  V30 2278 H 210.796 0.0619851 -0.734389 0
M  V30 2279 H 213.438 -0.53565 -1.82293 0
M  V30 2280 H 211.588 1.03327 -3.74507 0
M  V30 2281 H 213.26 -1.50265 -4.3614 0
M  V30 2282 H 211.503 -1.47851 -4.07827 0
M  V30 2283 H 212.174 -0.643249 -5.48239 0
M  V30 2284 H 214.65 0.700703 -4.10158 0
M  V30 2285 H 213.526 1.35909 -5.31808 0
M  V30 2286 H 213.787 2.23193 -3.81625 0
M  V30 2287 N 212.846 1.57033 -0.133567 0
M  V30 2288 C 214.257 1.82593 0.389464 0
M  V30 2289 C 214.608 1.05156 1.6564 0
M  V30 2290 O 213.733 0.292644 2.14412 0
M  V30 2291 C 214.328 3.31204 0.713377 0
M  V30 2292 C 212.887 3.57393 1.18098 0
M  V30 2293 C 212.034 2.76598 0.197126 0
M  V30 2294 H 214.985 1.54598 -0.358481 0
M  V30 2295 H 215.006 3.46627 1.56939 0
M  V30 2296 H 214.518 3.87537 -0.2089 0
M  V30 2297 H 212.619 3.06433 2.11966 0
M  V30 2298 H 212.732 4.65915 1.11624 0
M  V30 2299 H 211.096 2.45257 0.687088 0
M  V30 2300 H 211.879 3.35697 -0.718504 0
M  V30 2301 N 214.325 -0.140222 1.56975 0
M  V30 2302 C 215.571 -0.852949 1.83991 0
M  V30 2303 C 215.904 -1.80512 0.716187 0
M  V30 2304 O 215.179 -1.92479 -0.279681 0
M  V30 2305 C 215.462 -1.6215 3.21527 0
M  V30 2306 C 215.315 -0.690363 4.4447 0
M  V30 2307 C 216.634 -2.58247 3.56366 0
M  V30 2308 H 213.753 -0.308634 0.669264 0
M  V30 2309 H 216.395 -0.117898 1.89634 0
M  V30 2310 H 214.545 -2.24812 3.16847 0
M  V30 2311 H 216.217 -0.0742264 4.6124 0
M  V30 2312 H 214.46 -0.000396433 4.338 0
M  V30 2313 H 215.131 -1.2643 5.37326 0
M  V30 2314 H 217.607 -2.05701 3.61699 0
M  V30 2315 H 216.483 -3.09067 4.53617 0
M  V30 2316 H 216.744 -3.39923 2.82674 0
M  V30 2317 N 215.803 -1.52179 -0.40978 0
M  V30 2318 C 216.753 -1.71857 -1.49831 0
M  V30 2319 C 217.737 -0.572469 -1.50372 0
M  V30 2320 O 218.929 -0.829509 -1.56359 0
M  V30 2321 C 216.058 -1.87206 -2.87765 0
M  V30 2322 C 215.144 -3.07685 -2.91875 0
M  V30 2323 N 215.535 -4.30403 -2.65683 0
M  V30 2324 C 213.833 -3.07505 -3.23043 0
M  V30 2325 C 214.534 -5.11868 -2.76344 0
M  V30 2326 N 213.51 -4.47101 -3.09195 0
M  V30 2327 H 217.312 -2.64381 -1.28375 0
M  V30 2328 H 214.826 -1.50203 -0.617479 0
M  V30 2329 H 216.823 -1.99419 -3.66111 0
M  V30 2330 H 215.483 -0.958814 -3.10221 0
M  V30 2331 H 216.494 -4.58887 -2.4009 0
M  V30 2332 H 213.171 -2.25915 -3.51096 0
M  V30 2333 H 214.561 -6.19634 -2.59814 0
M  V30 2334 N 217.281 0.66697 -1.42791 0
M  V30 2335 C 218.528 1.42699 -1.43678 0
M  V30 2336 C 218.856 1.94419 -0.0560425 0
M  V30 2337 O 218.111 1.7182 0.936831 0
M  V30 2338 C 218.41 2.6349 -2.4147 0
M  V30 2339 C 218.076 2.30267 -3.8767 0
M  V30 2340 C 216.738 2.20918 -4.27491 0
M  V30 2341 C 219.09 2.03435 -4.79858 0
M  V30 2342 C 216.418 1.82873 -5.57471 0
M  V30 2343 C 218.77 1.66892 -6.10188 0
M  V30 2344 C 217.434 1.56058 -6.49001 0
M  V30 2345 H 216.704 0.522171 -0.525755 0
M  V30 2346 H 219.351 0.759785 -1.75783 0
M  V30 2347 H 217.656 3.35279 -2.0272 0
M  V30 2348 H 219.353 3.21684 -2.39417 0
M  V30 2349 H 215.943 2.38449 -3.56146 0
M  V30 2350 H 220.127 2.09586 -4.49875 0
M  V30 2351 H 215.383 1.7306 -5.86396 0
M  V30 2352 H 219.557 1.45157 -6.81104 0
M  V30 2353 H 217.184 1.26348 -7.49627 0
M  V30 2354 N 218.759 1.29093 0.90403 0
M  V30 2355 C 220.036 1.075 1.63411 0
M  V30 2356 C 220.416 -0.382346 2.07609 0
M  V30 2357 O 219.764 -1.37031 1.82851 0
M  V30 2358 C 219.974 2.05858 2.81822 0
M  V30 2359 C 221.322 2.36539 3.52611 0
M  V30 2360 O 222.346 2.04019 2.91984 0
M  V30 2361 O 221.205 2.92085 4.61897 0
M  V30 2362 H 218.299 0.411547 0.717327 0
M  V30 2363 H 220.845 1.40449 0.952479 0
M  V30 2364 H 219.617 3.04037 2.46327 0
M  V30 2365 H 219.24 1.73613 3.57693 0
M  V30 2366 N 220.237 -1.11381 1.11499 0
M  V30 2367 C 221.2 -2.15622 0.777153 0
M  V30 2368 C 222.2 -1.59504 -0.203779 0
M  V30 2369 O 223.39 -1.74188 0.020782 0
M  V30 2370 C 220.522 -3.40556 0.153116 0
M  V30 2371 H 221.715 -2.47021 1.70061 0
M  V30 2372 H 219.268 -1.26577 0.916952 0
M  V30 2373 H 220.003 -3.14767 -0.780536 0
M  V30 2374 H 219.788 -3.8257 0.859238 0
M  V30 2375 H 221.278 -4.17546 -0.0671044 0
M  V30 2376 N 221.715 -0.905404 -1.28997 0
M  V30 2377 C 222.94 -0.549175 -1.99997 0
M  V30 2378 C 223.365 0.860276 -1.67275 0
M  V30 2379 O 222.723 1.57355 -0.900502 0
M  V30 2380 C 222.771 -0.755185 -3.52604 0
M  V30 2381 O 221.875 0.189692 -4.11964 0
M  V30 2382 H 221.216 -0.213899 -0.628604 0
M  V30 2383 H 223.746 -1.21856 -1.64354 0
M  V30 2384 H 223.756 -0.662045 -4.02593 0
M  V30 2385 H 222.431 -1.78271 -3.75755 0
M  V30 2386 H 221.008 0.0485257 -3.72868 0
M  V30 2387 N 223.193 1.4272 -0.668489 0
M  V30 2388 C 224.439 2.01923 -0.188419 0
M  V30 2389 C 224.772 1.52704 1.19979 0
M  V30 2390 O 224.047 0.726566 1.8042 0
M  V30 2391 C 224.33 3.59451 -0.216085 0
M  V30 2392 C 224.183 4.18864 -1.6393 0
M  V30 2393 C 225.502 4.37903 0.439179 0
M  V30 2394 H 222.621 0.733674 -0.0699412 0
M  V30 2395 H 225.263 1.69822 -0.852076 0
M  V30 2396 H 223.413 3.86929 0.349012 0
M  V30 2397 H 225.085 4.02362 -2.25616 0
M  V30 2398 H 223.328 3.74933 -2.18193 0
M  V30 2399 H 223.999 5.27987 -1.61039 0
M  V30 2400 H 226.475 4.16079 -0.0417878 0
M  V30 2401 H 225.351 5.47519 0.389157 0
M  V30 2402 H 225.612 4.15303 1.51577 0
M  V30 2403 N 224.671 0.411399 1.52136 0
M  V30 2404 C 225.581 -0.419774 2.30814 0
M  V30 2405 C 226.597 -1.0515 1.38634 0
M  V30 2406 O 227.773 -1.05252 1.71709 0
M  V30 2407 C 224.838 -1.52019 3.11594 0
M  V30 2408 C 223.899 -0.91129 4.19516 0
M  V30 2409 C 223.132 -1.95927 4.96436 0
M  V30 2410 O 223.355 -3.17775 4.73683 0
M  V30 2411 O 222.289 -1.56423 5.81219 0
M  V30 2412 H 226.115 0.221805 3.02889 0
M  V30 2413 H 223.7 0.174547 1.48377 0
M  V30 2414 H 225.582 -2.15898 3.61892 0
M  V30 2415 H 224.257 -2.14633 2.42311 0
M  V30 2416 H 223.164 -0.235157 3.7336 0
M  V30 2417 H 224.497 -0.32904 4.91099 0
M  V30 2418 N 226.149 -1.5696 0.141893 0
M  V30 2419 C 227.426 -1.87553 -0.555281 0
M  V30 2420 C 227.806 -1.04699 -1.83306 0
M  V30 2421 O 227.154 -0.132346 -2.28116 0
M  V30 2422 C 227.364 -3.39093 -0.825664 0
M  V30 2423 C 228.712 -4.08199 -1.16869 0
M  V30 2424 O 229.736 -3.44242 -0.915185 0
M  V30 2425 O 228.595 -5.21139 -1.6455 0
M  V30 2426 H 225.689 -0.777188 -0.282679 0
M  V30 2427 H 228.235 -1.68763 0.17812 0
M  V30 2428 H 227.007 -3.91221 0.0788633 0
M  V30 2429 H 226.63 -3.63393 -1.61343 0
M  V30 2430 N 227.627 0.131896 -1.57047 0
M  V30 2431 C 228.852 0.860418 -1.8871 0
M  V30 2432 C 229.277 1.73251 -0.73251 0
M  V30 2433 O 228.635 1.785 0.317429 0
M  V30 2434 C 228.683 1.68047 -3.19049 0
M  V30 2435 O 227.787 2.7862 -3.04047 0
M  V30 2436 H 227.128 0.238743 -0.619595 0
M  V30 2437 H 229.658 0.118169 -2.04258 0
M  V30 2438 H 229.668 2.07238 -3.51449 0
M  V30 2439 H 228.343 1.04018 -4.02682 0
M  V30 2440 H 226.92 2.42726 -2.83088 0
M  V30 2441 N 229.106 1.52395 0.401703 0
M  V30 2442 C 230.334 1.70676 1.16949 0
M  V30 2443 C 230.749 0.419503 1.8408 0
M  V30 2444 O 230.106 -0.605061 1.72178 0
M  V30 2445 C 230.157 2.84753 2.22706 0
M  V30 2446 O 229.878 4.08495 1.58314 0
M  V30 2447 C 231.379 3.14608 3.12309 0
M  V30 2448 H 228.599 0.571787 0.351142 0
M  V30 2449 H 231.143 1.98987 0.471652 0
M  V30 2450 H 229.298 2.58941 2.88147 0
M  V30 2451 H 229.712 4.72117 2.28485 0
M  V30 2452 H 231.186 3.97923 3.82572 0
M  V30 2453 H 231.663 2.28464 3.75101 0
M  V30 2454 H 232.269 3.42212 2.52529 0
M  V30 2455 O 230.623 -0.547609 1.51933 0
M  V30 2456 H 231.314 -1.20275 1.51834 0
M  V30 END ATOM
M  V30 BEGIN BOND
M  V30 END BOND
M  V30 END CTAB
M  END
$$$$
