drugbank_target|Q14914 Prostaglandin reductase 1 (DB03461; DB04066; DB07177)
 OpenBabel12092120403D

  0  0  0     0  0            999 V3000
M  V30 BEGIN CTAB
M  V30 COUNTS 5112 5164 0 0 0
M  V30 BEGIN ATOM
M  V30 1 H -0.908 1.98254 -0.117106 0
M  V30 2 N 0 1.576 0 0
M  V30 3 C 0.933 2.03868 1.02534 0
M  V30 4 C 1.911 0.928543 1.3348 0
M  V30 5 O 3.095 1.19667 1.45644 0
M  V30 6 C 0.222 2.43627 2.35294 0
M  V30 7 C -0.732 3.65373 2.2001 0
M  V30 8 S 0.101 5.13292 1.52614 0
M  V30 9 C 1.257 5.56322 2.86805 0
M  V30 10 H 1.49 2.90518 0.631377 0
M  V30 11 H -0.977 1.52953 0.210867 0
M  V30 12 H 0.981 2.67203 3.11629 0
M  V30 13 H -0.358 1.57376 2.7183 0
M  V30 14 H -1.165 3.90944 3.18086 0
M  V30 15 H -1.563 3.418 1.51819 0
M  V30 16 H 0.729 5.58782 3.83104 0
M  V30 17 H 1.672 6.56266 2.65933 0
M  V30 18 H 2.08 4.83886 2.90714 0
M  V30 19 N 1.4781 -0.272755 1.55222 0
M  V30 20 C 2.7241 -1.00581 1.761 0
M  V30 21 C 3.0571 -1.85932 0.560625 0
M  V30 22 O 2.3321 -1.89416 -0.441801 0
M  V30 23 C 2.6151 -1.88816 3.06628 0
M  V30 24 C 2.4681 -1.06457 4.37021 0
M  V30 25 C 3.7871 -2.8752 3.33197 0
M  V30 26 H 0.9061 -0.364244 0.640699 0
M  V30 27 H 3.5481 -0.278189 1.87952 0
M  V30 28 H 1.6981 -2.50856 2.96654 0
M  V30 29 H 3.3701 -0.464863 4.58952 0
M  V30 30 H 1.6131 -0.368043 4.32236 0
M  V30 31 H 2.2841 -1.71514 5.24678 0
M  V30 32 H 4.7601 -2.35615 3.42965 0
M  V30 33 H 3.6361 -3.46399 4.25792 0
M  V30 34 H 3.8971 -3.62657 2.52849 0
M  V30 35 N 2.9562 -1.48159 -0.537278 0
M  V30 36 C 4.3722 -1.34118 -0.865129 0
M  V30 37 C 4.5722 -0.346678 -1.98495 0
M  V30 38 O 3.6282 0.234715 -2.51407 0
M  V30 39 C 4.9412 -2.73963 -1.23954 0
M  V30 40 C 6.4892 -2.82397 -1.34984 0
M  V30 41 C 6.9642 -4.22928 -1.75772 0
M  V30 42 N 8.4552 -4.25566 -1.82887 0
M  V30 43 C 9.1902 -5.31235 -2.15817 0
M  V30 44 N 8.6862 -6.47189 -2.47222 0
M  V30 45 N 10.4792 -5.18624 -2.16761 0
M  V30 46 H 2.6302 -2.1144 0.201715 0
M  V30 47 H 4.8932 -0.947598 0.0275949 0
M  V30 48 H 4.5992 -3.48264 -0.490381 0
M  V30 49 H 4.4732 -3.0702 -2.19132 0
M  V30 50 H 6.8602 -2.08356 -2.08978 0
M  V30 51 H 6.9412 -2.5297 -0.379448 0
M  V30 52 H 6.5852 -4.97482 -1.02341 0
M  V30 53 H 6.5152 -4.49794 -2.73848 0
M  V30 54 H 9.0062 -3.41924 -1.60924 0
M  V30 55 H 9.3192 -7.23564 -2.71433 0
M  V30 56 H 7.6642 -6.50476 -2.44757 0
M  V30 57 H 10.8552 -4.27056 -1.91679 0
M  V30 58 H 11.0282 -6.01078 -2.42093 0
M  V30 59 N 4.4343 0.785586 -1.36625 0
M  V30 60 C 5.6623 1.57448 -1.3423 0
M  V30 61 C 6.0773 1.88649 0.0755653 0
M  V30 62 O 5.4343 1.50414 1.03354 0
M  V30 63 C 5.4853 2.89316 -2.16745 0
M  V30 64 O 5.2063 2.59459 -3.53005 0
M  V30 65 C 6.7073 3.83606 -2.22174 0
M  V30 66 H 3.9273 0.488226 -0.4603 0
M  V30 67 H 6.4713 0.974733 -1.79775 0
M  V30 68 H 4.6263 3.4575 -1.74745 0
M  V30 69 H 5.0403 3.43804 -3.96105 0
M  V30 70 H 6.5143 4.73181 -2.8426 0
M  V30 71 H 6.9913 4.21734 -1.22627 0
M  V30 72 H 7.5973 3.33104 -2.64427 0
M  V30 73 N 5.9124 1.20967 1.01018 0
M  V30 74 C 6.8594 0.964281 2.09691 0
M  V30 75 C 7.8294 -0.107853 1.65749 0
M  V30 76 O 9.0144 0.0381987 1.90762 0
M  V30 77 C 6.1544 0.52943 3.41015 0
M  V30 78 C 5.2674 1.67043 3.98398 0
M  V30 79 C 4.4024 1.18525 5.17808 0
M  V30 80 C 3.4414 2.29892 5.67288 0
M  V30 81 N 2.5784 1.82546 6.77954 0
M  V30 82 H 7.4184 1.89463 2.30017 0
M  V30 83 H 4.9554 0.944289 1.1279 0
M  V30 84 H 6.9134 0.258588 4.16398 0
M  V30 85 H 5.5434 -0.363919 3.20742 0
M  V30 86 H 4.5954 2.05603 3.20049 0
M  V30 87 H 5.9074 2.50877 4.31117 0
M  V30 88 H 5.0614 0.870762 6.00419 0
M  V30 89 H 3.8004 0.316887 4.86669 0
M  V30 90 H 2.8054 2.6215 4.83278 0
M  V30 91 H 4.0304 3.17216 6.00459 0
M  V30 92 H 1.9764 0.980454 6.48632 0
M  V30 93 H 1.8934 2.59956 7.09901 0
M  V30 94 H 3.1614 1.54115 7.64113 0
M  V30 95 N 7.3905 -1.2043 1.01659 0
M  V30 96 C 8.6185 -1.93777 0.725132 0
M  V30 97 C 9.0335 -1.74772 -0.714166 0
M  V30 98 O 8.3905 -1.06169 -1.4844 0
M  V30 99 C 8.4415 -3.45876 1.05129 0
M  V30 100 O 8.1625 -3.6426 2.43406 0
M  V30 101 C 9.6635 -4.36368 0.780891 0
M  V30 102 H 6.8835 -0.615901 0.266284 0
M  V30 103 H 9.4275 -1.52922 1.35776 0
M  V30 104 H 7.5825 -3.8461 0.464065 0
M  V30 105 H 7.9965 -4.58246 2.55169 0
M  V30 106 H 9.4705 -5.41743 1.05918 0
M  V30 107 H 9.9475 -4.38275 -0.284937 0
M  V30 108 H 10.5535 -4.03296 1.35027 0
M  V30 109 N 8.8686 -0.792821 -1.36206 0
M  V30 110 C 10.1146 -0.376415 -1.99887 0
M  V30 111 C 10.4696 1.04127 -1.61788 0
M  V30 112 O 9.7626 1.71004 -0.864193 0
M  V30 113 C 9.9566 -0.481501 -3.54142 0
M  V30 114 C 9.7856 -1.90786 -4.07223 0
M  V30 115 C 8.5556 -2.53322 -4.37214 0
M  V30 116 C 10.7536 -2.87048 -4.26741 0
M  V30 117 N 8.7356 -3.8751 -4.7614 0
M  V30 118 C 10.1066 -4.06077 -4.6851 0
M  V30 119 C 12.1616 -2.8406 -4.08918 0
M  V30 120 C 10.8646 -5.22532 -4.94321 0
M  V30 121 C 12.8906 -3.99705 -4.35878 0
M  V30 122 C 12.2526 -5.1748 -4.77906 0
M  V30 123 H 8.3516 -0.185226 -0.759747 0
M  V30 124 H 10.9356 -1.03114 -1.65153 0
M  V30 125 H 9.1066 0.143154 -3.88136 0
M  V30 126 H 10.8386 -0.0410128 -4.04679 0
M  V30 127 H 7.5936 -2.04777 -4.2704 0
M  V30 128 H 8.0176 -4.5656 -4.99882 0
M  V30 129 H 12.6596 -1.94165 -3.75579 0
M  V30 130 H 10.3776 -6.1301 -5.2654 0
M  V30 131 H 13.9636 -3.98758 -4.23655 0
M  V30 132 H 12.8436 -6.05478 -4.98363 0
M  V30 133 N 10.3467 1.47872 -0.545128 0
M  V30 134 C 11.5747 2.06889 -0.021084 0
M  V30 135 C 11.9897 1.39955 1.2672 0
M  V30 136 O 11.3467 0.492036 1.75742 0
M  V30 137 C 11.3977 3.60996 0.190817 0
M  V30 138 O 11.1187 4.25419 -1.04644 0
M  V30 139 C 12.6197 4.36849 0.753521 0
M  V30 140 H 9.8397 0.669785 -0.0403635 0
M  V30 141 H 12.3837 1.90049 -0.755095 0
M  V30 142 H 10.5387 3.77391 0.87492 0
M  V30 143 H 10.9527 5.17785 -0.836611 0
M  V30 144 H 12.4267 5.45399 0.851139 0
M  V30 145 H 12.9037 4.02306 1.762 0
M  V30 146 H 13.5097 4.25169 0.105503 0
M  V30 147 N 11.8248 0.280983 1.55075 0
M  V30 148 C 12.7548 -0.597469 2.25727 0
M  V30 149 C 13.7358 -1.15417 1.24952 0
M  V30 150 O 14.9208 -1.18722 1.53684 0
M  V30 151 C 12.0508 -1.7789 2.98283 0
M  V30 152 C 11.0048 -1.35347 4.06036 0
M  V30 153 C 10.3308 -2.61846 4.66198 0
M  V30 154 C 11.6308 -0.499354 5.19907 0
M  V30 155 H 13.3248 -0.00824265 2.99399 0
M  V30 156 H 10.8708 -0.0025244 1.44 0
M  V30 157 H 12.8238 -2.39937 3.46422 0
M  V30 158 H 11.5478 -2.39405 2.22155 0
M  V30 159 H 10.2068 -0.756156 3.58717 0
M  V30 160 H 9.8548 -3.21632 3.86732 0
M  V30 161 H 9.5548 -2.3409 5.38958 0
M  V30 162 H 11.0788 -3.24732 5.1709 0
M  V30 163 H 12.4928 -1.02498 5.64063 0
M  V30 164 H 10.8898 -0.316424 5.99265 0
M  V30 165 H 11.9598 0.480459 4.82514 0
M  V30 166 N 13.3029 -1.57598 0.00835791 0
M  V30 167 C 14.2499 -2.08945 -0.980346 0
M  V30 168 C 15.2199 -0.986738 -1.33614 0
M  V30 169 O 16.4049 -1.25968 -1.43306 0
M  V30 170 C 13.5449 -2.60425 -2.26435 0
M  V30 171 C 12.6579 -3.84628 -1.96685 0
M  V30 172 C 11.7929 -4.24579 -3.19228 0
M  V30 173 C 10.8319 -5.41596 -2.85202 0
M  V30 174 N 9.9689 -5.768 -4.00307 0
M  V30 175 H 14.8089 -2.93148 -0.535551 0
M  V30 176 H 12.3459 -1.44912 -0.252776 0
M  V30 177 H 14.3039 -2.88354 -3.01509 0
M  V30 178 H 12.9339 -1.79083 -2.68568 0
M  V30 179 H 11.9859 -3.63556 -1.11942 0
M  V30 180 H 13.2979 -4.69796 -1.67611 0
M  V30 181 H 12.4519 -4.53834 -4.02641 0
M  V30 182 H 11.1909 -3.38137 -3.51447 0
M  V30 183 H 10.1959 -5.12056 -2.00198 0
M  V30 184 H 11.4209 -6.29721 -2.54222 0
M  V30 185 H 9.3669 -4.93316 -4.32407 0
M  V30 186 H 9.2839 -6.5656 -3.74786 0
M  V30 187 H 10.5519 -6.10652 -4.84484 0
M  V30 188 N 14.781 0.264519 -1.55364 0
M  V30 189 C 15.728 1.32717 -1.88825 0
M  V30 190 C 16.698 1.48675 -0.740605 0
M  V30 191 O 17.883 1.62945 -0.992657 0
M  V30 192 C 15.023 2.68089 -2.17307 0
M  V30 193 C 14.136 2.60284 -3.44785 0
M  V30 194 C 13.271 3.87892 -3.62924 0
M  V30 195 C 12.31 3.74631 -4.84064 0
M  V30 196 N 11.447 4.94092 -4.98816 0
M  V30 197 H 16.287 1.03481 -2.79456 0
M  V30 198 H 13.824 0.499757 -1.3835 0
M  V30 199 H 15.782 3.46864 -2.31821 0
M  V30 200 H 14.412 2.95509 -1.299 0
M  V30 201 H 13.464 1.73173 -3.38697 0
M  V30 202 H 14.776 2.46388 -4.33698 0
M  V30 203 H 13.93 4.75109 -3.77302 0
M  V30 204 H 12.669 4.04664 -2.7221 0
M  V30 205 H 11.674 2.85797 -4.69681 0
M  V30 206 H 12.899 3.5937 -5.76221 0
M  V30 207 H 10.845 5.11259 -4.11036 0
M  V30 208 H 10.762 4.8276 -5.81789 0
M  V30 209 H 12.03 5.82857 -5.17588 0
M  V30 210 N 16.2591 1.48442 0.529413 0
M  V30 211 C 17.2091 1.59407 1.63014 0
M  V30 212 C 18.1931 0.451166 1.54445 0
M  V30 213 O 19.3851 0.702635 1.62456 0
M  V30 214 C 16.5141 1.63746 3.01732 0
M  V30 215 C 15.6001 2.83518 3.15402 0
M  V30 216 N 15.9911 4.07929 2.99045 0
M  V30 217 C 14.2891 2.80862 3.46457 0
M  V30 218 C 14.9901 4.8829 3.16146 0
M  V30 219 N 13.9661 4.21117 3.43746 0
M  V30 220 H 17.7681 2.53343 1.48978 0
M  V30 221 H 15.2821 1.44821 0.734885 0
M  V30 222 H 17.2791 1.69695 3.80801 0
M  V30 223 H 15.9391 0.709264 3.16859 0
M  V30 224 H 16.9501 4.38357 2.75796 0
M  V30 225 H 13.6271 1.97301 3.67938 0
M  V30 226 H 15.0171 5.97028 3.08232 0
M  V30 227 N 17.7372 -0.778329 1.37039 0
M  V30 228 C 18.9842 -1.53665 1.31884 0
M  V30 229 C 19.3122 -1.9425 -0.0986303 0
M  V30 230 O 18.5672 -1.63832 -1.07041 0
M  V30 231 C 18.8662 -2.81845 2.19768 0
M  V30 232 C 18.5322 -2.60345 3.68146 0
M  V30 233 C 17.1942 -2.5419 4.08584 0
M  V30 234 C 19.5462 -2.40923 4.62175 0
M  V30 235 C 16.8742 -2.26594 5.41177 0
M  V30 236 C 19.2262 -2.14852 5.94997 0
M  V30 237 C 17.8902 -2.07137 6.34547 0
M  V30 238 H 17.1602 -0.562299 0.482598 0
M  V30 239 H 19.8072 -0.897069 1.69189 0
M  V30 240 H 18.1122 -3.50328 1.75436 0
M  V30 241 H 19.8092 -3.39692 2.13097 0
M  V30 242 H 16.3992 -2.65996 3.36072 0
M  V30 243 H 20.5832 -2.44673 4.31797 0
M  V30 244 H 15.8392 -2.19111 5.70789 0
M  V30 245 H 20.0132 -1.98822 6.67415 0
M  V30 246 H 17.6402 -1.85518 7.37216 0
M  V30 247 N 19.2153 -1.21501 -1.00376 0
M  V30 248 C 20.4613 -1.03452 -1.74429 0
M  V30 249 C 20.7943 0.430764 -1.89362 0
M  V30 250 O 20.0693 1.31962 -1.42886 0
M  V30 251 C 20.3523 -1.73375 -3.15615 0
M  V30 252 C 20.2053 -3.27431 -3.08397 0
M  V30 253 C 21.5243 -1.47732 -4.14564 0
M  V30 254 H 18.6433 -0.377226 -0.633143 0
M  V30 255 H 21.2853 -1.49693 -1.17013 0
M  V30 256 H 19.4353 -1.34064 -3.64636 0
M  V30 257 H 21.1073 -3.76119 -2.67081 0
M  V30 258 H 19.3503 -3.5767 -2.45468 0
M  V30 259 H 20.0213 -3.71524 -4.08258 0
M  V30 260 H 22.4973 -1.8186 -3.74254 0
M  V30 261 H 21.3733 -1.99169 -5.11491 0
M  V30 262 H 21.6343 -0.407589 -4.40217 0
M  V30 263 N 20.6934 1.19889 -1.02296 0
M  V30 264 C 21.9414 1.89046 -0.714558 0
M  V30 265 C 22.2624 1.79636 0.758681 0
M  V30 266 O 21.5324 1.20292 1.54618 0
M  V30 267 H 20.1124 0.699802 -0.261317 0
M  V30 268 H 22.7744 1.45574 -1.29592 0
M  V30 269 H 21.8704 2.95524 -1.0036 0
M  V30 270 N 22.1715 0.800033 1.35784 0
M  V30 271 C 23.4015 0.389041 2.02904 0
M  V30 272 C 23.8095 -1.0027 1.60445 0
M  V30 273 O 23.1525 -1.65633 0.794453 0
M  V30 274 C 23.2145 0.385495 3.57427 0
M  V30 275 C 22.8785 1.72662 4.23127 0
M  V30 276 C 23.8755 2.68385 4.4527 0
M  V30 277 C 21.5605 2.00883 4.60381 0
M  V30 278 C 23.5545 3.90517 5.03761 0
M  V30 279 C 21.2415 3.2328 5.18588 0
M  V30 280 C 22.2395 4.17915 5.40218 0
M  V30 281 O 21.9275 5.38153 5.97199 0
M  V30 282 H 21.6595 0.157032 0.657508 0
M  V30 283 H 24.2135 1.08311 1.74522 0
M  V30 284 H 22.4435 -0.365128 3.84972 0
M  V30 285 H 24.1325 -0.00228296 4.059 0
M  V30 286 H 24.8985 2.47872 4.16874 0
M  V30 287 H 20.7775 1.28037 4.42863 0
M  V30 288 H 24.3215 4.64395 5.2056 0
M  V30 289 H 20.2185 3.43667 5.4641 0
M  V30 290 H 20.9865 5.3936 6.15656 0
M  V30 291 N 23.6496 -1.47581 0.552962 0
M  V30 292 C 25.0606 -1.86324 0.118463 0
M  V30 293 C 25.4116 -1.46006 -1.3106 0
M  V30 294 O 24.5366 -0.861182 -1.98526 0
M  V30 295 C 25.1316 -3.3816 0.20821 0
M  V30 296 C 23.6906 -3.7601 -0.171226 0
M  V30 297 C 22.8376 -2.71634 0.557686 0
M  V30 298 H 25.7886 -1.39159 0.762928 0
M  V30 299 H 25.8096 -3.76141 -0.574278 0
M  V30 300 H 25.3216 -3.67473 1.24841 0
M  V30 301 H 23.4226 -3.52313 -1.21269 0
M  V30 302 H 23.5356 -4.78745 0.184379 0
M  V30 303 H 21.8996 -2.547 0.00125792 0
M  V30 304 H 22.6826 -3.0379 1.59896 0
M  V30 305 N 25.1277 -0.289203 -1.54924 0
M  V30 306 C 26.3557 0.326463 -2.04308 0
M  V30 307 C 26.7707 1.48413 -1.16701 0
M  V30 308 O 26.1277 1.81507 -0.190087 0
M  V30 309 C 26.1787 0.794014 -3.52672 0
M  V30 310 O 25.8997 -0.317564 -4.36948 0
M  V30 311 C 27.4007 1.47605 -4.18004 0
M  V30 312 H 24.6207 0.0726272 -0.667058 0
M  V30 313 H 27.1647 -0.425401 -2.00026 0
M  V30 314 H 25.3197 1.49593 -3.57352 0
M  V30 315 H 25.7337 0.0443186 -5.24481 0
M  V30 316 H 27.2077 1.75447 -5.23376 0
M  V30 317 H 27.6847 2.41224 -3.67025 0
M  V30 318 H 28.2907 0.81762 -4.17367 0
M  V30 319 N 26.6058 1.57591 -0.0167156 0
M  V30 320 C 27.5538 2.10604 0.987353 0
M  V30 321 C 28.5478 1.02977 1.34507 0
M  V30 322 O 29.7538 1.21425 1.32875 0
M  V30 323 H 26.1288 0.672695 0.336134 0
M  V30 324 H 28.0998 2.93925 0.514817 0
M  V30 325 C 26.8488 2.6382 2.26483 0
M  V30 326 H 26.1718 3.46278 1.99829 0
M  V30 327 H 27.6118 3.04573 2.94977 0
M  V30 328 C 26.0708 1.55992 2.9861 0
M  V30 329 O 26.6008 0.952521 3.90243 0
M  V30 330 N 24.8068 1.28335 2.60727 0
M  V30 331 H 24.3538 1.77914 1.86291 0
M  V30 332 H 24.3118 0.564115 3.09298 0
M  V30 333 N 28.0839 -0.256276 1.55502 0
M  V30 334 C 29.3089 -1.00766 1.81276 0
M  V30 335 C 29.7339 -1.78524 0.59252 0
M  V30 336 O 29.0919 -1.75413 -0.45827 0
M  V30 337 C 29.1399 -1.92869 3.04687 0
M  V30 338 O 28.2439 -3.019 2.80945 0
M  V30 339 H 27.5849 -0.287224 0.598664 0
M  V30 340 H 30.1149 -0.280109 2.02674 0
M  V30 341 H 30.1249 -2.34511 3.33869 0
M  V30 342 H 28.7999 -1.35689 3.93143 0
M  V30 343 H 27.3769 -2.64454 2.62904 0
M  V30 344 N 29.562 -1.4872 -0.521534 0
M  V30 345 C 30.839 -1.4766 -1.2828 0
M  V30 346 C 31.219 -0.19292 -2.10217 0
M  V30 347 O 30.567 0.825193 -2.13079 0
M  V30 348 C 30.777 -2.74358 -2.15705 0
M  V30 349 C 32.125 -3.23028 -2.75569 0
M  V30 350 O 33.149 -2.75333 -2.25987 0
M  V30 351 O 32.008 -4.0604 -3.65778 0
M  V30 352 H 29.102 -0.590085 -0.579421 0
M  V30 353 H 31.648 -1.60963 -0.537492 0
M  V30 354 H 30.42 -3.59292 -1.54999 0
M  V30 355 H 30.043 -2.63816 -2.97467 0
M  V30 356 N 31.0401 0.771051 -1.3745 0
M  V30 357 C 32.2871 1.52963 -1.32697 0
M  V30 358 C 32.6151 1.94299 0.0883274 0
M  V30 359 O 31.8701 1.64397 1.0617 0
M  V30 360 C 32.1691 2.80676 -2.2126 0
M  V30 361 C 31.8351 2.58389 -3.69521 0
M  V30 362 C 30.4971 2.52019 -4.09927 0
M  V30 363 C 32.8491 2.38469 -4.63446 0
M  V30 364 C 30.1771 2.23721 -5.42371 0
M  V30 365 C 32.5291 2.11694 -5.96128 0
M  V30 366 C 31.1931 2.03769 -6.35637 0
M  V30 367 H 30.4631 0.559732 -0.485573 0
M  V30 368 H 33.1101 0.888083 -1.69662 0
M  V30 369 H 31.4151 3.49392 -1.77291 0
M  V30 370 H 33.1121 3.38557 -2.14895 0
M  V30 371 H 29.7021 2.6421 -3.37478 0
M  V30 372 H 33.8861 2.4238 -4.33089 0
M  V30 373 H 29.1421 2.16081 -5.71943 0
M  V30 374 H 33.3161 1.9528 -6.6846 0
M  V30 375 H 30.9431 1.81606 -7.38189 0
M  V30 376 N 32.5182 1.22032 0.997298 0
M  V30 377 C 33.4282 1.00271 2.12092 0
M  V30 378 C 34.4442 -0.047621 1.73935 0
M  V30 379 O 35.6202 0.144136 2.00884 0
M  V30 380 C 32.6852 0.578449 3.4184 0
M  V30 381 C 31.7462 1.70189 3.94125 0
M  V30 382 C 30.9792 1.29778 5.17681 0
M  V30 383 O 31.2022 0.174676 5.70132 0
M  V30 384 O 30.1362 2.11261 5.63607 0
M  V30 385 H 33.9622 1.94398 2.3333 0
M  V30 386 H 31.5472 1.00587 1.10465 0
M  V30 387 H 33.4292 0.351998 4.19927 0
M  V30 388 H 32.1042 -0.334019 3.21972 0
M  V30 389 H 31.0112 1.98282 3.1723 0
M  V30 390 H 32.3442 2.59206 4.18417 0
M  V30 391 N 33.9963 -1.19345 1.0293 0
M  V30 392 C 34.9263 -2.2481 0.631105 0
M  V30 393 C 35.9073 -1.66245 -0.360104 0
M  V30 394 O 37.0923 -1.92677 -0.242726 0
M  V30 395 C 34.2223 -3.47295 -0.0184607 0
M  V30 396 C 33.1763 -4.18536 0.895073 0
M  V30 397 C 32.5023 -5.34586 0.110592 0
M  V30 398 C 33.8023 -4.73287 2.209 0
M  V30 399 H 35.4963 -2.58372 1.51275 0
M  V30 400 H 33.0423 -1.24194 0.728818 0
M  V30 401 H 34.9953 -4.20268 -0.308675 0
M  V30 402 H 33.7193 -3.12933 -0.934907 0
M  V30 403 H 32.3783 -3.47446 1.16949 0
M  V30 404 H 32.0263 -4.96469 -0.807902 0
M  V30 405 H 31.7263 -5.83183 0.719087 0
M  V30 406 H 33.2503 -6.10355 -0.172871 0
M  V30 407 H 34.6643 -5.38013 1.98028 0
M  V30 408 H 33.0613 -5.32373 2.76946 0
M  V30 409 H 34.1313 -3.91331 2.86336 0
M  V30 410 N 35.4744 -0.807222 -1.35358 0
M  V30 411 C 36.4214 -0.216037 -2.29787 0
M  V30 412 C 37.3914 0.650278 -1.52842 0
M  V30 413 O 38.5764 0.595227 -1.81278 0
M  V30 414 C 35.7164 0.628893 -3.39321 0
M  V30 415 C 34.8294 -0.257927 -4.31229 0
M  V30 416 C 33.9644 0.595069 -5.27856 0
M  V30 417 C 33.0034 -0.292111 -6.11403 0
M  V30 418 N 32.1404 0.520895 -7.00165 0
M  V30 419 H 36.9804 -1.02671 -2.79755 0
M  V30 420 H 34.5174 -0.517839 -1.37684 0
M  V30 421 H 36.4754 1.13393 -4.01494 0
M  V30 422 H 35.1054 1.40482 -2.90628 0
M  V30 423 H 34.1574 -0.881076 -3.70056 0
M  V30 424 H 35.4694 -0.940759 -4.89848 0
M  V30 425 H 34.6234 1.16522 -5.95405 0
M  V30 426 H 33.3624 1.31146 -4.69736 0
M  V30 427 H 32.3674 -0.874525 -5.428 0
M  V30 428 H 33.5924 -1.00638 -6.71602 0
M  V30 429 H 31.5384 1.22125 -6.44532 0
M  V30 430 H 31.4554 -0.103877 -7.55929 0
M  V30 431 H 32.7234 1.0743 -7.72062 0
M  V30 432 N 36.9525 1.47285 -0.560781 0
M  V30 433 C 38.1805 2.06855 -0.0430262 0
M  V30 434 C 38.5955 1.41291 1.25229 0
M  V30 435 O 37.9525 0.510648 1.7521 0
M  V30 436 C 38.0035 3.61178 0.152518 0
M  V30 437 O 37.7245 4.24285 -1.0915 0
M  V30 438 C 39.2255 4.37624 0.707145 0
M  V30 439 H 36.4455 0.669319 -0.0474652 0
M  V30 440 H 38.9895 1.89237 -0.77521 0
M  V30 441 H 37.1445 3.78298 0.834843 0
M  V30 442 H 37.5585 5.16868 -0.891482 0
M  V30 443 H 39.0325 5.46271 0.793244 0
M  V30 444 H 39.5095 4.04152 1.71923 0
M  V30 445 H 40.1155 4.25257 0.0604027 0
M  V30 446 N 38.4306 0.297415 1.54768 0
M  V30 447 C 39.3936 -0.567375 2.22066 0
M  V30 448 C 40.3936 -1.06409 1.20556 0
M  V30 449 O 41.5836 -0.960691 1.45315 0
M  V30 450 C 38.7156 -1.78517 2.90421 0
M  V30 451 H 39.9086 0.0205534 2.99893 0
M  V30 452 H 37.4616 0.0482163 1.56226 0
M  V30 453 H 38.1966 -2.41303 2.16664 0
M  V30 454 H 37.9816 -1.43669 3.64831 0
M  V30 455 H 39.4716 -2.39964 3.41771 0
M  V30 456 N 39.9087 -1.5758 0.0250728 0
M  V30 457 C 40.8187 -2.1343 -0.973905 0
M  V30 458 C 41.8347 -1.08556 -1.35984 0
M  V30 459 O 43.0107 -1.40592 -1.44207 0
M  V30 460 C 40.0757 -2.64703 -2.23904 0
M  V30 461 C 39.1367 -3.84276 -1.91391 0
M  V30 462 C 38.3697 -4.33095 -3.11873 0
M  V30 463 O 38.5927 -3.81107 -4.24398 0
M  V30 464 O 37.5267 -5.24984 -2.94406 0
M  V30 465 H 41.3527 -2.99057 -0.529036 0
M  V30 466 H 38.9377 -1.48118 -0.195288 0
M  V30 467 H 40.8197 -2.97769 -2.98181 0
M  V30 468 H 39.4947 -1.82161 -2.6758 0
M  V30 469 H 38.4017 -3.56143 -1.14511 0
M  V30 470 H 39.7347 -4.67968 -1.52534 0
M  V30 471 N 41.3868 0.248026 -1.55636 0
M  V30 472 C 42.3168 1.31079 -1.93237 0
M  V30 473 C 43.2978 1.50264 -0.797174 0
M  V30 474 O 44.4828 1.62891 -1.05737 0
M  V30 475 C 41.6128 2.66575 -2.22609 0
M  V30 476 C 40.5668 2.62087 -3.3837 0
M  V30 477 C 39.8928 4.01369 -3.53281 0
M  V30 478 C 41.1928 2.19171 -4.7409 0
M  V30 479 H 42.8868 0.998556 -2.82257 0
M  V30 480 H 40.4328 0.47891 -1.35803 0
M  V30 481 H 42.3858 3.41057 -2.47503 0
M  V30 482 H 41.1098 2.99432 -1.30414 0
M  V30 483 H 39.7688 1.90063 -3.13483 0
M  V30 484 H 39.4168 4.31489 -2.58508 0
M  V30 485 H 39.1168 3.99254 -4.31127 0
M  V30 486 H 40.6408 4.77552 -3.80495 0
M  V30 487 H 42.0548 2.83384 -4.98363 0
M  V30 488 H 40.4518 2.2817 -5.5503 0
M  V30 489 H 41.5218 1.14336 -4.71227 0
M  V30 490 N 42.8649 1.48995 0.513639 0
M  V30 491 C 44.2759 1.5119 1.09537 0
M  V30 492 C 44.6269 0.290906 1.94031 0
M  V30 493 O 43.7519 -0.60049 2.07902 0
M  V30 494 C 44.3469 2.73964 1.99322 0
M  V30 495 C 42.9059 2.78978 2.52682 0
M  V30 496 C 42.0529 2.44934 1.30009 0
M  V30 497 H 45.0039 1.55875 0.298125 0
M  V30 498 H 45.0249 2.53409 2.83838 0
M  V30 499 H 44.5369 3.62813 1.37799 0
M  V30 500 H 42.6379 1.94378 3.1788 0
M  V30 501 H 42.7509 3.8083 2.90698 0
M  V30 502 H 41.1149 1.9644 1.62122 0
M  V30 503 H 41.8979 3.36043 0.702131 0
M  V30 504 N 44.343 -0.763751 1.37857 0
M  V30 505 C 45.754 -1.3405 1.29952 0
M  V30 506 C 46.105 -1.96138 -0.0492898 0
M  V30 507 O 45.23 -1.94372 -0.951239 0
M  V30 508 C 45.825 -2.43729 2.35333 0
M  V30 509 C 44.384 -2.97151 2.31037 0
M  V30 510 C 43.531 -1.70438 2.18738 0
M  V30 511 H 46.482 -0.563396 1.48363 0
M  V30 512 H 46.503 -3.23412 2.00462 0
M  V30 513 H 46.015 -1.9851 3.33489 0
M  V30 514 H 44.116 -3.46724 1.3643 0
M  V30 515 H 44.229 -3.52221 3.24772 0
M  V30 516 H 42.593 -1.93673 1.65418 0
M  V30 517 H 43.376 -1.27312 3.18821 0
M  V30 518 N 45.8211 -1.22559 -0.990812 0
M  V30 519 C 46.7511 -1.0218 -2.09956 0
M  V30 520 C 47.7321 0.0579394 -1.70001 0
M  V30 521 O 48.9171 -0.104684 -1.93918 0
M  V30 522 C 46.0471 -0.601023 -3.4206 0
M  V30 523 C 45.0011 -1.62694 -3.95872 0
M  V30 524 C 44.3271 -1.06193 -5.24049 0
M  V30 525 C 45.6271 -3.01743 -4.2632 0
M  V30 526 H 47.3211 -1.94916 -2.27262 0
M  V30 527 H 44.8671 -0.938566 -1.09211 0
M  V30 528 H 46.8201 -0.445561 -4.19038 0
M  V30 529 H 45.5441 0.362005 -3.24588 0
M  V30 530 H 44.2031 -1.77021 -3.21028 0
M  V30 531 H 43.8511 -0.0901903 -5.02919 0
M  V30 532 H 43.5511 -1.74732 -5.61019 0
M  V30 533 H 45.0751 -0.918092 -6.03658 0
M  V30 534 H 46.4891 -2.90777 -4.94087 0
M  V30 535 H 44.8861 -3.67425 -4.74467 0
M  V30 536 H 45.9561 -3.51518 -3.34011 0
M  V30 537 N 47.2992 1.18797 -1.03562 0
M  V30 538 C 48.2462 2.22253 -0.622259 0
M  V30 539 C 49.2162 1.61987 0.36736 0
M  V30 540 O 50.4012 1.88986 0.262492 0
M  V30 541 C 47.5412 3.45097 0.0138462 0
M  V30 542 C 46.6542 4.19722 -1.02263 0
M  V30 543 C 45.7892 5.30009 -0.355573 0
M  V30 544 C 44.8282 5.96399 -1.37749 0
M  V30 545 N 43.9652 6.98234 -0.735766 0
M  V30 546 H 48.8052 2.56968 -1.50903 0
M  V30 547 H 46.3422 1.26245 -0.755017 0
M  V30 548 H 48.3002 4.15279 0.399948 0
M  V30 549 H 46.9302 3.11018 0.864158 0
M  V30 550 H 45.9822 3.48418 -1.52673 0
M  V30 551 H 47.2942 4.65227 -1.79903 0
M  V30 552 H 46.4482 6.0664 0.0850095 0
M  V30 553 H 45.1872 4.85592 0.452967 0
M  V30 554 H 44.1922 5.18512 -1.82826 0
M  V30 555 H 45.4172 6.42899 -2.18764 0
M  V30 556 H 43.3632 6.55979 0.0525597 0
M  V30 557 H 43.2802 7.41965 -1.44995 0
M  V30 558 H 44.5482 7.78845 -0.31941 0
M  V30 559 N 48.7773 0.814389 1.34928 0
M  V30 560 C 49.7253 0.218424 2.31572 0
M  V30 561 C 50.7193 -0.636128 1.57002 0
M  V30 562 O 51.9253 -0.52842 1.72069 0
M  V30 563 H 48.3003 0.0518799 0.750208 0
M  V30 564 H 50.2713 1.04852 2.79372 0
M  V30 565 C 49.0203 -0.61207 3.4227 0
M  V30 566 H 48.3433 0.0361578 3.99784 0
M  V30 567 H 49.7833 -0.995317 4.12152 0
M  V30 568 C 48.2423 -1.78087 2.85984 0
M  V30 569 O 48.7723 -2.8787 2.80168 0
M  V30 570 N 46.9783 -1.59488 2.42924 0
M  V30 571 H 46.5253 -0.701874 2.47854 0
M  V30 572 H 46.4833 -2.37846 2.05613 0
M  V30 573 N 50.2554 -1.46986 0.568584 0
M  V30 574 C 51.5034 -2.02041 0.0487022 0
M  V30 575 C 51.8244 -1.44408 -1.31039 0
M  V30 576 O 51.0944 -0.623477 -1.85714 0
M  V30 577 H 49.6744 -0.746849 0.015014 0
M  V30 578 H 52.3364 -1.80257 0.741168 0
M  V30 579 H 51.4324 -3.12085 -0.0308961 0
M  V30 580 N 51.7335 -0.305618 -1.54608 0
M  V30 581 C 52.6435 0.57778 -2.27374 0
M  V30 582 C 53.6595 1.14451 -1.31061 0
M  V30 583 O 54.8355 1.16831 -1.6405 0
M  V30 584 C 51.9005 1.73123 -3.00382 0
M  V30 585 C 50.9615 1.19812 -4.12242 0
M  V30 586 C 50.1945 2.2966 -4.81759 0
M  V30 587 O 50.4175 3.49651 -4.50666 0
M  V30 588 O 49.3515 1.96091 -5.69062 0
M  V30 589 H 53.1775 -0.012624 -3.03697 0
M  V30 590 H 50.7625 -0.0719184 -1.49227 0
M  V30 591 H 52.6445 2.40315 -3.4616 0
M  V30 592 H 51.3195 2.30815 -2.26949 0
M  V30 593 H 50.2265 0.491798 -3.70853 0
M  V30 594 H 51.5595 0.666566 -4.87666 0
M  V30 595 N 53.2116 1.57565 -0.0334293 0
M  V30 596 C 54.4576 1.92262 0.645226 0
M  V30 597 C 54.7906 0.910543 1.71531 0
M  V30 598 O 54.0656 -0.066099 1.94388 0
M  V30 599 C 54.3486 3.37422 1.2577 0
M  V30 600 C 54.2016 4.49369 0.196891 0
M  V30 601 C 55.5206 3.82628 2.17449 0
M  V30 602 H 52.6396 0.699171 0.233085 0
M  V30 603 H 55.2816 1.89779 -0.0915694 0
M  V30 604 H 53.4316 3.39669 1.88566 0
M  V30 605 H 55.1036 4.59254 -0.433962 0
M  V30 606 H 53.3466 4.31168 -0.477137 0
M  V30 607 H 54.0176 5.47978 0.665124 0
M  V30 608 H 56.4936 3.82145 1.64634 0
M  V30 609 H 55.3696 4.84883 2.57254 0
M  V30 610 H 55.6306 3.18376 3.0674 0
M  V30 611 N 54.6897 -0.239769 1.55765 0
M  V30 612 C 55.6197 -1.30052 1.9393 0
M  V30 613 C 56.6007 -1.49839 0.805132 0
M  V30 614 O 57.7857 -1.62328 1.06599 0
M  V30 615 C 54.9157 -2.65391 2.2402 0
M  V30 616 C 53.8697 -2.60289 3.39755 0
M  V30 617 C 53.1957 -3.99489 3.55405 0
M  V30 618 C 54.4957 -2.16654 4.75246 0
M  V30 619 H 56.1897 -0.983573 2.82783 0
M  V30 620 H 53.7357 -0.471701 1.36055 0
M  V30 621 H 55.6887 -3.3974 2.49308 0
M  V30 622 H 54.4127 -2.98736 1.32 0
M  V30 623 H 53.0717 -1.88398 3.14487 0
M  V30 624 H 52.7197 -4.30112 2.60793 0
M  V30 625 H 52.4197 -3.96962 4.33238 0
M  V30 626 H 53.9437 -4.75528 3.83022 0
M  V30 627 H 55.3577 -2.80737 4.99859 0
M  V30 628 H 53.7547 -2.25223 5.56232 0
M  V30 629 H 54.8247 -1.11835 4.71827 0
M  V30 630 N 56.1678 -1.49265 -0.50573 0
M  V30 631 C 57.0978 -1.68495 -1.61653 0
M  V30 632 C 58.0788 -0.53366 -1.61512 0
M  V30 633 O 59.2638 -0.76897 -1.78327 0
M  V30 634 C 56.3938 -1.74709 -3.00157 0
M  V30 635 C 55.3478 -2.89581 -3.15162 0
M  V30 636 C 54.6738 -2.80903 -4.5497 0
M  V30 637 C 55.9738 -4.30578 -2.95634 0
M  V30 638 H 57.6678 -2.61493 -1.45814 0
M  V30 639 H 55.2138 -1.25838 -0.70005 0
M  V30 640 H 57.1668 -1.86748 -3.77761 0
M  V30 641 H 55.8908 -0.783067 -3.17074 0
M  V30 642 H 54.5498 -2.77136 -2.39982 0
M  V30 643 H 54.1978 -1.82419 -4.68756 0
M  V30 644 H 53.8978 -3.57999 -4.65951 0
M  V30 645 H 55.4218 -2.94944 -5.34641 0
M  V30 646 H 56.8358 -4.4373 -3.63011 0
M  V30 647 H 55.2328 -5.0886 -3.18091 0
M  V30 648 H 56.3028 -4.45352 -1.91806 0
M  V30 649 N 57.6459 0.756429 -1.3826 0
M  V30 650 C 58.5559 1.9009 -1.37488 0
M  V30 651 C 59.5719 1.71855 -0.272366 0
M  V30 652 O 60.7479 1.94827 -0.510318 0
M  V30 653 C 57.8129 3.25421 -1.19592 0
M  V30 654 C 56.8739 3.56202 -2.39622 0
M  V30 655 C 56.1069 4.85075 -2.2257 0
M  V30 656 O 56.3299 5.57246 -1.21793 0
M  V30 657 O 55.2639 5.15269 -3.11098 0
M  V30 658 H 59.0899 1.93695 -2.33914 0
M  V30 659 H 56.6749 0.901313 -1.1915 0
M  V30 660 H 58.5569 4.06337 -1.11661 0
M  V30 661 H 57.2319 3.22634 -0.262486 0
M  V30 662 H 56.1389 2.75458 -2.53128 0
M  V30 663 H 57.4719 3.63747 -3.31586 0
M  V30 664 N 59.124 1.23083 0.984299 0
M  V30 665 C 60.087 1.00979 2.05757 0
M  V30 666 C 61.087 -0.0269573 1.60777 0
M  V30 667 O 62.277 0.212403 1.729 0
M  V30 668 C 59.409 0.527072 3.36801 0
M  V30 669 H 60.602 1.9622 2.26799 0
M  V30 670 H 58.155 1.05072 1.15714 0
M  V30 671 H 58.89 -0.429294 3.21446 0
M  V30 672 H 58.675 1.27515 3.70786 0
M  V30 673 H 60.165 0.392942 4.15747 0
M  V30 674 N 60.6021 -1.18246 1.0419 0
M  V30 675 C 61.5321 -2.24127 0.654914 0
M  V30 676 C 62.5131 -1.66617 -0.342451 0
M  V30 677 O 63.6981 -1.92924 -0.222277 0
M  V30 678 C 60.8281 -3.47295 0.0183757 0
M  V30 679 C 59.7821 -4.17563 0.939414 0
M  V30 680 C 59.1081 -5.34438 0.167286 0
M  V30 681 C 60.4081 -4.70917 2.25908 0
M  V30 682 H 62.1021 -2.56753 1.54007 0
M  V30 683 H 59.6481 -1.23414 0.74195 0
M  V30 684 H 61.6011 -4.20572 -0.264082 0
M  V30 685 H 60.3251 -3.13907 -0.901664 0
M  V30 686 H 58.9841 -3.46186 1.20628 0
M  V30 687 H 58.6321 -4.97298 -0.7552 0
M  V30 688 H 58.3321 -5.82388 0.780901 0
M  V30 689 H 59.8561 -6.10504 -0.108125 0
M  V30 690 H 61.2701 -5.35882 2.03724 0
M  V30 691 H 59.6671 -5.29406 2.82577 0
M  V30 692 H 60.7371 -3.88272 2.9047 0
M  V30 693 N 62.0802 -0.821533 -1.34494 0
M  V30 694 C 63.3272 -0.408946 -1.98328 0
M  V30 695 C 63.6552 1.02764 -1.65136 0
M  V30 696 O 62.9102 1.73026 -0.914349 0
M  V30 697 C 63.2092 -0.556512 -3.53041 0
M  V30 698 C 62.8752 -1.95861 -4.0614 0
M  V30 699 C 61.5372 -2.34217 -4.20352 0
M  V30 700 C 63.8892 -2.87523 -4.34718 0
M  V30 701 C 61.2172 -3.63572 -4.6047 0
M  V30 702 C 63.5692 -4.1634 -4.76281 0
M  V30 703 C 62.2332 -4.54675 -4.88699 0
M  V30 704 H 61.5032 -0.149644 -0.725732 0
M  V30 705 H 64.1502 -1.04521 -1.6046 0
M  V30 706 H 62.4552 0.163148 -3.9146 0
M  V30 707 H 64.1522 -0.217826 -4.00408 0
M  V30 708 H 60.7422 -1.65066 -3.95539 0
M  V30 709 H 64.9262 -2.59133 -4.23277 0
M  V30 710 H 60.1822 -3.93101 -4.68275 0
M  V30 711 H 64.3562 -4.87455 -4.97354 0
M  V30 712 H 61.9832 -5.54959 -5.19542 0
M  V30 713 N 63.5583 1.46682 -0.576371 0
M  V30 714 C 64.4883 2.33028 0.148397 0
M  V30 715 C 65.4693 1.44961 0.889956 0
M  V30 716 O 66.6543 1.73789 0.866662 0
M  V30 717 C 63.7843 3.27117 1.1667 0
M  V30 718 C 62.7383 4.24575 0.540386 0
M  V30 719 C 62.0643 5.08126 1.6647 0
M  V30 720 C 63.3643 5.19722 -0.518331 0
M  V30 721 H 65.0583 2.93875 -0.572509 0
M  V30 722 H 62.6043 1.41315 -0.276768 0
M  V30 723 H 64.5573 3.86374 1.68204 0
M  V30 724 H 63.2813 2.64364 1.9178 0
M  V30 725 H 61.9403 3.66571 0.0461769 0
M  V30 726 H 61.5883 4.41762 2.40531 0
M  V30 727 H 61.2883 5.74122 1.25131 0
M  V30 728 H 62.8123 5.70246 2.18293 0
M  V30 729 H 64.2263 5.73232 -0.0883058 0
M  V30 730 H 62.6233 5.94026 -0.851679 0
M  V30 731 H 63.6933 4.64037 -1.40703 0
M  V30 732 N 65.0364 0.313813 1.54444 0
M  V30 733 C 66.2644 -0.293918 2.04802 0
M  V30 734 C 66.6794 -1.46537 1.19047 0
M  V30 735 O 66.0364 -1.81182 0.218939 0
M  V30 736 C 66.0874 -0.737806 3.53891 0
M  V30 737 O 65.8084 0.387038 4.36387 0
M  V30 738 C 67.3094 -1.40936 4.203 0
M  V30 739 H 64.5294 -0.0620057 0.668129 0
M  V30 740 H 67.0734 0.457169 1.99324 0
M  V30 741 H 65.2284 -1.43889 3.59687 0
M  V30 742 H 65.6424 0.0391274 5.24485 0
M  V30 743 H 67.1164 -1.67099 5.26101 0
M  V30 744 H 67.5934 -2.35355 3.70816 0
M  V30 745 H 68.1994 -0.751117 4.18615 0
M  V30 746 N 66.5145 -1.57545 0.0417849 0
M  V30 747 C 67.7605 -1.92601 -0.635021 0
M  V30 748 C 68.0935 -0.919627 -1.71045 0
M  V30 749 O 67.3685 0.0557892 -1.9442 0
M  V30 750 C 67.6515 -3.38085 -1.23979 0
M  V30 751 C 67.5045 -4.49467 -0.173057 0
M  V30 752 C 68.8235 -3.83776 -2.15416 0
M  V30 753 H 65.9425 -0.700397 -0.229374 0
M  V30 754 H 68.5845 -1.89728 0.101633 0
M  V30 755 H 66.7345 -3.40664 -1.86762 0
M  V30 756 H 68.4065 -4.59018 0.458312 0
M  V30 757 H 66.6495 -4.30909 0.499996 0
M  V30 758 H 67.3205 -5.48323 -0.636054 0
M  V30 759 H 69.7965 -3.83013 -1.62605 0
M  V30 760 H 68.6725 -4.8624 -2.54679 0
M  V30 761 H 68.9335 -3.19998 -3.05047 0
M  V30 762 N 67.9926 0.231505 -1.5589 0
M  V30 763 C 69.2696 0.981096 -1.69215 0
M  V30 764 C 69.6496 2.02799 -0.586164 0
M  V30 765 O 68.9976 2.24823 0.408253 0
M  V30 766 C 69.2076 1.60054 -3.10135 0
M  V30 767 C 70.5556 2.09658 -3.69227 0
M  V30 768 O 71.5796 1.69967 -3.13033 0
M  V30 769 O 70.4386 2.8258 -4.67772 0
M  V30 770 H 67.5326 0.457653 -0.688827 0
M  V30 771 H 70.0786 0.224073 -1.68214 0
M  V30 772 H 68.8506 0.844105 -3.82087 0
M  V30 773 H 68.4736 2.42336 -3.15212 0
M  V30 774 N 69.4707 1.49531 0.497807 0
M  V30 775 C 70.8817 1.52344 1.07927 0
M  V30 776 C 71.2327 0.311469 1.93712 0
M  V30 777 O 70.3577 -0.578405 2.08527 0
M  V30 778 C 70.9527 2.76062 1.96405 0
M  V30 779 C 69.5117 2.81643 2.49709 0
M  V30 780 C 68.6587 2.46299 1.27404 0
M  V30 781 H 71.6097 1.56182 0.281576 0
M  V30 782 H 71.6307 2.56405 2.81135 0
M  V30 783 H 71.1427 3.64254 1.33943 0
M  V30 784 H 69.2437 1.97739 3.15801 0
M  V30 785 H 69.3567 3.83891 2.86643 0
M  V30 786 H 67.7207 1.98148 1.60029 0
M  V30 787 H 68.5037 3.36769 0.66645 0
M  V30 788 N 70.9488 -0.749086 1.3866 0
M  V30 789 C 72.1788 -1.53611 1.38157 0
M  V30 790 C 72.5868 -1.89177 -0.0293595 0
M  V30 791 O 71.9298 -1.53606 -1.00752 0
M  V30 792 C 71.9918 -2.86087 2.17702 0
M  V30 793 C 71.6558 -2.73034 3.66472 0
M  V30 794 C 72.6528 -2.42526 4.59866 0
M  V30 795 C 70.3378 -2.90345 4.09884 0
M  V30 796 C 72.3318 -2.29492 5.94653 0
M  V30 797 C 70.0188 -2.7693 5.4475 0
M  V30 798 C 71.0168 -2.46547 6.36949 0
M  V30 799 O 70.7048 -2.33199 7.69333 0
M  V30 800 H 70.4368 -0.481773 0.474205 0
M  V30 801 H 72.9908 -0.934465 1.82912 0
M  V30 802 H 71.2208 -3.48458 1.67672 0
M  V30 803 H 72.9098 -3.47625 2.09551 0
M  V30 804 H 73.6758 -2.28816 4.27631 0
M  V30 805 H 69.5548 -3.1299 3.38464 0
M  V30 806 H 73.0988 -2.05698 6.66584 0
M  V30 807 H 68.9958 -2.90215 5.76581 0
M  V30 808 H 69.7638 -2.48376 7.79905 0
M  V30 809 N 72.4269 -1.23603 -0.977757 0
M  V30 810 C 73.3599 -0.962772 -2.06896 0
M  V30 811 C 74.3379 0.0998743 -1.62293 0
M  V30 812 O 75.5219 -0.0349421 -1.88468 0
M  V30 813 C 72.6489 -0.45095 -3.35685 0
M  V30 814 C 71.6949 -1.50061 -3.99229 0
M  V30 815 S 72.5279 -3.07884 -4.38142 0
M  V30 816 C 73.6839 -2.58378 -5.7008 0
M  V30 817 H 73.9169 -1.88677 -2.29757 0
M  V30 818 H 71.4499 -1.06876 -1.11431 0
M  V30 819 H 73.4079 -0.162261 -4.10179 0
M  V30 820 H 72.0689 0.452179 -3.10828 0
M  V30 821 H 71.2619 -1.09269 -4.92013 0
M  V30 822 H 70.8639 -1.73878 -3.31123 0
M  V30 823 H 73.1559 -2.00563 -6.47133 0
M  V30 824 H 74.0989 -3.49711 -6.15717 0
M  V30 825 H 74.5069 -1.99143 -5.28207 0
M  V30 826 N 73.905 1.17692 -1.04816 0
M  V30 827 C 75.321 1.39863 -0.768794 0
M  V30 828 C 75.521 1.91118 0.638451 0
M  V30 829 O 74.577 2.10036 1.40146 0
M  V30 830 C 75.89 2.39274 -1.82122 0
M  V30 831 C 77.438 2.52987 -1.843 0
M  V30 832 C 77.913 3.55669 -2.88555 0
M  V30 833 N 79.404 3.63183 -2.87493 0
M  V30 834 C 80.139 4.42381 -3.64811 0
M  V30 835 N 79.635 5.25125 -4.51903 0
M  V30 836 N 81.428 4.37217 -3.53267 0
M  V30 837 H 73.579 0.82752 -1.95617 0
M  V30 838 H 75.842 0.426123 -0.846831 0
M  V30 839 H 75.548 2.08678 -2.83102 0
M  V30 840 H 75.422 3.38725 -1.65967 0
M  V30 841 H 77.809 2.82896 -0.839869 0
M  V30 842 H 77.89 1.53623 -2.04532 0
M  V30 843 H 77.534 3.26499 -3.89051 0
M  V30 844 H 77.464 4.54728 -2.65575 0
M  V30 845 H 79.955 3.04103 -2.24343 0
M  V30 846 H 80.268 5.82728 -5.07591 0
M  V30 847 H 78.613 5.24519 -4.55966 0
M  V30 848 H 81.804 3.71626 -2.84625 0
M  V30 849 H 81.977 4.98696 -4.13771 0
M  V30 850 N 75.3831 0.828654 1.34056 0
M  V30 851 C 76.6291 0.42008 1.98402 0
M  V30 852 C 76.9621 -1.01564 1.65525 0
M  V30 853 O 76.2371 -1.70834 0.929831 0
M  V30 854 C 76.5201 0.62927 3.54559 0
M  V30 855 C 76.3731 2.11152 3.97159 0
M  V30 856 C 77.6921 0.0688756 4.40046 0
M  V30 857 H 74.8111 0.154104 0.720709 0
M  V30 858 H 77.4531 1.04228 1.5886 0
M  V30 859 H 75.6031 0.0996418 3.88372 0
M  V30 860 H 77.2751 2.70522 3.73651 0
M  V30 861 H 75.5181 2.59985 3.47261 0
M  V30 862 H 76.1891 2.20868 5.05887 0
M  V30 863 H 78.6651 0.521458 4.1282 0
M  V30 864 H 77.5411 0.245006 5.48353 0
M  V30 865 H 77.8021 -1.0266 4.30015 0
M  V30 866 N 76.8612 -1.46375 0.584142 0
M  V30 867 C 77.8242 -2.28784 -0.138108 0
M  V30 868 C 78.8242 -1.38471 -0.817462 0
M  V30 869 O 80.0142 -1.60833 -0.669199 0
M  V30 870 C 77.1462 -3.18892 -1.20503 0
M  V30 871 H 78.3392 -2.94117 0.586127 0
M  V30 872 H 75.8922 -1.52509 0.342171 0
M  V30 873 H 76.6272 -2.58309 -1.96079 0
M  V30 874 H 76.4122 -3.85388 -0.722384 0
M  V30 875 H 77.9022 -3.80914 -1.71155 0
M  V30 876 N 78.3393 -0.321999 -1.54275 0
M  V30 877 C 79.3023 0.531975 -2.22941 0
M  V30 878 C 80.3023 1.04478 -1.22234 0
M  V30 879 O 81.4923 0.937452 -1.46825 0
M  V30 880 C 78.6243 1.73874 -2.93224 0
M  V30 881 H 79.8173 -0.0682612 -2.99822 0
M  V30 882 H 77.3703 -0.0730644 -1.56129 0
M  V30 883 H 78.1053 2.37825 -2.20476 0
M  V30 884 H 77.8903 1.37847 -3.6707 0
M  V30 885 H 79.3803 2.34496 -3.45545 0
M  V30 886 N 79.8174 1.5752 -0.0501392 0
M  V30 887 C 80.7644 2.1147 0.924603 0
M  V30 888 C 81.7344 1.02182 1.30951 0
M  V30 889 O 82.9194 1.29723 1.39916 0
M  V30 890 C 80.0594 2.66337 2.19451 0
M  V30 891 C 79.1724 3.89708 1.86418 0
M  V30 892 C 78.3074 4.32893 3.07859 0
M  V30 893 C 77.3464 5.48967 2.70742 0
M  V30 894 N 76.4834 5.87211 3.84874 0
M  V30 895 H 81.3234 2.94465 0.457639 0
M  V30 896 H 78.8604 1.45531 0.214266 0
M  V30 897 H 80.8184 2.96247 2.93758 0
M  V30 898 H 79.4484 1.86141 2.63726 0
M  V30 899 H 78.5004 3.66396 1.02264 0
M  V30 900 H 79.8124 4.74074 1.55096 0
M  V30 901 H 78.9664 4.6435 3.90466 0
M  V30 902 H 77.7054 3.47336 3.42358 0
M  V30 903 H 76.7104 5.17183 1.86551 0
M  V30 904 H 77.9354 6.3624 2.37436 0
M  V30 905 H 75.8814 5.04607 4.19175 0
M  V30 906 H 75.7984 6.66266 3.57247 0
M  V30 907 H 77.0664 6.23282 4.68123 0
M  V30 908 N 81.2955 -0.223234 1.56011 0
M  V30 909 C 82.7115 -0.572856 1.48965 0
M  V30 910 C 82.9115 -1.87225 0.74492 0
M  V30 911 O 81.9675 -2.50899 0.283896 0
M  V30 912 C 83.2805 -0.653646 2.9351 0
M  V30 913 C 84.8285 -0.744386 3.0402 0
M  V30 914 C 85.3035 -0.856535 4.49919 0
M  V30 915 N 86.7945 -0.9208 4.53955 0
M  V30 916 C 87.5295 -1.02726 5.64123 0
M  V30 917 N 87.0255 -1.09777 6.84047 0
M  V30 918 N 88.8185 -1.06226 5.51971 0
M  V30 919 H 80.9695 0.629462 2.02858 0
M  V30 920 H 83.2325 0.220621 0.921971 0
M  V30 921 H 82.9385 0.231518 3.50937 0
M  V30 922 H 82.8125 -1.51781 3.45315 0
M  V30 923 H 85.1995 -1.61999 2.46658 0
M  V30 924 H 85.2805 0.14541 2.55386 0
M  V30 925 H 84.9245 0.0146069 5.07898 0
M  V30 926 H 84.8545 -1.76172 4.96257 0
M  V30 927 H 87.3455 -0.876694 3.6759 0
M  V30 928 H 87.6585 -1.17872 7.63758 0
M  V30 929 H 86.0035 -1.06693 6.86762 0
M  V30 930 H 89.1945 -1.00382 4.5721 0
M  V30 931 H 89.3675 -1.14177 6.37862 0
M  V30 932 N 82.7736 -1.49793 -0.48987 0
M  V30 933 C 83.7036 -1.70201 -1.59856 0
M  V30 934 C 84.6846 -0.55076 -1.60937 0
M  V30 935 O 85.8696 -0.787841 -1.77501 0
M  V30 936 C 82.9996 -1.77882 -2.98287 0
M  V30 937 C 81.9536 -2.92907 -3.12073 0
M  V30 938 C 81.2796 -2.85712 -4.51965 0
M  V30 939 C 82.5796 -4.3369 -2.91051 0
M  V30 940 H 84.2736 -2.63025 -1.43032 0
M  V30 941 H 81.8196 -1.26574 -0.686664 0
M  V30 942 H 83.7726 -1.90744 -3.75759 0
M  V30 943 H 82.4966 -0.816653 -3.16225 0
M  V30 944 H 81.1556 -2.79665 -2.37029 0
M  V30 945 H 80.8036 -1.8738 -4.66795 0
M  V30 946 H 80.5036 -3.62921 -4.62128 0
M  V30 947 H 82.0276 -3.00598 -5.31482 0
M  V30 948 H 83.4416 -4.47555 -3.58284 0
M  V30 949 H 81.8386 -5.12205 -3.12675 0
M  V30 950 H 82.9086 -4.47362 -1.87071 0
M  V30 951 N 84.2517 0.741722 -1.39055 0
M  V30 952 C 85.1987 1.85566 -1.37237 0
M  V30 953 C 86.1687 1.64457 -0.233072 0
M  V30 954 O 87.3537 1.85957 -0.427147 0
M  V30 955 C 84.4937 3.23004 -1.215 0
M  V30 956 C 83.6067 3.55864 -2.44918 0
M  V30 957 C 82.7417 4.82669 -2.21821 0
M  V30 958 C 81.7807 5.08351 -3.40948 0
M  V30 959 N 80.9177 6.26356 -3.17211 0
M  V30 960 H 85.7577 1.86455 -2.32462 0
M  V30 961 H 83.2947 0.911176 -1.15482 0
M  V30 962 H 85.2527 4.02331 -1.10389 0
M  V30 963 H 83.8827 3.21411 -0.29908 0
M  V30 964 H 82.9347 2.7129 -2.66657 0
M  V30 965 H 84.2467 3.70765 -3.33668 0
M  V30 966 H 83.4007 5.69962 -2.07914 0
M  V30 967 H 82.1397 4.69929 -1.30454 0
M  V30 968 H 81.1447 4.19522 -3.55361 0
M  V30 969 H 82.3697 5.22981 -4.33207 0
M  V30 970 H 80.3157 6.14917 -2.28502 0
M  V30 971 H 80.2327 6.41813 -3.99515 0
M  V30 972 H 81.5007 7.16506 -3.06984 0
M  V30 973 N 85.7298 1.2412 0.971189 0
M  V30 974 C 86.6398 1.04747 2.09917 0
M  V30 975 C 87.6558 -0.0107162 1.73997 0
M  V30 976 O 88.8318 0.186714 2.00533 0
M  V30 977 C 85.8968 0.650828 3.40537 0
M  V30 978 C 84.9578 1.7851 3.90426 0
M  V30 979 C 84.1908 1.40729 5.14812 0
M  V30 980 O 84.4138 0.29557 5.69634 0
M  V30 981 O 83.3478 2.23168 5.58999 0
M  V30 982 H 87.1738 1.99304 2.29154 0
M  V30 983 H 84.7588 1.02908 1.08307 0
M  V30 984 H 86.6408 0.440992 4.19086 0
M  V30 985 H 85.3158 -0.265649 3.22608 0
M  V30 986 H 84.2228 2.04966 3.12953 0
M  V30 987 H 85.5558 2.68023 4.12825 0
M  V30 988 N 87.2079 -1.17134 1.05439 0
M  V30 989 C 88.4559 -1.87085 0.764429 0
M  V30 990 C 88.7769 -1.81584 -0.710787 0
M  V30 991 O 88.0469 -1.24349 -1.51374 0
M  V30 992 H 86.6269 -0.692627 0.279779 0
M  V30 993 H 89.2889 -1.42087 1.33406 0
M  V30 994 H 88.3849 -2.92759 1.0816 0
M  V30 995 N 88.686 -0.835752 -1.33615 0
M  V30 996 C 89.963 -0.352017 -1.92406 0
M  V30 997 C 90.343 1.16225 -1.76224 0
M  V30 998 O 89.691 1.97526 -1.14873 0
M  V30 999 C 89.901 -0.795485 -3.39813 0
M  V30 1000 C 91.249 -0.801703 -4.16963 0
M  V30 1001 O 92.273 -0.738889 -3.48452 0
M  V30 1002 O 91.132 -0.886607 -5.3926 0
M  V30 1003 H 88.226 -0.0989641 -0.821057 0
M  V30 1004 H 90.772 -0.921397 -1.42507 0
M  V30 1005 H 89.544 -1.83795 -3.45449 0
M  V30 1006 H 89.167 -0.202505 -3.97084 0
M  V30 1007 N 90.1641 1.46063 -0.591896 0
M  V30 1008 C 91.3921 2.06717 -0.0868936 0
M  V30 1009 C 91.8071 1.43916 1.22203 0
M  V30 1010 O 91.1641 0.547698 1.74088 0
M  V30 1011 C 91.2151 3.6142 0.0758725 0
M  V30 1012 O 90.9361 4.21874 -1.18126 0
M  V30 1013 C 92.4371 4.39025 0.61416 0
M  V30 1014 H 89.6571 0.668162 -0.0616518 0
M  V30 1015 H 92.2011 1.8755 -0.815175 0
M  V30 1016 H 90.3561 3.79983 0.754413 0
M  V30 1017 H 90.7701 5.14861 -1.00092 0
M  V30 1018 H 92.2441 5.4783 0.677193 0
M  V30 1019 H 92.7211 4.07708 1.63312 0
M  V30 1020 H 93.3271 4.2529 -0.0298142 0
M  V30 1021 N 91.6422 0.330177 1.54103 0
M  V30 1022 C 92.5752 -0.575477 2.20825 0
M  V30 1023 C 93.5532 -1.11064 1.18758 0
M  V30 1024 O 94.7372 -1.17341 1.47524 0
M  V30 1025 C 91.8642 -1.79032 2.87516 0
M  V30 1026 C 90.9102 -1.38581 4.03358 0
M  V30 1027 S 91.7432 -0.416911 5.33875 0
M  V30 1028 C 92.8992 -1.63889 6.04062 0
M  V30 1029 H 93.1322 -0.00872114 2.97299 0
M  V30 1030 H 90.6652 0.114254 1.53977 0
M  V30 1031 H 92.6232 -2.48734 3.2656 0
M  V30 1032 H 91.2842 -2.32827 2.10832 0
M  V30 1033 H 90.4772 -2.29123 4.48908 0
M  V30 1034 H 90.0792 -0.768419 3.66021 0
M  V30 1035 H 92.3712 -2.57536 6.26643 0
M  V30 1036 H 93.3142 -1.22542 6.97416 0
M  V30 1037 H 93.7222 -1.82887 5.34053 0
M  V30 1038 N 93.1203 -1.57491 0.0584922 0
M  V30 1039 C 94.0533 -2.07533 -0.948969 0
M  V30 1040 C 95.0313 -0.977444 -1.29942 0
M  V30 1041 O 96.2153 -1.2499 -1.41102 0
M  V30 1042 C 93.3423 -2.52192 -2.2609 0
M  V30 1043 C 92.3883 -3.73287 -2.06298 0
M  V30 1044 S 93.2213 -5.18603 -1.33459 0
M  V30 1045 C 94.3773 -5.66583 -2.65959 0
M  V30 1046 H 94.6103 -2.92662 -0.523118 0
M  V30 1047 H 92.1433 -1.53631 -0.153954 0
M  V30 1048 H 94.1013 -2.78585 -3.01498 0
M  V30 1049 H 92.7623 -1.67356 -2.65802 0
M  V30 1050 H 91.9553 -4.0248 -3.03357 0
M  V30 1051 H 91.5573 -3.47199 -1.39029 0
M  V30 1052 H 93.8493 -5.72616 -3.62101 0
M  V30 1053 H 94.7923 -6.65684 -2.41393 0
M  V30 1054 H 95.2003 -4.94342 -2.72554 0
M  V30 1055 N 94.5984 0.214957 -1.56127 0
M  V30 1056 C 95.8464 0.936518 -1.79091 0
M  V30 1057 C 96.1674 1.84606 -0.628148 0
M  V30 1058 O 95.4374 1.92664 0.35462 0
M  V30 1059 H 94.0174 0.3488 -0.660566 0
M  V30 1060 H 96.6794 0.22523 -1.93594 0
M  V30 1061 H 95.7754 1.53943 -2.71492 0
M  V30 1062 N 96.0765 1.50051 0.48192 0
M  V30 1063 C 97.0085 1.64263 1.59844 0
M  V30 1064 C 98.0215 0.52451 1.54119 0
M  V30 1065 O 99.2105 0.797293 1.59704 0
M  V30 1066 C 96.3105 1.60102 2.98698 0
M  V30 1067 C 95.4835 2.87767 3.29407 0
M  V30 1068 C 94.5425 2.76397 4.47762 0
M  V30 1069 O 93.5685 3.50348 4.48603 0
M  V30 1070 N 94.7705 1.89222 5.48794 0
M  V30 1071 H 97.5355 2.60566 1.48073 0
M  V30 1072 H 95.0965 1.47379 0.670149 0
M  V30 1073 H 97.0885 1.50123 3.75826 0
M  V30 1074 H 95.6585 0.715798 3.04294 0
M  V30 1075 H 94.8785 3.11954 2.40994 0
M  V30 1076 H 96.1665 3.72365 3.4673 0
M  V30 1077 H 95.5645 1.28434 5.50928 0
M  V30 1078 H 94.1215 1.85154 6.24949 0
M  V30 1079 N 97.5546 -0.734337 1.39446 0
M  V30 1080 C 98.4866 -1.85861 1.34121 0
M  V30 1081 C 99.4996 -1.60871 0.249864 0
M  V30 1082 O 100.689 -1.71093 0.508865 0
M  V30 1083 C 97.7886 -3.21899 1.05991 0
M  V30 1084 C 96.9616 -3.74239 2.26415 0
M  V30 1085 C 96.0206 -4.88841 1.94733 0
M  V30 1086 O 95.0466 -5.02468 2.67422 0
M  V30 1087 N 96.2486 -5.73261 0.913884 0
M  V30 1088 H 99.0136 -1.90934 2.31007 0
M  V30 1089 H 96.5746 -0.915102 1.33557 0
M  V30 1090 H 98.5666 -3.96136 0.828147 0
M  V30 1091 H 97.1366 -3.12091 0.178361 0
M  V30 1092 H 96.3566 -2.91347 2.65539 0
M  V30 1093 H 97.6446 -4.05942 3.06738 0
M  V30 1094 H 97.0426 -5.64842 0.311476 0
M  V30 1095 H 95.5996 -6.47563 0.742015 0
M  V30 1096 N 99.0327 -1.24633 -0.964593 0
M  V30 1097 C 100.279 -1.08949 -1.71049 0
M  V30 1098 C 100.612 0.370302 -1.90637 0
M  V30 1099 O 99.8867 1.27349 -1.47011 0
M  V30 1100 C 100.17 -1.83329 -3.0994 0
M  V30 1101 C 100.023 -3.37077 -2.97824 0
M  V30 1102 C 101.342 -1.60846 -4.09654 0
M  V30 1103 H 98.4607 -0.397178 -0.620821 0
M  V30 1104 H 101.103 -1.5334 -1.12191 0
M  V30 1105 H 99.2527 -1.45597 -3.60186 0
M  V30 1106 H 100.925 -3.84425 -2.5498 0
M  V30 1107 H 99.1677 -3.65298 -2.33965 0
M  V30 1108 H 99.8387 -3.84324 -3.96231 0
M  V30 1109 H 102.315 -1.93674 -3.68279 0
M  V30 1110 H 101.191 -2.1534 -5.04896 0
M  V30 1111 H 101.452 -0.547434 -4.38698 0
M  V30 1112 N 100.511 1.16574 -1.06058 0
M  V30 1113 C 101.474 2.19085 -0.673392 0
M  V30 1114 C 102.474 1.5835 0.279648 0
M  V30 1115 O 103.664 1.74088 0.0623488 0
M  V30 1116 C 100.796 3.40899 0.00954234 0
M  V30 1117 H 101.989 2.54853 -1.58081 0
M  V30 1118 H 99.5418 1.30808 -0.855516 0
M  V30 1119 H 100.277 3.10684 0.929826 0
M  V30 1120 H 100.062 3.86233 -0.67573 0
M  V30 1121 H 101.552 4.1675 0.266245 0
M  V30 1122 N 101.989 0.842826 1.3317 0
M  V30 1123 C 102.936 0.276885 2.29133 0
M  V30 1124 C 103.906 -0.609527 1.54512 0
M  V30 1125 O 105.091 -0.546955 1.82792 0
M  V30 1126 C 102.231 -0.538707 3.40869 0
M  V30 1127 C 101.344 0.372169 4.30394 0
M  V30 1128 C 100.479 -0.454908 5.29249 0
M  V30 1129 C 99.5179 0.45411 6.10413 0
M  V30 1130 N 98.6549 -0.335075 7.013 0
M  V30 1131 H 103.495 1.10052 2.76934 0
M  V30 1132 H 101.032 0.554161 1.36262 0
M  V30 1133 H 102.99 -1.02709 4.0436 0
M  V30 1134 H 101.62 -1.32727 2.9425 0
M  V30 1135 H 100.672 0.97888 3.6759 0
M  V30 1136 H 101.984 1.0703 4.87182 0
M  V30 1137 H 101.138 -1.00695 5.98285 0
M  V30 1138 H 99.8769 -1.18646 4.73048 0
M  V30 1139 H 98.8819 1.01813 5.40291 0
M  V30 1140 H 100.107 1.18409 6.68697 0
M  V30 1141 H 98.0529 -1.04994 6.47543 0
M  V30 1142 H 97.9699 0.304262 7.55387 0
M  V30 1143 H 99.2379 -0.869224 7.74638 0
M  V30 1144 N 103.467 -1.45747 0.599634 0
M  V30 1145 C 104.713 -2.02592 0.0918643 0
M  V30 1146 C 105.046 -1.46806 -1.27128 0
M  V30 1147 O 104.321 -0.639658 -1.83681 0
M  V30 1148 C 104.604 -3.60073 0.0443398 0
M  V30 1149 C 104.457 -4.26208 1.43759 0
M  V30 1150 C 105.776 -4.35309 -0.647608 0
M  V30 1151 H 102.895 -0.736175 0.034857 0
M  V30 1152 H 105.537 -1.73694 0.770081 0
M  V30 1153 H 103.687 -3.84823 -0.533224 0
M  V30 1154 H 105.359 -4.12668 2.06162 0
M  V30 1155 H 103.602 -3.84916 2.00056 0
M  V30 1156 H 104.273 -5.35069 1.35665 0
M  V30 1157 H 106.749 -4.15805 -0.156776 0
M  V30 1158 H 105.625 -5.45038 -0.649942 0
M  V30 1159 H 105.886 -4.07598 -1.71219 0
M  V30 1160 N 104.945 -0.338344 -1.53925 0
M  V30 1161 C 106.191 0.260143 -2.01125 0
M  V30 1162 C 106.524 1.50617 -1.22589 0
M  V30 1163 O 105.799 1.91979 -0.312113 0
M  V30 1164 C 106.082 0.579499 -3.55407 0
M  V30 1165 C 105.935 -0.678264 -4.44657 0
M  V30 1166 C 107.254 1.39122 -4.17532 0
M  V30 1167 H 104.373 0.0930772 -0.731099 0
M  V30 1168 H 107.015 -0.457852 -1.84401 0
M  V30 1169 H 105.165 1.19118 -3.69788 0
M  V30 1170 H 106.837 -1.31631 -4.42121 0
M  V30 1171 H 105.08 -1.3042 -4.13731 0
M  V30 1172 H 105.751 -0.410143 -5.50474 0
M  V30 1173 H 108.227 0.874035 -4.06817 0
M  V30 1174 H 107.103 1.58342 -5.25565 0
M  V30 1175 H 107.364 2.39178 -3.71815 0
M  V30 1176 N 106.423 1.57458 -0.0668435 0
M  V30 1177 C 107.333 2.15937 0.916975 0
M  V30 1178 C 108.349 1.12123 1.33058 0
M  V30 1179 O 109.525 1.44366 1.40429 0
M  V30 1180 C 106.59 2.70547 2.16807 0
M  V30 1181 C 105.651 3.89215 1.81135 0
M  V30 1182 C 104.884 4.41211 3.0028 0
M  V30 1183 O 105.107 3.92225 4.14144 0
M  V30 1184 O 104.041 5.32605 2.80384 0
M  V30 1185 H 107.867 3.00354 0.449561 0
M  V30 1186 H 105.452 1.48584 0.155949 0
M  V30 1187 H 107.334 3.0557 2.90181 0
M  V30 1188 H 106.009 1.89192 2.62656 0
M  V30 1189 H 104.916 3.59054 1.05028 0
M  V30 1190 H 106.249 4.71848 1.40073 0
M  V30 1191 N 107.901 -0.206675 1.56239 0
M  V30 1192 C 109.126 -0.949474 1.8439 0
M  V30 1193 C 109.551 -1.76549 0.649016 0
M  V30 1194 O 108.909 -1.76782 -0.402231 0
M  V30 1195 C 108.957 -1.83078 3.10668 0
M  V30 1196 O 108.061 -2.9281 2.90407 0
M  V30 1197 H 107.402 -0.268033 0.607499 0
M  V30 1198 H 109.932 -0.215488 2.03462 0
M  V30 1199 H 109.942 -2.2377 3.41161 0
M  V30 1200 H 108.617 -1.23112 3.97261 0
M  V30 1201 H 107.194 -2.55956 2.71184 0
M  V30 1202 N 109.379 -1.50304 -0.473955 0
M  V30 1203 C 110.326 -1.68959 -1.57231 0
M  V30 1204 C 111.296 -0.530899 -1.57387 0
M  V30 1205 O 112.481 -0.761133 -1.74961 0
M  V30 1206 C 109.621 -1.7871 -2.95223 0
M  V30 1207 C 108.734 -3.06061 -3.04878 0
M  V30 1208 C 107.869 -3.06626 -4.33767 0
M  V30 1209 C 106.908 -4.28443 -4.37154 0
M  V30 1210 N 106.045 -4.26763 -5.5751 0
M  V30 1211 H 110.885 -2.6273 -1.40631 0
M  V30 1212 H 108.422 -1.30241 -0.683789 0
M  V30 1213 H 110.38 -1.82344 -3.75242 0
M  V30 1214 H 109.01 -0.883806 -3.10465 0
M  V30 1215 H 108.062 -3.11911 -2.17751 0
M  V30 1216 H 109.374 -3.96039 -3.0324 0
M  V30 1217 H 108.528 -3.08973 -5.22131 0
M  V30 1218 H 107.267 -2.14473 -4.3801 0
M  V30 1219 H 106.272 -4.2631 -3.47188 0
M  V30 1220 H 107.497 -5.2182 -4.34605 0
M  V30 1221 H 105.443 -3.37462 -5.62544 0
M  V30 1222 H 105.36 -5.10507 -5.57601 0
M  V30 1223 H 106.628 -4.33253 -6.48006 0
M  V30 1224 N 110.857 0.726932 -1.39834 0
M  V30 1225 C 111.805 1.86235 -1.39353 0
M  V30 1226 C 112.799 1.67144 -0.275555 0
M  V30 1227 O 114.005 1.74387 -0.44601 0
M  V30 1228 H 110.38 0.613174 -0.43534 0
M  V30 1229 H 112.351 1.83756 -2.35109 0
M  V30 1230 C 111.1 3.23995 -1.26185 0
M  V30 1231 H 110.423 3.39285 -2.11484 0
M  V30 1232 H 111.863 4.03609 -1.29907 0
M  V30 1233 C 110.322 3.36888 0.0290018 0
M  V30 1234 O 110.852 3.89152 0.99619 0
M  V30 1235 N 109.058 2.90446 0.0947437 0
M  V30 1236 H 108.605 2.48102 -0.693035 0
M  V30 1237 H 108.563 2.99451 0.957932 0
M  V30 1238 N 112.336 1.25143 0.95797 0
M  V30 1239 C 113.582 1.09855 1.70469 0
M  V30 1240 C 113.915 -0.360187 1.90831 0
M  V30 1241 O 113.19 -1.26568 1.47685 0
M  V30 1242 C 113.473 1.8497 3.08963 0
M  V30 1243 C 113.326 3.38652 2.96032 0
M  V30 1244 C 114.645 1.63016 4.08795 0
M  V30 1245 H 111.764 0.400465 0.618706 0
M  V30 1246 H 114.406 1.53933 1.11376 0
M  V30 1247 H 112.556 1.47505 3.59409 0
M  V30 1248 H 114.228 3.85772 2.52938 0
M  V30 1249 H 112.471 3.66534 2.32025 0
M  V30 1250 H 113.142 3.8642 3.94187 0
M  V30 1251 H 115.618 1.95625 3.67247 0
M  V30 1252 H 114.494 2.18015 5.03747 0
M  V30 1253 H 114.755 0.570692 4.38401 0
M  V30 1254 N 113.814 -1.1601 1.06675 0
M  V30 1255 C 114.777 -2.18724 0.685001 0
M  V30 1256 C 115.777 -1.58496 -0.271246 0
M  V30 1257 O 116.967 -1.74119 -0.0531156 0
M  V30 1258 C 114.099 -3.40899 0.00853648 0
M  V30 1259 H 115.292 -2.54011 1.59431 0
M  V30 1260 H 112.845 -1.30352 0.862441 0
M  V30 1261 H 113.58 -3.11173 -0.913337 0
M  V30 1262 H 113.365 -3.8587 0.696204 0
M  V30 1263 H 114.855 -4.16886 -0.24414 0
M  V30 1264 N 115.292 -0.849877 -1.32721 0
M  V30 1265 C 116.222 -0.306308 -2.31482 0
M  V30 1266 C 117.203 0.591952 -1.59468 0
M  V30 1267 O 118.388 0.513199 -1.87296 0
M  V30 1268 C 115.518 0.510204 -3.43532 0
M  V30 1269 C 114.472 -0.293209 -4.26994 0
M  V30 1270 C 113.798 0.647743 -5.30762 0
M  V30 1271 C 115.098 -1.51634 -4.99804 0
M  V30 1272 H 116.792 -1.13153 -2.77195 0
M  V30 1273 H 114.338 -0.545553 -1.33266 0
M  V30 1274 H 116.291 0.900856 -4.11658 0
M  V30 1275 H 115.015 1.36874 -2.96535 0
M  V30 1276 H 113.674 -0.665555 -3.60508 0
M  V30 1277 H 113.322 1.50299 -4.8002 0
M  V30 1278 H 113.022 0.11422 -5.87489 0
M  V30 1279 H 114.546 1.03567 -6.01753 0
M  V30 1280 H 115.96 -1.19824 -5.60638 0
M  V30 1281 H 114.357 -1.98745 -5.66234 0
M  V30 1282 H 115.427 -2.28018 -4.27943 0
M  V30 1283 N 116.77 1.45427 -0.607355 0
M  V30 1284 C 118.181 1.85756 -0.187535 0
M  V30 1285 C 118.532 1.5077 1.25551 0
M  V30 1286 O 117.657 0.93427 1.95193 0
M  V30 1287 C 118.252 3.37154 -0.333572 0
M  V30 1288 C 116.811 3.76387 0.0315542 0
M  V30 1289 C 115.958 2.69377 -0.658117 0
M  V30 1290 H 118.909 1.36231 -0.81405 0
M  V30 1291 H 118.93 3.78014 0.43428 0
M  V30 1292 H 118.442 3.62586 -1.38393 0
M  V30 1293 H 116.543 3.56571 1.0811 0
M  V30 1294 H 116.656 4.77731 -0.361935 0
M  V30 1295 H 115.02 2.5452 -0.0957873 0
M  V30 1296 H 115.803 2.97646 -1.7106 0
M  V30 1297 N 118.248 0.346503 1.53744 0
M  V30 1298 C 119.195 -0.508914 2.25119 0
M  V30 1299 C 120.165 -1.09315 1.25058 0
M  V30 1300 O 121.35 -1.12921 1.53797 0
M  V30 1301 C 118.49 -1.65246 3.02965 0
M  V30 1302 C 117.603 -1.09525 4.17886 0
M  V30 1303 C 116.738 -2.20634 4.83212 0
M  V30 1304 C 115.777 -1.62279 5.90196 0
M  V30 1305 N 114.914 -2.67143 6.49291 0
M  V30 1306 H 119.754 0.106283 2.9781 0
M  V30 1307 H 117.291 0.0642227 1.4696 0
M  V30 1308 H 119.249 -2.32574 3.4636 0
M  V30 1309 H 117.879 -2.2386 2.32565 0
M  V30 1310 H 116.931 -0.312818 3.79112 0
M  V30 1311 H 118.243 -0.628444 4.94825 0
M  V30 1312 H 117.397 -2.95821 5.29693 0
M  V30 1313 H 116.136 -2.70659 4.05703 0
M  V30 1314 H 115.141 -0.855989 5.43096 0
M  V30 1315 H 116.366 -1.13102 6.69615 0
M  V30 1316 H 114.312 -3.16417 5.74645 0
M  V30 1317 H 114.229 -2.25093 7.21713 0
M  V30 1318 H 115.497 -3.4209 7.00425 0
M  V30 1319 N 119.726 -1.57421 0.075193 0
M  V30 1320 C 120.974 -1.93236 -0.591974 0
M  V30 1321 C 121.295 -0.956241 -1.69944 0
M  V30 1322 O 120.565 -0.00494792 -1.95899 0
M  V30 1323 H 119.145 -0.713355 -0.22166 0
M  V30 1324 H 121.807 -1.9444 0.133848 0
M  V30 1325 H 120.903 -2.95131 -1.01509 0
M  V30 1326 N 121.204 0.198386 -1.56346 0
M  V30 1327 C 122.432 0.935572 -1.84539 0
M  V30 1328 C 122.847 1.76989 -0.657281 0
M  V30 1329 O 122.204 1.78626 0.374043 0
M  V30 1330 C 122.255 1.8344 -3.11499 0
M  V30 1331 O 121.976 1.03377 -4.25728 0
M  V30 1332 C 123.477 2.68355 -3.52846 0
M  V30 1333 H 120.697 0.273126 -0.612897 0
M  V30 1334 H 123.241 0.20663 -2.03453 0
M  V30 1335 H 121.396 2.51701 -2.94492 0
M  V30 1336 H 121.81 1.64599 -4.98003 0
M  V30 1337 H 123.284 3.27085 -4.44657 0
M  V30 1338 H 123.761 3.41901 -2.75681 0
M  V30 1339 H 124.367 2.05471 -3.72373 0
M  V30 1340 N 122.682 1.50554 0.465978 0
M  V30 1341 C 123.931 1.61038 1.21448 0
M  V30 1342 C 124.244 0.31865 1.92987 0
M  V30 1343 O 125.45 0.302469 2.6981 0
M  V30 1344 C 123.906 2.84283 2.20706 0
M  V30 1345 C 123.514 4.20352 1.54946 0
M  V30 1346 C 125.258 3.04115 2.96166 0
M  V30 1347 C 123.165 5.34778 2.5252 0
M  V30 1348 H 122.095 0.599718 0.457005 0
M  V30 1349 H 124.746 1.7699 0.484424 0
M  V30 1350 H 123.128 2.61901 2.97025 0
M  V30 1351 H 124.302 4.53008 0.843811 0
M  V30 1352 H 122.617 4.06167 0.917475 0
M  V30 1353 H 125.214 3.86774 3.69202 0
M  V30 1354 H 125.557 2.16045 3.55852 0
M  V30 1355 H 126.09 3.26702 2.26959 0
M  V30 1356 H 122.829 6.25018 1.97566 0
M  V30 1357 H 122.349 5.06534 3.21222 0
M  V30 1358 H 124.028 5.65561 3.14245 0
M  V30 1359 N 124.16 -0.719506 1.40217 0
M  V30 1360 C 125.406 -1.48152 1.38488 0
M  V30 1361 C 125.739 -1.94195 -0.0141867 0
M  V30 1362 O 125.014 -1.67884 -0.982096 0
M  V30 1363 C 125.297 -2.71035 2.37091 0
M  V30 1364 C 125.15 -2.30912 3.86005 0
M  V30 1365 C 126.469 -3.73182 2.33288 0
M  V30 1366 H 123.588 -0.537395 0.504357 0
M  V30 1367 H 126.23 -0.821472 1.71324 0
M  V30 1368 H 124.38 -3.27352 2.0922 0
M  V30 1369 H 126.052 -1.80107 4.24687 0
M  V30 1370 H 124.295 -1.62958 4.02029 0
M  V30 1371 H 124.966 -3.18978 4.50508 0
M  V30 1372 H 127.442 -3.26485 2.57966 0
M  V30 1373 H 126.318 -4.56806 3.04334 0
M  V30 1374 H 126.579 -4.21202 1.34317 0
M  V30 1375 N 125.638 -1.25649 -0.95132 0
M  V30 1376 C 126.568 -1.08808 -2.06599 0
M  V30 1377 C 127.549 0.00382547 -1.701 0
M  V30 1378 O 128.734 -0.166325 -1.93486 0
M  V30 1379 C 125.864 -0.709542 -3.39975 0
M  V30 1380 C 124.818 -1.75206 -3.90496 0
M  V30 1381 C 124.144 -1.22811 -5.20405 0
M  V30 1382 C 125.444 -3.15153 -4.16504 0
M  V30 1383 H 127.138 -2.02048 -2.20946 0
M  V30 1384 H 124.684 -0.972835 -1.06169 0
M  V30 1385 H 126.637 -0.578649 -4.17408 0
M  V30 1386 H 125.361 0.258556 -3.25575 0
M  V30 1387 H 124.02 -1.87145 -3.15234 0
M  V30 1388 H 123.668 -0.250145 -5.02378 0
M  V30 1389 H 123.368 -1.92492 -5.55176 0
M  V30 1390 H 124.892 -1.10968 -6.00432 0
M  V30 1391 H 126.306 -3.06349 -4.84586 0
M  V30 1392 H 124.703 -3.82333 -4.62538 0
M  V30 1393 H 125.773 -3.61966 -3.22658 0
M  V30 1394 N 127.117 1.15442 -1.07289 0
M  V30 1395 C 128.08 2.18358 -0.696591 0
M  V30 1396 C 129.08 1.58637 0.262837 0
M  V30 1397 O 130.27 1.74145 0.0438809 0
M  V30 1398 C 127.402 3.4089 -0.0266151 0
M  V30 1399 H 128.595 2.53162 -1.60776 0
M  V30 1400 H 126.148 1.29893 -0.869342 0
M  V30 1401 H 126.883 3.11653 0.896822 0
M  V30 1402 H 126.668 3.85495 -0.716657 0
M  V30 1403 H 128.158 4.17009 0.222028 0
M  V30 1404 N 128.595 0.856903 1.32268 0
M  V30 1405 C 129.82 0.474569 2.01897 0
M  V30 1406 C 130.245 -0.921766 1.63967 0
M  V30 1407 O 129.603 -1.60589 0.84148 0
M  V30 1408 C 129.651 0.623799 3.55164 0
M  V30 1409 O 128.755 -0.342459 4.10976 0
M  V30 1410 H 128.096 0.190422 0.63611 0
M  V30 1411 H 130.626 1.15672 1.68764 0
M  V30 1412 H 130.636 0.512169 4.04773 0
M  V30 1413 H 129.311 1.64202 3.82113 0
M  V30 1414 H 127.888 -0.18688 3.72431 0
M  V30 1415 N 130.073 -1.45103 0.615059 0
M  V30 1416 C 131.484 -1.85654 0.197383 0
M  V30 1417 C 131.835 -1.51433 -1.24749 0
M  V30 1418 O 130.96 -0.944608 -1.94695 0
M  V30 1419 C 131.555 -3.36972 0.351448 0
M  V30 1420 C 130.114 -3.76398 -0.011593 0
M  V30 1421 C 129.261 -2.69024 0.672394 0
M  V30 1422 H 132.212 -1.35797 0.821263 0
M  V30 1423 H 132.233 -3.78239 -0.414227 0
M  V30 1424 H 131.745 -3.61847 1.40314 0
M  V30 1425 H 129.846 -3.5714 -1.06217 0
M  V30 1426 H 129.959 -4.77532 0.387265 0
M  V30 1427 H 128.323 -2.54465 0.109284 0
M  V30 1428 H 129.106 -2.96735 1.72636 0
M  V30 1429 N 131.551 -0.354651 -1.53558 0
M  V30 1430 C 132.799 0.237972 -2.00694 0
M  V30 1431 C 133.12 1.50173 -1.24391 0
M  V30 1432 O 132.39 1.92673 -0.354135 0
M  V30 1433 H 130.97 0.0909256 -0.741446 0
M  V30 1434 H 133.632 -0.478368 -1.88938 0
M  V30 1435 H 132.728 0.47264 -3.085 0
M  V30 1436 N 133.029 1.57378 -0.0835403 0
M  V30 1437 C 134.275 1.95025 0.577664 0
M  V30 1438 C 134.63 0.964049 1.66505 0
M  V30 1439 O 133.923 -0.0118235 1.91596 0
M  V30 1440 C 134.117 3.37063 1.1884 0
M  V30 1441 C 133.946 4.49409 0.16171 0
M  V30 1442 C 132.716 5.04642 -0.257756 0
M  V30 1443 C 134.914 5.10722 -0.605634 0
M  V30 1444 N 132.896 6.00537 -1.27393 0
M  V30 1445 C 134.267 6.02225 -1.47395 0
M  V30 1446 C 136.322 4.93501 -0.660418 0
M  V30 1447 C 135.025 6.78355 -2.39221 0
M  V30 1448 C 137.051 5.70283 -1.56623 0
M  V30 1449 C 136.413 6.61444 -2.4222 0
M  V30 1450 H 132.512 0.760512 0.182058 0
M  V30 1451 H 135.096 1.94013 -0.163419 0
M  V30 1452 H 133.267 3.3879 1.89936 0
M  V30 1453 H 134.999 3.61917 1.81103 0
M  V30 1454 H 131.754 4.73428 0.127702 0
M  V30 1455 H 132.178 6.53184 -1.77987 0
M  V30 1456 H 136.82 4.22798 -0.0128221 0
M  V30 1457 H 134.538 7.48327 -3.05011 0
M  V30 1458 H 138.124 5.58976 -1.61361 0
M  V30 1459 H 137.004 7.1982 -3.11174 0
M  V30 1460 N 134.507 -0.190092 1.56449 0
M  V30 1461 C 135.735 -0.925772 1.85033 0
M  V30 1462 C 136.15 -1.76638 0.666658 0
M  V30 1463 O 135.507 -1.78822 -0.364565 0
M  V30 1464 C 135.558 -1.81786 3.12468 0
M  V30 1465 O 135.279 -1.01118 4.26271 0
M  V30 1466 C 136.78 -2.6648 3.54265 0
M  V30 1467 H 134 -0.269872 0.614337 0
M  V30 1468 H 136.544 -0.195837 2.0356 0
M  V30 1469 H 134.699 -2.50136 2.95822 0
M  V30 1470 H 135.113 -1.61956 4.98869 0
M  V30 1471 H 136.587 -3.24722 4.46385 0
M  V30 1472 H 137.064 -3.40434 2.77491 0
M  V30 1473 H 137.67 -2.03493 3.73458 0
M  V30 1474 N 135.985 -1.50799 -0.457987 0
M  V30 1475 C 137.213 -1.66218 -1.23203 0
M  V30 1476 C 137.628 -0.350894 -1.85511 0
M  V30 1477 O 136.985 0.668546 -1.69814 0
M  V30 1478 C 137.036 -2.76291 -2.33121 0
M  V30 1479 O 136.757 -4.02338 -1.73366 0
M  V30 1480 C 138.258 -3.028 -3.2377 0
M  V30 1481 H 135.478 -0.558361 -0.372121 0
M  V30 1482 H 138.022 -1.97099 -0.545179 0
M  V30 1483 H 136.177 -2.48068 -2.97558 0
M  V30 1484 H 136.591 -4.63312 -2.4585 0
M  V30 1485 H 138.065 -3.8345 -3.97077 0
M  V30 1486 H 138.542 -2.14385 -3.83322 0
M  V30 1487 H 139.148 -3.32604 -2.65056 0
M  V30 1488 N 137.463 0.71206 -1.40597 0
M  V30 1489 C 138.413 1.81783 -1.37619 0
M  V30 1490 C 139.397 1.58896 -0.253162 0
M  V30 1491 O 140.589 1.70009 -0.492547 0
M  V30 1492 C 137.718 3.19944 -1.24462 0
M  V30 1493 C 136.804 3.48582 -2.4156 0
M  V30 1494 N 137.195 3.48016 -3.67041 0
M  V30 1495 C 135.493 3.79056 -2.35016 0
M  V30 1496 C 136.194 3.75096 -4.44609 0
M  V30 1497 N 135.17 3.94022 -3.74497 0
M  V30 1498 H 138.972 1.79683 -2.32575 0
M  V30 1499 H 136.486 0.91134 -1.34419 0
M  V30 1500 H 138.483 3.99133 -1.20411 0
M  V30 1501 H 137.143 3.23267 -0.304762 0
M  V30 1502 H 138.154 3.28782 -4.00153 0
M  V30 1503 H 134.831 3.89848 -1.49415 0
M  V30 1504 H 136.221 3.80934 -5.53479 0
M  V30 1505 N 138.941 1.26152 0.944643 0
M  V30 1506 C 140.166 1.14363 1.7302 0
M  V30 1507 C 140.591 -0.29772 1.85729 0
M  V30 1508 O 139.949 -1.2157 1.34501 0
M  V30 1509 C 139.997 1.81378 3.11664 0
M  V30 1510 O 139.101 1.10022 3.97453 0
M  V30 1511 H 138.442 0.398694 0.53098 0
M  V30 1512 H 140.972 1.66906 1.18337 0
M  V30 1513 H 140.982 1.88064 3.62072 0
M  V30 1514 H 139.657 2.86237 3.0173 0
M  V30 1515 H 138.234 1.11287 3.55907 0
M  V30 1516 N 140.419 -1.14872 1.07899 0
M  V30 1517 C 141.668 -1.85135 0.800499 0
M  V30 1518 C 141.981 -1.83547 -0.676014 0
M  V30 1519 O 143.187 -2.49548 -1.06948 0
M  V30 1520 C 141.643 -3.3231 1.38197 0
M  V30 1521 C 141.251 -3.42329 2.8899 0
M  V30 1522 C 142.995 -4.0772 1.18174 0
M  V30 1523 C 140.902 -4.83684 3.403 0
M  V30 1524 H 139.832 -0.693563 0.29578 0
M  V30 1525 H 142.483 -1.29532 1.29976 0
M  V30 1526 H 140.865 -3.87618 0.810431 0
M  V30 1527 H 142.039 -2.97097 3.52236 0
M  V30 1528 H 140.354 -2.80369 3.07867 0
M  V30 1529 H 142.951 -5.12049 1.5398 0
M  V30 1530 H 143.294 -4.16124 0.12117 0
M  V30 1531 H 143.827 -3.58696 1.71994 0
M  V30 1532 H 140.566 -4.80465 4.45907 0
M  V30 1533 H 140.086 -5.29474 2.81811 0
M  V30 1534 H 141.765 -5.52558 3.36584 0
M  V30 1535 N 141.898 -0.863906 -1.31812 0
M  V30 1536 C 143.123 -0.48527 -2.01643 0
M  V30 1537 C 143.548 0.913058 -1.64453 0
M  V30 1538 O 142.906 1.6014 -0.849985 0
M  V30 1539 C 142.954 -0.642625 -3.54828 0
M  V30 1540 O 142.058 0.320659 -4.11151 0
M  V30 1541 H 141.399 -0.193793 -0.635091 0
M  V30 1542 H 143.929 -1.16565 -1.68148 0
M  V30 1543 H 143.939 -0.533628 -4.04495 0
M  V30 1544 H 142.614 -1.66227 -3.81237 0
M  V30 1545 H 141.191 0.167126 -3.72525 0
M  V30 1546 N 143.376 1.44774 -0.622745 0
M  V30 1547 C 144.653 1.95522 -0.0551974 0
M  V30 1548 C 145.033 1.5649 1.41683 0
M  V30 1549 O 144.381 0.834848 2.12703 0
M  V30 1550 C 144.591 3.4796 -0.269242 0
M  V30 1551 C 145.939 4.24306 -0.158014 0
M  V30 1552 O 146.963 3.55637 -0.200162 0
M  V30 1553 O 145.822 5.46471 -0.0558693 0
M  V30 1554 H 142.916 0.826556 0.0271015 0
M  V30 1555 H 145.462 1.54866 -0.693864 0
M  V30 1556 H 144.234 3.6939 -1.29099 0
M  V30 1557 H 143.857 3.95543 0.403966 0
M  V30 1558 N 144.854 0.36279 1.53368 0
M  V30 1559 C 146.102 -0.227326 2.00817 0
M  V30 1560 C 146.423 -1.49511 1.25186 0
M  V30 1561 O 145.693 -1.92482 0.364348 0
M  V30 1562 H 144.273 -0.0869923 0.741917 0
M  V30 1563 H 146.935 0.488381 1.88682 0
M  V30 1564 H 146.031 -0.456273 3.08747 0
M  V30 1565 N 146.332 -1.57332 0.0918853 0
M  V30 1566 C 147.279 -2.13847 -0.868211 0
M  V30 1567 C 148.249 -1.05618 -1.28196 0
M  V30 1568 O 149.434 -1.33387 -1.36427 0
M  V30 1569 C 146.574 -2.72062 -2.12312 0
M  V30 1570 C 145.687 -3.94514 -1.7602 0
M  V30 1571 C 144.822 -4.40903 -2.96273 0
M  V30 1572 C 143.861 -5.55953 -2.56092 0
M  V30 1573 N 142.998 -5.97209 -3.69169 0
M  V30 1574 H 147.838 -2.95575 -0.379406 0
M  V30 1575 H 145.375 -1.46048 -0.175606 0
M  V30 1576 H 147.333 -3.03931 -2.858 0
M  V30 1577 H 145.963 -1.93068 -2.58698 0
M  V30 1578 H 145.015 -3.68979 -0.925135 0
M  V30 1579 H 146.327 -4.7802 -1.42472 0
M  V30 1580 H 145.481 -4.74539 -3.78018 0
M  V30 1581 H 144.22 -3.56291 -3.33029 0
M  V30 1582 H 143.225 -5.21948 -1.72773 0
M  V30 1583 H 144.45 -6.42311 -2.20484 0
M  V30 1584 H 142.396 -5.15543 -4.05649 0
M  V30 1585 H 142.313 -6.75504 -3.39456 0
M  V30 1586 H 143.581 -6.35475 -4.51434 0
M  V30 1587 N 147.81 0.181792 -1.56548 0
M  V30 1588 C 149.087 0.926765 -1.72251 0
M  V30 1589 C 149.467 2.00831 -0.650386 0
M  V30 1590 O 148.815 2.26008 0.336521 0
M  V30 1591 C 149.025 1.50106 -3.1507 0
M  V30 1592 C 150.373 1.97805 -3.75711 0
M  V30 1593 O 151.397 1.59922 -3.18282 0
M  V30 1594 O 150.256 2.67555 -4.76525 0
M  V30 1595 H 147.35 0.435506 -0.703039 0
M  V30 1596 H 149.896 0.170443 -1.68842 0
M  V30 1597 H 148.668 0.72212 -3.84579 0
M  V30 1598 H 148.291 2.32186 -3.22763 0
M  V30 1599 N 149.288 1.51039 0.449983 0
M  V30 1600 C 150.218 1.74379 1.55288 0
M  V30 1601 C 151.199 0.593236 1.5942 0
M  V30 1602 O 152.384 0.834625 1.7535 0
M  V30 1603 C 149.514 1.85728 2.93466 0
M  V30 1604 C 148.468 3.01078 3.04197 0
M  V30 1605 C 147.794 2.97595 4.44231 0
M  V30 1606 C 149.094 4.41254 2.7945 0
M  V30 1607 H 150.788 2.66725 1.36008 0
M  V30 1608 H 148.334 1.2835 0.652864 0
M  V30 1609 H 150.287 2.0064 3.70569 0
M  V30 1610 H 149.011 0.900207 3.13949 0
M  V30 1611 H 147.67 2.85851 2.29531 0
M  V30 1612 H 147.318 1.99691 4.61663 0
M  V30 1613 H 147.018 3.75046 4.52343 0
M  V30 1614 H 148.542 3.14583 5.23326 0
M  V30 1615 H 149.956 4.56897 3.46292 0
M  V30 1616 H 148.353 5.20315 2.98985 0
M  V30 1617 H 149.423 4.52164 1.75144 0
M  V30 1618 N 150.766 -0.704594 1.40972 0
M  V30 1619 C 151.676 -1.84856 1.44448 0
M  V30 1620 C 152.692 -1.70726 0.335961 0
M  V30 1621 O 153.868 -1.92799 0.582276 0
M  V30 1622 C 150.933 -3.20758 1.31587 0
M  V30 1623 C 149.994 -3.47063 2.52677 0
M  V30 1624 C 149.227 -4.76481 2.4042 0
M  V30 1625 O 149.45 -5.52341 1.42391 0
M  V30 1626 O 148.384 -5.03367 3.30007 0
M  V30 1627 H 152.21 -1.8488 2.40942 0
M  V30 1628 H 149.795 -0.85647 1.22413 0
M  V30 1629 H 151.677 -4.01913 1.26665 0
M  V30 1630 H 150.352 -3.21438 0.382049 0
M  V30 1631 H 149.259 -2.65873 2.63177 0
M  V30 1632 H 150.592 -3.5119 3.44858 0
M  V30 1633 N 152.244 -1.26651 -0.937939 0
M  V30 1634 C 153.191 -1.0849 -2.03712 0
M  V30 1635 C 154.161 0.011033 -1.66096 0
M  V30 1636 O 155.346 -0.149353 -1.90215 0
M  V30 1637 C 152.486 -0.72735 -3.37348 0
M  V30 1638 C 151.599 -1.89986 -3.87981 0
M  V30 1639 C 150.734 -1.48513 -5.10017 0
M  V30 1640 C 149.773 -2.62575 -5.5292 0
M  V30 1641 N 148.91 -2.21762 -6.66158 0
M  V30 1642 H 153.75 -2.02551 -2.18579 0
M  V30 1643 H 151.287 -1.00844 -1.07093 0
M  V30 1644 H 153.245 -0.50092 -4.14182 0
M  V30 1645 H 151.875 0.176298 -3.22318 0
M  V30 1646 H 150.927 -2.23913 -3.07518 0
M  V30 1647 H 152.239 -2.75586 -4.15757 0
M  V30 1648 H 151.393 -1.21934 -5.94321 0
M  V30 1649 H 150.132 -0.60009 -4.83994 0
M  V30 1650 H 149.137 -2.8988 -4.67172 0
M  V30 1651 H 150.362 -3.51685 -5.80943 0
M  V30 1652 H 148.308 -1.35696 -6.41812 0
M  V30 1653 H 148.225 -3.00903 -6.93537 0
M  V30 1654 H 149.493 -1.98403 -7.53828 0
M  V30 1655 N 153.722 1.14298 -1.08507 0
M  V30 1656 C 154.652 2.21542 -0.737646 0
M  V30 1657 C 155.633 1.67773 0.280377 0
M  V30 1658 O 156.818 1.93616 0.150521 0
M  V30 1659 C 153.948 3.46988 -0.147259 0
M  V30 1660 C 152.902 4.13789 -1.09374 0
M  V30 1661 C 152.228 5.33449 -0.365524 0
M  V30 1662 C 153.528 4.62208 -2.4323 0
M  V30 1663 H 155.222 2.5086 -1.6343 0
M  V30 1664 H 152.768 1.20576 -0.787243 0
M  V30 1665 H 154.721 4.21262 0.107808 0
M  V30 1666 H 153.445 3.17037 0.784538 0
M  V30 1667 H 152.104 3.4147 -1.33393 0
M  V30 1668 H 151.752 4.99759 0.57011 0
M  V30 1669 H 151.452 5.79088 -0.996512 0
M  V30 1670 H 152.976 6.10485 -0.118534 0
M  V30 1671 H 154.39 5.27952 -2.23472 0
M  V30 1672 H 152.787 5.18553 -3.02031 0
M  V30 1673 H 153.857 3.77224 -3.04681 0
M  V30 1674 N 155.201 0.870884 1.31352 0
M  V30 1675 C 156.131 0.343096 2.30966 0
M  V30 1676 C 157.112 -0.566507 1.60389 0
M  V30 1677 O 158.297 -0.483336 1.88089 0
M  V30 1678 C 155.427 -0.455487 3.443 0
M  V30 1679 C 154.381 0.361103 4.26474 0
M  V30 1680 C 153.707 -0.563221 5.31725 0
M  V30 1681 C 155.007 1.59566 4.97329 0
M  V30 1682 H 156.701 1.17548 2.75359 0
M  V30 1683 H 154.247 0.566686 1.32381 0
M  V30 1684 H 156.2 -0.83525 4.13039 0
M  V30 1685 H 154.924 -1.32139 2.98675 0
M  V30 1686 H 153.583 0.722825 3.59403 0
M  V30 1687 H 153.231 -1.42643 4.82351 0
M  V30 1688 H 152.931 -0.0207409 5.87596 0
M  V30 1689 H 154.455 -0.939808 6.03324 0
M  V30 1690 H 155.869 1.28728 5.58661 0
M  V30 1691 H 154.266 2.07728 5.63 0
M  V30 1692 H 155.336 2.34798 4.24262 0
M  V30 1693 N 156.679 -1.44442 0.630414 0
M  V30 1694 C 157.907 -2.06414 0.141671 0
M  V30 1695 C 158.322 -1.47105 -1.18345 0
M  V30 1696 O 157.679 -0.593662 -1.72574 0
M  V30 1697 C 157.73 -3.61494 0.0199784 0
M  V30 1698 O 157.451 -4.18594 1.29269 0
M  V30 1699 C 158.952 -4.40499 -0.497544 0
M  V30 1700 H 156.172 -0.666292 0.0793452 0
M  V30 1701 H 158.716 -1.85323 0.864614 0
M  V30 1702 H 156.871 -3.8185 -0.653402 0
M  V30 1703 H 157.285 -5.12026 1.13707 0
M  V30 1704 H 158.759 -5.49433 -0.531708 0
M  V30 1705 H 159.236 -4.11895 -1.52445 0
M  V30 1706 H 159.842 -4.25061 0.142562 0
M  V30 1707 N 158.157 -0.370918 -1.53173 0
M  V30 1708 C 159.067 0.480823 -2.2962 0
M  V30 1709 C 160.083 1.08789 -1.35798 0
M  V30 1710 O 161.259 1.09768 -1.68858 0
M  V30 1711 C 158.324 1.60227 -3.07454 0
M  V30 1712 C 157.385 1.0222 -4.16953 0
M  V30 1713 C 156.618 2.0902 -4.91066 0
M  V30 1714 O 156.841 3.30222 -4.65091 0
M  V30 1715 O 155.775 1.71778 -5.76867 0
M  V30 1716 H 159.601 -0.141421 -3.03371 0
M  V30 1717 H 157.186 -0.135146 -1.48787 0
M  V30 1718 H 159.068 2.25417 -3.56041 0
M  V30 1719 H 157.743 2.20982 -2.36535 0
M  V30 1720 H 156.65 0.334064 -3.72605 0
M  V30 1721 H 157.983 0.459131 -4.90054 0
M  V30 1722 N 159.635 1.57281 -0.100228 0
M  V30 1723 C 160.881 1.95626 0.556946 0
M  V30 1724 C 161.236 0.981655 1.65473 0
M  V30 1725 O 160.529 0.00849847 1.91598 0
M  V30 1726 C 160.723 3.38305 1.15259 0
M  V30 1727 C 160.552 4.49555 0.114035 0
M  V30 1728 C 159.322 5.0434 -0.311266 0
M  V30 1729 C 161.52 5.10051 -0.659768 0
M  V30 1730 N 159.502 5.99152 -1.33755 0
M  V30 1731 C 160.873 6.00628 -1.53774 0
M  V30 1732 C 162.928 4.92772 -0.712723 0
M  V30 1733 C 161.631 6.7578 -2.46403 0
M  V30 1734 C 163.657 5.6859 -1.62663 0
M  V30 1735 C 163.019 6.58838 -2.49222 0
M  V30 1736 H 159.118 0.7624 0.173982 0
M  V30 1737 H 161.702 1.93829 -0.183988 0
M  V30 1738 H 159.873 3.40786 1.86332 0
M  V30 1739 H 161.605 3.63817 1.77254 0
M  V30 1740 H 158.36 4.73537 0.0774812 0
M  V30 1741 H 158.784 6.5126 -1.84905 0
M  V30 1742 H 163.426 4.22761 -0.0576648 0
M  V30 1743 H 161.144 7.4505 -3.12931 0
M  V30 1744 H 164.73 5.57233 -1.67281 0
M  V30 1745 H 163.61 7.16479 -3.18791 0
M  V30 1746 N 161.113 -0.173488 1.56642 0
M  V30 1747 C 162.524 -0.736155 1.71574 0
M  V30 1748 C 162.875 -1.82888 0.710389 0
M  V30 1749 O 162 -2.16017 -0.1287 0
M  V30 1750 C 162.595 -1.34211 3.11083 0
M  V30 1751 C 161.154 -1.85162 3.27707 0
M  V30 1752 C 160.301 -0.729765 2.67525 0
M  V30 1753 H 163.252 0.0518786 1.58615 0
M  V30 1754 H 163.273 -2.21178 3.09613 0
M  V30 1755 H 162.785 -0.546579 3.84232 0
M  V30 1756 H 160.886 -2.67366 2.59512 0
M  V30 1757 H 160.999 -1.99855 4.35425 0
M  V30 1758 H 159.363 -1.14965 2.27278 0
M  V30 1759 H 160.146 0.0538806 3.43258 0
M  V30 1760 N 162.591 -1.51276 -0.441967 0
M  V30 1761 C 163.868 -1.54252 -1.20273 0
M  V30 1762 C 164.248 -0.30408 -2.08898 0
M  V30 1763 O 163.596 0.711084 -2.17154 0
M  V30 1764 C 163.806 -2.85406 -2.00859 0
M  V30 1765 C 165.154 -3.37181 -2.58059 0
M  V30 1766 O 166.178 -2.86925 -2.11074 0
M  V30 1767 O 165.037 -4.24858 -3.43741 0
M  V30 1768 H 162.131 -0.619969 -0.547328 0
M  V30 1769 H 164.677 -1.63586 -0.451413 0
M  V30 1770 H 163.449 -3.67003 -1.35736 0
M  V30 1771 H 163.072 -2.79213 -2.83065 0
M  V30 1772 N 164.069 0.697108 -1.41344 0
M  V30 1773 C 165.297 1.48593 -1.43972 0
M  V30 1774 C 165.712 1.88747 -0.0445612 0
M  V30 1775 O 165.069 1.56682 0.935785 0
M  V30 1776 C 165.12 2.74946 -2.34706 0
M  V30 1777 O 164.841 2.36484 -3.68791 0
M  V30 1778 C 166.342 3.687 -2.46121 0
M  V30 1779 H 163.562 0.457964 -0.490418 0
M  V30 1780 H 166.106 0.858429 -1.8561 0
M  V30 1781 H 164.261 3.33937 -1.9638 0
M  V30 1782 H 164.675 3.17918 -4.17167 0
M  V30 1783 H 166.149 4.54145 -3.13777 0
M  V30 1784 H 166.626 4.13081 -1.49199 0
M  V30 1785 H 167.232 3.15613 -2.85076 0
M  V30 1786 N 165.547 1.27147 0.931209 0
M  V30 1787 C 166.796 1.12664 1.67302 0
M  V30 1788 C 167.109 -0.327718 1.92835 0
M  V30 1789 O 168.315 -0.593392 2.64936 0
M  V30 1790 C 166.771 1.9683 3.01307 0
M  V30 1791 C 166.379 3.46901 2.83485 0
M  V30 1792 C 168.123 1.90985 3.79111 0
M  V30 1793 C 166.03 4.23279 4.13024 0
M  V30 1794 H 164.96 0.41803 0.627509 0
M  V30 1795 H 167.611 1.51539 1.03481 0
M  V30 1796 H 165.993 1.50797 3.66164 0
M  V30 1797 H 167.167 4.00773 2.27415 0
M  V30 1798 H 165.482 3.54088 2.19113 0
M  V30 1799 H 168.079 2.45328 4.75098 0
M  V30 1800 H 168.422 0.882718 4.06834 0
M  V30 1801 H 168.955 2.34895 3.21044 0
M  V30 1802 H 165.694 5.26503 3.90481 0
M  V30 1803 H 165.214 3.74186 4.6877 0
M  V30 1804 H 166.893 4.32265 4.81411 0
M  V30 1805 N 167.025 -1.13721 1.09112 0
M  V30 1806 C 168.436 -1.6648 0.845068 0
M  V30 1807 C 168.787 -1.85911 -0.62701 0
M  V30 1808 O 167.912 -1.57556 -1.48341 0
M  V30 1809 C 168.507 -3.02413 1.52748 0
M  V30 1810 C 167.066 -3.52176 1.32849 0
M  V30 1811 C 166.213 -2.27492 1.58564 0
M  V30 1812 H 169.164 -0.976872 1.25072 0
M  V30 1813 H 169.185 -3.68223 0.958752 0
M  V30 1814 H 168.697 -2.88238 2.59885 0
M  V30 1815 H 166.798 -3.7156 0.278137 0
M  V30 1816 H 166.911 -4.32499 2.0611 0
M  V30 1817 H 165.275 -2.33923 1.00758 0
M  V30 1818 H 166.058 -2.15886 2.66924 0
M  V30 1819 N 168.503 -0.877838 -1.30888 0
M  V30 1820 C 169.433 -0.35534 -2.3078 0
M  V30 1821 C 170.414 0.557994 -1.60687 0
M  V30 1822 O 171.599 0.473355 -1.88343 0
M  V30 1823 C 168.729 0.437221 -3.44537 0
M  V30 1824 C 167.683 -0.383715 -4.26276 0
M  V30 1825 C 167.009 0.535014 -5.32017 0
M  V30 1826 C 168.309 -1.62201 -4.96476 0
M  V30 1827 H 170.003 -1.19007 -2.74732 0
M  V30 1828 H 167.549 -0.573698 -1.32078 0
M  V30 1829 H 169.502 0.813334 -4.13477 0
M  V30 1830 H 168.226 1.30553 -2.99372 0
M  V30 1831 H 166.885 -0.741874 -3.59015 0
M  V30 1832 H 166.533 1.40083 -4.831 0
M  V30 1833 H 166.233 -0.0104211 -5.87599 0
M  V30 1834 H 167.757 0.907799 -6.03814 0
M  V30 1835 H 169.171 -1.31689 -5.5797 0
M  V30 1836 H 167.568 -2.10711 -5.61891 0
M  V30 1837 H 168.638 -2.37044 -4.23011 0
M  V30 1838 N 169.982 1.44106 -0.638065 0
M  V30 1839 C 171.207 2.0685 -0.150916 0
M  V30 1840 C 171.632 1.47417 1.16833 0
M  V30 1841 O 170.99 0.578264 1.71831 0
M  V30 1842 C 171.038 3.60555 -0.05708 0
M  V30 1843 O 170.142 4.00465 0.984972 0
M  V30 1844 H 169.483 0.658151 -0.0879399 0
M  V30 1845 H 172.013 1.84865 -0.876707 0
M  V30 1846 H 172.023 4.07789 0.131232 0
M  V30 1847 H 170.698 4.03193 -1.02021 0
M  V30 1848 H 169.275 3.64849 0.770672 0
M  V30 1849 N 171.46 0.379036 1.52974 0
M  V30 1850 C 172.39 -0.452706 2.29069 0
M  V30 1851 C 173.371 -1.07237 1.32039 0
M  V30 1852 O 174.556 -1.08708 1.60923 0
M  V30 1853 C 171.686 -1.5856 3.08992 0
M  V30 1854 C 170.64 -1.0925 4.13822 0
M  V30 1855 C 169.966 -2.31668 4.81907 0
M  V30 1856 C 171.266 -0.167702 5.22031 0
M  V30 1857 H 172.96 0.182181 2.98845 0
M  V30 1858 H 170.506 0.0890592 1.43724 0
M  V30 1859 H 172.459 -2.1742 3.6098 0
M  V30 1860 H 171.183 -2.24792 2.36931 0
M  V30 1861 H 169.842 -0.526494 3.628 0
M  V30 1862 H 169.49 -2.96386 4.06404 0
M  V30 1863 H 169.19 -1.9934 5.52754 0
M  V30 1864 H 170.714 -2.91189 5.36695 0
M  V30 1865 H 172.128 -0.664186 5.6944 0
M  V30 1866 H 170.525 0.0653265 6.00064 0
M  V30 1867 H 171.595 0.786347 4.78482 0
M  V30 1868 N 172.938 -1.57226 0.108567 0
M  V30 1869 C 173.901 -2.13602 -0.831082 0
M  V30 1870 C 174.901 -1.06841 -1.20173 0
M  V30 1871 O 176.091 -1.32666 -1.12895 0
M  V30 1872 C 173.223 -2.66769 -2.12243 0
M  V30 1873 H 174.416 -2.97951 -0.341317 0
M  V30 1874 H 171.969 -1.55667 -0.14057 0
M  V30 1875 H 172.704 -1.85977 -2.65675 0
M  V30 1876 H 172.489 -3.44839 -1.86625 0
M  V30 1877 H 173.979 -3.10332 -2.79435 0
M  V30 1878 N 174.416 0.165178 -1.56732 0
M  V30 1879 C 175.346 1.20651 -1.99914 0
M  V30 1880 C 176.327 1.45827 -0.875705 0
M  V30 1881 O 177.512 1.57057 -1.14223 0
M  V30 1882 C 174.642 2.54401 -2.36427 0
M  V30 1883 C 173.596 2.43782 -3.51787 0
M  V30 1884 C 172.922 3.82078 -3.7406 0
M  V30 1885 C 174.222 1.93732 -4.85041 0
M  V30 1886 H 175.916 0.847534 -2.87154 0
M  V30 1887 H 173.462 0.40625 -1.38151 0
M  V30 1888 H 175.415 3.27458 -2.65234 0
M  V30 1889 H 174.139 2.92098 -1.46103 0
M  V30 1890 H 172.798 1.73178 -3.23117 0
M  V30 1891 H 172.446 4.17179 -2.81017 0
M  V30 1892 H 172.146 3.7584 -4.51684 0
M  V30 1893 H 173.67 4.56712 -4.05274 0
M  V30 1894 H 175.084 2.56569 -5.12684 0
M  V30 1895 H 173.481 1.98428 -5.66345 0
M  V30 1896 H 174.551 0.891962 -4.76626 0
M  V30 1897 N 175.894 1.51508 0.433938 0
M  V30 1898 C 177.142 1.6402 1.18075 0
M  V30 1899 C 177.463 0.360328 1.91642 0
M  V30 1900 O 176.733 -0.623945 1.85698 0
M  V30 1901 H 175.313 0.6045 0.43885 0
M  V30 1902 H 177.975 1.88452 0.497178 0
M  V30 1903 H 177.071 2.46949 1.90847 0
M  V30 1904 N 177.372 -0.689602 1.41712 0
M  V30 1905 C 178.6 -1.47827 1.44758 0
M  V30 1906 C 179.015 -1.88721 0.0545703 0
M  V30 1907 O 178.372 -1.57176 -0.927463 0
M  V30 1908 C 178.423 -2.73698 2.3616 0
M  V30 1909 O 178.144 -2.34524 3.7004 0
M  V30 1910 C 179.645 -3.67389 2.48072 0
M  V30 1911 H 176.865 -0.455357 0.49284 0
M  V30 1912 H 179.409 -0.848574 1.86063 0
M  V30 1913 H 177.564 -3.32891 1.98148 0
M  V30 1914 H 177.978 -3.15701 4.18847 0
M  V30 1915 H 179.452 -4.52475 3.16181 0
M  V30 1916 H 179.929 -4.12284 1.51388 0
M  V30 1917 H 180.535 -3.14097 2.86746 0
M  V30 1918 N 178.85 -1.27639 -0.924453 0
M  V30 1919 C 180.096 -1.14336 -1.67497 0
M  V30 1920 C 180.429 0.309465 -1.91718 0
M  V30 1921 O 179.704 1.22608 -1.50989 0
M  V30 1922 C 179.987 -1.93096 -3.0395 0
M  V30 1923 C 179.84 -3.46381 -2.8695 0
M  V30 1924 C 181.159 -1.73798 -4.0433 0
M  V30 1925 H 178.278 -0.416728 -0.607871 0
M  V30 1926 H 180.92 -1.56832 -1.07256 0
M  V30 1927 H 179.07 -1.56982 -3.55372 0
M  V30 1928 H 180.742 -3.92343 -2.42621 0
M  V30 1929 H 178.985 -3.72557 -2.22225 0
M  V30 1930 H 179.656 -3.96735 -3.83804 0
M  V30 1931 H 182.132 -2.05293 -3.61931 0
M  V30 1932 H 181.008 -2.31294 -4.97789 0
M  V30 1933 H 181.269 -0.686725 -4.36734 0
M  V30 1934 N 180.328 1.1314 -1.09713 0
M  V30 1935 C 181.576 1.84119 -0.833338 0
M  V30 1936 C 181.897 1.84097 0.642904 0
M  V30 1937 O 181.167 1.29881 1.46655 0
M  V30 1938 H 179.747 0.681766 -0.305293 0
M  V30 1939 H 182.409 1.37038 -1.38588 0
M  V30 1940 H 181.505 2.88543 -1.18951 0
M  V30 1941 N 181.806 0.884767 1.30421 0
M  V30 1942 C 182.739 0.295999 2.26272 0
M  V30 1943 C 183.717 -0.58332 1.51777 0
M  V30 1944 O 184.901 -0.53346 1.80794 0
M  V30 1945 C 182.028 -0.57944 3.33707 0
M  V30 1946 C 181.074 0.230525 4.25877 0
M  V30 1947 S 181.907 1.61867 5.1045 0
M  V30 1948 C 183.063 0.749756 6.21393 0
M  V30 1949 H 183.296 1.10848 2.75862 0
M  V30 1950 H 180.829 0.684178 1.38414 0
M  V30 1951 H 182.787 -1.07879 3.96071 0
M  V30 1952 H 181.448 -1.36601 2.82841 0
M  V30 1953 H 180.641 -0.437542 5.02097 0
M  V30 1954 H 180.243 0.662493 3.68086 0
M  V30 1955 H 182.535 -0.0333547 6.77492 0
M  V30 1956 H 183.478 1.48356 6.92384 0
M  V30 1957 H 183.886 0.310751 5.63644 0
M  V30 1958 N 183.284 -1.43765 0.645699 0
M  V30 1959 C 184.695 -1.85193 0.236719 0
M  V30 1960 C 185.046 -1.54045 -1.21509 0
M  V30 1961 O 184.171 -0.985694 -1.92647 0
M  V30 1962 C 184.766 -3.36151 0.422845 0
M  V30 1963 C 183.325 -3.76338 0.0682492 0
M  V30 1964 C 182.472 -2.67538 0.729306 0
M  V30 1965 H 185.423 -1.34025 0.849883 0
M  V30 1966 H 185.444 -3.79032 -0.333904 0
M  V30 1967 H 184.956 -3.5879 1.47958 0
M  V30 1968 H 183.057 -3.59312 -0.986179 0
M  V30 1969 H 183.17 -4.76603 0.488469 0
M  V30 1970 H 181.534 -2.54176 0.163235 0
M  V30 1971 H 182.317 -2.93006 1.78892 0
M  V30 1972 N 184.763 -0.387143 -1.52771 0
M  V30 1973 C 186.011 0.195349 -2.01154 0
M  V30 1974 C 186.332 1.475 -1.27549 0
M  V30 1975 O 185.602 1.91878 -0.394924 0
M  V30 1976 H 184.182 0.075178 -0.743207 0
M  V30 1977 H 186.844 -0.518337 -1.87881 0
M  V30 1978 H 185.94 0.407096 -3.09434 0
M  V30 1979 N 186.241 1.57166 -0.116904 0
M  V30 1980 C 187.171 2.18222 0.830759 0
M  V30 1981 C 188.152 1.12167 1.27877 0
M  V30 1982 O 189.337 1.40394 1.34176 0
M  V30 1983 C 186.467 2.77996 2.08172 0
M  V30 1984 C 185.421 3.89614 1.77157 0
M  V30 1985 C 184.747 4.36187 3.09265 0
M  V30 1986 C 186.047 5.1181 1.04151 0
M  V30 1987 H 187.741 2.97664 0.321992 0
M  V30 1988 H 185.287 1.4318 0.153434 0
M  V30 1989 H 187.24 3.19366 2.74924 0
M  V30 1990 H 185.964 1.9584 2.6137 0
M  V30 1991 H 184.623 3.48816 1.12796 0
M  V30 1992 H 184.271 3.50893 3.60393 0
M  V30 1993 H 183.971 5.11455 2.89288 0
M  V30 1994 H 185.495 4.80207 3.77139 0
M  V30 1995 H 186.909 5.50214 1.61052 0
M  V30 1996 H 185.306 5.92648 0.942762 0
M  V30 1997 H 186.376 4.84892 0.0279022 0
M  V30 1998 N 187.719 -0.156864 1.56817 0
M  V30 1999 C 188.947 -0.886316 1.86955 0
M  V30 2000 C 189.362 -1.75185 0.703975 0
M  V30 2001 O 188.719 -1.79555 -0.326552 0
M  V30 2002 C 188.77 -1.75117 3.16253 0
M  V30 2003 O 188.491 -0.920537 4.2832 0
M  V30 2004 C 189.992 -2.58905 3.59837 0
M  V30 2005 H 187.212 -0.25678 0.619923 0
M  V30 2006 H 189.756 -0.152615 2.0393 0
M  V30 2007 H 187.911 -2.43805 3.01062 0
M  V30 2008 H 188.325 -1.51337 5.02192 0
M  V30 2009 H 189.799 -3.1518 4.53172 0
M  V30 2010 H 190.276 -3.34472 2.84649 0
M  V30 2011 H 190.882 -1.95526 3.7769 0
M  V30 2012 N 189.197 -1.51736 -0.425897 0
M  V30 2013 C 190.16 -1.73271 -1.50032 0
M  V30 2014 C 191.16 -0.602639 -1.4908 0
M  V30 2015 O 192.35 -0.87033 -1.509 0
M  V30 2016 C 189.482 -1.79969 -2.89523 0
M  V30 2017 H 190.675 -2.69172 -1.32237 0
M  V30 2018 H 188.228 -1.41899 -0.65532 0
M  V30 2019 H 188.963 -0.859241 -3.1271 0
M  V30 2020 H 188.748 -2.62109 -2.91619 0
M  V30 2021 H 190.238 -1.9843 -3.67444 0
M  V30 2022 N 190.675 0.682077 -1.42076 0
M  V30 2023 C 191.905 1.46844 -1.45329 0
M  V30 2024 C 192.313 1.89102 -0.0609328 0
M  V30 2025 O 191.656 1.58238 0.933082 0
M  V30 2026 C 191.718 2.75375 -2.31104 0
M  V30 2027 C 191.382 2.55238 -3.79081 0
M  V30 2028 C 192.379 2.20309 -4.70914 0
M  V30 2029 C 190.064 2.70459 -4.2327 0
M  V30 2030 C 192.058 2.00859 -6.04925 0
M  V30 2031 C 189.745 2.50624 -5.57343 0
M  V30 2032 C 190.743 2.15876 -6.47986 0
M  V30 2033 O 190.431 1.96227 -7.79583 0
M  V30 2034 H 190.163 0.4586 -0.496651 0
M  V30 2035 H 192.717 0.846131 -1.87162 0
M  V30 2036 H 190.947 3.40061 -1.84107 0
M  V30 2037 H 192.636 3.37231 -2.25898 0
M  V30 2038 H 193.402 2.08153 -4.38061 0
M  V30 2039 H 189.281 2.96485 -3.53012 0
M  V30 2040 H 192.825 1.7366 -6.75639 0
M  V30 2041 H 188.722 2.62375 -5.89771 0
M  V30 2042 H 189.49 2.10883 -7.90867 0
M  V30 2043 N 192.153 1.28127 0.917671 0
M  V30 2044 C 193.4 1.15052 1.66641 0
M  V30 2045 C 193.728 -0.301677 1.92146 0
M  V30 2046 O 192.983 -1.23622 1.51711 0
M  V30 2047 C 193.282 1.89018 3.03327 0
M  V30 2048 C 192.948 3.38832 2.97496 0
M  V30 2049 C 191.61 3.79693 2.95613 0
M  V30 2050 C 193.962 4.34378 2.88036 0
M  V30 2051 C 191.29 5.14447 2.82066 0
M  V30 2052 C 193.642 5.69201 2.7603 0
M  V30 2053 C 192.306 6.09343 2.72502 0
M  V30 2054 H 191.576 0.421006 0.609783 0
M  V30 2055 H 194.223 1.58855 1.06945 0
M  V30 2056 H 192.528 1.37752 3.66785 0
M  V30 2057 H 194.225 1.76321 3.60156 0
M  V30 2058 H 190.815 3.06342 2.99754 0
M  V30 2059 H 194.999 4.03775 2.88581 0
M  V30 2060 H 190.255 5.44681 2.77728 0
M  V30 2061 H 194.429 6.42901 2.67678 0
M  V30 2062 H 192.056 7.13712 2.61762 0
M  V30 2063 N 193.631 -1.12557 1.10312 0
M  V30 2064 C 194.879 -1.83675 0.843091 0
M  V30 2065 C 195.2 -1.84435 -0.633131 0
M  V30 2066 O 194.47 -1.30657 -1.45964 0
M  V30 2067 H 193.05 -0.680138 0.308904 0
M  V30 2068 H 195.712 -1.36301 1.39313 0
M  V30 2069 H 194.808 -2.87908 1.2048 0
M  V30 2070 N 195.109 -0.891671 -1.2995 0
M  V30 2071 C 196.039 -0.379797 -2.30391 0
M  V30 2072 C 197.02 0.540919 -1.6127 0
M  V30 2073 O 198.205 0.453352 -1.88834 0
M  V30 2074 C 195.335 0.400654 -3.44981 0
M  V30 2075 C 194.289 -0.428905 -4.25846 0
M  V30 2076 C 193.615 0.478557 -5.32554 0
M  V30 2077 C 194.915 -1.67458 -4.94727 0
M  V30 2078 H 196.609 -1.21914 -2.73454 0
M  V30 2079 H 194.155 -0.587675 -1.31462 0
M  V30 2080 H 196.108 0.769434 -4.14316 0
M  V30 2081 H 194.832 1.27371 -3.0074 0
M  V30 2082 H 193.491 -0.779911 -3.58208 0
M  V30 2083 H 193.139 1.34951 -4.84559 0
M  V30 2084 H 192.839 -0.0727433 -5.87555 0
M  V30 2085 H 194.363 0.843705 -6.04743 0
M  V30 2086 H 195.777 -1.376 -5.56542 0
M  V30 2087 H 194.174 -2.16659 -5.59624 0
M  V30 2088 H 195.244 -2.41518 -4.20473 0
M  V30 2089 N 196.587 1.43421 -0.653314 0
M  V30 2090 C 197.517 2.33487 0.0246656 0
M  V30 2091 C 198.498 1.49475 0.811863 0
M  V30 2092 O 199.683 1.78139 0.773322 0
M  V30 2093 C 196.813 3.32841 0.99166 0
M  V30 2094 C 195.767 4.26842 0.314568 0
M  V30 2095 C 195.093 5.16236 1.39302 0
M  V30 2096 C 196.393 5.16243 -0.793095 0
M  V30 2097 H 198.087 2.90427 -0.727481 0
M  V30 2098 H 195.633 1.39649 -0.351287 0
M  V30 2099 H 197.586 3.94747 1.47487 0
M  V30 2100 H 196.31 2.74158 1.77497 0
M  V30 2101 H 194.969 3.663 -0.148199 0
M  V30 2102 H 194.617 4.53891 2.16776 0
M  V30 2103 H 194.317 5.79948 0.945223 0
M  V30 2104 H 195.841 5.81015 1.87759 0
M  V30 2105 H 197.255 5.71958 -0.392039 0
M  V30 2106 H 195.652 5.88676 -1.16536 0
M  V30 2107 H 196.722 4.55927 -1.65103 0
M  V30 2108 N 198.065 0.39524 1.52563 0
M  V30 2109 C 198.975 -0.444232 2.30356 0
M  V30 2110 C 199.991 -1.06615 1.37511 0
M  V30 2111 O 201.167 -1.07067 1.70583 0
M  V30 2112 C 198.232 -1.55315 3.09964 0
M  V30 2113 C 197.293 -0.955734 4.18526 0
M  V30 2114 C 196.526 -2.01181 4.9433 0
M  V30 2115 O 196.749 -3.22781 4.70285 0
M  V30 2116 O 195.683 -1.62579 5.79527 0
M  V30 2117 H 199.509 0.189667 3.03107 0
M  V30 2118 H 197.094 0.1588 1.48554 0
M  V30 2119 H 198.976 -2.19724 3.59582 0
M  V30 2120 H 197.651 -2.17191 2.4002 0
M  V30 2121 H 196.558 -0.274743 3.7309 0
M  V30 2122 H 197.891 -0.381109 4.90722 0
M  V30 2123 N 199.544 -1.57102 0.125237 0
M  V30 2124 C 200.793 -1.94582 -0.531095 0
M  V30 2125 C 201.106 -1.01126 -1.6743 0
M  V30 2126 O 202.312 -1.28097 -2.39381 0
M  V30 2127 C 200.768 -3.45839 -0.996164 0
M  V30 2128 C 200.376 -4.47842 0.118926 0
M  V30 2129 C 202.12 -3.92227 -1.62352 0
M  V30 2130 C 200.027 -5.90284 -0.363192 0
M  V30 2131 H 198.957 -0.726391 -0.20217 0
M  V30 2132 H 201.608 -1.82339 0.206092 0
M  V30 2133 H 199.99 -3.53338 -1.78796 0
M  V30 2134 H 201.164 -4.52018 0.895358 0
M  V30 2135 H 199.479 -4.11243 0.653324 0
M  V30 2136 H 202.076 -4.96069 -1.99548 0
M  V30 2137 H 202.419 -3.32552 -2.50429 0
M  V30 2138 H 202.952 -3.87554 -0.897019 0
M  V30 2139 H 199.691 -6.53728 0.481679 0
M  V30 2140 H 199.211 -5.89515 -1.10597 0
M  V30 2141 H 200.89 -6.41752 -0.822377 0
M  V30 2142 N 201.022 0.148545 -1.56898 0
M  V30 2143 C 202.262 0.86765 -1.85071 0
M  V30 2144 C 202.626 1.78417 -0.709317 0
M  V30 2145 O 203.827 2.54261 -0.872049 0
M  V30 2146 C 202.098 1.62306 -3.1842 0
M  V30 2147 S 203.657 2.3878 -3.68143 0
M  V30 2148 H 200.475 0.290174 -0.649092 0
M  V30 2149 H 203.077 0.127755 -1.95082 0
M  V30 2150 H 201.781 0.941192 -3.99462 0
M  V30 2151 H 201.312 2.4039 -3.1141 0
M  V30 2152 H 203.327 3.63942 -3.37285 0
M  V30 2153 N 202.5 1.5196 0.417844 0
M  V30 2154 C 203.748 1.65263 1.16329 0
M  V30 2155 C 204.069 0.380634 1.91249 0
M  V30 2156 O 203.339 -0.604214 1.86349 0
M  V30 2157 H 201.919 0.60912 0.432414 0
M  V30 2158 H 204.581 1.88969 0.477162 0
M  V30 2159 H 203.677 2.4896 1.88217 0
M  V30 2160 N 203.978 -0.674533 1.42435 0
M  V30 2161 C 205.224 -1.43671 1.43131 0
M  V30 2162 C 205.557 -1.94142 0.0476021 0
M  V30 2163 O 204.832 -1.70924 -0.928188 0
M  V30 2164 C 205.115 -2.63355 2.45594 0
M  V30 2165 C 204.968 -2.18514 3.93156 0
M  V30 2166 C 206.287 -3.65571 2.45043 0
M  V30 2167 H 203.406 -0.521077 0.521198 0
M  V30 2168 H 206.048 -0.766551 1.7385 0
M  V30 2169 H 204.198 -3.2053 2.19528 0
M  V30 2170 H 205.87 -1.66504 4.30202 0
M  V30 2171 H 204.113 -1.50086 4.07009 0
M  V30 2172 H 204.784 -3.04484 4.60428 0
M  V30 2173 H 207.26 -3.18113 2.68223 0
M  V30 2174 H 206.136 -4.46893 3.18713 0
M  V30 2175 H 206.397 -4.16716 1.47649 0
M  V30 2176 N 205.456 -1.28612 -0.910864 0
M  V30 2177 C 206.403 -1.12786 -2.01365 0
M  V30 2178 C 207.373 -0.024201 -1.66082 0
M  V30 2179 O 208.558 -0.189667 -1.89855 0
M  V30 2180 C 205.698 -0.798743 -3.35729 0
M  V30 2181 C 204.811 -1.98173 -3.83864 0
M  V30 2182 C 203.946 -1.59298 -5.06752 0
M  V30 2183 C 202.985 -2.74245 -5.47226 0
M  V30 2184 N 202.122 -2.35842 -6.61304 0
M  V30 2185 H 206.962 -2.07142 -2.14234 0
M  V30 2186 H 204.499 -1.03093 -1.0493 0
M  V30 2187 H 206.457 -0.588662 -4.13026 0
M  V30 2188 H 205.087 0.10789 -3.2262 0
M  V30 2189 H 204.139 -2.30386 -3.02699 0
M  V30 2190 H 205.451 -2.84343 -4.09818 0
M  V30 2191 H 204.605 -1.34513 -5.916 0
M  V30 2192 H 203.344 -0.702618 -4.82612 0
M  V30 2193 H 202.349 -2.99725 -4.60918 0
M  V30 2194 H 203.574 -3.63928 -5.73353 0
M  V30 2195 H 201.52 -1.49279 -6.38789 0
M  V30 2196 H 201.437 -3.15546 -6.86998 0
M  V30 2197 H 202.705 -2.14348 -7.4945 0
M  V30 2198 N 206.934 1.1197 -1.10907 0
M  V30 2199 C 208.182 1.83225 -0.852819 0
M  V30 2200 C 208.503 1.84769 0.623341 0
M  V30 2201 O 207.773 1.3143 1.45269 0
M  V30 2202 H 206.353 0.67849 -0.312507 0
M  V30 2203 H 209.015 1.3556 -1.40033 0
M  V30 2204 H 208.111 2.87265 -1.22005 0
M  V30 2205 N 208.412 0.89855 1.29475 0
M  V30 2206 C 209.66 0.522847 1.9522 0
M  V30 2207 C 209.981 -0.93371 1.71192 0
M  V30 2208 O 209.251 -1.65823 1.04305 0
M  V30 2209 H 207.831 0.190366 0.722336 0
M  V30 2210 H 210.493 1.14459 1.5775 0
M  V30 2211 H 209.589 0.704476 3.04045 0
M  V30 2212 N 209.89 -1.43072 0.660911 0
M  V30 2213 C 210.8 -2.34585 -0.0264163 0
M  V30 2214 C 211.816 -1.54316 -0.803898 0
M  V30 2215 O 212.992 -1.86939 -0.749391 0
M  V30 2216 C 210.057 -3.32689 -0.975639 0
M  V30 2217 C 209.118 -4.2886 -0.194236 0
M  V30 2218 C 208.351 -5.22278 -1.09825 0
M  V30 2219 O 208.574 -5.20299 -2.33763 0
M  V30 2220 O 207.508 -5.99228 -0.566513 0
M  V30 2221 H 211.334 -2.94869 0.727034 0
M  V30 2222 H 208.919 -1.43342 0.42111 0
M  V30 2223 H 210.801 -3.92995 -1.52094 0
M  V30 2224 H 209.476 -2.74898 -1.70918 0
M  V30 2225 H 208.383 -3.72011 0.394835 0
M  V30 2226 H 209.716 -4.89655 0.499899 0
M  V30 2227 N 211.368 -0.403325 -1.52352 0
M  V30 2228 C 212.596 0.174012 -2.06167 0
M  V30 2229 C 213.011 1.39347 -1.27388 0
M  V30 2230 O 212.368 1.79597 -0.324201 0
M  V30 2231 C 212.419 0.530223 -3.5759 0
M  V30 2232 O 212.14 -0.640806 -4.33388 0
M  V30 2233 C 213.641 1.16192 -4.27802 0
M  V30 2234 H 210.861 0.0229464 -0.670608 0
M  V30 2235 H 213.405 -0.572604 -1.9632 0
M  V30 2236 H 211.56 1.22673 -3.67464 0
M  V30 2237 H 211.974 -0.344851 -5.23365 0
M  V30 2238 H 213.448 1.36141 -5.34948 0
M  V30 2239 H 213.925 2.13335 -3.83907 0
M  V30 2240 H 214.531 0.505775 -4.22282 0
M  V30 2241 N 212.846 1.57033 -0.133567 0
M  V30 2242 C 214.092 1.95976 0.521649 0
M  V30 2243 C 214.425 1.01779 1.65393 0
M  V30 2244 O 213.7 0.0576581 1.94415 0
M  V30 2245 C 213.983 3.44738 1.04057 0
M  V30 2246 C 213.836 4.49711 -0.0892897 0
M  V30 2247 C 215.155 3.95682 1.92675 0
M  V30 2248 H 212.274 0.712579 0.188149 0
M  V30 2249 H 214.916 1.88813 -0.212076 0
M  V30 2250 H 213.066 3.50973 1.66583 0
M  V30 2251 H 214.738 4.55565 -0.725152 0
M  V30 2252 H 212.981 4.27261 -0.750378 0
M  V30 2253 H 213.652 5.51099 0.315284 0
M  V30 2254 H 216.128 3.91841 1.39998 0
M  V30 2255 H 215.004 5.00262 2.25897 0
M  V30 2256 H 215.265 3.37239 2.85872 0
M  V30 2257 N 214.325 -0.140222 1.56975 0
M  V30 2258 C 215.258 -1.20266 1.93936 0
M  V30 2259 C 216.236 -1.41212 0.806099 0
M  V30 2260 O 217.42 -1.55713 1.06234 0
M  V30 2261 C 214.547 -2.56037 2.21726 0
M  V30 2262 C 213.593 -2.51646 3.44349 0
M  V30 2263 S 214.426 -1.97678 4.97678 0
M  V30 2264 C 215.582 -3.35165 5.28597 0
M  V30 2265 H 215.815 -0.887358 2.83749 0
M  V30 2266 H 213.348 -0.346119 1.50471 0
M  V30 2267 H 215.306 -3.34167 2.38416 0
M  V30 2268 H 213.967 -2.84755 1.32566 0
M  V30 2269 H 213.16 -3.51608 3.61092 0
M  V30 2270 H 212.762 -1.81628 3.26936 0
M  V30 2271 H 215.054 -4.31302 5.2248 0
M  V30 2272 H 215.997 -3.23269 6.30002 0
M  V30 2273 H 216.405 -3.32614 4.56101 0
M  V30 2274 N 215.803 -1.52179 -0.40978 0
M  V30 2275 C 217.049 -1.66453 -1.15851 0
M  V30 2276 C 217.382 -0.392972 -1.90182 0
M  V30 2277 O 216.657 0.608579 -1.84734 0
M  V30 2278 C 216.94 -2.88612 -2.15349 0
M  V30 2279 C 216.793 -4.25815 -1.44918 0
M  V30 2280 C 218.112 -3.06294 -3.16026 0
M  V30 2281 H 215.231 -0.60575 -0.419805 0
M  V30 2282 H 217.873 -1.84732 -0.444314 0
M  V30 2283 H 216.023 -2.73158 -2.76255 0
M  V30 2284 H 217.695 -4.52995 -0.871365 0
M  V30 2285 H 215.938 -4.27247 -0.751159 0
M  V30 2286 H 216.609 -5.07337 -2.17516 0
M  V30 2287 H 219.085 -3.20641 -2.65195 0
M  V30 2288 H 217.961 -3.93283 -3.8291 0
M  V30 2289 H 218.222 -2.19579 -3.83715 0
M  V30 2290 N 217.281 0.66697 -1.42791 0
M  V30 2291 C 218.229 1.80157 -1.47127 0
M  V30 2292 C 219.223 1.65825 -0.346199 0
M  V30 2293 O 220.429 1.72338 -0.519572 0
M  V30 2294 H 216.804 0.594158 -0.460956 0
M  V30 2295 H 218.775 1.73619 -2.42692 0
M  V30 2296 C 217.524 3.18351 -1.39813 0
M  V30 2297 H 216.847 3.3001 -2.25684 0
M  V30 2298 H 218.287 3.97736 -1.46908 0
M  V30 2299 C 216.746 3.36707 -0.11391 0
M  V30 2300 O 217.276 3.93027 0.830241 0
M  V30 2301 N 215.482 2.90586 -0.0285295 0
M  V30 2302 H 215.029 2.4494 -0.79764 0
M  V30 2303 H 214.987 3.03245 0.830063 0
M  V30 2304 N 218.759 1.29093 0.90403 0
M  V30 2305 C 219.722 1.1386 1.98919 0
M  V30 2306 C 220.722 0.0753457 1.60623 0
M  V30 2307 O 221.912 0.321931 1.71199 0
M  V30 2308 C 219.044 0.740198 3.32767 0
M  V30 2309 H 220.237 2.10246 2.13861 0
M  V30 2310 H 217.79 1.12218 1.08797 0
M  V30 2311 H 218.525 -0.223997 3.23525 0
M  V30 2312 H 218.31 1.50838 3.61926 0
M  V30 2313 H 219.8 0.656546 4.12407 0
M  V30 2314 N 220.237 -1.11381 1.11499 0
M  V30 2315 C 221.2 -2.15622 0.777153 0
M  V30 2316 C 222.2 -1.59504 -0.203779 0
M  V30 2317 O 223.39 -1.74188 0.020782 0
M  V30 2318 C 220.522 -3.40556 0.153116 0
M  V30 2319 H 221.715 -2.47021 1.70061 0
M  V30 2320 H 219.268 -1.26577 0.916952 0
M  V30 2321 H 220.003 -3.14767 -0.780536 0
M  V30 2322 H 219.788 -3.8257 0.859238 0
M  V30 2323 H 221.278 -4.17546 -0.0671044 0
M  V30 2324 N 221.715 -0.905404 -1.28997 0
M  V30 2325 C 222.678 -0.392253 -2.25819 0
M  V30 2326 C 223.678 0.476753 -1.5357 0
M  V30 2327 O 224.868 0.280994 -1.71919 0
M  V30 2328 C 222 0.438588 -3.38067 0
M  V30 2329 H 223.193 -1.24743 -2.72725 0
M  V30 2330 H 220.746 -0.684051 -1.40536 0
M  V30 2331 H 221.481 1.31352 -2.96508 0
M  V30 2332 H 221.266 -0.184167 -3.91667 0
M  V30 2333 H 222.756 0.78873 -4.10084 0
M  V30 2334 N 223.193 1.4272 -0.668489 0
M  V30 2335 C 224.441 2.01226 -0.187769 0
M  V30 2336 C 224.762 1.53092 1.2078 0
M  V30 2337 O 224.032 0.74993 1.80977 0
M  V30 2338 H 222.612 0.744041 -0.0664272 0
M  V30 2339 H 225.274 1.74723 -0.863583 0
M  V30 2340 H 224.37 3.11556 -0.184166 0
M  V30 2341 N 224.671 0.411399 1.52136 0
M  V30 2342 C 225.634 -0.401089 2.25663 0
M  V30 2343 C 226.634 -0.971732 1.28117 0
M  V30 2344 O 227.824 -0.850254 1.52041 0
M  V30 2345 C 224.956 -1.56483 3.02863 0
M  V30 2346 H 226.149 0.24295 2.98914 0
M  V30 2347 H 223.702 0.163968 1.55438 0
M  V30 2348 H 224.437 -2.24567 2.33967 0
M  V30 2349 H 224.222 -1.16211 3.74483 0
M  V30 2350 H 225.712 -2.13951 3.58629 0
M  V30 2351 N 226.149 -1.5696 0.141893 0
M  V30 2352 C 227.395 -1.9625 -0.511248 0
M  V30 2353 C 227.728 -1.02654 -1.64851 0
M  V30 2354 O 227.003 -0.0679676 -1.94381 0
M  V30 2355 C 227.286 -3.45285 -1.02227 0
M  V30 2356 C 227.139 -4.49658 0.113138 0
M  V30 2357 C 228.458 -3.96698 -1.90574 0
M  V30 2358 H 225.577 -0.713567 -0.184367 0
M  V30 2359 H 228.219 -1.88698 0.222087 0
M  V30 2360 H 226.369 -3.51852 -1.64719 0
M  V30 2361 H 228.041 -4.55174 0.749302 0
M  V30 2362 H 226.284 -4.26857 0.773026 0
M  V30 2363 H 226.955 -5.51258 -0.286053 0
M  V30 2364 H 229.431 -3.92578 -1.37918 0
M  V30 2365 H 228.307 -5.01453 -2.2324 0
M  V30 2366 H 228.568 -3.3875 -2.84079 0
M  V30 2367 N 227.627 0.131896 -1.57047 0
M  V30 2368 C 228.875 0.840269 -1.83804 0
M  V30 2369 C 229.196 1.81017 -0.72512 0
M  V30 2370 O 228.466 1.94272 0.251995 0
M  V30 2371 H 227.046 0.313294 -0.678127 0
M  V30 2372 H 229.708 0.122294 -1.94516 0
M  V30 2373 H 228.804 1.39335 -2.79271 0
M  V30 2374 N 229.106 1.52395 0.401703 0
M  V30 2375 C 230.331 1.70972 1.17403 0
M  V30 2376 C 230.756 0.421615 1.83314 0
M  V30 2377 O 230.114 -0.621564 1.70312 0
M  V30 2378 C 230.162 2.85151 2.20728 0
M  V30 2379 O 229.266 2.51238 3.27037 0
M  V30 2380 H 228.607 0.568927 0.342372 0
M  V30 2381 H 231.137 1.99131 0.469891 0
M  V30 2382 H 231.147 3.10279 2.64936 0
M  V30 2383 H 229.822 3.78603 1.7214 0
M  V30 2384 H 228.399 2.36808 2.88057 0
M  V30 2385 N 230.584 -0.659388 1.43143 0
M  V30 2386 C 231.83 -1.42145 1.44647 0
M  V30 2387 C 232.163 -1.9408 0.0681907 0
M  V30 2388 O 231.438 -1.71899 -0.910007 0
M  V30 2389 C 231.721 -2.60735 2.48373 0
M  V30 2390 C 231.574 -2.14332 3.95451 0
M  V30 2391 C 232.893 -3.62951 2.48906 0
M  V30 2392 H 230.012 -0.51552 0.526696 0
M  V30 2393 H 232.654 -0.748069 1.74654 0
M  V30 2394 H 230.804 -3.18184 2.22916 0
M  V30 2395 H 232.476 -1.61932 4.31944 0
M  V30 2396 H 230.719 -1.4576 4.08578 0
M  V30 2397 H 231.39 -2.99583 4.63631 0
M  V30 2398 H 233.866 -3.1525 2.71582 0
M  V30 2399 H 232.742 -4.43487 3.23435 0
M  V30 2400 H 233.003 -4.15126 1.52061 0
M  V30 2401 N 232.062 -1.29571 -0.897171 0
M  V30 2402 C 233.308 -1.17863 -1.65034 0
M  V30 2403 C 233.641 0.268729 -1.92332 0
M  V30 2404 O 232.916 1.19378 -1.53555 0
M  V30 2405 C 233.199 -1.995 -2.99786 0
M  V30 2406 C 233.052 -3.5239 -2.79538 0
M  V30 2407 C 234.371 -1.82335 -4.00552 0
M  V30 2408 H 231.49 -0.429528 -0.598895 0
M  V30 2409 H 234.132 -1.59072 -1.03905 0
M  V30 2410 H 232.282 -1.64485 -3.51962 0
M  V30 2411 H 233.954 -3.97401 -2.34244 0
M  V30 2412 H 232.197 -3.77187 -2.14273 0
M  V30 2413 H 232.868 -4.04787 -3.75302 0
M  V30 2414 H 235.344 -2.12924 -3.57495 0
M  V30 2415 H 234.22 -2.41801 -4.92771 0
M  V30 2416 H 234.481 -0.779209 -4.35179 0
M  V30 2417 N 233.54 1.10788 -1.12088 0
M  V30 2418 C 234.788 1.8231 -0.872205 0
M  V30 2419 C 235.109 1.85419 0.603709 0
M  V30 2420 O 234.379 1.32963 1.43867 0
M  V30 2421 H 232.959 0.675137 -0.319686 0
M  V30 2422 H 235.621 1.34068 -1.41463 0
M  V30 2423 H 234.717 2.85955 -1.25045 0
M  V30 2424 N 235.018 0.912232 1.28515 0
M  V30 2425 C 235.95 0.35676 2.26406 0
M  V30 2426 C 236.963 -0.503933 1.54804 0
M  V30 2427 O 238.152 -0.319059 1.75625 0
M  V30 2428 C 235.252 -0.508825 3.35058 0
M  V30 2429 C 234.425 0.329007 4.36161 0
M  V30 2430 C 233.484 -0.471422 5.24084 0
M  V30 2431 O 232.51 0.115482 5.69083 0
M  V30 2432 N 233.712 -1.77479 5.52704 0
M  V30 2433 H 236.477 1.19818 2.74707 0
M  V30 2434 H 234.038 0.778022 1.4198 0
M  V30 2435 H 236.03 -1.051 3.90815 0
M  V30 2436 H 234.6 -1.25095 2.86478 0
M  V30 2437 H 233.82 1.05256 3.79888 0
M  V30 2438 H 235.108 0.90234 5.00735 0
M  V30 2439 H 234.506 -2.27417 5.17975 0
M  V30 2440 H 233.063 -2.26382 6.11224 0
M  V30 2441 N 236.496 -1.42363 0.676048 0
M  V30 2442 C 237.745 -2.00745 0.196037 0
M  V30 2443 C 238.058 -1.54083 -1.20489 0
M  V30 2444 O 239.264 -2.04891 -1.78134 0
M  V30 2445 C 237.72 -3.58651 0.299616 0
M  V30 2446 C 237.328 -4.143 1.70468 0
M  V30 2447 C 239.072 -4.24326 -0.121619 0
M  V30 2448 C 236.979 -5.64574 1.76096 0
M  V30 2449 H 235.909 -0.750787 0.0695301 0
M  V30 2450 H 238.56 -1.63072 0.841412 0
M  V30 2451 H 236.942 -3.93833 -0.413673 0
M  V30 2452 H 238.116 -3.90575 2.44515 0
M  V30 2453 H 236.431 -3.61081 2.07387 0
M  V30 2454 H 239.028 -5.34607 -0.0997362 0
M  V30 2455 H 239.371 -3.99897 -1.15708 0
M  V30 2456 H 239.904 -3.94108 0.540706 0
M  V30 2457 H 236.643 -5.93804 2.77628 0
M  V30 2458 H 236.163 -5.90286 1.06406 0
M  V30 2459 H 237.842 -6.29013 1.51496 0
M  V30 2460 N 237.974 -0.419461 -1.51915 0
M  V30 2461 C 238.937 0.389116 -2.25873 0
M  V30 2462 C 239.937 0.964924 -1.28631 0
M  V30 2463 O 241.127 0.842179 -1.52489 0
M  V30 2464 C 238.259 1.54874 -3.03689 0
M  V30 2465 H 239.452 -0.258799 -2.98781 0
M  V30 2466 H 237.005 -0.172209 -1.55348 0
M  V30 2467 H 237.74 2.23323 -2.35154 0
M  V30 2468 H 237.525 1.14223 -3.75094 0
M  V30 2469 H 239.015 2.12046 -3.59759 0
M  V30 2470 N 239.452 1.56882 -0.150215 0
M  V30 2471 C 240.399 2.16922 0.788244 0
M  V30 2472 C 241.369 1.10303 1.24187 0
M  V30 2473 O 242.554 1.38359 1.31383 0
M  V30 2474 C 239.694 2.79754 2.02068 0
M  V30 2475 C 238.807 4.00775 1.61257 0
M  V30 2476 C 237.942 4.51595 2.79705 0
M  V30 2477 C 236.981 5.65074 2.35282 0
M  V30 2478 N 236.118 6.10499 3.4675 0
M  V30 2479 H 240.958 2.96779 0.269444 0
M  V30 2480 H 238.495 1.46599 0.12128 0
M  V30 2481 H 240.453 3.14329 2.74323 0
M  V30 2482 H 239.083 2.02536 2.51354 0
M  V30 2483 H 238.135 3.72158 0.787553 0
M  V30 2484 H 239.447 4.82978 1.24633 0
M  V30 2485 H 238.601 4.88242 3.60145 0
M  V30 2486 H 237.34 3.68406 3.19576 0
M  V30 2487 H 236.345 5.28 1.53283 0
M  V30 2488 H 237.57 6.50052 1.96493 0
M  V30 2489 H 235.516 5.30243 3.86236 0
M  V30 2490 H 235.433 6.87637 3.14152 0
M  V30 2491 H 236.701 6.51791 4.27537 0
M  V30 2492 N 240.93 -0.123565 1.57115 0
M  V30 2493 C 241.86 -1.15309 2.03042 0
M  V30 2494 C 242.841 -1.43454 0.914061 0
M  V30 2495 O 244.026 -1.53973 1.18347 0
M  V30 2496 C 241.156 -2.48043 2.43089 0
M  V30 2497 C 240.11 -2.3437 3.58127 0
M  V30 2498 C 239.436 -3.72026 3.84059 0
M  V30 2499 C 240.736 -1.80804 4.90007 0
M  V30 2500 H 242.43 -0.771102 2.893 0
M  V30 2501 H 239.976 -0.369479 1.39179 0
M  V30 2502 H 241.929 -3.20311 2.73823 0
M  V30 2503 H 240.653 -2.88122 1.53796 0
M  V30 2504 H 239.312 -1.64551 3.27595 0
M  V30 2505 H 238.96 -4.09582 2.91979 0
M  V30 2506 H 238.66 -3.63732 4.6149 0
M  V30 2507 H 240.184 -4.45806 4.1724 0
M  V30 2508 H 241.598 -2.42886 5.19307 0
M  V30 2509 H 239.995 -1.83343 5.71407 0
M  V30 2510 H 241.065 -0.76528 4.78823 0
M  V30 2511 N 242.408 -1.52605 -0.393616 0
M  V30 2512 C 243.355 -1.77055 -1.48054 0
M  V30 2513 C 244.325 -0.61358 -1.54352 0
M  V30 2514 O 245.51 -0.852806 -1.70681 0
M  V30 2515 C 242.65 -1.94108 -2.85335 0
M  V30 2516 C 241.763 -3.21792 -2.88226 0
M  V30 2517 C 240.898 -3.29188 -4.16904 0
M  V30 2518 C 239.937 -4.51013 -4.13828 0
M  V30 2519 N 239.074 -4.55716 -5.34105 0
M  V30 2520 H 243.914 -2.69815 -1.26506 0
M  V30 2521 H 241.451 -1.33683 -0.61379 0
M  V30 2522 H 243.409 -2.01979 -3.65049 0
M  V30 2523 H 242.039 -1.04713 -3.05344 0
M  V30 2524 H 241.091 -3.23015 -2.00911 0
M  V30 2525 H 242.403 -4.11557 -2.8182 0
M  V30 2526 H 241.557 -3.36216 -5.05018 0
M  V30 2527 H 240.296 -2.37389 -4.26026 0
M  V30 2528 H 239.301 -4.44115 -3.24102 0
M  V30 2529 H 240.526 -5.44123 -4.06333 0
M  V30 2530 H 238.472 -3.66807 -5.43865 0
M  V30 2531 H 238.389 -5.39346 -5.29756 0
M  V30 2532 H 239.657 -4.66993 -6.2413 0
M  V30 2533 N 243.887 0.651787 -1.4349 0
M  V30 2534 C 245.135 1.40888 -1.44897 0
M  V30 2535 C 245.456 1.94856 -0.0749086 0
M  V30 2536 O 244.726 1.74518 0.889956 0
M  V30 2537 H 243.306 0.522887 -0.533478 0
M  V30 2538 H 245.968 0.768609 -1.79104 0
M  V30 2539 H 245.064 2.25052 -2.16236 0
M  V30 2540 N 245.365 1.30045 0.890287 0
M  V30 2541 C 246.605 1.19839 1.65584 0
M  V30 2542 C 246.969 -0.244175 1.90441 0
M  V30 2543 O 248.17 -0.469378 2.6467 0
M  V30 2544 C 246.441 1.99876 2.96284 0
M  V30 2545 S 248 2.06309 3.87275 0
M  V30 2546 H 244.818 0.427157 0.568382 0
M  V30 2547 H 247.42 1.64453 1.05715 0
M  V30 2548 H 246.124 3.03809 2.75913 0
M  V30 2549 H 245.655 1.55903 3.61189 0
M  V30 2550 H 247.67 1.18661 4.81803 0
M  V30 2551 N 246.843 -1.10192 1.12674 0
M  V30 2552 C 247.79 -2.16606 0.796906 0
M  V30 2553 C 248.76 -1.64394 -0.237476 0
M  V30 2554 O 249.945 -1.90474 -0.111484 0
M  V30 2555 C 247.085 -3.44116 0.26043 0
M  V30 2556 C 246.198 -4.10268 1.35293 0
M  V30 2557 C 245.333 -5.25507 0.775621 0
M  V30 2558 C 244.372 -5.83567 1.84706 0
M  V30 2559 N 243.509 -6.90179 1.28829 0
M  V30 2560 H 248.349 -2.44163 1.70846 0
M  V30 2561 H 245.886 -1.19846 0.85295 0
M  V30 2562 H 247.844 -4.17143 -0.0686814 0
M  V30 2563 H 246.474 -3.16901 -0.614274 0
M  V30 2564 H 245.526 -3.35184 1.79877 0
M  V30 2565 H 246.838 -4.4946 2.16303 0
M  V30 2566 H 245.992 -6.05398 0.397327 0
M  V30 2567 H 244.731 -4.87656 -0.0656581 0
M  V30 2568 H 243.736 -5.02344 2.23452 0
M  V30 2569 H 244.961 -6.23482 2.69161 0
M  V30 2570 H 242.907 -6.54322 0.468881 0
M  V30 2571 H 242.824 -7.28097 2.03497 0
M  V30 2572 H 244.092 -7.73844 0.937311 0
M  V30 2573 N 248.321 -0.919034 -1.28029 0
M  V30 2574 C 249.567 -0.555757 -1.95036 0
M  V30 2575 C 249.9 0.899198 -1.72128 0
M  V30 2576 O 249.175 1.64023 -1.04531 0
M  V30 2577 C 249.458 -0.872024 -3.49382 0
M  V30 2578 C 249.311 -2.3801 -3.81669 0
M  V30 2579 C 250.63 -0.37185 -4.38526 0
M  V30 2580 H 247.749 -0.203386 -0.708381 0
M  V30 2581 H 250.391 -1.14924 -1.51303 0
M  V30 2582 H 248.541 -0.366946 -3.86763 0
M  V30 2583 H 250.213 -2.9562 -3.54128 0
M  V30 2584 H 248.456 -2.83289 -3.28526 0
M  V30 2585 H 249.127 -2.55192 -4.8947 0
M  V30 2586 H 251.603 -0.804602 -4.08247 0
M  V30 2587 H 250.479 -0.622173 -5.45362 0
M  V30 2588 H 250.74 0.727934 -4.36066 0
M  V30 2589 N 249.799 1.42003 -0.683588 0
M  V30 2590 C 251.045 2.01712 -0.209825 0
M  V30 2591 C 251.378 1.53968 1.18353 0
M  V30 2592 O 250.653 0.745661 1.79639 0
M  V30 2593 C 250.936 3.59202 -0.254197 0
M  V30 2594 C 250.789 4.17102 -1.68363 0
M  V30 2595 C 252.108 4.38344 0.392709 0
M  V30 2596 H 249.227 0.732891 -0.0777189 0
M  V30 2597 H 251.869 1.68909 -0.87004 0
M  V30 2598 H 250.019 3.87278 0.307954 0
M  V30 2599 H 251.691 3.99946 -2.29871 0
M  V30 2600 H 249.934 3.72597 -2.22157 0
M  V30 2601 H 250.605 5.26249 -1.6663 0
M  V30 2602 H 253.081 4.16011 -0.0859162 0
M  V30 2603 H 251.957 5.47901 0.331063 0
M  V30 2604 H 252.218 4.16887 1.47164 0
M  V30 2605 N 251.277 0.427512 1.51691 0
M  V30 2606 C 252.525 -0.141948 2.01601 0
M  V30 2607 C 252.846 -1.44067 1.31414 0
M  V30 2608 O 252.116 -1.90763 0.445658 0
M  V30 2609 H 250.696 -0.0554468 0.744939 0
M  V30 2610 H 253.358 0.567968 1.86441 0
M  V30 2611 H 252.454 -0.324913 3.10404 0
M  V30 2612 N 252.755 -1.56801 0.158532 0
M  V30 2613 C 253.718 -2.16138 -0.762705 0
M  V30 2614 C 254.718 -1.1061 -1.16713 0
M  V30 2615 O 255.908 -1.36191 -1.08617 0
M  V30 2616 C 253.04 -2.73386 -2.03649 0
M  V30 2617 H 254.233 -2.98886 -0.246354 0
M  V30 2618 H 251.786 -1.56035 -0.0909744 0
M  V30 2619 H 252.521 -1.94335 -2.59623 0
M  V30 2620 H 252.306 -3.50601 -1.75559 0
M  V30 2621 H 253.796 -3.19065 -2.6942 0
M  V30 2622 N 254.233 0.115231 -1.57178 0
M  V30 2623 C 255.479 0.82357 -1.85325 0
M  V30 2624 C 255.812 1.79349 -0.744814 0
M  V30 2625 O 255.087 1.92899 0.249024 0
M  V30 2626 C 255.37 1.57014 -3.24066 0
M  V30 2627 C 255.223 0.619565 -4.45513 0
M  V30 2628 C 256.542 2.52545 -3.60429 0
M  V30 2629 H 253.661 0.297948 -0.674089 0
M  V30 2630 H 256.303 0.0877138 -1.89797 0
M  V30 2631 H 254.453 2.19742 -3.20383 0
M  V30 2632 H 256.125 0.000837639 -4.613 0
M  V30 2633 H 254.368 -0.0686174 -4.33746 0
M  V30 2634 H 255.039 1.17866 -5.3927 0
M  V30 2635 H 257.515 1.9992 -3.64926 0
M  V30 2636 H 256.391 3.01811 -4.58477 0
M  V30 2637 H 256.652 3.35383 -2.88047 0
M  V30 2638 N 255.711 1.52812 0.385517 0
M  V30 2639 C 256.959 1.67694 1.12797 0
M  V30 2640 C 257.28 0.421115 1.90399 0
M  V30 2641 O 256.55 -0.564551 1.87589 0
M  V30 2642 H 255.13 0.618155 0.419396 0
M  V30 2643 H 257.792 1.89938 0.436972 0
M  V30 2644 H 256.888 2.52896 1.82894 0
M  V30 2645 N 257.189 -0.644168 1.43834 0
M  V30 2646 C 258.414 -1.43642 1.49605 0
M  V30 2647 C 258.839 -1.8773 0.117913 0
M  V30 2648 O 258.197 -1.57938 -0.890239 0
M  V30 2649 C 258.245 -2.6416 2.45463 0
M  V30 2650 O 257.349 -3.63538 1.94714 0
M  V30 2651 H 256.69 -0.430329 0.50568 0
M  V30 2652 H 259.22 -0.787448 1.8884 0
M  V30 2653 H 259.23 -3.11864 2.63068 0
M  V30 2654 H 257.905 -2.31414 3.45572 0
M  V30 2655 H 256.482 -3.2273 1.86814 0
M  V30 2656 N 258.668 -1.30515 -0.883378 0
M  V30 2657 C 259.945 -1.10086 -1.6168 0
M  V30 2658 C 260.325 0.349269 -2.08191 0
M  V30 2659 O 259.673 1.34105 -1.85008 0
M  V30 2660 C 259.883 -2.10315 -2.78511 0
M  V30 2661 C 261.231 -2.42119 -3.48803 0
M  V30 2662 O 262.255 -2.08638 -2.88702 0
M  V30 2663 O 261.114 -2.99396 -4.57192 0
M  V30 2664 H 258.208 -0.422907 -0.710689 0
M  V30 2665 H 260.754 -1.41947 -0.930015 0
M  V30 2666 H 259.526 -3.07917 -2.41459 0
M  V30 2667 H 259.149 -1.79282 -3.54886 0
M  V30 2668 N 260.146 1.09593 -1.13257 0
M  V30 2669 C 261.056 2.19739 -0.821691 0
M  V30 2670 C 262.072 1.72926 0.19302 0
M  V30 2671 O 263.248 2.01385 0.0244895 0
M  V30 2672 C 260.313 3.45482 -0.290333 0
M  V30 2673 C 259.374 4.06985 -1.36607 0
M  V30 2674 C 258.607 5.26726 -0.859975 0
M  V30 2675 O 258.83 5.69594 0.303082 0
M  V30 2676 O 257.764 5.7931 -1.63351 0
M  V30 2677 H 261.59 2.48781 -1.74189 0
M  V30 2678 H 259.175 1.18496 -0.909894 0
M  V30 2679 H 261.057 4.214 0.000674022 0
M  V30 2680 H 259.732 3.18047 0.602306 0
M  V30 2681 H 258.639 3.32712 -1.71037 0
M  V30 2682 H 259.972 4.38643 -2.23279 0
M  V30 2683 N 261.624 0.925811 1.2754 0
M  V30 2684 C 262.571 0.422045 2.26908 0
M  V30 2685 C 263.541 -0.510029 1.58076 0
M  V30 2686 O 264.726 -0.429599 1.85901 0
M  V30 2687 C 261.866 -0.320837 3.43605 0
M  V30 2688 C 260.979 0.64513 4.27156 0
M  V30 2689 C 260.114 -0.117405 5.3107 0
M  V30 2690 C 259.153 0.841391 6.0629 0
M  V30 2691 N 258.29 0.111604 7.02011 0
M  V30 2692 H 263.13 1.27441 2.69375 0
M  V30 2693 H 260.667 0.639697 1.32462 0
M  V30 2694 H 262.625 -0.76785 4.10073 0
M  V30 2695 H 261.255 -1.13745 3.02096 0
M  V30 2696 H 260.307 1.21067 3.6062 0
M  V30 2697 H 261.619 1.37797 4.79389 0
M  V30 2698 H 260.773 -0.624422 6.03478 0
M  V30 2699 H 259.512 -0.883219 4.79636 0
M  V30 2700 H 258.517 1.35967 5.32722 0
M  V30 2701 H 259.742 1.60696 6.59813 0
M  V30 2702 H 257.688 -0.635999 6.5291 0
M  V30 2703 H 257.605 0.784044 7.51923 0
M  V30 2704 H 258.873 -0.374823 7.78598 0
M  V30 2705 N 263.102 -1.41638 0.69111 0
M  V30 2706 C 264.348 -2.01598 0.220519 0
M  V30 2707 C 264.681 -1.54594 -1.17535 0
M  V30 2708 O 263.956 -0.755177 -1.79241 0
M  V30 2709 C 264.239 -3.59062 0.273243 0
M  V30 2710 C 264.092 -4.16203 1.70573 0
M  V30 2711 C 265.411 -4.38546 -0.369457 0
M  V30 2712 H 262.53 -0.732468 0.0816045 0
M  V30 2713 H 265.172 -1.68445 0.878986 0
M  V30 2714 H 263.322 -3.87435 -0.287411 0
M  V30 2715 H 264.994 -3.98722 2.31989 0
M  V30 2716 H 263.237 -3.71414 2.2413 0
M  V30 2717 H 263.908 -5.25358 1.69419 0
M  V30 2718 H 266.384 -4.1596 0.107977 0
M  V30 2719 H 265.26 -5.48069 -0.302002 0
M  V30 2720 H 265.521 -4.17662 -1.44951 0
M  V30 2721 N 264.58 -0.43555 -1.51462 0
M  V30 2722 C 265.543 0.365137 -2.26273 0
M  V30 2723 C 266.543 0.951227 -1.29647 0
M  V30 2724 O 267.733 0.825958 -1.53374 0
M  V30 2725 C 264.865 1.51645 -3.05314 0
M  V30 2726 H 266.058 -0.290474 -2.9849 0
M  V30 2727 H 263.611 -0.188676 -1.55157 0
M  V30 2728 H 264.346 2.20816 -2.3751 0
M  V30 2729 H 264.131 1.10238 -3.76284 0
M  V30 2730 H 265.621 2.08218 -3.61987 0
M  V30 2731 N 266.058 1.56714 -0.166846 0
M  V30 2732 C 267.288 2.00828 0.48494 0
M  V30 2733 C 267.696 1.04612 1.57648 0
M  V30 2734 O 267.039 0.0383201 1.8366 0
M  V30 2735 C 267.101 3.4137 1.12723 0
M  V30 2736 C 266.765 4.56654 0.177886 0
M  V30 2737 C 267.762 5.16402 -0.60207 0
M  V30 2738 C 265.447 5.02244 0.0750139 0
M  V30 2739 C 267.441 6.20167 -1.47215 0
M  V30 2740 C 265.128 6.05859 -0.798649 0
M  V30 2741 C 266.126 6.64691 -1.57082 0
M  V30 2742 O 265.814 7.66297 -2.42989 0
M  V30 2743 H 265.546 0.663587 0.128953 0
M  V30 2744 H 268.1 2.03692 -0.264365 0
M  V30 2745 H 266.33 3.35406 1.92457 0
M  V30 2746 H 268.019 3.69466 1.68076 0
M  V30 2747 H 268.785 4.82065 -0.53274 0
M  V30 2748 H 264.664 4.56167 0.665812 0
M  V30 2749 H 268.208 6.66016 -2.07531 0
M  V30 2750 H 264.105 6.39621 -0.869199 0
M  V30 2751 H 264.873 7.83601 -2.36455 0
M  V30 2752 N 267.536 -0.106894 1.57237 0
M  V30 2753 C 268.466 -1.13148 2.04254 0
M  V30 2754 C 269.447 -1.42476 0.929224 0
M  V30 2755 O 270.632 -1.52709 1.19973 0
M  V30 2756 C 267.762 -2.4545 2.45706 0
M  V30 2757 C 266.716 -2.30558 3.60592 0
M  V30 2758 C 266.042 -3.67931 3.87983 0
M  V30 2759 C 267.342 -1.75597 4.91897 0
M  V30 2760 H 269.036 -0.740374 2.90101 0
M  V30 2761 H 266.582 -0.354696 1.39563 0
M  V30 2762 H 268.535 -3.17389 2.77205 0
M  V30 2763 H 267.259 -2.86475 1.56843 0
M  V30 2764 H 265.918 -1.61067 3.29322 0
M  V30 2765 H 265.566 -4.06462 2.96306 0
M  V30 2766 H 265.266 -3.58817 4.65322 0
M  V30 2767 H 266.79 -4.41356 4.21945 0
M  V30 2768 H 268.204 -2.37364 5.21854 0
M  V30 2769 H 266.601 -1.77272 5.73319 0
M  V30 2770 H 267.671 -0.714451 4.79608 0
M  V30 2771 N 269.014 -1.53014 -0.377408 0
M  V30 2772 C 269.946 -1.74884 -1.48149 0
M  V30 2773 C 270.959 -0.629433 -1.5014 0
M  V30 2774 O 272.148 -0.905416 -1.53833 0
M  V30 2775 C 269.248 -1.80299 -2.86959 0
M  V30 2776 C 268.421 -3.09776 -3.08801 0
M  V30 2777 C 267.48 -3.06586 -4.27658 0
M  V30 2778 O 266.506 -3.80419 -4.23403 0
M  V30 2779 N 267.708 -2.26578 -5.34455 0
M  V30 2780 H 270.473 -2.70147 -1.29771 0
M  V30 2781 H 268.034 -1.51646 -0.56703 0
M  V30 2782 H 270.026 -1.75657 -3.64591 0
M  V30 2783 H 268.596 -0.92372 -2.98641 0
M  V30 2784 H 267.816 -3.27815 -2.18931 0
M  V30 2785 H 269.104 -3.95366 -3.20255 0
M  V30 2786 H 268.502 -1.66081 -5.40771 0
M  V30 2787 H 267.059 -2.27766 -6.10709 0
M  V30 2788 N 270.492 0.636531 -1.44174 0
M  V30 2789 C 271.439 1.74875 -1.50624 0
M  V30 2790 C 272.409 1.62275 -0.35442 0
M  V30 2791 O 273.594 1.82276 -0.563908 0
M  V30 2792 C 270.734 3.13102 -1.45125 0
M  V30 2793 C 269.847 3.36717 -2.7064 0
M  V30 2794 C 268.982 4.64885 -2.57013 0
M  V30 2795 C 268.021 4.8166 -3.77717 0
M  V30 2796 N 267.158 6.01101 -3.62798 0
M  V30 2797 H 271.998 1.68697 -2.45653 0
M  V30 2798 H 269.535 0.823004 -1.21922 0
M  V30 2799 H 271.493 3.93034 -1.39929 0
M  V30 2800 H 270.123 3.18308 -0.536671 0
M  V30 2801 H 269.175 2.50763 -2.86046 0
M  V30 2802 H 270.487 3.44993 -3.60252 0
M  V30 2803 H 269.641 5.52969 -2.49619 0
M  V30 2804 H 268.38 4.58957 -1.64953 0
M  V30 2805 H 267.385 3.92007 -3.85501 0
M  V30 2806 H 268.61 4.89406 -4.70807 0
M  V30 2807 H 266.556 5.96273 -2.73486 0
M  V30 2808 H 266.473 6.10409 -4.46023 0
M  V30 2809 H 267.741 6.91761 -3.59286 0
M  V30 2810 N 271.97 1.30982 0.876444 0
M  V30 2811 C 272.9 1.20668 1.99903 0
M  V30 2812 C 273.881 0.095354 1.69833 0
M  V30 2813 O 275.066 0.27885 1.92188 0
M  V30 2814 C 272.196 0.90655 3.3526 0
M  V30 2815 C 271.15 1.97675 3.79617 0
M  V30 2816 C 270.476 1.52943 5.1236 0
M  V30 2817 C 271.776 3.389 3.97422 0
M  V30 2818 H 273.47 2.14586 2.0879 0
M  V30 2819 H 271.016 1.03308 1.00317 0
M  V30 2820 H 272.969 0.821025 4.13324 0
M  V30 2821 H 271.693 -0.0682969 3.26529 0
M  V30 2822 H 270.352 2.05205 3.03787 0
M  V30 2823 H 270 0.54262 5.00065 0
M  V30 2824 H 269.7 2.24532 5.43009 0
M  V30 2825 H 271.224 1.45786 5.92941 0
M  V30 2826 H 272.638 3.34081 4.659 0
M  V30 2827 H 271.035 4.0865 4.3946 0
M  V30 2828 H 272.105 3.80163 3.01006 0
M  V30 2829 N 273.449 -1.08991 1.13837 0
M  V30 2830 C 274.697 -1.80899 0.901098 0
M  V30 2831 C 275.018 -1.86356 -0.574134 0
M  V30 2832 O 274.288 -1.35235 -1.41733 0
M  V30 2833 H 272.868 -0.669966 0.330386 0
M  V30 2834 H 275.53 -1.318 1.43578 0
M  V30 2835 H 274.626 -2.83929 1.29578 0
M  V30 2836 N 274.927 -0.932562 -1.27047 0
M  V30 2837 C 276.174 -0.575559 -1.94148 0
M  V30 2838 C 276.502 0.883984 -1.73251 0
M  V30 2839 O 275.757 1.64655 -1.0577 0
M  V30 2840 C 276.056 -0.853713 -3.47054 0
M  V30 2841 C 275.722 -2.29577 -3.88079 0
M  V30 2842 C 274.384 -2.68999 -3.9899 0
M  V30 2843 C 276.736 -3.23331 -4.08787 0
M  V30 2844 C 274.064 -4.01289 -4.28 0
M  V30 2845 C 276.416 -4.55207 -4.39282 0
M  V30 2846 C 275.08 -4.94457 -4.48407 0
M  V30 2847 H 274.35 -0.210612 -0.710439 0
M  V30 2848 H 276.997 -1.17744 -1.51025 0
M  V30 2849 H 275.302 -0.169204 -3.91434 0
M  V30 2850 H 276.999 -0.55639 -3.97121 0
M  V30 2851 H 273.589 -1.97994 -3.80127 0
M  V30 2852 H 277.773 -2.94074 -3.99793 0
M  V30 2853 H 273.029 -4.31374 -4.33275 0
M  V30 2854 H 277.203 -5.27852 -4.54252 0
M  V30 2855 H 274.83 -5.96994 -4.7064 0
M  V30 2856 N 276.405 1.4127 -0.698611 0
M  V30 2857 C 277.682 1.94955 -0.158762 0
M  V30 2858 C 278.062 1.63781 1.33188 0
M  V30 2859 O 277.41 0.946423 2.07979 0
M  V30 2860 C 277.62 3.46044 -0.453309 0
M  V30 2861 C 278.968 4.22872 -0.382707 0
M  V30 2862 O 279.992 3.54076 -0.388396 0
M  V30 2863 O 278.851 5.45407 -0.345463 0
M  V30 2864 H 275.945 0.82683 -0.0167505 0
M  V30 2865 H 278.491 1.50971 -0.77498 0
M  V30 2866 H 277.263 3.62028 -1.48498 0
M  V30 2867 H 276.886 3.97128 0.19373 0
M  V30 2868 N 277.883 0.443576 1.51229 0
M  V30 2869 C 279.129 -0.120975 2.02439 0
M  V30 2870 C 279.462 -1.41815 1.32674 0
M  V30 2871 O 278.737 -1.89373 0.443622 0
M  V30 2872 C 279.02 -0.333291 3.58554 0
M  V30 2873 C 278.873 0.982968 4.38928 0
M  V30 2874 C 280.192 -1.10028 4.26124 0
M  V30 2875 H 277.311 -0.0424923 0.735774 0
M  V30 2876 H 279.953 0.583794 1.80809 0
M  V30 2877 H 278.103 -0.933614 3.77115 0
M  V30 2878 H 279.775 1.61775 4.32003 0
M  V30 2879 H 278.018 1.58611 4.03763 0
M  V30 2880 H 278.689 0.788379 5.46341 0
M  V30 2881 H 281.165 -0.591711 4.11871 0
M  V30 2882 H 280.041 -1.21761 5.35225 0
M  V30 2883 H 280.302 -2.12996 3.87408 0
M  V30 2884 N 279.361 -1.56624 0.175154 0
M  V30 2885 C 280.607 -1.9729 -0.469506 0
M  V30 2886 C 280.94 -1.06128 -1.62636 0
M  V30 2887 O 280.215 -0.109183 -1.94193 0
M  V30 2888 C 280.498 -3.47375 -0.948804 0
M  V30 2889 C 280.351 -4.49317 0.208491 0
M  V30 2890 C 281.67 -4.00652 -1.82116 0
M  V30 2891 H 278.789 -0.717317 -0.16919 0
M  V30 2892 H 281.431 -1.88184 0.262062 0
M  V30 2893 H 279.581 -3.55267 -1.57219 0
M  V30 2894 H 281.253 -4.53482 0.845682 0
M  V30 2895 H 279.496 -4.25121 0.863395 0
M  V30 2896 H 280.167 -5.51741 -0.169059 0
M  V30 2897 H 282.643 -3.95416 -1.2956 0
M  V30 2898 H 281.519 -5.06075 -2.12554 0
M  V30 2899 H 281.78 -3.44699 -2.7683 0
M  V30 2900 N 280.839 0.0985539 -1.57292 0
M  V30 2901 C 282.086 0.802678 -1.85912 0
M  V30 2902 C 282.414 1.78901 -0.763186 0
M  V30 2903 O 281.669 1.94178 0.243559 0
M  V30 2904 C 281.968 1.56927 -3.21105 0
M  V30 2905 C 281.634 0.725376 -4.45027 0
M  V30 2906 C 280.296 0.492726 -4.78671 0
M  V30 2907 C 282.648 0.138493 -5.21016 0
M  V30 2908 C 279.976 -0.336727 -5.85733 0
M  V30 2909 C 282.328 -0.678264 -6.28953 0
M  V30 2910 C 280.992 -0.921039 -6.61115 0
M  V30 2911 H 280.262 0.293721 -0.680301 0
M  V30 2912 H 282.909 0.0642841 -1.91392 0
M  V30 2913 H 281.214 2.37914 -3.11294 0
M  V30 2914 H 282.911 2.11841 -3.40477 0
M  V30 2915 H 279.501 0.916815 -4.18679 0
M  V30 2916 H 283.685 0.305404 -4.95359 0
M  V30 2917 H 278.941 -0.533836 -6.09065 0
M  V30 2918 H 283.115 -1.1399 -6.87007 0
M  V30 2919 H 280.742 -1.56556 -7.43905 0
M  V30 2920 N 282.317 1.53212 0.369288 0
M  V30 2921 C 283.265 1.80054 1.47253 0
M  V30 2922 C 284.259 0.669456 1.55611 0
M  V30 2923 O 285.465 0.852328 1.58541 0
M  V30 2924 H 281.84 0.570034 0.490475 0
M  V30 2925 H 283.811 2.72403 1.21817 0
M  V30 2926 C 282.56 2.00403 2.84137 0
M  V30 2927 H 281.883 2.86876 2.78464 0
M  V30 2928 H 283.323 2.23164 3.60519 0
M  V30 2929 C 281.782 0.782081 3.27697 0
M  V30 2930 O 282.312 -0.0310205 4.01688 0
M  V30 2931 N 280.518 0.606573 2.84199 0
M  V30 2932 H 280.065 1.26939 2.24152 0
M  V30 2933 H 280.023 -0.20962 3.137 0
M  V30 2934 N 283.795 -0.628877 1.44509 0
M  V30 2935 C 285.025 -1.41349 1.50678 0
M  V30 2936 C 285.433 -1.88745 0.131075 0
M  V30 2937 O 284.776 -1.61592 -0.87371 0
M  V30 2938 C 284.838 -2.66608 2.41165 0
M  V30 2939 C 284.502 -2.40993 3.88293 0
M  V30 2940 C 285.499 -2.0268 4.78766 0
M  V30 2941 C 283.184 -2.54563 4.33016 0
M  V30 2942 C 285.178 -1.78269 6.11963 0
M  V30 2943 C 282.865 -2.29766 5.6626 0
M  V30 2944 C 283.863 -1.91678 6.55552 0
M  V30 2945 O 283.551 -1.67158 7.86329 0
M  V30 2946 H 283.283 -0.439851 0.51333 0
M  V30 2947 H 285.837 -0.776084 1.90174 0
M  V30 2948 H 284.067 -3.32994 1.96601 0
M  V30 2949 H 285.756 -3.28615 2.38259 0
M  V30 2950 H 286.522 -1.91751 4.45485 0
M  V30 2951 H 282.401 -2.83179 3.63773 0
M  V30 2952 H 285.945 -1.48465 6.81619 0
M  V30 2953 H 281.842 -2.40306 5.99102 0
M  V30 2954 H 282.61 -1.81386 7.98149 0
M  V30 2955 N 285.273 -1.31445 -0.869486 0
M  V30 2956 C 286.22 -1.19135 -1.97675 0
M  V30 2957 C 287.19 -0.0770266 -1.65921 0
M  V30 2958 O 288.375 -0.249972 -1.89155 0
M  V30 2959 C 285.515 -0.905149 -3.33018 0
M  V30 2960 C 284.628 -2.10285 -3.77365 0
M  V30 2961 C 283.763 -1.75339 -5.01427 0
M  V30 2962 C 282.802 -2.91515 -5.38224 0
M  V30 2963 N 281.939 -2.56762 -6.53466 0
M  V30 2964 H 286.779 -2.13853 -2.07535 0
M  V30 2965 H 284.316 -1.06379 -1.01597 0
M  V30 2966 H 286.274 -0.719765 -4.10944 0
M  V30 2967 H 284.904 0.00519624 -3.228 0
M  V30 2968 H 283.956 -2.39899 -2.95216 0
M  V30 2969 H 285.268 -2.97237 -4.00564 0
M  V30 2970 H 284.422 -1.53266 -5.87022 0
M  V30 2971 H 283.161 -0.855801 -4.80133 0
M  V30 2972 H 282.166 -3.14237 -4.51149 0
M  V30 2973 H 283.391 -3.81985 -5.61484 0
M  V30 2974 H 281.337 -1.69526 -6.33717 0
M  V30 2975 H 281.254 -3.37243 -6.76612 0
M  V30 2976 H 282.522 -2.38083 -7.42251 0
M  V30 2977 N 286.751 1.08385 -1.14413 0
M  V30 2978 C 287.979 1.84517 -0.936001 0
M  V30 2979 C 288.394 1.81626 0.515503 0
M  V30 2980 O 287.751 1.22008 1.35721 0
M  V30 2981 C 287.802 3.32049 -1.42918 0
M  V30 2982 O 287.523 3.34951 -2.82381 0
M  V30 2983 C 289.024 4.24986 -1.26103 0
M  V30 2984 H 286.244 0.582491 -0.333084 0
M  V30 2985 H 288.788 1.36885 -1.5193 0
M  V30 2986 H 286.943 3.7707 -0.888641 0
M  V30 2987 H 287.357 4.27048 -3.04517 0
M  V30 2988 H 288.831 5.26615 -1.6547 0
M  V30 2989 H 289.308 4.38726 -0.20392 0
M  V30 2990 H 289.914 3.85791 -1.79012 0
M  V30 2991 N 288.23 0.939286 1.26551 0
M  V30 2992 C 289.476 0.586715 1.94128 0
M  V30 2993 C 289.809 -0.8717 1.73537 0
M  V30 2994 O 289.084 -1.62339 1.07127 0
M  V30 2995 C 289.367 0.927497 3.4795 0
M  V30 2996 C 289.22 2.44052 3.77834 0
M  V30 2997 C 290.539 0.441569 4.37879 0
M  V30 2998 H 287.658 0.21463 0.705055 0
M  V30 2999 H 290.3 1.17316 1.49455 0
M  V30 3000 H 288.45 0.428431 3.8613 0
M  V30 3001 H 290.122 3.01216 3.4938 0
M  V30 3002 H 288.365 2.8848 3.23978 0
M  V30 3003 H 289.036 2.62947 4.85348 0
M  V30 3004 H 291.512 0.869448 4.06915 0
M  V30 3005 H 290.388 0.708856 5.44304 0
M  V30 3006 H 290.649 -0.658467 4.37169 0
M  V30 3007 N 289.708 -1.40897 0.706093 0
M  V30 3008 C 290.618 -2.3455 0.0482286 0
M  V30 3009 C 291.634 -1.56796 -0.754396 0
M  V30 3010 O 292.81 -1.89228 -0.689538 0
M  V30 3011 C 289.875 -3.35625 -0.869303 0
M  V30 3012 C 288.936 -4.29261 -0.0576994 0
M  V30 3013 C 288.169 -5.25508 -0.931531 0
M  V30 3014 O 288.392 -5.27472 -2.17092 0
M  V30 3015 O 287.326 -6.00727 -0.375587 0
M  V30 3016 H 291.152 -2.92407 0.820476 0
M  V30 3017 H 288.737 -1.4193 0.4665 0
M  V30 3018 H 290.619 -3.97635 -1.39514 0
M  V30 3019 H 289.294 -2.80196 -1.62086 0
M  V30 3020 H 288.201 -3.70566 0.512988 0
M  V30 3021 H 289.534 -4.87817 0.655426 0
M  V30 3022 N 291.186 -0.45159 -1.50991 0
M  V30 3023 C 292.411 0.110667 -2.07105 0
M  V30 3024 C 292.836 1.3446 -1.31538 0
M  V30 3025 O 292.194 1.77743 -0.357365 0
M  V30 3026 C 292.242 0.397238 -3.58405 0
M  V30 3027 O 291.346 1.48124 -3.84881 0
M  V30 3028 H 290.687 -0.00439271 -0.663985 0
M  V30 3029 H 293.217 -0.637026 -1.9443 0
M  V30 3030 H 293.227 0.64351 -4.02893 0
M  V30 3031 H 291.902 -0.504553 -4.12828 0
M  V30 3032 H 290.479 1.22381 -3.52246 0
M  V30 3033 N 292.664 1.56529 -0.183458 0
M  V30 3034 C 293.594 2.21549 0.737456 0
M  V30 3035 C 294.575 1.17489 1.23005 0
M  V30 3036 O 295.76 1.45959 1.281 0
M  V30 3037 C 292.89 2.86575 1.96194 0
M  V30 3038 C 291.844 3.96778 1.60473 0
M  V30 3039 C 291.17 4.48911 2.90487 0
M  V30 3040 C 292.47 5.15767 0.823497 0
M  V30 3041 H 294.164 2.98761 0.195453 0
M  V30 3042 H 291.71 1.43702 0.0925686 0
M  V30 3043 H 293.663 3.30739 2.61131 0
M  V30 3044 H 292.387 2.06749 2.52828 0
M  V30 3045 H 291.046 3.53286 0.978997 0
M  V30 3046 H 290.694 3.65862 3.45186 0
M  V30 3047 H 290.394 5.23265 2.67335 0
M  V30 3048 H 291.918 4.95771 3.56432 0
M  V30 3049 H 293.332 5.56549 1.37571 0
M  V30 3050 H 291.729 5.96114 0.690551 0
M  V30 3051 H 292.799 4.84574 -0.177782 0
M  V30 3052 N 294.142 -0.090211 1.57342 0
M  V30 3053 C 295.052 -1.12735 2.05738 0
M  V30 3054 C 296.068 -1.43557 0.983231 0
M  V30 3055 O 297.244 -1.54101 1.29672 0
M  V30 3056 C 294.309 -2.42659 2.47624 0
M  V30 3057 C 293.37 -2.18975 3.69254 0
M  V30 3058 C 292.603 -3.42704 4.09133 0
M  V30 3059 O 292.826 -4.51127 3.49057 0
M  V30 3060 O 291.76 -3.32003 5.02053 0
M  V30 3061 H 295.586 -0.746279 2.94388 0
M  V30 3062 H 293.171 -0.303064 1.46294 0
M  V30 3063 H 295.053 -3.19155 2.7517 0
M  V30 3064 H 293.728 -2.80182 1.62109 0
M  V30 3065 H 292.635 -1.40244 3.46818 0
M  V30 3066 H 293.968 -1.86342 4.55563 0
M  V30 3067 N 295.62 -1.53406 -0.361157 0
M  V30 3068 C 296.53 -1.83122 -1.4664 0
M  V30 3069 C 297.546 -0.719943 -1.58407 0
M  V30 3070 O 298.722 -1.01046 -1.74218 0
M  V30 3071 C 295.787 -2.01891 -2.81853 0
M  V30 3072 C 294.848 -3.25784 -2.79577 0
M  V30 3073 C 294.081 -3.43648 -4.0834 0
M  V30 3074 O 294.304 -2.65714 -5.0473 0
M  V30 3075 O 293.238 -4.37018 -4.13883 0
M  V30 3076 H 297.064 -2.7703 -1.24451 0
M  V30 3077 H 294.649 -1.38841 -0.551678 0
M  V30 3078 H 296.531 -2.15782 -3.61962 0
M  V30 3079 H 295.206 -1.11173 -3.0401 0
M  V30 3080 H 294.113 -3.17312 -1.98151 0
M  V30 3081 H 295.446 -4.16439 -2.62373 0
M  V30 3082 N 297.098 0.621204 -1.44841 0
M  V30 3083 C 298.326 1.40752 -1.51646 0
M  V30 3084 C 298.741 1.88246 -0.144549 0
M  V30 3085 O 298.098 1.61422 0.851416 0
M  V30 3086 C 298.149 2.62119 -2.4895 0
M  V30 3087 O 297.87 2.16602 -3.80808 0
M  V30 3088 C 299.371 3.55135 -2.65319 0
M  V30 3089 H 296.591 0.431325 -0.514004 0
M  V30 3090 H 299.135 0.758835 -1.899 0
M  V30 3091 H 297.29 3.23058 -2.13805 0
M  V30 3092 H 297.704 2.95358 -4.33433 0
M  V30 3093 H 299.178 4.36874 -3.37409 0
M  V30 3094 H 299.655 4.04592 -1.70886 0
M  V30 3095 H 300.261 3.00058 -3.01405 0
M  V30 3096 N 298.576 1.31904 0.862503 0
M  V30 3097 C 299.506 1.22782 1.98612 0
M  V30 3098 C 300.487 0.113362 1.69722 0
M  V30 3099 O 301.672 0.299218 1.91881 0
M  V30 3100 C 298.802 0.942058 3.34279 0
M  V30 3101 C 297.756 2.0169 3.77499 0
M  V30 3102 C 297.082 1.58369 5.10709 0
M  V30 3103 C 298.382 3.43096 3.93805 0
M  V30 3104 H 300.076 2.16788 2.06502 0
M  V30 3105 H 297.622 1.04366 0.992154 0
M  V30 3106 H 299.575 0.864818 4.1243 0
M  V30 3107 H 298.299 -0.0336603 3.26583 0
M  V30 3108 H 296.958 2.08416 3.01593 0
M  V30 3109 H 296.606 0.595628 4.99461 0
M  V30 3110 H 296.306 2.30279 5.40597 0
M  V30 3111 H 297.83 1.52067 5.91361 0
M  V30 3112 H 299.244 3.39003 4.62331 0
M  V30 3113 H 297.641 4.13288 4.35101 0
M  V30 3114 H 298.711 3.83334 2.96957 0
M  V30 3115 N 300.054 -1.07777 1.14986 0
M  V30 3116 C 301.001 -2.14867 0.842672 0
M  V30 3117 C 301.971 -1.6486 -0.202552 0
M  V30 3118 O 303.156 -1.90668 -0.0710568 0
M  V30 3119 C 300.296 -3.43486 0.333363 0
M  V30 3120 C 299.409 -4.07306 1.43965 0
M  V30 3121 C 298.544 -5.23744 0.886914 0
M  V30 3122 C 297.583 -5.79517 1.97043 0
M  V30 3123 N 296.72 -6.87291 1.4344 0
M  V30 3124 H 301.56 -2.40485 1.75986 0
M  V30 3125 H 299.097 -1.1801 0.878179 0
M  V30 3126 H 301.055 -4.17195 0.0198163 0
M  V30 3127 H 299.685 -3.18133 -0.546916 0
M  V30 3128 H 298.737 -3.31293 1.86946 0
M  V30 3129 H 300.049 -4.44771 2.25788 0
M  V30 3130 H 299.203 -6.04419 0.525651 0
M  V30 3131 H 297.942 -4.87685 0.0377957 0
M  V30 3132 H 296.947 -4.97491 2.34057 0
M  V30 3133 H 298.172 -6.17632 2.82325 0
M  V30 3134 H 296.118 -6.5318 0.607567 0
M  V30 3135 H 296.035 -7.23617 2.18895 0
M  V30 3136 H 297.303 -7.71682 1.10124 0
M  V30 3137 N 301.532 -0.945985 -1.26051 0
M  V30 3138 C 302.479 -0.45809 -2.26208 0
M  V30 3139 C 303.449 0.484816 -1.58867 0
M  V30 3140 O 304.634 0.399969 -1.86561 0
M  V30 3141 C 301.774 0.266131 -3.44072 0
M  V30 3142 C 300.887 -0.713005 -4.26075 0
M  V30 3143 C 300.022 0.0329013 -5.3119 0
M  V30 3144 C 299.061 -0.93774 -6.04874 0
M  V30 3145 N 298.198 -0.223274 -7.01745 0
M  V30 3146 H 303.038 -1.3171 -2.67313 0
M  V30 3147 H 300.575 -0.66069 -1.31428 0
M  V30 3148 H 302.533 0.702514 -4.11243 0
M  V30 3149 H 301.163 1.08925 -3.03867 0
M  V30 3150 H 300.215 -1.26789 -3.58648 0
M  V30 3151 H 301.527 -1.45406 -4.77136 0
M  V30 3152 H 300.681 0.528335 -6.04395 0
M  V30 3153 H 299.42 0.806801 -4.8098 0
M  V30 3154 H 298.425 -1.44425 -5.30492 0
M  V30 3155 H 299.65 -1.71172 -6.57173 0
M  V30 3156 H 297.596 0.532046 -6.53839 0
M  V30 3157 H 297.513 -0.90357 -7.50581 0
M  V30 3158 H 298.781 0.250907 -7.79096 0
M  V30 3159 N 303.011 1.40521 -0.713556 0
M  V30 3160 C 303.974 2.29098 -0.0684347 0
M  V30 3161 C 304.974 1.45268 0.689472 0
M  V30 3162 O 306.164 1.66205 0.521677 0
M  V30 3163 C 303.296 3.28446 0.913024 0
M  V30 3164 H 304.489 2.87645 -0.84855 0
M  V30 3165 H 302.042 1.48809 -0.47809 0
M  V30 3166 H 302.777 2.74913 1.72027 0
M  V30 3167 H 302.562 3.90327 0.372472 0
M  V30 3168 H 304.052 3.94777 1.36165 0
M  V30 3169 N 304.489 0.459591 1.5075 0
M  V30 3170 C 305.714 -0.0996819 2.0716 0
M  V30 3171 C 306.139 -1.33761 1.32249 0
M  V30 3172 O 305.497 -1.77551 0.366786 0
M  V30 3173 C 305.545 -0.378226 3.58611 0
M  V30 3174 O 304.649 -1.46081 3.85661 0
M  V30 3175 H 303.99 0.00791392 0.663953 0
M  V30 3176 H 306.52 0.647329 1.9409 0
M  V30 3177 H 306.53 -0.622135 4.03229 0
M  V30 3178 H 305.205 0.526439 4.12555 0
M  V30 3179 H 303.782 -1.20511 3.5289 0
M  V30 3180 N 305.967 -1.56429 0.191757 0
M  V30 3181 C 307.378 -1.83912 -0.321428 0
M  V30 3182 C 307.729 -1.11231 -1.61623 0
M  V30 3183 O 306.854 -0.37202 -2.13178 0
M  V30 3184 C 307.449 -3.33624 -0.589961 0
M  V30 3185 C 306.008 -3.6153 -1.04753 0
M  V30 3186 C 305.155 -2.7714 -0.0943327 0
M  V30 3187 H 308.106 -1.53161 0.415612 0
M  V30 3188 H 308.127 -3.52213 -1.43966 0
M  V30 3189 H 307.639 -3.86495 0.352588 0
M  V30 3190 H 305.74 -3.14089 -2.00447 0
M  V30 3191 H 305.853 -4.69737 -0.942549 0
M  V30 3192 H 304.217 -2.47638 -0.595589 0
M  V30 3193 H 305 -3.32799 0.842601 0
M  V30 3194 N 307.445 0.0818655 -1.57387 0
M  V30 3195 C 308.722 0.815343 -1.77796 0
M  V30 3196 C 309.102 1.96289 -0.77679 0
M  V30 3197 O 308.45 2.27691 0.192106 0
M  V30 3198 C 308.66 1.29765 -3.23978 0
M  V30 3199 C 310.008 1.7351 -3.8753 0
M  V30 3200 O 311.032 1.39356 -3.27808 0
M  V30 3201 O 309.891 2.36708 -4.92576 0
M  V30 3202 H 306.985 0.389914 -0.729312 0
M  V30 3203 H 309.531 0.0627213 -1.69584 0
M  V30 3204 H 308.303 0.47608 -3.88393 0
M  V30 3205 H 307.926 2.11189 -3.36875 0
M  V30 3206 N 308.923 1.53595 0.353017 0
M  V30 3207 C 310.171 1.70049 1.09215 0
M  V30 3208 C 310.492 0.461406 1.89463 0
M  V30 3209 O 309.762 -0.524633 1.88744 0
M  V30 3210 H 308.342 0.626912 0.40619 0
M  V30 3211 H 311.004 1.90822 0.396585 0
M  V30 3212 H 310.1 2.56718 1.77488 0
M  V30 3213 N 310.401 -0.613514 1.45168 0
M  V30 3214 C 311.631 -1.39743 1.52169 0
M  V30 3215 C 312.039 -1.88596 0.151086 0
M  V30 3216 O 311.382 -1.6251 -0.856521 0
M  V30 3217 C 311.444 -2.64035 2.43979 0
M  V30 3218 C 311.108 -2.36861 3.90827 0
M  V30 3219 C 312.105 -1.97591 4.80889 0
M  V30 3220 C 309.79 -2.49956 4.35692 0
M  V30 3221 C 311.784 -1.71768 6.1382 0
M  V30 3222 C 309.471 -2.23747 5.68665 0
M  V30 3223 C 310.469 -1.84714 6.57548 0
M  V30 3224 O 310.157 -1.58809 7.88058 0
M  V30 3225 H 309.889 -0.434382 0.517966 0
M  V30 3226 H 312.443 -0.75587 1.90986 0
M  V30 3227 H 310.673 -3.3089 2.00122 0
M  V30 3228 H 312.362 -3.26069 2.41731 0
M  V30 3229 H 313.128 -1.87015 4.47493 0
M  V30 3230 H 309.007 -2.79305 3.66756 0
M  V30 3231 H 312.551 -1.41227 6.83155 0
M  V30 3232 H 308.448 -2.33938 6.01617 0
M  V30 3233 H 309.216 -1.7291 8.00028 0
M  V30 3234 N 311.879 -1.3236 -0.855495 0
M  V30 3235 C 313.156 -1.13491 -1.59309 0
M  V30 3236 C 313.536 0.30503 -2.08885 0
M  V30 3237 O 312.884 1.30151 -1.87811 0
M  V30 3238 C 313.094 -2.16176 -2.73987 0
M  V30 3239 C 314.442 -2.49463 -3.43589 0
M  V30 3240 O 315.466 -2.14715 -2.84211 0
M  V30 3241 O 314.325 -3.09027 -4.50738 0
M  V30 3242 H 311.419 -0.437887 -0.701559 0
M  V30 3243 H 313.965 -1.43887 -0.899696 0
M  V30 3244 H 312.737 -3.1297 -2.34873 0
M  V30 3245 H 312.36 -1.86769 -3.51003 0
M  V30 3246 N 313.357 1.07166 -1.15556 0
M  V30 3247 C 314.597 1.81391 -0.94216 0
M  V30 3248 C 314.961 1.84788 0.521272 0
M  V30 3249 O 316.162 2.54904 0.85307 0
M  V30 3250 C 314.433 3.22431 -1.54185 0
M  V30 3251 S 315.992 4.13379 -1.47183 0
M  V30 3252 H 312.81 0.624963 -0.339031 0
M  V30 3253 H 315.412 1.28725 -1.4714 0
M  V30 3254 H 314.116 3.17548 -2.59984 0
M  V30 3255 H 313.647 3.80172 -1.01156 0
M  V30 3256 H 315.662 4.94007 -0.466004 0
M  V30 3257 N 314.835 0.952656 1.25548 0
M  V30 3258 C 316.065 0.622592 1.96996 0
M  V30 3259 C 316.473 -0.809112 1.71026 0
M  V30 3260 O 315.816 -1.55258 0.981861 0
M  V30 3261 C 315.878 0.798946 3.5051 0
M  V30 3262 C 315.542 2.20744 4.00151 0
M  V30 3263 C 316.539 3.18394 4.11001 0
M  V30 3264 C 314.224 2.5311 4.33867 0
M  V30 3265 C 316.218 4.46504 4.54877 0
M  V30 3266 C 313.905 3.8145 4.7743 0
M  V30 3267 C 314.903 4.77959 4.87897 0
M  V30 3268 O 314.591 6.04012 5.30494 0
M  V30 3269 H 314.323 0.232503 0.634758 0
M  V30 3270 H 316.877 1.2789 1.60728 0
M  V30 3271 H 315.107 0.0854903 3.86605 0
M  V30 3272 H 316.796 0.47023 4.03167 0
M  V30 3273 H 317.562 2.94715 3.85186 0
M  V30 3274 H 313.441 1.78719 4.24948 0
M  V30 3275 H 316.985 5.21835 4.62962 0
M  V30 3276 H 312.882 4.04936 5.0269 0
M  V30 3277 H 313.65 6.0736 5.48685 0
M  V30 3278 N 316.313 -1.40141 0.720998 0
M  V30 3279 C 317.56 -2.00787 0.262842 0
M  V30 3280 C 317.888 -1.5718 -1.14563 0
M  V30 3281 O 317.143 -0.785391 -1.79249 0
M  V30 3282 C 317.442 -3.56165 0.296892 0
M  V30 3283 C 317.108 -4.19373 1.65641 0
M  V30 3284 C 315.77 -4.36352 2.02855 0
M  V30 3285 C 318.122 -4.54578 2.54968 0
M  V30 3286 C 315.45 -4.8582 3.28931 0
M  V30 3287 C 317.802 -5.05447 3.80402 0
M  V30 3288 C 316.466 -5.20635 4.17726 0
M  V30 3289 H 315.736 -0.734731 0.0961807 0
M  V30 3290 H 318.383 -1.67673 0.925093 0
M  V30 3291 H 316.688 -3.8922 -0.448932 0
M  V30 3292 H 318.385 -4.00929 -0.0755208 0
M  V30 3293 H 314.975 -4.06549 1.35704 0
M  V30 3294 H 319.159 -4.41091 2.27491 0
M  V30 3295 H 314.415 -4.95764 3.57811 0
M  V30 3296 H 318.589 -5.31663 4.49786 0
M  V30 3297 H 316.216 -5.58728 5.15487 0
M  V30 3298 N 317.792 -0.46758 -1.50504 0
M  V30 3299 C 319.069 0.15003 -1.95024 0
M  V30 3300 C 319.449 1.57304 -1.40779 0
M  V30 3301 O 318.797 2.20281 -0.607319 0
M  V30 3302 C 319.007 0.0969324 -3.48865 0
M  V30 3303 C 320.355 0.287565 -4.23625 0
M  V30 3304 O 321.379 0.173678 -3.55776 0
M  V30 3305 O 320.238 0.517186 -5.44047 0
M  V30 3306 H 317.332 0.113582 -0.819163 0
M  V30 3307 H 319.878 -0.52773 -1.61286 0
M  V30 3308 H 318.65 -0.896732 -3.80886 0
M  V30 3309 H 318.273 0.816303 -3.8913 0
M  V30 3310 N 319.27 1.56325 -0.20005 0
M  V30 3311 C 320.218 2.20666 0.735482 0
M  V30 3312 C 321.212 1.17934 1.21605 0
M  V30 3313 O 322.418 1.36068 1.17837 0
M  V30 3314 H 318.793 0.70725 0.255542 0
M  V30 3315 H 320.764 2.9792 0.169166 0
M  V30 3316 C 319.513 2.88391 1.94232 0
M  V30 3317 H 318.836 3.67185 1.58161 0
M  V30 3318 H 320.276 3.3684 2.57517 0
M  V30 3319 C 318.735 1.89692 2.78421 0
M  V30 3320 O 319.265 1.40032 3.76502 0
M  V30 3321 N 317.471 1.57813 2.44015 0
M  V30 3322 H 317.018 1.9839 1.64314 0
M  V30 3323 H 316.976 0.920325 3.00628 0
M  V30 3324 N 320.748 -0.0735177 1.57428 0
M  V30 3325 C 321.994 -0.774145 1.87443 0
M  V30 3326 C 322.327 -1.77311 0.792103 0
M  V30 3327 O 321.602 -1.93492 -0.197793 0
M  V30 3328 C 321.885 -1.48367 3.28115 0
M  V30 3329 C 321.738 -0.501227 4.46999 0
M  V30 3330 C 323.057 -2.429 3.66998 0
M  V30 3331 H 320.176 -0.279971 0.681752 0
M  V30 3332 H 322.818 -0.0373616 1.89963 0
M  V30 3333 H 320.968 -2.11171 3.26097 0
M  V30 3334 H 322.64 0.121468 4.6114 0
M  V30 3335 H 320.883 0.183593 4.33411 0
M  V30 3336 H 321.554 -1.03526 5.42205 0
M  V30 3337 H 324.03 -1.90175 3.70098 0
M  V30 3338 H 322.906 -2.89549 4.66318 0
M  V30 3339 H 323.167 -3.27628 2.96837 0
M  V30 3340 N 322.226 -1.5378 -0.344866 0
M  V30 3341 C 323.474 -1.70625 -1.08311 0
M  V30 3342 C 323.795 -0.471447 -1.89215 0
M  V30 3343 O 323.065 0.514616 -1.8902 0
M  V30 3344 H 321.645 -0.629058 -0.402859 0
M  V30 3345 H 324.307 -1.9103 -0.386459 0
M  V30 3346 H 323.403 -2.57656 -1.76124 0
M  V30 3347 N 323.704 0.605807 -1.45491 0
M  V30 3348 C 324.952 1.36207 -1.49305 0
M  V30 3349 C 325.273 1.94519 -0.136863 0
M  V30 3350 O 324.543 1.77261 0.833983 0
M  V30 3351 H 323.123 0.50565 -0.549843 0
M  V30 3352 H 325.785 0.711239 -1.81459 0
M  V30 3353 H 324.881 2.18058 -2.23287 0
M  V30 3354 N 325.182 1.32811 0.848464 0
M  V30 3355 C 326.092 1.24278 1.98978 0
M  V30 3356 C 327.108 0.155176 1.73307 0
M  V30 3357 O 328.284 0.376999 1.9784 0
M  V30 3358 C 325.349 0.972444 3.32783 0
M  V30 3359 C 324.41 2.14911 3.71634 0
M  V30 3360 C 323.643 1.89157 4.99054 0
M  V30 3361 O 323.866 0.837165 5.64223 0
M  V30 3362 O 322.8 2.75433 5.35183 0
M  V30 3363 H 326.626 2.20238 2.09115 0
M  V30 3364 H 324.211 1.12762 0.980052 0
M  V30 3365 H 326.093 0.838432 4.12975 0
M  V30 3366 H 324.768 0.043051 3.23671 0
M  V30 3367 H 323.675 2.33862 2.91992 0
M  V30 3368 H 325.008 3.06151 3.85399 0
M  V30 3369 N 326.66 -1.06551 1.16123 0
M  V30 3370 C 327.907 -1.79302 0.941126 0
M  V30 3371 C 328.235 -1.87105 -0.531235 0
M  V30 3372 O 327.49 -1.35692 -1.41018 0
M  V30 3373 C 327.789 -3.23911 1.51052 0
M  V30 3374 C 327.455 -3.36193 3.00475 0
M  V30 3375 C 326.117 -3.39252 3.41265 0
M  V30 3376 C 328.469 -3.38326 3.96465 0
M  V30 3377 C 325.797 -3.42057 4.76669 0
M  V30 3378 C 328.149 -3.4267 5.31752 0
M  V30 3379 C 326.813 -3.4401 5.72026 0
M  V30 3380 H 326.083 -0.656111 0.344382 0
M  V30 3381 H 328.73 -1.25325 1.44796 0
M  V30 3382 H 327.035 -3.80723 0.925063 0
M  V30 3383 H 328.732 -3.78793 1.31593 0
M  V30 3384 H 325.322 -3.34516 2.6795 0
M  V30 3385 H 329.506 -3.35176 3.6602 0
M  V30 3386 H 324.762 -3.41398 5.07206 0
M  V30 3387 H 328.936 -3.43268 6.05921 0
M  V30 3388 H 326.563 -3.45937 6.76928 0
M  V30 3389 N 328.138 -0.959301 -1.25041 0
M  V30 3390 C 329.363 -0.633507 -1.97488 0
M  V30 3391 C 329.788 0.788555 -1.70773 0
M  V30 3392 O 329.146 1.53394 -0.966431 0
M  V30 3393 C 329.194 -0.904057 -3.49083 0
M  V30 3394 O 328.298 0.0147939 -4.12397 0
M  V30 3395 H 327.639 -0.240368 -0.618966 0
M  V30 3396 H 330.169 -1.28717 -1.59038 0
M  V30 3397 H 330.179 -0.832203 -3.99423 0
M  V30 3398 H 328.854 -1.94048 -3.67856 0
M  V30 3399 H 327.431 -0.109664 -3.72739 0
M  V30 3400 N 329.616 1.39756 -0.72842 0
M  V30 3401 C 330.564 2.32485 -0.0731849 0
M  V30 3402 C 331.558 1.52717 0.733063 0
M  V30 3403 O 332.764 1.68428 0.634988 0
M  V30 3404 H 329.139 0.751984 -0.00486469 0
M  V30 3405 H 331.11 2.85382 -0.871761 0
M  V30 3406 C 329.859 3.37773 0.824908 0
M  V30 3407 H 329.182 3.99227 0.213915 0
M  V30 3408 H 330.622 4.05121 1.25111 0
M  V30 3409 C 329.081 2.74287 1.95622 0
M  V30 3410 O 329.611 2.61618 3.04826 0
M  V30 3411 N 327.817 2.32475 1.74367 0
M  V30 3412 H 327.364 2.4298 0.855494 0
M  V30 3413 H 327.322 1.90337 2.50238 0
M  V30 3414 N 331.094 0.475555 1.50254 0
M  V30 3415 C 332.322 -0.0754493 2.06762 0
M  V30 3416 C 332.737 -1.33111 1.33891 0
M  V30 3417 O 332.094 -1.77846 0.40952 0
M  V30 3418 C 332.145 -0.359008 3.59713 0
M  V30 3419 O 331.866 0.846851 4.29837 0
M  V30 3420 C 333.367 -0.956484 4.32858 0
M  V30 3421 H 330.587 0.00907525 0.670939 0
M  V30 3422 H 333.131 0.665618 1.93364 0
M  V30 3423 H 331.286 -1.05001 3.72899 0
M  V30 3424 H 331.7 0.594162 5.21124 0
M  V30 3425 H 333.174 -1.10463 5.40834 0
M  V30 3426 H 333.651 -1.94775 3.93649 0
M  V30 3427 H 334.257 -0.303723 4.24214 0
M  V30 3428 N 332.573 -1.56217 0.208337 0
M  V30 3429 C 333.819 -1.98242 -0.427552 0
M  V30 3430 C 334.152 -1.09554 -1.60348 0
M  V30 3431 O 333.427 -0.15035 -1.93918 0
M  V30 3432 C 333.71 -3.4931 -0.874907 0
M  V30 3433 C 333.563 -4.48773 0.303751 0
M  V30 3434 C 334.882 -4.04424 -1.73577 0
M  V30 3435 H 332.001 -0.720744 -0.153936 0
M  V30 3436 H 334.643 -1.87586 0.30192 0
M  V30 3437 H 332.793 -3.58522 -1.49648 0
M  V30 3438 H 334.465 -4.51586 0.941682 0
M  V30 3439 H 332.708 -4.23194 0.953375 0
M  V30 3440 H 333.379 -5.51976 -0.0519883 0
M  V30 3441 H 335.855 -3.98075 -1.21143 0
M  V30 3442 H 334.731 -5.1047 -2.01771 0
M  V30 3443 H 334.992 -3.50494 -2.69456 0
M  V30 3444 N 334.051 0.0651679 -1.57465 0
M  V30 3445 C 335.3 0.761916 -1.86756 0
M  V30 3446 C 335.613 1.78406 -0.801925 0
M  V30 3447 O 336.819 2.53084 -0.982885 0
M  V30 3448 C 335.275 1.40603 -3.31299 0
M  V30 3449 C 334.883 0.422115 -4.46007 0
M  V30 3450 C 336.627 2.08476 -3.69781 0
M  V30 3451 C 334.534 1.07252 -5.81593 0
M  V30 3452 H 333.464 0.288308 -0.696702 0
M  V30 3453 H 336.115 0.015344 -1.83494 0
M  V30 3454 H 334.497 2.20109 -3.29193 0
M  V30 3455 H 335.671 -0.343613 -4.59517 0
M  V30 3456 H 333.986 -0.152527 -4.16121 0
M  V30 3457 H 336.583 2.57925 -4.68379 0
M  V30 3458 H 336.926 2.88712 -2.99919 0
M  V30 3459 H 337.459 1.35792 -3.73905 0
M  V30 3460 H 334.198 0.310342 -6.54765 0
M  V30 3461 H 333.718 1.80895 -5.71872 0
M  V30 3462 H 335.397 1.59043 -6.27148 0
M  V30 3463 N 335.529 1.53961 0.336706 0
M  V30 3464 C 336.777 1.71197 1.07405 0
M  V30 3465 C 337.098 0.481475 1.88962 0
M  V30 3466 O 336.368 -0.504585 1.8929 0
M  V30 3467 H 334.948 0.631185 0.399517 0
M  V30 3468 H 337.61 1.91232 0.376323 0
M  V30 3469 H 336.706 2.58587 1.74755 0
M  V30 3470 N 337.007 -0.598083 1.45811 0
M  V30 3471 C 337.939 -1.72231 1.51225 0
M  V30 3472 C 338.952 -1.57757 0.402059 0
M  V30 3473 O 340.141 -1.65464 0.669624 0
M  V30 3474 C 337.241 -3.10331 1.3619 0
M  V30 3475 C 336.414 -3.50955 2.61054 0
M  V30 3476 C 335.473 -4.68055 2.40439 0
M  V30 3477 O 334.499 -4.74691 3.14097 0
M  V30 3478 N 335.701 -5.61941 1.45612 0
M  V30 3479 H 338.466 -1.68046 2.48154 0
M  V30 3480 H 336.027 -0.783637 1.41671 0
M  V30 3481 H 338.019 -3.86439 1.20195 0
M  V30 3482 H 336.589 -3.0897 0.475015 0
M  V30 3483 H 335.809 -2.64711 2.92099 0
M  V30 3484 H 337.097 -3.74858 3.44034 0
M  V30 3485 H 336.495 -5.59301 0.848431 0
M  V30 3486 H 335.052 -6.37542 1.35585 0
M  V30 3487 N 338.485 -1.33259 -0.841409 0
M  V30 3488 C 339.418 -1.1764 -1.95541 0
M  V30 3489 C 340.396 -0.072501 -1.62438 0
M  V30 3490 O 341.58 -0.23427 -1.87039 0
M  V30 3491 C 338.707 -0.803794 -3.29024 0
M  V30 3492 C 337.753 -1.91482 -3.81099 0
M  V30 3493 S 338.586 -3.52538 -4.03085 0
M  V30 3494 C 339.742 -3.17279 -5.39523 0
M  V30 3495 H 339.975 -2.11941 -2.08491 0
M  V30 3496 H 337.508 -1.18072 -0.9949 0
M  V30 3497 H 339.466 -0.595592 -4.06156 0
M  V30 3498 H 338.127 0.120574 -3.13868 0
M  V30 3499 H 337.32 -1.60742 -4.7768 0
M  V30 3500 H 336.922 -2.07956 -3.10854 0
M  V30 3501 H 339.214 -2.67946 -6.22263 0
M  V30 3502 H 340.157 -4.1293 -5.75234 0
M  V30 3503 H 340.565 -2.53943 -5.04156 0
M  V30 3504 N 339.963 1.05934 -1.16686 0
M  V30 3505 C 340.91 2.13499 -0.876748 0
M  V30 3506 C 341.88 1.65162 0.176299 0
M  V30 3507 O 343.065 1.90757 0.0407143 0
M  V30 3508 C 340.205 3.42912 -0.387967 0
M  V30 3509 C 339.318 4.04964 -1.50426 0
M  V30 3510 C 338.453 5.22266 -0.970125 0
M  V30 3511 C 337.492 5.76309 -2.06238 0
M  V30 3512 N 336.629 6.84922 -1.54356 0
M  V30 3513 H 341.469 2.37654 -1.7979 0
M  V30 3514 H 339.006 1.16598 -0.896843 0
M  V30 3515 H 340.964 4.17111 -0.086186 0
M  V30 3516 H 339.594 3.18963 0.496235 0
M  V30 3517 H 338.646 3.28277 -1.92193 0
M  V30 3518 H 339.958 4.41122 -2.32836 0
M  V30 3519 H 339.112 6.03506 -0.621743 0
M  V30 3520 H 337.851 4.87564 -0.115377 0
M  V30 3521 H 336.856 4.93704 -2.41942 0
M  V30 3522 H 338.081 6.13062 -2.92115 0
M  V30 3523 H 336.027 6.52131 -0.711406 0
M  V30 3524 H 335.944 7.20043 -2.30379 0
M  V30 3525 H 337.212 7.69832 -1.22387 0
M  V30 3526 N 341.441 0.965919 1.2453 0
M  V30 3527 C 342.388 0.49402 2.25451 0
M  V30 3528 C 343.358 -0.45948 1.59618 0
M  V30 3529 O 344.543 -0.370238 1.87173 0
M  V30 3530 C 341.683 -0.211359 3.44452 0
M  V30 3531 C 340.796 0.7807 4.24887 0
M  V30 3532 C 339.931 0.0516105 5.31175 0
M  V30 3533 C 338.97 1.03385 6.03306 0
M  V30 3534 N 338.107 0.334887 7.01301 0
M  V30 3535 H 342.947 1.35946 2.65184 0
M  V30 3536 H 340.484 0.681515 1.3036 0
M  V30 3537 H 342.442 -0.637 4.12308 0
M  V30 3538 H 341.072 -1.04077 3.05562 0
M  V30 3539 H 340.124 1.32479 3.56586 0
M  V30 3540 H 341.436 1.52978 4.74762 0
M  V30 3541 H 340.59 -0.432114 6.05159 0
M  V30 3542 H 339.329 -0.730179 4.82203 0
M  V30 3543 H 338.334 1.52847 5.28127 0
M  V30 3544 H 339.559 1.81606 6.54367 0
M  V30 3545 H 337.505 -0.427959 6.54603 0
M  V30 3546 H 337.422 1.02287 7.49048 0
M  V30 3547 H 338.69 -0.126928 7.79397 0
M  V30 3548 N 342.919 -1.39368 0.735821 0
M  V30 3549 C 344.166 -2.00497 0.284123 0
M  V30 3550 C 344.494 -1.58387 -1.12889 0
M  V30 3551 O 343.749 -0.804359 -1.78406 0
M  V30 3552 C 344.048 -3.5583 0.334651 0
M  V30 3553 C 343.714 -4.17593 1.7008 0
M  V30 3554 C 342.376 -4.34176 2.07472 0
M  V30 3555 C 344.728 -4.51848 2.59775 0
M  V30 3556 C 342.056 -4.82304 3.34065 0
M  V30 3557 C 344.408 -5.01384 3.85741 0
M  V30 3558 C 343.072 -5.16175 4.23225 0
M  V30 3559 H 342.342 -0.73367 0.103968 0
M  V30 3560 H 344.989 -1.66683 0.942825 0
M  V30 3561 H 343.294 -3.89674 -0.407625 0
M  V30 3562 H 344.991 -4.00986 -0.0329927 0
M  V30 3563 H 341.581 -4.05087 1.40008 0
M  V30 3564 H 345.765 -4.38653 2.32157 0
M  V30 3565 H 341.021 -4.91941 3.63049 0
M  V30 3566 H 345.195 -5.26863 4.55399 0
M  V30 3567 H 342.822 -5.5323 5.21384 0
M  V30 3568 N 344.397 -0.483516 -1.5 0
M  V30 3569 C 345.645 0.067027 -2.01989 0
M  V30 3570 C 345.966 1.3909 -1.36671 0
M  V30 3571 O 345.236 1.88978 -0.516152 0
M  V30 3572 H 343.816 0.0277606 -0.746484 0
M  V30 3573 H 346.478 -0.636773 -1.84204 0
M  V30 3574 H 345.574 0.209484 -3.11396 0
M  V30 3575 N 345.875 1.56104 -0.216619 0
M  V30 3576 C 347.291 1.58995 0.13886 0
M  V30 3577 C 347.491 1.23333 1.59346 0
M  V30 3578 O 346.547 0.966234 2.33281 0
M  V30 3579 C 347.86 3.00143 -0.182968 0
M  V30 3580 C 349.408 3.12751 -0.124807 0
M  V30 3581 C 349.883 4.56068 -0.420241 0
M  V30 3582 N 351.374 4.61723 -0.369634 0
M  V30 3583 C 352.109 5.70542 -0.571789 0
M  V30 3584 N 351.605 6.87744 -0.835453 0
M  V30 3585 N 353.398 5.59831 -0.504563 0
M  V30 3586 H 345.549 1.77562 -1.16557 0
M  V30 3587 H 347.812 0.825091 -0.466828 0
M  V30 3588 H 347.518 3.30871 -1.19237 0
M  V30 3589 H 347.392 3.73813 0.504367 0
M  V30 3590 H 349.779 2.81822 0.875223 0
M  V30 3591 H 349.86 2.41421 -0.845544 0
M  V30 3592 H 349.504 4.87713 -1.41769 0
M  V30 3593 H 349.434 5.25617 0.321631 0
M  V30 3594 H 351.925 3.77502 -0.173338 0
M  V30 3595 H 352.238 7.66587 -0.977938 0
M  V30 3596 H 350.583 6.895 -0.872592 0
M  V30 3597 H 353.774 4.67145 -0.298842 0
M  V30 3598 H 353.947 6.44573 -0.665519 0
M  V30 3599 N 347.353 -0.0568162 1.57498 0
M  V30 3600 C 348.602 -0.752001 1.87157 0
M  V30 3601 C 348.915 -1.77978 0.811375 0
M  V30 3602 O 350.121 -2.52559 0.996293 0
M  V30 3603 C 348.577 -1.38844 3.3204 0
M  V30 3604 C 348.185 -0.398456 4.46225 0
M  V30 3605 C 349.929 -2.06512 3.70882 0
M  V30 3606 C 347.836 -1.04166 5.82154 0
M  V30 3607 H 346.766 -0.28461 0.698222 0
M  V30 3608 H 349.417 -0.00561272 1.83499 0
M  V30 3609 H 347.799 -2.1836 3.30356 0
M  V30 3610 H 348.973 0.367977 4.59328 0
M  V30 3611 H 347.288 0.174592 4.16034 0
M  V30 3612 H 349.885 -2.55437 4.6974 0
M  V30 3613 H 350.228 -2.87117 3.01445 0
M  V30 3614 H 350.761 -1.33808 3.7462 0
M  V30 3615 H 347.5 -0.275614 6.5492 0
M  V30 3616 H 347.02 -1.7786 5.72823 0
M  V30 3617 H 348.699 -1.55715 6.27982 0
M  V30 3618 N 348.832 -1.54138 -0.328536 0
M  V30 3619 C 349.795 -1.82462 -1.38709 0
M  V30 3620 C 350.795 -0.696229 -1.44946 0
M  V30 3621 O 351.985 -0.964535 -1.4506 0
M  V30 3622 C 349.117 -1.98018 -2.77492 0
M  V30 3623 H 350.31 -2.77037 -1.14851 0
M  V30 3624 H 347.863 -1.45779 -0.563751 0
M  V30 3625 H 348.598 -1.05637 -3.06613 0
M  V30 3626 H 348.383 -2.80124 -2.74359 0
M  V30 3627 H 349.873 -2.21396 -3.54081 0
M  V30 3628 N 350.31 0.590341 -1.46126 0
M  V30 3629 C 351.559 1.34499 -1.50309 0
M  V30 3630 C 351.872 1.94977 -0.156021 0
M  V30 3631 O 353.078 2.71395 -0.0756037 0
M  V30 3632 C 351.534 2.43723 -2.64815 0
M  V30 3633 C 351.142 1.89582 -4.0591 0
M  V30 3634 C 352.886 3.20579 -2.78262 0
M  V30 3635 C 350.793 2.9639 -5.11769 0
M  V30 3636 H 349.723 0.505593 -0.559368 0
M  V30 3637 H 352.374 0.630848 -1.72315 0
M  V30 3638 H 350.756 3.17902 -2.36124 0
M  V30 3639 H 351.93 1.21997 -4.44357 0
M  V30 3640 H 350.245 1.25418 -3.97063 0
M  V30 3641 H 352.842 4.00276 -3.54519 0
M  V30 3642 H 353.185 3.72684 -1.85505 0
M  V30 3643 H 353.718 2.53505 -3.06562 0
M  V30 3644 H 350.457 2.49181 -6.06291 0
M  V30 3645 H 349.977 3.62487 -4.77873 0
M  V30 3646 H 351.656 3.60474 -5.37278 0
M  V30 3647 N 351.788 1.33704 0.83433 0
M  V30 3648 C 353.028 1.26754 1.60352 0
M  V30 3649 C 353.392 -0.163182 1.91305 0
M  V30 3650 O 354.593 -0.3567 2.66423 0
M  V30 3651 C 352.864 2.12262 2.8754 0
M  V30 3652 S 354.423 2.22549 3.78176 0
M  V30 3653 H 351.241 0.450879 0.549753 0
M  V30 3654 H 353.843 1.68788 0.986444 0
M  V30 3655 H 352.547 3.15238 2.62779 0
M  V30 3656 H 352.078 1.71082 3.54252 0
M  V30 3657 H 354.093 1.3899 4.76336 0
M  V30 3658 N 353.266 -1.05314 1.17247 0
M  V30 3659 C 354.514 -1.77941 0.958194 0
M  V30 3660 C 354.835 -1.88089 -0.514556 0
M  V30 3661 O 354.105 -1.39676 -1.37359 0
M  V30 3662 H 352.685 -0.659116 0.351533 0
M  V30 3663 H 355.347 -1.27166 1.47699 0
M  V30 3664 H 354.443 -2.79663 1.38546 0
M  V30 3665 N 354.744 -0.972509 -1.24016 0
M  V30 3666 C 355.707 -0.511403 -2.23422 0
M  V30 3667 C 356.707 0.394679 -1.55881 0
M  V30 3668 O 357.897 0.189469 -1.73167 0
M  V30 3669 C 355.029 0.258769 -3.39916 0
M  V30 3670 H 356.222 -1.39024 -2.6573 0
M  V30 3671 H 353.775 -0.757585 -1.36713 0
M  V30 3672 H 354.51 1.1545 -3.03054 0
M  V30 3673 H 354.295 -0.391522 -3.9014 0
M  V30 3674 H 355.785 0.570244 -4.13688 0
M  V30 3675 N 356.222 1.38976 -0.743202 0
M  V30 3676 C 357.471 1.99581 -0.291592 0
M  V30 3677 C 357.784 1.59656 1.13001 0
M  V30 3678 O 358.99 2.13157 1.68156 0
M  V30 3679 C 357.446 3.56813 -0.470391 0
M  V30 3680 C 357.054 4.05695 -1.90041 0
M  V30 3681 C 358.798 4.24423 -0.0809709 0
M  V30 3682 C 356.705 5.5553 -2.02832 0
M  V30 3683 H 355.635 0.746615 -0.105272 0
M  V30 3684 H 358.286 1.58872 -0.918258 0
M  V30 3685 H 356.668 3.95359 0.225299 0
M  V30 3686 H 357.842 3.78464 -2.62872 0
M  V30 3687 H 356.157 3.50775 -2.24379 0
M  V30 3688 H 358.754 5.34474 -0.155445 0
M  V30 3689 H 359.097 4.04962 0.96497 0
M  V30 3690 H 359.63 3.9108 -0.728124 0
M  V30 3691 H 356.369 5.79881 -3.05643 0
M  V30 3692 H 355.889 5.84537 -1.34448 0
M  V30 3693 H 357.568 6.21069 -1.81335 0
M  V30 3694 N 357.7 0.491464 1.49741 0
M  V30 3695 C 358.925 -0.0557177 2.07325 0
M  V30 3696 C 359.35 -1.30925 1.35056 0
M  V30 3697 O 358.708 -1.76733 0.404365 0
M  V30 3698 C 358.756 -0.302074 3.59333 0
M  V30 3699 O 357.86 -1.37868 3.88672 0
M  V30 3700 H 357.201 0.0219956 0.663636 0
M  V30 3701 H 359.731 0.688352 1.92673 0
M  V30 3702 H 359.741 -0.536464 4.04458 0
M  V30 3703 H 358.416 0.61383 4.11345 0
M  V30 3704 H 356.993 -1.12999 3.55367 0
M  V30 3705 N 359.178 -1.55987 0.224894 0
M  V30 3706 C 360.406 -2.02784 -0.410665 0
M  V30 3707 C 360.821 -1.10464 -1.53112 0
M  V30 3708 O 360.178 -0.114871 -1.82138 0
M  V30 3709 C 360.229 -3.49087 -0.939165 0
M  V30 3710 O 359.95 -4.37887 0.136614 0
M  V30 3711 C 361.451 -4.11543 -1.64763 0
M  V30 3712 H 358.671 -0.663484 -0.100148 0
M  V30 3713 H 361.215 -2.01614 0.342326 0
M  V30 3714 H 359.37 -3.50861 -1.64242 0
M  V30 3715 H 359.784 -5.23849 -0.261155 0
M  V30 3716 H 361.258 -5.15673 -1.96939 0
M  V30 3717 H 361.735 -3.56736 -2.56195 0
M  V30 3718 H 362.341 -4.13629 -0.989503 0
M  V30 3719 N 360.656 0.0484629 -1.57525 0
M  V30 3720 C 361.886 0.754326 -1.92337 0
M  V30 3721 C 362.294 1.70443 -0.82132 0
M  V30 3722 O 361.637 1.82466 0.21254 0
M  V30 3723 C 361.699 1.58231 -3.22805 0
M  V30 3724 C 361.363 0.799074 -4.4996 0
M  V30 3725 C 362.36 0.1079 -5.19788 0
M  V30 3726 C 360.045 0.759345 -4.96527 0
M  V30 3727 C 362.039 -0.612516 -6.3445 0
M  V30 3728 C 359.726 0.0351713 -6.1109 0
M  V30 3729 C 360.724 -0.649537 -6.79904 0
M  V30 3730 O 360.412 -1.36199 -7.92278 0
M  V30 3731 H 360.144 0.218257 -0.639797 0
M  V30 3732 H 362.698 0.0159295 -2.05394 0
M  V30 3733 H 360.928 2.36406 -3.06021 0
M  V30 3734 H 362.617 2.16898 -3.43089 0
M  V30 3735 H 363.383 0.129748 -4.84826 0
M  V30 3736 H 359.262 1.28177 -4.42822 0
M  V30 3737 H 362.806 -1.14751 -6.88097 0
M  V30 3738 H 358.703 0.0113314 -6.45499 0
M  V30 3739 H 359.471 -1.27366 -8.0853 0
M  V30 3740 N 362.134 1.5431 0.320358 0
M  V30 3741 C 363.082 1.84647 1.4145 0
M  V30 3742 C 364.076 0.718624 1.53402 0
M  V30 3743 O 365.282 0.902335 1.5575 0
M  V30 3744 H 361.657 0.585349 0.472091 0
M  V30 3745 H 363.628 2.7614 1.13089 0
M  V30 3746 C 362.377 2.09341 2.77617 0
M  V30 3747 H 361.7 2.9559 2.69196 0
M  V30 3748 H 363.14 2.3452 3.53237 0
M  V30 3749 C 361.599 0.885939 3.25043 0
M  V30 3750 O 362.129 0.0967891 4.01583 0
M  V30 3751 N 360.335 0.696682 2.82125 0
M  V30 3752 H 359.882 1.34006 2.2 0
M  V30 3753 H 359.84 -0.109712 3.14209 0
M  V30 3754 N 363.613 -0.582584 1.46437 0
M  V30 3755 C 365.029 -0.905962 1.31394 0
M  V30 3756 C 365.229 -1.99468 0.285476 0
M  V30 3757 O 364.285 -2.50566 -0.311914 0
M  V30 3758 C 365.598 -1.3232 2.70022 0
M  V30 3759 C 367.146 -1.43604 2.78113 0
M  V30 3760 C 367.621 -1.88694 4.17323 0
M  V30 3761 N 369.112 -1.95887 4.19741 0
M  V30 3762 C 369.847 -2.32051 5.24347 0
M  V30 3763 N 369.343 -2.67006 6.39281 0
M  V30 3764 N 371.136 -2.32606 5.11713 0
M  V30 3765 H 363.287 0.1366 2.1196 0
M  V30 3766 H 365.55 -0.00155736 0.947999 0
M  V30 3767 H 365.256 -0.597242 3.46592 0
M  V30 3768 H 365.13 -2.28469 3.00136 0
M  V30 3769 H 367.517 -2.15286 2.01832 0
M  V30 3770 H 367.598 -0.457059 2.51684 0
M  V30 3771 H 367.242 -1.1759 4.941 0
M  V30 3772 H 367.172 -2.8755 4.4116 0
M  V30 3773 H 369.663 -1.71362 3.36814 0
M  V30 3774 H 369.976 -2.93554 7.14875 0
M  V30 3775 H 368.321 -2.64644 6.42642 0
M  V30 3776 H 371.512 -2.04721 4.2096 0
M  V30 3777 H 371.685 -2.60462 5.93349 0
M  V30 3778 N 365.091 -1.34144 -0.827227 0
M  V30 3779 C 366.319 -1.29325 -1.61501 0
M  V30 3780 C 366.734 0.13354 -1.88327 0
M  V30 3781 O 366.091 1.0793 -1.47164 0
M  V30 3782 C 366.142 -2.07746 -2.95844 0
M  V30 3783 O 365.863 -3.4486 -2.70191 0
M  V30 3784 C 367.364 -2.10273 -3.90256 0
M  V30 3785 H 364.584 -0.445069 -0.50215 0
M  V30 3786 H 367.128 -1.76693 -1.02955 0
M  V30 3787 H 365.283 -1.6403 -3.5096 0
M  V30 3788 H 365.697 -3.85345 -3.55822 0
M  V30 3789 H 367.171 -2.69575 -4.81698 0
M  V30 3790 H 367.648 -1.096 -4.25305 0
M  V30 3791 H 368.254 -2.54059 -3.41078 0
M  V30 3792 N 366.569 1.04691 -1.17803 0
M  V30 3793 C 367.817 1.7743 -0.967617 0
M  V30 3794 C 368.138 1.88359 0.504574 0
M  V30 3795 O 367.408 1.40402 1.36617 0
M  V30 3796 H 365.988 0.657242 -0.355024 0
M  V30 3797 H 368.65 1.2638 -1.48371 0
M  V30 3798 H 367.746 2.78924 -1.40027 0
M  V30 3799 N 368.047 0.979072 1.23499 0
M  V30 3800 C 369.458 0.684391 1.73704 0
M  V30 3801 C 369.809 -0.799448 1.79174 0
M  V30 3802 O 368.934 -1.62531 1.42873 0
M  V30 3803 C 369.529 1.23564 3.15464 0
M  V30 3804 C 368.088 0.99063 3.6313 0
M  V30 3805 C 367.235 1.36416 2.41425 0
M  V30 3806 H 370.186 1.15307 1.09041 0
M  V30 3807 H 370.207 0.607417 3.7562 0
M  V30 3808 H 369.719 2.31561 3.1145 0
M  V30 3809 H 367.82 -0.0733136 3.72528 0
M  V30 3810 H 367.933 1.64427 4.5 0
M  V30 3811 H 366.297 0.782616 2.42378 0
M  V30 3812 H 367.08 2.45387 2.40083 0
M  V30 3813 N 369.525 -1.3858 0.750561 0
M  V30 3814 C 370.455 -2.33102 0.136237 0
M  V30 3815 C 371.436 -1.54713 -0.706965 0
M  V30 3816 O 372.621 -1.83043 -0.648769 0
M  V30 3817 C 369.751 -3.38882 -0.760017 0
M  V30 3818 C 368.705 -4.27995 -0.0197785 0
M  V30 3819 C 368.031 -5.24605 -1.03408 0
M  V30 3820 C 369.331 -5.09554 1.14684 0
M  V30 3821 H 371.025 -2.84726 0.925822 0
M  V30 3822 H 368.571 -1.36898 0.446654 0
M  V30 3823 H 370.524 -4.0397 -1.19943 0
M  V30 3824 H 369.248 -2.85734 -1.58189 0
M  V30 3825 H 367.907 -3.64409 0.400184 0
M  V30 3826 H 367.555 -4.67746 -1.84994 0
M  V30 3827 H 367.255 -5.85081 -0.543464 0
M  V30 3828 H 368.779 -5.9257 -1.47288 0
M  V30 3829 H 370.193 -5.67899 0.785118 0
M  V30 3830 H 368.59 -5.7925 1.56812 0
M  V30 3831 H 369.66 -4.4347 1.96118 0
M  V30 3832 N 371.003 -0.499398 -1.49478 0
M  V30 3833 C 372.414 -0.051215 -1.8663 0
M  V30 3834 C 372.765 1.36238 -1.41186 0
M  V30 3835 O 371.89 2.01502 -0.789051 0
M  V30 3836 C 372.485 -0.0861651 -3.3869 0
M  V30 3837 C 371.044 0.30667 -3.75149 0
M  V30 3838 C 370.191 -0.459397 -2.73468 0
M  V30 3839 H 373.142 -0.712264 -1.41818 0
M  V30 3840 H 373.163 0.709507 -3.73826 0
M  V30 3841 H 372.675 -1.11512 -3.71735 0
M  V30 3842 H 370.776 1.33892 -3.47712 0
M  V30 3843 H 370.889 -0.0116669 -4.79099 0
M  V30 3844 H 369.253 0.0905645 -2.54539 0
M  V30 3845 H 370.036 -1.4884 -3.09357 0
M  V30 3846 N 372.481 1.55866 -0.233164 0
M  V30 3847 C 373.892 1.847 0.272554 0
M  V30 3848 C 374.243 1.15477 1.58617 0
M  V30 3849 O 373.368 0.42841 2.12117 0
M  V30 3850 C 373.963 3.35071 0.501299 0
M  V30 3851 C 372.522 3.6418 0.951304 0
M  V30 3852 C 371.669 2.77292 0.0208209 0
M  V30 3853 H 374.62 1.52005 -0.456074 0
M  V30 3854 H 374.641 3.55906 1.34577 0
M  V30 3855 H 374.153 3.85424 -0.454936 0
M  V30 3856 H 372.254 3.19293 1.92049 0
M  V30 3857 H 372.367 4.72071 0.817675 0
M  V30 3858 H 370.731 2.49131 0.529723 0
M  V30 3859 H 371.514 3.30448 -0.93054 0
M  V30 3860 N 373.959 -0.0401083 1.57549 0
M  V30 3861 C 375.207 -0.731677 1.8839 0
M  V30 3862 C 375.528 -1.76481 0.829425 0
M  V30 3863 O 374.798 -1.95411 -0.1383 0
M  V30 3864 H 373.378 -0.273225 0.695239 0
M  V30 3865 H 376.04 -0.00867725 1.94898 0
M  V30 3866 H 375.136 -1.22816 2.86919 0
M  V30 3867 N 375.437 -1.54477 -0.31217 0
M  V30 3868 C 376.848 -1.64344 -0.885891 0
M  V30 3869 C 377.199 -0.54485 -1.88483 0
M  V30 3870 O 376.324 0.320387 -2.14015 0
M  V30 3871 C 376.919 -2.97908 -1.61357 0
M  V30 3872 C 375.478 -3.09933 -2.13585 0
M  V30 3873 C 374.625 -2.59971 -0.964897 0
M  V30 3874 H 377.576 -1.58448 -0.0894528 0
M  V30 3875 H 377.597 -2.88706 -2.47848 0
M  V30 3876 H 377.109 -3.77845 -0.886277 0
M  V30 3877 H 375.21 -2.34694 -2.89395 0
M  V30 3878 H 375.323 -4.15916 -2.37804 0
M  V30 3879 H 373.687 -2.16147 -1.34731 0
M  V30 3880 H 374.47 -3.42376 -0.251742 0
M  V30 3881 N 376.915 0.57481 -1.46744 0
M  V30 3882 C 378.326 1.15695 -1.46532 0
M  V30 3883 C 378.677 1.95068 -0.210425 0
M  V30 3884 O 377.802 2.05241 0.685944 0
M  V30 3885 C 378.397 2.1048 -2.65487 0
M  V30 3886 C 376.956 2.64002 -2.68291 0
M  V30 3887 C 376.103 1.40026 -2.39349 0
M  V30 3888 H 379.054 0.362325 -1.54509 0
M  V30 3889 H 379.075 2.94074 -2.41455 0
M  V30 3890 H 378.587 1.52683 -3.56805 0
M  V30 3891 H 376.688 3.25646 -1.81067 0
M  V30 3892 H 376.801 3.06197 -3.68483 0
M  V30 3893 H 375.165 1.70106 -1.89568 0
M  V30 3894 H 375.948 0.840485 -3.32852 0
M  V30 3895 N 378.394 1.34581 0.820102 0
M  V30 3896 C 379.805 1.24298 1.39309 0
M  V30 3897 C 380.156 -0.130351 1.95767 0
M  V30 3898 O 379.281 -1.0308 1.90272 0
M  V30 3899 C 379.876 2.25054 2.53251 0
M  V30 3900 C 378.435 2.18552 3.0645 0
M  V30 3901 C 377.582 2.11503 1.79337 0
M  V30 3902 H 380.533 1.45906 0.624262 0
M  V30 3903 H 380.554 1.86917 3.31425 0
M  V30 3904 H 380.066 3.24996 2.1213 0
M  V30 3905 H 378.167 1.21976 3.52069 0
M  V30 3906 H 378.28 3.0993 3.65349 0
M  V30 3907 H 376.644 1.57268 2.00347 0
M  V30 3908 H 377.427 3.13284 1.40386 0
M  V30 3909 N 379.872 -1.04064 1.18357 0
M  V30 3910 C 380.782 -2.15569 0.925596 0
M  V30 3911 C 381.798 -1.7365 -0.110295 0
M  V30 3912 O 382.974 -2.01273 0.0716218 0
M  V30 3913 C 380.039 -3.43704 0.454836 0
M  V30 3914 C 379.1 -4.00004 1.55869 0
M  V30 3915 C 378.333 -5.22023 1.1103 0
M  V30 3916 O 378.556 -5.70392 -0.0309756 0
M  V30 3917 O 377.49 -5.70856 1.90805 0
M  V30 3918 H 381.316 -2.40187 1.8586 0
M  V30 3919 H 378.901 -1.1402 0.965394 0
M  V30 3920 H 380.783 -4.20923 0.200382 0
M  V30 3921 H 379.458 -3.20559 -0.449876 0
M  V30 3922 H 378.365 -3.24172 1.86716 0
M  V30 3923 H 379.698 -4.2749 2.43953 0
M  V30 3924 N 381.35 -0.985608 -1.22978 0
M  V30 3925 C 382.599 -0.652881 -1.90841 0
M  V30 3926 C 382.912 0.817842 -1.77681 0
M  V30 3927 O 384.118 1.26185 -2.40395 0
M  V30 3928 C 382.574 -1.11717 -3.42122 0
M  V30 3929 C 382.182 -2.6126 -3.63933 0
M  V30 3930 C 383.926 -0.85843 -4.1573 0
M  V30 3931 C 381.833 -3.0133 -5.08876 0
M  V30 3932 H 380.763 -0.240491 -0.714619 0
M  V30 3933 H 383.414 -1.1942 -1.39324 0
M  V30 3934 H 381.796 -0.504027 -3.92779 0
M  V30 3935 H 382.97 -3.27858 -3.23799 0
M  V30 3936 H 381.285 -2.84937 -3.03644 0
M  V30 3937 H 383.882 -1.13359 -5.22546 0
M  V30 3938 H 384.225 0.205461 -4.15793 0
M  V30 3939 H 384.758 -1.43341 -3.71077 0
M  V30 3940 H 381.497 -4.06864 -5.13947 0
M  V30 3941 H 381.017 -2.3943 -5.49939 0
M  V30 3942 H 382.696 -2.92224 -5.77247 0
M  V30 3943 N 382.828 1.3818 -0.7579 0
M  V30 3944 C 384.074 2.00316 -0.316453 0
M  V30 3945 C 384.407 1.60026 1.10025 0
M  V30 3946 O 383.682 0.839835 1.75434 0
M  V30 3947 C 383.965 3.57349 -0.444245 0
M  V30 3948 C 383.818 4.07591 -1.90236 0
M  V30 3949 C 385.137 4.3981 0.1598 0
M  V30 3950 H 382.256 0.727741 -0.116459 0
M  V30 3951 H 384.898 1.6406 -0.958352 0
M  V30 3952 H 383.048 3.88365 0.102233 0
M  V30 3953 H 384.72 3.87199 -2.50748 0
M  V30 3954 H 382.963 3.60297 -2.41595 0
M  V30 3955 H 383.634 5.16677 -1.94291 0
M  V30 3956 H 386.11 4.14971 -0.306314 0
M  V30 3957 H 384.986 5.48885 0.0401675 0
M  V30 3958 H 385.247 4.24102 1.24859 0
M  V30 3959 N 384.306 0.507319 1.49211 0
M  V30 3960 C 385.555 -0.0368315 2.01666 0
M  V30 3961 C 385.868 -1.37459 1.39156 0
M  V30 3962 O 387.074 -2.00579 1.82976 0
M  V30 3963 C 385.53 -0.116089 3.59713 0
M  V30 3964 C 385.138 1.2154 4.31198 0
M  V30 3965 C 386.882 -0.610268 4.2009 0
M  V30 3966 C 384.789 1.09796 5.81119 0
M  V30 3967 H 383.719 -0.0175376 0.753796 0
M  V30 3968 H 386.37 0.647691 1.71689 0
M  V30 3969 H 384.752 -0.8652 3.86433 0
M  V30 3970 H 385.926 1.9783 4.16173 0
M  V30 3971 H 384.241 1.64352 3.82593 0
M  V30 3972 H 386.838 -0.715742 5.29888 0
M  V30 3973 H 387.181 -1.61064 3.8388 0
M  V30 3974 H 387.714 0.0824916 3.97714 0
M  V30 3975 H 384.453 2.0728 6.21864 0
M  V30 3976 H 383.973 0.376058 5.9862 0
M  V30 3977 H 385.652 0.779281 6.4229 0
M  V30 3978 N 385.784 -1.5574 0.241426 0
M  V30 3979 C 387.014 -2.02913 -0.38857 0
M  V30 3980 C 387.422 -1.12014 -1.52478 0
M  V30 3981 O 386.765 -0.125903 -1.83268 0
M  V30 3982 C 386.827 -3.4636 -0.963075 0
M  V30 3983 C 386.491 -4.56982 0.0401916 0
M  V30 3984 C 387.488 -5.12941 0.847766 0
M  V30 3985 C 385.173 -5.0203 0.164699 0
M  V30 3986 C 387.167 -6.12437 1.76636 0
M  V30 3987 C 384.854 -6.01358 1.0868 0
M  V30 3988 C 385.852 -6.5644 1.88616 0
M  V30 3989 O 385.54 -7.53831 2.79273 0
M  V30 3990 H 385.272 -0.668983 -0.0971452 0
M  V30 3991 H 387.826 -2.02198 0.361248 0
M  V30 3992 H 386.056 -3.44206 -1.76235 0
M  V30 3993 H 387.745 -3.77065 -1.50257 0
M  V30 3994 H 388.511 -4.78974 0.762133 0
M  V30 3995 H 384.39 -4.58824 -0.447411 0
M  V30 3996 H 387.934 -6.55355 2.39071 0
M  V30 3997 H 383.831 -6.34746 1.17338 0
M  V30 3998 H 384.599 -7.71428 2.73572 0
M  V30 3999 N 387.262 0.0317525 -1.57568 0
M  V30 4000 C 388.194 1.06073 -2.03178 0
M  V30 4001 C 389.207 1.32627 -0.944132 0
M  V30 4002 O 390.396 1.30162 -1.22148 0
M  V30 4003 C 387.496 2.40297 -2.38978 0
M  V30 4004 C 386.669 2.33137 -3.70089 0
M  V30 4005 C 385.728 3.49787 -3.9311 0
M  V30 4006 O 384.754 3.29403 -4.64201 0
M  V30 4007 N 385.956 4.71562 -3.38541 0
M  V30 4008 H 388.721 0.672006 -2.92069 0
M  V30 4009 H 386.282 0.219745 -1.60402 0
M  V30 4010 H 388.274 3.1705 -2.51518 0
M  V30 4011 H 386.844 2.71024 -1.55771 0
M  V30 4012 H 386.064 1.415 -3.67928 0
M  V30 4013 H 387.352 2.25493 -4.56104 0
M  V30 4014 H 386.75 4.91024 -2.80912 0
M  V30 4015 H 385.307 5.45689 -3.56464 0
M  V30 4016 N 388.74 1.54641 0.303973 0
M  V30 4017 C 389.65 1.88439 1.39743 0
M  V30 4018 C 390.666 0.778239 1.55626 0
M  V30 4019 O 391.842 1.07442 1.70347 0
M  V30 4020 C 388.907 2.12212 2.74166 0
M  V30 4021 C 387.968 3.35936 2.67293 0
M  V30 4022 C 387.201 3.58566 3.95305 0
M  V30 4023 O 387.424 2.84263 4.9452 0
M  V30 4024 O 386.358 4.52078 3.97378 0
M  V30 4025 H 390.184 2.81458 1.14083 0
M  V30 4026 H 387.769 1.40793 0.499768 0
M  V30 4027 H 389.651 2.29067 3.53704 0
M  V30 4028 H 388.326 1.22379 2.99675 0
M  V30 4029 H 387.233 3.24448 1.86237 0
M  V30 4030 H 388.566 4.2589 2.46736 0
M  V30 4031 N 390.218 -0.567019 1.47046 0
M  V30 4032 C 391.148 -1.68482 1.61667 0
M  V30 4033 C 392.129 -1.6358 0.466418 0
M  V30 4034 O 393.314 -1.81354 0.694574 0
M  V30 4035 C 390.444 -3.07124 1.62148 0
M  V30 4036 C 389.398 -3.26867 2.76301 0
M  V30 4037 C 388.724 -4.66196 2.61849 0
M  V30 4038 C 390.024 -3.13186 4.17986 0
M  V30 4039 H 391.718 -1.56502 2.5524 0
M  V30 4040 H 389.264 -0.751486 1.22836 0
M  V30 4041 H 391.217 -3.8516 1.70968 0
M  V30 4042 H 389.941 -3.2004 0.651287 0
M  V30 4043 H 388.6 -2.51237 2.66975 0
M  V30 4044 H 388.248 -4.75898 1.62879 0
M  V30 4045 H 387.948 -4.80356 3.38425 0
M  V30 4046 H 389.472 -5.46379 2.72584 0
M  V30 4047 H 390.886 -3.81049 4.2834 0
M  V30 4048 H 389.283 -3.3886 4.95272 0
M  V30 4049 H 390.353 -2.10057 4.3704 0
M  V30 4050 N 391.696 -1.35014 -0.812953 0
M  V30 4051 C 393.112 -1.14914 -1.10757 0
M  V30 4052 C 393.312 0.0426818 -2.01455 0
M  V30 4053 O 392.368 0.715212 -2.42159 0
M  V30 4054 C 393.681 -2.44911 -1.74468 0
M  V30 4055 C 395.229 -2.5106 -1.86917 0
M  V30 4056 C 395.704 -3.81085 -2.54044 0
M  V30 4057 N 397.195 -3.82301 -2.61535 0
M  V30 4058 C 397.93 -4.79634 -3.14227 0
M  V30 4059 N 397.426 -5.87353 -3.67407 0
M  V30 4060 N 399.219 -4.67078 -3.12721 0
M  V30 4061 H 391.37 -2.1136 -0.20989 0
M  V30 4062 H 393.633 -0.935128 -0.155692 0
M  V30 4063 H 393.339 -3.32267 -1.15289 0
M  V30 4064 H 393.213 -2.58989 -2.74234 0
M  V30 4065 H 395.6 -1.64137 -2.45241 0
M  V30 4066 H 395.681 -2.40901 -0.860242 0
M  V30 4067 H 395.325 -4.68402 -1.96372 0
M  V30 4068 H 395.255 -3.88529 -3.55461 0
M  V30 4069 H 397.746 -3.04465 -2.23851 0
M  V30 4070 H 398.059 -6.57624 -4.05894 0
M  V30 4071 H 396.404 -5.91054 -3.65623 0
M  V30 4072 H 399.595 -3.82067 -2.70449 0
M  V30 4073 H 399.768 -5.43098 -3.53481 0
M  V30 4074 N 393.175 1.03435 -1.18907 0
M  V30 4075 C 394.108 2.11162 -0.86521 0
M  V30 4076 C 395.086 1.6165 0.175473 0
M  V30 4077 O 396.27 1.88425 0.0530129 0
M  V30 4078 C 393.397 3.37423 -0.293868 0
M  V30 4079 C 392.443 4.05795 -1.31274 0
M  V30 4080 S 393.276 4.52027 -2.8711 0
M  V30 4081 C 394.432 5.81513 -2.31504 0
M  V30 4082 H 394.665 2.38308 -1.77754 0
M  V30 4083 H 392.198 1.16295 -1.01562 0
M  V30 4084 H 394.156 4.1049 0.0292572 0
M  V30 4085 H 392.817 3.0838 0.596682 0
M  V30 4086 H 392.01 4.96574 -0.86198 0
M  V30 4087 H 391.612 3.38874 -1.58242 0
M  V30 4088 H 393.904 6.55784 -1.70157 0
M  V30 4089 H 394.847 6.3136 -3.20608 0
M  V30 4090 H 395.255 5.36921 -1.74286 0
M  V30 4091 N 394.653 0.992116 1.22453 0
M  V30 4092 C 395.563 0.55065 2.28046 0
M  V30 4093 C 396.579 -0.400189 1.69335 0
M  V30 4094 O 397.755 -0.267215 1.99619 0
M  V30 4095 C 394.82 -0.128496 3.46462 0
M  V30 4096 C 393.881 0.865208 4.20491 0
M  V30 4097 C 393.114 0.218377 5.33253 0
M  V30 4098 O 393.337 -0.987894 5.6178 0
M  V30 4099 O 392.271 0.922845 5.94783 0
M  V30 4100 H 396.097 1.4291 2.67975 0
M  V30 4101 H 393.682 0.760326 1.28606 0
M  V30 4102 H 395.564 -0.508947 4.18315 0
M  V30 4103 H 394.239 -0.981526 3.0846 0
M  V30 4104 H 393.146 1.29658 3.50913 0
M  V30 4105 H 394.479 1.68741 4.62371 0
M  V30 4106 N 396.131 -1.37776 0.765217 0
M  V30 4107 C 397.094 -2.28686 0.153416 0
M  V30 4108 C 398.094 -1.47727 -0.635081 0
M  V30 4109 O 399.284 -1.68027 -0.459632 0
M  V30 4110 C 396.416 -3.31608 -0.790495 0
M  V30 4111 H 397.609 -2.84297 0.954723 0
M  V30 4112 H 395.162 -1.46932 0.53299 0
M  V30 4113 H 395.897 -2.81109 -1.61705 0
M  V30 4114 H 395.682 -3.9144 -0.227348 0
M  V30 4115 H 397.172 -3.99559 -1.21419 0
M  V30 4116 N 397.609 -0.515225 -1.4894 0
M  V30 4117 C 398.856 0.024215 -2.02486 0
M  V30 4118 C 399.184 1.35671 -1.39368 0
M  V30 4119 O 398.439 1.88566 -0.523574 0
M  V30 4120 C 398.738 0.210595 -3.56779 0
M  V30 4121 C 398.404 -1.04569 -4.38607 0
M  V30 4122 C 397.066 -1.39002 -4.60686 0
M  V30 4123 C 399.418 -1.88008 -4.86109 0
M  V30 4124 C 396.746 -2.568 -5.27514 0
M  V30 4125 C 399.098 -3.04972 -5.54234 0
M  V30 4126 C 397.762 -3.39768 -5.74555 0
M  V30 4127 H 397.032 0.00886088 -0.740947 0
M  V30 4128 H 399.679 -0.678263 -1.79086 0
M  V30 4129 H 397.984 0.99572 -3.78936 0
M  V30 4130 H 399.681 0.642659 -3.95817 0
M  V30 4131 H 396.271 -0.767497 -4.21672 0
M  V30 4132 H 400.455 -1.62719 -4.68867 0
M  V30 4133 H 395.711 -2.8398 -5.41447 0
M  V30 4134 H 399.885 -3.69943 -5.90013 0
M  V30 4135 H 397.512 -4.31148 -6.26112 0
M  V30 4136 N 399.087 1.5561 -0.249682 0
M  V30 4137 C 400.333 1.99306 0.374841 0
M  V30 4138 C 400.666 1.13767 1.57387 0
M  V30 4139 O 399.941 0.201711 1.93451 0
M  V30 4140 C 400.224 3.51507 0.781986 0
M  V30 4141 C 400.077 4.4781 -0.422629 0
M  V30 4142 C 401.396 4.08884 1.62793 0
M  V30 4143 H 398.515 0.724572 0.134773 0
M  V30 4144 H 401.157 1.86719 -0.351549 0
M  V30 4145 H 399.307 3.62363 1.4009 0
M  V30 4146 H 400.979 4.48931 -1.06108 0
M  V30 4147 H 399.222 4.20518 -1.06524 0
M  V30 4148 H 399.893 5.51919 -0.0943766 0
M  V30 4149 H 402.369 4.01147 1.10547 0
M  V30 4150 H 401.245 5.1564 1.88166 0
M  V30 4151 H 401.506 3.57515 2.60068 0
M  V30 4152 N 400.565 -0.0233959 1.57583 0
M  V30 4153 C 401.811 -0.714119 1.89811 0
M  V30 4154 C 402.144 -1.74702 0.848113 0
M  V30 4155 O 401.419 -1.94023 -0.136135 0
M  V30 4156 C 401.702 -1.37853 3.32669 0
M  V30 4157 C 401.555 -0.358764 4.48367 0
M  V30 4158 C 402.874 -2.31101 3.7454 0
M  V30 4159 H 399.993 -0.25814 0.690314 0
M  V30 4160 H 402.635 0.0230927 1.89986 0
M  V30 4161 H 400.785 -2.00689 3.3265 0
M  V30 4162 H 402.457 0.268115 4.6052 0
M  V30 4163 H 400.7 0.321387 4.32608 0
M  V30 4164 H 401.371 -0.862242 5.45224 0
M  V30 4165 H 403.847 -1.78304 3.75961 0
M  V30 4166 H 402.723 -2.74567 4.75294 0
M  V30 4167 H 402.984 -3.18018 3.0711 0
M  V30 4168 N 402.043 -1.548 -0.295768 0
M  V30 4169 C 403.273 -1.78069 -1.04762 0
M  V30 4170 C 403.681 -0.542847 -1.81245 0
M  V30 4171 O 403.024 0.497051 -1.76848 0
M  V30 4172 C 403.086 -2.93881 -2.07061 0
M  V30 4173 C 402.75 -4.31777 -1.49725 0
M  V30 4174 C 403.747 -5.11613 -0.924581 0
M  V30 4175 C 401.432 -4.78389 -1.5313 0
M  V30 4176 C 403.426 -6.36184 -0.393594 0
M  V30 4177 C 401.113 -6.02921 -0.996447 0
M  V30 4178 C 402.111 -6.81654 -0.428569 0
M  V30 4179 O 401.799 -8.0384 0.0981593 0
M  V30 4180 H 401.531 -0.597475 -0.316226 0
M  V30 4181 H 404.085 -2.02584 -0.338973 0
M  V30 4182 H 402.315 -2.65003 -2.81621 0
M  V30 4183 H 404.004 -3.04679 -2.6819 0
M  V30 4184 H 404.77 -4.76743 -0.891136 0
M  V30 4185 H 400.649 -4.17132 -1.9627 0
M  V30 4186 H 404.193 -6.97582 0.0503014 0
M  V30 4187 H 400.09 -6.37277 -1.02706 0
M  V30 4188 H 400.858 -8.18499 -0.0146455 0
M  V30 4189 N 403.521 0.559213 -1.47345 0
M  V30 4190 C 404.937 0.884943 -1.32819 0
M  V30 4191 C 405.137 1.98988 -0.317173 0
M  V30 4192 O 404.193 2.51031 0.272011 0
M  V30 4193 C 405.506 1.28007 -2.72093 0
M  V30 4194 C 407.054 1.39161 -2.80363 0
M  V30 4195 C 407.529 1.82031 -4.20272 0
M  V30 4196 N 409.02 1.89185 -4.22804 0
M  V30 4197 C 409.755 2.2368 -5.27973 0
M  V30 4198 N 409.251 2.56802 -6.43447 0
M  V30 4199 N 411.044 2.24436 -5.15349 0
M  V30 4200 H 403.195 -0.170304 -2.11716 0
M  V30 4201 H 405.458 -0.0135247 -0.947904 0
M  V30 4202 H 405.164 0.542027 -3.47498 0
M  V30 4203 H 405.038 2.23665 -3.03733 0
M  V30 4204 H 407.425 2.12048 -2.05231 0
M  V30 4205 H 407.506 0.41696 -2.52379 0
M  V30 4206 H 407.15 1.09715 -4.95908 0
M  V30 4207 H 407.08 2.80495 -4.45679 0
M  V30 4208 H 409.571 1.65982 -3.39497 0
M  V30 4209 H 409.884 2.82144 -7.19454 0
M  V30 4210 H 408.229 2.54387 -6.46771 0
M  V30 4211 H 411.42 1.97998 -4.24163 0
M  V30 4212 H 411.593 2.50989 -5.97418 0
M  V30 4213 N 404.999 1.35443 0.805782 0
M  V30 4214 C 406.245 1.2996 1.56467 0
M  V30 4215 C 406.6 -0.124742 1.91995 0
M  V30 4216 O 405.893 -1.07533 1.58579 0
M  V30 4217 C 406.087 2.14045 2.86216 0
M  V30 4218 C 405.916 3.64512 2.63365 0
M  V30 4219 C 404.686 4.33744 2.59219 0
M  V30 4220 C 406.884 4.58142 2.33688 0
M  V30 4221 N 404.866 5.69953 2.28094 0
M  V30 4222 C 406.237 5.8248 2.12408 0
M  V30 4223 C 408.292 4.46877 2.19558 0
M  V30 4224 C 406.995 6.96818 1.78429 0
M  V30 4225 C 409.021 5.61065 1.86976 0
M  V30 4226 C 408.383 6.84431 1.66532 0
M  V30 4227 H 404.482 0.530817 0.574245 0
M  V30 4228 H 407.066 1.70333 0.943126 0
M  V30 4229 H 405.237 1.75942 3.46264 0
M  V30 4230 H 406.969 2.00075 3.51784 0
M  V30 4231 H 403.724 3.86365 2.73896 0
M  V30 4232 H 404.148 6.41845 2.15323 0
M  V30 4233 H 408.79 3.52102 2.34061 0
M  V30 4234 H 406.508 7.91559 1.62664 0
M  V30 4235 H 410.094 5.54302 1.7675 0
M  V30 4236 H 408.974 7.71294 1.41688 0
M  V30 4237 N 406.477 -1.02803 1.19454 0
M  V30 4238 C 407.409 -2.11181 0.890807 0
M  V30 4239 C 408.422 -1.6238 -0.116829 0
M  V30 4240 O 409.611 -1.78144 0.112694 0
M  V30 4241 C 406.711 -3.37461 0.311942 0
M  V30 4242 C 405.884 -4.15446 1.36834 0
M  V30 4243 C 404.943 -5.20039 0.802864 0
M  V30 4244 O 403.969 -5.49602 1.48077 0
M  V30 4245 N 405.171 -5.79165 -0.393417 0
M  V30 4246 H 407.936 -2.37827 1.82369 0
M  V30 4247 H 405.497 -1.19101 1.09666 0
M  V30 4248 H 407.489 -4.0462 -0.0802225 0
M  V30 4249 H 406.059 -3.08156 -0.52524 0
M  V30 4250 H 405.279 -3.43423 1.93531 0
M  V30 4251 H 406.567 -4.64335 2.08015 0
M  V30 4252 H 405.965 -5.57466 -0.961658 0
M  V30 4253 H 404.522 -6.47729 -0.727351 0
M  V30 4254 N 407.956 -0.998596 -1.21925 0
M  V30 4255 C 409.204 -0.676325 -1.90448 0
M  V30 4256 C 409.525 0.794719 -1.78071 0
M  V30 4257 O 408.795 1.5701 -1.17152 0
M  V30 4258 H 407.375 -0.247165 -0.704925 0
M  V30 4259 H 410.037 -1.26633 -1.48156 0
M  V30 4260 H 409.133 -0.943858 -2.97486 0
M  V30 4261 N 409.434 1.37368 -0.772513 0
M  V30 4262 C 410.711 1.93839 -0.26188 0
M  V30 4263 C 411.091 1.7061 1.24319 0
M  V30 4264 O 410.439 1.05534 2.02669 0
M  V30 4265 C 410.649 3.43154 -0.636102 0
M  V30 4266 C 411.997 4.20249 -0.606324 0
M  V30 4267 O 413.021 3.5152 -0.575538 0
M  V30 4268 O 411.88 5.42809 -0.634086 0
M  V30 4269 H 408.974 0.82478 -0.0605555 0
M  V30 4270 H 411.52 1.4665 -0.853917 0
M  V30 4271 H 410.292 3.53647 -1.6748 0
M  V30 4272 H 409.915 3.97596 -0.0170516 0
M  V30 4273 N 410.912 0.523116 1.48665 0
M  V30 4274 C 411.875 -0.232592 2.28017 0
M  V30 4275 C 412.875 -0.874021 1.34972 0
M  V30 4276 O 414.065 -0.735132 1.57929 0
M  V30 4277 C 411.197 -1.33586 3.13636 0
M  V30 4278 H 412.39 0.464008 2.96289 0
M  V30 4279 H 409.943 0.278816 1.53793 0
M  V30 4280 H 410.678 -2.06593 2.4998 0
M  V30 4281 H 410.463 -0.881125 3.82071 0
M  V30 4282 H 411.953 -1.86759 3.73511 0
M  V30 4283 N 412.39 -1.55475 0.257931 0
M  V30 4284 C 413.806 -1.59307 -0.0966563 0
M  V30 4285 C 414.006 -1.27514 -1.5602 0
M  V30 4286 O 413.062 -1.02774 -2.30637 0
M  V30 4287 C 414.375 -2.99552 0.262481 0
M  V30 4288 C 415.923 -3.1231 0.207683 0
M  V30 4289 C 416.398 -4.54793 0.541012 0
M  V30 4290 N 417.889 -4.6058 0.491921 0
M  V30 4291 C 418.624 -5.68825 0.722857 0
M  V30 4292 N 418.12 -6.85287 1.0175 0
M  V30 4293 N 419.913 -5.58296 0.652815 0
M  V30 4294 H 412.064 -1.74409 1.21224 0
M  V30 4295 H 414.327 -0.812424 0.48854 0
M  V30 4296 H 414.033 -3.27593 1.27967 0
M  V30 4297 H 413.907 -3.75019 -0.40508 0
M  V30 4298 H 416.294 -2.84044 -0.800195 0
M  V30 4299 H 416.375 -2.39095 0.909255 0
M  V30 4300 H 416.019 -4.83783 1.5465 0
M  V30 4301 H 415.949 -5.26285 -0.18216 0
M  V30 4302 H 418.44 -3.7691 0.273366 0
M  V30 4303 H 418.753 -7.63725 1.18084 0
M  V30 4304 H 417.098 -6.86945 1.05509 0
M  V30 4305 H 420.289 -4.66189 0.422592 0
M  V30 4306 H 420.462 -6.42582 0.836182 0
M  V30 4307 N 413.868 0.0150385 -1.57593 0
M  V30 4308 C 414.8 1.03912 -2.04291 0
M  V30 4309 C 415.813 1.31618 -0.958146 0
M  V30 4310 O 417.002 1.28859 -1.23522 0
M  V30 4311 C 414.102 2.37749 -2.41514 0
M  V30 4312 C 413.275 2.29198 -3.72541 0
M  V30 4313 C 412.334 3.45598 -3.96797 0
M  V30 4314 O 411.36 3.24461 -4.67668 0
M  V30 4315 N 412.562 4.67945 -3.43523 0
M  V30 4316 H 415.327 0.64099 -2.92765 0
M  V30 4317 H 412.888 0.20272 -1.60626 0
M  V30 4318 H 414.88 3.14364 -2.54867 0
M  V30 4319 H 413.45 2.69357 -1.58637 0
M  V30 4320 H 412.67 1.3759 -3.69408 0
M  V30 4321 H 413.958 2.20642 -4.5847 0
M  V30 4322 H 413.356 4.88017 -2.86104 0
M  V30 4323 H 411.913 5.41878 -3.62232 0
M  V30 4324 N 415.346 1.54954 0.287554 0
M  V30 4325 C 416.293 1.86834 1.35505 0
M  V30 4326 C 417.263 0.718452 1.49758 0
M  V30 4327 O 418.448 0.968358 1.644 0
M  V30 4328 C 415.588 2.13303 2.71286 0
M  V30 4329 C 414.701 3.40883 2.65373 0
M  V30 4330 C 413.836 3.57125 3.93236 0
M  V30 4331 C 412.875 4.78449 3.81776 0
M  V30 4332 N 412.012 4.91426 5.01443 0
M  V30 4333 H 416.852 2.77889 1.07619 0
M  V30 4334 H 414.389 1.37593 0.520241 0
M  V30 4335 H 416.347 2.26646 3.50267 0
M  V30 4336 H 414.977 1.25499 2.97405 0
M  V30 4337 H 414.029 3.36088 1.78182 0
M  V30 4338 H 415.341 4.29993 2.52799 0
M  V30 4339 H 414.495 3.70207 4.80658 0
M  V30 4340 H 413.234 2.66173 4.0866 0
M  V30 4341 H 412.239 4.65386 2.92738 0
M  V30 4342 H 413.464 5.70822 3.67884 0
M  V30 4343 H 411.41 4.03401 5.17304 0
M  V30 4344 H 411.327 5.74559 4.91343 0
M  V30 4345 H 412.595 5.08879 5.90477 0
M  V30 4346 N 416.824 -0.551391 1.4764 0
M  V30 4347 C 417.787 -1.64007 1.60107 0
M  V30 4348 C 418.787 -1.53601 0.47576 0
M  V30 4349 O 419.977 -1.57655 0.740988 0
M  V30 4350 C 417.109 -3.03569 1.55108 0
M  V30 4351 H 418.302 -1.543 2.57161 0
M  V30 4352 H 415.855 -0.771776 1.35917 0
M  V30 4353 H 416.59 -3.18804 0.594519 0
M  V30 4354 H 416.375 -3.12532 2.36783 0
M  V30 4355 H 417.865 -3.82762 1.66982 0
M  V30 4356 N 418.302 -1.35869 -0.798587 0
M  V30 4357 C 419.232 -1.32118 -1.92528 0
M  V30 4358 C 420.213 -0.194209 -1.68988 0
M  V30 4359 O 421.398 -0.390426 -1.90235 0
M  V30 4360 C 418.528 -1.10047 -3.29404 0
M  V30 4361 C 417.482 -2.19471 -3.67446 0
M  V30 4362 C 416.808 -1.82555 -5.02571 0
M  V30 4363 C 418.108 -3.61495 -3.76987 0
M  V30 4364 H 419.802 -2.26394 -1.95924 0
M  V30 4365 H 417.348 -1.08981 -0.94123 0
M  V30 4366 H 419.301 -1.06061 -4.07835 0
M  V30 4367 H 418.025 -0.122195 -3.26371 0
M  V30 4368 H 416.684 -2.22568 -2.91306 0
M  V30 4369 H 416.332 -0.833249 -4.9605 0
M  V30 4370 H 416.032 -2.5581 -5.28995 0
M  V30 4371 H 417.556 -1.80108 -5.83432 0
M  V30 4372 H 418.97 -3.60676 -4.4563 0
M  V30 4373 H 417.367 -4.33577 -4.14887 0
M  V30 4374 H 418.437 -3.97065 -2.78329 0
M  V30 4375 N 419.78 1.02168 -1.19998 0
M  V30 4376 C 420.727 2.10601 -0.944228 0
M  V30 4377 C 421.697 1.65639 0.123664 0
M  V30 4378 O 422.882 1.9079 -0.0199941 0
M  V30 4379 C 420.022 3.41504 -0.496865 0
M  V30 4380 C 419.135 3.99973 -1.63234 0
M  V30 4381 C 418.27 5.18915 -1.13579 0
M  V30 4382 C 417.309 5.69456 -2.24468 0
M  V30 4383 N 416.446 6.79665 -1.76068 0
M  V30 4384 H 421.286 2.31814 -1.8726 0
M  V30 4385 H 418.823 1.13686 -0.933483 0
M  V30 4386 H 420.781 4.16626 -0.218843 0
M  V30 4387 H 419.411 3.2038 0.394508 0
M  V30 4388 H 418.463 3.21997 -2.0254 0
M  V30 4389 H 419.775 4.33492 -2.46752 0
M  V30 4390 H 418.929 6.01222 -0.813429 0
M  V30 4391 H 417.668 4.8695 -0.270434 0
M  V30 4392 H 416.673 4.85757 -2.57526 0
M  V30 4393 H 417.898 6.03459 -3.11472 0
M  V30 4394 H 415.844 6.49538 -0.918516 0
M  V30 4395 H 415.761 7.12349 -2.5317 0
M  V30 4396 H 417.029 7.65549 -1.46817 0
M  V30 4397 N 421.258 1.00505 1.21394 0
M  V30 4398 C 422.535 0.603277 1.86064 0
M  V30 4399 C 422.915 -0.919095 1.90042 0
M  V30 4400 O 422.263 -1.80607 1.39977 0
M  V30 4401 C 422.473 1.23772 3.26315 0
M  V30 4402 C 423.821 1.34586 4.02705 0
M  V30 4403 O 424.845 1.19304 3.35626 0
M  V30 4404 O 423.704 1.59169 5.22807 0
M  V30 4405 H 420.798 0.206634 0.800769 0
M  V30 4406 H 423.344 1.1017 1.29076 0
M  V30 4407 H 422.116 2.27848 3.18121 0
M  V30 4408 H 421.739 0.725648 3.90922 0
M  V30 4409 N 422.737 -1.36956 0.779787 0
M  V30 4410 C 423.667 -2.32761 0.185651 0
M  V30 4411 C 424.648 -1.56177 -0.673989 0
M  V30 4412 O 425.833 -1.84378 -0.609797 0
M  V30 4413 C 422.963 -3.40418 -0.687964 0
M  V30 4414 C 421.917 -4.27941 0.0710102 0
M  V30 4415 C 421.243 -5.26681 -0.922573 0
M  V30 4416 C 422.543 -5.07006 1.25467 0
M  V30 4417 H 424.237 -2.82698 0.986008 0
M  V30 4418 H 421.783 -1.3592 0.475592 0
M  V30 4419 H 423.736 -4.06423 -1.11348 0
M  V30 4420 H 422.46 -2.89025 -1.52093 0
M  V30 4421 H 421.119 -3.63478 0.47739 0
M  V30 4422 H 420.767 -4.71565 -1.7503 0
M  V30 4423 H 420.467 -5.86103 -0.419237 0
M  V30 4424 H 421.991 -5.9556 -1.34686 0
M  V30 4425 H 423.405 -5.66105 0.905401 0
M  V30 4426 H 421.802 -5.75793 1.69063 0
M  V30 4427 H 422.872 -4.3921 2.05481 0
M  V30 4428 N 424.215 -0.530993 -1.48385 0
M  V30 4429 C 425.145 0.219985 -2.32461 0
M  V30 4430 C 426.126 0.934111 -1.42156 0
M  V30 4431 O 427.311 0.919694 -1.71042 0
M  V30 4432 C 424.441 1.26674 -3.23375 0
M  V30 4433 C 423.395 0.67069 -4.22712 0
M  V30 4434 C 422.721 1.82017 -5.02766 0
M  V30 4435 C 424.021 -0.358268 -5.2107 0
M  V30 4436 H 425.715 -0.48187 -2.95497 0
M  V30 4437 H 423.261 -0.233182 -1.42099 0
M  V30 4438 H 425.214 1.80006 -3.81019 0
M  V30 4439 H 423.938 1.99818 -2.58341 0
M  V30 4440 H 422.597 0.158878 -3.66256 0
M  V30 4441 H 422.245 2.54002 -4.34157 0
M  V30 4442 H 421.945 1.42727 -5.70003 0
M  V30 4443 H 423.469 2.35725 -5.63264 0
M  V30 4444 H 424.883 0.0880081 -5.73232 0
M  V30 4445 H 423.28 -0.66861 -5.96364 0
M  V30 4446 H 424.35 -1.26367 -4.68145 0
M  V30 4447 N 425.693 1.55336 -0.266172 0
M  V30 4448 C 426.64 2.22172 0.625165 0
M  V30 4449 C 427.61 1.19211 1.15663 0
M  V30 4450 O 428.795 1.47723 1.20758 0
M  V30 4451 C 425.935 2.93972 1.8076 0
M  V30 4452 C 425.048 4.11632 1.31084 0
M  V30 4453 C 424.183 4.71099 2.45436 0
M  V30 4454 C 423.222 5.8097 1.92718 0
M  V30 4455 N 422.359 6.34538 3.00509 0
M  V30 4456 H 427.199 2.9796 0.0485582 0
M  V30 4457 H 424.736 1.47095 0.0122024 0
M  V30 4458 H 426.694 3.33811 2.50251 0
M  V30 4459 H 425.324 2.20623 2.35638 0
M  V30 4460 H 424.376 3.76975 0.509326 0
M  V30 4461 H 425.688 4.90893 0.884633 0
M  V30 4462 H 424.842 5.13612 3.22936 0
M  V30 4463 H 423.581 3.91096 2.91368 0
M  V30 4464 H 422.586 5.37916 1.13695 0
M  V30 4465 H 423.811 6.62836 1.47733 0
M  V30 4466 H 421.757 5.57433 3.45839 0
M  V30 4467 H 421.674 7.09046 2.62279 0
M  V30 4468 H 422.942 6.81709 3.78011 0
M  V30 4469 N 427.171 -0.0066808 1.57599 0
M  V30 4470 C 428.417 -0.68835 1.91398 0
M  V30 4471 C 428.772 -1.7175 0.86716 0
M  V30 4472 O 428.065 -1.91215 -0.121475 0
M  V30 4473 C 428.259 -1.37939 3.29708 0
M  V30 4474 C 428.088 -0.418689 4.47747 0
M  V30 4475 C 426.858 -0.031526 5.0529 0
M  V30 4476 C 429.056 0.312301 5.13351 0
M  V30 4477 N 427.038 0.928088 6.06844 0
M  V30 4478 C 428.409 1.12682 6.09674 0
M  V30 4479 C 430.464 0.376853 4.96472 0
M  V30 4480 C 429.167 2 6.90936 0
M  V30 4481 C 431.193 1.23723 5.78314 0
M  V30 4482 C 430.555 2.03962 6.74225 0
M  V30 4483 H 426.654 -0.225292 0.748844 0
M  V30 4484 H 429.238 0.0520973 1.9463 0
M  V30 4485 H 427.409 -2.09017 3.27363 0
M  V30 4486 H 429.141 -2.01522 3.50957 0
M  V30 4487 H 425.896 -0.398485 4.71921 0
M  V30 4488 H 426.32 1.40307 6.62301 0
M  V30 4489 H 430.962 -0.22921 4.22178 0
M  V30 4490 H 428.68 2.61676 7.64559 0
M  V30 4491 H 432.266 1.291 5.67296 0
M  V30 4492 H 431.146 2.69461 7.36451 0
M  V30 4493 N 428.649 -1.55105 -0.279332 0
M  V30 4494 C 429.895 -1.75672 -1.01327 0
M  V30 4495 C 430.228 -0.552739 -1.86168 0
M  V30 4496 O 429.503 0.449827 -1.89227 0
M  V30 4497 C 429.786 -3.05825 -1.90114 0
M  V30 4498 C 429.639 -4.36565 -1.08309 0
M  V30 4499 C 430.958 -3.31975 -2.8893 0
M  V30 4500 H 428.077 -0.639149 -0.366957 0
M  V30 4501 H 430.719 -1.87833 -0.286154 0
M  V30 4502 H 428.869 -2.95588 -2.52111 0
M  V30 4503 H 430.541 -4.58751 -0.484314 0
M  V30 4504 H 428.784 -4.32076 -0.386362 0
M  V30 4505 H 429.455 -5.23946 -1.73737 0
M  V30 4506 H 431.931 -3.41963 -2.37067 0
M  V30 4507 H 430.807 -4.2432 -3.48201 0
M  V30 4508 H 431.068 -2.51309 -3.63725 0
M  V30 4509 N 430.127 0.543554 -1.4793 0
M  V30 4510 C 431.057 1.65888 -1.64327 0
M  V30 4511 C 432.038 1.62818 -0.492383 0
M  V30 4512 O 433.223 1.80226 -0.723338 0
M  V30 4513 C 430.353 3.04506 -1.67013 0
M  V30 4514 C 429.307 3.2243 -2.81466 0
M  V30 4515 C 428.633 4.61972 -2.69233 0
M  V30 4516 C 429.933 3.06496 -4.22915 0
M  V30 4517 H 431.627 1.52421 -2.57698 0
M  V30 4518 H 429.173 0.731849 -1.24016 0
M  V30 4519 H 431.126 3.82391 -1.77074 0
M  V30 4520 H 429.85 3.18964 -0.70212 0
M  V30 4521 H 428.509 2.46957 -2.70938 0
M  V30 4522 H 428.157 4.73247 -1.7043 0
M  V30 4523 H 427.857 4.74911 -3.46025 0
M  V30 4524 H 429.381 5.41974 -2.81242 0
M  V30 4525 H 430.795 3.74186 -4.34348 0
M  V30 4526 H 429.192 3.30938 -5.006 0
M  V30 4527 H 430.262 2.03077 -4.40327 0
M  V30 4528 N 431.605 1.3629 0.791371 0
M  V30 4529 C 432.515 1.32606 1.93527 0
M  V30 4530 C 433.531 0.228541 1.72493 0
M  V30 4531 O 434.707 0.460571 1.96063 0
M  V30 4532 C 431.772 1.11271 3.28359 0
M  V30 4533 C 430.833 2.3048 3.62185 0
M  V30 4534 C 430.066 2.10154 4.90583 0
M  V30 4535 O 430.289 1.07572 5.60165 0
M  V30 4536 O 429.223 2.97884 5.23019 0
M  V30 4537 H 433.049 2.28909 1.99585 0
M  V30 4538 H 430.634 1.16818 0.931344 0
M  V30 4539 H 432.516 1.01283 4.09047 0
M  V30 4540 H 431.191 0.180292 3.23198 0
M  V30 4541 H 430.098 2.46036 2.81811 0
M  V30 4542 H 431.431 3.22221 3.72068 0
M  V30 4543 N 433.083 -1.0153 1.20538 0
M  V30 4544 C 434.331 -1.74803 1.01432 0
M  V30 4545 C 434.652 -1.8963 -0.454456 0
M  V30 4546 O 433.922 -1.43975 -1.32846 0
M  V30 4547 H 432.502 -0.647598 0.372324 0
M  V30 4548 H 435.164 -1.22402 1.5167 0
M  V30 4549 H 434.26 -2.75114 1.47373 0
M  V30 4550 N 434.561 -1.01147 -1.20859 0
M  V30 4551 C 435.508 -0.577354 -2.23462 0
M  V30 4552 C 436.478 0.399922 -1.61214 0
M  V30 4553 O 437.663 0.300515 -1.88419 0
M  V30 4554 C 434.803 0.083372 -3.44999 0
M  V30 4555 C 433.916 -0.937856 -4.21697 0
M  V30 4556 C 433.051 -0.248717 -5.30617 0
M  V30 4557 C 432.09 -1.25705 -5.99053 0
M  V30 4558 N 431.227 -0.594939 -6.99575 0
M  V30 4559 H 436.067 -1.45695 -2.59956 0
M  V30 4560 H 433.604 -0.729428 -1.27741 0
M  V30 4561 H 435.562 0.483535 -4.14388 0
M  V30 4562 H 434.192 0.926645 -3.09214 0
M  V30 4563 H 433.244 -1.45622 -3.51423 0
M  V30 4564 H 434.556 -1.70493 -4.68757 0
M  V30 4565 H 433.71 0.207215 -6.06346 0
M  V30 4566 H 432.449 0.55071 -4.84581 0
M  V30 4567 H 431.454 -1.72343 -5.2209 0
M  V30 4568 H 432.679 -2.05767 -6.47176 0
M  V30 4569 H 430.625 0.184713 -6.5574 0
M  V30 4570 H 430.542 -1.30017 -7.44736 0
M  V30 4571 H 431.81 -0.162427 -7.79331 0
M  V30 4572 N 436.039 1.36541 -0.78704 0
M  V30 4573 C 437.288 1.98552 -0.35494 0
M  V30 4574 C 437.601 1.63171 1.07864 0
M  V30 4575 O 438.807 2.18399 1.61289 0
M  V30 4576 C 437.263 3.55136 -0.583671 0
M  V30 4577 C 436.871 3.99444 -2.02851 0
M  V30 4578 C 438.615 4.2395 -0.215957 0
M  V30 4579 C 436.522 5.48796 -2.20403 0
M  V30 4580 H 435.452 0.742888 -0.128972 0
M  V30 4581 H 438.103 1.5587 -0.968337 0
M  V30 4582 H 436.485 3.95875 0.0994046 0
M  V30 4583 H 437.659 3.6991 -2.74779 0
M  V30 4584 H 435.974 3.43459 -2.35425 0
M  V30 4585 H 438.571 5.33709 -0.325405 0
M  V30 4586 H 438.914 4.07827 0.835646 0
M  V30 4587 H 439.447 3.88565 -0.852175 0
M  V30 4588 H 436.186 5.69864 -3.23937 0
M  V30 4589 H 435.706 5.79964 -1.52977 0
M  V30 4590 H 437.385 6.14986 -2.01002 0
M  V30 4591 N 437.518 0.538854 1.48102 0
M  V30 4592 C 438.45 -0.256278 2.27763 0
M  V30 4593 C 439.463 -0.89633 1.35904 0
M  V30 4594 O 440.652 -0.773275 1.60881 0
M  V30 4595 C 437.752 -1.37896 3.09577 0
M  V30 4596 C 436.925 -0.839159 4.29275 0
M  V30 4597 C 435.984 -1.84405 4.9283 0
M  V30 4598 O 435.01 -1.39746 5.51779 0
M  V30 4599 N 436.212 -3.17666 4.85869 0
M  V30 4600 H 438.977 0.426968 2.96643 0
M  V30 4601 H 436.538 0.373747 1.57527 0
M  V30 4602 H 438.53 -2.04955 3.48963 0
M  V30 4603 H 437.1 -1.96572 2.4306 0
M  V30 4604 H 436.32 0.00769287 3.94199 0
M  V30 4605 H 437.608 -0.457548 5.06739 0
M  V30 4606 H 437.006 -3.56609 4.39143 0
M  V30 4607 H 435.563 -3.80334 5.29329 0
M  V30 4608 N 438.996 -1.55193 0.274407 0
M  V30 4609 C 440.226 -2.03692 -0.345442 0
M  V30 4610 C 440.634 -1.15224 -1.50067 0
M  V30 4611 O 439.977 -0.164749 -1.8296 0
M  V30 4612 C 440.039 -3.48325 -0.88939 0
M  V30 4613 C 439.703 -4.56794 0.137115 0
M  V30 4614 C 440.7 -5.11028 0.956378 0
M  V30 4615 C 438.385 -5.01568 0.27115 0
M  V30 4616 C 440.379 -6.08552 1.89587 0
M  V30 4617 C 438.066 -5.98918 1.21412 0
M  V30 4618 C 439.064 -6.52291 2.02498 0
M  V30 4619 O 438.752 -7.47738 2.952 0
M  V30 4620 H 438.484 -0.670893 -0.0829332 0
M  V30 4621 H 441.038 -2.01387 0.404056 0
M  V30 4622 H 439.268 -3.47867 -1.68895 0
M  V30 4623 H 440.957 -3.80167 -1.42225 0
M  V30 4624 H 441.723 -4.7725 0.863559 0
M  V30 4625 H 437.602 -4.5967 -0.349987 0
M  V30 4626 H 441.146 -6.50137 2.52918 0
M  V30 4627 H 437.043 -6.32114 1.30776 0
M  V30 4628 H 437.811 -7.65451 2.89874 0
M  V30 4629 N 440.474 -0.00167713 -1.576 0
M  V30 4630 C 441.421 0.989195 -2.08527 0
M  V30 4631 C 442.391 1.34031 -0.981065 0
M  V30 4632 O 443.576 1.43839 -1.2536 0
M  V30 4633 C 440.716 2.27537 -2.59463 0
M  V30 4634 C 439.829 1.98314 -3.83791 0
M  V30 4635 C 438.964 3.21025 -4.23222 0
M  V30 4636 C 438.003 2.87495 -5.40382 0
M  V30 4637 N 437.14 4.02749 -5.75098 0
M  V30 4638 H 441.98 0.547973 -2.92919 0
M  V30 4639 H 439.517 0.258917 -1.44803 0
M  V30 4640 H 441.475 3.02729 -2.87073 0
M  V30 4641 H 440.105 2.69325 -1.77943 0
M  V30 4642 H 439.157 1.13482 -3.63078 0
M  V30 4643 H 440.469 1.69601 -4.69081 0
M  V30 4644 H 439.623 4.04561 -4.52123 0
M  V30 4645 H 438.362 3.52877 -3.36644 0
M  V30 4646 H 437.367 2.02367 -5.11202 0
M  V30 4647 H 438.592 2.56889 -6.28637 0
M  V30 4648 H 436.538 4.34494 -4.91478 0
M  V30 4649 H 436.455 3.77566 -6.54966 0
M  V30 4650 H 437.723 4.87068 -6.08592 0
M  V30 4651 N 441.952 1.55251 0.271103 0
M  V30 4652 C 442.862 1.9136 1.35714 0
M  V30 4653 C 443.878 0.811075 1.5394 0
M  V30 4654 O 445.054 1.11031 1.6803 0
M  V30 4655 C 442.119 2.1798 2.69603 0
M  V30 4656 C 441.18 3.4153 2.60107 0
M  V30 4657 C 440.413 3.66871 3.8761 0
M  V30 4658 O 440.636 2.94689 4.8838 0
M  V30 4659 O 439.57 4.60405 3.87699 0
M  V30 4660 H 443.396 2.83815 1.08088 0
M  V30 4661 H 440.981 1.41821 0.469792 0
M  V30 4662 H 442.863 2.36518 3.48765 0
M  V30 4663 H 441.538 1.28708 2.97012 0
M  V30 4664 H 440.445 3.28325 1.79314 0
M  V30 4665 H 441.778 4.31027 2.37647 0
M  V30 4666 N 443.43 -0.535701 1.48216 0
M  V30 4667 C 444.66 -1.3148 1.59363 0
M  V30 4668 C 445.068 -1.8753 0.250844 0
M  V30 4669 O 444.411 -1.66821 -0.769174 0
M  V30 4670 C 444.473 -2.50731 2.57632 0
M  V30 4671 C 444.137 -2.15811 4.02833 0
M  V30 4672 C 445.134 -1.71822 4.90686 0
M  V30 4673 C 442.819 -2.26509 4.48329 0
M  V30 4674 C 444.813 -1.3899 6.22062 0
M  V30 4675 C 442.5 -1.93289 5.79726 0
M  V30 4676 C 443.498 -1.49599 6.66415 0
M  V30 4677 O 443.186 -1.16812 7.95368 0
M  V30 4678 H 442.918 -0.406315 0.540263 0
M  V30 4679 H 445.472 -0.653569 1.94725 0
M  V30 4680 H 443.702 -3.19817 2.1738 0
M  V30 4681 H 445.391 -3.12797 2.58675 0
M  V30 4682 H 446.157 -1.63031 4.56778 0
M  V30 4683 H 442.036 -2.59471 3.81045 0
M  V30 4684 H 445.58 -1.04816 6.89681 0
M  V30 4685 H 441.477 -2.01718 6.13172 0
M  V30 4686 H 442.245 -1.30259 8.08069 0
M  V30 4687 N 444.908 -1.36708 -0.784132 0
M  V30 4688 C 446.157 -1.30559 -1.53744 0
M  V30 4689 C 446.47 0.111374 -1.95283 0
M  V30 4690 O 447.676 0.29527 -2.6989 0
M  V30 4691 C 446.132 -2.29098 -2.77565 0
M  V30 4692 C 445.74 -3.76258 -2.43174 0
M  V30 4693 C 447.484 -2.31936 -3.55536 0
M  V30 4694 C 445.391 -4.6656 -3.63422 0
M  V30 4695 H 444.321 -0.48518 -0.577162 0
M  V30 4696 H 446.972 -1.62101 -0.859981 0
M  V30 4697 H 445.354 -1.90557 -3.47137 0
M  V30 4698 H 446.528 -4.23565 -1.81465 0
M  V30 4699 H 444.843 -3.76246 -1.78403 0
M  V30 4700 H 447.44 -2.9661 -4.44889 0
M  V30 4701 H 447.783 -1.3294 -3.94503 0
M  V30 4702 H 448.316 -2.6912 -2.92949 0
M  V30 4703 H 445.055 -5.66638 -3.29547 0
M  V30 4704 H 444.575 -4.23966 -4.24279 0
M  V30 4705 H 446.254 -4.8309 -4.30387 0
M  V30 4706 N 446.386 1.0089 -1.21074 0
M  V30 4707 C 447.635 1.74019 -1.01981 0
M  V30 4708 C 447.948 1.90408 0.447665 0
M  V30 4709 O 449.154 2.60707 0.757906 0
M  V30 4710 C 447.61 3.13026 -1.77603 0
M  V30 4711 C 447.218 3.04623 -3.28495 0
M  V30 4712 C 448.962 3.90312 -1.66904 0
M  V30 4713 C 446.869 4.38685 -3.96623 0
M  V30 4714 H 445.799 0.652422 -0.377971 0
M  V30 4715 H 448.45 1.12755 -1.44771 0
M  V30 4716 H 446.832 3.74878 -1.27604 0
M  V30 4717 H 448.006 2.52032 -3.85767 0
M  V30 4718 H 446.321 2.40827 -3.39693 0
M  V30 4719 H 448.918 4.8951 -2.15138 0
M  V30 4720 H 449.261 4.11558 -0.62658 0
M  V30 4721 H 449.794 3.35104 -2.14359 0
M  V30 4722 H 446.533 4.22641 -5.01054 0
M  V30 4723 H 446.053 4.91252 -3.4414 0
M  V30 4724 H 447.732 5.075 -4.01314 0
M  V30 4725 N 447.864 1.01787 1.20321 0
M  V30 4726 C 448.774 0.598898 2.26827 0
M  V30 4727 C 449.79 -0.36418 1.70146 0
M  V30 4728 O 450.966 -0.224812 2.00141 0
M  V30 4729 C 448.031 -0.0549769 3.46656 0
M  V30 4730 C 447.092 0.954205 4.18561 0
M  V30 4731 C 446.325 0.331439 5.3267 0
M  V30 4732 O 446.548 -0.86851 5.63749 0
M  V30 4733 O 445.482 1.0488 5.92692 0
M  V30 4734 H 449.308 1.48562 2.64883 0
M  V30 4735 H 446.893 0.787434 1.26964 0
M  V30 4736 H 448.775 -0.420102 4.19301 0
M  V30 4737 H 447.45 -0.915876 3.10473 0
M  V30 4738 H 446.357 1.37072 3.48083 0
M  V30 4739 H 447.69 1.78511 4.58688 0
M  V30 4740 N 449.342 -1.36122 0.79427 0
M  V30 4741 C 450.59 -1.98718 0.368177 0
M  V30 4742 C 450.911 -1.63345 -1.06506 0
M  V30 4743 O 450.181 -0.909825 -1.73491 0
M  V30 4744 H 448.761 -0.735038 0.133146 0
M  V30 4745 H 451.423 -1.66239 1.01739 0
M  V30 4746 H 450.519 -3.08633 0.463923 0
M  V30 4747 N 450.82 -0.546701 -1.47814 0
M  V30 4748 C 452.067 -0.0187407 -2.02491 0
M  V30 4749 C 452.395 1.32685 -1.42215 0
M  V30 4750 O 451.65 1.87413 -0.563454 0
M  V30 4751 C 451.949 0.134869 -3.57145 0
M  V30 4752 C 451.615 -1.13849 -4.3629 0
M  V30 4753 C 450.277 -1.48743 -4.57634 0
M  V30 4754 C 452.629 -1.98277 -4.82012 0
M  V30 4755 C 449.957 -2.67932 -5.21948 0
M  V30 4756 C 452.309 -3.16659 -5.4764 0
M  V30 4757 C 450.973 -3.51879 -5.67219 0
M  V30 4758 H 450.243 -0.0068577 -0.740968 0
M  V30 4759 H 452.89 -0.716097 -1.77607 0
M  V30 4760 H 451.195 0.915118 -3.80963 0
M  V30 4761 H 452.892 0.558556 -3.97091 0
M  V30 4762 H 449.482 -0.856767 -4.19949 0
M  V30 4763 H 453.666 -1.72628 -4.6531 0
M  V30 4764 H 448.922 -2.95401 -5.35302 0
M  V30 4765 H 453.096 -3.82374 -5.82033 0
M  V30 4766 H 450.723 -4.44331 -6.16825 0
M  V30 4767 N 452.299 1.55045 -0.282633 0
M  V30 4768 C 453.209 2.26491 0.61147 0
M  V30 4769 C 454.225 1.29348 1.16384 0
M  V30 4770 O 455.401 1.62298 1.19253 0
M  V30 4771 C 452.466 2.97779 1.77563 0
M  V30 4772 C 451.527 4.10418 1.25919 0
M  V30 4773 C 450.76 4.78297 2.36786 0
M  V30 4774 O 450.983 4.45426 3.56303 0
M  V30 4775 O 449.917 5.66089 2.04517 0
M  V30 4776 H 453.743 3.03683 0.0324615 0
M  V30 4777 H 451.328 1.49317 -0.0497576 0
M  V30 4778 H 453.21 3.42554 2.45427 0
M  V30 4779 H 451.885 2.23498 2.34159 0
M  V30 4780 H 450.792 3.70082 0.546797 0
M  V30 4781 H 452.125 4.86622 0.738887 0
M  V30 4782 N 453.777 0.010035 1.57597 0
M  V30 4783 C 454.725 -0.996272 2.10184 0
M  V30 4784 C 455.719 -1.34942 1.02406 0
M  V30 4785 O 456.925 -1.33389 1.20861 0
M  V30 4786 H 453.3 -0.338982 0.671264 0
M  V30 4787 H 455.271 -0.527272 2.93705 0
M  V30 4788 C 454.02 -2.27599 2.62857 0
M  V30 4789 H 453.343 -2.01295 3.45428 0
M  V30 4790 H 454.783 -2.96265 3.0332 0
M  V30 4791 C 453.242 -2.99269 1.54725 0
M  V30 4792 O 453.772 -3.90644 0.93597 0
M  V30 4793 N 451.978 -2.61269 1.27228 0
M  V30 4794 H 451.525 -1.87043 1.77123 0
M  V30 4795 H 451.483 -3.09534 0.550999 0
M  V30 4796 N 455.255 -1.55392 -0.262866 0
M  V30 4797 C 456.188 -1.8391 -1.35101 0
M  V30 4798 C 457.166 -0.692901 -1.47097 0
M  V30 4799 O 458.35 -0.936979 -1.63563 0
M  V30 4800 C 455.477 -2.00969 -2.72634 0
M  V30 4801 C 454.523 -3.23559 -2.7787 0
M  V30 4802 S 455.356 -4.80647 -2.3609 0
M  V30 4803 C 456.512 -5.00692 -3.75578 0
M  V30 4804 H 456.745 -2.75918 -1.1071 0
M  V30 4805 H 454.278 -1.47294 -0.463029 0
M  V30 4806 H 456.236 -2.11482 -3.51832 0
M  V30 4807 H 454.897 -1.09832 -2.94272 0
M  V30 4808 H 454.09 -3.32413 -3.78837 0
M  V30 4809 H 453.692 -3.11689 -2.06702 0
M  V30 4810 H 455.984 -4.87055 -4.70939 0
M  V30 4811 H 456.927 -6.02717 -3.71669 0
M  V30 4812 H 457.335 -4.28619 -3.6735 0
M  V30 4813 N 456.733 0.527833 -1.48498 0
M  V30 4814 C 458.144 1.10975 -1.50138 0
M  V30 4815 C 458.495 1.943 -0.272378 0
M  V30 4816 O 457.62 2.07319 0.620301 0
M  V30 4817 C 458.215 2.01927 -2.72049 0
M  V30 4818 C 456.774 2.55332 -2.76554 0
M  V30 4819 C 455.921 1.32341 -2.43683 0
M  V30 4820 H 458.872 0.312986 -1.55583 0
M  V30 4821 H 458.893 2.86244 -2.50689 0
M  V30 4822 H 458.405 1.41254 -3.61481 0
M  V30 4823 H 456.506 3.19721 -1.91336 0
M  V30 4824 H 456.619 2.94319 -3.78038 0
M  V30 4825 H 454.983 1.63989 -1.94884 0
M  V30 4826 H 455.766 0.734165 -3.35358 0
M  V30 4827 N 458.211 1.37122 0.776871 0
M  V30 4828 C 459.174 1.32301 1.8716 0
M  V30 4829 C 460.174 0.228099 1.59174 0
M  V30 4830 O 461.364 0.483642 1.67352 0
M  V30 4831 C 458.496 1.054 3.24197 0
M  V30 4832 H 459.689 2.29673 1.92848 0
M  V30 4833 H 457.242 1.22077 0.97606 0
M  V30 4834 H 457.977 0.0853872 3.24188 0
M  V30 4835 H 457.762 1.84648 3.45901 0
M  V30 4836 H 459.252 1.04664 4.04271 0
M  V30 4837 N 459.689 -1.00246 1.21608 0
M  V30 4838 C 460.652 -2.07233 0.979133 0
M  V30 4839 C 461.652 -1.6072 -0.0508219 0
M  V30 4840 O 462.842 -1.73196 0.186712 0
M  V30 4841 C 459.974 -3.37546 0.477016 0
M  V30 4842 H 461.167 -2.29687 1.92831 0
M  V30 4843 H 458.72 -1.17261 1.03342 0
M  V30 4844 H 459.455 -3.20773 -0.476966 0
M  V30 4845 H 459.24 -3.72638 1.21997 0
M  V30 4846 H 460.73 -4.16285 0.331181 0
M  V30 4847 N 461.167 -1.02423 -1.1978 0
M  V30 4848 C 462.414 -0.717988 -1.89344 0
M  V30 4849 C 462.742 0.753036 -1.79331 0
M  V30 4850 O 461.997 1.56355 -1.17692 0
M  V30 4851 C 462.296 -1.1088 -3.39765 0
M  V30 4852 C 461.962 -2.57731 -3.6998 0
M  V30 4853 C 460.624 -2.97854 -3.77937 0
M  V30 4854 C 462.976 -3.52763 -3.83677 0
M  V30 4855 C 460.304 -4.31931 -3.97054 0
M  V30 4856 C 462.656 -4.86538 -4.04306 0
M  V30 4857 C 461.32 -5.26356 -4.10494 0
M  V30 4858 H 460.59 -0.26273 -0.692859 0
M  V30 4859 H 463.237 -1.28623 -1.41875 0
M  V30 4860 H 461.542 -0.459094 -3.89101 0
M  V30 4861 H 463.239 -0.849432 -3.919 0
M  V30 4862 H 459.829 -2.25646 -3.64393 0
M  V30 4863 H 464.013 -3.2292 -3.76877 0
M  V30 4864 H 459.269 -4.62324 -4.00083 0
M  V30 4865 H 463.443 -5.60093 -4.13846 0
M  V30 4866 H 461.07 -6.3026 -4.2506 0
M  V30 4867 N 462.645 1.35699 -0.801477 0
M  V30 4868 C 463.578 2.2768 -0.153922 0
M  V30 4869 C 464.556 1.47832 0.67709 0
M  V30 4870 O 465.74 1.77104 0.645474 0
M  V30 4871 C 462.867 3.2943 0.786986 0
M  V30 4872 C 461.913 4.26485 0.0362447 0
M  V30 4873 S 462.746 5.19573 -1.2963 0
M  V30 4874 C 463.902 6.24866 -0.359705 0
M  V30 4875 H 464.135 2.82254 -0.9338 0
M  V30 4876 H 461.668 1.42421 -0.596283 0
M  V30 4877 H 463.626 3.8855 1.32436 0
M  V30 4878 H 462.287 2.73745 1.54021 0
M  V30 4879 H 461.48 4.98378 0.750668 0
M  V30 4880 H 461.082 3.71508 -0.431017 0
M  V30 4881 H 463.374 6.75957 0.456954 0
M  V30 4882 H 464.317 7.00307 -1.04768 0
M  V30 4883 H 464.725 5.64484 0.0423274 0
M  V30 4884 N 464.123 0.554532 1.47522 0
M  V30 4885 C 465.371 0.0294208 2.02079 0
M  V30 4886 C 465.692 -1.32411 1.43151 0
M  V30 4887 O 464.962 -1.863 0.605728 0
M  V30 4888 H 463.542 0.00788672 0.746958 0
M  V30 4889 H 466.204 0.723934 1.80956 0
M  V30 4890 H 465.3 -0.0606745 3.12041 0
M  V30 4891 N 465.601 -1.54893 0.290851 0
M  V30 4892 C 466.534 -2.19289 -0.631489 0
M  V30 4893 C 467.512 -1.15893 -1.14051 0
M  V30 4894 O 468.696 -1.4449 -1.21058 0
M  V30 4895 C 465.823 -2.82866 -1.86291 0
M  V30 4896 C 464.869 -3.997 -1.48801 0
M  V30 4897 S 465.702 -5.32641 -0.552644 0
M  V30 4898 C 466.858 -5.99696 -1.79209 0
M  V30 4899 H 467.091 -2.9718 -0.0843791 0
M  V30 4900 H 464.624 -1.54218 0.075031 0
M  V30 4901 H 466.582 -3.20124 -2.56964 0
M  V30 4902 H 465.243 -2.04839 -2.38117 0
M  V30 4903 H 464.436 -4.42932 -2.40473 0
M  V30 4904 H 464.038 -3.63947 -0.861321 0
M  V30 4905 H 466.33 -6.19886 -2.734 0
M  V30 4906 H 467.273 -6.94071 -1.40251 0
M  V30 4907 H 467.681 -5.29226 -1.96419 0
M  V30 4908 N 467.08 -0.0183926 -1.57589 0
M  V30 4909 C 468.01 0.965596 -2.12599 0
M  V30 4910 C 468.991 1.34641 -1.0395 0
M  V30 4911 O 470.176 1.42693 -1.31729 0
M  V30 4912 C 467.306 2.25149 -2.64434 0
M  V30 4913 C 466.26 2.01175 -3.77773 0
M  V30 4914 C 465.586 3.35937 -4.15994 0
M  V30 4915 C 466.886 1.35953 -5.04296 0
M  V30 4916 H 468.58 0.507504 -2.95067 0
M  V30 4917 H 466.126 0.242671 -1.41941 0
M  V30 4918 H 468.079 2.94357 -3.01549 0
M  V30 4919 H 466.803 2.73105 -1.79112 0
M  V30 4920 H 465.462 1.34388 -3.4108 0
M  V30 4921 H 465.11 3.81631 -3.27669 0
M  V30 4922 H 464.81 3.20705 -4.92364 0
M  V30 4923 H 466.334 4.0643 -4.55683 0
M  V30 4924 H 467.748 1.95144 -5.39065 0
M  V30 4925 H 466.145 1.31152 -5.85593 0
M  V30 4926 H 467.215 0.331071 -4.83768 0
M  V30 4927 N 468.558 1.5553 0.254621 0
M  V30 4928 C 469.505 1.89666 1.31512 0
M  V30 4929 C 470.475 0.750057 1.482 0
M  V30 4930 O 471.66 1.00301 1.62309 0
M  V30 4931 C 468.8 2.19009 2.667 0
M  V30 4932 C 467.913 3.46435 2.58083 0
M  V30 4933 C 467.048 3.65386 3.85573 0
M  V30 4934 C 466.087 4.8644 3.71541 0
M  V30 4935 N 465.224 5.01952 4.90906 0
M  V30 4936 H 470.064 2.80109 1.017 0
M  V30 4937 H 467.601 1.38666 0.490938 0
M  V30 4938 H 469.559 2.34025 3.45381 0
M  V30 4939 H 468.189 1.31779 2.94676 0
M  V30 4940 H 467.241 3.39792 1.71013 0
M  V30 4941 H 468.553 4.35258 2.43622 0
M  V30 4942 H 467.707 3.80319 4.72697 0
M  V30 4943 H 466.446 2.74781 4.02922 0
M  V30 4944 H 465.451 4.71491 2.82801 0
M  V30 4945 H 466.676 5.78497 3.55694 0
M  V30 4946 H 464.622 4.14283 5.08631 0
M  V30 4947 H 464.539 5.84851 4.79046 0
M  V30 4948 H 465.807 5.21289 5.7955 0
M  V30 4949 N 470.036 -0.519951 1.48776 0
M  V30 4950 C 471.284 -1.2727 1.56993 0
M  V30 4951 C 471.605 -1.9339 0.25004 0
M  V30 4952 O 470.875 -1.81822 -0.729216 0
M  V30 4953 H 469.455 -0.472732 0.578389 0
M  V30 4954 H 472.117 -0.604234 1.85297 0
M  V30 4955 H 471.213 -2.04669 2.3562 0
M  V30 4956 N 471.514 -1.37532 -0.769588 0
M  V30 4957 C 472.791 -1.23392 -1.51768 0
M  V30 4958 C 473.171 0.17157 -2.10402 0
M  V30 4959 O 472.519 1.17943 -1.95708 0
M  V30 4960 C 472.729 -2.33163 -2.59685 0
M  V30 4961 C 474.077 -2.70809 -3.27028 0
M  V30 4962 O 475.101 -2.32355 -2.69981 0
M  V30 4963 O 473.96 -3.37066 -4.30173 0
M  V30 4964 H 471.054 -0.481617 -0.67229 0
M  V30 4965 H 473.6 -1.49318 -0.806368 0
M  V30 4966 H 472.372 -3.27273 -2.14494 0
M  V30 4967 H 471.995 -2.08713 -3.38415 0
M  V30 4968 N 472.992 0.995999 -1.22138 0
M  V30 4969 C 473.94 2.10673 -0.985876 0
M  V30 4970 C 474.934 1.69255 0.0699553 0
M  V30 4971 O 476.14 1.79812 -0.0822176 0
M  V30 4972 H 472.515 0.688865 -0.30161 0
M  V30 4973 H 474.486 2.27711 -1.92848 0
M  V30 4974 C 473.235 3.42881 -0.576909 0
M  V30 4975 H 472.558 3.75191 -1.38101 0
M  V30 4976 H 473.998 4.21589 -0.451518 0
M  V30 4977 C 472.457 3.29265 0.713196 0
M  V30 4978 O 472.987 3.60777 1.76643 0
M  V30 4979 N 471.193 2.82456 0.683162 0
M  V30 4980 H 470.74 2.5701 -0.174242 0
M  V30 4981 H 470.698 2.73727 1.54663 0
M  V30 4982 N 474.47 1.03057 1.19235 0
M  V30 4983 C 475.4 0.633497 2.24742 0
M  V30 4984 C 476.381 -0.358335 1.66283 0
M  V30 4985 O 477.566 -0.240676 1.92703 0
M  V30 4986 C 474.696 -0.0147648 3.47297 0
M  V30 4987 C 473.65 0.899527 4.18441 0
M  V30 4988 C 472.976 0.116281 5.34574 0
M  V30 4989 C 474.276 2.21404 4.73051 0
M  V30 4990 H 475.97 1.5155 2.58211 0
M  V30 4991 H 473.516 0.73014 1.24117 0
M  V30 4992 H 475.469 -0.304202 4.20301 0
M  V30 4993 H 474.193 -0.931577 3.13032 0
M  V30 4994 H 472.852 1.17319 3.47321 0
M  V30 4995 H 472.5 -0.802619 4.96555 0
M  V30 4996 H 472.2 0.725293 5.83107 0
M  V30 4997 H 473.724 -0.166376 6.10373 0
M  V30 4998 H 475.138 1.98601 5.37802 0
M  V30 4999 H 473.535 2.77512 5.32078 0
M  V30 5000 H 474.605 2.86752 3.91026 0
M  V30 5001 N 475.948 -1.35272 0.808662 0
M  V30 5002 C 477.196 -1.98316 0.389233 0
M  V30 5003 C 477.517 -1.64465 -1.04767 0
M  V30 5004 O 476.787 -0.928175 -1.72516 0
M  V30 5005 H 475.367 -0.733585 0.140935 0
M  V30 5006 H 478.029 -1.6515 1.03496 0
M  V30 5007 H 477.125 -3.08123 0.496631 0
M  V30 5008 N 477.426 -0.562348 -1.47226 0
M  V30 5009 C 478.373 0.182461 -2.30078 0
M  V30 5010 C 479.343 0.903503 -1.39377 0
M  V30 5011 O 480.528 0.898188 -1.68337 0
M  V30 5012 C 477.668 1.20322 -3.23445 0
M  V30 5013 C 476.781 0.487717 -4.29238 0
M  V30 5014 C 475.916 1.49422 -5.09752 0
M  V30 5015 C 474.955 0.763976 -6.07314 0
M  V30 5016 N 474.092 1.71755 -6.80768 0
M  V30 5017 H 478.932 -0.530169 -2.93246 0
M  V30 5018 H 476.469 -0.273276 -1.44539 0
M  V30 5019 H 478.427 1.80768 -3.76004 0
M  V30 5020 H 477.057 1.88382 -2.6213 0
M  V30 5021 H 476.109 -0.231374 -3.79696 0
M  V30 5022 H 477.421 -0.0841003 -4.98729 0
M  V30 5023 H 476.575 2.17206 -5.66486 0
M  V30 5024 H 475.314 2.09995 -4.40174 0
M  V30 5025 H 474.319 0.0722344 -5.49753 0
M  V30 5026 H 475.544 0.16391 -6.78902 0
M  V30 5027 H 473.49 2.31177 -6.13916 0
M  V30 5028 H 473.407 1.19802 -7.46447 0
M  V30 5029 H 474.675 2.38638 -7.42073 0
M  V30 5030 N 478.904 1.54736 -0.299062 0
M  V30 5031 C 480.132 2.04512 0.313447 0
M  V30 5032 C 480.547 1.17643 1.47667 0
M  V30 5033 O 479.904 0.20164 1.81383 0
M  V30 5034 C 479.955 3.53171 0.771542 0
M  V30 5035 O 479.676 4.36736 -0.345379 0
M  V30 5036 C 481.177 4.18936 1.4494 0
M  V30 5037 H 478.397 0.667507 0.0683784 0
M  V30 5038 H 480.941 1.99752 -0.438129 0
M  V30 5039 H 479.096 3.58298 1.47314 0
M  V30 5040 H 479.51 5.24499 0.0109219 0
M  V30 5041 H 480.984 5.24482 1.72111 0
M  V30 5042 H 481.461 3.68554 2.38883 0
M  V30 5043 H 482.067 4.17879 0.791028 0
M  V30 5044 N 480.382 0.0267497 1.57577 0
M  V30 5045 C 481.631 -0.651736 1.9088 0
M  V30 5046 C 481.944 -1.73427 0.904576 0
M  V30 5047 O 483.15 -2.46923 1.12877 0
M  V30 5048 C 481.606 -1.21048 3.38933 0
M  V30 5049 C 481.214 -0.161362 4.47709 0
M  V30 5050 C 482.958 -1.86562 3.81307 0
M  V30 5051 C 480.865 -0.731611 5.86857 0
M  V30 5052 H 479.795 -0.247198 0.712326 0
M  V30 5053 H 482.446 0.0916641 1.83271 0
M  V30 5054 H 480.828 -2.00542 3.41466 0
M  V30 5055 H 482.002 0.61094 4.56732 0
M  V30 5056 H 480.317 0.394877 4.14523 0
M  V30 5057 H 482.914 -2.30178 4.8262 0
M  V30 5058 H 483.257 -2.70735 3.16241 0
M  V30 5059 H 483.79 -1.13762 3.81186 0
M  V30 5060 H 480.529 0.0719329 6.55461 0
M  V30 5061 H 480.049 -1.47245 5.81445 0
M  V30 5062 H 481.728 -1.22208 6.35354 0
M  V30 5063 N 481.861 -1.55662 -0.24637 0
M  V30 5064 C 483.107 -1.77782 -0.975779 0
M  V30 5065 C 483.44 -0.592103 -1.84953 0
M  V30 5066 O 482.715 0.409588 -1.90138 0
M  V30 5067 C 482.998 -3.09788 -1.83584 0
M  V30 5068 C 482.851 -4.38764 -0.990241 0
M  V30 5069 C 484.17 -3.38029 -2.81823 0
M  V30 5070 H 481.289 -0.646789 -0.353317 0
M  V30 5071 H 483.931 -1.88398 -0.246248 0
M  V30 5072 H 482.081 -3.00869 -2.45784 0
M  V30 5073 H 483.753 -4.59675 -0.386897 0
M  V30 5074 H 481.996 -4.32798 -0.294626 0
M  V30 5075 H 482.667 -5.27514 -1.62584 0
M  V30 5076 H 485.143 -3.46915 -2.2976 0
M  V30 5077 H 484.019 -4.3161 -3.39122 0
M  V30 5078 H 484.28 -2.58968 -3.58313 0
M  V30 5079 N 483.339 0.512053 -1.4905 0
M  V30 5080 C 484.286 1.6148 -1.64902 0
M  V30 5081 C 485.256 1.58687 -0.490673 0
M  V30 5082 O 486.441 1.76842 -0.71636 0
M  V30 5083 C 483.581 2.99676 -1.71139 0
M  V30 5084 C 482.694 3.12568 -2.98203 0
M  V30 5085 C 481.829 4.4143 -2.95487 0
M  V30 5086 C 480.868 4.47916 -4.17179 0
M  V30 5087 N 480.005 5.68191 -4.12437 0
M  V30 5088 H 484.845 1.47271 -2.59066 0
M  V30 5089 H 482.382 0.716713 -1.28459 0
M  V30 5090 H 484.34 3.79761 -1.72736 0
M  V30 5091 H 482.97 3.12614 -0.804508 0
M  V30 5092 H 482.022 2.25618 -3.06269 0
M  V30 5093 H 483.334 3.1322 -3.88194 0
M  V30 5094 H 482.488 5.29825 -2.95585 0
M  V30 5095 H 481.227 4.43326 -2.03256 0
M  V30 5096 H 480.232 3.57925 -4.17337 0
M  V30 5097 H 481.457 4.47744 -5.1059 0
M  V30 5098 H 479.403 5.7095 -3.23036 0
M  V30 5099 H 479.32 5.70413 -4.96151 0
M  V30 5100 H 480.588 6.58823 -4.16621 0
M  V30 5101 N 484.817 1.37938 0.762283 0
M  V30 5102 C 485.78 1.34279 1.85747 0
M  V30 5103 C 486.78 0.244969 1.58923 0
M  V30 5104 O 487.97 0.501365 1.66829 0
M  V30 5105 C 485.102 1.08833 3.23061 0
M  V30 5106 H 486.295 2.31705 1.90401 0
M  V30 5107 H 483.848 1.23105 0.963057 0
M  V30 5108 H 484.583 0.119767 3.24079 0
M  V30 5109 H 484.368 1.88306 3.43923 0
M  V30 5110 H 485.858 1.08946 4.03138 0
M  V30 5111 O 486.334 -0.902626 1.33921 0
M  V30 5112 H 487.025 -1.53762 1.178 0
M  V30 END ATOM
M  V30 BEGIN BOND
M  V30 END BOND
M  V30 END CTAB
M  END
$$$$
