drugbank_target|Q59560 Protein RecA (DB02930; DB03222)
 OpenBabel12092119503D

  0  0  0     0  0            999 V3000
M  V30 BEGIN CTAB
M  V30 COUNTS 5286 5320 0 0 0
M  V30 BEGIN ATOM
M  V30 1 H -0.908 1.98254 -0.117106 0
M  V30 2 N 0 1.576 0 0
M  V30 3 C 0.933 2.03868 1.02534 0
M  V30 4 C 1.911 0.928543 1.3348 0
M  V30 5 O 3.095 1.19667 1.45644 0
M  V30 6 C 0.222 2.43627 2.35294 0
M  V30 7 C -0.732 3.65373 2.2001 0
M  V30 8 S 0.101 5.13292 1.52614 0
M  V30 9 C 1.257 5.56322 2.86805 0
M  V30 10 H 1.49 2.90518 0.631377 0
M  V30 11 H -0.977 1.52953 0.210867 0
M  V30 12 H 0.981 2.67203 3.11629 0
M  V30 13 H -0.358 1.57376 2.7183 0
M  V30 14 H -1.165 3.90944 3.18086 0
M  V30 15 H -1.563 3.418 1.51819 0
M  V30 16 H 0.729 5.58782 3.83104 0
M  V30 17 H 1.672 6.56266 2.65933 0
M  V30 18 H 2.08 4.83886 2.90714 0
M  V30 19 N 1.4781 -0.272755 1.55222 0
M  V30 20 C 2.4411 -1.32041 1.87344 0
M  V30 21 C 3.4411 -1.42342 0.74803 0
M  V30 22 O 4.6311 -1.41488 1.0162 0
M  V30 23 C 1.7631 -2.70173 2.07893 0
M  V30 24 H 2.9561 -1.04789 2.80997 0
M  V30 25 H 0.5091 -0.51083 1.47717 0
M  V30 26 H 1.2441 -3.02605 1.16622 0
M  V30 27 H 1.0291 -2.64082 2.89833 0
M  V30 28 H 2.5191 -3.45869 2.34017 0
M  V30 29 N 2.9562 -1.48159 -0.537278 0
M  V30 30 C 3.8882 -1.58218 -1.65831 0
M  V30 31 C 4.9012 -0.466948 -1.5596 0
M  V30 32 O 6.0902 -0.73747 -1.62553 0
M  V30 33 C 3.1902 -1.48906 -3.04434 0
M  V30 34 C 2.3632 -2.75343 -3.3986 0
M  V30 35 C 1.4222 -2.59588 -4.57712 0
M  V30 36 O 0.4482 -3.33457 -4.61297 0
M  V30 37 N 1.6502 -1.68724 -5.55439 0
M  V30 38 H 4.4152 -2.54891 -1.57641 0
M  V30 39 H 1.9762 -1.4479 -0.724386 0
M  V30 40 H 3.9682 -1.36072 -3.81139 0
M  V30 41 H 2.5382 -0.602368 -3.06741 0
M  V30 42 H 1.7582 -3.02795 -2.52406 0
M  V30 43 H 3.0462 -3.5924 -3.60311 0
M  V30 44 H 2.4442 -1.07898 -5.55315 0
M  V30 45 H 1.0012 -1.61832 -6.3139 0
M  V30 46 N 4.4343 0.785586 -1.36625 0
M  V30 47 C 5.3663 1.90711 -1.2713 0
M  V30 48 C 6.3793 1.61688 -0.189986 0
M  V30 49 O 7.5683 1.72864 -0.445014 0
M  V30 50 C 4.6683 3.25611 -0.939713 0
M  V30 51 C 3.8413 3.82385 -2.12369 0
M  V30 52 C 2.9003 4.95732 -1.76456 0
M  V30 53 O 1.9263 5.12047 -2.48589 0
M  V30 54 N 3.1283 5.76258 -0.700492 0
M  V30 55 H 5.8933 1.99376 -2.23762 0
M  V30 56 H 3.4543 0.964041 -1.30069 0
M  V30 57 H 5.4463 3.98937 -0.680554 0
M  V30 58 H 4.0163 3.12538 -0.0624074 0
M  V30 59 H 3.2363 3.01001 -2.54543 0
M  V30 60 H 4.5243 4.17047 -2.9146 0
M  V30 61 H 3.9223 5.65609 -0.101624 0
M  V30 62 H 2.4793 6.4987 -0.501165 0
M  V30 63 N 5.9124 1.20967 1.01018 0
M  V30 64 C 6.8754 0.965918 2.07853 0
M  V30 65 C 7.8754 -0.0610545 1.60684 0
M  V30 66 O 9.0654 0.175681 1.73312 0
M  V30 67 C 6.1974 0.455513 3.37843 0
M  V30 68 H 7.3904 1.91365 2.3091 0
M  V30 69 H 4.9434 1.02594 1.17916 0
M  V30 70 H 5.6784 -0.497381 3.20463 0
M  V30 71 H 5.4634 1.19622 3.73407 0
M  V30 72 H 6.9534 0.304667 4.16487 0
M  V30 73 N 7.3905 -1.2043 1.01659 0
M  V30 74 C 8.8015 -1.71517 0.737482 0
M  V30 75 C 9.1525 -1.81547 -0.743973 0
M  V30 76 O 8.2775 -1.47803 -1.58061 0
M  V30 77 C 8.8725 -3.11515 1.33206 0
M  V30 78 C 7.4315 -3.59912 1.10183 0
M  V30 79 C 6.5785 -2.37116 1.43776 0
M  V30 80 H 9.5295 -1.05444 1.18606 0
M  V30 81 H 9.5505 -3.73575 0.722636 0
M  V30 82 H 9.0625 -3.04182 2.41028 0
M  V30 83 H 7.1635 -3.72577 0.0412756 0
M  V30 84 H 7.2765 -4.44731 1.78188 0
M  V30 85 H 5.6405 -2.39857 0.856778 0
M  V30 86 H 6.4235 -2.32424 2.52654 0
M  V30 87 N 8.8686 -0.792821 -1.36206 0
M  V30 88 C 10.1456 -0.290627 -1.93429 0
M  V30 89 C 10.5256 1.21773 -1.72437 0
M  V30 90 O 9.8736 2.0108 -1.08531 0
M  V30 91 C 10.0836 -0.686973 -3.42172 0
M  V30 92 C 11.4316 -0.668643 -4.19302 0
M  V30 93 O 12.4556 -0.627658 -3.50626 0
M  V30 94 O 11.3146 -0.714597 -5.41808 0
M  V30 95 H 8.4086 -0.0727927 -0.82379 0
M  V30 96 H 10.9546 -0.875593 -1.45367 0
M  V30 97 H 9.7266 -1.72711 -3.51122 0
M  V30 98 H 9.3496 -0.0760733 -3.97527 0
M  V30 99 N 10.3467 1.47872 -0.545128 0
M  V30 100 C 11.7627 1.5829 -0.204032 0
M  V30 101 C 11.9627 1.54529 1.29317 0
M  V30 102 O 11.0187 1.44232 2.07252 0
M  V30 103 C 12.3317 2.89304 -0.819987 0
M  V30 104 C 13.8797 3.02864 -0.790105 0
M  V30 105 C 14.3547 4.3656 -1.38491 0
M  V30 106 N 15.8457 4.43165 -1.34755 0
M  V30 107 C 16.5807 5.45153 -1.77753 0
M  V30 108 N 16.0767 6.54016 -2.2855 0
M  V30 109 N 17.8697 5.36125 -1.68897 0
M  V30 110 H 10.0207 1.4856 -1.51802 0
M  V30 111 H 12.2837 0.706305 -0.632327 0
M  V30 112 H 11.9897 2.97757 -1.87173 0
M  V30 113 H 11.8637 3.75957 -0.305915 0
M  V30 114 H 14.2507 2.94014 0.252913 0
M  V30 115 H 14.3317 2.17782 -1.34181 0
M  V30 116 H 13.9757 4.46164 -2.42693 0
M  V30 117 H 13.9057 5.20353 -0.808754 0
M  V30 118 H 16.3967 3.65083 -0.975855 0
M  V30 119 H 16.7097 7.27994 -2.59314 0
M  V30 120 H 15.0547 6.54938 -2.32553 0
M  V30 121 H 18.2457 4.49975 -1.28998 0
M  V30 122 H 18.4187 6.15472 -2.02726 0
M  V30 123 N 11.8248 0.280983 1.55075 0
M  V30 124 C 12.7348 -0.61388 2.26426 0
M  V30 125 C 13.7508 -1.16521 1.29224 0
M  V30 126 O 14.9268 -1.19426 1.62171 0
M  V30 127 C 11.9918 -1.7788 2.9759 0
M  V30 128 C 11.0528 -1.26355 4.10284 0
M  V30 129 C 10.2858 -2.37295 4.78045 0
M  V30 130 O 10.5088 -3.56777 4.45047 0
M  V30 131 O 9.4428 -2.05119 5.65871 0
M  V30 132 H 13.2688 -0.0356932 3.03679 0
M  V30 133 H 10.8538 0.0481686 1.49322 0
M  V30 134 H 12.7358 -2.45791 3.42293 0
M  V30 135 H 11.4108 -2.34397 2.23249 0
M  V30 136 H 10.3178 -0.550735 3.70024 0
M  V30 137 H 11.6508 -0.744065 4.86543 0
M  V30 138 N 13.3029 -1.57598 0.00835791 0
M  V30 139 C 14.2499 -2.08945 -0.980346 0
M  V30 140 C 15.2199 -0.986738 -1.33614 0
M  V30 141 O 16.4049 -1.25968 -1.43306 0
M  V30 142 C 13.5449 -2.60425 -2.26435 0
M  V30 143 C 12.6579 -3.84628 -1.96685 0
M  V30 144 C 11.7929 -4.24579 -3.19228 0
M  V30 145 C 10.8319 -5.41596 -2.85202 0
M  V30 146 N 9.9689 -5.768 -4.00307 0
M  V30 147 H 14.8089 -2.93148 -0.535551 0
M  V30 148 H 12.3459 -1.44912 -0.252776 0
M  V30 149 H 14.3039 -2.88354 -3.01509 0
M  V30 150 H 12.9339 -1.79083 -2.68568 0
M  V30 151 H 11.9859 -3.63556 -1.11942 0
M  V30 152 H 13.2979 -4.69796 -1.67611 0
M  V30 153 H 12.4519 -4.53834 -4.02641 0
M  V30 154 H 11.1909 -3.38137 -3.51447 0
M  V30 155 H 10.1959 -5.12056 -2.00198 0
M  V30 156 H 11.4209 -6.29721 -2.54222 0
M  V30 157 H 9.3669 -4.93316 -4.32407 0
M  V30 158 H 9.2839 -6.5656 -3.74786 0
M  V30 159 H 10.5519 -6.10652 -4.84484 0
M  V30 160 N 14.781 0.264519 -1.55364 0
M  V30 161 C 15.744 1.31046 -1.88042 0
M  V30 162 C 16.744 1.41943 -0.755569 0
M  V30 163 O 17.934 1.40947 -1.02369 0
M  V30 164 C 15.066 2.69067 -2.09323 0
M  V30 165 H 16.259 1.03297 -2.81549 0
M  V30 166 H 13.812 0.502989 -1.47986 0
M  V30 167 H 14.547 3.01982 -1.18226 0
M  V30 168 H 14.332 2.62542 -2.91229 0
M  V30 169 H 15.822 3.44623 -2.35848 0
M  V30 170 N 16.2591 1.48442 0.529413 0
M  V30 171 C 17.1891 1.65902 1.64313 0
M  V30 172 C 18.1701 0.507897 1.6234 0
M  V30 173 O 19.3551 0.740503 1.79528 0
M  V30 174 C 16.4851 1.69911 3.02898 0
M  V30 175 C 15.4391 2.8453 3.19729 0
M  V30 176 C 14.7651 2.73629 4.59381 0
M  V30 177 C 16.0651 4.25821 3.02447 0
M  V30 178 H 17.7591 2.5914 1.49955 0
M  V30 179 H 15.3051 1.24709 0.719982 0
M  V30 180 H 17.2581 1.80715 3.80684 0
M  V30 181 H 15.9821 0.732524 3.18279 0
M  V30 182 H 14.6411 2.73283 2.44361 0
M  V30 183 H 14.2891 1.74938 4.71599 0
M  V30 184 H 13.9891 3.50541 4.71588 0
M  V30 185 H 15.5131 2.86401 5.39265 0
M  V30 186 H 16.9271 4.37898 3.70024 0
M  V30 187 H 15.3241 5.03735 3.26146 0
M  V30 188 H 16.3941 4.42244 1.98867 0
M  V30 189 N 17.7372 -0.778329 1.37039 0
M  V30 190 C 18.6472 -1.92253 1.34446 0
M  V30 191 C 19.6632 -1.72267 0.244991 0
M  V30 192 O 20.8392 -1.95615 0.479258 0
M  V30 193 C 17.9042 -3.27282 1.144 0
M  V30 194 C 16.9652 -3.59969 2.33925 0
M  V30 195 C 16.1982 -4.88555 2.14825 0
M  V30 196 O 16.4212 -5.59113 1.12912 0
M  V30 197 O 15.3552 -5.20153 3.02861 0
M  V30 198 H 19.1812 -1.97392 2.30803 0
M  V30 199 H 16.7662 -0.920154 1.17701 0
M  V30 200 H 18.6482 -4.08062 1.05182 0
M  V30 201 H 17.3232 -3.23011 0.211124 0
M  V30 202 H 16.2302 -2.7945 2.48714 0
M  V30 203 H 17.5632 -3.68976 3.25757 0
M  V30 204 N 19.2153 -1.21501 -1.00376 0
M  V30 205 C 20.1453 -0.999478 -2.11028 0
M  V30 206 C 21.1263 0.0759671 -1.6993 0
M  V30 207 O 22.3113 -0.0841106 -1.94018 0
M  V30 208 C 19.4413 -0.564709 -3.42678 0
M  V30 209 C 18.3953 -1.58486 -3.97576 0
M  V30 210 C 17.7213 -1.00628 -5.25146 0
M  V30 211 C 19.0213 -2.97204 -4.29496 0
M  V30 212 H 20.7153 -1.92495 -2.29317 0
M  V30 213 H 18.2613 -0.92693 -1.102 0
M  V30 214 H 20.2143 -0.401091 -4.19487 0
M  V30 215 H 18.9383 0.396411 -3.24185 0
M  V30 216 H 17.5973 -1.73606 -3.22888 0
M  V30 217 H 17.2453 -0.0368439 -5.02987 0
M  V30 218 H 16.9453 -1.68771 -5.62841 0
M  V30 219 H 18.4693 -0.854015 -6.04598 0
M  V30 220 H 19.8833 -2.8552 -4.97143 0
M  V30 221 H 18.2803 -3.62372 -4.78338 0
M  V30 222 H 19.3503 -3.47956 -3.3772 0
M  V30 223 N 20.6934 1.19889 -1.02296 0
M  V30 224 C 21.6564 2.21116 -0.603351 0
M  V30 225 C 22.6564 1.5738 0.329884 0
M  V30 226 O 23.8464 1.73802 0.117702 0
M  V30 227 C 20.9784 3.40696 0.117992 0
M  V30 228 H 22.1714 2.59754 -1.49893 0
M  V30 229 H 19.7244 1.33463 -0.813468 0
M  V30 230 H 20.4594 3.07569 1.0282 0
M  V30 231 H 20.2444 3.88188 -0.552511 0
M  V30 232 H 21.7344 4.15692 0.398696 0
M  V30 233 N 22.1715 0.800033 1.35784 0
M  V30 234 C 23.1045 0.151499 2.27697 0
M  V30 235 C 24.0825 -0.678663 1.4776 0
M  V30 236 O 25.2665 -0.647358 1.77035 0
M  V30 237 C 22.3935 -0.790492 3.29346 0
M  V30 238 C 21.4395 -0.0407832 4.26481 0
M  V30 239 S 22.2725 1.29077 5.19711 0
M  V30 240 C 23.4285 0.353055 6.24903 0
M  V30 241 H 23.6615 0.930796 2.82353 0
M  V30 242 H 21.1945 0.594767 1.42485 0
M  V30 243 H 23.1525 -1.3285 3.88409 0
M  V30 244 H 21.8135 -1.54312 2.73581 0
M  V30 245 H 21.0065 -0.755971 4.98298 0
M  V30 246 H 20.6085 0.427063 3.71554 0
M  V30 247 H 22.9005 -0.464147 6.75908 0
M  V30 248 H 23.8435 1.04023 7.00418 0
M  V30 249 H 24.2515 -0.0483344 5.64479 0
M  V30 250 N 23.6496 -1.47581 0.552962 0
M  V30 251 C 24.6126 -2.28439 -0.186605 0
M  V30 252 C 25.6126 -1.36706 -0.84665 0
M  V30 253 O 26.8026 -1.59378 -0.703164 0
M  V30 254 C 23.9346 -3.16264 -1.2724 0
M  V30 255 H 25.1276 -2.95294 0.523609 0
M  V30 256 H 22.6806 -1.532 0.309745 0
M  V30 257 H 23.4156 -2.54091 -2.01514 0
M  V30 258 H 23.2006 -3.83769 -0.803968 0
M  V30 259 H 24.6906 -3.77198 -1.79196 0
M  V30 260 N 25.1277 -0.289203 -1.54924 0
M  V30 261 C 26.0597 0.625583 -2.20497 0
M  V30 262 C 27.0727 1.10667 -1.19402 0
M  V30 263 O 28.2617 1.02615 -1.46056 0
M  V30 264 C 25.3617 1.86702 -2.82835 0
M  V30 265 C 24.5347 1.5304 -4.09753 0
M  V30 266 C 23.5937 2.62576 -4.56005 0
M  V30 267 O 22.6197 2.28167 -5.21468 0
M  V30 268 N 23.8217 3.92901 -4.27328 0
M  V30 269 H 26.5867 0.0642801 -2.99631 0
M  V30 270 H 24.1477 -0.110896 -1.6152 0
M  V30 271 H 26.1397 2.59304 -3.10715 0
M  V30 272 H 24.7097 2.33702 -2.07611 0
M  V30 273 H 23.9297 0.637564 -3.8901 0
M  V30 274 H 25.2177 1.28072 -4.92418 0
M  V30 275 H 24.6157 4.23671 -3.74859 0
M  V30 276 H 23.1727 4.61837 -4.59946 0
M  V30 277 N 26.6058 1.57591 -0.0167156 0
M  V30 278 C 27.8548 1.90461 0.663877 0
M  V30 279 C 28.1678 0.893515 1.73999 0
M  V30 280 O 29.3738 1.11302 2.47637 0
M  V30 281 C 27.8298 3.38155 1.23204 0
M  V30 282 C 27.4378 4.47597 0.189866 0
M  V30 283 C 29.1818 3.80111 1.88986 0
M  V30 284 C 27.0888 5.86379 0.768964 0
M  V30 285 H 26.0188 0.710738 0.251729 0
M  V30 286 H 28.6698 1.83326 -0.0799926 0
M  V30 287 H 27.0518 3.40182 2.02712 0
M  V30 288 H 28.2258 4.57112 -0.581846 0
M  V30 289 H 26.5408 4.14766 -0.368475 0
M  V30 290 H 29.1378 4.81145 2.33247 0
M  V30 291 H 29.4808 3.14511 2.72743 0
M  V30 292 H 30.0138 3.80454 1.16187 0
M  V30 293 H 26.7528 6.55493 -0.0301957 0
M  V30 294 H 26.2728 5.80496 1.50945 0
M  V30 295 H 27.9518 6.34563 1.26251 0
M  V30 296 N 28.0839 -0.256276 1.55502 0
M  V30 297 C 29.3609 -1.00789 1.67633 0
M  V30 298 C 29.7409 -2.03706 0.553826 0
M  V30 299 O 29.0889 -2.24145 -0.443969 0
M  V30 300 C 29.2989 -1.64968 3.07549 0
M  V30 301 C 30.6469 -2.15505 3.65845 0
M  V30 302 O 31.6709 -1.74925 3.1029 0
M  V30 303 O 30.5299 -2.89986 4.63217 0
M  V30 304 H 27.6239 -0.468553 0.681459 0
M  V30 305 H 30.1699 -0.250806 1.67836 0
M  V30 306 H 28.9419 -0.904785 3.80696 0
M  V30 307 H 28.5649 -2.47321 3.11317 0
M  V30 308 N 29.562 -1.4872 -0.521534 0
M  V30 309 C 30.509 -1.63871 -1.62527 0
M  V30 310 C 31.479 -0.480559 -1.58996 0
M  V30 311 O 32.664 -0.705085 -1.77294 0
M  V30 312 C 29.804 -1.69227 -3.00759 0
M  V30 313 C 28.917 -2.96207 -3.14461 0
M  V30 314 C 28.052 -2.92671 -4.43303 0
M  V30 315 C 27.091 -4.14318 -4.50563 0
M  V30 316 N 26.228 -4.0881 -5.70805 0
M  V30 317 H 31.068 -2.58123 -1.48918 0
M  V30 318 H 28.605 -1.28 -0.724878 0
M  V30 319 H 30.563 -1.70314 -3.80853 0
M  V30 320 H 29.193 -0.784586 -3.1312 0
M  V30 321 H 28.245 -3.04826 -2.27564 0
M  V30 322 H 29.557 -3.86192 -3.15686 0
M  V30 323 H 28.711 -2.92206 -5.31696 0
M  V30 324 H 27.45 -2.00429 -4.44612 0
M  V30 325 H 26.455 -4.15049 -3.60575 0
M  V30 326 H 27.68 -5.07729 -4.50986 0
M  V30 327 H 25.626 -3.19394 -5.72995 0
M  V30 328 H 25.543 -4.92509 -5.7356 0
M  V30 329 H 26.811 -4.12418 -6.61462 0
M  V30 330 N 31.0401 0.771051 -1.3745 0
M  V30 331 C 31.9881 1.90574 -1.33358 0
M  V30 332 C 32.9821 1.67936 -0.22224 0
M  V30 333 O 34.1881 1.75717 -0.390304 0
M  V30 334 H 30.5631 0.626714 -0.415612 0
M  V30 335 H 32.5341 1.91142 -2.29144 0
M  V30 336 C 31.2831 3.27845 -1.15813 0
M  V30 337 H 30.6061 3.45842 -2.00583 0
M  V30 338 H 32.0461 4.07538 -1.17 0
M  V30 339 C 30.5051 3.36625 0.136165 0
M  V30 340 O 31.0351 3.85785 1.11949 0
M  V30 341 N 29.2411 2.89997 0.187099 0
M  V30 342 H 28.7881 2.50182 -0.613753 0
M  V30 343 H 28.7461 2.96252 1.05272 0
M  V30 344 N 32.5182 1.22032 0.997298 0
M  V30 345 C 33.7652 1.04222 1.73621 0
M  V30 346 C 34.0932 -0.423264 1.89839 0
M  V30 347 O 33.3482 -1.3302 1.43542 0
M  V30 348 C 33.6472 1.69345 3.14733 0
M  V30 349 C 33.3132 3.19226 3.18442 0
M  V30 350 C 31.9752 3.60124 3.19161 0
M  V30 351 C 34.3272 4.15181 3.15078 0
M  V30 352 C 31.6552 4.95467 3.14212 0
M  V30 353 C 34.0072 5.50495 3.1167 0
M  V30 354 C 32.6712 5.90779 3.10703 0
M  V30 355 H 31.9412 0.381374 0.635323 0
M  V30 356 H 34.5882 1.51732 1.16831 0
M  V30 357 H 32.8932 1.14147 3.74803 0
M  V30 358 H 34.5902 1.53059 3.7064 0
M  V30 359 H 31.1802 2.86659 3.18629 0
M  V30 360 H 35.3642 3.84605 3.13676 0
M  V30 361 H 30.6202 5.25916 3.11805 0
M  V30 362 H 34.7942 6.24576 3.08022 0
M  V30 363 H 32.4212 6.9562 3.06622 0
M  V30 364 N 33.9963 -1.19345 1.0293 0
M  V30 365 C 35.2443 -1.88665 0.724574 0
M  V30 366 C 35.5653 -1.80036 -0.749144 0
M  V30 367 O 34.8353 -1.2111 -1.53978 0
M  V30 368 H 33.4153 -0.698406 0.265025 0
M  V30 369 H 36.0773 -1.44885 1.30362 0
M  V30 370 H 35.1733 -2.94987 1.01926 0
M  V30 371 N 35.4744 -0.807222 -1.35358 0
M  V30 372 C 36.4214 -0.216037 -2.29787 0
M  V30 373 C 37.3914 0.650278 -1.52842 0
M  V30 374 O 38.5764 0.595227 -1.81278 0
M  V30 375 C 35.7164 0.628893 -3.39321 0
M  V30 376 C 34.8294 -0.257927 -4.31229 0
M  V30 377 C 33.9644 0.595069 -5.27856 0
M  V30 378 C 33.0034 -0.292111 -6.11403 0
M  V30 379 N 32.1404 0.520895 -7.00165 0
M  V30 380 H 36.9804 -1.02671 -2.79755 0
M  V30 381 H 34.5174 -0.517839 -1.37684 0
M  V30 382 H 36.4754 1.13393 -4.01494 0
M  V30 383 H 35.1054 1.40482 -2.90628 0
M  V30 384 H 34.1574 -0.881076 -3.70056 0
M  V30 385 H 35.4694 -0.940759 -4.89848 0
M  V30 386 H 34.6234 1.16522 -5.95405 0
M  V30 387 H 33.3624 1.31146 -4.69736 0
M  V30 388 H 32.3674 -0.874525 -5.428 0
M  V30 389 H 33.5924 -1.00638 -6.71602 0
M  V30 390 H 31.5384 1.22125 -6.44532 0
M  V30 391 H 31.4554 -0.103877 -7.55929 0
M  V30 392 H 32.7234 1.0743 -7.72062 0
M  V30 393 N 36.9525 1.47285 -0.560781 0
M  V30 394 C 38.2005 2.02064 -0.0379868 0
M  V30 395 C 38.5215 1.43711 1.31803 0
M  V30 396 O 37.7915 0.61362 1.86042 0
M  V30 397 H 36.3715 0.746918 -0.0110531 0
M  V30 398 H 39.0335 1.80648 -0.731598 0
M  V30 399 H 38.1295 3.12064 0.0474463 0
M  V30 400 N 38.4306 0.297415 1.54768 0
M  V30 401 C 39.6556 -0.318435 2.04941 0
M  V30 402 C 40.0806 -1.4701 1.17345 0
M  V30 403 O 39.4386 -1.80436 0.176758 0
M  V30 404 C 39.4866 -0.755749 3.52592 0
M  V30 405 O 38.5906 -1.86088 3.68028 0
M  V30 406 H 37.9316 -0.062421 0.661059 0
M  V30 407 H 40.4616 0.438215 1.99852 0
M  V30 408 H 40.4716 -1.04552 3.94376 0
M  V30 409 H 39.1466 0.0867233 4.1581 0
M  V30 410 H 37.7236 -1.57193 3.38149 0
M  V30 411 N 39.9087 -1.5758 0.0250728 0
M  V30 412 C 41.1547 -1.91917 -0.655413 0
M  V30 413 C 41.4877 -0.901433 -1.72011 0
M  V30 414 O 40.7627 0.0764069 -1.9435 0
M  V30 415 C 41.0457 -3.36751 -1.27558 0
M  V30 416 C 40.8987 -4.49258 -0.220719 0
M  V30 417 C 42.2177 -3.81469 -2.19475 0
M  V30 418 H 39.3367 -0.697925 -0.23679 0
M  V30 419 H 41.9787 -1.89825 0.0815036 0
M  V30 420 H 40.1287 -3.38664 -1.90365 0
M  V30 421 H 41.8007 -4.59478 0.409601 0
M  V30 422 H 40.0437 -4.31415 0.454264 0
M  V30 423 H 40.7147 -5.47618 -0.694175 0
M  V30 424 H 43.1907 -3.81266 -1.66659 0
M  V30 425 H 42.0667 -4.83512 -2.59822 0
M  V30 426 H 42.3277 -3.16744 -3.08424 0
M  V30 427 N 41.3868 0.248026 -1.55636 0
M  V30 428 C 42.3198 1.3334 -1.85191 0
M  V30 429 C 43.2978 1.46429 -0.706906 0
M  V30 430 O 44.4818 1.62662 -0.952544 0
M  V30 431 C 41.6088 2.70703 -2.03562 0
M  V30 432 C 40.6548 2.7477 -3.26196 0
M  V30 433 S 41.4878 2.31493 -4.82878 0
M  V30 434 C 42.6438 3.70783 -5.04253 0
M  V30 435 H 42.8768 1.08072 -2.76962 0
M  V30 436 H 40.4098 0.448952 -1.47729 0
M  V30 437 H 42.3678 3.49798 -2.1483 0
M  V30 438 H 41.0288 2.9321 -1.12635 0
M  V30 439 H 40.2218 3.75648 -3.36013 0
M  V30 440 H 39.8238 2.03719 -3.13647 0
M  V30 441 H 42.1158 4.6627 -4.91527 0
M  V30 442 H 43.0588 3.65901 -6.06236 0
M  V30 443 H 43.4668 3.63244 -4.32105 0
M  V30 444 N 42.8649 1.48995 0.513639 0
M  V30 445 C 44.2809 1.35478 0.843682 0
M  V30 446 C 44.4809 0.378213 1.97919 0
M  V30 447 O 43.5369 -0.194689 2.51748 0
M  V30 448 C 44.8499 2.75901 1.1958 0
M  V30 449 C 46.3979 2.84509 1.30474 0
M  V30 450 C 46.8729 4.25671 1.69021 0
M  V30 451 N 48.3639 4.28422 1.76094 0
M  V30 452 C 49.0989 5.34601 2.07338 0
M  V30 453 N 48.5949 6.5104 2.36894 0
M  V30 454 N 50.3879 5.22007 2.08483 0
M  V30 455 H 42.5389 2.11092 -0.235328 0
M  V30 456 H 44.8019 0.947039 -0.0426669 0
M  V30 457 H 44.5079 3.49001 0.434913 0
M  V30 458 H 44.3819 3.10467 2.1422 0
M  V30 459 H 46.7689 2.11655 2.05637 0
M  V30 460 H 46.8499 2.53542 0.339155 0
M  V30 461 H 46.4939 4.99048 0.944135 0
M  V30 462 H 46.4239 4.54094 2.66658 0
M  V30 463 H 48.9149 3.44441 1.55464 0
M  V30 464 H 49.2279 7.2779 2.59887 0
M  V30 465 H 47.5729 6.54287 2.34378 0
M  V30 466 H 50.7639 4.30051 1.84861 0
M  V30 467 H 50.9369 6.04854 2.325 0
M  V30 468 N 44.343 -0.763751 1.37857 0
M  V30 469 C 45.273 -1.89103 1.36975 0
M  V30 470 C 46.254 -1.68439 0.237152 0
M  V30 471 O 47.439 -1.8918 0.438713 0
M  V30 472 C 44.569 -3.26496 1.18395 0
M  V30 473 C 43.523 -3.61741 2.28751 0
M  V30 474 C 42.849 -4.97762 1.95286 0
M  V30 475 C 44.149 -3.67665 3.70972 0
M  V30 476 H 45.843 -1.90099 2.31307 0
M  V30 477 H 43.389 -0.91319 1.11341 0
M  V30 478 H 45.342 -4.05003 1.16406 0
M  V30 479 H 44.066 -3.25955 0.205215 0
M  V30 480 H 42.725 -2.85547 2.29909 0
M  V30 481 H 42.373 -4.93769 0.959221 0
M  V30 482 H 42.073 -5.22313 2.69189 0
M  V30 483 H 43.597 -5.7866 1.94898 0
M  V30 484 H 45.011 -4.36307 3.719 0
M  V30 485 H 43.408 -4.03718 4.43995 0
M  V30 486 H 44.478 -2.68134 4.0402 0
M  V30 487 N 45.8211 -1.22559 -0.990812 0
M  V30 488 C 47.0691 -1.04933 -1.72724 0
M  V30 489 C 47.3901 0.416158 -1.90508 0
M  V30 490 O 46.6601 1.29918 -1.46622 0
M  V30 491 H 45.2401 -0.385296 -0.639965 0
M  V30 492 H 47.9021 -1.54105 -1.19322 0
M  V30 493 H 46.9981 -1.52886 -2.72089 0
M  V30 494 N 47.2992 1.18797 -1.03562 0
M  V30 495 C 48.2092 2.25913 -0.632505 0
M  V30 496 C 49.2252 1.70668 0.338882 0
M  V30 497 O 50.4012 2.00453 0.195076 0
M  V30 498 C 47.4662 3.467 0.00350942 0
M  V30 499 C 46.5272 4.17098 -1.01624 0
M  V30 500 C 45.7602 5.32119 -0.410478 0
M  V30 501 O 45.9832 5.64976 0.784725 0
M  V30 502 O 44.9172 5.9107 -1.13667 0
M  V30 503 H 48.7432 2.62648 -1.52478 0
M  V30 504 H 46.3282 1.25781 -0.806195 0
M  V30 505 H 48.2102 4.19878 0.35781 0
M  V30 506 H 46.8852 3.11798 0.869686 0
M  V30 507 H 45.7922 3.4601 -1.42224 0
M  V30 508 H 47.1252 4.55987 -1.85301 0
M  V30 509 N 48.7773 0.814389 1.34928 0
M  V30 510 C 49.6873 0.231978 2.3345 0
M  V30 511 C 50.7033 -0.629139 1.62228 0
M  V30 512 O 51.8793 -0.539052 1.94052 0
M  V30 513 C 48.9443 -0.603482 3.41407 0
M  V30 514 C 48.0053 0.279037 4.28392 0
M  V30 515 C 47.2383 -0.516643 5.31193 0
M  V30 516 O 47.4613 -1.75068 5.4287 0
M  V30 517 O 46.3953 0.0965652 6.01823 0
M  V30 518 H 50.2213 1.04721 2.85074 0
M  V30 519 H 47.8063 0.576343 1.37836 0
M  V30 520 H 49.6883 -1.07908 4.0735 0
M  V30 521 H 48.3633 -1.39618 2.92042 0
M  V30 522 H 47.2703 0.801948 3.65403 0
M  V30 523 H 48.6033 1.03588 4.81176 0
M  V30 524 N 50.2554 -1.46986 0.568584 0
M  V30 525 C 51.5014 -2.02741 0.0488709 0
M  V30 526 C 51.8344 -1.44077 -1.30214 0
M  V30 527 O 51.1094 -0.600552 -1.84996 0
M  V30 528 C 51.3924 -3.60086 -0.032047 0
M  V30 529 C 51.2454 -4.29162 1.34686 0
M  V30 530 C 52.5644 -4.33838 -0.739798 0
M  V30 531 H 49.6834 -0.736749 0.0192338 0
M  V30 532 H 52.3254 -1.75289 0.733065 0
M  V30 533 H 50.4754 -3.83606 -0.61473 0
M  V30 534 H 52.1474 -4.16948 1.97362 0
M  V30 535 H 50.3904 -3.89073 1.91846 0
M  V30 536 H 51.0614 -5.37826 1.24285 0
M  V30 537 H 53.5374 -4.15378 -0.244939 0
M  V30 538 H 52.4134 -5.43537 -0.765406 0
M  V30 539 H 52.6744 -4.03875 -1.79827 0
M  V30 540 N 51.7335 -0.305618 -1.54608 0
M  V30 541 C 53.1495 0.0476228 -1.59529 0
M  V30 542 C 53.3495 1.52025 -1.32252 0
M  V30 543 O 52.4055 2.27368 -1.09818 0
M  V30 544 C 53.7185 -0.354471 -2.98603 0
M  V30 545 C 55.2665 -0.303622 -3.11524 0
M  V30 546 C 55.7415 -0.680608 -4.52915 0
M  V30 547 N 57.2325 -0.63332 -4.5885 0
M  V30 548 C 57.9675 -0.897432 -5.66334 0
M  V30 549 N 57.4635 -1.22775 -6.81834 0
M  V30 550 N 59.2565 -0.824186 -5.56025 0
M  V30 551 H 51.4075 -1.2653 -1.70599 0
M  V30 552 H 53.6705 -0.513291 -0.797017 0
M  V30 553 H 53.3765 -1.3798 -3.23503 0
M  V30 554 H 53.2505 0.289568 -3.76087 0
M  V30 555 H 55.6375 0.712472 -2.8637 0
M  V30 556 H 55.7185 -0.982348 -2.36185 0
M  V30 557 H 55.3625 -1.69453 -4.78799 0
M  V30 558 H 55.2925 0.0202385 -5.26596 0
M  V30 559 H 57.7835 -0.389138 -3.75891 0
M  V30 560 H 58.0965 -1.41513 -7.59733 0
M  V30 561 H 56.4415 -1.26583 -6.83375 0
M  V30 562 H 59.6325 -0.565748 -4.64669 0
M  V30 563 H 59.8055 -1.03338 -6.39707 0
M  V30 564 N 53.2116 1.57565 -0.0334293 0
M  V30 565 C 54.1436 2.0739 0.975811 0
M  V30 566 C 55.1566 0.998166 1.2861 0
M  V30 567 O 56.3456 1.27426 1.25 0
M  V30 568 C 53.4456 2.4871 2.30209 0
M  V30 569 C 52.6186 3.79413 2.17634 0
M  V30 570 C 51.6776 4.07237 3.33233 0
M  V30 571 O 50.7036 4.77425 3.09927 0
M  V30 572 N 51.9056 3.5775 4.5716 0
M  V30 573 H 54.6706 2.94598 0.55066 0
M  V30 574 H 52.2316 1.61173 0.15323 0
M  V30 575 H 54.2236 2.64413 3.06378 0
M  V30 576 H 52.7936 1.66845 2.64351 0
M  V30 577 H 52.0136 3.73465 1.26165 0
M  V30 578 H 53.3016 4.65038 2.0644 0
M  V30 579 H 52.6996 3.00976 4.78989 0
M  V30 580 H 51.2566 3.78724 5.30482 0
M  V30 581 N 54.6897 -0.239769 1.55765 0
M  V30 582 C 56.1007 -0.808263 1.68297 0
M  V30 583 C 56.4517 -1.85736 0.632181 0
M  V30 584 O 55.5767 -2.15277 -0.220204 0
M  V30 585 C 56.1717 -1.47284 3.05111 0
M  V30 586 C 54.7307 -1.98895 3.19559 0
M  V30 587 C 53.8777 -0.842575 2.64189 0
M  V30 588 H 56.8287 -0.0154422 1.58692 0
M  V30 589 H 56.8497 -2.34111 2.99954 0
M  V30 590 H 56.3617 -0.709053 3.81568 0
M  V30 591 H 54.4627 -2.78132 2.47938 0
M  V30 592 H 54.5757 -2.18143 4.26556 0
M  V30 593 H 52.9397 -1.24501 2.22197 0
M  V30 594 H 53.7227 -0.0917552 3.43177 0
M  V30 595 N 56.1678 -1.49265 -0.50573 0
M  V30 596 C 57.4168 -1.57761 -1.25675 0
M  V30 597 C 57.7298 -0.267371 -1.93764 0
M  V30 598 O 58.9358 -0.230827 -2.70517 0
M  V30 599 C 57.3918 -2.78332 -2.28165 0
M  V30 600 C 56.9998 -4.16096 -1.66037 0
M  V30 601 C 58.7438 -2.96155 -3.04125 0
M  V30 602 C 56.6508 -5.27895 -2.6661 0
M  V30 603 H 55.5808 -0.587391 -0.472745 0
M  V30 604 H 58.2318 -1.75644 -0.53118 0
M  V30 605 H 56.6138 -2.53934 -3.03865 0
M  V30 606 H 57.7878 -4.50612 -0.963622 0
M  V30 607 H 56.1028 -4.03591 -1.02484 0
M  V30 608 H 58.6998 -3.76849 -3.79327 0
M  V30 609 H 59.0428 -2.06534 -3.61455 0
M  V30 610 H 59.5758 -3.2057 -2.35541 0
M  V30 611 H 56.3148 -6.1956 -2.14068 0
M  V30 612 H 55.8348 -4.97839 -3.34539 0
M  V30 613 H 57.5138 -5.57031 -3.29129 0
M  V30 614 N 57.6459 0.756429 -1.3826 0
M  V30 615 C 58.8709 1.55077 -1.37717 0
M  V30 616 C 59.2959 1.88073 0.03164 0
M  V30 617 O 58.6539 1.50364 1.01293 0
M  V30 618 C 58.7019 2.8283 -2.23695 0
M  V30 619 O 57.8059 3.77862 -1.6521 0
M  V30 620 H 57.1469 0.469152 -0.469885 0
M  V30 621 H 59.6769 0.935019 -1.81985 0
M  V30 622 H 59.6869 3.31783 -2.37453 0
M  V30 623 H 58.3619 2.58144 -3.2609 0
M  V30 624 H 56.9389 3.36555 -1.60578 0
M  V30 625 N 59.124 1.23083 0.984299 0
M  V30 626 C 60.37 1.06214 1.72761 0
M  V30 627 C 60.703 -0.400584 1.90024 0
M  V30 628 O 59.978 -1.29672 1.44967 0
M  V30 629 C 60.261 1.78375 3.12817 0
M  V30 630 C 60.114 3.32296 3.03149 0
M  V30 631 C 61.433 1.54309 4.12161 0
M  V30 632 H 58.552 0.387251 0.627061 0
M  V30 633 H 61.194 1.51536 1.14616 0
M  V30 634 H 59.344 1.39848 3.62457 0
M  V30 635 H 61.016 3.8032 2.61064 0
M  V30 636 H 59.259 3.6153 2.39747 0
M  V30 637 H 59.93 3.77972 4.02295 0
M  V30 638 H 62.406 1.87791 3.71314 0
M  V30 639 H 61.282 2.07281 5.08258 0
M  V30 640 H 61.543 0.477572 4.39513 0
M  V30 641 N 60.6021 -1.18246 1.0419 0
M  V30 642 C 61.8511 -1.87588 0.741194 0
M  V30 643 C 62.1641 -1.81303 -0.734066 0
M  V30 644 O 63.3701 -2.46019 -1.14834 0
M  V30 645 C 61.8261 -3.36538 1.27555 0
M  V30 646 C 61.4341 -3.51349 2.77953 0
M  V30 647 C 63.1781 -4.11273 1.05143 0
M  V30 648 C 61.0851 -4.94265 3.2474 0
M  V30 649 H 60.0151 -0.702622 0.273565 0
M  V30 650 H 62.6661 -1.33601 1.25789 0
M  V30 651 H 61.0481 -3.9 0.686703 0
M  V30 652 H 62.2221 -3.08153 3.42605 0
M  V30 653 H 60.5371 -2.90022 2.98791 0
M  V30 654 H 63.1341 -5.16689 1.37611 0
M  V30 655 H 63.4771 -4.16298 -0.0112774 0
M  V30 656 H 64.0101 -3.63987 1.60495 0
M  V30 657 H 60.7491 -4.94408 4.30396 0
M  V30 658 H 60.2691 -5.38172 2.64823 0
M  V30 659 H 61.9481 -5.62987 3.18834 0
M  V30 660 N 62.0802 -0.821533 -1.34494 0
M  V30 661 C 63.4912 -0.467956 -1.8074 0
M  V30 662 C 63.8422 1.01151 -1.68116 0
M  V30 663 O 62.9672 1.78707 -1.22036 0
M  V30 664 C 63.5622 -0.842627 -3.28154 0
M  V30 665 C 62.1212 -0.541439 -3.72485 0
M  V30 666 C 61.2682 -1.06028 -2.56229 0
M  V30 667 H 64.2192 -1.01183 -1.22261 0
M  V30 668 H 64.2402 -0.145876 -3.8022 0
M  V30 669 H 63.7522 -1.91945 -3.37311 0
M  V30 670 H 61.8532 0.526034 -3.68868 0
M  V30 671 H 61.9662 -1.08453 -4.66663 0
M  V30 672 H 60.3302 -0.481892 -2.501 0
M  V30 673 H 61.1132 -2.14352 -2.68157 0
M  V30 674 N 63.5583 1.46682 -0.576371 0
M  V30 675 C 64.7863 2.06798 -0.0649635 0
M  V30 676 C 65.2013 1.42612 1.23723 0
M  V30 677 O 64.5583 0.529203 1.74659 0
M  V30 678 C 64.6093 3.6132 0.114202 0
M  V30 679 O 64.3303 4.23104 -1.13644 0
M  V30 680 C 65.8313 4.38349 0.66069 0
M  V30 681 H 63.0513 0.668778 -0.0545616 0
M  V30 682 H 65.5953 1.88404 -0.795237 0
M  V30 683 H 63.7503 3.79162 0.794673 0
M  V30 684 H 64.1643 5.15894 -0.946253 0
M  V30 685 H 65.6383 5.47081 0.73526 0
M  V30 686 H 66.1153 4.05953 1.67627 0
M  V30 687 H 66.7213 4.25297 0.0152951 0
M  V30 688 N 65.0364 0.313813 1.54444 0
M  V30 689 C 66.2844 -0.291099 1.99993 0
M  V30 690 C 66.6054 -1.53418 1.20366 0
M  V30 691 O 65.8754 -1.93544 0.302927 0
M  V30 692 H 64.4554 -0.110552 0.738774 0
M  V30 693 H 67.1174 0.428106 1.9014 0
M  V30 694 H 66.2134 -0.554268 3.07139 0
M  V30 695 N 66.5145 -1.57545 0.0417849 0
M  V30 696 C 67.7395 -1.97035 -0.647455 0
M  V30 697 C 68.1645 -0.918775 -1.64135 0
M  V30 698 O 67.5225 0.119006 -1.80909 0
M  V30 699 C 67.5705 -3.35609 -1.31905 0
M  V30 700 O 66.6745 -3.3287 -2.43457 0
M  V30 701 H 66.0155 -0.64211 -0.169086 0
M  V30 702 H 68.5455 -2.04318 0.107399 0
M  V30 703 H 68.5555 -3.72126 -1.67291 0
M  V30 704 H 67.2305 -4.11685 -0.590586 0
M  V30 705 H 65.8075 -3.08087 -2.10088 0
M  V30 706 N 67.9926 0.231505 -1.5589 0
M  V30 707 C 69.2416 0.955346 -1.7764 0
M  V30 708 C 69.5546 1.85893 -0.608546 0
M  V30 709 O 70.7606 2.62067 -0.70943 0
M  V30 710 C 69.2166 1.74886 -3.14552 0
M  V30 711 C 68.8246 0.891915 -4.39032 0
M  V30 712 C 70.5686 2.46452 -3.45633 0
M  V30 713 C 68.4756 1.68221 -5.66971 0
M  V30 714 H 67.4056 0.360446 -0.662265 0
M  V30 715 H 70.0566 0.209516 -1.823 0
M  V30 716 H 68.4386 2.53723 -3.04041 0
M  V30 717 H 69.6126 0.144793 -4.60572 0
M  V30 718 H 67.9276 0.288863 -4.15397 0
M  V30 719 H 70.5246 3.06061 -4.38441 0
M  V30 720 H 70.8676 3.18841 -2.67668 0
M  V30 721 H 71.4006 1.74613 -3.57428 0
M  V30 722 H 68.1396 1.00178 -6.478 0
M  V30 723 H 67.6596 2.4042 -5.49507 0
M  V30 724 H 69.3386 2.24544 -6.06786 0
M  V30 725 N 69.4707 1.49531 0.497807 0
M  V30 726 C 70.6957 1.63159 1.28039 0
M  V30 727 C 71.1207 0.30418 1.85624 0
M  V30 728 O 70.4787 -0.728618 1.66015 0
M  V30 729 C 70.5267 2.70537 2.38416 0
M  V30 730 O 69.6307 2.29931 3.42353 0
M  V30 731 H 68.9717 0.546001 0.377861 0
M  V30 732 H 71.5017 1.9574 0.59558 0
M  V30 733 H 71.5117 2.92802 2.84132 0
M  V30 734 H 70.1867 3.6689 1.95869 0
M  V30 735 H 68.7637 2.18009 3.02533 0
M  V30 736 N 70.9488 -0.749086 1.3866 0
M  V30 737 C 71.8788 -1.8764 1.38973 0
M  V30 738 C 72.8598 -1.68178 0.255004 0
M  V30 739 O 74.0448 -1.88704 0.458754 0
M  V30 740 C 71.1748 -3.25222 1.21851 0
M  V30 741 C 70.1288 -3.59295 2.32575 0
M  V30 742 C 69.4548 -4.95663 2.00555 0
M  V30 743 C 70.7548 -3.63709 3.7485 0
M  V30 744 H 72.4488 -1.87635 2.3331 0
M  V30 745 H 69.9948 -0.901329 1.12303 0
M  V30 746 H 71.9478 -4.03746 1.20695 0
M  V30 747 H 70.6718 -3.25719 0.239775 0
M  V30 748 H 69.3308 -2.83093 2.32925 0
M  V30 749 H 68.9788 -4.92724 1.01154 0
M  V30 750 H 68.6788 -5.19429 2.74714 0
M  V30 751 H 70.2028 -5.7656 2.01024 0
M  V30 752 H 71.6168 -4.32338 3.76506 0
M  V30 753 H 70.0138 -3.98986 4.48252 0
M  V30 754 H 71.0838 -2.63834 4.06841 0
M  V30 755 N 72.4269 -1.23603 -0.977757 0
M  V30 756 C 73.7039 -0.977897 -1.69401 0
M  V30 757 C 74.0839 0.502738 -2.05026 0
M  V30 758 O 73.4319 1.47459 -1.74551 0
M  V30 759 C 73.6419 -1.89077 -2.93345 0
M  V30 760 C 74.9899 -2.15579 -3.65802 0
M  V30 761 O 76.0139 -1.86648 -3.03383 0
M  V30 762 O 74.8729 -2.64658 -4.78141 0
M  V30 763 H 71.9669 -0.369025 -0.740101 0
M  V30 764 H 74.5129 -1.34657 -1.03274 0
M  V30 765 H 73.2849 -2.89158 -2.63634 0
M  V30 766 H 72.9079 -1.52463 -3.67207 0
M  V30 767 N 73.905 1.17692 -1.04816 0
M  V30 768 C 75.151 1.88137 -0.75711 0
M  V30 769 C 75.484 1.80604 0.713841 0
M  V30 770 O 74.759 1.21146 1.52164 0
M  V30 771 C 75.042 3.38318 -1.2334 0
M  V30 772 C 74.895 3.54622 -2.76701 0
M  V30 773 C 76.214 4.32214 -0.829415 0
M  V30 774 H 73.333 0.683163 -0.27651 0
M  V30 775 H 75.975 1.38424 -1.30149 0
M  V30 776 H 74.125 3.80787 -0.770286 0
M  V30 777 H 75.797 3.21194 -3.31107 0
M  V30 778 H 74.04 2.97026 -3.16161 0
M  V30 779 H 74.711 4.60028 -3.05088 0
M  V30 780 H 77.187 3.97565 -1.22805 0
M  V30 781 H 76.063 5.35838 -1.19033 0
M  V30 782 H 76.324 4.41294 0.266891 0
M  V30 783 N 75.3831 0.828654 1.34056 0
M  V30 784 C 76.3461 0.259927 2.27721 0
M  V30 785 C 77.3461 -0.565478 1.50529 0
M  V30 786 O 78.5361 -0.38075 1.69988 0
M  V30 787 C 75.6681 -0.634944 3.34935 0
M  V30 788 H 76.8611 1.0863 2.79534 0
M  V30 789 H 74.4141 0.600951 1.44285 0
M  V30 790 H 75.1491 -1.48416 2.88346 0
M  V30 791 H 74.9341 -0.0444999 3.92075 0
M  V30 792 H 76.4241 -1.02648 4.04788 0
M  V30 793 N 76.8612 -1.46375 0.584142 0
M  V30 794 C 77.7912 -2.33103 -0.136037 0
M  V30 795 C 78.7722 -1.45431 -0.882255 0
M  V30 796 O 79.9572 -1.74246 -0.857434 0
M  V30 797 C 77.0872 -3.27731 -1.14933 0
M  V30 798 C 76.0412 -4.24855 -0.517862 0
M  V30 799 C 75.3672 -5.09001 -1.63773 0
M  V30 800 C 76.6672 -5.19439 0.545886 0
M  V30 801 H 78.3612 -2.93568 0.588086 0
M  V30 802 H 75.9072 -1.41166 0.284259 0
M  V30 803 H 77.8602 -3.87261 -1.66153 0
M  V30 804 H 76.5842 -2.65377 -1.90375 0
M  V30 805 H 75.2432 -3.6659 -0.0267361 0
M  V30 806 H 74.8912 -4.43031 -2.38185 0
M  V30 807 H 74.5912 -5.74777 -1.22085 0
M  V30 808 H 76.1152 -5.71396 -2.15266 0
M  V30 809 H 77.5292 -5.73177 0.118704 0
M  V30 810 H 75.9262 -5.93566 0.88317 0
M  V30 811 H 76.9962 -4.63285 1.43162 0
M  V30 812 N 78.3393 -0.321999 -1.54275 0
M  V30 813 C 79.5873 0.280489 -2.00144 0
M  V30 814 C 79.9083 1.52777 -1.21178 0
M  V30 815 O 79.1783 1.9338 -0.313187 0
M  V30 816 H 77.7583 0.106632 -0.73935 0
M  V30 817 H 80.4203 -0.438184 -1.8991 0
M  V30 818 H 79.5163 0.537972 -3.07428 0
M  V30 819 N 79.8174 1.5752 -0.0501392 0
M  V30 820 C 81.0664 1.91827 0.623328 0
M  V30 821 C 81.3794 0.930222 1.72065 0
M  V30 822 O 82.5854 1.1653 2.4522 0
M  V30 823 C 81.0414 3.40692 1.16003 0
M  V30 824 C 80.6494 4.479 0.0948811 0
M  V30 825 C 82.3934 3.84034 1.80881 0
M  V30 826 C 80.3004 5.87879 0.644411 0
M  V30 827 H 79.2304 0.715918 0.236596 0
M  V30 828 H 81.8814 1.83115 -0.118861 0
M  V30 829 H 80.2634 3.44405 1.9545 0
M  V30 830 H 81.4374 4.55775 -0.678675 0
M  V30 831 H 79.7524 4.13892 -0.45637 0
M  V30 832 H 82.3494 4.85984 2.22988 0
M  V30 833 H 82.6924 3.20225 2.6601 0
M  V30 834 H 83.2254 3.82833 1.0809 0
M  V30 835 H 79.9644 6.55282 -0.169229 0
M  V30 836 H 79.4844 5.83567 1.38598 0
M  V30 837 H 81.1634 6.37098 1.12763 0
M  V30 838 N 81.2955 -0.223234 1.56011 0
M  V30 839 C 82.5435 -0.946003 1.78592 0
M  V30 840 C 82.8645 -1.84936 0.618349 0
M  V30 841 O 82.1345 -1.92473 -0.364833 0
M  V30 842 H 80.7145 -0.352298 0.658707 0
M  V30 843 H 83.3765 -0.235494 1.93472 0
M  V30 844 H 82.4725 -1.55381 2.70672 0
M  V30 845 N 82.7736 -1.49793 -0.48987 0
M  V30 846 C 84.0216 -1.59525 -1.24081 0
M  V30 847 C 84.3426 -0.288953 -1.92847 0
M  V30 848 O 83.6126 0.692436 -1.83254 0
M  V30 849 H 82.1926 -0.587796 -0.460983 0
M  V30 850 H 84.8546 -1.86477 -0.566778 0
M  V30 851 H 83.9506 -2.39696 -1.99881 0
M  V30 852 N 84.2517 0.741722 -1.39055 0
M  V30 853 C 85.1817 1.869 -1.39966 0
M  V30 854 C 86.1627 1.6804 -0.26392 0
M  V30 855 O 87.3477 1.88458 -0.468755 0
M  V30 856 C 84.4777 3.24572 -1.23574 0
M  V30 857 C 83.4317 3.58056 -2.34477 0
M  V30 858 C 82.7577 4.94593 -2.0318 0
M  V30 859 C 84.0577 3.61716 -3.76774 0
M  V30 860 H 85.7517 1.86395 -2.34302 0
M  V30 861 H 83.2977 0.895361 -1.1278 0
M  V30 862 H 85.2507 4.031 -1.22834 0
M  V30 863 H 83.9747 3.25587 -0.257045 0
M  V30 864 H 82.6337 2.81854 -2.34423 0
M  V30 865 H 82.2817 4.92181 -1.03765 0
M  V30 866 H 81.9817 5.17964 -2.77465 0
M  V30 867 H 83.5057 5.75486 -2.04079 0
M  V30 868 H 84.9197 4.30335 -3.78794 0
M  V30 869 H 83.3167 3.96603 -4.50362 0
M  V30 870 H 84.3867 2.61672 -4.08235 0
M  V30 871 N 85.7298 1.2412 0.971189 0
M  V30 872 C 87.1408 1.07236 1.52831 0
M  V30 873 C 87.4918 -0.357352 1.92918 0
M  V30 874 O 86.6168 -1.24528 1.76979 0
M  V30 875 C 87.2118 1.94043 2.77728 0
M  V30 876 C 85.7708 1.81394 3.29808 0
M  V30 877 C 84.9178 1.89189 2.02738 0
M  V30 878 H 87.8688 1.37648 0.789864 0
M  V30 879 H 87.8898 1.47066 3.5093 0
M  V30 880 H 87.4018 2.98093 2.4852 0
M  V30 881 H 85.5028 0.801634 3.63874 0
M  V30 882 H 85.6158 2.65294 3.98944 0
M  V30 883 H 83.9798 1.32877 2.17292 0
M  V30 884 H 84.7628 2.94812 1.759 0
M  V30 885 N 87.2079 -1.17134 1.05439 0
M  V30 886 C 88.6239 -1.39454 0.776201 0
M  V30 887 C 88.8239 -1.91454 -0.628307 0
M  V30 888 O 87.8799 -2.10777 -1.39031 0
M  V30 889 C 89.1929 -2.38305 1.83388 0
M  V30 890 C 90.7409 -2.52006 1.85639 0
M  V30 891 C 91.2159 -3.54133 2.90437 0
M  V30 892 N 92.7069 -3.61653 2.89415 0
M  V30 893 C 93.4419 -4.4044 3.67152 0
M  V30 894 N 92.9379 -5.22721 4.54681 0
M  V30 895 N 94.7309 -4.35337 3.55581 0
M  V30 896 H 86.8819 -0.817134 1.96053 0
M  V30 897 H 89.1449 -0.421626 0.849079 0
M  V30 898 H 88.8509 -2.07173 2.84204 0
M  V30 899 H 88.7249 -3.37841 1.67761 0
M  V30 900 H 91.1119 -2.82447 0.85486 0
M  V30 901 H 91.1929 -1.52537 2.05344 0
M  V30 902 H 90.8369 -3.24431 3.90777 0
M  V30 903 H 90.7669 -4.53313 2.67983 0
M  V30 904 H 93.2579 -3.02909 2.25952 0
M  V30 905 H 93.5709 -5.80027 5.10674 0
M  V30 906 H 91.9159 -5.22093 4.58741 0
M  V30 907 H 95.1069 -3.70112 2.86592 0
M  V30 908 H 95.2799 -4.96494 4.1641 0
M  V30 909 N 88.686 -0.835752 -1.33615 0
M  V30 910 C 89.934 -0.429109 -1.97492 0
M  V30 911 C 90.255 1.01433 -1.66543 0
M  V30 912 O 89.525 1.70611 -0.962744 0
M  V30 913 H 88.105 -0.155686 -0.730596 0
M  V30 914 H 90.767 -1.06802 -1.63031 0
M  V30 915 H 89.863 -0.55861 -3.0706 0
M  V30 916 N 90.1641 1.46063 -0.591896 0
M  V30 917 C 91.5801 1.57561 -0.254288 0
M  V30 918 C 91.7801 1.58565 1.24336 0
M  V30 919 O 90.8361 1.50753 2.02558 0
M  V30 920 C 92.1491 2.86549 -0.911611 0
M  V30 921 C 93.6971 3.00197 -0.886059 0
M  V30 922 C 94.1721 4.31933 -1.5231 0
M  V30 923 N 95.6631 4.38654 -1.48786 0
M  V30 924 C 96.3981 5.39222 -1.95006 0
M  V30 925 N 95.8941 6.46414 -2.49241 0
M  V30 926 N 97.6871 5.3048 -1.85868 0
M  V30 927 H 89.8381 1.43655 -1.56451 0
M  V30 928 H 92.1011 0.68583 -0.654478 0
M  V30 929 H 91.8071 2.91651 -1.96551 0
M  V30 930 H 91.6811 3.74794 -0.425368 0
M  V30 931 H 94.0681 2.9467 0.159246 0
M  V30 932 H 94.1491 2.13403 -1.41041 0
M  V30 933 H 93.7931 4.38217 -2.56765 0
M  V30 934 H 93.7231 5.17516 -0.973891 0
M  V30 935 H 96.2141 3.61793 -1.09151 0
M  V30 936 H 96.5271 7.19376 -2.82344 0
M  V30 937 H 94.8721 6.47208 -2.53272 0
M  V30 938 H 98.0631 4.45643 -1.43248 0
M  V30 939 H 98.2361 6.08711 -2.22204 0
M  V30 940 N 91.6422 0.330177 1.54103 0
M  V30 941 C 92.8882 -0.270806 2.00984 0
M  V30 942 C 93.2212 -1.51265 1.21789 0
M  V30 943 O 92.4962 -1.92142 0.301927 0
M  V30 944 C 92.7792 -0.598339 3.55094 0
M  V30 945 C 92.6322 0.654674 4.4501 0
M  V30 946 C 93.9512 -1.41334 4.16789 0
M  V30 947 H 91.0702 -0.0969531 0.730595 0
M  V30 948 H 93.7122 0.448066 1.84641 0
M  V30 949 H 91.8622 -1.21078 3.69151 0
M  V30 950 H 93.5342 1.29285 4.42813 0
M  V30 951 H 91.7772 1.28224 4.14416 0
M  V30 952 H 92.4482 0.380944 5.50684 0
M  V30 953 H 94.9242 -0.895597 4.06347 0
M  V30 954 H 93.8002 -1.61127 5.24718 0
M  V30 955 H 94.0612 -2.41146 3.70541 0
M  V30 956 N 93.1203 -1.57491 0.0584922 0
M  V30 957 C 94.3693 -1.92155 -0.613146 0
M  V30 958 C 94.6823 -0.939334 -1.71569 0
M  V30 959 O 95.8883 -1.17829 -2.44599 0
M  V30 960 C 94.3443 -3.41303 -1.14195 0
M  V30 961 C 93.9523 -4.47944 -0.0711265 0
M  V30 962 C 95.6963 -3.84988 -1.78841 0
M  V30 963 C 93.6033 -5.88212 -0.613225 0
M  V30 964 H 92.5333 -0.717162 -0.232796 0
M  V30 965 H 95.1843 -1.83049 0.12857 0
M  V30 966 H 93.5663 -3.45437 -1.93621 0
M  V30 967 H 94.7403 -4.55408 0.702836 0
M  V30 968 H 93.0553 -4.13644 0.478313 0
M  V30 969 H 95.6523 -4.87159 -2.20408 0
M  V30 970 H 95.9953 -3.21632 -2.64308 0
M  V30 971 H 96.5283 -3.83401 -1.06059 0
M  V30 972 H 93.2673 -6.55183 0.203978 0
M  V30 973 H 92.7873 -5.84294 -1.35501 0
M  V30 974 H 94.4663 -6.37687 -1.09383 0
M  V30 975 N 94.5984 0.214957 -1.56127 0
M  V30 976 C 95.5084 1.28727 -1.96129 0
M  V30 977 C 96.5244 1.50916 -0.866044 0
M  V30 978 O 97.7004 1.63918 -1.17016 0
M  V30 979 C 94.7654 2.61569 -2.27558 0
M  V30 980 C 93.8264 2.47625 -3.50685 0
M  V30 981 C 93.0594 3.74132 -3.80606 0
M  V30 982 O 93.2824 4.77438 -3.12104 0
M  V30 983 O 92.2164 3.70849 -4.74083 0
M  V30 984 H 96.0424 0.977855 -2.87527 0
M  V30 985 H 93.6274 0.418358 -1.43423 0
M  V30 986 H 95.5094 3.40012 -2.48938 0
M  V30 987 H 94.1844 2.92178 -1.39332 0
M  V30 988 H 93.0914 1.67361 -3.34576 0
M  V30 989 H 94.4244 2.21954 -4.39315 0
M  V30 990 N 96.0765 1.50051 0.48192 0
M  V30 991 C 97.3255 1.59741 1.23149 0
M  V30 992 C 97.6385 0.298163 1.93314 0
M  V30 993 O 98.8445 0.273835 2.70116 0
M  V30 994 C 97.3005 2.81926 2.23708 0
M  V30 995 C 96.9085 4.18685 1.59396 0
M  V30 996 C 98.6525 3.00956 2.99375 0
M  V30 997 C 96.5595 5.3207 2.58178 0
M  V30 998 H 95.4895 0.594838 0.46334 0
M  V30 999 H 98.1405 1.76467 0.503169 0
M  V30 1000 H 96.5225 2.58736 2.99786 0
M  V30 1001 H 97.6965 4.52088 0.891811 0
M  V30 1002 H 96.0115 4.05171 0.960503 0
M  V30 1003 H 98.6085 3.82836 3.73283 0
M  V30 1004 H 98.9515 2.12258 3.58123 0
M  V30 1005 H 99.4845 3.24277 2.30411 0
M  V30 1006 H 96.2235 6.22888 2.04184 0
M  V30 1007 H 95.7435 5.03098 3.26577 0
M  V30 1008 H 97.4225 5.62196 3.20225 0
M  V30 1009 N 97.5546 -0.734337 1.39446 0
M  V30 1010 C 98.7846 -1.52137 1.39778 0
M  V30 1011 C 99.1926 -1.89198 -0.00929312 0
M  V30 1012 O 98.5356 -1.54666 -0.991168 0
M  V30 1013 C 98.5976 -2.83762 2.20724 0
M  V30 1014 C 98.2616 -2.69131 3.69347 0
M  V30 1015 C 99.2586 -2.37635 4.62413 0
M  V30 1016 C 96.9436 -2.85982 4.1294 0
M  V30 1017 C 98.9376 -2.23172 5.97054 0
M  V30 1018 C 96.6246 -2.71137 5.47657 0
M  V30 1019 C 97.6226 -2.39777 6.39528 0
M  V30 1020 O 97.3106 -2.25026 7.71763 0
M  V30 1021 H 97.0426 -0.476717 0.479288 0
M  V30 1022 H 99.5966 -0.915012 1.83893 0
M  V30 1023 H 97.8266 -3.4666 1.71359 0
M  V30 1024 H 99.5156 -3.45383 2.13226 0
M  V30 1025 H 100.282 -2.24267 4.30034 0
M  V30 1026 H 96.1606 -3.09383 3.41765 0
M  V30 1027 H 99.7046 -1.98617 6.68728 0
M  V30 1028 H 95.6016 -2.84083 5.79626 0
M  V30 1029 H 96.3696 -2.40091 7.82495 0
M  V30 1030 N 99.0327 -1.24633 -0.964593 0
M  V30 1031 C 100.281 -1.08573 -1.70459 0
M  V30 1032 C 100.602 0.375655 -1.91347 0
M  V30 1033 O 99.8717 1.26779 -1.49345 0
M  V30 1034 H 98.4517 -0.398784 -0.631649 0
M  V30 1035 H 101.114 -1.56601 -1.16026 0
M  V30 1036 H 100.21 -1.58623 -2.68785 0
M  V30 1037 N 100.511 1.16574 -1.06058 0
M  V30 1038 C 101.922 1.68662 -0.800632 0
M  V30 1039 C 102.273 1.84184 0.67608 0
M  V30 1040 O 101.398 1.53568 1.52466 0
M  V30 1041 C 101.993 3.06356 -1.44676 0
M  V30 1042 C 100.552 3.55575 -1.23465 0
M  V30 1043 C 99.6988 2.31616 -1.52477 0
M  V30 1044 H 102.65 1.00969 -1.22438 0
M  V30 1045 H 102.671 3.70636 -0.860788 0
M  V30 1046 H 102.183 2.95027 -2.52152 0
M  V30 1047 H 100.284 3.72167 -0.179527 0
M  V30 1048 H 100.397 4.37812 -1.94571 0
M  V30 1049 H 98.7608 2.36512 -0.945209 0
M  V30 1050 H 99.5438 2.22887 -2.61106 0
M  V30 1051 N 101.989 0.842826 1.3317 0
M  V30 1052 C 102.899 0.281444 2.32906 0
M  V30 1053 C 103.915 -0.594587 1.63526 0
M  V30 1054 O 105.091 -0.49777 1.95152 0
M  V30 1055 C 102.156 -0.530929 3.42611 0
M  V30 1056 C 101.217 0.369843 4.27704 0
M  V30 1057 C 100.45 -0.403853 5.3217 0
M  V30 1058 O 100.673 -1.63513 5.46461 0
M  V30 1059 O 99.6069 0.224199 6.01482 0
M  V30 1060 H 103.433 1.10744 2.82789 0
M  V30 1061 H 101.018 0.60545 1.36582 0
M  V30 1062 H 102.9 -0.992437 4.09547 0
M  V30 1063 H 101.575 -1.33392 2.94938 0
M  V30 1064 H 100.482 0.879275 3.6362 0
M  V30 1065 H 101.815 1.13771 4.78871 0
M  V30 1066 N 103.467 -1.45747 0.599634 0
M  V30 1067 C 104.692 -2.07178 0.0960198 0
M  V30 1068 C 105.117 -1.44268 -1.207 0
M  V30 1069 O 104.475 -0.532503 -1.73303 0
M  V30 1070 C 104.523 -3.60579 -0.0385348 0
M  V30 1071 O 103.627 -3.97713 -1.0908 0
M  V30 1072 H 102.968 -0.660251 0.0704593 0
M  V30 1073 H 105.498 -1.87124 0.827385 0
M  V30 1074 H 105.508 -4.07298 -0.239304 0
M  V30 1075 H 104.183 -4.05756 0.912947 0
M  V30 1076 H 102.76 -3.62678 -0.867135 0
M  V30 1077 N 104.945 -0.338344 -1.53925 0
M  V30 1078 C 106.17 0.263987 -2.05713 0
M  V30 1079 C 106.595 1.43847 -1.21201 0
M  V30 1080 O 105.953 1.79904 -0.224535 0
M  V30 1081 C 106.001 0.662 -3.54471 0
M  V30 1082 O 105.105 1.76265 -3.72833 0
M  V30 1083 H 104.446 0.0448722 -0.662482 0
M  V30 1084 H 106.976 -0.491048 -1.9862 0
M  V30 1085 H 106.986 0.940594 -3.9701 0
M  V30 1086 H 105.661 -0.196937 -4.15433 0
M  V30 1087 H 104.238 1.48173 -3.42198 0
M  V30 1088 N 106.423 1.57458 -0.0668435 0
M  V30 1089 C 107.671 1.92919 0.602214 0
M  V30 1090 C 107.992 0.947215 1.70449 0
M  V30 1091 O 107.262 -0.00544117 1.95899 0
M  V30 1092 H 105.842 0.71217 0.22544 0
M  V30 1093 H 108.504 1.94508 -0.123535 0
M  V30 1094 H 107.6 2.94589 1.03073 0
M  V30 1095 N 107.901 -0.206675 1.56239 0
M  V30 1096 C 108.848 -1.25617 1.93621 0
M  V30 1097 C 109.818 -1.45824 0.795274 0
M  V30 1098 O 111.003 -1.59148 1.05245 0
M  V30 1099 C 108.143 -2.59839 2.27107 0
M  V30 1100 C 107.256 -2.47308 3.54207 0
M  V30 1101 C 106.391 -3.74155 3.7707 0
M  V30 1102 C 105.43 -3.56407 4.97635 0
M  V30 1103 N 104.567 -4.75238 5.1681 0
M  V30 1104 H 109.407 -0.930383 2.83104 0
M  V30 1105 H 106.944 -0.448065 1.4011 0
M  V30 1106 H 108.902 -3.38021 2.44535 0
M  V30 1107 H 107.532 -2.90485 1.40778 0
M  V30 1108 H 106.584 -1.60483 3.4489 0
M  V30 1109 H 107.896 -2.30122 4.42544 0
M  V30 1110 H 107.05 -4.60778 3.94675 0
M  V30 1111 H 105.789 -3.94282 2.87042 0
M  V30 1112 H 104.794 -2.68168 4.79964 0
M  V30 1113 H 106.019 -3.37736 5.89161 0
M  V30 1114 H 103.965 -4.95651 4.29728 0
M  V30 1115 H 103.882 -4.60835 5.99306 0
M  V30 1116 H 105.15 -5.63246 5.38864 0
M  V30 1117 N 109.379 -1.50304 -0.473955 0
M  V30 1118 C 110.607 -1.64902 -1.24959 0
M  V30 1119 C 111.022 -0.331198 -1.85872 0
M  V30 1120 O 110.379 0.68652 -1.69095 0
M  V30 1121 C 110.43 -2.73803 -2.36038 0
M  V30 1122 O 110.151 -4.00477 -1.77624 0
M  V30 1123 C 111.652 -2.99349 -3.26964 0
M  V30 1124 H 108.872 -0.554383 -0.378022 0
M  V30 1125 H 111.416 -1.9651 -0.566054 0
M  V30 1126 H 109.571 -2.44898 -3.00173 0
M  V30 1127 H 109.985 -4.60678 -2.5075 0
M  V30 1128 H 111.459 -3.79217 -4.01121 0
M  V30 1129 H 111.936 -2.10307 -3.85574 0
M  V30 1130 H 112.542 -3.29774 -2.68569 0
M  V30 1131 N 110.857 0.726932 -1.39834 0
M  V30 1132 C 112.085 1.51613 -1.40787 0
M  V30 1133 C 112.5 1.88799 -0.00451505 0
M  V30 1134 O 111.857 1.54662 0.968809 0
M  V30 1135 C 111.908 2.79863 -2.28821 0
M  V30 1136 O 111.629 2.44253 -3.63692 0
M  V30 1137 C 113.13 3.73837 -2.38245 0
M  V30 1138 H 110.35 0.468264 -0.480593 0
M  V30 1139 H 112.894 0.897607 -1.83748 0
M  V30 1140 H 111.049 3.38027 -1.89252 0
M  V30 1141 H 111.463 3.26695 -4.1033 0
M  V30 1142 H 112.937 4.60699 -3.04073 0
M  V30 1143 H 113.414 4.16153 -1.40403 0
M  V30 1144 H 114.02 3.21589 -2.78317 0
M  V30 1145 N 112.336 1.25143 0.95797 0
M  V30 1146 C 113.582 1.09855 1.70469 0
M  V30 1147 C 113.915 -0.360187 1.90831 0
M  V30 1148 O 113.19 -1.26568 1.47685 0
M  V30 1149 C 113.473 1.8497 3.08963 0
M  V30 1150 C 113.326 3.38652 2.96032 0
M  V30 1151 C 114.645 1.63016 4.08795 0
M  V30 1152 H 111.764 0.400465 0.618706 0
M  V30 1153 H 114.406 1.53933 1.11376 0
M  V30 1154 H 112.556 1.47505 3.59409 0
M  V30 1155 H 114.228 3.85772 2.52938 0
M  V30 1156 H 112.471 3.66534 2.32025 0
M  V30 1157 H 113.142 3.8642 3.94187 0
M  V30 1158 H 115.618 1.95625 3.67247 0
M  V30 1159 H 114.494 2.18015 5.03747 0
M  V30 1160 H 114.755 0.570692 4.38401 0
M  V30 1161 N 113.814 -1.1601 1.06675 0
M  V30 1162 C 114.777 -2.18724 0.685001 0
M  V30 1163 C 115.777 -1.58496 -0.271246 0
M  V30 1164 O 116.967 -1.74119 -0.0531156 0
M  V30 1165 C 114.099 -3.40899 0.00853648 0
M  V30 1166 H 115.292 -2.54011 1.59431 0
M  V30 1167 H 112.845 -1.30352 0.862441 0
M  V30 1168 H 113.58 -3.11173 -0.913337 0
M  V30 1169 H 113.365 -3.8587 0.696204 0
M  V30 1170 H 114.855 -4.16886 -0.24414 0
M  V30 1171 N 115.292 -0.849877 -1.32721 0
M  V30 1172 C 116.222 -0.306308 -2.31482 0
M  V30 1173 C 117.203 0.591952 -1.59468 0
M  V30 1174 O 118.388 0.513199 -1.87296 0
M  V30 1175 C 115.518 0.510204 -3.43532 0
M  V30 1176 C 114.472 -0.293209 -4.26994 0
M  V30 1177 C 113.798 0.647743 -5.30762 0
M  V30 1178 C 115.098 -1.51634 -4.99804 0
M  V30 1179 H 116.792 -1.13153 -2.77195 0
M  V30 1180 H 114.338 -0.545553 -1.33266 0
M  V30 1181 H 116.291 0.900856 -4.11658 0
M  V30 1182 H 115.015 1.36874 -2.96535 0
M  V30 1183 H 113.674 -0.665555 -3.60508 0
M  V30 1184 H 113.322 1.50299 -4.8002 0
M  V30 1185 H 113.022 0.11422 -5.87489 0
M  V30 1186 H 114.546 1.03567 -6.01753 0
M  V30 1187 H 115.96 -1.19824 -5.60638 0
M  V30 1188 H 114.357 -1.98745 -5.66234 0
M  V30 1189 H 115.427 -2.28018 -4.27943 0
M  V30 1190 N 116.77 1.45427 -0.607355 0
M  V30 1191 C 117.72 2.27612 0.133038 0
M  V30 1192 C 118.704 1.37307 0.838785 0
M  V30 1193 O 119.896 1.61299 0.728813 0
M  V30 1194 C 117.025 3.24173 1.12991 0
M  V30 1195 C 116.111 4.21965 0.425011 0
M  V30 1196 N 116.502 5.02982 -0.533217 0
M  V30 1197 C 114.8 4.40899 0.672593 0
M  V30 1198 C 115.501 5.73931 -0.947518 0
M  V30 1199 N 114.477 5.42819 -0.291321 0
M  V30 1200 H 118.279 2.87649 -0.602935 0
M  V30 1201 H 115.793 1.56576 -0.431006 0
M  V30 1202 H 117.79 3.81783 1.67473 0
M  V30 1203 H 116.45 2.65696 1.86644 0
M  V30 1204 H 117.461 5.09843 -0.90995 0
M  V30 1205 H 114.138 3.93547 1.39382 0
M  V30 1206 H 115.528 6.49037 -1.73782 0
M  V30 1207 N 118.248 0.346503 1.53744 0
M  V30 1208 C 119.211 -0.496439 2.23759 0
M  V30 1209 C 120.211 -1.0252 1.2388 0
M  V30 1210 O 121.401 -0.913974 1.48297 0
M  V30 1211 C 118.533 -1.69187 2.95954 0
M  V30 1212 H 119.726 0.115952 2.99676 0
M  V30 1213 H 117.279 0.0978939 1.55993 0
M  V30 1214 H 118.014 -2.34288 2.24231 0
M  V30 1215 H 117.799 -1.31989 3.69217 0
M  V30 1216 H 119.289 -2.28969 3.49232 0
M  V30 1217 N 119.726 -1.57421 0.075193 0
M  V30 1218 C 120.972 -1.93905 -0.594025 0
M  V30 1219 C 121.305 -0.955701 -1.69056 0
M  V30 1220 O 120.58 0.0145373 -1.94495 0
M  V30 1221 C 120.863 -3.40638 -1.1678 0
M  V30 1222 C 120.716 -4.49733 -0.0776792 0
M  V30 1223 C 122.035 -3.88259 -2.07228 0
M  V30 1224 H 119.154 -0.705105 -0.214466 0
M  V30 1225 H 121.796 -1.8947 0.141854 0
M  V30 1226 H 119.946 -3.44549 -1.79494 0
M  V30 1227 H 121.618 -4.57942 0.555573 0
M  V30 1228 H 119.861 -4.29751 0.591286 0
M  V30 1229 H 120.532 -5.49549 -0.519603 0
M  V30 1230 H 123.008 -3.86376 -1.54445 0
M  V30 1231 H 121.884 -4.91533 -2.44308 0
M  V30 1232 H 122.145 -3.26396 -2.98191 0
M  V30 1233 N 121.204 0.198386 -1.56346 0
M  V30 1234 C 122.167 1.22952 -1.93431 0
M  V30 1235 C 123.167 1.38611 -0.815092 0
M  V30 1236 O 124.357 1.36479 -1.08255 0
M  V30 1237 C 121.489 2.59946 -2.20546 0
M  V30 1238 H 122.682 0.912626 -2.85677 0
M  V30 1239 H 120.235 0.43977 -1.49986 0
M  V30 1240 H 120.97 2.96696 -1.30927 0
M  V30 1241 H 120.755 2.49953 -3.02102 0
M  V30 1242 H 122.245 3.3431 -2.50253 0
M  V30 1243 N 122.682 1.50554 0.465978 0
M  V30 1244 C 123.63 1.70324 1.58406 0
M  V30 1245 C 124.624 0.569139 1.59553 0
M  V30 1246 O 125.83 0.749776 1.63641 0
M  V30 1247 H 122.205 0.537688 0.525734 0
M  V30 1248 H 124.176 2.64104 1.38894 0
M  V30 1249 C 122.925 1.81928 2.96307 0
M  V30 1250 H 122.248 2.68586 2.96144 0
M  V30 1251 H 123.688 1.99784 3.73982 0
M  V30 1252 C 122.147 0.572095 3.32007 0
M  V30 1253 O 122.677 -0.286416 4.00678 0
M  V30 1254 N 120.883 0.424606 2.87481 0
M  V30 1255 H 120.43 1.12427 2.31771 0
M  V30 1256 H 120.388 -0.408697 3.11732 0
M  V30 1257 N 124.16 -0.719506 1.40217 0
M  V30 1258 C 125.123 -1.8153 1.39927 0
M  V30 1259 C 126.123 -1.58095 0.293723 0
M  V30 1260 O 127.313 -1.65209 0.552429 0
M  V30 1261 C 124.445 -3.19561 1.18716 0
M  V30 1262 H 125.638 -1.83186 2.37451 0
M  V30 1263 H 123.191 -0.924746 1.26008 0
M  V30 1264 H 123.926 -3.23557 0.219366 0
M  V30 1265 H 123.711 -3.3797 1.98793 0
M  V30 1266 H 125.201 -3.99598 1.21291 0
M  V30 1267 N 125.638 -1.25649 -0.95132 0
M  V30 1268 C 126.57 -1.02112 -2.05197 0
M  V30 1269 C 127.583 0.0150571 -1.62793 0
M  V30 1270 O 128.772 -0.223874 -1.77091 0
M  V30 1271 C 125.872 -0.522361 -3.3485 0
M  V30 1272 C 125.045 -1.62546 -4.06076 0
M  V30 1273 C 124.104 -1.12649 -5.14001 0
M  V30 1274 O 123.13 -1.82156 -5.39266 0
M  V30 1275 N 124.332 0.03047 -5.80492 0
M  V30 1276 H 127.097 -1.96885 -2.25957 0
M  V30 1277 H 124.658 -1.16899 -1.1201 0
M  V30 1278 H 126.65 -0.172961 -4.0433 0
M  V30 1279 H 125.22 0.33151 -3.10837 0
M  V30 1280 H 124.44 -2.14628 -3.30649 0
M  V30 1281 H 125.728 -2.36644 -4.50419 0
M  V30 1282 H 125.126 0.611169 -5.62389 0
M  V30 1283 H 123.683 0.320875 -6.5101 0
M  V30 1284 N 127.117 1.15442 -1.07289 0
M  V30 1285 C 128.08 2.18358 -0.696591 0
M  V30 1286 C 129.08 1.58637 0.262837 0
M  V30 1287 O 130.27 1.74145 0.0438809 0
M  V30 1288 C 127.402 3.4089 -0.0266151 0
M  V30 1289 H 128.595 2.53162 -1.60776 0
M  V30 1290 H 126.148 1.29893 -0.869342 0
M  V30 1291 H 126.883 3.11653 0.896822 0
M  V30 1292 H 126.668 3.85495 -0.716657 0
M  V30 1293 H 128.158 4.17009 0.222028 0
M  V30 1294 N 128.595 0.856903 1.32268 0
M  V30 1295 C 129.558 0.308171 2.27119 0
M  V30 1296 C 130.558 -0.533421 1.51695 0
M  V30 1297 O 131.748 -0.344607 1.70757 0
M  V30 1298 C 128.88 -0.563757 3.36206 0
M  V30 1299 H 130.073 1.14535 2.77167 0
M  V30 1300 H 127.626 0.631421 1.42978 0
M  V30 1301 H 128.361 -1.42266 2.91429 0
M  V30 1302 H 128.146 0.0386749 3.92081 0
M  V30 1303 H 129.636 -0.940386 4.06874 0
M  V30 1304 N 130.073 -1.45103 0.615059 0
M  V30 1305 C 131.321 -2.01784 0.112955 0
M  V30 1306 C 131.642 -1.48504 -1.26378 0
M  V30 1307 O 130.912 -0.682245 -1.83636 0
M  V30 1308 H 129.492 -0.745993 0.0387668 0
M  V30 1309 H 132.154 -1.77808 0.798141 0
M  V30 1310 H 131.25 -3.12025 0.0684069 0
M  V30 1311 N 131.551 -0.354651 -1.53558 0
M  V30 1312 C 132.799 0.237972 -2.00694 0
M  V30 1313 C 133.12 1.50173 -1.24391 0
M  V30 1314 O 132.39 1.92673 -0.354135 0
M  V30 1315 H 130.97 0.0909256 -0.741446 0
M  V30 1316 H 133.632 -0.478368 -1.88938 0
M  V30 1317 H 132.728 0.47264 -3.085 0
M  V30 1318 N 133.029 1.57378 -0.0835403 0
M  V30 1319 C 134.278 1.93106 0.582498 0
M  V30 1320 C 134.591 0.96651 1.70053 0
M  V30 1321 O 135.797 1.21705 2.42693 0
M  V30 1322 C 134.253 3.43076 1.08751 0
M  V30 1323 C 133.861 4.48 -0.000146404 0
M  V30 1324 C 135.605 3.87785 1.72694 0
M  V30 1325 C 133.512 5.89113 0.519568 0
M  V30 1326 H 132.442 0.720775 0.221358 0
M  V30 1327 H 135.093 1.82821 -0.157675 0
M  V30 1328 H 133.475 3.48474 1.88101 0
M  V30 1329 H 134.649 4.54233 -0.775199 0
M  V30 1330 H 132.964 4.1283 -0.54406 0
M  V30 1331 H 135.561 4.90604 2.1263 0
M  V30 1332 H 135.904 3.25796 2.59158 0
M  V30 1333 H 136.437 3.8504 0.999457 0
M  V30 1334 H 133.176 6.54775 -0.308186 0
M  V30 1335 H 132.696 5.86376 1.26188 0
M  V30 1336 H 134.375 6.39346 0.992237 0
M  V30 1337 N 134.507 -0.190092 1.56449 0
M  V30 1338 C 135.47 -1.21925 1.9408 0
M  V30 1339 C 136.47 -1.38176 0.822431 0
M  V30 1340 O 137.66 -1.35903 1.08977 0
M  V30 1341 C 134.792 -2.58773 2.21922 0
M  V30 1342 H 135.985 -0.897464 2.86157 0
M  V30 1343 H 133.538 -0.43181 1.50217 0
M  V30 1344 H 134.273 -2.95998 1.32499 0
M  V30 1345 H 134.058 -2.48348 3.03424 0
M  V30 1346 H 135.548 -3.32978 2.52022 0
M  V30 1347 N 135.985 -1.50799 -0.457987 0
M  V30 1348 C 136.948 -1.7005 -1.53674 0
M  V30 1349 C 137.948 -0.570881 -1.50325 0
M  V30 1350 O 139.138 -0.838126 -1.52712 0
M  V30 1351 C 136.27 -1.73788 -2.93276 0
M  V30 1352 H 137.463 -2.66306 -1.37917 0
M  V30 1353 H 135.016 -1.40477 -0.685271 0
M  V30 1354 H 135.751 -0.792717 -3.14462 0
M  V30 1355 H 135.536 -2.55864 -2.97113 0
M  V30 1356 H 137.026 -1.90591 -3.71571 0
M  V30 1357 N 137.463 0.71206 -1.40597 0
M  V30 1358 C 138.71 1.47197 -1.39065 0
M  V30 1359 C 139.038 1.94499 0.00583891 0
M  V30 1360 O 138.293 1.68752 0.99102 0
M  V30 1361 C 138.592 2.71039 -2.32965 0
M  V30 1362 C 138.258 2.42484 -3.80148 0
M  V30 1363 C 136.92 2.34406 -4.20247 0
M  V30 1364 C 139.272 2.18598 -4.73143 0
M  V30 1365 C 136.6 2.00516 -5.51371 0
M  V30 1366 C 138.952 1.8622 -6.0457 0
M  V30 1367 C 137.616 1.76626 -6.43708 0
M  V30 1368 H 136.886 0.538634 -0.508876 0
M  V30 1369 H 139.533 0.815325 -1.73276 0
M  V30 1370 H 137.838 3.41558 -1.91951 0
M  V30 1371 H 139.535 3.29138 -2.29061 0
M  V30 1372 H 136.125 2.49659 -3.4838 0
M  V30 1373 H 140.309 2.23793 -4.42979 0
M  V30 1374 H 135.565 1.91628 -5.80593 0
M  V30 1375 H 139.739 1.66752 -6.76141 0
M  V30 1376 H 137.366 1.50133 -7.45228 0
M  V30 1377 N 138.941 1.26152 0.944643 0
M  V30 1378 C 140.19 1.10883 1.68487 0
M  V30 1379 C 140.503 -0.348153 1.92477 0
M  V30 1380 O 141.709 -0.621459 2.64292 0
M  V30 1381 C 140.165 1.93624 3.03377 0
M  V30 1382 C 139.773 3.43875 2.87148 0
M  V30 1383 C 141.517 1.86954 3.81115 0
M  V30 1384 C 139.424 4.18875 4.1749 0
M  V30 1385 H 138.354 0.41135 0.631907 0
M  V30 1386 H 141.005 1.50433 1.05082 0
M  V30 1387 H 139.387 1.46904 3.67743 0
M  V30 1388 H 140.561 3.98338 2.31653 0
M  V30 1389 H 138.876 3.51744 2.22856 0
M  V30 1390 H 141.473 2.40275 4.77673 0
M  V30 1391 H 141.816 0.839518 4.07747 0
M  V30 1392 H 142.349 2.31477 3.23517 0
M  V30 1393 H 139.088 5.22332 3.96043 0
M  V30 1394 H 138.608 3.69193 4.72712 0
M  V30 1395 H 140.287 4.27134 4.85968 0
M  V30 1396 N 140.419 -1.14872 1.07899 0
M  V30 1397 C 141.696 -1.81928 0.71845 0
M  V30 1398 C 142.076 -1.95417 -0.798455 0
M  V30 1399 O 141.424 -1.50997 -1.715 0
M  V30 1400 C 141.634 -3.17937 1.43935 0
M  V30 1401 C 142.982 -3.93501 1.59506 0
M  V30 1402 O 144.006 -3.27509 1.40058 0
M  V30 1403 O 142.865 -5.1183 1.91551 0
M  V30 1404 H 139.959 -0.78628 0.256305 0
M  V30 1405 H 142.505 -1.21934 1.18026 0
M  V30 1406 H 141.277 -3.0325 2.47295 0
M  V30 1407 H 140.9 -3.85619 0.968687 0
M  V30 1408 N 141.898 -0.863906 -1.31812 0
M  V30 1409 C 142.861 -0.320212 -2.26952 0
M  V30 1410 C 143.861 0.525369 -1.51975 0
M  V30 1411 O 145.051 0.335547 -1.70938 0
M  V30 1412 C 142.183 0.545919 -3.365 0
M  V30 1413 H 143.376 -1.16004 -2.76556 0
M  V30 1414 H 140.929 -0.638995 -1.42641 0
M  V30 1415 H 141.664 1.40718 -2.92179 0
M  V30 1416 H 141.449 -0.0594674 -3.92055 0
M  V30 1417 H 142.939 0.918796 -4.07367 0
M  V30 1418 N 143.376 1.44774 -0.622745 0
M  V30 1419 C 144.286 2.34433 0.0886031 0
M  V30 1420 C 145.302 1.52131 0.844529 0
M  V30 1421 O 146.478 1.84886 0.798691 0
M  V30 1422 C 143.543 3.29986 1.0635 0
M  V30 1423 C 142.604 4.28195 0.307873 0
M  V30 1424 C 141.837 5.19183 1.23633 0
M  V30 1425 O 142.06 5.13918 2.47476 0
M  V30 1426 O 140.994 5.97515 0.725189 0
M  V30 1427 H 144.82 2.96693 -0.648599 0
M  V30 1428 H 142.405 1.44408 -0.382957 0
M  V30 1429 H 144.287 3.88825 1.6246 0
M  V30 1430 H 142.962 2.70269 1.78146 0
M  V30 1431 H 141.869 3.72927 -0.296064 0
M  V30 1432 H 143.202 4.90808 -0.3699 0
M  V30 1433 N 144.854 0.36279 1.53368 0
M  V30 1434 C 145.804 -0.501391 2.22419 0
M  V30 1435 C 146.788 -1.0509 1.2184 0
M  V30 1436 O 147.98 -0.981404 1.47301 0
M  V30 1437 C 145.109 -1.64201 3.01484 0
M  V30 1438 C 144.195 -1.10552 4.09438 0
M  V30 1439 N 144.586 -0.291788 5.04958 0
M  V30 1440 C 142.884 -1.3806 4.24094 0
M  V30 1441 C 143.585 0.00162655 5.817 0
M  V30 1442 N 142.561 -0.595244 5.40331 0
M  V30 1443 H 146.363 0.127159 2.93625 0
M  V30 1444 H 143.877 0.170658 1.61501 0
M  V30 1445 H 145.874 -2.27326 3.49469 0
M  V30 1446 H 144.534 -2.27365 2.31809 0
M  V30 1447 H 145.545 0.0687731 5.17854 0
M  V30 1448 H 142.222 -2.01522 3.65644 0
M  V30 1449 H 143.612 0.659278 6.68658 0
M  V30 1450 N 146.332 -1.57332 0.0918853 0
M  V30 1451 C 147.295 -2.12708 -0.85369 0
M  V30 1452 C 148.295 -1.05561 -1.213 0
M  V30 1453 O 149.485 -1.31461 -1.14296 0
M  V30 1454 C 146.617 -2.64503 -2.15061 0
M  V30 1455 H 147.81 -2.97573 -0.3729 0
M  V30 1456 H 145.363 -1.55509 -0.157072 0
M  V30 1457 H 146.098 -1.83149 -2.67632 0
M  V30 1458 H 145.883 -3.4284 -1.90272 0
M  V30 1459 H 147.373 -3.07351 -2.82711 0
M  V30 1460 N 147.81 0.181792 -1.56548 0
M  V30 1461 C 148.74 1.22765 -1.98623 0
M  V30 1462 C 149.721 1.46747 -0.860189 0
M  V30 1463 O 150.906 1.58259 -1.12551 0
M  V30 1464 C 148.036 2.56894 -2.33715 0
M  V30 1465 C 146.99 2.475 -3.49182 0
M  V30 1466 C 146.316 3.86023 -3.69986 0
M  V30 1467 C 147.616 1.98866 -4.82959 0
M  V30 1468 H 149.31 0.877942 -2.86239 0
M  V30 1469 H 146.856 0.42088 -1.37712 0
M  V30 1470 H 148.809 3.30253 -2.61746 0
M  V30 1471 H 147.533 2.93632 -1.42997 0
M  V30 1472 H 146.192 1.76596 -3.21262 0
M  V30 1473 H 145.84 4.20136 -2.76576 0
M  V30 1474 H 145.54 3.80609 -4.47672 0
M  V30 1475 H 147.064 4.60984 -4.00407 0
M  V30 1476 H 148.478 2.61992 -5.09934 0
M  V30 1477 H 146.875 2.04424 -5.64208 0
M  V30 1478 H 147.945 0.942465 -4.75653 0
M  V30 1479 N 149.288 1.51039 0.449983 0
M  V30 1480 C 150.565 1.53612 1.21089 0
M  V30 1481 C 150.945 0.292997 2.09057 0
M  V30 1482 O 150.293 -0.72259 2.16774 0
M  V30 1483 C 150.503 2.84337 2.0237 0
M  V30 1484 C 151.851 3.35807 2.59843 0
M  V30 1485 O 152.875 2.85802 2.12593 0
M  V30 1486 O 151.734 4.23029 3.45989 0
M  V30 1487 H 148.828 0.617057 0.550608 0
M  V30 1488 H 151.374 1.63344 0.460082 0
M  V30 1489 H 150.146 3.66278 1.37681 0
M  V30 1490 H 149.769 2.77708 2.84542 0
M  V30 1491 N 150.766 -0.704594 1.40972 0
M  V30 1492 C 152.177 -1.28418 1.3552 0
M  V30 1493 C 152.528 -1.96171 0.0339434 0
M  V30 1494 O 151.653 -1.98231 -0.867944 0
M  V30 1495 C 152.248 -2.33528 2.45459 0
M  V30 1496 C 150.807 -2.87085 2.43433 0
M  V30 1497 C 149.954 -1.61007 2.2577 0
M  V30 1498 H 152.905 -0.499963 1.50619 0
M  V30 1499 H 152.926 -3.14619 2.13998 0
M  V30 1500 H 152.438 -1.84187 3.41609 0
M  V30 1501 H 150.539 -3.40626 1.51013 0
M  V30 1502 H 150.652 -3.3813 3.39419 0
M  V30 1503 H 149.016 -1.86482 1.73483 0
M  V30 1504 H 149.799 -1.13675 3.23933 0
M  V30 1505 N 152.244 -1.26651 -0.937939 0
M  V30 1506 C 153.154 -1.10276 -2.07066 0
M  V30 1507 C 154.17 -0.0354197 -1.73964 0
M  V30 1508 O 155.346 -0.239816 -1.99967 0
M  V30 1509 C 152.411 -0.740887 -3.38691 0
M  V30 1510 C 151.472 -1.88799 -3.85556 0
M  V30 1511 C 150.705 -1.54329 -5.10899 0
M  V30 1512 O 150.928 -0.446494 -5.6865 0
M  V30 1513 O 149.862 -2.37911 -5.52885 0
M  V30 1514 H 153.688 -2.05309 -2.23789 0
M  V30 1515 H 151.273 -1.05743 -1.0554 0
M  V30 1516 H 153.155 -0.55195 -4.1777 0
M  V30 1517 H 151.83 0.180022 -3.23199 0
M  V30 1518 H 150.737 -2.13191 -3.07409 0
M  V30 1519 H 152.07 -2.78874 -4.05574 0
M  V30 1520 N 153.722 1.14298 -1.08507 0
M  V30 1521 C 154.952 1.88945 -0.835663 0
M  V30 1522 C 155.36 1.78894 0.615928 0
M  V30 1523 O 154.703 1.1468 1.43506 0
M  V30 1524 C 154.765 3.39585 -1.17994 0
M  V30 1525 C 154.429 3.7342 -2.63451 0
M  V30 1526 C 155.426 3.73454 -3.61702 0
M  V30 1527 C 153.111 4.03368 -2.99332 0
M  V30 1528 C 155.105 4.02961 -4.93864 0
M  V30 1529 C 152.792 4.32538 -4.31687 0
M  V30 1530 C 153.79 4.32318 -5.28763 0
M  V30 1531 O 153.478 4.6078 -6.58739 0
M  V30 1532 H 153.21 0.605307 -0.300965 0
M  V30 1533 H 155.764 1.45673 -1.44806 0
M  V30 1534 H 153.994 3.83315 -0.51055 0
M  V30 1535 H 155.683 3.9554 -0.911182 0
M  V30 1536 H 156.449 3.50403 -3.35325 0
M  V30 1537 H 152.328 4.02692 -2.24411 0
M  V30 1538 H 155.872 4.02704 -5.69627 0
M  V30 1539 H 151.769 4.55059 -4.57812 0
M  V30 1540 H 152.537 4.78492 -6.64069 0
M  V30 1541 N 155.201 0.870884 1.31352 0
M  V30 1542 C 156.164 0.332243 2.26779 0
M  V30 1543 C 157.164 -0.517302 1.52252 0
M  V30 1544 O 158.354 -0.326477 1.71113 0
M  V30 1545 C 155.486 -0.528066 3.36785 0
M  V30 1546 H 156.679 1.17469 2.75937 0
M  V30 1547 H 154.232 0.64655 1.423 0
M  V30 1548 H 154.967 -1.39167 2.92922 0
M  V30 1549 H 154.752 0.0802582 3.92018 0
M  V30 1550 H 156.242 -0.897179 4.07849 0
M  V30 1551 N 156.679 -1.44442 0.630414 0
M  V30 1552 C 157.626 -2.30678 -0.0749355 0
M  V30 1553 C 158.596 -1.4344 -0.837502 0
M  V30 1554 O 159.781 -1.72343 -0.818684 0
M  V30 1555 C 156.921 -3.28706 -1.05103 0
M  V30 1556 C 156.034 -4.31046 -0.286954 0
M  V30 1557 C 155.169 -5.16167 -1.2548 0
M  V30 1558 C 154.208 -6.10216 -0.479843 0
M  V30 1559 N 153.345 -6.88039 -1.39811 0
M  V30 1560 H 158.185 -2.90454 0.666386 0
M  V30 1561 H 155.722 -1.43107 0.340404 0
M  V30 1562 H 157.68 -3.84027 -1.63031 0
M  V30 1563 H 156.31 -2.70632 -1.75949 0
M  V30 1564 H 155.362 -3.78203 0.408243 0
M  V30 1565 H 156.674 -4.97794 0.316657 0
M  V30 1566 H 155.828 -5.76002 -1.90544 0
M  V30 1567 H 154.567 -4.49491 -1.89233 0
M  V30 1568 H 153.572 -5.49491 0.184295 0
M  V30 1569 H 154.797 -6.78928 0.152965 0
M  V30 1570 H 152.743 -6.24032 -2.02287 0
M  V30 1571 H 152.66 -7.51223 -0.848508 0
M  V30 1572 H 153.928 -7.52397 -2.03762 0
M  V30 1573 N 158.157 -0.370918 -1.53173 0
M  V30 1574 C 159.104 0.473035 -2.259 0
M  V30 1575 C 160.074 1.07311 -1.26781 0
M  V30 1576 O 161.259 1.1046 -1.55574 0
M  V30 1577 C 158.399 1.60405 -3.05556 0
M  V30 1578 C 157.512 1.02863 -4.19575 0
M  V30 1579 C 156.647 2.12918 -4.86661 0
M  V30 1580 C 155.686 1.52869 -5.92704 0
M  V30 1581 N 154.823 2.56779 -6.53459 0
M  V30 1582 H 159.663 -0.153649 -2.97604 0
M  V30 1583 H 157.2 -0.0875946 -1.46839 0
M  V30 1584 H 159.158 2.27034 -3.50016 0
M  V30 1585 H 157.788 2.20131 -2.36097 0
M  V30 1586 H 156.84 0.252465 -3.79561 0
M  V30 1587 H 158.152 0.549642 -4.95762 0
M  V30 1588 H 157.306 2.87356 -5.34333 0
M  V30 1589 H 156.045 2.6417 -4.09958 0
M  V30 1590 H 155.05 0.769479 -5.44389 0
M  V30 1591 H 156.275 1.02435 -6.7133 0
M  V30 1592 H 154.221 3.07235 -5.79606 0
M  V30 1593 H 154.138 2.13583 -7.25202 0
M  V30 1594 H 155.406 3.30903 -7.05779 0
M  V30 1595 N 159.635 1.57281 -0.100228 0
M  V30 1596 C 160.565 2.17328 0.853857 0
M  V30 1597 C 161.546 1.10804 1.2906 0
M  V30 1598 O 162.731 1.38963 1.35657 0
M  V30 1599 C 159.861 2.75772 2.11109 0
M  V30 1600 C 158.815 3.87713 1.81279 0
M  V30 1601 C 158.141 4.32882 3.13874 0
M  V30 1602 C 159.441 5.10677 1.09574 0
M  V30 1603 H 161.135 2.97305 0.353545 0
M  V30 1604 H 158.681 1.43009 0.168612 0
M  V30 1605 H 160.634 3.16433 2.78296 0
M  V30 1606 H 159.358 1.93057 2.63432 0
M  V30 1607 H 158.017 3.476 1.16489 0
M  V30 1608 H 157.665 3.47051 3.64095 0
M  V30 1609 H 157.365 5.08358 2.94696 0
M  V30 1610 H 158.889 4.7618 3.82211 0
M  V30 1611 H 160.303 5.48474 1.66879 0
M  V30 1612 H 158.7 5.91615 1.00557 0
M  V30 1613 H 159.77 4.84835 0.0793299 0
M  V30 1614 N 161.113 -0.173488 1.56642 0
M  V30 1615 C 162.361 -0.888706 1.81512 0
M  V30 1616 C 162.682 -1.82875 0.676872 0
M  V30 1617 O 161.952 -1.93536 -0.303414 0
M  V30 1618 H 160.532 -0.331164 0.669582 0
M  V30 1619 H 163.194 -0.173823 1.94123 0
M  V30 1620 H 162.29 -1.46691 2.75478 0
M  V30 1621 N 162.591 -1.51276 -0.441967 0
M  V30 1622 C 163.837 -1.63958 -1.19355 0
M  V30 1623 C 164.17 -0.352543 -1.90973 0
M  V30 1624 O 163.445 0.647627 -1.83401 0
M  V30 1625 C 163.728 -2.83979 -2.21422 0
M  V30 1626 C 163.581 -4.22646 -1.53918 0
M  V30 1627 C 164.9 -2.99521 -3.22451 0
M  V30 1628 H 162.019 -0.596709 -0.432559 0
M  V30 1629 H 164.661 -1.83748 -0.483398 0
M  V30 1630 H 162.811 -2.67237 -2.81987 0
M  V30 1631 H 164.483 -4.51045 -0.967256 0
M  V30 1632 H 162.726 -4.25558 -0.841615 0
M  V30 1633 H 163.397 -5.02609 -2.28229 0
M  V30 1634 H 165.873 -3.14944 -2.71937 0
M  V30 1635 H 164.749 -3.85072 -3.91166 0
M  V30 1636 H 165.01 -2.11391 -3.88287 0
M  V30 1637 N 164.069 0.697108 -1.41344 0
M  V30 1638 C 165.346 1.45154 -1.31109 0
M  V30 1639 C 165.726 2.11009 0.0620449 0
M  V30 1640 O 165.074 2.01571 1.07618 0
M  V30 1641 C 165.284 2.47223 -2.46337 0
M  V30 1642 C 166.632 3.1252 -2.87431 0
M  V30 1643 O 167.656 2.57547 -2.46065 0
M  V30 1644 O 166.515 4.12083 -3.58957 0
M  V30 1645 H 163.609 0.646365 -0.515889 0
M  V30 1646 H 166.155 0.727716 -1.53305 0
M  V30 1647 H 164.927 1.97204 -3.37974 0
M  V30 1648 H 164.55 3.27116 -2.2601 0
M  V30 1649 N 165.547 1.27147 0.931209 0
M  V30 1650 C 166.775 1.16082 1.71267 0
M  V30 1651 C 167.19 -0.282772 1.8667 0
M  V30 1652 O 166.547 -1.19283 1.38122 0
M  V30 1653 C 166.598 1.8358 3.11417 0
M  V30 1654 O 166.319 3.22299 2.96741 0
M  V30 1655 C 167.82 1.78597 4.05732 0
M  V30 1656 H 165.04 0.403758 0.535929 0
M  V30 1657 H 167.584 1.67953 1.16671 0
M  V30 1658 H 165.739 1.35623 3.62885 0
M  V30 1659 H 166.153 3.55851 3.85319 0
M  V30 1660 H 167.627 2.30444 5.01597 0
M  V30 1661 H 168.104 0.754564 4.3267 0
M  V30 1662 H 168.71 2.26152 3.60188 0
M  V30 1663 N 167.025 -1.13721 1.09112 0
M  V30 1664 C 168.302 -1.81155 0.737706 0
M  V30 1665 C 168.682 -1.96253 -0.777683 0
M  V30 1666 O 168.03 -1.52807 -1.69889 0
M  V30 1667 C 168.24 -3.16392 1.47299 0
M  V30 1668 C 169.588 -3.91787 1.63671 0
M  V30 1669 O 170.612 -3.26005 1.43524 0
M  V30 1670 O 169.471 -5.0977 1.96969 0
M  V30 1671 H 166.565 -0.783518 0.26463 0
M  V30 1672 H 169.111 -1.20676 1.19312 0
M  V30 1673 H 167.883 -3.0061 2.50498 0
M  V30 1674 H 167.506 -3.8457 1.00953 0
M  V30 1675 N 168.503 -0.877838 -1.30888 0
M  V30 1676 C 169.728 -0.506629 -2.01117 0
M  V30 1677 C 170.153 0.895564 -1.65412 0
M  V30 1678 O 169.511 1.5923 -0.866922 0
M  V30 1679 C 169.559 -0.680223 -3.54126 0
M  V30 1680 O 168.663 0.277033 -4.11468 0
M  V30 1681 H 168.004 -0.200518 -0.633 0
M  V30 1682 H 170.534 -1.18342 -1.66902 0
M  V30 1683 H 170.544 -0.5765 -4.03907 0
M  V30 1684 H 169.219 -1.70261 -3.79452 0
M  V30 1685 H 167.796 0.127606 -3.72682 0
M  V30 1686 N 169.982 1.44106 -0.638065 0
M  V30 1687 C 170.912 2.33448 0.0494287 0
M  V30 1688 C 171.893 1.48606 0.827672 0
M  V30 1689 O 173.078 1.77308 0.792173 0
M  V30 1690 C 170.208 3.31771 1.02691 0
M  V30 1691 C 169.162 4.26485 0.359823 0
M  V30 1692 C 168.488 5.14729 1.44769 0
M  V30 1693 C 169.788 5.17056 -0.738296 0
M  V30 1694 H 171.482 2.91183 -0.696636 0
M  V30 1695 H 169.028 1.40014 -0.336456 0
M  V30 1696 H 170.981 3.93161 1.51666 0
M  V30 1697 H 169.705 2.7226 1.80395 0
M  V30 1698 H 168.364 3.66437 -0.10934 0
M  V30 1699 H 168.012 4.51566 2.21578 0
M  V30 1700 H 167.712 5.78913 1.00668 0
M  V30 1701 H 169.236 5.78991 1.93911 0
M  V30 1702 H 170.65 5.72342 -0.331354 0
M  V30 1703 H 169.047 5.89879 -1.10286 0
M  V30 1704 H 170.117 4.57652 -1.60258 0
M  V30 1705 N 171.46 0.379036 1.52974 0
M  V30 1706 C 172.39 -0.452706 2.29069 0
M  V30 1707 C 173.371 -1.07237 1.32039 0
M  V30 1708 O 174.556 -1.08708 1.60923 0
M  V30 1709 C 171.686 -1.5856 3.08992 0
M  V30 1710 C 170.64 -1.0925 4.13822 0
M  V30 1711 C 169.966 -2.31668 4.81907 0
M  V30 1712 C 171.266 -0.167702 5.22031 0
M  V30 1713 H 172.96 0.182181 2.98845 0
M  V30 1714 H 170.506 0.0890592 1.43724 0
M  V30 1715 H 172.459 -2.1742 3.6098 0
M  V30 1716 H 171.183 -2.24792 2.36931 0
M  V30 1717 H 169.842 -0.526494 3.628 0
M  V30 1718 H 169.49 -2.96386 4.06404 0
M  V30 1719 H 169.19 -1.9934 5.52754 0
M  V30 1720 H 170.714 -2.91189 5.36695 0
M  V30 1721 H 172.128 -0.664186 5.6944 0
M  V30 1722 H 170.525 0.0653265 6.00064 0
M  V30 1723 H 171.595 0.786347 4.78482 0
M  V30 1724 N 172.938 -1.57226 0.108567 0
M  V30 1725 C 174.184 -1.95121 -0.552761 0
M  V30 1726 C 174.517 -0.991345 -1.66991 0
M  V30 1727 O 173.792 -0.0267211 -1.94482 0
M  V30 1728 C 174.075 -3.43039 -1.09528 0
M  V30 1729 C 173.928 -4.49797 0.0177332 0
M  V30 1730 C 175.247 -3.92567 -1.98945 0
M  V30 1731 H 172.366 -0.709496 -0.199461 0
M  V30 1732 H 175.008 -1.89126 0.182011 0
M  V30 1733 H 173.158 -3.48279 -1.72146 0
M  V30 1734 H 174.83 -4.56661 0.652584 0
M  V30 1735 H 173.073 -4.284 0.682309 0
M  V30 1736 H 173.744 -5.50528 -0.402919 0
M  V30 1737 H 176.22 -3.89565 -1.46214 0
M  V30 1738 H 175.096 -4.96605 -2.33827 0
M  V30 1739 H 175.357 -3.32648 -2.91201 0
M  V30 1740 N 174.416 0.165178 -1.56732 0
M  V30 1741 C 175.641 0.900253 -1.86843 0
M  V30 1742 C 176.066 1.74766 -0.695596 0
M  V30 1743 O 175.424 1.77786 0.35522 0
M  V30 1744 C 175.472 1.74777 -3.15413 0
M  V30 1745 O 174.576 2.85007 -2.98068 0
M  V30 1746 H 173.917 0.251832 -0.614391 0
M  V30 1747 H 176.447 0.161468 -2.03962 0
M  V30 1748 H 176.457 2.14646 -3.46974 0
M  V30 1749 H 175.132 1.12537 -4.00385 0
M  V30 1750 H 173.709 2.48676 -2.77875 0
M  V30 1751 N 175.894 1.51508 0.433938 0
M  V30 1752 C 176.826 1.69266 1.54537 0
M  V30 1753 C 177.839 0.573276 1.52373 0
M  V30 1754 O 179.028 0.847698 1.57087 0
M  V30 1755 C 176.128 1.69524 2.93453 0
M  V30 1756 C 175.301 2.98101 3.20085 0
M  V30 1757 C 174.36 2.90502 4.38742 0
M  V30 1758 O 173.386 3.64442 4.3723 0
M  V30 1759 N 174.588 2.06586 5.42496 0
M  V30 1760 H 177.353 2.65145 1.39708 0
M  V30 1761 H 174.914 1.49437 0.622922 0
M  V30 1762 H 176.906 1.62004 3.70859 0
M  V30 1763 H 175.476 0.812245 3.01863 0
M  V30 1764 H 174.696 3.19464 2.30947 0
M  V30 1765 H 175.984 3.83207 3.34708 0
M  V30 1766 H 175.382 1.45896 5.46563 0
M  V30 1767 H 173.939 2.04943 6.18742 0
M  V30 1768 N 177.372 -0.689602 1.41712 0
M  V30 1769 C 178.783 -1.26973 1.36875 0
M  V30 1770 C 179.134 -1.96124 0.054748 0
M  V30 1771 O 178.259 -1.99141 -0.84687 0
M  V30 1772 C 178.854 -2.30912 2.47922 0
M  V30 1773 C 177.413 -2.84486 2.46464 0
M  V30 1774 C 176.56 -1.58603 2.27465 0
M  V30 1775 H 179.511 -0.48396 1.51141 0
M  V30 1776 H 179.532 -3.12331 2.17323 0
M  V30 1777 H 179.044 -1.80554 3.43543 0
M  V30 1778 H 177.145 -3.39005 1.54617 0
M  V30 1779 H 177.258 -3.34511 3.42986 0
M  V30 1780 H 175.622 -1.84632 1.75451 0
M  V30 1781 H 176.405 -1.10233 3.25121 0
M  V30 1782 N 178.85 -1.27639 -0.924453 0
M  V30 1783 C 180.127 -1.04887 -1.651 0
M  V30 1784 C 180.507 0.415327 -2.06974 0
M  V30 1785 O 179.855 1.39923 -1.80648 0
M  V30 1786 C 180.065 -2.01348 -2.85061 0
M  V30 1787 C 181.413 -2.30899 -3.56329 0
M  V30 1788 O 182.437 -1.99348 -2.95193 0
M  V30 1789 O 181.296 -2.84699 -4.66485 0
M  V30 1790 H 178.39 -0.400083 -0.723784 0
M  V30 1791 H 180.936 -1.38916 -0.974703 0
M  V30 1792 H 179.708 -3.0008 -2.51133 0
M  V30 1793 H 179.331 -1.679 -3.6041 0
M  V30 1794 N 180.328 1.1314 -1.09713 0
M  V30 1795 C 181.556 1.88321 -0.856898 0
M  V30 1796 C 181.971 1.79276 0.592073 0
M  V30 1797 O 181.328 1.16142 1.40774 0
M  V30 1798 C 181.379 3.37812 -1.28706 0
M  V30 1799 O 181.1 3.46627 -2.67921 0
M  V30 1800 C 182.601 4.29952 -1.07964 0
M  V30 1801 H 179.821 0.596094 -0.308079 0
M  V30 1802 H 182.365 1.43205 -1.45988 0
M  V30 1803 H 180.52 3.805 -0.727912 0
M  V30 1804 H 180.934 4.39579 -2.8613 0
M  V30 1805 H 182.408 5.33159 -1.42986 0
M  V30 1806 H 182.885 4.39196 -0.0176577 0
M  V30 1807 H 183.491 3.93036 -1.62489 0
M  V30 1808 N 181.806 0.884767 1.30421 0
M  V30 1809 C 183.054 0.502112 1.95763 0
M  V30 1810 C 183.375 -0.951815 1.70192 0
M  V30 1811 O 182.645 -1.6692 1.0254 0
M  V30 1812 H 181.225 0.182694 0.724315 0
M  V30 1813 H 183.887 1.1278 1.58955 0
M  V30 1814 H 182.983 0.672188 3.04775 0
M  V30 1815 N 183.284 -1.43765 0.645699 0
M  V30 1816 C 184.194 -2.34544 -0.0512957 0
M  V30 1817 C 185.21 -1.53455 -0.82022 0
M  V30 1818 O 186.386 -1.86133 -0.769176 0
M  V30 1819 C 183.451 -3.31636 -1.01087 0
M  V30 1820 C 182.512 -4.2863 -0.239712 0
M  V30 1821 C 181.745 -5.21084 -1.15358 0
M  V30 1822 O 181.968 -5.1779 -2.39269 0
M  V30 1823 O 180.902 -5.98593 -0.630038 0
M  V30 1824 H 184.728 -2.95624 0.695718 0
M  V30 1825 H 182.313 -1.43781 0.405882 0
M  V30 1826 H 184.195 -3.9136 -1.56254 0
M  V30 1827 H 182.87 -2.73069 -1.73824 0
M  V30 1828 H 181.777 -3.72408 0.355356 0
M  V30 1829 H 183.11 -4.90157 0.447936 0
M  V30 1830 N 184.763 -0.387143 -1.52771 0
M  V30 1831 C 185.695 0.484089 -2.2403 0
M  V30 1832 C 186.708 1.02849 -1.26198 0
M  V30 1833 O 187.897 0.931186 -1.52286 0
M  V30 1834 C 184.997 1.68337 -2.94136 0
M  V30 1835 C 184.17 1.26672 -4.18656 0
M  V30 1836 C 183.229 2.33045 -4.7178 0
M  V30 1837 O 182.255 1.94541 -5.34923 0
M  V30 1838 N 183.457 3.64929 -4.5145 0
M  V30 1839 H 186.222 -0.126404 -2.99433 0
M  V30 1840 H 183.783 -0.213392 -1.60488 0
M  V30 1841 H 185.775 2.39019 -3.26577 0
M  V30 1842 H 184.345 2.20025 -2.22053 0
M  V30 1843 H 183.565 0.388878 -3.92277 0
M  V30 1844 H 184.853 0.964964 -4.99566 0
M  V30 1845 H 184.251 3.98974 -4.01044 0
M  V30 1846 H 182.808 4.31651 -4.88386 0
M  V30 1847 N 186.241 1.57166 -0.116904 0
M  V30 1848 C 187.204 2.14039 0.819742 0
M  V30 1849 C 188.204 1.07477 1.19605 0
M  V30 1850 O 189.394 1.33263 1.1219 0
M  V30 1851 C 186.526 2.67891 2.10826 0
M  V30 1852 H 187.719 2.98128 0.325511 0
M  V30 1853 H 185.272 1.55739 0.132312 0
M  V30 1854 H 186.007 1.87384 2.64685 0
M  V30 1855 H 185.792 3.45823 1.84793 0
M  V30 1856 H 187.282 3.11809 2.77785 0
M  V30 1857 N 187.719 -0.156864 1.56817 0
M  V30 1858 C 188.649 -1.19589 2.00551 0
M  V30 1859 C 189.63 -1.4536 0.883426 0
M  V30 1860 O 190.815 -1.56449 1.15054 0
M  V30 1861 C 187.945 -2.53143 2.37773 0
M  V30 1862 C 186.899 -2.41913 3.53075 0
M  V30 1863 C 186.225 -3.80088 3.76081 0
M  V30 1864 C 187.525 -1.91157 4.86062 0
M  V30 1865 H 189.219 -0.832293 2.87599 0
M  V30 1866 H 186.765 -0.398918 1.38364 0
M  V30 1867 H 188.718 -3.26047 2.66967 0
M  V30 1868 H 187.442 -2.91319 1.4765 0
M  V30 1869 H 186.101 -1.71462 3.24031 0
M  V30 1870 H 185.749 -4.15683 2.83225 0
M  V30 1871 H 185.449 -3.73439 4.53671 0
M  V30 1872 H 186.973 -4.54556 4.0769 0
M  V30 1873 H 188.387 -2.53846 5.14038 0
M  V30 1874 H 186.784 -1.95422 5.67389 0
M  V30 1875 H 187.854 -0.866673 4.77092 0
M  V30 1876 N 189.197 -1.51736 -0.425897 0
M  V30 1877 C 190.107 -1.76738 -1.54275 0
M  V30 1878 C 191.123 -0.65211 -1.61318 0
M  V30 1879 O 192.299 -0.935654 -1.78346 0
M  V30 1880 C 189.364 -1.89755 -2.90162 0
M  V30 1881 C 188.425 -3.13633 -2.93143 0
M  V30 1882 C 187.658 -3.2602 -4.22548 0
M  V30 1883 O 187.881 -2.44067 -5.15546 0
M  V30 1884 O 186.815 -4.19071 -4.32046 0
M  V30 1885 H 190.641 -2.71502 -1.36089 0
M  V30 1886 H 188.226 -1.36376 -0.610069 0
M  V30 1887 H 190.108 -2.00236 -3.70788 0
M  V30 1888 H 188.783 -0.981785 -3.08452 0
M  V30 1889 H 187.69 -3.08622 -2.11431 0
M  V30 1890 H 189.023 -4.04936 -2.798 0
M  V30 1891 N 190.675 0.682077 -1.42076 0
M  V30 1892 C 191.924 1.43786 -1.41451 0
M  V30 1893 C 192.237 1.95574 -0.0317074 0
M  V30 1894 O 193.443 2.71326 0.0971462 0
M  V30 1895 C 191.899 2.60071 -2.48779 0
M  V30 1896 C 191.507 2.15013 -3.93031 0
M  V30 1897 C 193.251 3.37626 -2.57311 0
M  V30 1898 C 191.158 3.28336 -4.91883 0
M  V30 1899 H 190.088 0.540143 -0.526082 0
M  V30 1900 H 192.739 0.739157 -1.67955 0
M  V30 1901 H 191.121 3.32275 -2.15429 0
M  V30 1902 H 192.295 1.5001 -4.35699 0
M  V30 1903 H 190.61 1.50416 -3.88284 0
M  V30 1904 H 193.207 4.22012 -3.28345 0
M  V30 1905 H 193.55 3.83727 -1.61429 0
M  V30 1906 H 194.083 2.72488 -2.89819 0
M  V30 1907 H 190.822 2.87234 -5.89217 0
M  V30 1908 H 190.342 3.92145 -4.53853 0
M  V30 1909 H 192.021 3.93913 -5.13265 0
M  V30 1910 N 192.153 1.28127 0.917671 0
M  V30 1911 C 193.116 1.11744 2.00115 0
M  V30 1912 C 194.116 0.0583052 1.60694 0
M  V30 1913 O 195.306 0.303755 1.71531 0
M  V30 1914 C 192.438 0.704862 3.33533 0
M  V30 1915 H 193.631 2.07966 2.16079 0
M  V30 1916 H 191.184 1.11058 1.09981 0
M  V30 1917 H 191.919 -0.258299 3.2327 0
M  V30 1918 H 191.704 1.4699 3.63505 0
M  V30 1919 H 193.194 0.612768 4.1308 0
M  V30 1920 N 193.631 -1.12557 1.10312 0
M  V30 1921 C 194.908 -1.80363 0.756878 0
M  V30 1922 C 195.288 -1.97067 -0.756824 0
M  V30 1923 O 194.636 -1.54601 -1.68259 0
M  V30 1924 C 194.846 -3.14812 1.50647 0
M  V30 1925 C 196.194 -3.90029 1.67817 0
M  V30 1926 O 197.218 -3.24464 1.46974 0
M  V30 1927 O 196.077 -5.07652 2.02365 0
M  V30 1928 H 193.171 -0.780667 0.272926 0
M  V30 1929 H 195.717 -1.19404 1.20586 0
M  V30 1930 H 194.489 -2.97936 2.53672 0
M  V30 1931 H 194.112 -3.83478 1.05026 0
M  V30 1932 N 195.109 -0.891671 -1.2995 0
M  V30 1933 C 196.042 -0.307994 -2.26112 0
M  V30 1934 C 197.02 0.575262 -1.52084 0
M  V30 1935 O 198.204 0.523864 -1.81074 0
M  V30 1936 C 195.331 0.561734 -3.34009 0
M  V30 1937 C 194.377 -0.253107 -4.25748 0
M  V30 1938 S 195.21 -1.64572 -5.09584 0
M  V30 1939 C 196.366 -0.782699 -6.20987 0
M  V30 1940 H 196.599 -1.12309 -2.75271 0
M  V30 1941 H 194.132 -0.691509 -1.38049 0
M  V30 1942 H 196.09 1.05777 -3.96638 0
M  V30 1943 H 194.751 1.35099 -2.83561 0
M  V30 1944 H 193.944 0.410908 -5.02322 0
M  V30 1945 H 193.546 -0.682004 -3.67729 0
M  V30 1946 H 195.838 -0.00257476 -6.775 0
M  V30 1947 H 196.781 -1.52026 -6.91588 0
M  V30 1948 H 197.189 -0.340638 -5.63471 0
M  V30 1949 N 196.587 1.43421 -0.653314 0
M  V30 1950 C 197.517 2.33487 0.0246656 0
M  V30 1951 C 198.498 1.49475 0.811863 0
M  V30 1952 O 199.683 1.78139 0.773322 0
M  V30 1953 C 196.813 3.32841 0.99166 0
M  V30 1954 C 195.767 4.26842 0.314568 0
M  V30 1955 C 195.093 5.16236 1.39302 0
M  V30 1956 C 196.393 5.16243 -0.793095 0
M  V30 1957 H 198.087 2.90427 -0.727481 0
M  V30 1958 H 195.633 1.39649 -0.351287 0
M  V30 1959 H 197.586 3.94747 1.47487 0
M  V30 1960 H 196.31 2.74158 1.77497 0
M  V30 1961 H 194.969 3.663 -0.148199 0
M  V30 1962 H 194.617 4.53891 2.16776 0
M  V30 1963 H 194.317 5.79948 0.945223 0
M  V30 1964 H 195.841 5.81015 1.87759 0
M  V30 1965 H 197.255 5.71958 -0.392039 0
M  V30 1966 H 195.652 5.88676 -1.16536 0
M  V30 1967 H 196.722 4.55927 -1.65103 0
M  V30 1968 N 198.065 0.39524 1.52563 0
M  V30 1969 C 199.311 -0.185318 2.01952 0
M  V30 1970 C 199.644 -1.45964 1.28095 0
M  V30 1971 O 198.919 -1.90689 0.38315 0
M  V30 1972 C 199.202 -0.447193 3.57312 0
M  V30 1973 C 199.055 0.842828 4.41833 0
M  V30 1974 C 200.374 -1.23529 4.22408 0
M  V30 1975 H 197.493 -0.0658788 0.73405 0
M  V30 1976 H 200.135 0.525975 1.82575 0
M  V30 1977 H 198.285 -1.05312 3.73954 0
M  V30 1978 H 199.957 1.4795 4.36931 0
M  V30 1979 H 198.2 1.45686 4.08605 0
M  V30 1980 H 198.871 0.614165 5.48573 0
M  V30 1981 H 201.347 -0.722445 4.0978 0
M  V30 1982 H 200.223 -1.38727 5.3108 0
M  V30 1983 H 200.484 -2.25213 3.80436 0
M  V30 1984 N 199.544 -1.57102 0.125237 0
M  V30 1985 C 200.96 -1.57915 -0.231322 0
M  V30 1986 C 201.16 -1.13833 -1.66266 0
M  V30 1987 O 200.216 -0.828581 -2.38518 0
M  V30 1988 C 201.529 -3.00699 0.00766489 0
M  V30 1989 C 203.077 -3.12947 -0.0577483 0
M  V30 1990 C 203.552 -4.57742 0.153626 0
M  V30 1991 N 205.043 -4.63092 0.0998073 0
M  V30 1992 C 205.778 -5.72905 0.238174 0
M  V30 1993 N 205.274 -6.91445 0.433057 0
M  V30 1994 N 207.067 -5.6182 0.177308 0
M  V30 1995 H 199.218 -1.84055 1.06007 0
M  V30 1996 H 201.481 -0.850905 0.417929 0
M  V30 1997 H 201.187 -3.3726 0.997431 0
M  V30 1998 H 201.061 -3.70236 -0.721452 0
M  V30 1999 H 203.448 -2.7624 -1.03804 0
M  V30 2000 H 203.529 -2.4594 0.70335 0
M  V30 2001 H 203.173 -4.95149 1.13092 0
M  V30 2002 H 203.103 -5.22848 -0.627534 0
M  V30 2003 H 205.594 -3.77871 -0.047051 0
M  V30 2004 H 205.907 -7.70985 0.529332 0
M  V30 2005 H 204.252 -6.93415 0.469109 0
M  V30 2006 H 207.443 -4.68093 0.0259748 0
M  V30 2007 H 207.616 -6.47357 0.288582 0
M  V30 2008 N 201.022 0.148545 -1.56898 0
M  V30 2009 C 202.247 0.880385 -1.87787 0
M  V30 2010 C 202.672 1.74018 -0.714093 0
M  V30 2011 O 202.03 1.78153 0.336343 0
M  V30 2012 C 202.078 1.71422 -3.17249 0
M  V30 2013 O 201.182 2.8183 -3.01074 0
M  V30 2014 H 200.523 0.245301 -0.617028 0
M  V30 2015 H 203.053 0.139826 -2.04122 0
M  V30 2016 H 203.063 2.10954 -3.49231 0
M  V30 2017 H 201.738 1.08284 -4.01556 0
M  V30 2018 H 200.315 2.45715 -2.80497 0
M  V30 2019 N 202.5 1.5196 0.417844 0
M  V30 2020 C 203.748 1.65263 1.16329 0
M  V30 2021 C 204.069 0.380634 1.91249 0
M  V30 2022 O 203.339 -0.604214 1.86349 0
M  V30 2023 H 201.919 0.60912 0.432414 0
M  V30 2024 H 204.581 1.88969 0.477162 0
M  V30 2025 H 203.677 2.4896 1.88217 0
M  V30 2026 N 203.978 -0.674533 1.42435 0
M  V30 2027 C 204.941 -1.76986 1.45632 0
M  V30 2028 C 205.941 -1.5708 0.343871 0
M  V30 2029 O 207.131 -1.63367 0.604709 0
M  V30 2030 C 204.263 -3.15623 1.28822 0
M  V30 2031 H 205.456 -1.75539 2.43158 0
M  V30 2032 H 203.009 -0.884189 1.28887 0
M  V30 2033 H 203.744 -3.22696 0.322193 0
M  V30 2034 H 203.529 -3.31475 2.09444 0
M  V30 2035 H 205.019 -3.95537 1.33942 0
M  V30 2036 N 205.456 -1.28612 -0.910864 0
M  V30 2037 C 206.386 -1.15326 -2.03032 0
M  V30 2038 C 207.367 -0.0502924 -1.70026 0
M  V30 2039 O 208.552 -0.227797 -1.92859 0
M  V30 2040 C 205.682 -0.817343 -3.37545 0
M  V30 2041 C 204.636 -1.8754 -3.84724 0
M  V30 2042 C 203.962 -1.39305 -5.16235 0
M  V30 2043 C 205.262 -3.28244 -4.06267 0
M  V30 2044 H 206.956 -2.08975 -2.14406 0
M  V30 2045 H 204.502 -1.00612 -1.03021 0
M  V30 2046 H 206.455 -0.711151 -4.15356 0
M  V30 2047 H 205.179 0.154846 -3.26233 0
M  V30 2048 H 203.838 -1.97079 -3.09121 0
M  V30 2049 H 203.486 -0.409846 -5.01328 0
M  V30 2050 H 203.186 -2.10057 -5.48771 0
M  V30 2051 H 204.71 -1.30014 -5.96598 0
M  V30 2052 H 206.124 -3.21611 -4.74594 0
M  V30 2053 H 204.521 -3.96855 -4.5014 0
M  V30 2054 H 205.591 -3.72048 -3.10979 0
M  V30 2055 N 206.934 1.1197 -1.10907 0
M  V30 2056 C 208.211 1.79959 -0.766432 0
M  V30 2057 C 208.591 1.97466 0.746363 0
M  V30 2058 O 207.939 1.55491 1.67436 0
M  V30 2059 C 208.149 3.14009 -1.52314 0
M  V30 2060 C 209.497 3.89134 -1.69883 0
M  V30 2061 O 210.521 3.2368 -1.48692 0
M  V30 2062 O 209.38 5.06572 -2.05054 0
M  V30 2063 H 206.474 0.779208 -0.277062 0
M  V30 2064 H 209.02 1.18762 -1.21217 0
M  V30 2065 H 207.792 2.96587 -2.55249 0
M  V30 2066 H 207.415 3.82915 -1.07059 0
M  V30 2067 N 208.412 0.89855 1.29475 0
M  V30 2068 C 209.661 0.519863 1.94885 0
M  V30 2069 C 209.974 -0.9383 1.71625 0
M  V30 2070 O 211.18 -1.42445 2.31131 0
M  V30 2071 C 209.636 0.878836 3.49005 0
M  V30 2072 C 209.244 2.35569 3.81066 0
M  V30 2073 C 210.988 0.570004 4.20656 0
M  V30 2074 C 208.895 2.65558 5.28425 0
M  V30 2075 H 207.825 0.190692 0.729488 0
M  V30 2076 H 210.476 1.09539 1.47219 0
M  V30 2077 H 208.858 0.232253 3.95318 0
M  V30 2078 H 210.032 3.04773 3.45616 0
M  V30 2079 H 208.347 2.63343 3.22552 0
M  V30 2080 H 210.944 0.770925 5.29113 0
M  V30 2081 H 211.287 -0.491404 4.1339 0
M  V30 2082 H 211.82 1.17438 3.8007 0
M  V30 2083 H 208.559 3.70493 5.40754 0
M  V30 2084 H 208.079 2.00977 5.65127 0
M  V30 2085 H 209.758 2.51765 5.96006 0
M  V30 2086 N 209.89 -1.43072 0.660911 0
M  V30 2087 C 211.139 -2.00942 0.174735 0
M  V30 2088 C 211.452 -1.52797 -1.22117 0
M  V30 2089 O 212.658 -2.02991 -1.80297 0
M  V30 2090 C 211.114 -3.58948 0.261559 0
M  V30 2091 C 210.722 -4.16085 1.66064 0
M  V30 2092 C 212.466 -4.24173 -0.166617 0
M  V30 2093 C 210.373 -5.6641 1.70098 0
M  V30 2094 H 209.303 -0.751483 0.0615631 0
M  V30 2095 H 211.954 -1.63955 0.824069 0
M  V30 2096 H 210.336 -3.93372 -0.455421 0
M  V30 2097 H 211.51 -3.93147 2.40359 0
M  V30 2098 H 209.825 -3.6326 2.03546 0
M  V30 2099 H 212.422 -5.34471 -0.156433 0
M  V30 2100 H 212.765 -3.98647 -1.19943 0
M  V30 2101 H 213.298 -3.94659 0.498875 0
M  V30 2102 H 210.037 -5.96715 2.71315 0
M  V30 2103 H 209.557 -5.91382 1.00139 0
M  V30 2104 H 211.236 -6.30585 1.44816 0
M  V30 2105 N 211.368 -0.403325 -1.52352 0
M  V30 2106 C 212.614 0.174605 -2.02047 0
M  V30 2107 C 212.947 1.45282 -1.28867 0
M  V30 2108 O 212.222 1.90483 -0.393257 0
M  V30 2109 C 212.505 0.428238 -3.57545 0
M  V30 2110 C 212.358 -0.866248 -4.4138 0
M  V30 2111 C 213.677 1.21287 -4.23057 0
M  V30 2112 H 210.796 0.0619851 -0.734389 0
M  V30 2113 H 213.438 -0.53565 -1.82293 0
M  V30 2114 H 211.588 1.03327 -3.74507 0
M  V30 2115 H 213.26 -1.50265 -4.3614 0
M  V30 2116 H 211.503 -1.47851 -4.07827 0
M  V30 2117 H 212.174 -0.643249 -5.48239 0
M  V30 2118 H 214.65 0.700703 -4.10158 0
M  V30 2119 H 213.526 1.35909 -5.31808 0
M  V30 2120 H 213.787 2.23193 -3.81625 0
M  V30 2121 N 212.846 1.57033 -0.133567 0
M  V30 2122 C 214.095 1.94861 0.520768 0
M  V30 2123 C 214.408 1.02012 1.66892 0
M  V30 2124 O 215.614 1.29365 2.38699 0
M  V30 2125 C 214.07 3.46362 0.977809 0
M  V30 2126 C 213.678 4.47773 -0.142674 0
M  V30 2127 C 215.422 3.93083 1.60269 0
M  V30 2128 C 213.329 5.90468 0.331883 0
M  V30 2129 H 212.259 0.727453 0.198315 0
M  V30 2130 H 214.91 1.82227 -0.215759 0
M  V30 2131 H 213.292 3.54282 1.7692 0
M  V30 2132 H 214.466 4.51536 -0.919317 0
M  V30 2133 H 212.781 4.10891 -0.675124 0
M  V30 2134 H 215.378 4.97121 1.96914 0
M  V30 2135 H 215.721 3.33876 2.48662 0
M  V30 2136 H 216.254 3.88025 0.876453 0
M  V30 2137 H 212.993 6.53463 -0.516341 0
M  V30 2138 H 212.513 5.90094 1.07469 0
M  V30 2139 H 214.192 6.42179 0.788332 0
M  V30 2140 N 214.325 -0.140222 1.56975 0
M  V30 2141 C 215.602 -0.880769 1.74648 0
M  V30 2142 C 215.982 -1.99036 0.703404 0
M  V30 2143 O 215.33 -2.26821 -0.27648 0
M  V30 2144 C 215.54 -1.417 3.18939 0
M  V30 2145 C 216.888 -1.87774 3.80823 0
M  V30 2146 O 217.912 -1.51427 3.2241 0
M  V30 2147 O 216.771 -2.54827 4.83452 0
M  V30 2148 H 213.865 -0.416713 0.714338 0
M  V30 2149 H 216.411 -0.125618 1.69234 0
M  V30 2150 H 215.183 -0.619902 3.86359 0
M  V30 2151 H 214.806 -2.23546 3.28805 0
M  V30 2152 N 215.803 -1.52179 -0.40978 0
M  V30 2153 C 217.028 -1.70347 -1.18308 0
M  V30 2154 C 217.453 -0.411887 -1.83535 0
M  V30 2155 O 216.811 0.630587 -1.6998 0
M  V30 2156 C 216.859 -2.83977 -2.22238 0
M  V30 2157 O 215.963 -2.495 -3.28365 0
M  V30 2158 H 215.304 -0.567103 -0.345384 0
M  V30 2159 H 217.834 -1.98879 -0.480445 0
M  V30 2160 H 217.844 -3.0887 -2.66577 0
M  V30 2161 H 216.519 -3.77685 -1.74146 0
M  V30 2162 H 215.096 -2.35277 -2.89308 0
M  V30 2163 N 217.281 0.66697 -1.42791 0
M  V30 2164 C 218.527 1.4291 -1.43891 0
M  V30 2165 C 218.86 1.94114 -0.0578972 0
M  V30 2166 O 218.135 1.71414 0.91911 0
M  V30 2167 C 218.418 2.62049 -2.46987 0
M  V30 2168 C 218.271 2.16426 -3.94309 0
M  V30 2169 C 219.59 3.64266 -2.46978 0
M  V30 2170 H 216.709 0.518306 -0.523954 0
M  V30 2171 H 219.351 0.757321 -1.74255 0
M  V30 2172 H 217.501 3.19361 -2.21225 0
M  V30 2173 H 219.173 1.64221 -4.31079 0
M  V30 2174 H 217.416 1.47925 -4.078 0
M  V30 2175 H 218.087 3.02038 -4.62036 0
M  V30 2176 H 220.563 3.16686 -2.69906 0
M  V30 2177 H 219.439 4.45196 -3.21079 0
M  V30 2178 H 219.7 4.15927 -1.49857 0
M  V30 2179 N 218.759 1.29093 0.90403 0
M  V30 2180 C 219.722 1.1386 1.98919 0
M  V30 2181 C 220.722 0.0753457 1.60623 0
M  V30 2182 O 221.912 0.321931 1.71199 0
M  V30 2183 C 219.044 0.740198 3.32767 0
M  V30 2184 H 220.237 2.10246 2.13861 0
M  V30 2185 H 217.79 1.12218 1.08797 0
M  V30 2186 H 218.525 -0.223997 3.23525 0
M  V30 2187 H 218.31 1.50838 3.61926 0
M  V30 2188 H 219.8 0.656546 4.12407 0
M  V30 2189 N 220.237 -1.11381 1.11499 0
M  V30 2190 C 221.2 -2.15622 0.777153 0
M  V30 2191 C 222.2 -1.59504 -0.203779 0
M  V30 2192 O 223.39 -1.74188 0.020782 0
M  V30 2193 C 220.522 -3.40556 0.153116 0
M  V30 2194 H 221.715 -2.47021 1.70061 0
M  V30 2195 H 219.268 -1.26577 0.916952 0
M  V30 2196 H 220.003 -3.14767 -0.780536 0
M  V30 2197 H 219.788 -3.8257 0.859238 0
M  V30 2198 H 221.278 -4.17546 -0.0671044 0
M  V30 2199 N 221.715 -0.905404 -1.28997 0
M  V30 2200 C 222.645 -0.404212 -2.29975 0
M  V30 2201 C 223.626 0.523784 -1.61835 0
M  V30 2202 O 224.811 0.433298 -1.89304 0
M  V30 2203 C 221.941 0.364042 -3.45387 0
M  V30 2204 C 220.895 -0.474048 -4.25367 0
M  V30 2205 C 220.221 0.422045 -5.33032 0
M  V30 2206 C 221.521 -1.72696 -4.92923 0
M  V30 2207 H 223.215 -1.24807 -2.72146 0
M  V30 2208 H 220.761 -0.601585 -1.30832 0
M  V30 2209 H 222.714 0.725447 -4.15109 0
M  V30 2210 H 221.438 1.24174 -3.02074 0
M  V30 2211 H 220.097 -0.81786 -3.57361 0
M  V30 2212 H 219.745 1.29804 -4.85963 0
M  V30 2213 H 219.445 -0.135057 -5.87445 0
M  V30 2214 H 220.969 0.779517 -6.05604 0
M  V30 2215 H 222.383 -1.43495 -5.55051 0
M  V30 2216 H 220.78 -2.22582 -5.57295 0
M  V30 2217 H 221.85 -2.45964 -4.17887 0
M  V30 2218 N 223.193 1.4272 -0.668489 0
M  V30 2219 C 224.439 2.01923 -0.188419 0
M  V30 2220 C 224.772 1.52704 1.19979 0
M  V30 2221 O 224.047 0.726566 1.8042 0
M  V30 2222 C 224.33 3.59451 -0.216085 0
M  V30 2223 C 224.183 4.18864 -1.6393 0
M  V30 2224 C 225.502 4.37903 0.439179 0
M  V30 2225 H 222.621 0.733674 -0.0699412 0
M  V30 2226 H 225.263 1.69822 -0.852076 0
M  V30 2227 H 223.413 3.86929 0.349012 0
M  V30 2228 H 225.085 4.02362 -2.25616 0
M  V30 2229 H 223.328 3.74933 -2.18193 0
M  V30 2230 H 223.999 5.27987 -1.61039 0
M  V30 2231 H 226.475 4.16079 -0.0417878 0
M  V30 2232 H 225.351 5.47519 0.389157 0
M  V30 2233 H 225.612 4.15303 1.51577 0
M  V30 2234 N 224.671 0.411399 1.52136 0
M  V30 2235 C 226.082 -0.0576826 1.86611 0
M  V30 2236 C 226.433 -1.44238 1.33003 0
M  V30 2237 O 225.558 -2.05759 0.670228 0
M  V30 2238 C 226.153 -0.111448 3.38617 0
M  V30 2239 C 224.712 -0.52487 3.72723 0
M  V30 2240 C 223.859 0.299176 2.75681 0
M  V30 2241 H 226.81 0.628368 1.4573 0
M  V30 2242 H 226.831 -0.926252 3.69054 0
M  V30 2243 H 226.343 0.896488 3.77604 0
M  V30 2244 H 224.444 -1.53936 3.39315 0
M  V30 2245 H 224.557 -0.267681 4.78352 0
M  V30 2246 H 222.921 -0.238814 2.53578 0
M  V30 2247 H 223.704 1.3055 3.17508 0
M  V30 2248 N 226.149 -1.5696 0.141893 0
M  V30 2249 C 227.565 -1.58151 -0.21456 0
M  V30 2250 C 227.765 -1.1559 -1.65049 0
M  V30 2251 O 226.821 -0.853832 -2.37626 0
M  V30 2252 C 228.134 -3.00674 0.0395576 0
M  V30 2253 C 229.682 -3.1299 -0.0245529 0
M  V30 2254 C 230.157 -4.57554 0.202167 0
M  V30 2255 N 231.648 -4.62961 0.148919 0
M  V30 2256 C 232.383 -5.7262 0.298924 0
M  V30 2257 N 231.879 -6.90947 0.50637 0
M  V30 2258 N 233.672 -5.61601 0.236886 0
M  V30 2259 H 225.823 -1.8292 1.07953 0
M  V30 2260 H 228.086 -0.846425 0.42693 0
M  V30 2261 H 227.792 -3.36183 1.03315 0
M  V30 2262 H 227.666 -3.70981 -0.682143 0
M  V30 2263 H 230.053 -2.77326 -1.00869 0
M  V30 2264 H 230.134 -2.4518 0.729396 0
M  V30 2265 H 229.778 -4.93922 1.18338 0
M  V30 2266 H 229.708 -5.23484 -0.572044 0
M  V30 2267 H 232.199 -3.77899 -0.00697015 0
M  V30 2268 H 232.512 -7.7038 0.611076 0
M  V30 2269 H 230.857 -6.92878 0.542628 0
M  V30 2270 H 234.048 -4.68039 0.0756209 0
M  V30 2271 H 234.221 -6.47015 0.357227 0
M  V30 2272 N 227.627 0.131896 -1.57047 0
M  V30 2273 C 228.59 1.14638 -1.98471 0
M  V30 2274 C 229.59 1.35029 -0.873148 0
M  V30 2275 O 230.78 1.31764 -1.13946 0
M  V30 2276 C 227.912 2.50358 -2.31373 0
M  V30 2277 H 229.105 0.79064 -2.8929 0
M  V30 2278 H 226.658 0.375761 -1.51716 0
M  V30 2279 H 227.393 2.90876 -1.43393 0
M  V30 2280 H 227.178 2.36915 -3.12432 0
M  V30 2281 H 228.668 3.23395 -2.64207 0
M  V30 2282 N 229.106 1.52395 0.401703 0
M  V30 2283 C 230.016 1.7917 1.51444 0
M  V30 2284 C 231.032 0.677691 1.6026 0
M  V30 2285 O 232.208 0.963909 1.76835 0
M  V30 2286 C 229.273 1.94347 2.87107 0
M  V30 2287 C 228.334 3.18257 2.88116 0
M  V30 2288 C 227.567 3.32701 4.17308 0
M  V30 2289 O 227.79 2.52238 5.11598 0
M  V30 2290 O 226.724 4.25891 4.25324 0
M  V30 2291 H 230.55 2.73633 1.31752 0
M  V30 2292 H 228.135 1.3733 0.588296 0
M  V30 2293 H 230.017 2.06109 3.67555 0
M  V30 2294 H 228.692 1.03073 3.06851 0
M  V30 2295 H 227.599 3.11947 2.06494 0
M  V30 2296 H 228.932 4.09336 2.73322 0
M  V30 2297 N 230.584 -0.659388 1.43143 0
M  V30 2298 C 231.833 -1.41518 1.43721 0
M  V30 2299 C 232.146 -1.95499 0.0628176 0
M  V30 2300 O 233.352 -2.71446 -0.0539683 0
M  V30 2301 C 231.808 -2.5608 2.52885 0
M  V30 2302 C 231.416 -2.08733 3.96402 0
M  V30 2303 C 233.16 -3.3349 2.62649 0
M  V30 2304 C 231.067 -3.20469 4.97045 0
M  V30 2305 H 229.997 -0.531705 0.534608 0
M  V30 2306 H 232.648 -0.712343 1.69109 0
M  V30 2307 H 231.03 -3.28805 2.20688 0
M  V30 2308 H 232.204 -1.43059 4.3803 0
M  V30 2309 H 230.519 -1.44219 3.90627 0
M  V30 2310 H 233.116 -4.16734 3.35017 0
M  V30 2311 H 233.459 -3.8111 1.67513 0
M  V30 2312 H 233.992 -2.67842 2.94118 0
M  V30 2313 H 230.731 -2.77824 5.93712 0
M  V30 2314 H 230.251 -3.84874 4.60034 0
M  V30 2315 H 231.93 -3.85698 5.19467 0
M  V30 2316 N 232.062 -1.29571 -0.897171 0
M  V30 2317 C 232.972 -1.16808 -2.03453 0
M  V30 2318 C 233.988 -0.0907471 -1.73763 0
M  V30 2319 O 235.164 -0.303312 -1.99103 0
M  V30 2320 C 232.229 -0.848264 -3.36163 0
M  V30 2321 C 231.29 -2.0097 -3.79354 0
M  V30 2322 C 230.523 -1.70505 -5.05731 0
M  V30 2323 O 230.746 -0.62718 -5.66941 0
M  V30 2324 O 229.68 -2.5538 -5.45036 0
M  V30 2325 H 233.506 -2.12325 -2.17144 0
M  V30 2326 H 231.091 -1.09047 -1.02123 0
M  V30 2327 H 232.973 -0.684581 -4.15802 0
M  V30 2328 H 231.648 0.0771071 -3.23608 0
M  V30 2329 H 230.555 -2.22863 -3.00471 0
M  V30 2330 H 231.888 -2.91636 -3.96496 0
M  V30 2331 N 233.54 1.10788 -1.12088 0
M  V30 2332 C 234.788 1.8231 -0.872205 0
M  V30 2333 C 235.109 1.85419 0.603709 0
M  V30 2334 O 234.379 1.32963 1.43867 0
M  V30 2335 H 232.959 0.675137 -0.319686 0
M  V30 2336 H 235.621 1.34068 -1.41463 0
M  V30 2337 H 234.717 2.85955 -1.25045 0
M  V30 2338 N 235.018 0.912232 1.28515 0
M  V30 2339 C 235.928 0.404506 2.31086 0
M  V30 2340 C 236.944 -0.50707 1.66448 0
M  V30 2341 O 238.12 -0.393624 1.97516 0
M  V30 2342 C 235.185 -0.348572 3.44943 0
M  V30 2343 C 234.246 0.59604 4.25142 0
M  V30 2344 C 233.479 -0.121194 5.33562 0
M  V30 2345 O 233.702 -1.34317 5.5436 0
M  V30 2346 O 232.636 0.542716 5.99448 0
M  V30 2347 H 236.462 1.25579 2.76521 0
M  V30 2348 H 234.047 0.676998 1.33181 0
M  V30 2349 H 235.929 -0.77395 4.14232 0
M  V30 2350 H 234.604 -1.17571 3.01594 0
M  V30 2351 H 233.511 1.07079 3.58448 0
M  V30 2352 H 234.844 1.38995 4.72167 0
M  V30 2353 N 236.496 -1.42363 0.676048 0
M  V30 2354 C 237.429 -2.28141 -0.0516916 0
M  V30 2355 C 238.407 -1.41135 -0.807439 0
M  V30 2356 O 239.591 -1.70573 -0.802305 0
M  V30 2357 C 236.718 -3.21007 -1.08039 0
M  V30 2358 C 235.764 -4.24426 -0.420076 0
M  V30 2359 S 236.597 -5.29134 0.823246 0
M  V30 2360 C 237.753 -6.25566 -0.204344 0
M  V30 2361 H 237.986 -2.89515 0.675884 0
M  V30 2362 H 235.519 -1.47211 0.465635 0
M  V30 2363 H 237.477 -3.75048 -1.66881 0
M  V30 2364 H 236.138 -2.58766 -1.78042 0
M  V30 2365 H 235.331 -4.89596 -1.19633 0
M  V30 2366 H 234.933 -3.7388 0.0947845 0
M  V30 2367 H 237.225 -6.69098 -1.06369 0
M  V30 2368 H 238.168 -7.06895 0.412915 0
M  V30 2369 H 238.576 -5.61811 -0.55038 0
M  V30 2370 N 237.974 -0.419461 -1.51915 0
M  V30 2371 C 239.222 0.152637 -2.01523 0
M  V30 2372 C 239.543 1.44762 -1.30649 0
M  V30 2373 O 238.813 1.90997 -0.435535 0
M  V30 2374 H 237.393 0.0593966 -0.744635 0
M  V30 2375 H 240.055 -0.558073 -1.86739 0
M  V30 2376 H 239.151 0.341369 -3.10227 0
M  V30 2377 N 239.452 1.56882 -0.150215 0
M  V30 2378 C 240.729 1.87844 0.545327 0
M  V30 2379 C 241.109 1.0567 1.82749 0
M  V30 2380 O 240.457 0.144442 2.28043 0
M  V30 2381 C 240.667 3.39526 0.80767 0
M  V30 2382 C 242.015 4.08814 1.14703 0
M  V30 2383 O 243.039 3.44723 0.896917 0
M  V30 2384 O 241.898 5.22004 1.61784 0
M  V30 2385 H 238.992 0.778677 0.278553 0
M  V30 2386 H 241.538 1.68666 -0.187068 0
M  V30 2387 H 240.31 3.91173 -0.0996096 0
M  V30 2388 H 239.933 3.64243 1.59413 0
M  V30 2389 N 240.93 -0.123565 1.57115 0
M  V30 2390 C 242.155 -0.850398 1.89164 0
M  V30 2391 C 242.58 -1.7286 0.741688 0
M  V30 2392 O 241.938 -1.78665 -0.307958 0
M  V30 2393 C 241.986 -1.66353 3.19936 0
M  V30 2394 O 241.09 -2.77004 3.0552 0
M  V30 2395 H 240.431 -0.235454 0.620852 0
M  V30 2396 H 242.961 -0.107335 2.04318 0
M  V30 2397 H 242.971 -2.05372 3.52543 0
M  V30 2398 H 241.646 -1.01881 4.03228 0
M  V30 2399 H 240.223 -2.41221 2.84371 0
M  V30 2400 N 242.408 -1.52605 -0.393616 0
M  V30 2401 C 243.358 -1.73436 -1.48 0
M  V30 2402 C 244.342 -0.588386 -1.49756 0
M  V30 2403 O 245.534 -0.846047 -1.5547 0
M  V30 2404 C 242.663 -1.90247 -2.85764 0
M  V30 2405 C 241.749 -3.10763 -2.88595 0
M  V30 2406 N 242.14 -4.33196 -2.61103 0
M  V30 2407 C 240.438 -3.10914 -3.19763 0
M  V30 2408 C 241.139 -5.1477 -2.70899 0
M  V30 2409 N 240.115 -4.50356 -3.04435 0
M  V30 2410 H 243.917 -2.65727 -1.25563 0
M  V30 2411 H 241.431 -1.5085 -0.601513 0
M  V30 2412 H 243.428 -2.03291 -3.63976 0
M  V30 2413 H 242.088 -0.991663 -3.09186 0
M  V30 2414 H 243.099 -4.61408 -2.35209 0
M  V30 2415 H 239.776 -2.29626 -3.4868 0
M  V30 2416 H 241.166 -6.22355 -2.53227 0
M  V30 2417 N 243.887 0.651787 -1.4349 0
M  V30 2418 C 245.133 1.41376 -1.45398 0
M  V30 2419 C 245.466 1.94041 -0.0784823 0
M  V30 2420 O 244.741 1.72379 0.900878 0
M  V30 2421 C 245.024 2.59414 -2.49752 0
M  V30 2422 C 244.877 2.12232 -3.96582 0
M  V30 2423 C 246.196 3.61626 -2.50827 0
M  V30 2424 H 243.315 0.512719 -0.529422 0
M  V30 2425 H 245.957 0.738796 -1.75048 0
M  V30 2426 H 244.107 3.16997 -2.246 0
M  V30 2427 H 245.779 1.59639 -4.32797 0
M  V30 2428 H 244.022 1.43592 -4.09346 0
M  V30 2429 H 244.693 2.9712 -4.65214 0
M  V30 2430 H 247.169 3.13805 -2.7325 0
M  V30 2431 H 246.045 4.41766 -3.25783 0
M  V30 2432 H 246.306 4.14314 -1.5426 0
M  V30 2433 N 245.365 1.30045 0.890287 0
M  V30 2434 C 246.613 1.18327 1.63839 0
M  V30 2435 C 246.934 -0.263455 1.93212 0
M  V30 2436 O 246.204 -1.17856 1.56482 0
M  V30 2437 H 244.784 0.434933 0.607324 0
M  V30 2438 H 247.446 1.631 1.06698 0
M  V30 2439 H 246.542 1.74024 2.59079 0
M  V30 2440 N 246.843 -1.10192 1.12674 0
M  V30 2441 C 247.773 -2.18652 0.819362 0
M  V30 2442 C 248.754 -1.68698 -0.217915 0
M  V30 2443 O 249.939 -1.94041 -0.0785581 0
M  V30 2444 C 247.069 -3.46202 0.27594 0
M  V30 2445 C 246.023 -4.09444 1.24656 0
M  V30 2446 C 245.349 -5.31725 0.563258 0
M  V30 2447 C 246.649 -4.52863 2.60217 0
M  V30 2448 H 248.343 -2.44622 1.72628 0
M  V30 2449 H 245.889 -1.17571 0.831451 0
M  V30 2450 H 247.842 -4.21372 0.0486149 0
M  V30 2451 H 246.566 -3.1973 -0.666331 0
M  V30 2452 H 245.225 -3.36284 1.45974 0
M  V30 2453 H 244.873 -5.0153 -0.384235 0
M  V30 2454 H 244.573 -5.74991 1.21075 0
M  V30 2455 H 246.097 -6.09624 0.34503 0
M  V30 2456 H 247.511 -5.19294 2.42913 0
M  V30 2457 H 245.908 -5.06986 3.21068 0
M  V30 2458 H 246.978 -3.65656 3.18471 0
M  V30 2459 N 248.321 -0.919034 -1.28029 0
M  V30 2460 C 249.253 -0.368762 -2.26214 0
M  V30 2461 C 250.266 0.495716 -1.55069 0
M  V30 2462 O 251.455 0.30974 -1.75792 0
M  V30 2463 C 248.555 0.491049 -3.35324 0
M  V30 2464 C 247.728 -0.352133 -4.3598 0
M  V30 2465 C 246.787 0.443622 -5.24327 0
M  V30 2466 O 245.813 -0.14566 -5.69014 0
M  V30 2467 N 247.015 1.74545 -5.53637 0
M  V30 2468 H 249.78 -1.21273 -2.74068 0
M  V30 2469 H 247.341 -0.785541 -1.41566 0
M  V30 2470 H 249.333 1.03026 -3.91366 0
M  V30 2471 H 247.903 1.23574 -2.87138 0
M  V30 2472 H 247.123 -1.07269 -3.79324 0
M  V30 2473 H 248.411 -0.928883 -5.00249 0
M  V30 2474 H 247.809 2.24666 -5.19174 0
M  V30 2475 H 246.366 2.23138 -6.12416 0
M  V30 2476 N 249.799 1.42003 -0.683588 0
M  V30 2477 C 250.762 2.29191 -0.0198243 0
M  V30 2478 C 251.762 1.43773 0.72013 0
M  V30 2479 O 252.952 1.65061 0.556815 0
M  V30 2480 C 250.084 3.26435 0.982487 0
M  V30 2481 H 251.277 2.8938 -0.787345 0
M  V30 2482 H 248.83 1.49789 -0.446418 0
M  V30 2483 H 249.565 2.71203 1.77819 0
M  V30 2484 H 249.35 3.89449 0.455182 0
M  V30 2485 H 250.84 3.918 1.44508 0
M  V30 2486 N 251.277 0.427512 1.51691 0
M  V30 2487 C 252.693 0.0792977 1.59403 0
M  V30 2488 C 252.893 -1.41035 1.43914 0
M  V30 2489 O 251.949 -2.17922 1.27539 0
M  V30 2490 C 253.262 0.590636 2.94842 0
M  V30 2491 C 254.81 0.550215 3.08126 0
M  V30 2492 C 255.285 1.03836 4.46074 0
M  V30 2493 N 256.776 0.995943 4.52366 0
M  V30 2494 C 257.511 1.34463 5.57411 0
M  V30 2495 N 257.007 1.76569 6.69922 0
M  V30 2496 N 258.8 1.26343 5.47717 0
M  V30 2497 H 250.951 1.39687 1.60004 0
M  V30 2498 H 253.214 0.575003 0.753708 0
M  V30 2499 H 252.92 1.63251 3.11516 0
M  V30 2500 H 252.794 0.0102061 3.77199 0
M  V30 2501 H 255.181 -0.482654 2.91126 0
M  V30 2502 H 255.262 1.16693 2.27632 0
M  V30 2503 H 254.906 2.06965 4.63819 0
M  V30 2504 H 254.836 0.398286 5.25092 0
M  V30 2505 H 257.327 0.68661 3.7161 0
M  V30 2506 H 257.64 2.01438 7.46085 0
M  V30 2507 H 255.985 1.80488 6.71155 0
M  V30 2508 H 259.176 0.933209 4.58703 0
M  V30 2509 H 259.349 1.53846 6.29472 0
M  V30 2510 N 252.755 -1.56801 0.158532 0
M  V30 2511 C 253.685 -2.20347 -0.772609 0
M  V30 2512 C 254.666 -1.15518 -1.24859 0
M  V30 2513 O 255.851 -1.43902 -1.30406 0
M  V30 2514 C 252.981 -2.83417 -2.00729 0
M  V30 2515 C 251.935 -3.94174 -1.66765 0
M  V30 2516 C 251.261 -4.44233 -2.97592 0
M  V30 2517 C 252.561 -5.14392 -0.905447 0
M  V30 2518 H 254.255 -2.98413 -0.242959 0
M  V30 2519 H 251.801 -1.43537 -0.115419 0
M  V30 2520 H 253.754 -3.26543 -2.6636 0
M  V30 2521 H 252.478 -2.02701 -2.56086 0
M  V30 2522 H 251.137 -3.51684 -1.03508 0
M  V30 2523 H 250.785 -3.60325 -3.50963 0
M  V30 2524 H 250.485 -5.18945 -2.75626 0
M  V30 2525 H 252.009 -4.90037 -3.64274 0
M  V30 2526 H 253.423 -5.5429 -1.46408 0
M  V30 2527 H 251.82 -5.9494 -0.7853 0
M  V30 2528 H 252.89 -4.84795 0.100668 0
M  V30 2529 N 254.233 0.115231 -1.57178 0
M  V30 2530 C 255.166 1.17166 -1.95825 0
M  V30 2531 C 256.144 1.39912 -0.828463 0
M  V30 2532 O 257.328 1.54004 -1.08697 0
M  V30 2533 C 254.455 2.52478 -2.25771 0
M  V30 2534 C 253.501 2.46136 -3.48309 0
M  V30 2535 S 254.334 1.89736 -5.0076 0
M  V30 2536 C 255.49 3.26713 -5.33863 0
M  V30 2537 H 255.723 0.842103 -2.85124 0
M  V30 2538 H 253.256 0.322136 -1.51002 0
M  V30 2539 H 255.214 3.30332 -2.43702 0
M  V30 2540 H 253.875 2.82609 -1.37079 0
M  V30 2541 H 253.068 3.45819 -3.66641 0
M  V30 2542 H 252.67 1.76404 -3.29784 0
M  V30 2543 H 254.962 4.22935 -5.29275 0
M  V30 2544 H 255.905 3.13205 -6.35065 0
M  V30 2545 H 256.313 3.25316 -4.61335 0
M  V30 2546 N 255.711 1.52812 0.385517 0
M  V30 2547 C 256.936 1.72207 1.15583 0
M  V30 2548 C 257.361 0.441034 1.82857 0
M  V30 2549 O 256.719 -0.603465 1.70962 0
M  V30 2550 C 256.767 2.87476 2.17692 0
M  V30 2551 O 255.871 2.54693 3.24354 0
M  V30 2552 H 255.212 0.572526 0.336319 0
M  V30 2553 H 257.742 1.99618 0.448744 0
M  V30 2554 H 257.752 3.13072 2.6163 0
M  V30 2555 H 256.427 3.80408 1.68115 0
M  V30 2556 H 255.004 2.3985 2.85529 0
M  V30 2557 N 257.189 -0.644168 1.43834 0
M  V30 2558 C 258.121 -1.76955 1.45669 0
M  V30 2559 C 259.134 -1.58956 0.351666 0
M  V30 2560 O 260.323 -1.6751 0.616644 0
M  V30 2561 C 257.423 -3.14507 1.26248 0
M  V30 2562 C 256.596 -3.59083 2.49757 0
M  V30 2563 C 255.655 -4.75467 2.25427 0
M  V30 2564 O 254.681 -4.84444 2.98836 0
M  V30 2565 N 255.883 -5.66289 1.27661 0
M  V30 2566 H 258.648 -1.75856 2.42682 0
M  V30 2567 H 256.209 -0.828312 1.39106 0
M  V30 2568 H 258.201 -3.90067 1.0784 0
M  V30 2569 H 256.771 -3.10325 0.376478 0
M  V30 2570 H 255.991 -2.7387 2.8353 0
M  V30 2571 H 257.279 -3.85613 3.31934 0
M  V30 2572 H 256.677 -5.61718 0.670064 0
M  V30 2573 H 255.234 -6.41533 1.15234 0
M  V30 2574 N 258.668 -1.30515 -0.883378 0
M  V30 2575 C 259.631 -1.1701 -1.97082 0
M  V30 2576 C 260.631 -0.10089 -1.60483 0
M  V30 2577 O 261.821 -0.349127 -1.70666 0
M  V30 2578 C 258.953 -0.793045 -3.31547 0
M  V30 2579 H 260.146 -2.13622 -2.10489 0
M  V30 2580 H 257.699 -1.13935 -1.06998 0
M  V30 2581 H 258.434 0.172499 -3.23841 0
M  V30 2582 H 258.219 -1.56576 -3.5948 0
M  V30 2583 H 259.709 -0.722073 -4.1131 0
M  V30 2584 N 260.146 1.09593 -1.13257 0
M  V30 2585 C 261.076 2.18214 -0.830946 0
M  V30 2586 C 262.057 1.68812 0.208966 0
M  V30 2587 O 263.242 1.9408 0.0682666 0
M  V30 2588 C 260.372 3.46051 -0.294296 0
M  V30 2589 C 259.326 4.08778 -1.26826 0
M  V30 2590 C 258.652 5.31419 -0.591449 0
M  V30 2591 C 259.952 4.51476 -2.62615 0
M  V30 2592 H 261.646 2.43703 -1.73923 0
M  V30 2593 H 259.192 1.17128 -0.837675 0
M  V30 2594 H 261.145 4.2134 -0.0709606 0
M  V30 2595 H 259.869 3.20079 0.649366 0
M  V30 2596 H 258.528 3.35505 -1.47756 0
M  V30 2597 H 258.176 5.01727 0.357633 0
M  V30 2598 H 257.876 5.74341 -1.24123 0
M  V30 2599 H 259.4 6.09433 -0.377355 0
M  V30 2600 H 260.814 5.17999 -2.45663 0
M  V30 2601 H 259.211 5.05277 -3.23752 0
M  V30 2602 H 260.281 3.63962 -3.20406 0
M  V30 2603 N 261.624 0.925811 1.2754 0
M  V30 2604 C 263.04 0.625767 1.46821 0
M  V30 2605 C 263.24 -0.825506 1.83814 0
M  V30 2606 O 262.296 -1.60356 1.95044 0
M  V30 2607 C 263.609 1.57402 2.56213 0
M  V30 2608 C 265.157 1.58204 2.70075 0
M  V30 2609 C 265.632 2.51721 3.82623 0
M  V30 2610 N 267.123 2.49917 3.89994 0
M  V30 2611 C 267.858 3.18968 4.76494 0
M  V30 2612 N 267.354 3.97391 5.67496 0
M  V30 2613 N 269.147 3.07996 4.70208 0
M  V30 2614 H 261.298 1.86409 1.01811 0
M  V30 2615 H 263.561 0.800213 0.508295 0
M  V30 2616 H 263.267 2.60925 2.35819 0
M  V30 2617 H 263.141 1.31428 3.53563 0
M  V30 2618 H 265.528 0.554124 2.89851 0
M  V30 2619 H 265.609 1.88226 1.73218 0
M  V30 2620 H 265.253 3.54622 3.63601 0
M  V30 2621 H 265.183 2.18996 4.78903 0
M  V30 2622 H 267.674 1.9296 3.24923 0
M  V30 2623 H 267.987 4.4707 6.30356 0
M  V30 2624 H 266.332 4.01495 5.67298 0
M  V30 2625 H 269.523 2.46223 3.9811 0
M  V30 2626 H 269.696 3.6208 5.37403 0
M  V30 2627 N 263.102 -1.41638 0.69111 0
M  V30 2628 C 264.049 -2.30789 0.0229705 0
M  V30 2629 C 265.019 -1.46863 -0.775911 0
M  V30 2630 O 266.204 -1.75661 -0.74485 0
M  V30 2631 C 263.344 -3.32868 -0.910666 0
M  V30 2632 C 262.457 -4.31875 -0.103874 0
M  V30 2633 C 261.592 -5.21024 -1.03475 0
M  V30 2634 C 260.631 -6.11702 -0.220598 0
M  V30 2635 N 259.768 -6.93349 -1.10504 0
M  V30 2636 H 264.608 -2.87366 0.788978 0
M  V30 2637 H 262.145 -1.41535 0.400794 0
M  V30 2638 H 264.103 -3.90596 -1.46597 0
M  V30 2639 H 262.733 -2.77851 -1.64312 0
M  V30 2640 H 261.785 -3.76131 0.568285 0
M  V30 2641 H 263.097 -4.96003 0.527504 0
M  V30 2642 H 262.251 -5.83565 -1.65943 0
M  V30 2643 H 260.99 -4.57112 -1.69999 0
M  V30 2644 H 259.995 -5.48215 0.417187 0
M  V30 2645 H 261.22 -6.77668 0.440784 0
M  V30 2646 H 259.166 -6.3205 -1.75638 0
M  V30 2647 H 259.083 -7.54146 -0.529125 0
M  V30 2648 H 260.351 -7.60362 -1.71667 0
M  V30 2649 N 264.58 -0.43555 -1.51462 0
M  V30 2650 C 265.513 0.421989 -2.24264 0
M  V30 2651 C 266.491 1.02619 -1.26127 0
M  V30 2652 O 267.675 1.069 -1.55257 0
M  V30 2653 C 264.802 1.588 -2.99166 0
M  V30 2654 C 263.848 1.10465 -4.11946 0
M  V30 2655 S 264.681 0.048146 -5.35478 0
M  V30 2656 C 265.837 1.21887 -6.13917 0
M  V30 2657 H 266.07 -0.196102 -2.96653 0
M  V30 2658 H 263.603 -0.220054 -1.52824 0
M  V30 2659 H 265.561 2.25647 -3.42919 0
M  V30 2660 H 264.222 2.1775 -2.26371 0
M  V30 2661 H 263.415 1.97654 -4.63626 0
M  V30 2662 H 263.017 0.51445 -3.70445 0
M  V30 2663 H 265.309 2.13756 -6.42895 0
M  V30 2664 H 266.252 0.742076 -7.04201 0
M  V30 2665 H 266.66 1.45663 -5.45383 0
M  V30 2666 N 266.058 1.56714 -0.166846 0
M  V30 2667 C 267.286 2.0112 0.485644 0
M  V30 2668 C 267.701 1.04705 1.57106 0
M  V30 2669 O 267.058 0.0471923 1.82439 0
M  V30 2670 C 267.109 3.45361 1.06808 0
M  V30 2671 O 266.83 4.38092 0.0259995 0
M  V30 2672 C 268.331 4.05145 1.79924 0
M  V30 2673 H 265.551 0.65931 0.124704 0
M  V30 2674 H 268.095 2.02746 -0.267262 0
M  V30 2675 H 266.25 3.44524 1.7715 0
M  V30 2676 H 266.664 5.22519 0.455398 0
M  V30 2677 H 268.138 5.08009 2.15942 0
M  V30 2678 H 268.615 3.46982 2.69258 0
M  V30 2679 H 269.221 4.09672 1.14234 0
M  V30 2680 N 267.536 -0.106894 1.57237 0
M  V30 2681 C 268.784 -0.810921 1.85117 0
M  V30 2682 C 269.105 -1.7984 0.753827 0
M  V30 2683 O 268.375 -1.94649 -0.221056 0
M  V30 2684 H 266.955 -0.302466 0.683025 0
M  V30 2685 H 269.617 -0.0913324 1.94686 0
M  V30 2686 H 268.713 -1.34875 2.81452 0
M  V30 2687 N 269.014 -1.53014 -0.377408 0
M  V30 2688 C 269.977 -1.77957 -1.44444 0
M  V30 2689 C 270.977 -0.649763 -1.47087 0
M  V30 2690 O 272.167 -0.917897 -1.48055 0
M  V30 2691 C 269.299 -1.89089 -2.83651 0
M  V30 2692 H 270.492 -2.73243 -1.23606 0
M  V30 2693 H 268.045 -1.43912 -0.609844 0
M  V30 2694 H 268.78 -0.958293 -3.09818 0
M  V30 2695 H 268.565 -2.71254 -2.83132 0
M  V30 2696 H 270.055 -2.1002 -3.60945 0
M  V30 2697 N 270.492 0.636531 -1.44174 0
M  V30 2698 C 271.422 1.76003 -1.53444 0
M  V30 2699 C 272.403 1.65619 -0.387841 0
M  V30 2700 O 273.588 1.84461 -0.607257 0
M  V30 2701 C 270.718 3.14511 -1.4731 0
M  V30 2702 C 269.672 3.39677 -2.60391 0
M  V30 2703 C 268.998 4.78159 -2.39308 0
M  V30 2704 C 270.298 3.32772 -4.02567 0
M  V30 2705 H 271.992 1.68501 -2.47483 0
M  V30 2706 H 269.538 0.809237 -1.19111 0
M  V30 2707 H 271.491 3.92878 -1.52397 0
M  V30 2708 H 270.215 3.22783 -0.49785 0
M  V30 2709 H 268.874 2.63688 -2.54684 0
M  V30 2710 H 268.522 4.83128 -1.39988 0
M  V30 2711 H 268.222 4.95956 -3.15122 0
M  V30 2712 H 269.746 5.58762 -2.46205 0
M  V30 2713 H 271.16 4.01051 -4.09672 0
M  V30 2714 H 269.557 3.62104 -4.7854 0
M  V30 2715 H 270.627 2.30669 -4.2652 0
M  V30 2716 N 271.97 1.30982 0.876444 0
M  V30 2717 C 272.918 1.18006 2.00443 0
M  V30 2718 C 273.912 0.0898871 1.69161 0
M  V30 2719 O 275.118 0.251333 1.78237 0
M  V30 2720 H 271.493 0.365196 0.65737 0
M  V30 2721 H 273.464 2.13453 2.0852 0
M  V30 2722 C 272.213 0.897521 3.35916 0
M  V30 2723 H 271.536 1.7285 3.60504 0
M  V30 2724 H 272.976 0.846874 4.15456 0
M  V30 2725 C 271.435 -0.399674 3.34521 0
M  V30 2726 O 271.965 -1.41852 3.7582 0
M  V30 2727 N 270.171 -0.413893 2.87637 0
M  V30 2728 H 269.718 0.41571 2.54224 0
M  V30 2729 H 269.676 -1.28175 2.87086 0
M  V30 2730 N 273.449 -1.08991 1.13837 0
M  V30 2731 C 274.397 -2.17841 0.815347 0
M  V30 2732 C 275.391 -1.68164 -0.204233 0
M  V30 2733 O 276.597 -1.79897 -0.0609304 0
M  V30 2734 H 272.972 -0.710654 0.245915 0
M  V30 2735 H 274.943 -2.42315 1.74143 0
M  V30 2736 C 273.692 -3.46381 0.302614 0
M  V30 2737 H 273.015 -3.84979 1.0785 0
M  V30 2738 H 274.455 -4.23844 0.115074 0
M  V30 2739 C 272.914 -3.22556 -0.972591 0
M  V30 2740 O 273.444 -3.45599 -2.04754 0
M  V30 2741 N 271.65 -2.76134 -0.905455 0
M  V30 2742 H 271.197 -2.57582 -0.0305421 0
M  V30 2743 H 271.155 -2.60571 -1.75926 0
M  V30 2744 N 274.927 -0.932562 -1.27047 0
M  V30 2745 C 276.152 -0.591474 -1.98787 0
M  V30 2746 C 276.577 0.824601 -1.69062 0
M  V30 2747 O 275.935 1.5541 -0.933677 0
M  V30 2748 C 275.983 -0.829808 -3.50922 0
M  V30 2749 O 275.087 0.102266 -4.12273 0
M  V30 2750 H 274.428 -0.227185 -0.623926 0
M  V30 2751 H 276.958 -1.25314 -1.61733 0
M  V30 2752 H 276.968 -0.747292 -4.01098 0
M  V30 2753 H 275.643 -1.86201 -3.7189 0
M  V30 2754 H 274.22 -0.0305761 -3.72887 0
M  V30 2755 N 276.405 1.4127 -0.698611 0
M  V30 2756 C 277.653 2.00782 -0.230409 0
M  V30 2757 C 277.974 1.5562 1.17505 0
M  V30 2758 O 277.244 0.78815 1.79346 0
M  V30 2759 H 275.824 0.742464 -0.0821944 0
M  V30 2760 H 278.486 1.72852 -0.90045 0
M  V30 2761 H 277.582 3.11095 -0.25021 0
M  V30 2762 N 277.883 0.443576 1.51229 0
M  V30 2763 C 279.111 -0.11929 2.06556 0
M  V30 2764 C 279.526 -1.35921 1.31038 0
M  V30 2765 O 278.883 -1.78675 0.371704 0
M  V30 2766 C 278.934 -0.435228 3.5887 0
M  V30 2767 O 278.655 0.755486 4.31537 0
M  V30 2768 C 280.156 -1.04808 4.30732 0
M  V30 2769 H 277.376 -0.0051584 0.67098 0
M  V30 2770 H 279.92 0.624453 1.94733 0
M  V30 2771 H 278.075 -1.12887 3.70588 0
M  V30 2772 H 278.489 0.483491 5.22267 0
M  V30 2773 H 279.963 -1.2191 5.3837 0
M  V30 2774 H 280.44 -2.03081 3.89429 0
M  V30 2775 H 281.046 -0.393637 4.23474 0
M  V30 2776 N 279.361 -1.56624 0.175154 0
M  V30 2777 C 280.589 -2.01374 -0.474971 0
M  V30 2778 C 281.004 -1.05537 -1.56548 0
M  V30 2779 O 280.361 -0.0568668 -1.82411 0
M  V30 2780 C 280.412 -3.45923 -1.04975 0
M  V30 2781 O 280.133 -4.381 -0.00276605 0
M  V30 2782 C 281.634 -4.06093 -1.77773 0
M  V30 2783 H 278.854 -0.659962 -0.121206 0
M  V30 2784 H 281.398 -2.02601 0.27801 0
M  V30 2785 H 279.553 -3.45458 -1.75321 0
M  V30 2786 H 279.967 -5.22753 -0.427681 0
M  V30 2787 H 281.441 -5.09147 -2.13245 0
M  V30 2788 H 281.918 -3.48405 -2.67414 0
M  V30 2789 H 282.524 -4.10272 -1.12059 0
M  V30 2790 N 280.839 0.0985539 -1.57292 0
M  V30 2791 C 281.802 1.10402 -2.00858 0
M  V30 2792 C 282.802 1.33146 -0.901593 0
M  V30 2793 O 283.992 1.29318 -1.16716 0
M  V30 2794 C 281.124 2.45394 -2.36632 0
M  V30 2795 H 282.317 0.729099 -2.90902 0
M  V30 2796 H 279.87 0.343495 -1.52479 0
M  V30 2797 H 280.605 2.87769 -1.49531 0
M  V30 2798 H 280.39 2.30235 -3.17387 0
M  V30 2799 H 281.88 3.17718 -2.71007 0
M  V30 2800 N 282.317 1.53212 0.369288 0
M  V30 2801 C 283.566 1.68436 1.10961 0
M  V30 2802 C 283.879 0.440738 1.9057 0
M  V30 2803 O 285.085 0.473446 2.6734 0
M  V30 2804 C 283.541 2.97744 2.0218 0
M  V30 2805 C 283.149 4.29355 1.279 0
M  V30 2806 C 284.893 3.22334 2.76226 0
M  V30 2807 C 282.8 5.49755 2.17999 0
M  V30 2808 H 281.73 0.627568 0.41794 0
M  V30 2809 H 284.381 1.79713 0.370884 0
M  V30 2810 H 282.763 2.8026 2.79768 0
M  V30 2811 H 283.937 4.57458 0.554007 0
M  V30 2812 H 282.252 4.11179 0.657311 0
M  V30 2813 H 284.849 4.09471 3.43857 0
M  V30 2814 H 285.192 2.38238 3.41392 0
M  V30 2815 H 285.725 3.40475 2.05723 0
M  V30 2816 H 282.464 6.36318 1.57417 0
M  V30 2817 H 281.984 5.25937 2.88359 0
M  V30 2818 H 283.663 5.84401 2.77641 0
M  V30 2819 N 283.795 -0.628877 1.44509 0
M  V30 2820 C 285.042 -1.38839 1.47411 0
M  V30 2821 C 285.37 -1.94202 0.10757 0
M  V30 2822 O 284.625 -1.74243 -0.890947 0
M  V30 2823 C 284.924 -2.56995 2.48371 0
M  V30 2824 C 284.59 -2.19908 3.93639 0
M  V30 2825 C 283.252 -2.09506 4.33198 0
M  V30 2826 C 285.604 -1.9064 4.85083 0
M  V30 2827 C 282.932 -1.68028 5.62124 0
M  V30 2828 C 285.284 -1.50655 6.14399 0
M  V30 2829 C 283.948 -1.38796 6.5291 0
M  V30 2830 H 283.218 -0.508048 0.539414 0
M  V30 2831 H 285.865 -0.712913 1.77735 0
M  V30 2832 H 284.17 -3.29786 2.11538 0
M  V30 2833 H 285.867 -3.15223 2.47861 0
M  V30 2834 H 282.457 -2.28922 3.62343 0
M  V30 2835 H 286.641 -1.97585 4.55273 0
M  V30 2836 H 281.897 -1.57452 5.90778 0
M  V30 2837 H 286.071 -1.27048 6.84713 0
M  V30 2838 H 283.698 -1.06429 7.52713 0
M  V30 2839 N 285.273 -1.31445 -0.869486 0
M  V30 2840 C 286.522 -1.20517 -1.61736 0
M  V30 2841 C 286.835 0.235341 -1.94179 0
M  V30 2842 O 288.041 0.466312 -2.67465 0
M  V30 2843 C 286.497 -2.10982 -2.91573 0
M  V30 2844 C 286.105 -3.60032 -2.66611 0
M  V30 2845 C 287.849 -2.08856 -3.69567 0
M  V30 2846 C 285.756 -4.42503 -3.92358 0
M  V30 2847 H 284.686 -0.447493 -0.606849 0
M  V30 2848 H 287.337 -1.56303 -0.96133 0
M  V30 2849 H 285.719 -1.68095 -3.58553 0
M  V30 2850 H 286.893 -4.11167 -2.08035 0
M  V30 2851 H 285.208 -3.64139 -2.0197 0
M  V30 2852 H 287.805 -2.67716 -4.62852 0
M  V30 2853 H 288.148 -1.07582 -4.02159 0
M  V30 2854 H 288.681 -2.49945 -3.09471 0
M  V30 2855 H 285.42 -5.44533 -3.64916 0
M  V30 2856 H 284.94 -3.96125 -4.50383 0
M  V30 2857 H 286.619 -4.54741 -4.60238 0
M  V30 2858 N 286.751 1.08385 -1.14413 0
M  V30 2859 C 287.699 2.17406 -0.826888 0
M  V30 2860 C 288.693 1.6827 0.195312 0
M  V30 2861 O 289.899 1.79927 0.0513892 0
M  V30 2862 H 286.274 0.70934 -0.249681 0
M  V30 2863 H 288.245 2.41388 -1.75426 0
M  V30 2864 C 286.994 3.46215 -0.320979 0
M  V30 2865 H 286.317 3.84401 -1.0989 0
M  V30 2866 H 287.757 4.23777 -0.137549 0
M  V30 2867 C 286.216 3.23067 0.955472 0
M  V30 2868 O 286.746 3.4668 2.02918 0
M  V30 2869 N 284.952 2.7661 0.890798 0
M  V30 2870 H 284.499 2.57594 0.0168815 0
M  V30 2871 H 284.457 2.61501 1.74542 0
M  V30 2872 N 288.23 0.939286 1.26551 0
M  V30 2873 C 289.162 0.404704 2.25599 0
M  V30 2874 C 290.175 -0.470983 1.55838 0
M  V30 2875 O 291.364 -0.281734 1.76263 0
M  V30 2876 C 288.464 -0.43764 3.36062 0
M  V30 2877 C 287.637 0.421449 4.35365 0
M  V30 2878 C 286.696 -0.36015 5.24966 0
M  V30 2879 O 285.722 0.236167 5.6871 0
M  V30 2880 N 286.924 -1.65715 5.56344 0
M  V30 2881 H 289.689 1.25618 2.72103 0
M  V30 2882 H 287.25 0.807963 1.40298 0
M  V30 2883 H 289.242 -0.967866 3.92956 0
M  V30 2884 H 287.812 -1.18991 2.89067 0
M  V30 2885 H 287.032 1.1329 3.7757 0
M  V30 2886 H 288.32 1.00835 4.98708 0
M  V30 2887 H 287.718 -2.16378 5.22682 0
M  V30 2888 H 286.275 -2.13366 6.15888 0
M  V30 2889 N 289.708 -1.40897 0.706093 0
M  V30 2890 C 290.638 -2.33418 0.0620085 0
M  V30 2891 C 291.619 -1.52385 -0.755827 0
M  V30 2892 O 292.804 -1.80886 -0.706674 0
M  V30 2893 C 289.934 -3.36293 -0.867445 0
M  V30 2894 C 288.888 -4.27716 -0.155932 0
M  V30 2895 C 288.214 -5.2105 -1.20046 0
M  V30 2896 C 289.514 -5.12944 0.984149 0
M  V30 2897 H 291.208 -2.87527 0.83477 0
M  V30 2898 H 288.754 -1.38249 0.402875 0
M  V30 2899 H 290.707 -3.99949 -1.32735 0
M  V30 2900 H 289.431 -2.80556 -1.67199 0
M  V30 2901 H 288.09 -3.65498 0.284047 0
M  V30 2902 H 287.738 -4.61624 -1.99781 0
M  V30 2903 H 287.438 -5.83056 -0.729328 0
M  V30 2904 H 288.962 -5.87584 -1.66066 0
M  V30 2905 H 290.376 -5.70109 0.604048 0
M  V30 2906 H 288.773 -5.83945 1.38304 0
M  V30 2907 H 289.843 -4.49485 1.81911 0
M  V30 2908 N 291.186 -0.45159 -1.50991 0
M  V30 2909 C 292.602 -0.104647 -1.59257 0
M  V30 2910 C 292.802 1.38728 -1.4614 0
M  V30 2911 O 291.858 2.15866 -1.30989 0
M  V30 2912 C 293.171 -0.637468 -2.93865 0
M  V30 2913 C 294.719 -0.599166 -3.07212 0
M  V30 2914 C 295.194 -1.1092 -4.44366 0
M  V30 2915 N 296.685 -1.06778 -4.50725 0
M  V30 2916 C 297.42 -1.43314 -5.55201 0
M  V30 2917 N 296.916 -1.87204 -6.67028 0
M  V30 2918 N 298.709 -1.3504 -5.45638 0
M  V30 2919 H 290.86 -1.42214 -1.57762 0
M  V30 2920 H 293.123 -0.586921 -0.744465 0
M  V30 2921 H 292.829 -1.68187 -3.08879 0
M  V30 2922 H 292.703 -0.0702139 -3.77135 0
M  V30 2923 H 295.09 0.436277 -2.91857 0
M  V30 2924 H 295.171 -1.20299 -2.25747 0
M  V30 2925 H 294.815 -2.14318 -4.60467 0
M  V30 2926 H 294.745 -0.481773 -5.24392 0
M  V30 2927 H 297.236 -0.745643 -3.70471 0
M  V30 2928 H 297.549 -2.13282 -7.42786 0
M  V30 2929 H 295.894 -1.91142 -6.68199 0
M  V30 2930 H 299.085 -1.00607 -4.57161 0
M  V30 2931 H 299.258 -1.63841 -6.26945 0
M  V30 2932 N 292.664 1.56529 -0.183458 0
M  V30 2933 C 293.574 2.22144 0.754272 0
M  V30 2934 C 294.59 1.21684 1.24374 0
M  V30 2935 O 295.766 1.54385 1.29333 0
M  V30 2936 C 292.831 2.85884 1.96141 0
M  V30 2937 C 291.892 4.01579 1.51765 0
M  V30 2938 C 291.125 4.6227 2.66725 0
M  V30 2939 O 291.348 4.21865 3.83909 0
M  V30 2940 O 290.282 5.51936 2.40104 0
M  V30 2941 H 294.108 3.02861 0.225527 0
M  V30 2942 H 291.693 1.49331 0.0453032 0
M  V30 2943 H 293.575 3.26253 2.66715 0
M  V30 2944 H 292.25 2.08154 2.47899 0
M  V30 2945 H 291.157 3.65856 0.781049 0
M  V30 2946 H 292.49 4.80938 1.04686 0
M  V30 2947 N 294.142 -0.090211 1.57342 0
M  V30 2948 C 295.089 -1.10909 2.02405 0
M  V30 2949 C 296.059 -1.39523 0.901252 0
M  V30 2950 O 297.244 -1.50903 1.1676 0
M  V30 2951 C 294.384 -2.42277 2.45755 0
M  V30 2952 C 293.497 -2.20352 3.71576 0
M  V30 2953 C 292.632 -3.45154 4.03785 0
M  V30 2954 C 291.671 -3.18512 5.22701 0
M  V30 2955 N 290.808 -4.35593 5.50639 0
M  V30 2956 H 295.648 -0.71782 2.89225 0
M  V30 2957 H 293.185 -0.342901 1.43048 0
M  V30 2958 H 295.143 -3.18951 2.68935 0
M  V30 2959 H 293.773 -2.79242 1.61938 0
M  V30 2960 H 292.825 -1.34458 3.55844 0
M  V30 2961 H 294.137 -1.96661 4.58395 0
M  V30 2962 H 293.291 -4.30233 4.27767 0
M  V30 2963 H 292.03 -3.71904 3.15498 0
M  V30 2964 H 291.035 -2.31827 4.98534 0
M  V30 2965 H 292.26 -2.93103 6.12591 0
M  V30 2966 H 290.206 -4.6241 4.6531 0
M  V30 2967 H 290.123 -4.1511 6.31838 0
M  V30 2968 H 291.391 -5.21723 5.7916 0
M  V30 2969 N 295.62 -1.53406 -0.361157 0
M  V30 2970 C 296.869 -1.69022 -1.10066 0
M  V30 2971 C 297.182 -0.450838 -1.90333 0
M  V30 2972 O 298.388 -0.487617 -2.67085 0
M  V30 2973 C 296.844 -2.98812 -2.00598 0
M  V30 2974 C 296.452 -4.30027 -1.25621 0
M  V30 2975 C 298.196 -3.23795 -2.74513 0
M  V30 2976 C 296.103 -5.50903 -2.1508 0
M  V30 2977 H 295.033 -0.629776 -0.414606 0
M  V30 2978 H 297.684 -1.79907 -0.361348 0
M  V30 2979 H 296.066 -2.8174 -2.78278 0
M  V30 2980 H 297.24 -4.57745 -0.529739 0
M  V30 2981 H 295.555 -4.11522 -0.635496 0
M  V30 2982 H 298.152 -4.11289 -3.41681 0
M  V30 2983 H 298.495 -2.40045 -3.40123 0
M  V30 2984 H 299.028 -3.41561 -2.03914 0
M  V30 2985 H 295.767 -6.37143 -1.54041 0
M  V30 2986 H 295.287 -5.27459 -2.85565 0
M  V30 2987 H 296.966 -5.85865 -2.74538 0
M  V30 2988 N 297.098 0.621204 -1.44841 0
M  V30 2989 C 298.346 1.37783 -1.47852 0
M  V30 2990 C 298.667 1.94653 -0.116224 0
M  V30 2991 O 297.937 1.76367 0.852737 0
M  V30 2992 H 296.517 0.511453 -0.544449 0
M  V30 2993 H 299.179 0.730446 -1.80694 0
M  V30 2994 H 298.275 2.20414 -2.20961 0
M  V30 2995 N 298.576 1.31904 0.862503 0
M  V30 2996 C 299.822 1.22197 1.61851 0
M  V30 2997 C 300.155 -0.217641 1.92977 0
M  V30 2998 O 299.43 -1.15264 1.56666 0
M  V30 2999 C 299.713 2.07378 2.94391 0
M  V30 3000 C 299.566 3.59678 2.70096 0
M  V30 3001 C 300.885 1.92891 3.95577 0
M  V30 3002 H 298.004 0.445255 0.587296 0
M  V30 3003 H 300.646 1.6177 0.99651 0
M  V30 3004 H 298.796 1.73758 3.47477 0
M  V30 3005 H 300.468 4.03472 2.23625 0
M  V30 3006 H 298.711 3.82735 2.04197 0
M  V30 3007 H 299.382 4.14595 3.64438 0
M  V30 3008 H 301.858 2.22327 3.51724 0
M  V30 3009 H 300.734 2.54781 4.86187 0
M  V30 3010 H 300.995 0.894315 4.3296 0
M  V30 3011 N 300.054 -1.07777 1.14986 0
M  V30 3012 C 300.987 -2.14228 0.786243 0
M  V30 3013 C 301.965 -1.60888 -0.235347 0
M  V30 3014 O 303.149 -1.88099 -0.122909 0
M  V30 3015 C 300.276 -3.38281 0.168433 0
M  V30 3016 C 299.322 -4.10387 1.16123 0
M  V30 3017 S 300.155 -4.62371 2.70135 0
M  V30 3018 C 301.311 -5.89704 2.09762 0
M  V30 3019 H 301.544 -2.44741 1.68787 0
M  V30 3020 H 299.077 -1.19984 0.971756 0
M  V30 3021 H 301.035 -4.10098 -0.181588 0
M  V30 3022 H 299.696 -3.05953 -0.710725 0
M  V30 3023 H 298.889 -4.99431 0.677086 0
M  V30 3024 H 298.491 -3.44513 1.45556 0
M  V30 3025 H 300.783 -6.61648 1.45701 0
M  V30 3026 H 301.726 -6.42824 2.96955 0
M  V30 3027 H 302.134 -5.4302 1.54239 0
M  V30 3028 N 301.532 -0.945985 -1.26051 0
M  V30 3029 C 302.779 -0.596118 -1.93527 0
M  V30 3030 C 303.107 0.865559 -1.74179 0
M  V30 3031 O 302.362 1.63524 -1.0751 0
M  V30 3032 C 302.661 -0.890475 -3.46129 0
M  V30 3033 C 302.327 -2.3368 -3.85622 0
M  V30 3034 C 300.989 -2.73216 -3.96114 0
M  V30 3035 C 303.341 -3.27648 -4.05334 0
M  V30 3036 C 300.669 -4.05806 -4.2372 0
M  V30 3037 C 303.021 -4.59841 -4.3443 0
M  V30 3038 C 301.685 -4.99185 -4.43137 0
M  V30 3039 H 300.955 -0.218135 -0.708165 0
M  V30 3040 H 303.602 -1.1934 -1.49768 0
M  V30 3041 H 301.907 -0.210711 -3.91233 0
M  V30 3042 H 303.604 -0.598478 -3.96509 0
M  V30 3043 H 300.194 -2.02015 -3.78005 0
M  V30 3044 H 304.378 -2.98298 -3.96651 0
M  V30 3045 H 299.634 -4.35945 -4.28675 0
M  V30 3046 H 303.808 -5.32641 -4.48628 0
M  V30 3047 H 301.435 -6.01952 -4.64282 0
M  V30 3048 N 303.011 1.40521 -0.713556 0
M  V30 3049 C 304.259 2.00527 -0.251692 0
M  V30 3050 C 304.58 1.56857 1.15848 0
M  V30 3051 O 303.85 0.807127 1.785 0
M  V30 3052 H 302.43 0.741551 -0.0900646 0
M  V30 3053 H 305.092 1.71887 -0.918733 0
M  V30 3054 H 304.188 3.10813 -0.283192 0
M  V30 3055 N 304.489 0.459591 1.5075 0
M  V30 3056 C 305.714 -0.0996819 2.0716 0
M  V30 3057 C 306.139 -1.33761 1.32249 0
M  V30 3058 O 305.497 -1.77551 0.366786 0
M  V30 3059 C 305.545 -0.378226 3.58611 0
M  V30 3060 O 304.649 -1.46081 3.85661 0
M  V30 3061 H 303.99 0.00791392 0.663953 0
M  V30 3062 H 306.52 0.647329 1.9409 0
M  V30 3063 H 306.53 -0.622135 4.03229 0
M  V30 3064 H 305.205 0.526439 4.12555 0
M  V30 3065 H 303.782 -1.20511 3.5289 0
M  V30 3066 N 305.967 -1.56429 0.191757 0
M  V30 3067 C 307.378 -1.83912 -0.321428 0
M  V30 3068 C 307.729 -1.11231 -1.61623 0
M  V30 3069 O 306.854 -0.37202 -2.13178 0
M  V30 3070 C 307.449 -3.33624 -0.589961 0
M  V30 3071 C 306.008 -3.6153 -1.04753 0
M  V30 3072 C 305.155 -2.7714 -0.0943327 0
M  V30 3073 H 308.106 -1.53161 0.415612 0
M  V30 3074 H 308.127 -3.52213 -1.43966 0
M  V30 3075 H 307.639 -3.86495 0.352588 0
M  V30 3076 H 305.74 -3.14089 -2.00447 0
M  V30 3077 H 305.853 -4.69737 -0.942549 0
M  V30 3078 H 304.217 -2.47638 -0.595589 0
M  V30 3079 H 305 -3.32799 0.842601 0
M  V30 3080 N 307.445 0.0818655 -1.57387 0
M  V30 3081 C 308.355 1.11642 -2.06333 0
M  V30 3082 C 309.371 1.43033 -0.99083 0
M  V30 3083 O 310.547 1.53411 -1.30488 0
M  V30 3084 C 307.612 2.41342 -2.48907 0
M  V30 3085 C 306.673 2.17014 -3.7041 0
M  V30 3086 C 305.906 3.4053 -4.10944 0
M  V30 3087 O 306.129 4.4927 -3.51444 0
M  V30 3088 O 305.063 3.29336 -5.03807 0
M  V30 3089 H 308.889 0.730657 -2.9478 0
M  V30 3090 H 306.474 0.295301 -1.46452 0
M  V30 3091 H 308.356 3.17691 -2.76858 0
M  V30 3092 H 307.031 2.79319 -1.63593 0
M  V30 3093 H 305.938 1.38403 -3.47556 0
M  V30 3094 H 307.271 1.83923 -4.56545 0
M  V30 3095 N 308.923 1.53595 0.353017 0
M  V30 3096 C 310.151 1.74311 1.1146 0
M  V30 3097 C 310.566 0.477854 1.82653 0
M  V30 3098 O 309.923 -0.549977 1.74016 0
M  V30 3099 C 309.974 2.91694 2.13534 0
M  V30 3100 O 309.695 4.13325 1.45238 0
M  V30 3101 C 311.196 3.24384 3.02142 0
M  V30 3102 H 308.416 0.582669 0.332773 0
M  V30 3103 H 310.96 2.00386 0.408107 0
M  V30 3104 H 309.115 2.67977 2.79763 0
M  V30 3105 H 309.529 4.79148 2.13349 0
M  V30 3106 H 311.003 4.09893 3.69718 0
M  V30 3107 H 311.48 2.40282 3.67643 0
M  V30 3108 H 312.086 3.50073 2.41514 0
M  V30 3109 N 310.401 -0.613514 1.45168 0
M  V30 3110 C 311.629 -1.39946 1.5239 0
M  V30 3111 C 312.044 -1.88167 0.154531 0
M  V30 3112 O 311.401 -1.61872 -0.842843 0
M  V30 3113 C 311.452 -2.60795 2.50337 0
M  V30 3114 O 311.173 -2.1458 3.81952 0
M  V30 3115 C 312.674 -3.53723 2.67198 0
M  V30 3116 H 309.894 -0.428593 0.516284 0
M  V30 3117 H 312.438 -0.748753 1.903 0
M  V30 3118 H 310.593 -3.21919 2.15515 0
M  V30 3119 H 311.007 -2.93055 4.34993 0
M  V30 3120 H 312.481 -4.35079 3.39721 0
M  V30 3121 H 312.958 -4.0368 1.73029 0
M  V30 3122 H 313.564 -2.98456 3.02992 0
M  V30 3123 N 311.879 -1.3236 -0.855495 0
M  V30 3124 C 313.107 -1.2587 -1.64208 0
M  V30 3125 C 313.522 0.173457 -1.88002 0
M  V30 3126 O 312.879 1.11027 -1.44842 0
M  V30 3127 C 312.93 -2.01424 -3.00184 0
M  V30 3128 O 312.651 -3.39051 -2.77445 0
M  V30 3129 C 314.152 -2.01948 -3.94629 0
M  V30 3130 H 311.372 -0.434318 -0.511477 0
M  V30 3131 H 313.916 -1.74469 -1.0668 0
M  V30 3132 H 312.071 -1.56549 -3.5436 0
M  V30 3133 H 312.485 -3.77711 -3.63916 0
M  V30 3134 H 313.959 -2.59297 -4.87308 0
M  V30 3135 H 314.436 -1.00554 -4.27534 0
M  V30 3136 H 315.042 -2.46767 -3.4639 0
M  V30 3137 N 313.357 1.07166 -1.15556 0
M  V30 3138 C 314.605 1.79443 -0.929764 0
M  V30 3139 C 314.926 1.87246 0.544414 0
M  V30 3140 O 314.196 1.37473 1.39564 0
M  V30 3141 H 312.776 0.664625 -0.341003 0
M  V30 3142 H 315.438 1.29499 -1.45657 0
M  V30 3143 H 314.534 2.81832 -1.34079 0
M  V30 3144 N 314.835 0.952656 1.25548 0
M  V30 3145 C 316.083 0.605176 1.92826 0
M  V30 3146 C 316.404 -0.860261 1.74999 0
M  V30 3147 O 315.674 -1.6125 1.11244 0
M  V30 3148 H 314.254 0.220832 0.713612 0
M  V30 3149 H 316.916 1.21047 1.52754 0
M  V30 3150 H 316.012 0.832798 3.00784 0
M  V30 3151 N 316.313 -1.40141 0.720998 0
M  V30 3152 C 317.26 -2.30688 0.071919 0
M  V30 3153 C 318.23 -1.48476 -0.744584 0
M  V30 3154 O 319.415 -1.77201 -0.707423 0
M  V30 3155 C 316.555 -3.34724 -0.839855 0
M  V30 3156 C 315.668 -4.31998 -0.0122438 0
M  V30 3157 C 314.803 -5.23102 -0.923995 0
M  V30 3158 C 313.842 -6.12033 -0.0907969 0
M  V30 3159 N 312.979 -6.95537 -0.957718 0
M  V30 3160 H 317.819 -2.85628 0.849755 0
M  V30 3161 H 315.356 -1.40653 0.430726 0
M  V30 3162 H 317.314 -3.93618 -1.38279 0
M  V30 3163 H 315.944 -2.81274 -1.58381 0
M  V30 3164 H 314.996 -3.74841 0.64794 0
M  V30 3165 H 316.308 -4.94772 0.632595 0
M  V30 3166 H 315.462 -5.86953 -1.53527 0
M  V30 3167 H 314.201 -4.60615 -1.60264 0
M  V30 3168 H 313.206 -5.47207 0.533377 0
M  V30 3169 H 314.431 -6.76581 0.584428 0
M  V30 3170 H 312.377 -6.35633 -1.62192 0
M  V30 3171 H 312.294 -7.55099 -0.36904 0
M  V30 3172 H 313.562 -7.63832 -1.555 0
M  V30 3173 N 317.792 -0.46758 -1.50504 0
M  V30 3174 C 318.755 0.317059 -2.26996 0
M  V30 3175 C 319.755 0.923513 -1.31635 0
M  V30 3176 O 320.945 0.793239 -1.55091 0
M  V30 3177 C 318.077 1.45134 -3.08462 0
M  V30 3178 H 319.27 -0.353723 -2.97807 0
M  V30 3179 H 316.823 -0.221545 -1.54722 0
M  V30 3180 H 317.558 2.15728 -2.4214 0
M  V30 3181 H 317.343 1.02232 -3.78538 0
M  V30 3182 H 318.833 2.00493 -3.66323 0
M  V30 3183 N 319.27 1.56325 -0.20005 0
M  V30 3184 C 320.2 2.22318 0.713916 0
M  V30 3185 C 321.181 1.18788 1.21752 0
M  V30 3186 O 322.366 1.47309 1.26545 0
M  V30 3187 C 319.496 2.88639 1.93144 0
M  V30 3188 C 318.45 3.98457 1.56255 0
M  V30 3189 C 317.776 4.51967 2.85709 0
M  V30 3190 C 319.076 5.16612 0.768747 0
M  V30 3191 H 320.77 2.98952 0.163755 0
M  V30 3192 H 318.316 1.43792 0.0773219 0
M  V30 3193 H 320.269 3.33491 2.57608 0
M  V30 3194 H 318.993 2.09419 2.50621 0
M  V30 3195 H 317.652 3.54305 0.941471 0
M  V30 3196 H 317.3 3.69503 3.41287 0
M  V30 3197 H 317 5.26071 2.6177 0
M  V30 3198 H 318.524 4.99523 3.51154 0
M  V30 3199 H 319.938 5.57977 1.3166 0
M  V30 3200 H 318.335 5.96812 0.627286 0
M  V30 3201 H 319.405 4.84358 -0.229168 0
M  V30 3202 N 320.748 -0.0735177 1.57428 0
M  V30 3203 C 321.695 -1.08756 2.0357 0
M  V30 3204 C 322.665 -1.38559 0.916 0
M  V30 3205 O 323.85 -1.49656 1.18354 0
M  V30 3206 C 320.99 -2.39657 2.48311 0
M  V30 3207 C 320.103 -2.16399 3.73892 0
M  V30 3208 C 319.238 -3.40852 4.07423 0
M  V30 3209 C 318.277 -3.1295 5.2605 0
M  V30 3210 N 317.414 -4.29729 5.55228 0
M  V30 3211 H 322.254 -0.687104 2.8997 0
M  V30 3212 H 319.791 -0.327709 1.43403 0
M  V30 3213 H 321.749 -3.16081 2.72303 0
M  V30 3214 H 320.379 -2.77508 1.64891 0
M  V30 3215 H 319.431 -1.30676 3.57251 0
M  V30 3216 H 320.743 -1.91788 4.60455 0
M  V30 3217 H 319.897 -4.25671 4.32306 0
M  V30 3218 H 318.636 -3.68537 3.19425 0
M  V30 3219 H 317.641 -2.26526 5.00965 0
M  V30 3220 H 318.866 -2.86589 6.15665 0
M  V30 3221 H 316.812 -4.57448 4.70188 0
M  V30 3222 H 316.729 -4.08385 6.36206 0
M  V30 3223 H 317.997 -5.1555 5.84661 0
M  V30 3224 N 322.226 -1.5378 -0.344866 0
M  V30 3225 C 323.473 -1.70963 -1.08526 0
M  V30 3226 C 323.801 -0.472126 -1.88683 0
M  V30 3227 O 323.056 0.546116 -1.87926 0
M  V30 3228 C 323.355 -2.92407 -2.05506 0
M  V30 3229 C 323.021 -4.28066 -1.41671 0
M  V30 3230 C 321.683 -4.64951 -1.2399 0
M  V30 3231 C 324.035 -5.12344 -0.956726 0
M  V30 3232 C 321.363 -5.83733 -0.589277 0
M  V30 3233 C 323.715 -6.3179 -0.320015 0
M  V30 3234 C 322.379 -6.67372 -0.130881 0
M  V30 3235 H 321.649 -0.625598 -0.397124 0
M  V30 3236 H 324.296 -1.87995 -0.36469 0
M  V30 3237 H 322.601 -2.69973 -2.8394 0
M  V30 3238 H 324.298 -3.02895 -2.62784 0
M  V30 3239 H 320.888 -3.99034 -1.56429 0
M  V30 3240 H 325.072 -4.8438 -1.08118 0
M  V30 3241 H 320.328 -6.09877 -0.431344 0
M  V30 3242 H 324.502 -6.96386 0.0445072 0
M  V30 3243 H 322.129 -7.59273 0.375318 0
M  V30 3244 N 323.704 0.605807 -1.45491 0
M  V30 3245 C 324.934 1.38934 -1.52908 0
M  V30 3246 C 325.342 1.88513 -0.161086 0
M  V30 3247 O 324.685 1.62962 0.847891 0
M  V30 3248 C 324.747 2.62737 -2.45376 0
M  V30 3249 C 324.411 2.34785 -3.92078 0
M  V30 3250 C 325.408 1.95038 -4.8193 0
M  V30 3251 C 323.093 2.47642 -4.37011 0
M  V30 3252 C 325.087 1.68511 -6.14722 0
M  V30 3253 C 322.774 2.20728 -5.69844 0
M  V30 3254 C 323.772 1.81225 -6.58519 0
M  V30 3255 O 323.46 1.54627 -7.88889 0
M  V30 3256 H 323.192 0.431629 -0.520262 0
M  V30 3257 H 325.746 0.74573 -1.91384 0
M  V30 3258 H 323.976 3.29824 -2.01874 0
M  V30 3259 H 325.665 3.24783 -2.43456 0
M  V30 3260 H 326.431 1.84639 -4.48479 0
M  V30 3261 H 322.31 2.77356 -3.68232 0
M  V30 3262 H 325.854 1.37602 -6.83894 0
M  V30 3263 H 321.751 2.30744 -6.02849 0
M  V30 3264 H 322.519 1.68665 -8.00933 0
M  V30 3265 N 325.182 1.32811 0.848464 0
M  V30 3266 C 326.145 1.22194 1.9391 0
M  V30 3267 C 327.145 0.143404 1.60159 0
M  V30 3268 O 328.335 0.394253 1.6968 0
M  V30 3269 C 325.467 0.88067 3.29328 0
M  V30 3270 H 326.66 2.19127 2.04752 0
M  V30 3271 H 324.213 1.16731 1.0394 0
M  V30 3272 H 324.948 -0.0865776 3.24184 0
M  V30 3273 H 324.733 1.66052 3.55203 0
M  V30 3274 H 326.223 0.830871 4.09251 0
M  V30 3275 N 326.66 -1.06551 1.16123 0
M  V30 3276 C 327.885 -1.83544 0.965735 0
M  V30 3277 C 328.31 -1.81843 -0.481102 0
M  V30 3278 O 327.668 -1.21732 -1.34354 0
M  V30 3279 C 327.716 -3.28169 1.49457 0
M  V30 3280 O 326.82 -4.0643 0.699157 0
M  V30 3281 H 326.161 -0.568026 0.343864 0
M  V30 3282 H 328.691 -1.34362 1.54299 0
M  V30 3283 H 328.701 -3.78992 1.51092 0
M  V30 3284 H 327.376 -3.28722 2.54784 0
M  V30 3285 H 325.953 -3.65216 0.7531 0
M  V30 3286 N 328.138 -0.959301 -1.25041 0
M  V30 3287 C 329.384 -0.617525 -1.9317 0
M  V30 3288 C 329.717 0.843981 -1.74902 0
M  V30 3289 O 328.992 1.60615 -1.09696 0
M  V30 3290 C 329.275 -0.982736 -3.46431 0
M  V30 3291 C 329.128 -2.50032 -3.73904 0
M  V30 3292 C 330.447 -0.511176 -4.37121 0
M  V30 3293 H 327.566 -0.22582 -0.701552 0
M  V30 3294 H 330.208 -1.19679 -1.4757 0
M  V30 3295 H 328.358 -0.489806 -3.854 0
M  V30 3296 H 330.03 -3.06737 -3.44544 0
M  V30 3297 H 328.273 -2.93598 -3.19348 0
M  V30 3298 H 328.944 -2.70635 -4.81103 0
M  V30 3299 H 331.42 -0.934075 -4.0548 0
M  V30 3300 H 330.296 -0.795361 -5.43107 0
M  V30 3301 H 330.557 0.588834 -4.38161 0
M  V30 3302 N 329.616 1.39756 -0.72842 0
M  V30 3303 C 331.032 1.5442 -0.403308 0
M  V30 3304 C 331.232 1.69694 1.08656 0
M  V30 3305 O 330.288 1.69373 1.87267 0
M  V30 3306 C 331.601 2.76555 -1.18058 0
M  V30 3307 C 333.149 2.90384 -1.16815 0
M  V30 3308 C 333.624 4.15449 -1.92785 0
M  V30 3309 N 335.115 4.22475 -1.89918 0
M  V30 3310 C 335.85 5.1818 -2.45514 0
M  V30 3311 N 335.346 6.19714 -3.09719 0
M  V30 3312 N 337.139 5.1035 -2.35584 0
M  V30 3313 H 329.29 1.28089 -1.69431 0
M  V30 3314 H 331.553 0.620327 -0.716867 0
M  V30 3315 H 331.259 2.7159 -2.23455 0
M  V30 3316 H 331.133 3.69033 -0.780662 0
M  V30 3317 H 333.52 2.94846 -0.12234 0
M  V30 3318 H 333.601 1.98988 -1.6074 0
M  V30 3319 H 333.245 4.11749 -2.97364 0
M  V30 3320 H 333.175 5.05877 -1.46272 0
M  V30 3321 H 335.666 3.49743 -1.43138 0
M  V30 3322 H 335.979 6.8919 -3.49625 0
M  V30 3323 H 334.324 6.20121 -3.13807 0
M  V30 3324 H 337.515 4.2996 -1.85072 0
M  V30 3325 H 337.688 5.84761 -2.79211 0
M  V30 3326 N 331.094 0.475555 1.50254 0
M  V30 3327 C 332.024 -0.30611 2.31485 0
M  V30 3328 C 333.005 -0.986228 1.38591 0
M  V30 3329 O 334.19 -0.982541 1.67511 0
M  V30 3330 C 331.32 -1.38588 3.1845 0
M  V30 3331 C 330.274 -0.827115 4.19932 0
M  V30 3332 C 329.6 -2.00551 4.95665 0
M  V30 3333 C 330.9 0.16463 5.2204 0
M  V30 3334 H 332.594 0.371866 2.97082 0
M  V30 3335 H 330.14 0.180282 1.42867 0
M  V30 3336 H 332.093 -1.94023 3.74076 0
M  V30 3337 H 330.817 -2.09269 2.50747 0
M  V30 3338 H 329.476 -0.294702 3.65414 0
M  V30 3339 H 329.124 -2.6994 4.2443 0
M  V30 3340 H 328.824 -1.63784 5.64313 0
M  V30 3341 H 330.348 -2.56468 5.54127 0
M  V30 3342 H 331.762 -0.300699 5.72511 0
M  V30 3343 H 330.159 0.446813 5.98434 0
M  V30 3344 H 331.229 1.08905 4.72512 0
M  V30 3345 N 332.573 -1.56217 0.208337 0
M  V30 3346 C 333.85 -1.89739 -0.475234 0
M  V30 3347 C 334.23 -1.1238 -1.78701 0
M  V30 3348 O 333.578 -0.228979 -2.2735 0
M  V30 3349 C 333.788 -3.42289 -0.681101 0
M  V30 3350 C 335.136 -4.12789 -0.994507 0
M  V30 3351 O 336.16 -3.47814 -0.768357 0
M  V30 3352 O 335.019 -5.27649 -1.42299 0
M  V30 3353 H 332.113 -0.788478 -0.249461 0
M  V30 3354 H 334.659 -1.67855 0.249538 0
M  V30 3355 H 333.431 -3.90534 0.244722 0
M  V30 3356 H 333.054 -3.69909 -1.45785 0
M  V30 3357 N 334.051 0.0651679 -1.57465 0
M  V30 3358 C 335.297 0.764193 -1.87851 0
M  V30 3359 C 335.63 1.76889 -0.801495 0
M  V30 3360 O 334.905 1.93594 0.187528 0
M  V30 3361 C 335.188 1.46625 -3.28897 0
M  V30 3362 C 335.041 0.477515 -4.47258 0
M  V30 3363 C 336.36 2.4095 -3.68281 0
M  V30 3364 H 333.479 0.276351 -0.683227 0
M  V30 3365 H 336.121 0.0272868 -1.8998 0
M  V30 3366 H 334.271 2.09438 -3.27212 0
M  V30 3367 H 335.943 -0.145922 -4.61069 0
M  V30 3368 H 334.186 -0.206576 -4.33308 0
M  V30 3369 H 334.857 1.0065 -5.42746 0
M  V30 3370 H 337.333 1.88209 -3.71102 0
M  V30 3371 H 336.209 2.87072 -4.67847 0
M  V30 3372 H 336.47 3.26049 -2.98571 0
M  V30 3373 N 335.529 1.53961 0.336706 0
M  V30 3374 C 336.945 1.44378 0.680241 0
M  V30 3375 C 337.145 0.606034 1.9217 0
M  V30 3376 O 336.201 0.099688 2.52303 0
M  V30 3377 C 337.514 2.87945 0.8665 0
M  V30 3378 C 339.062 2.97763 0.964682 0
M  V30 3379 C 339.537 4.42453 1.18321 0
M  V30 3380 N 341.028 4.46008 1.25025 0
M  V30 3381 C 341.763 5.55102 1.43697 0
M  V30 3382 N 341.259 6.7419 1.59498 0
M  V30 3383 N 343.052 5.42727 1.463 0
M  V30 3384 H 335.203 2.06918 -0.479455 0
M  V30 3385 H 337.466 0.935634 -0.152619 0
M  V30 3386 H 337.172 3.51691 0.0256937 0
M  V30 3387 H 337.046 3.33293 1.76623 0
M  V30 3388 H 339.433 2.34153 1.796 0
M  V30 3389 H 339.514 2.55766 0.041708 0
M  V30 3390 H 339.158 5.06645 0.356788 0
M  V30 3391 H 339.088 4.82048 2.11985 0
M  V30 3392 H 341.579 3.60196 1.14312 0
M  V30 3393 H 341.892 7.53095 1.734 0
M  V30 3394 H 340.237 6.77123 1.56621 0
M  V30 3395 H 343.428 4.48647 1.33543 0
M  V30 3396 H 343.601 6.27806 1.6051 0
M  V30 3397 N 337.007 -0.598083 1.45811 0
M  V30 3398 C 338.423 -0.919847 1.30426 0
M  V30 3399 C 338.623 -1.99759 0.264303 0
M  V30 3400 O 337.679 -2.50221 -0.338472 0
M  V30 3401 C 338.992 -1.35176 2.68603 0
M  V30 3402 C 340.54 -1.46546 2.76574 0
M  V30 3403 C 341.015 -1.9311 4.15298 0
M  V30 3404 N 342.506 -2.00328 4.1764 0
M  V30 3405 C 343.241 -2.37599 5.21856 0
M  V30 3406 N 342.737 -2.73771 6.36413 0
M  V30 3407 N 344.53 -2.38021 5.09218 0
M  V30 3408 H 336.681 0.114111 2.12093 0
M  V30 3409 H 338.944 -0.0116121 0.947929 0
M  V30 3410 H 338.65 -0.633969 3.45939 0
M  V30 3411 H 338.524 -2.3164 2.97696 0
M  V30 3412 H 340.911 -2.17415 1.99537 0
M  V30 3413 H 340.992 -0.483727 2.51185 0
M  V30 3414 H 340.636 -1.22824 4.92825 0
M  V30 3415 H 340.566 -2.92213 4.38086 0
M  V30 3416 H 343.057 -1.74925 3.34977 0
M  V30 3417 H 343.37 -3.0112 7.11721 0
M  V30 3418 H 341.715 -2.71445 6.39799 0
M  V30 3419 H 344.906 -2.09174 4.18765 0
M  V30 3420 H 345.079 -2.66741 5.90554 0
M  V30 3421 N 338.485 -1.33259 -0.841409 0
M  V30 3422 C 339.734 -1.23921 -1.59143 0
M  V30 3423 C 340.047 0.1941 -1.94635 0
M  V30 3424 O 341.253 0.409474 -2.68394 0
M  V30 3425 C 339.709 -2.17119 -2.87032 0
M  V30 3426 C 339.317 -3.65606 -2.58914 0
M  V30 3427 C 341.061 -2.16648 -3.65053 0
M  V30 3428 C 338.968 -4.50726 -3.82884 0
M  V30 3429 H 337.898 -0.460264 -0.597221 0
M  V30 3430 H 340.549 -1.58307 -0.927959 0
M  V30 3431 H 338.931 -1.75663 -3.54906 0
M  V30 3432 H 340.105 -4.15487 -1.99267 0
M  V30 3433 H 338.42 -3.68341 -1.942 0
M  V30 3434 H 341.017 -2.77474 -4.57069 0
M  V30 3435 H 341.36 -1.16088 -3.99787 0
M  V30 3436 H 341.893 -2.56453 -3.041 0
M  V30 3437 H 338.632 -5.52151 -3.53283 0
M  V30 3438 H 338.152 -4.0559 -4.41879 0
M  V30 3439 H 339.831 -4.64401 -4.50489 0
M  V30 3440 N 339.963 1.05934 -1.16686 0
M  V30 3441 C 340.873 2.17014 -0.891183 0
M  V30 3442 C 341.889 1.73453 0.137907 0
M  V30 3443 O 343.065 2.01361 -0.039592 0
M  V30 3444 C 340.13 3.44384 -0.400099 0
M  V30 3445 C 339.191 4.02433 -1.49486 0
M  V30 3446 C 338.424 5.23723 -1.02711 0
M  V30 3447 O 338.647 5.7027 0.121716 0
M  V30 3448 O 337.581 5.7382 -1.81699 0
M  V30 3449 H 341.407 2.43113 -1.82015 0
M  V30 3450 H 338.992 1.15541 -0.947132 0
M  V30 3451 H 340.874 4.21189 -0.133392 0
M  V30 3452 H 339.549 3.19802 0.500817 0
M  V30 3453 H 338.456 3.27102 -1.81535 0
M  V30 3454 H 339.789 4.31317 -2.37121 0
M  V30 3455 N 341.441 0.965919 1.2453 0
M  V30 3456 C 342.669 0.644385 1.96609 0
M  V30 3457 C 343.084 -0.785823 1.71669 0
M  V30 3458 O 342.441 -1.52703 0.999399 0
M  V30 3459 C 342.492 0.907375 3.49927 0
M  V30 3460 O 342.213 2.28136 3.74013 0
M  V30 3461 C 343.714 0.599784 4.39224 0
M  V30 3462 H 340.934 0.240588 0.626385 0
M  V30 3463 H 343.478 1.29337 1.58405 0
M  V30 3464 H 341.633 0.304631 3.862 0
M  V30 3465 H 342.047 2.36002 4.68405 0
M  V30 3466 H 343.521 0.834263 5.45659 0
M  V30 3467 H 343.998 -0.465921 4.36722 0
M  V30 3468 H 344.604 1.18235 4.08535 0
M  V30 3469 N 342.919 -1.39368 0.735821 0
M  V30 3470 C 343.849 -2.33234 0.111506 0
M  V30 3471 C 344.83 -1.53954 -0.723334 0
M  V30 3472 O 346.015 -1.82344 -0.668147 0
M  V30 3473 C 343.145 -3.38057 -0.795917 0
M  V30 3474 C 342.099 -4.2795 -0.065172 0
M  V30 3475 C 341.425 -5.23479 -1.08967 0
M  V30 3476 C 342.725 -5.10741 1.09273 0
M  V30 3477 H 344.419 -2.85692 0.895571 0
M  V30 3478 H 341.965 -1.37364 0.432109 0
M  V30 3479 H 343.918 -4.02675 -1.24221 0
M  V30 3480 H 342.642 -2.8404 -1.61211 0
M  V30 3481 H 341.301 -3.64813 0.361511 0
M  V30 3482 H 340.949 -4.65758 -1.89944 0
M  V30 3483 H 340.649 -5.84472 -0.605489 0
M  V30 3484 H 342.173 -5.90974 -1.53565 0
M  V30 3485 H 343.587 -5.68699 0.724841 0
M  V30 3486 H 341.984 -5.8088 1.50659 0
M  V30 3487 H 343.054 -4.45525 1.91404 0
M  V30 3488 N 344.397 -0.483516 -1.5 0
M  V30 3489 C 345.344 0.304164 -2.28787 0
M  V30 3490 C 346.314 0.976114 -1.34392 0
M  V30 3491 O 347.499 0.986156 -1.63339 0
M  V30 3492 C 344.639 1.37298 -3.16612 0
M  V30 3493 C 343.752 0.714561 -4.26049 0
M  V30 3494 C 342.887 1.76232 -5.01114 0
M  V30 3495 C 341.926 1.08483 -6.0241 0
M  V30 3496 N 341.063 2.076 -6.70706 0
M  V30 3497 H 345.903 -0.373981 -2.95644 0
M  V30 3498 H 343.44 -0.196275 -1.45785 0
M  V30 3499 H 345.398 2.00445 -3.65893 0
M  V30 3500 H 344.028 2.02012 -2.51776 0
M  V30 3501 H 343.08 -0.0297798 -3.80388 0
M  V30 3502 H 344.392 0.180383 -4.98474 0
M  V30 3503 H 343.546 2.46929 -5.54176 0
M  V30 3504 H 342.285 2.33033 -4.28424 0
M  V30 3505 H 341.29 0.363545 -5.48597 0
M  V30 3506 H 342.515 0.523551 -6.77079 0
M  V30 3507 H 340.461 2.63394 -6.00799 0
M  V30 3508 H 340.378 1.59201 -7.39047 0
M  V30 3509 H 341.646 2.77639 -7.2838 0
M  V30 3510 N 345.875 1.56104 -0.216619 0
M  V30 3511 C 347.152 1.89988 0.465165 0
M  V30 3512 C 347.532 1.13326 1.78102 0
M  V30 3513 O 346.88 0.241033 2.27225 0
M  V30 3514 C 347.09 3.42646 0.662939 0
M  V30 3515 C 348.438 4.13311 0.972602 0
M  V30 3516 O 349.462 3.48217 0.749901 0
M  V30 3517 O 348.321 5.28396 1.39499 0
M  V30 3518 H 345.415 0.78979 0.245276 0
M  V30 3519 H 347.961 1.67721 -0.258436 0
M  V30 3520 H 346.733 3.90399 -0.26543 0
M  V30 3521 H 346.356 3.70677 1.43821 0
M  V30 3522 N 347.353 -0.0568162 1.57498 0
M  V30 3523 C 348.601 -0.751617 1.87604 0
M  V30 3524 C 348.922 -1.77351 0.81066 0
M  V30 3525 O 348.192 -1.95254 -0.159018 0
M  V30 3526 H 346.772 -0.280583 0.692302 0
M  V30 3527 H 349.434 -0.0293483 1.94878 0
M  V30 3528 H 348.53 -1.25852 2.856 0
M  V30 3529 N 348.832 -1.54138 -0.328536 0
M  V30 3530 C 350.06 -1.76062 -1.08673 0
M  V30 3531 C 350.475 -0.506852 -1.81869 0
M  V30 3532 O 349.832 0.522223 -1.74869 0
M  V30 3533 C 349.883 -2.95054 -2.08866 0
M  V30 3534 O 349.604 -4.15583 -1.38644 0
M  V30 3535 C 351.105 -3.2915 -2.96943 0
M  V30 3536 H 348.325 -0.587889 -0.323461 0
M  V30 3537 H 350.869 -2.0101 -0.376175 0
M  V30 3538 H 349.024 -2.72394 -2.75464 0
M  V30 3539 H 349.438 -4.82481 -2.05699 0
M  V30 3540 H 350.912 -4.15723 -3.63151 0
M  V30 3541 H 351.389 -2.461 -3.63774 0
M  V30 3542 H 351.995 -3.53871 -2.35914 0
M  V30 3543 N 350.31 0.590341 -1.46126 0
M  V30 3544 C 351.587 1.35029 -1.41515 0
M  V30 3545 C 351.967 2.10888 -0.0946472 0
M  V30 3546 O 351.315 2.08998 0.923693 0
M  V30 3547 C 351.525 2.28269 -2.63997 0
M  V30 3548 C 352.873 2.90338 -3.09821 0
M  V30 3549 O 353.897 2.38585 -2.64492 0
M  V30 3550 O 352.756 3.84321 -3.88535 0
M  V30 3551 H 349.85 0.606317 -0.562413 0
M  V30 3552 H 352.396 0.611994 -1.58281 0
M  V30 3553 H 351.168 1.71591 -3.51671 0
M  V30 3554 H 350.791 3.0945 -2.49652 0
M  V30 3555 N 351.788 1.33704 0.83433 0
M  V30 3556 C 352.751 1.24244 1.92603 0
M  V30 3557 C 353.751 0.160383 1.59998 0
M  V30 3558 O 354.941 0.412228 1.69252 0
M  V30 3559 C 352.073 0.91555 3.28376 0
M  V30 3560 H 353.266 2.21287 2.02416 0
M  V30 3561 H 350.819 1.17827 1.02696 0
M  V30 3562 H 351.554 -0.0521886 3.24258 0
M  V30 3563 H 351.339 1.69811 3.53422 0
M  V30 3564 H 352.829 0.874231 4.08347 0
M  V30 3565 N 353.266 -1.05314 1.17247 0
M  V30 3566 C 354.512 -1.78557 0.961513 0
M  V30 3567 C 354.845 -1.87419 -0.508697 0
M  V30 3568 O 354.12 -1.37307 -1.37757 0
M  V30 3569 C 354.403 -3.22514 1.60176 0
M  V30 3570 C 354.256 -3.21673 3.14399 0
M  V30 3571 C 355.575 -4.20318 1.30463 0
M  V30 3572 H 352.694 -0.6482 0.350723 0
M  V30 3573 H 355.336 -1.23102 1.44727 0
M  V30 3574 H 353.486 -3.69867 1.18871 0
M  V30 3575 H 355.158 -2.82405 3.64753 0
M  V30 3576 H 353.401 -2.60048 3.47214 0
M  V30 3577 H 354.072 -4.23271 3.54324 0
M  V30 3578 H 356.548 -3.81454 1.66229 0
M  V30 3579 H 355.424 -5.19289 1.77848 0
M  V30 3580 H 355.685 -4.41526 0.22521 0
M  V30 3581 N 354.744 -0.972509 -1.24016 0
M  V30 3582 C 355.992 -0.635776 -1.91839 0
M  V30 3583 C 356.313 0.832312 -1.76345 0
M  V30 3584 O 355.583 1.5946 -1.13795 0
M  V30 3585 H 354.163 -0.232157 -0.710009 0
M  V30 3586 H 356.825 -1.23462 -1.50809 0
M  V30 3587 H 355.921 -0.880545 -2.99421 0
M  V30 3588 N 356.222 1.38976 -0.743202 0
M  V30 3589 C 357.17 2.32394 -0.0978389 0
M  V30 3590 C 358.164 1.53486 0.716824 0
M  V30 3591 O 359.37 1.69092 0.617088 0
M  V30 3592 H 355.745 0.75189 -0.0128402 0
M  V30 3593 H 357.716 2.84441 -0.901981 0
M  V30 3594 C 356.465 3.38629 0.789036 0
M  V30 3595 H 355.788 3.99432 0.171559 0
M  V30 3596 H 357.228 4.06426 1.20807 0
M  V30 3597 C 355.687 2.76347 1.92702 0
M  V30 3598 O 356.217 2.64836 3.02034 0
M  V30 3599 N 354.423 2.34311 1.71891 0
M  V30 3600 H 353.97 2.43873 0.829675 0
M  V30 3601 H 353.928 1.9298 2.48205 0
M  V30 3602 N 357.7 0.491464 1.49741 0
M  V30 3603 C 359.116 0.146835 1.58923 0
M  V30 3604 C 359.316 -1.34804 1.49767 0
M  V30 3605 O 358.372 -2.12317 1.36667 0
M  V30 3606 C 359.685 0.715157 2.92072 0
M  V30 3607 C 361.233 0.680407 3.05515 0
M  V30 3608 C 361.708 1.22663 4.41269 0
M  V30 3609 N 363.199 1.18691 4.47735 0
M  V30 3610 C 363.934 1.57984 5.51207 0
M  V30 3611 N 363.43 2.04824 6.6183 0
M  V30 3612 N 365.223 1.49459 5.41866 0
M  V30 3613 H 357.374 1.46347 1.53936 0
M  V30 3614 H 359.637 0.606453 0.728642 0
M  V30 3615 H 359.343 1.76317 3.04311 0
M  V30 3616 H 359.217 0.17018 3.76816 0
M  V30 3617 H 361.604 -0.358743 2.92911 0
M  V30 3618 H 361.685 1.26242 2.22478 0
M  V30 3619 H 361.329 2.26451 4.54623 0
M  V30 3620 H 361.259 0.620637 5.2293 0
M  V30 3621 H 363.75 0.843605 3.68364 0
M  V30 3622 H 364.063 2.32901 7.3687 0
M  V30 3623 H 362.408 2.08791 6.62896 0
M  V30 3624 H 365.599 1.12692 4.54333 0
M  V30 3625 H 365.772 1.80406 6.22381 0
M  V30 3626 N 359.178 -1.55987 0.224894 0
M  V30 3627 C 360.406 -2.02784 -0.410665 0
M  V30 3628 C 360.821 -1.10464 -1.53112 0
M  V30 3629 O 360.178 -0.114871 -1.82138 0
M  V30 3630 C 360.229 -3.49087 -0.939165 0
M  V30 3631 O 359.95 -4.37887 0.136614 0
M  V30 3632 C 361.451 -4.11543 -1.64763 0
M  V30 3633 H 358.671 -0.663484 -0.100148 0
M  V30 3634 H 361.215 -2.01614 0.342326 0
M  V30 3635 H 359.37 -3.50861 -1.64242 0
M  V30 3636 H 359.784 -5.23849 -0.261155 0
M  V30 3637 H 361.258 -5.15673 -1.96939 0
M  V30 3638 H 361.735 -3.56736 -2.56195 0
M  V30 3639 H 362.341 -4.13629 -0.989503 0
M  V30 3640 N 360.656 0.0484629 -1.57525 0
M  V30 3641 C 362.072 0.40375 -1.54409 0
M  V30 3642 C 362.272 1.77786 -0.948384 0
M  V30 3643 O 361.328 2.46189 -0.560983 0
M  V30 3644 C 362.641 0.323394 -2.98956 0
M  V30 3645 C 364.189 0.401892 -3.10409 0
M  V30 3646 C 364.664 0.351195 -4.56652 0
M  V30 3647 N 366.155 0.410576 -4.61377 0
M  V30 3648 C 366.89 0.393933 -5.72045 0
M  V30 3649 N 366.386 0.330724 -6.9201 0
M  V30 3650 N 368.179 0.442227 -5.60358 0
M  V30 3651 H 360.33 -0.851016 -1.94606 0
M  V30 3652 H 362.593 -0.321721 -0.89174 0
M  V30 3653 H 362.299 -0.62011 -3.4619 0
M  V30 3654 H 362.173 1.12463 -3.60044 0
M  V30 3655 H 364.56 1.33582 -2.63134 0
M  V30 3656 H 364.641 -0.428342 -2.52188 0
M  V30 3657 H 364.285 -0.578987 -5.04589 0
M  V30 3658 H 364.215 1.19928 -5.12762 0
M  V30 3659 H 366.706 0.462729 -3.75056 0
M  V30 3660 H 367.019 0.322592 -7.72126 0
M  V30 3661 H 365.364 0.29706 -6.94365 0
M  V30 3662 H 368.555 0.489464 -4.65534 0
M  V30 3663 H 368.728 0.425788 -6.466 0
M  V30 3664 N 362.134 1.5431 0.320358 0
M  V30 3665 C 363.38 1.72924 1.05949 0
M  V30 3666 C 363.713 0.503185 1.87568 0
M  V30 3667 O 362.988 -0.499839 1.87968 0
M  V30 3668 C 363.271 3.00676 1.98156 0
M  V30 3669 C 363.124 4.3354 1.19845 0
M  V30 3670 C 364.443 3.24198 2.9763 0
M  V30 3671 H 361.562 0.629195 0.383774 0
M  V30 3672 H 364.204 1.87008 0.335854 0
M  V30 3673 H 362.354 2.888 2.59859 0
M  V30 3674 H 364.026 4.57305 0.605773 0
M  V30 3675 H 362.269 4.309 0.500784 0
M  V30 3676 H 362.94 5.19156 1.87567 0
M  V30 3677 H 365.416 3.35557 2.4605 0
M  V30 3678 H 364.292 4.14938 3.59329 0
M  V30 3679 H 364.553 2.41577 3.7026 0
M  V30 3680 N 363.613 -0.582584 1.46437 0
M  V30 3681 C 364.56 -1.69164 1.5701 0
M  V30 3682 C 365.53 -1.60847 0.414403 0
M  V30 3683 O 366.715 -1.80058 0.631171 0
M  V30 3684 C 363.855 -3.075 1.56646 0
M  V30 3685 C 362.968 -3.2644 2.82951 0
M  V30 3686 C 362.103 -4.55026 2.7409 0
M  V30 3687 C 361.142 -4.6731 3.95333 0
M  V30 3688 N 360.279 -5.87221 3.84858 0
M  V30 3689 H 365.119 -1.59464 2.51744 0
M  V30 3690 H 362.656 -0.777186 1.24893 0
M  V30 3691 H 364.614 -3.8757 1.5442 0
M  V30 3692 H 363.244 -3.16096 0.654439 0
M  V30 3693 H 362.296 -2.39974 2.95155 0
M  V30 3694 H 363.608 -3.31385 3.72808 0
M  V30 3695 H 362.762 -5.43324 2.6997 0
M  V30 3696 H 361.501 -4.52519 1.81873 0
M  V30 3697 H 360.506 -3.77429 3.99784 0
M  V30 3698 H 361.731 -4.71595 4.88646 0
M  V30 3699 H 359.677 -5.85712 2.95427 0
M  V30 3700 H 359.594 -5.93435 4.6837 0
M  V30 3701 H 360.862 -6.7795 3.84713 0
M  V30 3702 N 365.091 -1.34144 -0.827227 0
M  V30 3703 C 366.337 -1.26446 -1.58554 0
M  V30 3704 C 366.67 0.1664 -1.93486 0
M  V30 3705 O 365.945 1.1107 -1.59667 0
M  V30 3706 C 366.228 -2.15111 -2.8879 0
M  V30 3707 C 366.081 -3.66712 -2.60465 0
M  V30 3708 C 367.4 -2.03311 -3.90324 0
M  V30 3709 H 364.519 -0.46067 -0.575284 0
M  V30 3710 H 367.161 -1.64356 -0.953269 0
M  V30 3711 H 365.311 -1.8291 -3.42748 0
M  V30 3712 H 366.983 -4.09259 -2.1285 0
M  V30 3713 H 365.226 -3.88014 -1.93978 0
M  V30 3714 H 365.897 -4.24112 -3.53317 0
M  V30 3715 H 368.373 -2.31574 -3.45706 0
M  V30 3716 H 367.249 -2.67582 -4.79261 0
M  V30 3717 H 367.51 -1.00879 -4.30437 0
M  V30 3718 N 366.569 1.04691 -1.17803 0
M  V30 3719 C 367.815 1.78045 -0.970969 0
M  V30 3720 C 368.148 1.87686 0.498751 0
M  V30 3721 O 367.423 1.38035 1.37027 0
M  V30 3722 C 367.706 3.2166 -1.61884 0
M  V30 3723 C 367.559 3.20001 -3.161 0
M  V30 3724 C 368.878 4.1962 -1.3269 0
M  V30 3725 H 365.997 0.64633 -0.354155 0
M  V30 3726 H 368.639 1.22333 -1.45378 0
M  V30 3727 H 366.789 3.69232 -1.20831 0
M  V30 3728 H 368.461 2.80467 -3.66246 0
M  V30 3729 H 366.704 2.58203 -3.48588 0
M  V30 3730 H 367.375 4.21386 -3.56564 0
M  V30 3731 H 369.851 3.80567 -1.68249 0
M  V30 3732 H 368.727 5.18339 -1.80599 0
M  V30 3733 H 368.988 4.414 -0.248622 0
M  V30 3734 N 368.047 0.979072 1.23499 0
M  V30 3735 C 368.994 0.517904 2.24914 0
M  V30 3736 C 369.964 -0.442525 1.60097 0
M  V30 3737 O 371.149 -0.350365 1.87556 0
M  V30 3738 C 368.289 -0.174813 3.44657 0
M  V30 3739 C 367.402 0.825721 4.24035 0
M  V30 3740 C 366.537 0.107946 5.3109 0
M  V30 3741 C 365.576 1.09778 6.02175 0
M  V30 3742 N 364.713 0.40925 7.00906 0
M  V30 3743 H 369.553 1.38751 2.63727 0
M  V30 3744 H 367.09 0.695303 1.2963 0
M  V30 3745 H 369.048 -0.593233 4.12961 0
M  V30 3746 H 367.678 -1.0083 3.06648 0
M  V30 3747 H 366.73 1.36253 3.55161 0
M  V30 3748 H 368.042 1.58005 4.73113 0
M  V30 3749 H 367.196 -0.367904 6.05583 0
M  V30 3750 H 365.935 -0.678994 4.8295 0
M  V30 3751 H 364.94 1.5844 5.26476 0
M  V30 3752 H 366.165 1.88536 6.52404 0
M  V30 3753 H 364.111 -0.358506 6.5502 0
M  V30 3754 H 364.028 1.10226 7.47921 0
M  V30 3755 H 365.296 -0.0442557 7.79487 0
M  V30 3756 N 369.525 -1.3858 0.750561 0
M  V30 3757 C 370.473 -2.32339 0.110162 0
M  V30 3758 C 371.467 -1.53864 -0.708674 0
M  V30 3759 O 372.673 -1.69417 -0.608112 0
M  V30 3760 H 369.048 -0.751812 0.0168275 0
M  V30 3761 H 371.019 -2.83959 0.917053 0
M  V30 3762 C 369.768 -3.39043 -0.771067 0
M  V30 3763 H 369.091 -3.99517 -0.150374 0
M  V30 3764 H 370.531 -4.07061 -1.1865 0
M  V30 3765 C 368.99 -2.77365 -1.91234 0
M  V30 3766 O 369.52 -2.66434 -3.00626 0
M  V30 3767 N 367.726 -2.35219 -1.70646 0
M  V30 3768 H 367.273 -2.4431 -0.81673 0
M  V30 3769 H 367.231 -1.94294 -2.47178 0
M  V30 3770 N 371.003 -0.499398 -1.49478 0
M  V30 3771 C 371.95 0.279881 -2.29097 0
M  V30 3772 C 372.92 0.961805 -1.3542 0
M  V30 3773 O 374.105 0.968777 -1.64376 0
M  V30 3774 C 371.245 1.33932 -3.18051 0
M  V30 3775 C 370.358 0.669333 -4.26783 0
M  V30 3776 C 369.493 1.70907 -5.02955 0
M  V30 3777 C 368.532 1.02087 -6.03527 0
M  V30 3778 N 367.669 2.00474 -6.7287 0
M  V30 3779 H 372.509 -0.405317 -2.95231 0
M  V30 3780 H 370.046 -0.211726 -1.45568 0
M  V30 3781 H 372.004 1.96553 -3.67998 0
M  V30 3782 H 370.634 1.9933 -2.53904 0
M  V30 3783 H 369.686 -0.0701234 -3.80335 0
M  V30 3784 H 370.998 0.127503 -4.98637 0
M  V30 3785 H 370.152 2.41037 -5.56764 0
M  V30 3786 H 368.891 2.28476 -4.30871 0
M  V30 3787 H 367.896 0.305338 -5.48951 0
M  V30 3788 H 369.121 0.451708 -6.77596 0
M  V30 3789 H 367.067 2.57007 -6.03559 0
M  V30 3790 H 366.984 1.51353 -7.40694 0
M  V30 3791 H 368.252 2.69897 -7.31284 0
M  V30 3792 N 372.481 1.55866 -0.233164 0
M  V30 3793 C 373.727 1.98897 0.395959 0
M  V30 3794 C 374.06 1.12091 1.58585 0
M  V30 3795 O 373.335 0.181182 1.93654 0
M  V30 3796 C 373.618 3.50658 0.819224 0
M  V30 3797 C 373.471 4.48233 -0.375109 0
M  V30 3798 C 374.79 4.07135 1.67121 0
M  V30 3799 H 371.909 0.723102 0.142451 0
M  V30 3800 H 374.551 1.87082 -0.331725 0
M  V30 3801 H 372.701 3.60857 1.43925 0
M  V30 3802 H 374.373 4.50031 -1.01341 0
M  V30 3803 H 372.616 4.21624 -1.02058 0
M  V30 3804 H 373.287 5.51988 -0.0358328 0
M  V30 3805 H 375.763 3.99952 1.14795 0
M  V30 3806 H 374.639 5.13615 1.93625 0
M  V30 3807 H 374.9 3.54736 2.63846 0
M  V30 3808 N 373.959 -0.0401083 1.57549 0
M  V30 3809 C 375.184 -0.748931 1.93406 0
M  V30 3810 C 375.609 -1.68686 0.832274 0
M  V30 3811 O 374.967 -1.80047 -0.212818 0
M  V30 3812 C 375.015 -1.4916 3.28304 0
M  V30 3813 O 374.119 -2.6042 3.19774 0
M  V30 3814 H 373.46 -0.202212 0.63246 0
M  V30 3815 H 375.99 0.00112086 2.046 0
M  V30 3816 H 376 -1.86395 3.62934 0
M  V30 3817 H 374.675 -0.80364 4.08062 0
M  V30 3818 H 373.252 -2.25808 2.96758 0
M  V30 3819 N 375.437 -1.54477 -0.31217 0
M  V30 3820 C 376.848 -1.64344 -0.885891 0
M  V30 3821 C 377.199 -0.54485 -1.88483 0
M  V30 3822 O 376.324 0.320387 -2.14015 0
M  V30 3823 C 376.919 -2.97908 -1.61357 0
M  V30 3824 C 375.478 -3.09933 -2.13585 0
M  V30 3825 C 374.625 -2.59971 -0.964897 0
M  V30 3826 H 377.576 -1.58448 -0.0894528 0
M  V30 3827 H 377.597 -2.88706 -2.47848 0
M  V30 3828 H 377.109 -3.77845 -0.886277 0
M  V30 3829 H 375.21 -2.34694 -2.89395 0
M  V30 3830 H 375.323 -4.15916 -2.37804 0
M  V30 3831 H 373.687 -2.16147 -1.34731 0
M  V30 3832 H 374.47 -3.42376 -0.251742 0
M  V30 3833 N 376.915 0.57481 -1.46744 0
M  V30 3834 C 378.326 1.15695 -1.46532 0
M  V30 3835 C 378.677 1.95068 -0.210425 0
M  V30 3836 O 377.802 2.05241 0.685944 0
M  V30 3837 C 378.397 2.1048 -2.65487 0
M  V30 3838 C 376.956 2.64002 -2.68291 0
M  V30 3839 C 376.103 1.40026 -2.39349 0
M  V30 3840 H 379.054 0.362325 -1.54509 0
M  V30 3841 H 379.075 2.94074 -2.41455 0
M  V30 3842 H 378.587 1.52683 -3.56805 0
M  V30 3843 H 376.688 3.25646 -1.81067 0
M  V30 3844 H 376.801 3.06197 -3.68483 0
M  V30 3845 H 375.165 1.70106 -1.89568 0
M  V30 3846 H 375.948 0.840485 -3.32852 0
M  V30 3847 N 378.394 1.34581 0.820102 0
M  V30 3848 C 379.641 1.27096 1.57648 0
M  V30 3849 C 379.969 -0.158317 1.93855 0
M  V30 3850 O 379.224 -1.12028 1.60463 0
M  V30 3851 C 379.523 2.10997 2.8847 0
M  V30 3852 C 379.189 3.59966 2.71543 0
M  V30 3853 C 377.851 4.00575 2.66634 0
M  V30 3854 C 380.203 4.54548 2.55021 0
M  V30 3855 C 377.531 5.33953 2.43128 0
M  V30 3856 C 379.883 5.88109 2.33047 0
M  V30 3857 C 378.547 6.27878 2.26552 0
M  V30 3858 H 377.817 0.465078 0.576874 0
M  V30 3859 H 380.464 1.6635 0.948671 0
M  V30 3860 H 378.769 1.6458 3.55557 0
M  V30 3861 H 380.466 2.0255 3.46084 0
M  V30 3862 H 377.056 3.27733 2.76205 0
M  V30 3863 H 381.24 4.24069 2.57835 0
M  V30 3864 H 376.496 5.63781 2.3656 0
M  V30 3865 H 380.67 6.60985 2.19251 0
M  V30 3866 H 378.297 7.31162 2.081 0
M  V30 3867 N 379.872 -1.04064 1.18357 0
M  V30 3868 C 380.819 -2.12077 0.910603 0
M  V30 3869 C 381.789 -1.65421 -0.15 0
M  V30 3870 O 382.974 -1.90797 -0.0103614 0
M  V30 3871 C 380.114 -3.42252 0.442472 0
M  V30 3872 C 379.227 -4.0252 1.5685 0
M  V30 3873 C 378.362 -5.20657 1.05309 0
M  V30 3874 C 377.401 -5.72955 2.1538 0
M  V30 3875 N 376.538 -6.8238 1.65233 0
M  V30 3876 H 381.378 -2.34764 1.83548 0
M  V30 3877 H 378.915 -1.15157 0.915279 0
M  V30 3878 H 380.873 -4.16921 0.152534 0
M  V30 3879 H 379.503 -3.19712 -0.445428 0
M  V30 3880 H 378.555 -3.25178 1.97391 0
M  V30 3881 H 379.867 -4.37362 2.39824 0
M  V30 3882 H 379.021 -6.0244 0.717677 0
M  V30 3883 H 377.76 -4.87318 0.19293 0
M  V30 3884 H 376.765 -4.89793 2.49766 0
M  V30 3885 H 377.99 -6.08337 3.01832 0
M  V30 3886 H 375.936 -6.50917 0.815064 0
M  V30 3887 H 375.853 -7.16286 2.41805 0
M  V30 3888 H 377.121 -7.67788 1.34619 0
M  V30 3889 N 381.35 -0.985608 -1.22978 0
M  V30 3890 C 382.282 -0.488154 -2.23941 0
M  V30 3891 C 383.295 0.41282 -1.57479 0
M  V30 3892 O 384.484 0.216121 -1.77187 0
M  V30 3893 C 381.584 0.312611 -3.37455 0
M  V30 3894 C 380.757 -0.582741 -4.33501 0
M  V30 3895 C 379.816 0.165064 -5.25941 0
M  V30 3896 O 378.842 -0.447077 -5.67442 0
M  V30 3897 N 380.044 1.44953 -5.62111 0
M  V30 3898 H 382.809 -1.3563 -2.67254 0
M  V30 3899 H 380.37 -0.859477 -1.37203 0
M  V30 3900 H 382.362 0.821357 -3.96277 0
M  V30 3901 H 380.932 1.0818 -2.93285 0
M  V30 3902 H 380.152 -1.27225 -3.73105 0
M  V30 3903 H 381.44 -1.19275 -4.94622 0
M  V30 3904 H 380.838 1.9683 -5.30353 0
M  V30 3905 H 379.395 1.90361 -6.23383 0
M  V30 3906 N 382.828 1.3818 -0.7579 0
M  V30 3907 C 383.791 2.28764 -0.141286 0
M  V30 3908 C 384.791 1.47388 0.642907 0
M  V30 3909 O 385.981 1.67781 0.468536 0
M  V30 3910 C 383.113 3.31184 0.808069 0
M  V30 3911 H 384.306 2.848 -0.939633 0
M  V30 3912 H 381.859 1.47212 -0.525191 0
M  V30 3913 H 382.594 2.80247 1.63193 0
M  V30 3914 H 382.379 3.91314 0.248104 0
M  V30 3915 H 383.869 3.98909 1.23536 0
M  V30 3916 N 384.306 0.507319 1.49211 0
M  V30 3917 C 385.216 -0.272136 2.33016 0
M  V30 3918 C 386.232 -0.961206 1.45041 0
M  V30 3919 O 387.408 -0.941191 1.78055 0
M  V30 3920 C 384.473 -1.31895 3.20631 0
M  V30 3921 C 383.534 -0.642648 4.24463 0
M  V30 3922 C 382.767 -1.63959 5.07891 0
M  V30 3923 O 382.99 -2.87007 4.92933 0
M  V30 3924 O 381.924 -1.19143 5.8999 0
M  V30 3925 H 385.75 0.413982 3.00865 0
M  V30 3926 H 383.335 0.268556 1.46966 0
M  V30 3927 H 385.217 -1.92446 3.7489 0
M  V30 3928 H 383.892 -1.98788 2.5547 0
M  V30 3929 H 382.799 0.00276252 3.741 0
M  V30 3930 H 384.132 -0.0160534 4.92197 0
M  V30 3931 N 385.784 -1.5574 0.241426 0
M  V30 3932 C 387.031 -1.9881 -0.384836 0
M  V30 3933 C 387.359 -1.12947 -1.58346 0
M  V30 3934 O 386.614 -0.178993 -1.9488 0
M  V30 3935 C 386.913 -3.47308 -0.843317 0
M  V30 3936 C 386.579 -4.50223 0.246946 0
M  V30 3937 C 385.241 -4.78088 0.546399 0
M  V30 3938 C 387.593 -5.11841 0.983282 0
M  V30 3939 C 384.921 -5.64846 1.58636 0
M  V30 3940 C 387.273 -5.99727 2.01272 0
M  V30 3941 C 385.937 -6.25927 2.31888 0
M  V30 3942 H 385.207 -0.727496 -0.140821 0
M  V30 3943 H 387.854 -1.8831 0.348106 0
M  V30 3944 H 386.159 -3.55112 -1.65537 0
M  V30 3945 H 387.856 -3.78017 -1.33806 0
M  V30 3946 H 384.446 -4.286 0.00340639 0
M  V30 3947 H 388.63 -4.90366 0.765182 0
M  V30 3948 H 383.886 -5.83403 1.82896 0
M  V30 3949 H 388.06 -6.46517 2.58823 0
M  V30 3950 H 385.687 -6.92949 3.12611 0
M  V30 3951 N 387.262 0.0317525 -1.57568 0
M  V30 3952 C 388.539 0.758366 -1.803 0
M  V30 3953 C 388.919 1.93718 -0.838845 0
M  V30 3954 O 388.267 2.28187 0.119571 0
M  V30 3955 C 388.477 1.19392 -3.27943 0
M  V30 3956 C 389.825 1.61094 -3.92854 0
M  V30 3957 O 390.849 1.28857 -3.32076 0
M  V30 3958 O 389.708 2.20918 -4.99858 0
M  V30 3959 H 386.802 0.366514 -0.741348 0
M  V30 3960 H 389.348 0.00873765 -1.69698 0
M  V30 3961 H 388.12 0.352275 -3.89711 0
M  V30 3962 H 387.743 2.00365 -3.43424 0
M  V30 3963 N 388.74 1.54641 0.303973 0
M  V30 3964 C 389.989 1.7299 1.03717 0
M  V30 3965 C 390.302 0.521168 1.88529 0
M  V30 3966 O 391.508 0.586408 2.65092 0
M  V30 3967 C 389.964 3.06051 1.89369 0
M  V30 3968 C 389.572 4.34393 1.09574 0
M  V30 3969 C 391.316 3.3376 2.62306 0
M  V30 3970 C 389.223 5.58506 1.94486 0
M  V30 3971 H 388.153 0.64473 0.390947 0
M  V30 3972 H 390.804 1.81124 0.294328 0
M  V30 3973 H 389.186 2.91874 2.67629 0
M  V30 3974 H 390.36 4.59396 0.359485 0
M  V30 3975 H 388.675 4.13597 0.482324 0
M  V30 3976 H 391.272 4.23687 3.26181 0
M  V30 3977 H 391.615 2.52503 3.3098 0
M  V30 3978 H 392.148 3.48894 1.91097 0
M  V30 3979 H 388.887 6.42422 1.30287 0
M  V30 3980 H 388.407 5.37694 2.65792 0
M  V30 3981 H 390.086 5.95651 2.52605 0
M  V30 3982 N 390.218 -0.567019 1.47046 0
M  V30 3983 C 391.148 -1.68482 1.61667 0
M  V30 3984 C 392.129 -1.6358 0.466418 0
M  V30 3985 O 393.314 -1.81354 0.694574 0
M  V30 3986 C 390.444 -3.07124 1.62148 0
M  V30 3987 C 389.398 -3.26867 2.76301 0
M  V30 3988 C 388.724 -4.66196 2.61849 0
M  V30 3989 C 390.024 -3.13186 4.17986 0
M  V30 3990 H 391.718 -1.56502 2.5524 0
M  V30 3991 H 389.264 -0.751486 1.22836 0
M  V30 3992 H 391.217 -3.8516 1.70968 0
M  V30 3993 H 389.941 -3.2004 0.651287 0
M  V30 3994 H 388.6 -2.51237 2.66975 0
M  V30 3995 H 388.248 -4.75898 1.62879 0
M  V30 3996 H 387.948 -4.80356 3.38425 0
M  V30 3997 H 389.472 -5.46379 2.72584 0
M  V30 3998 H 390.886 -3.81049 4.2834 0
M  V30 3999 H 389.283 -3.3886 4.95272 0
M  V30 4000 H 390.353 -2.10057 4.3704 0
M  V30 4001 N 391.696 -1.35014 -0.812953 0
M  V30 4002 C 392.926 -1.30841 -1.59888 0
M  V30 4003 C 393.334 0.117576 -1.88834 0
M  V30 4004 O 392.677 1.07807 -1.48739 0
M  V30 4005 C 392.739 -2.0412 -2.95931 0
M  V30 4006 C 392.403 -3.53336 -2.89832 0
M  V30 4007 C 393.4 -4.48052 -2.63714 0
M  V30 4008 C 391.085 -3.95894 -3.0915 0
M  V30 4009 C 393.079 -5.833 -2.56982 0
M  V30 4010 C 390.766 -5.31239 -3.0204 0
M  V30 4011 C 391.764 -6.24754 -2.75991 0
M  V30 4012 O 391.452 -7.57617 -2.68833 0
M  V30 4013 H 391.184 -0.451215 -0.50337 0
M  V30 4014 H 393.738 -1.78354 -1.01877 0
M  V30 4015 H 391.968 -1.51235 -3.559 0
M  V30 4016 H 393.657 -1.93107 -3.57022 0
M  V30 4017 H 394.423 -4.16492 -2.48515 0
M  V30 4018 H 390.302 -3.23495 -3.28438 0
M  V30 4019 H 393.846 -6.56263 -2.36569 0
M  V30 4020 H 389.743 -5.62415 -3.16796 0
M  V30 4021 H 390.511 -7.67469 -2.84487 0
M  V30 4022 N 393.175 1.03435 -1.18907 0
M  V30 4023 C 394.423 1.76394 -0.986382 0
M  V30 4024 C 394.744 1.88883 0.484567 0
M  V30 4025 O 394.014 1.41843 1.3512 0
M  V30 4026 H 392.594 0.65344 -0.361975 0
M  V30 4027 H 395.256 1.248 -1.49703 0
M  V30 4028 H 394.352 2.77424 -1.42978 0
M  V30 4029 N 394.653 0.992116 1.22453 0
M  V30 4030 C 395.585 0.500024 2.23679 0
M  V30 4031 C 396.598 -0.404463 1.57696 0
M  V30 4032 O 397.787 -0.206722 1.77299 0
M  V30 4033 C 394.887 -0.294711 3.37616 0
M  V30 4034 C 394.06 0.605723 4.33186 0
M  V30 4035 C 393.119 -0.13717 5.26021 0
M  V30 4036 O 392.145 0.477164 5.67196 0
M  V30 4037 N 393.347 -1.4197 5.62872 0
M  V30 4038 H 396.112 1.37045 2.66531 0
M  V30 4039 H 393.673 0.866741 1.36745 0
M  V30 4040 H 395.665 -0.800329 3.96707 0
M  V30 4041 H 394.235 -1.06623 2.93854 0
M  V30 4042 H 393.455 1.29202 3.72425 0
M  V30 4043 H 394.743 1.21896 4.93983 0
M  V30 4044 H 394.141 -1.94015 5.31389 0
M  V30 4045 H 392.698 -1.87052 6.24383 0
M  V30 4046 N 396.131 -1.37776 0.765217 0
M  V30 4047 C 397.379 -1.99454 0.325943 0
M  V30 4048 C 397.7 -1.61049 -1.09947 0
M  V30 4049 O 396.97 -0.872821 -1.75381 0
M  V30 4050 H 395.55 -0.737697 0.117525 0
M  V30 4051 H 398.212 -1.68359 0.981895 0
M  V30 4052 H 397.308 -3.09547 0.398353 0
M  V30 4053 N 397.609 -0.515225 -1.4894 0
M  V30 4054 C 398.858 0.0261361 -2.01683 0
M  V30 4055 C 399.171 1.36719 -1.39883 0
M  V30 4056 O 400.377 1.99606 -1.84037 0
M  V30 4057 C 398.833 0.0970111 -3.59769 0
M  V30 4058 C 398.441 -1.23825 -4.30548 0
M  V30 4059 C 400.185 0.587981 -4.20408 0
M  V30 4060 C 398.092 -1.12877 -5.80528 0
M  V30 4061 H 397.022 0.0135398 -0.753878 0
M  V30 4062 H 399.673 -0.656787 -1.71343 0
M  V30 4063 H 398.055 0.844694 -3.86886 0
M  V30 4064 H 399.229 -2.00034 -4.15118 0
M  V30 4065 H 397.544 -1.66379 -3.81716 0
M  V30 4066 H 400.141 0.68763 -5.3026 0
M  V30 4067 H 400.484 1.59026 -3.84729 0
M  V30 4068 H 401.017 -0.103582 -3.97665 0
M  V30 4069 H 397.756 -2.10575 -6.20756 0
M  V30 4070 H 397.276 -0.407799 -5.98412 0
M  V30 4071 H 398.955 -0.813332 -6.41868 0
M  V30 4072 N 399.087 1.5561 -0.249682 0
M  V30 4073 C 400.312 2.03865 0.381305 0
M  V30 4074 C 400.737 1.12769 1.50548 0
M  V30 4075 O 400.095 0.121189 1.80895 0
M  V30 4076 C 400.143 3.50101 0.863816 0
M  V30 4077 O 399.247 3.62132 1.97318 0
M  V30 4078 H 398.588 0.658827 0.0827194 0
M  V30 4079 H 401.118 2.01105 -0.376552 0
M  V30 4080 H 401.128 3.90975 1.1663 0
M  V30 4081 H 399.803 4.1588 0.0411816 0
M  V30 4082 H 398.38 3.33155 1.67517 0
M  V30 4083 N 400.565 -0.0233959 1.57583 0
M  V30 4084 C 401.981 -0.379134 1.55031 0
M  V30 4085 C 402.181 -1.76255 0.976548 0
M  V30 4086 O 401.237 -2.45266 0.600078 0
M  V30 4087 C 402.55 -0.275792 2.99433 0
M  V30 4088 C 404.098 -0.352458 3.11009 0
M  V30 4089 C 404.573 -0.278501 4.57152 0
M  V30 4090 N 406.064 -0.337123 4.61972 0
M  V30 4091 C 406.799 -0.302876 5.726 0
M  V30 4092 N 406.295 -0.220589 6.92449 0
M  V30 4093 N 408.088 -0.353023 5.6099 0
M  V30 4094 H 400.239 0.881869 1.93227 0
M  V30 4095 H 402.502 0.335867 0.886509 0
M  V30 4096 H 402.208 0.675108 3.4516 0
M  V30 4097 H 402.082 -1.06721 3.61788 0
M  V30 4098 H 404.469 -1.29379 2.65226 0
M  V30 4099 H 404.55 0.468409 2.51475 0
M  V30 4100 H 404.194 0.659189 5.03604 0
M  V30 4101 H 404.124 -1.11755 5.14605 0
M  V30 4102 H 406.615 -0.403002 3.75745 0
M  V30 4103 H 406.928 -0.199713 7.72542 0
M  V30 4104 H 405.273 -0.186555 6.9475 0
M  V30 4105 H 408.464 -0.415339 4.66254 0
M  V30 4106 H 408.637 -0.322866 6.47195 0
M  V30 4107 N 402.043 -1.548 -0.295768 0
M  V30 4108 C 402.953 -1.89177 -1.38742 0
M  V30 4109 C 403.969 -0.786481 -1.55211 0
M  V30 4110 O 405.145 -1.08344 -1.69775 0
M  V30 4111 C 402.21 -2.13663 -2.73036 0
M  V30 4112 C 401.271 -3.37349 -2.65508 0
M  V30 4113 C 400.504 -3.60658 -3.93398 0
M  V30 4114 O 400.727 -2.86882 -4.93006 0
M  V30 4115 O 399.661 -4.54179 -3.94975 0
M  V30 4116 H 403.487 -2.82059 -1.12589 0
M  V30 4117 H 401.072 -1.41056 -0.492295 0
M  V30 4118 H 402.954 -2.3094 -3.52484 0
M  V30 4119 H 401.629 -1.23967 -2.99022 0
M  V30 4120 H 400.536 -3.25431 -1.84514 0
M  V30 4121 H 401.869 -4.27192 -2.44474 0
M  V30 4122 N 403.521 0.559213 -1.47345 0
M  V30 4123 C 404.769 1.31388 -1.53563 0
M  V30 4124 C 405.09 1.93985 -0.198678 0
M  V30 4125 O 404.36 1.79825 0.777167 0
M  V30 4126 H 402.94 0.487901 -0.565652 0
M  V30 4127 H 405.602 0.65315 -1.8363 0
M  V30 4128 H 404.698 2.10844 -2.30111 0
M  V30 4129 N 404.999 1.35443 0.805782 0
M  V30 4130 C 406.224 1.32037 1.59941 0
M  V30 4131 C 406.649 -0.0994215 1.87837 0
M  V30 4132 O 406.007 -1.06648 1.46615 0
M  V30 4133 C 406.055 2.13354 2.90711 0
M  V30 4134 O 405.159 1.5148 3.83572 0
M  V30 4135 H 404.5 0.452666 0.485787 0
M  V30 4136 H 407.03 1.78496 1.00002 0
M  V30 4137 H 407.04 2.25338 3.40128 0
M  V30 4138 H 405.715 3.16572 2.69732 0
M  V30 4139 H 404.292 1.4834 3.42125 0
M  V30 4140 N 406.477 -1.02803 1.19454 0
M  V30 4141 C 407.407 -2.12999 0.956758 0
M  V30 4142 C 408.388 -1.69743 -0.110188 0
M  V30 4143 O 409.573 -1.94148 0.0450038 0
M  V30 4144 C 406.703 -3.43746 0.495553 0
M  V30 4145 C 405.657 -4.00688 1.50443 0
M  V30 4146 C 404.983 -5.27067 0.900275 0
M  V30 4147 C 406.283 -4.35397 2.8849 0
M  V30 4148 H 407.977 -2.33148 1.87836 0
M  V30 4149 H 405.523 -1.12045 0.904539 0
M  V30 4150 H 407.476 -4.2021 0.316493 0
M  V30 4151 H 406.2 -3.23321 -0.461646 0
M  V30 4152 H 404.859 -3.2632 1.67065 0
M  V30 4153 H 404.507 -5.02959 -0.064503 0
M  V30 4154 H 404.207 -5.66127 1.57397 0
M  V30 4155 H 405.731 -6.06196 0.73203 0
M  V30 4156 H 407.145 -5.02795 2.75446 0
M  V30 4157 H 405.542 -4.85541 3.52661 0
M  V30 4158 H 406.612 -3.44662 3.41081 0
M  V30 4159 N 407.956 -0.998596 -1.21925 0
M  V30 4160 C 409.205 -0.673085 -1.90138 0
M  V30 4161 C 409.518 0.79895 -1.78539 0
M  V30 4162 O 410.724 1.23628 -2.4172 0
M  V30 4163 C 409.18 -1.15339 -3.40918 0
M  V30 4164 C 408.788 -2.65106 -3.61141 0
M  V30 4165 C 410.532 -0.902476 -4.14796 0
M  V30 4166 C 408.439 -3.0671 -5.05651 0
M  V30 4167 H 407.369 -0.248057 -0.712028 0
M  V30 4168 H 410.02 -1.20891 -1.38049 0
M  V30 4169 H 408.402 -0.545658 -3.92223 0
M  V30 4170 H 409.576 -3.31274 -3.20304 0
M  V30 4171 H 407.891 -2.88142 -3.00605 0
M  V30 4172 H 410.488 -1.18895 -5.21314 0
M  V30 4173 H 410.831 0.161349 -4.15987 0
M  V30 4174 H 411.364 -1.47269 -3.69536 0
M  V30 4175 H 408.103 -4.12292 -5.09603 0
M  V30 4176 H 407.623 -2.45249 -5.47369 0
M  V30 4177 H 409.302 -2.9833 -5.74115 0
M  V30 4178 N 409.434 1.37368 -0.772513 0
M  V30 4179 C 410.711 1.93839 -0.26188 0
M  V30 4180 C 411.091 1.7061 1.24319 0
M  V30 4181 O 410.439 1.05534 2.02669 0
M  V30 4182 C 410.649 3.43154 -0.636102 0
M  V30 4183 C 411.997 4.20249 -0.606324 0
M  V30 4184 O 413.021 3.5152 -0.575538 0
M  V30 4185 O 411.88 5.42809 -0.634086 0
M  V30 4186 H 408.974 0.82478 -0.0605555 0
M  V30 4187 H 411.52 1.4665 -0.853917 0
M  V30 4188 H 410.292 3.53647 -1.6748 0
M  V30 4189 H 409.915 3.97596 -0.0170516 0
M  V30 4190 N 410.912 0.523116 1.48665 0
M  V30 4191 C 411.845 -0.290518 2.26343 0
M  V30 4192 C 412.823 -0.950913 1.31895 0
M  V30 4193 O 414.007 -0.976662 1.61225 0
M  V30 4194 C 411.134 -1.41088 3.07915 0
M  V30 4195 C 410.18 -0.862597 4.17686 0
M  V30 4196 S 411.013 0.264135 5.34848 0
M  V30 4197 C 412.169 -0.858864 6.19979 0
M  V30 4198 H 412.402 0.368726 2.95005 0
M  V30 4199 H 409.935 0.30878 1.51281 0
M  V30 4200 H 411.893 -2.0527 3.55492 0
M  V30 4201 H 410.554 -2.04182 2.38681 0
M  V30 4202 H 409.747 -1.70287 4.74361 0
M  V30 4203 H 409.349 -0.297595 3.72814 0
M  V30 4204 H 411.641 -1.7591 6.54264 0
M  V30 4205 H 412.584 -0.330244 7.07329 0
M  V30 4206 H 412.992 -1.13617 5.52948 0
M  V30 4207 N 412.39 -1.55475 0.257931 0
M  V30 4208 C 413.638 -1.98813 -0.363009 0
M  V30 4209 C 413.959 -1.14757 -1.57657 0
M  V30 4210 O 413.229 -0.232956 -1.9451 0
M  V30 4211 H 411.809 -0.734308 -0.137113 0
M  V30 4212 H 414.471 -1.9156 0.359281 0
M  V30 4213 H 413.567 -3.04941 -0.664634 0
M  V30 4214 N 413.868 0.0150385 -1.57593 0
M  V30 4215 C 415.114 0.704043 -1.90187 0
M  V30 4216 C 415.447 1.74249 -0.857366 0
M  V30 4217 O 414.722 1.94092 0.125843 0
M  V30 4218 C 415.005 1.36087 -3.33395 0
M  V30 4219 C 414.858 0.334981 -4.48551 0
M  V30 4220 C 416.177 2.29112 -3.7576 0
M  V30 4221 H 413.296 0.254475 -0.691673 0
M  V30 4222 H 415.938 -0.0331678 -1.89971 0
M  V30 4223 H 414.088 1.98922 -3.3371 0
M  V30 4224 H 415.76 -0.292534 -4.60372 0
M  V30 4225 H 414.003 -0.344325 -4.32431 0
M  V30 4226 H 414.674 0.833316 -5.45674 0
M  V30 4227 H 417.15 1.76308 -3.76902 0
M  V30 4228 H 416.026 2.72043 -4.76743 0
M  V30 4229 H 416.287 3.16385 -3.08793 0
M  V30 4230 N 415.346 1.54954 0.287554 0
M  V30 4231 C 416.256 1.8991 1.37736 0
M  V30 4232 C 417.272 0.794701 1.54792 0
M  V30 4233 O 418.448 1.09243 1.69198 0
M  V30 4234 C 415.513 2.15108 2.71899 0
M  V30 4235 C 414.574 3.38752 2.63715 0
M  V30 4236 C 413.807 3.62739 3.91479 0
M  V30 4237 O 414.03 2.89492 4.91478 0
M  V30 4238 O 412.964 4.56267 3.92561 0
M  V30 4239 H 416.79 2.82652 1.11092 0
M  V30 4240 H 414.375 1.41315 0.484807 0
M  V30 4241 H 416.257 2.32806 3.51254 0
M  V30 4242 H 414.932 1.25551 2.9836 0
M  V30 4243 H 413.839 3.26405 1.82786 0
M  V30 4244 H 415.172 4.28483 2.42205 0
M  V30 4245 N 416.824 -0.551391 1.4764 0
M  V30 4246 C 417.774 -1.65362 1.56969 0
M  V30 4247 C 418.758 -1.55098 0.428189 0
M  V30 4248 O 419.95 -1.63481 0.678441 0
M  V30 4249 C 417.079 -3.04129 1.59249 0
M  V30 4250 C 416.165 -3.19576 2.78804 0
M  V30 4251 N 416.556 -3.05067 4.03445 0
M  V30 4252 C 414.854 -3.50588 2.75688 0
M  V30 4253 C 415.555 -3.2336 4.83543 0
M  V30 4254 N 414.531 -3.4996 4.15968 0
M  V30 4255 H 418.333 -1.52722 2.51104 0
M  V30 4256 H 415.847 -0.756303 1.43714 0
M  V30 4257 H 417.844 -3.83278 1.64024 0
M  V30 4258 H 416.504 -3.17877 0.662148 0
M  V30 4259 H 417.515 -2.82273 4.34215 0
M  V30 4260 H 414.192 -3.70827 1.91817 0
M  V30 4261 H 415.582 -3.17061 5.92387 0
M  V30 4262 N 418.302 -1.35869 -0.798587 0
M  V30 4263 C 419.55 -1.29332 -1.55298 0
M  V30 4264 C 419.871 0.129729 -1.94568 0
M  V30 4265 O 419.141 1.06796 -1.6423 0
M  V30 4266 H 417.721 -0.475737 -0.57592 0
M  V30 4267 H 420.383 -1.70062 -0.952093 0
M  V30 4268 H 419.479 -1.91458 -2.46476 0
M  V30 4269 N 419.78 1.02168 -1.19998 0
M  V30 4270 C 421.027 1.75685 -1.00702 0
M  V30 4271 C 421.355 1.88947 0.461426 0
M  V30 4272 O 420.61 1.40832 1.35885 0
M  V30 4273 C 420.909 3.18081 -1.62969 0
M  V30 4274 C 420.575 3.24809 -3.12746 0
M  V30 4275 C 419.237 3.26352 -3.53621 0
M  V30 4276 C 421.589 3.23379 -4.08749 0
M  V30 4277 C 418.917 3.2413 -4.89036 0
M  V30 4278 C 421.269 3.22698 -5.44104 0
M  V30 4279 C 419.933 3.22542 -5.84399 0
M  V30 4280 H 419.203 0.642877 -0.368496 0
M  V30 4281 H 421.85 1.19865 -1.49348 0
M  V30 4282 H 420.155 3.77027 -1.06573 0
M  V30 4283 H 421.852 3.73648 -1.45561 0
M  V30 4284 H 418.442 3.2434 -2.80181 0
M  V30 4285 H 422.626 3.21361 -3.78207 0
M  V30 4286 H 417.882 3.22338 -5.19527 0
M  V30 4287 H 422.056 3.20543 -6.18244 0
M  V30 4288 H 419.683 3.20575 -6.89301 0
M  V30 4289 N 421.258 1.00505 1.21394 0
M  V30 4290 C 422.507 0.683159 1.89778 0
M  V30 4291 C 422.82 -0.789471 1.7896 0
M  V30 4292 O 424.026 -1.22344 2.42372 0
M  V30 4293 C 422.482 1.17146 3.40301 0
M  V30 4294 C 422.09 2.67017 3.5973 0
M  V30 4295 C 423.834 0.924461 4.14311 0
M  V30 4296 C 421.741 3.09387 5.04017 0
M  V30 4297 H 420.671 0.25183 0.710702 0
M  V30 4298 H 423.322 1.21622 1.37406 0
M  V30 4299 H 421.704 0.566451 3.91928 0
M  V30 4300 H 422.878 3.32968 3.18542 0
M  V30 4301 H 421.193 2.89732 2.99073 0
M  V30 4302 H 423.79 1.21658 5.20676 0
M  V30 4303 H 424.133 -0.139286 4.16067 0
M  V30 4304 H 424.666 1.49226 3.6875 0
M  V30 4305 H 421.405 4.14989 5.07409 0
M  V30 4306 H 420.925 2.48149 5.46061 0
M  V30 4307 H 422.604 3.01371 5.72525 0
M  V30 4308 N 422.737 -1.36956 0.779787 0
M  V30 4309 C 424.153 -1.52817 0.460342 0
M  V30 4310 C 424.353 -1.7361 -1.02283 0
M  V30 4311 O 423.409 -1.76207 -1.80852 0
M  V30 4312 C 424.722 -2.71983 1.28241 0
M  V30 4313 C 426.27 -2.85849 1.27512 0
M  V30 4314 C 426.745 -4.08008 2.08072 0
M  V30 4315 N 428.236 -4.15135 2.05467 0
M  V30 4316 C 428.971 -5.08711 2.64577 0
M  V30 4317 N 428.467 -6.07792 3.32506 0
M  V30 4318 N 430.26 -5.01254 2.54363 0
M  V30 4319 H 422.411 -1.21713 1.74068 0
M  V30 4320 H 424.674 -0.593294 0.739396 0
M  V30 4321 H 424.38 -2.63109 2.33381 0
M  V30 4322 H 424.254 -3.65882 0.917088 0
M  V30 4323 H 426.641 -2.94189 0.231686 0
M  V30 4324 H 426.722 -1.92886 1.68014 0
M  V30 4325 H 426.366 -4.00429 3.12441 0
M  V30 4326 H 426.296 -5.001 1.64947 0
M  V30 4327 H 428.787 -3.44189 1.5602 0
M  V30 4328 H 429.1 -6.75739 3.74963 0
M  V30 4329 H 427.445 -6.08047 3.36606 0
M  V30 4330 H 430.636 -4.22795 2.00902 0
M  V30 4331 H 430.809 -5.73995 3.00722 0
M  V30 4332 N 424.215 -0.530993 -1.48385 0
M  V30 4333 C 425.162 0.231223 -2.29639 0
M  V30 4334 C 426.132 0.932864 -1.37429 0
M  V30 4335 O 427.317 0.933692 -1.66394 0
M  V30 4336 C 424.457 1.27155 -3.2082 0
M  V30 4337 C 423.57 0.578655 -4.28107 0
M  V30 4338 C 422.705 1.602 -5.06467 0
M  V30 4339 C 421.744 0.892625 -6.05556 0
M  V30 4340 N 420.881 1.86157 -6.76971 0
M  V30 4341 H 425.721 -0.467848 -2.94305 0
M  V30 4342 H 423.258 -0.242556 -1.45086 0
M  V30 4343 H 425.216 1.88703 -3.72085 0
M  V30 4344 H 423.846 1.939 -2.58075 0
M  V30 4345 H 422.898 -0.150782 -3.80101 0
M  V30 4346 H 424.21 0.0217065 -4.98795 0
M  V30 4347 H 423.364 2.29173 -5.61751 0
M  V30 4348 H 422.103 2.19285 -4.35621 0
M  V30 4349 H 421.108 0.188829 -5.49476 0
M  V30 4350 H 422.333 0.307878 -6.78402 0
M  V30 4351 H 420.279 2.44147 -6.08875 0
M  V30 4352 H 420.196 1.35608 -7.43738 0
M  V30 4353 H 421.464 2.54325 -7.36844 0
M  V30 4354 N 425.693 1.55336 -0.266172 0
M  V30 4355 C 426.918 2.04258 0.359661 0
M  V30 4356 C 427.343 1.14359 1.49344 0
M  V30 4357 O 426.701 0.140369 1.80756 0
M  V30 4358 C 426.749 3.50997 0.826635 0
M  V30 4359 O 425.853 3.64204 1.93466 0
M  V30 4360 H 425.194 0.659668 0.075727 0
M  V30 4361 H 427.724 2.00694 -0.39786 0
M  V30 4362 H 427.734 3.9219 1.12477 0
M  V30 4363 H 426.409 4.159 -0.00293032 0
M  V30 4364 H 424.986 3.34913 1.63974 0
M  V30 4365 N 427.171 -0.0066808 1.57599 0
M  V30 4366 C 428.419 -0.691552 1.899 0
M  V30 4367 C 428.74 -1.74682 0.866672 0
M  V30 4368 O 428.01 -1.95661 -0.0968189 0
M  V30 4369 H 426.59 -0.258416 0.700878 0
M  V30 4370 H 429.252 0.0326655 1.94873 0
M  V30 4371 H 428.348 -1.16702 2.8946 0
M  V30 4372 N 428.649 -1.55105 -0.279332 0
M  V30 4373 C 429.874 -1.7976 -1.03446 0
M  V30 4374 C 430.299 -0.565952 -1.79384 0
M  V30 4375 O 429.657 0.484259 -1.74713 0
M  V30 4376 C 429.705 -3.0179 -1.97371 0
M  V30 4377 O 428.809 -2.76432 -3.06038 0
M  V30 4378 H 428.15 -0.594334 -0.29608 0
M  V30 4379 H 430.68 -2.02235 -0.310165 0
M  V30 4380 H 430.69 -3.30351 -2.39441 0
M  V30 4381 H 429.365 -3.91085 -1.4151 0
M  V30 4382 H 427.942 -2.58949 -2.68328 0
M  V30 4383 N 430.127 0.543554 -1.4793 0
M  V30 4384 C 431.373 1.29961 -1.56466 0
M  V30 4385 C 431.728 1.91024 -0.229696 0
M  V30 4386 O 431.021 1.75619 0.766072 0
M  V30 4387 C 431.215 2.42078 -2.62932 0
M  V30 4388 C 431.044 1.92003 -4.06651 0
M  V30 4389 C 429.814 1.75223 -4.73946 0
M  V30 4390 C 432.012 1.45648 -4.93245 0
M  V30 4391 N 429.994 1.19632 -6.02131 0
M  V30 4392 C 431.365 1.01914 -6.11566 0
M  V30 4393 C 433.42 1.33826 -4.79578 0
M  V30 4394 C 432.123 0.475301 -7.17728 0
M  V30 4395 C 434.149 0.808427 -5.85848 0
M  V30 4396 C 433.511 0.381081 -7.03368 0
M  V30 4397 H 429.61 0.467086 -0.62718 0
M  V30 4398 H 432.194 0.614543 -1.84747 0
M  V30 4399 H 430.365 3.08098 -2.36496 0
M  V30 4400 H 432.097 3.09096 -2.61231 0
M  V30 4401 H 428.852 1.98345 -4.30065 0
M  V30 4402 H 429.276 0.93885 -6.70458 0
M  V30 4403 H 433.918 1.65474 -3.89074 0
M  V30 4404 H 431.636 0.146472 -8.07967 0
M  V30 4405 H 435.222 0.720315 -5.77324 0
M  V30 4406 H 434.102 -0.0225344 -7.84197 0
M  V30 4407 N 431.605 1.3629 0.791371 0
M  V30 4408 C 432.852 1.30412 1.54916 0
M  V30 4409 C 433.18 -0.117162 1.94147 0
M  V30 4410 O 432.435 -1.08599 1.62803 0
M  V30 4411 C 432.734 2.17068 2.8393 0
M  V30 4412 C 432.4 3.65645 2.63846 0
M  V30 4413 C 431.062 4.0614 2.58077 0
M  V30 4414 C 433.414 4.59855 2.45322 0
M  V30 4415 C 430.742 5.3899 2.31748 0
M  V30 4416 C 433.094 5.9292 2.2052 0
M  V30 4417 C 431.758 6.32542 2.13183 0
M  V30 4418 H 431.028 0.47721 0.566879 0
M  V30 4419 H 433.675 1.68325 0.913172 0
M  V30 4420 H 431.98 1.72085 3.51986 0
M  V30 4421 H 433.677 2.09846 3.4171 0
M  V30 4422 H 430.267 3.33518 2.69191 0
M  V30 4423 H 434.451 4.29443 2.48782 0
M  V30 4424 H 429.707 5.68672 2.24548 0
M  V30 4425 H 433.881 6.65487 2.05182 0
M  V30 4426 H 431.508 7.35412 1.92544 0
M  V30 4427 N 433.083 -1.0153 1.20538 0
M  V30 4428 C 434.311 -1.78746 1.04199 0
M  V30 4429 C 434.726 -1.84323 -0.408733 0
M  V30 4430 O 434.083 -1.29714 -1.28377 0
M  V30 4431 C 434.134 -3.23152 1.62035 0
M  V30 4432 O 433.855 -3.17918 3.0143 0
M  V30 4433 C 435.356 -4.16911 1.50666 0
M  V30 4434 H 432.576 -0.56208 0.366479 0
M  V30 4435 H 435.12 -1.27794 1.59653 0
M  V30 4436 H 433.275 -3.71248 1.10697 0
M  V30 4437 H 433.689 -4.08567 3.28897 0
M  V30 4438 H 435.163 -5.16072 1.95892 0
M  V30 4439 H 435.64 -4.36791 0.459363 0
M  V30 4440 H 436.246 -3.74698 2.01201 0
M  V30 4441 N 434.561 -1.01147 -1.20859 0
M  V30 4442 C 435.791 -0.715872 -1.93801 0
M  V30 4443 C 436.199 0.726592 -1.74692 0
M  V30 4444 O 435.542 1.50397 -1.05482 0
M  V30 4445 C 435.604 -0.965269 -3.46299 0
M  V30 4446 C 435.268 -2.39584 -3.89164 0
M  V30 4447 C 436.265 -3.3764 -3.95342 0
M  V30 4448 C 433.95 -2.73522 -4.21297 0
M  V30 4449 C 435.944 -4.67698 -4.33056 0
M  V30 4450 C 433.631 -4.03794 -4.58687 0
M  V30 4451 C 434.629 -5.00693 -4.64538 0
M  V30 4452 O 434.317 -6.28635 -5.01072 0
M  V30 4453 H 434.049 -0.262524 -0.622942 0
M  V30 4454 H 436.603 -1.35413 -1.54443 0
M  V30 4455 H 434.833 -0.269847 -3.85757 0
M  V30 4456 H 436.522 -0.662051 -4.00464 0
M  V30 4457 H 437.288 -3.12757 -3.70686 0
M  V30 4458 H 433.167 -1.9879 -4.15937 0
M  V30 4459 H 436.711 -5.4333 -4.37537 0
M  V30 4460 H 432.608 -4.28459 -4.82797 0
M  V30 4461 H 433.376 -6.32847 -5.19083 0
M  V30 4462 N 436.039 1.36541 -0.78704 0
M  V30 4463 C 436.949 2.3387 -0.184896 0
M  V30 4464 C 437.965 1.60927 0.661697 0
M  V30 4465 O 439.141 1.92927 0.57804 0
M  V30 4466 C 436.206 3.40122 0.672145 0
M  V30 4467 C 435.267 4.28867 -0.19267 0
M  V30 4468 C 434.5 5.30045 0.623561 0
M  V30 4469 O 434.723 5.39232 1.8597 0
M  V30 4470 O 433.657 6.01895 0.0247068 0
M  V30 4471 H 437.483 2.87126 -0.989562 0
M  V30 4472 H 435.068 1.38969 -0.548455 0
M  V30 4473 H 436.95 4.05093 1.16094 0
M  V30 4474 H 435.625 2.89169 1.45474 0
M  V30 4475 H 434.532 3.66945 -0.728166 0
M  V30 4476 H 435.865 4.83165 -0.938722 0
M  V30 4477 N 437.518 0.538854 1.48102 0
M  V30 4478 C 438.766 0.00798599 2.02098 0
M  V30 4479 C 439.087 -1.33922 1.41739 0
M  V30 4480 O 438.357 -1.86932 0.585934 0
M  V30 4481 H 436.937 -3.62179e-05 0.747 0
M  V30 4482 H 439.599 0.7047 1.81714 0
M  V30 4483 H 438.695 -0.0937672 3.11959 0
M  V30 4484 N 438.996 -1.55193 0.274407 0
M  V30 4485 C 439.906 -2.26164 -0.623473 0
M  V30 4486 C 440.922 -1.28729 -1.17068 0
M  V30 4487 O 442.098 -1.61663 -1.20112 0
M  V30 4488 C 439.163 -2.96833 -1.7914 0
M  V30 4489 C 438.224 -4.09745 -1.28093 0
M  V30 4490 C 437.457 -4.77034 -2.3932 0
M  V30 4491 O 437.68 -4.4353 -3.5866 0
M  V30 4492 O 436.614 -5.64996 -2.07516 0
M  V30 4493 H 440.44 -3.03661 -0.0485661 0
M  V30 4494 H 438.025 -1.49341 0.0418382 0
M  V30 4495 H 439.907 -3.41248 -2.4724 0
M  V30 4496 H 438.582 -2.22253 -2.35341 0
M  V30 4497 H 437.489 -3.69787 -0.566416 0
M  V30 4498 H 438.822 -4.86224 -0.764683 0
M  V30 4499 N 440.474 -0.00167713 -1.576 0
M  V30 4500 C 441.406 1.0174 -2.05382 0
M  V30 4501 C 442.419 1.30595 -0.972052 0
M  V30 4502 O 443.608 1.27542 -1.24882 0
M  V30 4503 C 440.708 2.35174 -2.44022 0
M  V30 4504 C 439.881 2.25234 -3.74951 0
M  V30 4505 C 438.94 3.4137 -4.00441 0
M  V30 4506 O 437.966 3.19483 -4.71083 0
M  V30 4507 N 439.168 4.64275 -3.48467 0
M  V30 4508 H 441.933 0.609902 -2.93428 0
M  V30 4509 H 439.494 0.185672 -1.60832 0
M  V30 4510 H 441.486 3.11643 -2.58187 0
M  V30 4511 H 440.056 2.67659 -1.61485 0
M  V30 4512 H 439.276 1.33664 -3.70847 0
M  V30 4513 H 440.564 2.15767 -4.60784 0
M  V30 4514 H 439.962 4.84955 -2.91264 0
M  V30 4515 H 438.519 5.38005 -3.67959 0
M  V30 4516 N 441.952 1.55251 0.271103 0
M  V30 4517 C 442.882 1.9127 1.33933 0
M  V30 4518 C 443.863 0.77478 1.5143 0
M  V30 4519 O 445.048 1.03307 1.64442 0
M  V30 4520 C 442.178 2.18627 2.69851 0
M  V30 4521 C 441.132 3.34442 2.67081 0
M  V30 4522 C 440.458 3.47284 4.06569 0
M  V30 4523 C 441.758 4.70784 2.26185 0
M  V30 4524 H 443.452 2.80744 1.04035 0
M  V30 4525 H 440.998 1.35077 0.499017 0
M  V30 4526 H 442.951 2.42413 3.44694 0
M  V30 4527 H 441.675 1.25955 3.01335 0
M  V30 4528 H 440.334 3.10627 1.94695 0
M  V30 4529 H 439.982 2.52074 4.35279 0
M  V30 4530 H 439.682 4.25152 4.0561 0
M  V30 4531 H 441.206 3.73363 4.83148 0
M  V30 4532 H 442.62 4.94102 2.90751 0
M  V30 4533 H 441.017 5.51582 2.36384 0
M  V30 4534 H 442.087 4.69478 1.21319 0
M  V30 4535 N 443.43 -0.535701 1.48216 0
M  V30 4536 C 444.678 -1.28928 1.55634 0
M  V30 4537 C 444.999 -1.93645 0.229514 0
M  V30 4538 O 444.269 -1.81038 -0.74846 0
M  V30 4539 H 442.849 -0.47884 0.573342 0
M  V30 4540 H 445.511 -0.623853 1.84646 0
M  V30 4541 H 444.607 -2.07157 2.33436 0
M  V30 4542 N 444.908 -1.36708 -0.784132 0
M  V30 4543 C 445.84 -1.27333 -1.90575 0
M  V30 4544 C 446.853 -0.191706 -1.61667 0
M  V30 4545 O 448.042 -0.446854 -1.72816 0
M  V30 4546 C 445.142 -0.943177 -3.25511 0
M  V30 4547 C 444.315 -2.12776 -3.82158 0
M  V30 4548 C 443.374 -1.76983 -4.95544 0
M  V30 4549 O 442.4 -2.49134 -5.11782 0
M  V30 4550 N 443.602 -0.706624 -5.76183 0
M  V30 4551 H 446.367 -2.23974 -1.99138 0
M  V30 4552 H 443.928 -1.30171 -0.962656 0
M  V30 4553 H 445.92 -0.684799 -3.98864 0
M  V30 4554 H 444.49 -0.0657333 -3.12531 0
M  V30 4555 H 443.71 -2.54863 -3.0073 0
M  V30 4556 H 444.998 -2.91904 -4.16737 0
M  V30 4557 H 444.396 -0.107643 -5.65598 0
M  V30 4558 H 442.953 -0.50808 -6.49817 0
M  V30 4559 N 446.386 1.0089 -1.21074 0
M  V30 4560 C 447.634 1.74262 -1.02358 0
M  V30 4561 C 447.955 1.89869 0.444393 0
M  V30 4562 O 447.225 1.44677 1.32081 0
M  V30 4563 H 445.805 0.645615 -0.375754 0
M  V30 4564 H 448.467 1.21596 -1.52317 0
M  V30 4565 H 447.563 2.74328 -1.4883 0
M  V30 4566 N 447.864 1.01787 1.20321 0
M  V30 4567 C 448.811 0.589197 2.23153 0
M  V30 4568 C 449.781 -0.391367 1.61423 0
M  V30 4569 O 450.966 -0.290518 1.88575 0
M  V30 4570 C 448.106 -0.0650747 3.45039 0
M  V30 4571 C 447.219 0.960207 4.21194 0
M  V30 4572 C 446.354 0.276854 5.30478 0
M  V30 4573 C 445.393 1.2888 5.98378 0
M  V30 4574 N 444.53 0.632031 6.99249 0
M  V30 4575 H 449.37 1.47071 2.59179 0
M  V30 4576 H 446.907 0.736192 1.27352 0
M  V30 4577 H 448.865 -0.461552 4.14639 0
M  V30 4578 H 447.495 -0.910233 3.09701 0
M  V30 4579 H 446.547 1.47484 3.50646 0
M  V30 4580 H 447.859 1.72977 4.67847 0
M  V30 4581 H 447.013 -0.175056 6.06447 0
M  V30 4582 H 445.752 -0.525004 4.84866 0
M  V30 4583 H 444.757 1.75109 5.21169 0
M  V30 4584 H 445.982 2.09196 6.46076 0
M  V30 4585 H 443.928 -0.149935 6.55829 0
M  V30 4586 H 443.845 1.33964 7.44036 0
M  V30 4587 H 445.113 0.203755 7.79234 0
M  V30 4588 N 449.342 -1.36122 0.79427 0
M  V30 4589 C 450.252 -2.33769 0.197296 0
M  V30 4590 C 451.268 -1.61276 -0.653153 0
M  V30 4591 O 452.444 -1.9323 -0.5678 0
M  V30 4592 C 449.509 -3.40474 -0.654098 0
M  V30 4593 C 448.57 -4.28759 0.215411 0
M  V30 4594 C 447.803 -5.30368 -0.595443 0
M  V30 4595 O 448.026 -5.40211 -1.83107 0
M  V30 4596 O 446.96 -6.019 0.00721351 0
M  V30 4597 H 450.786 -2.86597 1.00478 0
M  V30 4598 H 448.371 -1.38676 0.555818 0
M  V30 4599 H 450.253 -4.05703 -1.13944 0
M  V30 4600 H 448.928 -2.89937 -1.43938 0
M  V30 4601 H 447.835 -3.66554 0.747615 0
M  V30 4602 H 449.168 -4.82661 0.964332 0
M  V30 4603 N 450.82 -0.546701 -1.47814 0
M  V30 4604 C 451.768 0.220048 -2.31557 0
M  V30 4605 C 452.762 0.919472 -1.42275 0
M  V30 4606 O 453.968 0.841953 -1.59095 0
M  V30 4607 H 450.343 0.0898334 -0.746615 0
M  V30 4608 H 452.314 -0.505589 -2.94086 0
M  V30 4609 C 451.063 1.24353 -3.24702 0
M  V30 4610 H 450.386 0.714758 -3.93359 0
M  V30 4611 H 451.826 1.75112 -3.8615 0
M  V30 4612 C 450.285 2.28593 -2.47481 0
M  V30 4613 O 450.815 3.35334 -2.21165 0
M  V30 4614 N 449.021 2.02244 -2.08676 0
M  V30 4615 H 448.568 1.15455 -2.30278 0
M  V30 4616 H 448.526 2.72207 -1.57323 0
M  V30 4617 N 452.299 1.55045 -0.282633 0
M  V30 4618 C 453.262 2.21515 0.588539 0
M  V30 4619 C 454.262 1.19535 1.07554 0
M  V30 4620 O 455.452 1.44391 0.974514 0
M  V30 4621 C 452.584 2.88704 1.8128 0
M  V30 4622 H 453.777 2.99899 0.00806397 0
M  V30 4623 H 451.33 1.56265 -0.0333067 0
M  V30 4624 H 452.065 2.14352 2.43359 0
M  V30 4625 H 451.85 3.63443 1.47144 0
M  V30 4626 H 453.34 3.39465 2.43214 0
M  V30 4627 N 453.777 0.010035 1.57597 0
M  V30 4628 C 455.193 -0.346164 1.55801 0
M  V30 4629 C 455.393 -1.74144 1.01371 0
M  V30 4630 O 454.449 -2.43938 0.651968 0
M  V30 4631 C 455.762 -0.212216 2.9995 0
M  V30 4632 C 457.31 -0.286409 3.11687 0
M  V30 4633 C 457.785 -0.18147 4.5764 0
M  V30 4634 N 459.276 -0.239056 4.62583 0
M  V30 4635 C 460.011 -0.181351 5.73113 0
M  V30 4636 N 459.507 -0.073661 6.92761 0
M  V30 4637 N 461.3 -0.233949 5.61613 0
M  V30 4638 H 453.451 0.922657 1.91313 0
M  V30 4639 H 455.714 0.354595 0.879185 0
M  V30 4640 H 455.42 0.748169 3.4365 0
M  V30 4641 H 455.294 -0.990224 3.6397 0
M  V30 4642 H 457.681 -1.23724 2.67911 0
M  V30 4643 H 457.762 0.521645 2.50425 0
M  V30 4644 H 457.406 0.765863 5.02093 0
M  V30 4645 H 457.336 -1.00814 5.1686 0
M  V30 4646 H 459.827 -0.32321 3.76515 0
M  V30 4647 H 460.14 -0.0358003 7.72792 0
M  V30 4648 H 458.485 -0.0391461 6.94989 0
M  V30 4649 H 461.676 -0.316347 4.6703 0
M  V30 4650 H 461.849 -0.185514 6.47734 0
M  V30 4651 N 455.255 -1.55392 -0.262866 0
M  V30 4652 C 456.202 -1.88966 -1.32516 0
M  V30 4653 C 457.172 -0.742187 -1.48596 0
M  V30 4654 O 458.357 -0.99439 -1.62839 0
M  V30 4655 C 455.497 -2.17592 -2.67858 0
M  V30 4656 C 454.61 -3.45061 -2.59917 0
M  V30 4657 C 453.745 -3.63336 -3.87505 0
M  V30 4658 C 452.784 -4.84462 -3.74116 0
M  V30 4659 N 451.921 -4.99342 -4.93561 0
M  V30 4660 H 456.761 -2.79566 -1.03184 0
M  V30 4661 H 454.298 -1.38404 -0.498285 0
M  V30 4662 H 456.256 -2.3219 -3.46617 0
M  V30 4663 H 454.886 -1.30215 -2.95371 0
M  V30 4664 H 453.938 -3.38881 -1.72812 0
M  V30 4665 H 455.25 -4.3396 -2.45926 0
M  V30 4666 H 454.404 -3.77807 -4.74707 0
M  V30 4667 H 453.143 -2.72641 -4.04374 0
M  V30 4668 H 452.148 -4.69985 -2.85297 0
M  V30 4669 H 453.373 -5.76603 -3.58757 0
M  V30 4670 H 451.319 -4.1158 -5.10821 0
M  V30 4671 H 451.236 -5.82303 -4.82141 0
M  V30 4672 H 452.504 -5.18208 -5.82306 0
M  V30 4673 N 456.733 0.527833 -1.48498 0
M  V30 4674 C 457.98 1.28354 -1.56625 0
M  V30 4675 C 458.308 1.93 -0.241096 0
M  V30 4676 O 457.563 1.79967 0.768798 0
M  V30 4677 C 457.862 2.39275 -2.65485 0
M  V30 4678 C 457.528 1.92268 -4.07853 0
M  V30 4679 C 456.19 1.79166 -4.46602 0
M  V30 4680 C 458.542 1.56771 -4.97064 0
M  V30 4681 C 455.87 1.28905 -5.72364 0
M  V30 4682 C 458.222 1.07972 -6.23318 0
M  V30 4683 C 456.886 0.934887 -6.60921 0
M  V30 4684 H 456.156 0.469682 -0.573131 0
M  V30 4685 H 458.803 0.588781 -1.82224 0
M  V30 4686 H 457.108 3.1443 -2.33754 0
M  V30 4687 H 458.805 2.974 -2.68988 0
M  V30 4688 H 455.395 2.03417 -3.77252 0
M  V30 4689 H 459.579 1.65753 -4.67803 0
M  V30 4690 H 454.835 1.16381 -6.00221 0
M  V30 4691 H 459.009 0.795775 -6.91838 0
M  V30 4692 H 456.636 0.543231 -7.58257 0
M  V30 4693 N 458.211 1.37122 0.776871 0
M  V30 4694 C 459.141 1.35164 1.90402 0
M  V30 4695 C 460.122 0.221069 1.68657 0
M  V30 4696 O 461.307 0.420642 1.8959 0
M  V30 4697 C 458.437 1.15274 3.27611 0
M  V30 4698 C 457.391 2.25289 3.63908 0
M  V30 4699 C 456.717 1.90527 4.99603 0
M  V30 4700 C 458.017 3.67446 3.71188 0
M  V30 4701 H 459.711 2.29482 1.92297 0
M  V30 4702 H 457.257 1.10465 0.923773 0
M  V30 4703 H 459.21 1.12536 4.06096 0
M  V30 4704 H 457.934 0.174102 3.26136 0
M  V30 4705 H 456.593 2.27174 2.87728 0
M  V30 4706 H 456.241 0.91206 4.94662 0
M  V30 4707 H 455.941 2.64193 5.24858 0
M  V30 4708 H 457.465 1.89367 5.80493 0
M  V30 4709 H 458.879 3.67719 4.39836 0
M  V30 4710 H 457.276 4.40123 4.07936 0
M  V30 4711 H 458.346 4.01443 2.71977 0
M  V30 4712 N 459.689 -1.00246 1.21608 0
M  V30 4713 C 460.619 -2.10921 1.00172 0
M  V30 4714 C 461.6 -1.69938 -0.0741587 0
M  V30 4715 O 462.785 -1.94009 0.0861753 0
M  V30 4716 C 459.915 -3.42618 0.568355 0
M  V30 4717 C 458.869 -3.97407 1.58909 0
M  V30 4718 C 458.195 -5.25038 1.01187 0
M  V30 4719 C 459.495 -4.2918 2.97661 0
M  V30 4720 H 461.189 -2.29112 1.92739 0
M  V30 4721 H 458.735 -1.10101 0.928102 0
M  V30 4722 H 460.688 -4.19444 0.405555 0
M  V30 4723 H 459.412 -3.24227 -0.392961 0
M  V30 4724 H 458.071 -3.22703 1.73949 0
M  V30 4725 H 457.719 -5.02982 0.0421965 0
M  V30 4726 H 457.419 -5.62661 1.6937 0
M  V30 4727 H 458.943 -6.04507 0.860448 0
M  V30 4728 H 460.357 -4.96839 2.86049 0
M  V30 4729 H 458.754 -4.77952 3.6288 0
M  V30 4730 H 459.824 -3.3735 3.48315 0
M  V30 4731 N 461.167 -1.02423 -1.1978 0
M  V30 4732 C 462.077 -0.610919 -2.26506 0
M  V30 4733 C 463.093 0.355152 -1.70337 0
M  V30 4734 O 464.269 0.214195 -2.00258 0
M  V30 4735 C 461.334 0.0365921 -3.46681 0
M  V30 4736 C 460.395 -0.976389 -4.18049 0
M  V30 4737 C 459.628 -0.359683 -5.32487 0
M  V30 4738 O 459.851 0.838601 -5.64202 0
M  V30 4739 O 458.785 -1.08022 -5.92127 0
M  V30 4740 H 462.611 -1.49965 -2.64091 0
M  V30 4741 H 460.196 -0.794156 -1.26545 0
M  V30 4742 H 462.078 0.39786 -4.19518 0
M  V30 4743 H 460.753 0.899398 -3.10954 0
M  V30 4744 H 459.66 -1.38916 -3.47352 0
M  V30 4745 H 460.993 -1.80941 -4.57735 0
M  V30 4746 N 462.645 1.35699 -0.801477 0
M  V30 4747 C 463.593 2.3177 -0.196317 0
M  V30 4748 C 464.587 1.56388 0.651081 0
M  V30 4749 O 465.793 1.71557 0.544815 0
M  V30 4750 H 462.168 0.750669 -0.0447189 0
M  V30 4751 H 464.139 2.8036 -1.02181 0
M  V30 4752 C 462.888 3.41671 0.644702 0
M  V30 4753 H 462.211 3.998 0.0019921 0
M  V30 4754 H 463.651 4.11184 1.0346 0
M  V30 4755 C 462.11 2.84271 1.80808 0
M  V30 4756 O 462.64 2.77408 2.9053 0
M  V30 4757 N 460.846 2.41391 1.61799 0
M  V30 4758 H 460.393 2.47173 0.725493 0
M  V30 4759 H 460.351 2.03334 2.39797 0
M  V30 4760 N 464.123 0.554532 1.47522 0
M  V30 4761 C 465.351 0.034257 2.06872 0
M  V30 4762 C 465.766 -1.25826 1.40759 0
M  V30 4763 O 465.123 -1.75425 0.503217 0
M  V30 4764 C 465.174 -0.167827 3.6111 0
M  V30 4765 O 464.895 1.07351 4.24744 0
M  V30 4766 C 466.396 -0.72569 4.3732 0
M  V30 4767 H 463.616 0.0446275 0.669514 0
M  V30 4768 H 466.16 0.767181 1.89564 0
M  V30 4769 H 464.315 -0.850872 3.7794 0
M  V30 4770 H 464.729 0.869563 5.17242 0
M  V30 4771 H 466.203 -0.816394 5.45929 0
M  V30 4772 H 466.68 -1.73635 4.0342 0
M  V30 4773 H 467.286 -0.0784292 4.25228 0
M  V30 4774 N 465.601 -1.54893 0.290851 0
M  V30 4775 C 466.878 -1.91991 -0.373989 0
M  V30 4776 C 467.258 -1.21694 -1.72493 0
M  V30 4777 O 466.606 -0.34917 -2.25816 0
M  V30 4778 C 466.816 -3.45419 -0.498703 0
M  V30 4779 C 468.164 -4.1748 -0.774298 0
M  V30 4780 O 469.188 -3.51398 -0.582908 0
M  V30 4781 O 468.047 -5.3445 -1.14129 0
M  V30 4782 H 465.141 -0.800593 -0.207315 0
M  V30 4783 H 467.687 -1.66297 0.338164 0
M  V30 4784 H 466.459 -3.88688 0.451392 0
M  V30 4785 H 466.082 -3.77117 -1.25972 0
M  V30 4786 N 467.08 -0.0183926 -1.57589 0
M  V30 4787 C 468.326 0.663543 -1.91638 0
M  V30 4788 C 468.659 1.72392 -0.894134 0
M  V30 4789 O 467.934 1.94316 0.0846449 0
M  V30 4790 C 468.217 1.28984 -3.36207 0
M  V30 4791 C 468.07 0.239761 -4.49161 0
M  V30 4792 C 469.389 2.2109 -3.80536 0
M  V30 4793 H 466.508 0.239746 -0.696915 0
M  V30 4794 H 469.15 -0.073456 -1.89858 0
M  V30 4795 H 467.3 1.91799 -3.37854 0
M  V30 4796 H 468.972 -0.390119 -4.59647 0
M  V30 4797 H 467.215 -0.435972 -4.31604 0
M  V30 4798 H 467.886 0.717383 -5.47319 0
M  V30 4799 H 470.362 1.68273 -3.80557 0
M  V30 4800 H 469.238 2.61869 -4.82406 0
M  V30 4801 H 469.499 3.09764 -3.15434 0
M  V30 4802 N 468.558 1.5553 0.254621 0
M  V30 4803 C 469.521 1.88872 1.29846 0
M  V30 4804 C 470.521 0.764591 1.41459 0
M  V30 4805 O 471.711 1.03265 1.40293 0
M  V30 4806 C 468.843 2.11032 2.67728 0
M  V30 4807 H 470.036 2.82201 1.01502 0
M  V30 4808 H 467.589 1.48303 0.493556 0
M  V30 4809 H 468.324 1.20146 3.01223 0
M  V30 4810 H 468.109 2.92895 2.60682 0
M  V30 4811 H 469.599 2.38038 3.43115 0
M  V30 4812 N 470.036 -0.519951 1.48776 0
M  V30 4813 C 470.984 -1.64443 1.64503 0
M  V30 4814 C 471.978 -1.61501 0.511248 0
M  V30 4815 O 473.184 -1.66238 0.690294 0
M  V30 4816 H 469.559 -0.544776 0.518385 0
M  V30 4817 H 471.53 -1.48325 2.58925 0
M  V30 4818 C 470.279 -3.02673 1.71127 0
M  V30 4819 H 469.602 -3.05635 2.57735 0
M  V30 4820 H 471.042 -3.80941 1.86172 0
M  V30 4821 C 469.501 -3.33854 0.452032 0
M  V30 4822 O 470.031 -3.99385 -0.430678 0
M  V30 4823 N 468.237 -2.88825 0.32069 0
M  V30 4824 H 467.784 -2.35674 1.03998 0
M  V30 4825 H 467.742 -3.10056 -0.520814 0
M  V30 4826 N 471.514 -1.37532 -0.769588 0
M  V30 4827 C 472.424 -1.35668 -1.91393 0
M  V30 4828 C 473.44 -0.255954 -1.72107 0
M  V30 4829 O 474.616 -0.491704 -1.95305 0
M  V30 4830 C 471.681 -1.16481 -3.26547 0
M  V30 4831 C 470.742 -2.36212 -3.58472 0
M  V30 4832 C 469.975 -2.17932 -4.87177 0
M  V30 4833 O 470.198 -1.1647 -5.58382 0
M  V30 4834 O 469.132 -3.06167 -5.18214 0
M  V30 4835 H 472.958 -2.32055 -1.95918 0
M  V30 4836 H 470.543 -1.18284 -0.912641 0
M  V30 4837 H 472.425 -1.07778 -4.07384 0
M  V30 4838 H 471.1 -0.231687 -3.2287 0
M  V30 4839 H 470.007 -2.50488 -2.77861 0
M  V30 4840 H 471.34 -3.281 -3.66894 0
M  V30 4841 N 472.992 0.995999 -1.22138 0
M  V30 4842 C 474.241 1.72928 -1.03821 0
M  V30 4843 C 474.554 1.90872 0.427444 0
M  V30 4844 O 475.76 2.61496 0.730212 0
M  V30 4845 C 474.216 3.11124 -1.80913 0
M  V30 4846 C 473.824 3.01122 -3.31707 0
M  V30 4847 C 475.568 3.8852 -1.71035 0
M  V30 4848 C 473.475 4.34453 -4.01253 0
M  V30 4849 H 472.405 0.648376 -0.384869 0
M  V30 4850 H 475.056 1.11213 -1.45959 0
M  V30 4851 H 473.438 3.73503 -1.31573 0
M  V30 4852 H 474.612 2.47926 -3.88419 0
M  V30 4853 H 472.927 2.3721 -3.42228 0
M  V30 4854 H 475.524 4.872 -2.20318 0
M  V30 4855 H 475.867 4.1087 -0.670196 0
M  V30 4856 H 476.4 3.32812 -2.17902 0
M  V30 4857 H 473.139 4.17303 -5.05508 0
M  V30 4858 H 472.659 4.87574 -3.49331 0
M  V30 4859 H 474.338 5.03215 -4.06674 0
M  V30 4860 N 474.47 1.03057 1.19235 0
M  V30 4861 C 475.38 0.622922 2.26179 0
M  V30 4862 C 476.396 -0.346113 1.70523 0
M  V30 4863 O 477.572 -0.203572 2.00369 0
M  V30 4864 C 474.637 -0.0182063 3.46695 0
M  V30 4865 C 473.698 0.998546 4.17526 0
M  V30 4866 C 472.931 0.387917 5.32288 0
M  V30 4867 O 473.154 -0.808668 5.64639 0
M  V30 4868 O 472.088 1.1116 5.91546 0
M  V30 4869 H 475.914 1.51363 2.63292 0
M  V30 4870 H 473.499 0.800856 1.26122 0
M  V30 4871 H 475.381 -0.375606 4.19723 0
M  V30 4872 H 474.056 -0.882895 3.11427 0
M  V30 4873 H 472.963 1.40756 3.4661 0
M  V30 4874 H 474.296 1.83366 4.56769 0
M  V30 4875 N 475.948 -1.35272 0.808662 0
M  V30 4876 C 476.895 -2.29764 0.218482 0
M  V30 4877 C 477.865 -1.52911 -0.648652 0
M  V30 4878 O 479.05 -1.81341 -0.593297 0
M  V30 4879 C 476.19 -3.39388 -0.625282 0
M  V30 4880 C 475.303 -4.31202 0.262516 0
M  V30 4881 C 474.438 -5.27919 -0.589451 0
M  V30 4882 C 473.477 -6.11371 0.298617 0
M  V30 4883 N 472.614 -7.0022 -0.513443 0
M  V30 4884 H 477.454 -2.79645 1.02968 0
M  V30 4885 H 474.991 -1.37629 0.519303 0
M  V30 4886 H 476.949 -4.01615 -1.12966 0
M  V30 4887 H 475.579 -2.90777 -1.40173 0
M  V30 4888 H 474.631 -3.69962 0.885013 0
M  V30 4889 H 475.943 -4.89748 0.945971 0
M  V30 4890 H 475.097 -5.95529 -1.15888 0
M  V30 4891 H 473.836 -4.69875 -1.30647 0
M  V30 4892 H 472.841 -5.42707 0.880301 0
M  V30 4893 H 474.066 -6.71494 1.01352 0
M  V30 4894 H 472.012 -6.44662 -1.21439 0
M  V30 4895 H 471.929 -7.55917 0.111922 0
M  V30 4896 H 473.197 -7.72175 -1.06608 0
M  V30 4897 N 477.426 -0.562348 -1.47226 0
M  V30 4898 C 478.373 0.182461 -2.30078 0
M  V30 4899 C 479.343 0.903503 -1.39377 0
M  V30 4900 O 480.528 0.898188 -1.68337 0
M  V30 4901 C 477.668 1.20322 -3.23445 0
M  V30 4902 C 476.781 0.487717 -4.29238 0
M  V30 4903 C 475.916 1.49422 -5.09752 0
M  V30 4904 C 474.955 0.763976 -6.07314 0
M  V30 4905 N 474.092 1.71755 -6.80768 0
M  V30 4906 H 478.932 -0.530169 -2.93246 0
M  V30 4907 H 476.469 -0.273276 -1.44539 0
M  V30 4908 H 478.427 1.80768 -3.76004 0
M  V30 4909 H 477.057 1.88382 -2.6213 0
M  V30 4910 H 476.109 -0.231374 -3.79696 0
M  V30 4911 H 477.421 -0.0841003 -4.98729 0
M  V30 4912 H 476.575 2.17206 -5.66486 0
M  V30 4913 H 475.314 2.09995 -4.40174 0
M  V30 4914 H 474.319 0.0722344 -5.49753 0
M  V30 4915 H 475.544 0.16391 -6.78902 0
M  V30 4916 H 473.49 2.31177 -6.13916 0
M  V30 4917 H 473.407 1.19802 -7.46447 0
M  V30 4918 H 474.675 2.38638 -7.42073 0
M  V30 4919 N 478.904 1.54736 -0.299062 0
M  V30 4920 C 480.153 1.99279 0.311549 0
M  V30 4921 C 480.466 1.19107 1.55154 0
M  V30 4922 O 481.672 1.53908 2.23662 0
M  V30 4923 C 480.128 3.54768 0.605632 0
M  V30 4924 C 479.736 4.43746 -0.615914 0
M  V30 4925 C 481.48 4.07841 1.17754 0
M  V30 4926 C 479.387 5.90663 -0.29509 0
M  V30 4927 H 478.317 0.744359 0.120187 0
M  V30 4928 H 480.968 1.78919 -0.407464 0
M  V30 4929 H 479.35 3.71021 1.38419 0
M  V30 4930 H 480.524 4.39267 -1.39218 0
M  V30 4931 H 478.839 4.01434 -1.10633 0
M  V30 4932 H 481.436 5.15174 1.43179 0
M  V30 4933 H 481.779 3.58324 2.11918 0
M  V30 4934 H 482.312 3.95123 0.460739 0
M  V30 4935 H 479.051 6.44325 -1.20524 0
M  V30 4936 H 478.571 5.98155 0.44394 0
M  V30 4937 H 480.25 6.46916 0.104048 0
M  V30 4938 N 480.382 0.0267497 1.57577 0
M  V30 4939 C 481.329 -0.955894 2.10075 0
M  V30 4940 C 482.299 -1.32453 1.00226 0
M  V30 4941 O 483.484 -1.41826 1.27632 0
M  V30 4942 C 480.624 -2.2338 2.6305 0
M  V30 4943 C 479.737 -1.92183 3.86898 0
M  V30 4944 C 478.872 -3.14251 4.28275 0
M  V30 4945 C 477.911 -2.78862 5.44888 0
M  V30 4946 N 477.048 -3.93548 5.81433 0
M  V30 4947 H 481.888 -0.501303 2.93753 0
M  V30 4948 H 479.425 -0.235847 1.45197 0
M  V30 4949 H 481.383 -2.98124 2.91853 0
M  V30 4950 H 480.013 -2.6646 1.82205 0
M  V30 4951 H 479.065 -1.07692 3.64838 0
M  V30 4952 H 480.377 -1.62117 4.7172 0
M  V30 4953 H 479.531 -3.97317 4.58502 0
M  V30 4954 H 478.27 -3.47476 3.42215 0
M  V30 4955 H 477.275 -1.94208 5.14357 0
M  V30 4956 H 478.5 -2.46855 6.32645 0
M  V30 4957 H 476.446 -4.2662 4.98328 0
M  V30 4958 H 476.363 -3.67098 6.6089 0
M  V30 4959 H 477.631 -4.77325 6.16264 0
M  V30 4960 N 481.861 -1.55662 -0.24637 0
M  V30 4961 C 482.771 -1.93495 -1.32653 0
M  V30 4962 C 483.787 -0.835462 -1.5263 0
M  V30 4963 O 484.963 -1.1369 -1.66242 0
M  V30 4964 C 482.028 -2.22242 -2.66101 0
M  V30 4965 C 481.089 -3.45625 -2.54641 0
M  V30 4966 C 480.322 -3.72991 -3.81724 0
M  V30 4967 O 480.545 -3.02421 -4.8363 0
M  V30 4968 O 479.479 -4.66515 -3.80325 0
M  V30 4969 H 483.305 -2.85498 -1.03559 0
M  V30 4970 H 480.89 -1.42551 -0.44717 0
M  V30 4971 H 482.772 -2.42037 -3.44958 0
M  V30 4972 H 481.447 -1.33417 -2.94926 0
M  V30 4973 H 480.354 -3.31136 -1.74067 0
M  V30 4974 H 481.687 -4.34754 -2.3076 0
M  V30 4975 N 483.339 0.512053 -1.4905 0
M  V30 4976 C 484.286 1.6148 -1.64902 0
M  V30 4977 C 485.256 1.58687 -0.490673 0
M  V30 4978 O 486.441 1.76842 -0.71636 0
M  V30 4979 C 483.581 2.99676 -1.71139 0
M  V30 4980 C 482.694 3.12568 -2.98203 0
M  V30 4981 C 481.829 4.4143 -2.95487 0
M  V30 4982 C 480.868 4.47916 -4.17179 0
M  V30 4983 N 480.005 5.68191 -4.12437 0
M  V30 4984 H 484.845 1.47271 -2.59066 0
M  V30 4985 H 482.382 0.716713 -1.28459 0
M  V30 4986 H 484.34 3.79761 -1.72736 0
M  V30 4987 H 482.97 3.12614 -0.804508 0
M  V30 4988 H 482.022 2.25618 -3.06269 0
M  V30 4989 H 483.334 3.1322 -3.88194 0
M  V30 4990 H 482.488 5.29825 -2.95585 0
M  V30 4991 H 481.227 4.43326 -2.03256 0
M  V30 4992 H 480.232 3.57925 -4.17337 0
M  V30 4993 H 481.457 4.47744 -5.1059 0
M  V30 4994 H 479.403 5.7095 -3.23036 0
M  V30 4995 H 479.32 5.70413 -4.96151 0
M  V30 4996 H 480.588 6.58823 -4.16621 0
M  V30 4997 N 484.817 1.37938 0.762283 0
M  V30 4998 C 485.747 1.37176 1.88958 0
M  V30 4999 C 486.728 0.238945 1.68413 0
M  V30 5000 O 487.913 0.440726 1.89133 0
M  V30 5001 C 485.043 1.18742 3.2637 0
M  V30 5002 C 483.997 2.29136 3.61498 0
M  V30 5003 C 483.323 1.95816 4.97554 0
M  V30 5004 C 484.623 3.71363 3.6727 0
M  V30 5005 H 486.317 2.31509 1.89853 0
M  V30 5006 H 483.863 1.11438 0.912005 0
M  V30 5007 H 485.816 1.16837 4.04879 0
M  V30 5008 H 484.54 0.208683 3.25933 0
M  V30 5009 H 483.199 2.30213 2.85303 0
M  V30 5010 H 482.847 0.964475 4.93667 0
M  V30 5011 H 482.547 2.69745 5.22026 0
M  V30 5012 H 484.071 1.95513 5.78452 0
M  V30 5013 H 485.485 3.72364 4.35911 0
M  V30 5014 H 483.882 4.44425 4.03245 0
M  V30 5015 H 484.952 4.04305 2.67704 0
M  V30 5016 N 486.295 -0.989507 1.22664 0
M  V30 5017 C 487.543 -1.72612 1.05117 0
M  V30 5018 C 487.864 -1.90552 -0.414131 0
M  V30 5019 O 487.134 -1.4676 -1.29762 0
M  V30 5020 H 485.714 -0.639555 0.385977 0
M  V30 5021 H 488.376 -1.19158 1.54232 0
M  V30 5022 H 487.472 -2.71926 1.53175 0
M  V30 5023 N 487.773 -1.03688 -1.18687 0
M  V30 5024 C 489.022 -0.733235 -1.879 0
M  V30 5025 C 489.335 0.741745 -1.8099 0
M  V30 5026 O 490.541 1.15875 -2.4553 0
M  V30 5027 C 488.997 -1.26127 -3.37076 0
M  V30 5028 C 488.605 -2.76461 -3.52524 0
M  V30 5029 C 490.349 -1.03398 -4.11715 0
M  V30 5030 C 488.256 -3.22642 -4.95637 0
M  V30 5031 H 487.186 -0.270584 -0.703776 0
M  V30 5032 H 489.837 -1.25222 -1.34133 0
M  V30 5033 H 488.219 -0.670165 -3.90288 0
M  V30 5034 H 489.393 -3.41296 -3.09602 0
M  V30 5035 H 487.708 -2.97559 -2.91286 0
M  V30 5036 H 490.305 -1.3542 -5.17267 0
M  V30 5037 H 490.648 0.0289246 -4.1629 0
M  V30 5038 H 491.181 -1.5895 -3.64664 0
M  V30 5039 H 487.92 -4.28296 -4.96228 0
M  V30 5040 H 487.44 -2.62539 -5.39289 0
M  V30 5041 H 489.119 -3.16444 -5.64333 0
M  V30 5042 N 489.251 1.34841 -0.815825 0
M  V30 5043 C 490.499 1.98107 -0.399744 0
M  V30 5044 C 490.82 1.65019 1.03894 0
M  V30 5045 O 490.09 0.937311 1.72021 0
M  V30 5046 H 488.67 0.732827 -0.144823 0
M  V30 5047 H 491.332 1.64599 -1.0437 0
M  V30 5048 H 490.428 3.07856 -0.512965 0
M  V30 5049 N 490.729 0.570148 1.46925 0
M  V30 5050 C 491.692 -0.159933 2.28641 0
M  V30 5051 C 492.692 -0.830638 1.37685 0
M  V30 5052 O 493.882 -0.684516 1.60187 0
M  V30 5053 C 491.014 -1.2354 3.17727 0
M  V30 5054 H 492.207 0.558035 2.94662 0
M  V30 5055 H 489.76 0.327603 1.52828 0
M  V30 5056 H 490.495 -1.98535 2.56426 0
M  V30 5057 H 490.28 -0.759125 3.84681 0
M  V30 5058 H 491.77 -1.74782 3.79264 0
M  V30 5059 N 492.207 -1.54576 0.307264 0
M  V30 5060 C 493.453 -2.0056 -0.300612 0
M  V30 5061 C 493.786 -1.1953 -1.53057 0
M  V30 5062 O 493.061 -0.27337 -1.92569 0
M  V30 5063 C 493.344 -3.54167 -0.650987 0
M  V30 5064 C 493.197 -4.45933 0.588539 0
M  V30 5065 C 494.516 -4.14645 -1.47506 0
M  V30 5066 H 491.635 -0.729075 -0.107788 0
M  V30 5067 H 494.277 -1.85286 0.420606 0
M  V30 5068 H 492.427 -3.67313 -1.26544 0
M  V30 5069 H 494.099 -4.44683 1.22697 0
M  V30 5070 H 492.342 -4.16274 1.22058 0
M  V30 5071 H 493.013 -5.51189 0.299153 0
M  V30 5072 H 495.489 -4.04973 -0.955821 0
M  V30 5073 H 494.365 -5.22269 -1.68899 0
M  V30 5074 H 494.626 -3.66921 -2.4662 0
M  V30 5075 N 493.685 -0.035106 -1.57561 0
M  V30 5076 C 494.931 0.64318 -1.92331 0
M  V30 5077 C 495.264 1.71434 -0.912368 0
M  V30 5078 O 494.539 1.94395 0.0640303 0
M  V30 5079 C 494.822 1.25411 -3.37556 0
M  V30 5080 C 494.675 0.192109 -4.4939 0
M  V30 5081 C 495.994 2.17041 -3.82859 0
M  V30 5082 H 493.113 0.232341 -0.699419 0
M  V30 5083 H 495.755 -0.0935889 -1.89769 0
M  V30 5084 H 493.905 1.88205 -3.39869 0
M  V30 5085 H 495.577 -0.438849 -4.59208 0
M  V30 5086 H 493.82 -0.481725 -4.31117 0
M  V30 5087 H 494.491 0.659292 -5.48049 0
M  V30 5088 H 496.967 1.64228 -3.8232 0
M  V30 5089 H 495.843 2.56738 -4.85157 0
M  V30 5090 H 496.104 3.06401 -3.18702 0
M  V30 5091 N 495.163 1.55791 0.238111 0
M  V30 5092 C 496.391 1.82098 0.982233 0
M  V30 5093 C 496.806 0.612025 1.78605 0
M  V30 5094 O 496.163 -0.419381 1.77616 0
M  V30 5095 C 496.214 3.0673 1.91309 0
M  V30 5096 O 495.935 4.2296 1.14179 0
M  V30 5097 C 497.436 3.45903 2.77248 0
M  V30 5098 H 494.656 0.605748 0.288635 0
M  V30 5099 H 497.2 2.02862 0.258341 0
M  V30 5100 H 495.355 2.87991 2.59114 0
M  V30 5101 H 495.769 4.93653 1.7722 0
M  V30 5102 H 497.243 4.36189 3.38295 0
M  V30 5103 H 497.72 2.66891 3.48806 0
M  V30 5104 H 498.326 3.67024 2.14881 0
M  V30 5105 N 496.642 -0.504142 1.49319 0
M  V30 5106 C 497.605 -1.5883 1.65244 0
M  V30 5107 C 498.605 -1.52009 0.524386 0
M  V30 5108 O 499.795 -1.55218 0.79077 0
M  V30 5109 C 496.927 -2.98481 1.64687 0
M  V30 5110 H 498.12 -1.4604 2.61939 0
M  V30 5111 H 495.673 -0.728144 1.38303 0
M  V30 5112 H 496.408 -3.16751 0.695644 0
M  V30 5113 H 496.193 -3.0484 2.46607 0
M  V30 5114 H 497.683 -3.77256 1.79075 0
M  V30 5115 N 498.12 -1.38341 -0.754957 0
M  V30 5116 C 499.03 -1.3769 -1.89944 0
M  V30 5117 C 500.046 -0.274194 -1.71826 0
M  V30 5118 O 501.222 -0.512391 -1.94773 0
M  V30 5119 C 498.287 -1.19938 -3.25293 0
M  V30 5120 C 497.348 -2.40001 -3.55946 0
M  V30 5121 C 496.581 -2.23087 -4.84838 0
M  V30 5122 O 496.804 -1.22386 -5.57116 0
M  V30 5123 O 495.738 -3.11646 -5.14937 0
M  V30 5124 H 499.564 -2.3412 -1.93446 0
M  V30 5125 H 497.149 -1.19246 -0.900044 0
M  V30 5126 H 499.031 -1.12093 -4.06218 0
M  V30 5127 H 497.706 -0.265919 -3.22606 0
M  V30 5128 H 496.613 -2.53421 -2.75188 0
M  V30 5129 H 497.946 -3.31973 -3.63394 0
M  V30 5130 N 499.598 0.982988 -1.23187 0
M  V30 5131 C 500.561 2.05649 -1.01198 0
M  V30 5132 C 501.561 1.6078 0.0252464 0
M  V30 5133 O 502.751 1.72878 -0.214243 0
M  V30 5134 C 499.883 3.36744 -0.530656 0
M  V30 5135 H 501.076 2.2659 -1.96461 0
M  V30 5136 H 498.629 1.15602 -1.05195 0
M  V30 5137 H 499.364 3.21492 0.425873 0
M  V30 5138 H 499.149 3.7065 -1.2791 0
M  V30 5139 H 500.639 4.15705 -0.397366 0
M  V30 5140 N 501.076 1.04316 1.18135 0
M  V30 5141 C 502.353 0.662166 1.84051 0
M  V30 5142 C 502.733 -0.858169 1.9287 0
M  V30 5143 O 502.081 -1.76062 1.45652 0
M  V30 5144 C 502.291 1.3409 3.22212 0
M  V30 5145 C 503.639 1.4733 3.9822 0
M  V30 5146 O 504.663 1.29921 3.31661 0
M  V30 5147 O 503.522 1.75722 5.17479 0
M  V30 5148 H 500.616 0.232005 0.79379 0
M  V30 5149 H 503.162 1.1422 1.25506 0
M  V30 5150 H 501.934 2.37853 3.10711 0
M  V30 5151 H 501.557 0.849649 3.88416 0
M  V30 5152 N 502.554 -1.34406 0.822964 0
M  V30 5153 C 503.831 -1.92733 0.333641 0
M  V30 5154 C 504.211 -1.75107 -1.17901 0
M  V30 5155 O 503.559 -1.12983 -1.98613 0
M  V30 5156 C 503.769 -3.40557 0.763023 0
M  V30 5157 C 505.117 -4.17709 0.761879 0
M  V30 5158 O 506.141 -3.49141 0.705606 0
M  V30 5159 O 505 -5.40082 0.835109 0
M  V30 5160 H 502.094 -0.821964 0.0911249 0
M  V30 5161 H 504.64 -1.4338 0.907757 0
M  V30 5162 H 503.412 -3.47187 1.8049 0
M  V30 5163 H 503.035 -3.97259 0.164605 0
M  V30 5164 N 504.032 -0.577932 -1.46621 0
M  V30 5165 C 505.278 -0.0617793 -2.02706 0
M  V30 5166 C 505.611 1.29294 -1.44903 0
M  V30 5167 O 504.886 1.8461 -0.61232 0
M  V30 5168 C 505.169 0.00911824 -3.60099 0
M  V30 5169 C 505.022 -1.37416 -4.28295 0
M  V30 5170 C 506.341 0.712159 -4.343 0
M  V30 5171 H 503.46 -0.0239246 -0.736612 0
M  V30 5172 H 506.102 -0.744211 -1.74818 0
M  V30 5173 H 504.252 0.590292 -3.83989 0
M  V30 5174 H 505.924 -2.00013 -4.15683 0
M  V30 5175 H 504.167 -1.94319 -3.87843 0
M  V30 5176 H 504.838 -1.27707 -5.37024 0
M  V30 5177 H 507.314 0.218486 -4.15526 0
M  V30 5178 H 506.19 0.730782 -5.44014 0
M  V30 5179 H 506.451 1.77251 -4.05012 0
M  V30 5180 N 505.51 1.54411 -0.315457 0
M  V30 5181 C 506.44 2.27002 0.547039 0
M  V30 5182 C 507.421 1.27492 1.12605 0
M  V30 5183 O 508.606 1.5629 1.15269 0
M  V30 5184 C 505.736 3.02171 1.71201 0
M  V30 5185 C 504.69 4.0895 1.26268 0
M  V30 5186 C 504.016 4.71915 2.51396 0
M  V30 5187 C 505.316 5.20891 0.383419 0
M  V30 5188 H 507.01 2.99343 -0.0584517 0
M  V30 5189 H 504.556 1.4397 -0.0295527 0
M  V30 5190 H 506.509 3.51681 2.32161 0
M  V30 5191 H 505.233 2.27433 2.34397 0
M  V30 5192 H 503.892 3.60312 0.676062 0
M  V30 5193 H 503.54 3.93801 3.12937 0
M  V30 5194 H 503.24 5.44039 2.22026 0
M  V30 5195 H 504.764 5.24195 3.13133 0
M  V30 5196 H 506.178 5.66206 0.899082 0
M  V30 5197 H 504.575 5.99821 0.182857 0
M  V30 5198 H 505.645 4.81324 -0.587821 0
M  V30 5199 N 506.988 0.0434614 1.5754 0
M  V30 5200 C 508.399 -0.493343 1.80064 0
M  V30 5201 C 508.75 -1.71388 0.955023 0
M  V30 5202 O 507.875 -2.15736 0.169434 0
M  V30 5203 C 508.47 -0.90179 3.26578 0
M  V30 5204 C 507.029 -1.38362 3.50047 0
M  V30 5205 C 506.176 -0.355129 2.75017 0
M  V30 5206 H 509.127 0.2694 1.56397 0
M  V30 5207 H 509.148 -1.76523 3.37075 0
M  V30 5208 H 508.66 -0.013271 3.88098 0
M  V30 5209 H 506.761 -2.29159 2.93798 0
M  V30 5210 H 506.874 -1.3811 4.58762 0
M  V30 5211 H 505.238 -0.826348 2.40922 0
M  V30 5212 H 506.021 0.525172 3.39259 0
M  V30 5213 N 508.466 -1.55915 -0.229846 0
M  V30 5214 C 509.429 -1.90914 -1.26824 0
M  V30 5215 C 510.429 -0.786999 -1.40225 0
M  V30 5216 O 511.619 -1.05484 -1.38632 0
M  V30 5217 C 508.751 -2.15264 -2.64337 0
M  V30 5218 H 509.944 -2.8378 -0.969998 0
M  V30 5219 H 507.497 -1.49069 -0.4699 0
M  V30 5220 H 508.232 -1.24923 -2.99274 0
M  V30 5221 H 508.017 -2.97005 -2.55989 0
M  V30 5222 H 509.507 -2.43467 -3.39284 0
M  V30 5223 N 509.944 0.496216 -1.49584 0
M  V30 5224 C 511.355 1.07765 -1.52459 0
M  V30 5225 C 511.706 1.93679 -0.31353 0
M  V30 5226 O 510.831 2.08588 0.576186 0
M  V30 5227 C 511.426 1.96111 -2.76271 0
M  V30 5228 C 509.985 2.49409 -2.81908 0
M  V30 5229 C 509.132 1.27142 -2.46435 0
M  V30 5230 H 512.083 0.279914 -1.56212 0
M  V30 5231 H 512.104 2.80862 -2.56704 0
M  V30 5232 H 511.616 1.33555 -3.64396 0
M  V30 5233 H 509.717 3.1559 -1.98074 0
M  V30 5234 H 509.83 2.86234 -3.84196 0
M  V30 5235 H 508.194 1.59818 -1.98319 0
M  V30 5236 H 508.977 0.662866 -3.3684 0
M  V30 5237 N 511.423 1.38739 0.74761 0
M  V30 5238 C 512.669 1.35475 1.50912 0
M  V30 5239 C 513.002 -0.0533093 1.94127 0
M  V30 5240 O 512.277 -1.01572 1.65871 0
M  V30 5241 C 512.56 2.31582 2.75757 0
M  V30 5242 C 512.413 3.81274 2.38642 0
M  V30 5243 C 513.732 2.25722 3.77806 0
M  V30 5244 H 510.851 0.493427 0.547447 0
M  V30 5245 H 513.493 1.69634 0.855823 0
M  V30 5246 H 511.643 2.02582 3.31501 0
M  V30 5247 H 513.315 4.20972 1.88626 0
M  V30 5248 H 511.558 3.98664 1.71025 0
M  V30 5249 H 512.229 4.4399 3.27989 0
M  V30 5250 H 514.705 2.51336 3.31616 0
M  V30 5251 H 513.581 2.95069 4.62845 0
M  V30 5252 H 513.842 1.25803 4.23823 0
M  V30 5253 N 512.901 -0.976442 1.23707 0
M  V30 5254 C 514.178 -1.69296 0.979699 0
M  V30 5255 C 514.558 -2.0508 -0.500555 0
M  V30 5256 O 513.906 -1.74708 -1.47273 0
M  V30 5257 C 514.116 -2.93143 1.89389 0
M  V30 5258 C 515.464 -3.65572 2.15968 0
M  V30 5259 O 516.488 -3.03184 1.86971 0
M  V30 5260 O 515.347 -4.77859 2.65167 0
M  V30 5261 H 512.441 -0.739708 0.369812 0
M  V30 5262 H 514.987 -1.03131 1.34767 0
M  V30 5263 H 513.759 -2.63327 2.89439 0
M  V30 5264 H 513.382 -3.67044 1.52854 0
M  V30 5265 N 514.379 -1.04941 -1.1758 0
M  V30 5266 C 515.626 -0.757989 -1.87779 0
M  V30 5267 C 515.954 0.714827 -1.80888 0
M  V30 5268 O 515.209 1.53824 -1.20982 0
M  V30 5269 C 515.508 -1.18062 -3.37337 0
M  V30 5270 C 515.174 -2.65521 -3.6443 0
M  V30 5271 C 513.836 -3.05804 -3.71534 0
M  V30 5272 C 516.188 -3.60822 -3.76108 0
M  V30 5273 C 513.516 -4.40256 -3.87803 0
M  V30 5274 C 515.868 -4.95005 -3.93895 0
M  V30 5275 C 514.532 -5.34945 -3.99237 0
M  V30 5276 H 513.802 -0.277368 -0.68713 0
M  V30 5277 H 516.449 -1.31603 -1.39115 0
M  V30 5278 H 514.754 -0.541525 -3.8804 0
M  V30 5279 H 516.451 -0.932368 -3.9001 0
M  V30 5280 H 513.041 -2.33324 -3.59524 0
M  V30 5281 H 517.225 -3.30841 -3.69943 0
M  V30 5282 H 512.481 -4.70707 -3.90186 0
M  V30 5283 H 516.655 -5.68746 -4.01872 0
M  V30 5284 H 514.282 -6.39135 -4.11596 0
M  V30 5285 O 515.896 1.29495 -0.96506 0
M  V30 5286 H 516.587 1.84082 -0.602793 0
M  V30 END ATOM
M  V30 BEGIN BOND
M  V30 END BOND
M  V30 END CTAB
M  END
$$$$
