drugbank_target|Q14957 Glutamate receptor ionotropic, NMDA 2C (DB00193; DB00289; DB00312; DB00333; DB00418; DB00843; DB00874; DB01174; DB01708; DB04896; DB06738; DB11823)
 OpenBabel12092119323D

  0  0  0     0  0            999 V3000
M  V30 BEGIN CTAB
M  V30 COUNTS 18830 19104 0 0 0
M  V30 BEGIN ATOM
M  V30 1 H -0.908 1.98254 -0.117106 0
M  V30 2 N 0 1.576 0 0
M  V30 3 C 0.933 2.03868 1.02534 0
M  V30 4 C 1.911 0.928543 1.3348 0
M  V30 5 O 3.095 1.19667 1.45644 0
M  V30 6 C 0.222 2.43627 2.35294 0
M  V30 7 C -0.732 3.65373 2.2001 0
M  V30 8 S 0.101 5.13292 1.52614 0
M  V30 9 C 1.257 5.56322 2.86805 0
M  V30 10 H 1.49 2.90518 0.631377 0
M  V30 11 H -0.977 1.52953 0.210867 0
M  V30 12 H 0.981 2.67203 3.11629 0
M  V30 13 H -0.358 1.57376 2.7183 0
M  V30 14 H -1.165 3.90944 3.18086 0
M  V30 15 H -1.563 3.418 1.51819 0
M  V30 16 H 0.729 5.58782 3.83104 0
M  V30 17 H 1.672 6.56266 2.65933 0
M  V30 18 H 2.08 4.83886 2.90714 0
M  V30 19 N 1.4781 -0.272755 1.55222 0
M  V30 20 C 2.7261 -1.00234 1.75492 0
M  V30 21 C 3.0471 -1.8681 0.5592 0
M  V30 22 O 2.3171 -1.91215 -0.425882 0
M  V30 23 H 0.8971 -0.373076 0.647166 0
M  V30 24 H 3.5591 -0.296926 1.92625 0
M  V30 25 H 2.6551 -1.63913 2.65592 0
M  V30 26 N 2.9562 -1.48159 -0.537278 0
M  V30 27 C 4.2042 -1.55497 -1.29094 0
M  V30 28 C 4.5252 -0.227454 -1.93669 0
M  V30 29 O 3.7952 0.750386 -1.80959 0
M  V30 30 H 2.3752 -0.572832 -0.47945 0
M  V30 31 H 5.0372 -1.84579 -0.625818 0
M  V30 32 H 4.1332 -2.33216 -2.07405 0
M  V30 33 N 4.4343 0.785586 -1.36625 0
M  V30 34 C 5.3973 1.87999 -1.31107 0
M  V30 35 C 6.3973 1.59316 -0.217959 0
M  V30 36 O 7.5873 1.67656 -0.472977 0
M  V30 37 C 4.7193 3.24861 -1.03334 0
M  V30 38 H 5.9123 1.94307 -2.2844 0
M  V30 39 H 3.4653 0.983813 -1.21453 0
M  V30 40 H 4.2003 3.24235 -0.0647432 0
M  V30 41 H 3.9853 3.4707 -1.82441 0
M  V30 42 H 5.4753 4.04929 -1.02088 0
M  V30 43 N 5.9124 1.20967 1.01018 0
M  V30 44 C 6.8424 0.988272 2.11555 0
M  V30 45 C 7.8234 -0.0849778 1.69888 0
M  V30 46 O 9.0084 0.0738202 1.9406 0
M  V30 47 C 6.1384 0.546528 3.42973 0
M  V30 48 C 5.0924 1.56375 3.9841 0
M  V30 49 C 4.4184 0.97842 5.25672 0
M  V30 50 C 5.7184 2.94922 4.31066 0
M  V30 51 H 7.4124 1.91276 2.30334 0
M  V30 52 H 4.9584 0.921073 1.1069 0
M  V30 53 H 6.9114 0.378839 4.19694 0
M  V30 54 H 5.6354 -0.413598 3.23971 0
M  V30 55 H 4.2944 1.71891 3.23804 0
M  V30 56 H 3.9424 0.0101688 5.02999 0
M  V30 57 H 3.6424 1.65784 5.63728 0
M  V30 58 H 5.1664 0.821939 6.05043 0
M  V30 59 H 6.5804 2.8288 4.9865 0
M  V30 60 H 4.9774 3.5983 4.80253 0
M  V30 61 H 6.0474 3.4616 3.39561 0
M  V30 62 N 7.3905 -1.2043 1.01659 0
M  V30 63 C 8.6385 -1.89423 0.704522 0
M  V30 64 C 8.9595 -1.79231 -0.768197 0
M  V30 65 O 8.2295 -1.1947 -1.55254 0
M  V30 66 H 6.8095 -0.701178 0.257602 0
M  V30 67 H 9.4715 -1.4626 1.28818 0
M  V30 68 H 8.5675 -2.96052 0.987916 0
M  V30 69 N 8.8686 -0.792821 -1.36206 0
M  V30 70 C 10.2796 -0.429513 -1.81692 0
M  V30 71 C 10.6306 1.04695 -1.65932 0
M  V30 72 O 9.7556 1.81256 -1.18218 0
M  V30 73 C 10.3506 -0.772831 -3.29868 0
M  V30 74 C 8.9096 -0.462307 -3.7355 0
M  V30 75 C 8.0566 -1.00569 -2.5842 0
M  V30 76 H 11.0076 -0.985672 -1.24379 0
M  V30 77 H 11.0286 -0.0651928 -3.80444 0
M  V30 78 H 10.5406 -1.84747 -3.41307 0
M  V30 79 H 8.6416 0.604158 -3.67669 0
M  V30 80 H 8.7546 -0.985299 -4.68859 0
M  V30 81 H 7.1186 -0.428734 -2.51066 0
M  V30 82 H 7.9016 -2.08616 -2.72643 0
M  V30 83 N 10.3467 1.47872 -0.545128 0
M  V30 84 C 11.3097 2.28337 0.198717 0
M  V30 85 C 12.3097 1.36255 0.853888 0
M  V30 86 O 13.4997 1.59003 0.711606 0
M  V30 87 C 10.6317 3.15585 1.28915 0
M  V30 88 H 11.8247 2.95567 -0.507941 0
M  V30 89 H 9.3777 1.53362 -0.301616 0
M  V30 90 H 10.1127 2.53019 2.02859 0
M  V30 91 H 9.8977 3.83337 0.824309 0
M  V30 92 H 11.3877 3.76243 1.81194 0
M  V30 93 N 11.8248 0.280983 1.55075 0
M  V30 94 C 12.7548 -0.597469 2.25727 0
M  V30 95 C 13.7358 -1.15417 1.24952 0
M  V30 96 O 14.9208 -1.18722 1.53684 0
M  V30 97 C 12.0508 -1.7789 2.98283 0
M  V30 98 C 11.0048 -1.35347 4.06036 0
M  V30 99 C 10.3308 -2.61846 4.66198 0
M  V30 100 C 11.6308 -0.499354 5.19907 0
M  V30 101 H 13.3248 -0.00824265 2.99399 0
M  V30 102 H 10.8708 -0.0025244 1.44 0
M  V30 103 H 12.8238 -2.39937 3.46422 0
M  V30 104 H 11.5478 -2.39405 2.22155 0
M  V30 105 H 10.2068 -0.756156 3.58717 0
M  V30 106 H 9.8548 -3.21632 3.86732 0
M  V30 107 H 9.5548 -2.3409 5.38958 0
M  V30 108 H 11.0788 -3.24732 5.1709 0
M  V30 109 H 12.4928 -1.02498 5.64063 0
M  V30 110 H 10.8898 -0.316424 5.99265 0
M  V30 111 H 11.9598 0.480459 4.82514 0
M  V30 112 N 13.3029 -1.57598 0.00835791 0
M  V30 113 C 14.2329 -2.1198 -0.979113 0
M  V30 114 C 15.2139 -1.03091 -1.35301 0
M  V30 115 O 16.3989 -1.30818 -1.43528 0
M  V30 116 C 13.5289 -2.62995 -2.26828 0
M  V30 117 C 12.4829 -3.76485 -2.03576 0
M  V30 118 C 11.8089 -4.13846 -3.38579 0
M  V30 119 C 13.1089 -5.0342 -1.39161 0
M  V30 120 H 14.8029 -2.94738 -0.526281 0
M  V30 121 H 12.3489 -1.41783 -0.251704 0
M  V30 122 H 14.3019 -2.99669 -2.96271 0
M  V30 123 H 13.0259 -1.7737 -2.7424 0
M  V30 124 H 11.6849 -3.40217 -1.36557 0
M  V30 125 H 11.3329 -3.25232 -3.83709 0
M  V30 126 H 11.0329 -4.90312 -3.23834 0
M  V30 127 H 12.5569 -4.53086 -4.09323 0
M  V30 128 H 13.9709 -5.37812 -1.98573 0
M  V30 129 H 12.3679 -5.84746 -1.34878 0
M  V30 130 H 13.4379 -4.83548 -0.361868 0
M  V30 131 N 14.781 0.264519 -1.55364 0
M  V30 132 C 15.711 1.33121 -1.91836 0
M  V30 133 C 16.692 1.51101 -0.781192 0
M  V30 134 O 17.877 1.64003 -1.04003 0
M  V30 135 C 15.007 2.68921 -2.19769 0
M  V30 136 C 13.961 2.65661 -3.35571 0
M  V30 137 C 13.287 4.05093 -3.49004 0
M  V30 138 C 14.587 2.24187 -4.71739 0
M  V30 139 H 16.281 1.02844 -2.81182 0
M  V30 140 H 13.827 0.493286 -1.35287 0
M  V30 141 H 15.78 3.43663 -2.43872 0
M  V30 142 H 14.504 3.00799 -1.27231 0
M  V30 143 H 13.163 1.93377 -3.1145 0
M  V30 144 H 12.811 4.34206 -2.53917 0
M  V30 145 H 12.511 4.03804 -4.26868 0
M  V30 146 H 14.035 4.81561 -3.75408 0
M  V30 147 H 15.449 2.88654 -4.9533 0
M  V30 148 H 13.846 2.34044 -5.52579 0
M  V30 149 H 14.916 1.19327 -4.69988 0
M  V30 150 N 16.2591 1.48442 0.529413 0
M  V30 151 C 17.4871 1.60151 1.30994 0
M  V30 152 C 17.9021 0.261985 1.86973 0
M  V30 153 O 17.2591 -0.748805 1.66431 0
M  V30 154 C 17.3101 2.64854 2.46038 0
M  V30 155 O 17.0311 3.93608 1.92365 0
M  V30 156 C 18.5321 2.87007 3.37849 0
M  V30 157 H 15.7521 0.539971 0.398338 0
M  V30 158 H 18.2961 1.94273 0.638597 0
M  V30 159 H 16.4511 2.33589 3.09055 0
M  V30 160 H 16.8651 4.51055 2.67675 0
M  V30 161 H 18.3391 3.64068 4.14919 0
M  V30 162 H 18.8161 1.95852 3.93114 0
M  V30 163 H 19.4221 3.19579 2.80623 0
M  V30 164 N 17.7372 -0.778329 1.37039 0
M  V30 165 C 18.9622 -1.57248 1.35233 0
M  V30 166 C 19.3872 -1.87999 -0.0615568 0
M  V30 167 O 18.7452 -1.48734 -1.03672 0
M  V30 168 C 18.7932 -2.86353 2.19167 0
M  V30 169 O 17.8972 -3.80442 1.59178 0
M  V30 170 H 17.2382 -0.476569 0.462362 0
M  V30 171 H 19.7682 -0.963853 1.80474 0
M  V30 172 H 19.7782 -3.35519 2.32145 0
M  V30 173 H 18.4532 -2.63299 3.21942 0
M  V30 174 H 17.0302 -3.39067 1.55203 0
M  V30 175 N 19.2153 -1.21501 -1.00376 0
M  V30 176 C 20.1453 -0.999478 -2.11028 0
M  V30 177 C 21.1263 0.0759671 -1.6993 0
M  V30 178 O 22.3113 -0.0841106 -1.94018 0
M  V30 179 C 19.4413 -0.564709 -3.42678 0
M  V30 180 C 18.3953 -1.58486 -3.97576 0
M  V30 181 C 17.7213 -1.00628 -5.25146 0
M  V30 182 C 19.0213 -2.97204 -4.29496 0
M  V30 183 H 20.7153 -1.92495 -2.29317 0
M  V30 184 H 18.2613 -0.92693 -1.102 0
M  V30 185 H 20.2143 -0.401091 -4.19487 0
M  V30 186 H 18.9383 0.396411 -3.24185 0
M  V30 187 H 17.5973 -1.73606 -3.22888 0
M  V30 188 H 17.2453 -0.0368439 -5.02987 0
M  V30 189 H 16.9453 -1.68771 -5.62841 0
M  V30 190 H 18.4693 -0.854015 -6.04598 0
M  V30 191 H 19.8833 -2.8552 -4.97143 0
M  V30 192 H 18.2803 -3.62372 -4.78338 0
M  V30 193 H 19.3503 -3.47956 -3.3772 0
M  V30 194 N 20.6934 1.19889 -1.02296 0
M  V30 195 C 21.9404 1.8942 -0.715972 0
M  V30 196 C 22.2684 1.79251 0.754944 0
M  V30 197 O 21.5234 1.17526 1.56481 0
M  V30 198 C 21.8224 3.39883 -1.10518 0
M  V30 199 C 21.4884 3.70254 -2.57337 0
M  V30 200 C 20.1504 3.78254 -2.97452 0
M  V30 201 C 22.5024 3.84052 -3.52354 0
M  V30 202 C 19.8304 3.97514 -4.31509 0
M  V30 203 C 22.1824 4.04824 -4.86108 0
M  V30 204 C 20.8464 4.11054 -5.25919 0
M  V30 205 H 20.1164 0.693138 -0.261993 0
M  V30 206 H 22.7634 1.42012 -1.28472 0
M  V30 207 H 21.0684 3.8915 -0.454953 0
M  V30 208 H 22.7654 3.9199 -0.845261 0
M  V30 209 H 19.3554 3.64632 -2.25258 0
M  V30 210 H 23.5394 3.77221 -3.22518 0
M  V30 211 H 18.7954 4.00574 -4.61898 0
M  V30 212 H 22.9694 4.14442 -5.59653 0
M  V30 213 H 20.5964 4.2573 -6.29808 0
M  V30 214 N 22.1715 0.800033 1.35784 0
M  V30 215 C 23.4195 0.376597 1.9856 0
M  V30 216 C 23.7405 -1.05812 1.63795 0
M  V30 217 O 23.0105 -1.73103 0.917171 0
M  V30 218 H 21.5905 0.136261 0.734467 0
M  V30 219 H 24.2525 1.02442 1.65806 0
M  V30 220 H 23.3485 0.477002 3.08433 0
M  V30 221 N 23.6496 -1.47581 0.552962 0
M  V30 222 C 24.6126 -2.28439 -0.186605 0
M  V30 223 C 25.6126 -1.36706 -0.84665 0
M  V30 224 O 26.8026 -1.59378 -0.703164 0
M  V30 225 C 23.9346 -3.16264 -1.2724 0
M  V30 226 H 25.1276 -2.95294 0.523609 0
M  V30 227 H 22.6806 -1.532 0.309745 0
M  V30 228 H 23.4156 -2.54091 -2.01514 0
M  V30 229 H 23.2006 -3.83769 -0.803968 0
M  V30 230 H 24.6906 -3.77198 -1.79196 0
M  V30 231 N 25.1277 -0.289203 -1.54924 0
M  V30 232 C 26.3737 0.316922 -2.00916 0
M  V30 233 C 26.7287 1.52424 -1.17408 0
M  V30 234 O 26.0217 1.90097 -0.239536 0
M  V30 235 C 26.2157 0.736119 -3.49737 0
M  V30 236 C 26.0447 -0.429036 -4.47649 0
M  V30 237 C 24.8147 -0.917311 -4.96904 0
M  V30 238 C 27.0127 -1.27016 -4.98369 0
M  V30 239 N 24.9947 -2.05046 -5.78644 0
M  V30 240 C 26.3657 -2.25097 -5.77695 0
M  V30 241 C 28.4207 -1.30188 -4.80578 0
M  V30 242 C 27.1237 -3.26114 -6.41126 0
M  V30 243 C 29.1497 -2.30057 -5.44819 0
M  V30 244 C 28.5117 -3.2687 -6.23968 0
M  V30 245 H 24.6107 0.0807535 -0.777819 0
M  V30 246 H 27.1947 -0.416434 -1.90194 0
M  V30 247 H 25.3657 1.43867 -3.60773 0
M  V30 248 H 27.0977 1.32078 -3.82541 0
M  V30 249 H 23.8527 -0.494248 -4.71014 0
M  V30 250 H 24.2767 -2.62108 -6.24202 0
M  V30 251 H 28.9187 -0.567163 -4.18979 0
M  V30 252 H 26.6367 -4.00512 -7.01866 0
M  V30 253 H 30.2227 -2.33271 -5.32988 0
M  V30 254 H 29.1027 -4.02883 -6.72796 0
M  V30 255 N 26.6058 1.57591 -0.0167156 0
M  V30 256 C 27.5688 2.08393 0.954204 0
M  V30 257 C 28.5688 0.996531 1.26198 0
M  V30 258 O 29.7588 1.25858 1.20438 0
M  V30 259 C 26.8908 2.5394 2.27436 0
M  V30 260 H 28.0838 2.95455 0.514451 0
M  V30 261 H 25.6368 1.54582 0.231089 0
M  V30 262 H 26.3718 1.70171 2.76066 0
M  V30 263 H 26.1568 3.33371 2.06412 0
M  V30 264 H 27.6468 2.93512 2.97053 0
M  V30 265 N 28.0839 -0.256276 1.55502 0
M  V30 266 C 29.3319 -0.983672 1.76545 0
M  V30 267 C 29.6529 -1.86206 0.578982 0
M  V30 268 O 28.9229 -1.91656 -0.405577 0
M  V30 269 H 27.5029 -0.366191 0.651086 0
M  V30 270 H 30.1649 -0.276479 1.92929 0
M  V30 271 H 29.2609 -1.61087 2.67315 0
M  V30 272 N 29.562 -1.4872 -0.521534 0
M  V30 273 C 30.492 -1.66771 -1.63431 0
M  V30 274 C 31.473 -0.516499 -1.62069 0
M  V30 275 O 32.658 -0.750013 -1.79132 0
M  V30 276 C 29.788 -1.71515 -3.01993 0
M  V30 277 C 28.742 -2.86222 -3.18216 0
M  V30 278 C 28.068 -2.76061 -4.57924 0
M  V30 279 C 29.368 -4.27419 -3.00184 0
M  V30 280 H 31.062 -2.59932 -1.48579 0
M  V30 281 H 28.608 -1.25089 -0.713358 0
M  V30 282 H 30.561 -1.82731 -3.7972 0
M  V30 283 H 29.285 -0.749393 -3.17886 0
M  V30 284 H 27.944 -2.74575 -2.42908 0
M  V30 285 H 27.592 -1.77437 -4.70665 0
M  V30 286 H 27.292 -3.53037 -4.69722 0
M  V30 287 H 28.816 -2.89256 -5.37739 0
M  V30 288 H 30.23 -4.39855 -3.67697 0
M  V30 289 H 28.627 -5.05458 -3.2347 0
M  V30 290 H 29.697 -4.43293 -1.96518 0
M  V30 291 N 31.0401 0.771051 -1.3745 0
M  V30 292 C 32.2881 1.52661 -1.32435 0
M  V30 293 C 32.6091 1.9479 0.0905024 0
M  V30 294 O 31.8791 1.66348 1.03466 0
M  V30 295 H 30.4591 0.566218 -0.487244 0
M  V30 296 H 33.1211 0.917636 -1.71946 0
M  V30 297 H 32.2171 2.42568 -1.96385 0
M  V30 298 N 32.5182 1.22032 0.997298 0
M  V30 299 C 33.9292 1.0397 1.55071 0
M  V30 300 C 34.2802 -0.398192 1.92117 0
M  V30 301 O 33.4052 -1.28254 1.74298 0
M  V30 302 C 34.0002 1.88109 2.81781 0
M  V30 303 C 32.5592 1.74357 3.33581 0
M  V30 304 C 31.7062 1.84846 2.06706 0
M  V30 305 H 34.6572 1.35941 0.818883 0
M  V30 306 H 34.6782 1.39589 3.53971 0
M  V30 307 H 34.1902 2.92754 2.54787 0
M  V30 308 H 32.2912 0.72427 3.65493 0
M  V30 309 H 32.4042 2.56772 4.04481 0
M  V30 310 H 30.7682 1.28238 2.20062 0
M  V30 311 H 31.5512 2.91014 1.82114 0
M  V30 312 N 33.9963 -1.19345 1.0293 0
M  V30 313 C 35.2443 -1.88665 0.724574 0
M  V30 314 C 35.5653 -1.80036 -0.749144 0
M  V30 315 O 34.8353 -1.2111 -1.53978 0
M  V30 316 H 33.4153 -0.698406 0.265025 0
M  V30 317 H 36.0773 -1.44885 1.30362 0
M  V30 318 H 35.1733 -2.94987 1.01926 0
M  V30 319 N 35.4744 -0.807222 -1.35358 0
M  V30 320 C 36.4064 -0.175717 -2.28525 0
M  V30 321 C 37.4194 0.625354 -1.5031 0
M  V30 322 O 38.6084 0.457611 -1.72535 0
M  V30 323 C 35.7084 0.773471 -3.29956 0
M  V30 324 C 34.8814 0.0186296 -4.37396 0
M  V30 325 C 33.9404 0.886395 -5.18681 0
M  V30 326 O 32.9664 0.337106 -5.68201 0
M  V30 327 N 34.1684 2.20839 -5.36852 0
M  V30 328 H 36.9334 -0.976091 -2.83359 0
M  V30 329 H 34.4944 -0.662737 -1.47714 0
M  V30 330 H 36.4864 1.35824 -3.81227 0
M  V30 331 H 35.0564 1.47465 -2.75632 0
M  V30 332 H 34.2764 -0.747349 -3.87051 0
M  V30 333 H 35.5644 -0.501577 -5.06322 0
M  V30 334 H 34.9624 2.67858 -4.98265 0
M  V30 335 H 33.5194 2.74237 -5.91301 0
M  V30 336 N 36.9525 1.47285 -0.560781 0
M  V30 337 C 38.2005 2.02064 -0.0379868 0
M  V30 338 C 38.5215 1.43711 1.31803 0
M  V30 339 O 37.7915 0.61362 1.86042 0
M  V30 340 H 36.3715 0.746918 -0.0110531 0
M  V30 341 H 39.0335 1.80648 -0.731598 0
M  V30 342 H 38.1295 3.12064 0.0474463 0
M  V30 343 N 38.4306 0.297415 1.54768 0
M  V30 344 C 39.3406 -0.58983 2.27064 0
M  V30 345 C 40.3566 -1.15144 1.30453 0
M  V30 346 O 41.5326 -1.17699 1.63428 0
M  V30 347 C 38.5976 -1.74714 2.9946 0
M  V30 348 C 37.6586 -1.21997 4.11601 0
M  V30 349 C 36.8916 -2.32212 4.80535 0
M  V30 350 O 37.1146 -3.52036 4.48806 0
M  V30 351 O 36.0486 -1.99106 5.68014 0
M  V30 352 H 39.8746 -0.00348199 3.037 0
M  V30 353 H 37.4596 0.0640035 1.49263 0
M  V30 354 H 39.3416 -2.42147 3.44881 0
M  V30 355 H 38.0166 -2.32016 2.25722 0
M  V30 356 H 36.9236 -0.511458 3.70587 0
M  V30 357 H 38.2566 -0.692419 4.87305 0
M  V30 358 N 39.9087 -1.5758 0.0250728 0
M  V30 359 C 40.8407 -2.06869 -0.986796 0
M  V30 360 C 41.8537 -0.991332 -1.29137 0
M  V30 361 O 43.0427 -1.26761 -1.25674 0
M  V30 362 C 40.1427 -2.47486 -2.31525 0
M  V30 363 C 39.3157 -3.78253 -2.19643 0
M  V30 364 C 38.3747 -4.05464 -3.35388 0
M  V30 365 O 37.4007 -4.75774 -3.12454 0
M  V30 366 N 38.6027 -3.55321 -4.59051 0
M  V30 367 H 41.3677 -2.94302 -0.566276 0
M  V30 368 H 38.9287 -1.6109 -0.161776 0
M  V30 369 H 40.9207 -2.62785 -3.07776 0
M  V30 370 H 39.4907 -1.65441 -2.65232 0
M  V30 371 H 38.7107 -3.7279 -1.28144 0
M  V30 372 H 39.9987 -4.63936 -2.08903 0
M  V30 373 H 39.3967 -2.98431 -4.80578 0
M  V30 374 H 37.9537 -3.75905 -5.32483 0
M  V30 375 N 41.3868 0.248026 -1.55636 0
M  V30 376 C 42.6348 0.974295 -1.77065 0
M  V30 377 C 42.9558 1.85897 -0.588849 0
M  V30 378 O 42.2258 1.91868 0.395407 0
M  V30 379 H 40.8058 0.362733 -0.653019 0
M  V30 380 H 43.4678 0.266244 -1.93073 0
M  V30 381 H 42.5638 1.59667 -2.68166 0
M  V30 382 N 42.8649 1.48995 0.513639 0
M  V30 383 C 43.7979 1.59319 1.63379 0
M  V30 384 C 44.7759 0.442816 1.56454 0
M  V30 385 O 45.9599 0.656655 1.76693 0
M  V30 386 C 43.0869 1.5364 3.01848 0
M  V30 387 C 42.1329 2.7372 3.27078 0
M  V30 388 S 42.9659 4.35528 3.1157 0
M  V30 389 C 44.1219 4.32473 4.52458 0
M  V30 390 H 44.3549 2.54079 1.54374 0
M  V30 391 H 41.8879 1.3773 0.697849 0
M  V30 392 H 43.8459 1.51049 3.81699 0
M  V30 393 H 42.5069 0.601898 3.08279 0
M  V30 394 H 41.6999 2.6593 4.28132 0
M  V30 395 H 41.3019 2.73657 2.54927 0
M  V30 396 H 43.5939 4.03414 5.44301 0
M  V30 397 H 44.5369 5.33762 4.65299 0
M  V30 398 H 44.9449 3.62718 4.32546 0
M  V30 399 N 44.343 -0.763751 1.37857 0
M  V30 400 C 45.571 -1.55293 1.36718 0
M  V30 401 C 45.986 -1.88745 -0.0455434 0
M  V30 402 O 45.343 -1.52039 -1.00947 0
M  V30 403 C 45.394 -2.85831 2.2132 0
M  V30 404 O 45.115 -2.5381 3.57089 0
M  V30 405 C 46.616 -3.80023 2.28249 0
M  V30 406 H 43.836 -0.480841 0.468009 0
M  V30 407 H 46.38 -0.946009 1.81303 0
M  V30 408 H 44.535 -3.42926 1.80223 0
M  V30 409 H 44.949 -3.37459 4.01524 0
M  V30 410 H 46.423 -4.68599 2.91752 0
M  V30 411 H 46.9 -4.1973 1.2932 0
M  V30 412 H 47.506 -3.28855 2.69693 0
M  V30 413 N 45.8211 -1.22559 -0.990812 0
M  V30 414 C 47.0671 -1.05297 -1.73322 0
M  V30 415 C 47.4001 0.410655 -1.89808 0
M  V30 416 O 46.6751 1.30439 -1.44277 0
M  V30 417 C 46.9581 -1.76713 -3.13759 0
M  V30 418 C 46.8111 -3.30684 -3.04907 0
M  V30 419 C 48.1301 -1.52121 -4.12974 0
M  V30 420 H 45.2491 -0.38392 -0.629106 0
M  V30 421 H 47.8911 -1.50926 -1.15418 0
M  V30 422 H 46.0411 -1.37924 -3.63193 0
M  V30 423 H 47.7131 -3.7893 -2.63077 0
M  V30 424 H 45.9561 -3.60253 -2.41661 0
M  V30 425 H 46.6271 -3.75833 -4.04294 0
M  V30 426 H 49.1031 -1.85819 -3.72304 0
M  V30 427 H 47.9791 -2.04582 -5.0935 0
M  V30 428 H 48.2401 -0.454257 -4.3976 0
M  V30 429 N 47.2992 1.18797 -1.03562 0
M  V30 430 C 48.2622 2.20464 -0.626769 0
M  V30 431 C 49.2622 1.57721 0.313173 0
M  V30 432 O 50.4522 1.73917 0.0992615 0
M  V30 433 C 47.5842 3.40802 0.0818498 0
M  V30 434 H 48.7772 2.58149 -1.5264 0
M  V30 435 H 46.3302 1.32593 -0.827578 0
M  V30 436 H 47.0652 3.08642 0.995518 0
M  V30 437 H 46.8502 3.8758 -0.593652 0
M  V30 438 H 48.3402 4.16092 0.354584 0
M  V30 439 N 48.7773 0.814389 1.34928 0
M  V30 440 C 50.0233 0.399013 1.98836 0
M  V30 441 C 50.3563 -1.03314 1.64438 0
M  V30 442 O 49.6313 -1.71811 0.911659 0
M  V30 443 C 49.9143 0.591629 3.55207 0
M  V30 444 C 49.7673 2.06928 3.99376 0
M  V30 445 C 51.0863 0.022199 4.40094 0
M  V30 446 H 48.2053 0.146451 0.722303 0
M  V30 447 H 50.8473 1.02537 1.59957 0
M  V30 448 H 48.9973 0.0584441 3.88456 0
M  V30 449 H 50.6693 2.66544 3.76499 0
M  V30 450 H 48.9123 2.56287 3.49999 0
M  V30 451 H 49.5833 2.1549 5.08201 0
M  V30 452 H 52.0593 0.477643 4.13349 0
M  V30 453 H 50.9353 0.186832 5.48582 0
M  V30 454 H 51.1963 -1.07215 4.28902 0
M  V30 455 N 50.2554 -1.46986 0.568584 0
M  V30 456 C 51.5014 -2.02741 0.0488709 0
M  V30 457 C 51.8344 -1.44077 -1.30214 0
M  V30 458 O 51.1094 -0.600552 -1.84996 0
M  V30 459 C 51.3924 -3.60086 -0.032047 0
M  V30 460 C 51.2454 -4.29162 1.34686 0
M  V30 461 C 52.5644 -4.33838 -0.739798 0
M  V30 462 H 49.6834 -0.736749 0.0192338 0
M  V30 463 H 52.3254 -1.75289 0.733065 0
M  V30 464 H 50.4754 -3.83606 -0.61473 0
M  V30 465 H 52.1474 -4.16948 1.97362 0
M  V30 466 H 50.3904 -3.89073 1.91846 0
M  V30 467 H 51.0614 -5.37826 1.24285 0
M  V30 468 H 53.5374 -4.15378 -0.244939 0
M  V30 469 H 52.4134 -5.43537 -0.765406 0
M  V30 470 H 52.6744 -4.03875 -1.79827 0
M  V30 471 N 51.7335 -0.305618 -1.54608 0
M  V30 472 C 52.9805 0.302298 -2.00231 0
M  V30 473 C 53.3085 1.5354 -1.19398 0
M  V30 474 O 52.5635 1.93973 -0.259423 0
M  V30 475 C 52.8625 0.698983 -3.50498 0
M  V30 476 C 52.5285 -0.432903 -4.48817 0
M  V30 477 C 51.1905 -0.743622 -4.75419 0
M  V30 478 C 53.5425 -1.19409 -5.07337 0
M  V30 479 C 50.8705 -1.81857 -5.57804 0
M  V30 480 C 53.2225 -2.25899 -5.90891 0
M  V30 481 C 51.8865 -2.57572 -6.15803 0
M  V30 482 H 51.1565 0.110619 -0.732697 0
M  V30 483 H 53.8035 -0.425674 -1.86709 0
M  V30 484 H 52.1085 1.50711 -3.61654 0
M  V30 485 H 53.8055 1.1806 -3.83227 0
M  V30 486 H 50.3955 -0.18063 -4.28219 0
M  V30 487 H 54.5795 -0.967295 -4.86782 0
M  V30 488 H 49.8355 -2.06864 -5.75341 0
M  V30 489 H 54.0095 -2.85335 -6.35261 0
M  V30 490 H 51.6365 -3.40998 -6.7943 0
M  V30 491 N 53.2116 1.57565 -0.0334293 0
M  V30 492 C 54.4366 1.96689 0.657895 0
M  V30 493 C 54.8616 0.910057 1.64619 0
M  V30 494 O 54.2196 -0.128598 1.80843 0
M  V30 495 C 54.2676 3.34905 1.33683 0
M  V30 496 O 53.3716 3.31574 2.45219 0
M  V30 497 H 52.7126 0.641205 0.172489 0
M  V30 498 H 55.2426 2.04372 -0.0965621 0
M  V30 499 H 55.2526 3.71234 1.69262 0
M  V30 500 H 53.9276 4.11366 0.612411 0
M  V30 501 H 52.5046 3.06968 2.11719 0
M  V30 502 N 54.6897 -0.239769 1.55765 0
M  V30 503 C 55.9147 -0.988373 1.82335 0
M  V30 504 C 56.3397 -1.77886 0.611421 0
M  V30 505 O 55.6977 -1.75889 -0.439639 0
M  V30 506 C 55.7457 -1.89627 3.06715 0
M  V30 507 O 54.8497 -2.98904 2.84131 0
M  V30 508 H 54.1907 -0.280858 0.601677 0
M  V30 509 H 56.7207 -0.258597 2.02959 0
M  V30 510 H 56.7307 -2.30957 3.36338 0
M  V30 511 H 55.4057 -1.31511 3.9456 0
M  V30 512 H 53.9827 -2.61651 2.65694 0
M  V30 513 N 56.1678 -1.49265 -0.50573 0
M  V30 514 C 57.3928 -1.62478 -1.28902 0
M  V30 515 C 57.8178 -0.294332 -1.85783 0
M  V30 516 O 57.1758 0.737412 -1.65626 0
M  V30 517 C 57.2238 -2.69268 -2.39848 0
M  V30 518 O 56.3278 -2.28113 -3.43567 0
M  V30 519 H 55.6688 -0.54399 -0.380751 0
M  V30 520 H 58.1988 -1.95421 -0.605952 0
M  V30 521 H 58.2088 -2.91291 -2.85681 0
M  V30 522 H 56.8838 -3.65846 -1.97812 0
M  V30 523 H 55.4608 -2.16401 -3.03685 0
M  V30 524 N 57.6459 0.756429 -1.3826 0
M  V30 525 C 58.8939 1.51248 -1.34047 0
M  V30 526 C 59.2149 1.94875 0.0698372 0
M  V30 527 O 58.4849 1.67436 1.01696 0
M  V30 528 H 57.0649 0.561018 -0.493222 0
M  V30 529 H 59.7269 0.899347 -1.7291 0
M  V30 530 H 58.8229 2.40472 -1.98947 0
M  V30 531 N 59.124 1.23083 0.984299 0
M  V30 532 C 60.535 1.05609 1.5396 0
M  V30 533 C 60.886 -0.377793 1.92528 0
M  V30 534 O 60.011 -1.26398 1.75649 0
M  V30 535 C 60.606 1.91087 2.7977 0
M  V30 536 C 59.165 1.77885 3.31713 0
M  V30 537 C 58.312 1.87028 2.04733 0
M  V30 538 H 61.263 1.36802 0.804419 0
M  V30 539 H 61.284 1.43336 3.5247 0
M  V30 540 H 60.796 2.9544 2.51668 0
M  V30 541 H 58.897 0.762995 3.64704 0
M  V30 542 H 59.01 2.61047 4.01735 0
M  V30 543 H 57.374 1.30565 2.18689 0
M  V30 544 H 58.157 2.92929 1.79017 0
M  V30 545 N 60.6021 -1.18246 1.0419 0
M  V30 546 C 62.0131 -1.69914 0.773698 0
M  V30 547 C 62.3641 -1.83085 -0.705297 0
M  V30 548 O 61.4891 -1.51123 -1.5489 0
M  V30 549 C 62.0841 -3.08619 1.39784 0
M  V30 550 C 60.6431 -3.57494 1.17792 0
M  V30 551 C 59.7901 -2.34013 1.48773 0
M  V30 552 H 62.7411 -1.02904 1.20816 0
M  V30 553 H 62.7621 -3.71958 0.801714 0
M  V30 554 H 62.2741 -2.99001 2.47426 0
M  V30 555 H 60.3751 -3.72406 0.120295 0
M  V30 556 H 60.4881 -4.40852 1.87581 0
M  V30 557 H 58.8521 -2.37986 0.907463 0
M  V30 558 H 59.6351 -2.27013 2.57527 0
M  V30 559 N 62.0802 -0.821533 -1.34494 0
M  V30 560 C 63.0122 -0.199946 -2.28326 0
M  V30 561 C 64.0252 0.609377 -1.50965 0
M  V30 562 O 65.2142 0.439285 -1.7301 0
M  V30 563 C 62.3142 0.738431 -3.30757 0
M  V30 564 C 61.4872 -0.0277632 -4.37391 0
M  V30 565 C 60.5462 0.831332 -5.19591 0
M  V30 566 O 59.5722 0.276822 -5.68526 0
M  V30 567 N 60.7742 2.15132 -5.39165 0
M  V30 568 H 63.5392 -1.00609 -2.82308 0
M  V30 569 H 61.1002 -0.678366 -1.47003 0
M  V30 570 H 63.0922 1.31773 -3.82646 0
M  V30 571 H 61.6622 1.44533 -2.7718 0
M  V30 572 H 60.8822 -0.788359 -3.86236 0
M  V30 573 H 62.1702 -0.555251 -5.05761 0
M  V30 574 H 61.5682 2.62559 -5.01078 0
M  V30 575 H 60.1252 2.6795 -5.94177 0
M  V30 576 N 63.5583 1.46682 -0.576371 0
M  V30 577 C 64.5213 2.28707 0.150239 0
M  V30 578 C 65.5213 1.38035 0.824794 0
M  V30 579 O 66.7113 1.60476 0.677719 0
M  V30 580 C 63.8433 3.18248 1.22192 0
M  V30 581 H 65.0363 2.94423 -0.570521 0
M  V30 582 H 62.5893 1.52688 -0.334078 0
M  V30 583 H 63.3243 2.57265 1.97447 0
M  V30 584 H 63.1093 3.85 0.742812 0
M  V30 585 H 64.5993 3.80001 1.73172 0
M  V30 586 N 65.0364 0.313813 1.54444 0
M  V30 587 C 65.9684 -0.590425 2.21465 0
M  V30 588 C 66.9814 -1.08753 1.21147 0
M  V30 589 O 68.1704 -1.00278 1.4767 0
M  V30 590 C 65.2704 -1.82179 2.85769 0
M  V30 591 C 64.4434 -1.46502 4.12136 0
M  V30 592 C 63.5024 -2.55288 4.60124 0
M  V30 593 O 62.5284 -2.19842 5.25032 0
M  V30 594 N 63.7304 -3.86053 4.33525 0
M  V30 595 H 66.4954 -0.0166033 2.99695 0
M  V30 596 H 64.0564 0.136578 1.61323 0
M  V30 597 H 66.0484 -2.54328 3.14801 0
M  V30 598 H 64.6184 -2.30369 2.11303 0
M  V30 599 H 63.8384 -0.575595 3.89975 0
M  V30 600 H 65.1264 -1.20221 4.94393 0
M  V30 601 H 64.5244 -4.17654 3.81552 0
M  V30 602 H 63.0814 -4.54461 4.67235 0
M  V30 603 N 66.5145 -1.57545 0.0417849 0
M  V30 604 C 67.7615 -1.92317 -0.634082 0
M  V30 605 C 68.0895 -0.919334 -1.71402 0
M  V30 606 O 67.3445 0.0698253 -1.95575 0
M  V30 607 C 67.6435 -3.33794 -1.27735 0
M  V30 608 C 67.3095 -4.49716 -0.326543 0
M  V30 609 C 65.9715 -4.81156 -0.0648814 0
M  V30 610 C 68.3235 -5.20182 0.325623 0
M  V30 611 C 65.6515 -5.80414 0.856539 0
M  V30 612 C 68.0035 -6.20424 1.23518 0
M  V30 613 C 66.6675 -6.50298 1.5056 0
M  V30 614 H 65.9375 -0.703736 -0.232027 0
M  V30 615 H 68.5845 -1.91205 0.106259 0
M  V30 616 H 66.8895 -3.31228 -2.09274 0
M  V30 617 H 68.5865 -3.57975 -1.80707 0
M  V30 618 H 65.1765 -4.25176 -0.540665 0
M  V30 619 H 69.3605 -4.96112 0.136546 0
M  V30 620 H 64.6165 -6.019 1.07363 0
M  V30 621 H 68.7905 -6.74141 1.74664 0
M  V30 622 H 66.4175 -7.27025 2.22123 0
M  V30 623 N 67.9926 0.231505 -1.5589 0
M  V30 624 C 69.4086 0.580748 -1.48659 0
M  V30 625 C 69.6086 1.87617 -0.73498 0
M  V30 626 O 68.6646 2.51046 -0.270586 0
M  V30 627 C 69.9776 0.669202 -2.93159 0
M  V30 628 C 71.5256 0.760499 -3.03621 0
M  V30 629 C 72.0006 0.880383 -4.49459 0
M  V30 630 N 73.4916 0.944861 -4.53461 0
M  V30 631 C 74.2266 1.05716 -5.63571 0
M  V30 632 N 73.7226 1.13403 -6.83456 0
M  V30 633 N 75.5156 1.09152 -5.514 0
M  V30 634 H 67.6666 -0.618695 -2.03189 0
M  V30 635 H 69.9296 -0.215728 -0.923128 0
M  V30 636 H 69.6356 -0.212904 -3.51055 0
M  V30 637 H 69.5096 1.5361 -3.44505 0
M  V30 638 H 71.8966 1.63305 -2.45796 0
M  V30 639 H 71.9776 -0.131864 -2.5546 0
M  V30 640 H 71.6216 0.0123284 -5.07899 0
M  V30 641 H 71.5516 1.78802 -4.95316 0
M  V30 642 H 74.0426 0.896176 -3.6712 0
M  V30 643 H 74.3556 1.21921 -7.63122 0
M  V30 644 H 72.7006 1.10333 -6.86186 0
M  V30 645 H 75.8916 1.02805 -4.56671 0
M  V30 646 H 76.0646 1.17558 -6.37247 0
M  V30 647 N 69.4707 1.49531 0.497807 0
M  V30 648 C 70.4337 1.65916 1.58128 0
M  V30 649 C 71.4337 0.530825 1.51786 0
M  V30 650 O 72.6237 0.797342 1.54881 0
M  V30 651 C 69.7557 1.65951 2.9778 0
M  V30 652 H 70.9487 2.62556 1.44929 0
M  V30 653 H 68.5017 1.38611 0.722275 0
M  V30 654 H 69.2367 0.709065 3.16453 0
M  V30 655 H 69.0217 2.47897 3.03792 0
M  V30 656 H 70.5117 1.80673 3.76493 0
M  V30 657 N 70.9488 -0.749086 1.3866 0
M  V30 658 C 72.3648 -1.05276 1.19955 0
M  V30 659 C 72.5648 -2.01435 0.05134 0
M  V30 660 O 71.6208 -2.45232 -0.60147 0
M  V30 661 C 72.9338 -1.62853 2.52783 0
M  V30 662 C 74.4818 -1.75002 2.59506 0
M  V30 663 C 74.9568 -2.35991 3.92521 0
M  V30 664 N 76.4478 -2.43416 3.94085 0
M  V30 665 C 77.1828 -2.91511 4.9377 0
M  V30 666 N 76.6788 -3.39608 6.03853 0
M  V30 667 N 78.4718 -2.90592 4.81157 0
M  V30 668 H 70.6228 -0.111066 2.12109 0
M  V30 669 H 72.8858 -0.111901 0.941373 0
M  V30 670 H 72.5918 -0.99664 3.37283 0
M  V30 671 H 72.4658 -2.61854 2.715 0
M  V30 672 H 74.8528 -2.37317 1.75398 0
M  V30 673 H 74.9338 -0.74693 2.44652 0
M  V30 674 H 74.5778 -1.74308 4.77053 0
M  V30 675 H 74.5078 -3.3695 4.04688 0
M  V30 676 H 76.9988 -2.09405 3.14576 0
M  V30 677 H 77.3118 -3.74775 6.75843 0
M  V30 678 H 75.6568 -3.37653 6.07466 0
M  V30 679 H 78.8478 -2.52332 3.94267 0
M  V30 680 H 79.0208 -3.27762 5.58996 0
M  V30 681 N 72.4269 -1.23603 -0.977757 0
M  V30 682 C 73.3569 -1.04401 -2.0886 0
M  V30 683 C 74.3379 0.0399052 -1.70053 0
M  V30 684 O 75.5229 -0.125246 -1.93796 0
M  V30 685 C 72.6529 -0.637269 -3.41403 0
M  V30 686 C 71.6069 -1.66883 -3.94124 0
M  V30 687 C 70.9329 -1.11745 -5.22893 0
M  V30 688 C 72.2329 -3.06247 -4.23096 0
M  V30 689 H 73.9269 -1.97316 -2.25182 0
M  V30 690 H 71.4729 -0.950096 -1.08209 0
M  V30 691 H 73.4259 -0.48998 -4.18542 0
M  V30 692 H 72.1499 0.327557 -3.24953 0
M  V30 693 H 70.8089 -1.80416 -3.19133 0
M  V30 694 H 70.4569 -0.143527 -5.02795 0
M  V30 695 H 70.1569 -1.80672 -5.59134 0
M  V30 696 H 71.6809 -0.982067 -6.02651 0
M  V30 697 H 73.0949 -2.96001 -4.90975 0
M  V30 698 H 71.4919 -3.72436 -4.70544 0
M  V30 699 H 72.5619 -3.55041 -3.30263 0
M  V30 700 N 73.905 1.17692 -1.04816 0
M  V30 701 C 75.133 1.91786 -0.776254 0
M  V30 702 C 75.548 1.76604 0.667577 0
M  V30 703 O 74.905 1.10067 1.45573 0
M  V30 704 C 74.956 3.42967 -1.14263 0
M  V30 705 O 74.677 3.57678 -2.52978 0
M  V30 706 C 76.178 4.34144 -0.896311 0
M  V30 707 H 73.398 0.608624 -0.282519 0
M  V30 708 H 75.942 1.49268 -1.39783 0
M  V30 709 H 74.097 3.83245 -0.565874 0
M  V30 710 H 74.511 4.51319 -2.67229 0
M  V30 711 H 75.985 5.38744 -1.20244 0
M  V30 712 H 76.462 4.38876 0.168636 0
M  V30 713 H 77.068 3.99574 -1.45672 0
M  V30 714 N 75.3831 0.828654 1.34056 0
M  V30 715 C 76.7941 0.477534 1.8049 0
M  V30 716 C 77.1451 -1.00258 1.6865 0
M  V30 717 O 76.2701 -1.78057 1.22982 0
M  V30 718 C 76.8651 0.860018 3.27703 0
M  V30 719 C 75.4241 0.561185 3.72193 0
M  V30 720 C 74.5711 1.07385 2.55663 0
M  V30 721 H 77.5221 1.0183 1.21722 0
M  V30 722 H 77.5431 0.166038 3.80138 0
M  V30 723 H 77.0551 1.93731 3.36288 0
M  V30 724 H 75.1561 -0.506465 3.69142 0
M  V30 725 H 75.2691 1.10926 4.66082 0
M  V30 726 H 73.6331 0.495149 2.49841 0
M  V30 727 H 74.4161 2.15771 2.67016 0
M  V30 728 N 76.8612 -1.46375 0.584142 0
M  V30 729 C 77.7932 -2.28443 -0.186119 0
M  V30 730 C 78.8062 -1.38596 -0.854115 0
M  V30 731 O 79.9952 -1.63183 -0.723438 0
M  V30 732 C 77.0952 -3.13671 -1.28311 0
M  V30 733 C 76.2682 -4.31652 -0.706758 0
M  V30 734 C 75.3272 -4.98267 -1.69163 0
M  V30 735 O 74.3532 -5.55815 -1.22712 0
M  V30 736 N 75.5552 -4.95408 -3.02575 0
M  V30 737 H 78.3202 -2.9519 0.517986 0
M  V30 738 H 75.8812 -1.56303 0.42201 0
M  V30 739 H 77.8732 -3.55101 -1.94128 0
M  V30 740 H 76.4432 -2.48989 -1.89005 0
M  V30 741 H 75.6632 -3.93989 0.128908 0
M  V30 742 H 76.9512 -5.07906 -0.301506 0
M  V30 743 H 76.3492 -4.49902 -3.42936 0
M  V30 744 H 74.9062 -5.40774 -3.63877 0
M  V30 745 N 78.3393 -0.321999 -1.54275 0
M  V30 746 C 79.5643 0.285791 -2.05422 0
M  V30 747 C 79.9893 1.45124 -1.19669 0
M  V30 748 O 79.3473 1.80132 -0.205441 0
M  V30 749 C 79.3953 0.69956 -3.53749 0
M  V30 750 O 78.4993 1.8021 -3.70942 0
M  V30 751 H 77.8403 0.0518962 -0.661969 0
M  V30 752 H 80.3703 -0.469954 -1.9913 0
M  V30 753 H 80.3803 0.982649 -3.9599 0
M  V30 754 H 79.0553 -0.152864 -4.15619 0
M  V30 755 H 77.6323 1.51794 -3.40607 0
M  V30 756 N 79.8174 1.5752 -0.0501392 0
M  V30 757 C 81.0644 1.9265 0.623874 0
M  V30 758 C 81.3924 0.928411 1.70912 0
M  V30 759 O 80.6474 -0.0594525 1.9561 0
M  V30 760 C 80.9464 3.34467 1.25963 0
M  V30 761 C 80.6124 4.49883 0.302689 0
M  V30 762 C 79.2744 4.81184 0.0393636 0
M  V30 763 C 81.6264 5.20002 -0.353205 0
M  V30 764 C 78.9544 5.79951 -0.887308 0
M  V30 765 C 81.3064 6.1976 -1.26806 0
M  V30 766 C 79.9704 6.49491 -1.54007 0
M  V30 767 H 79.2404 0.704957 0.228292 0
M  V30 768 H 81.8874 1.91146 -0.116398 0
M  V30 769 H 80.1924 3.32333 2.07514 0
M  V30 770 H 81.8894 3.58928 1.78806 0
M  V30 771 H 78.4794 4.25457 0.518109 0
M  V30 772 H 82.6634 4.96033 -0.162854 0
M  V30 773 H 77.9194 6.01322 -1.10553 0
M  V30 774 H 82.0934 6.73205 -1.78236 0
M  V30 775 H 79.7204 7.25837 -2.25976 0
M  V30 776 N 81.2955 -0.223234 1.56011 0
M  V30 777 C 82.2255 -1.27988 1.95298 0
M  V30 778 C 83.2065 -1.48976 0.820979 0
M  V30 779 O 84.3915 -1.61188 1.08315 0
M  V30 780 C 81.5215 -2.63 2.26822 0
M  V30 781 C 80.4755 -2.56671 3.42497 0
M  V30 782 C 79.8015 -3.95697 3.59622 0
M  V30 783 C 81.1015 -2.11601 4.77517 0
M  V30 784 H 82.7955 -0.953525 2.8381 0
M  V30 785 H 80.3415 -0.457244 1.36548 0
M  V30 786 H 82.2945 -3.37077 2.52898 0
M  V30 787 H 81.0185 -2.9732 1.35161 0
M  V30 788 H 79.6775 -1.85051 3.16467 0
M  V30 789 H 79.3255 -4.27322 2.6534 0
M  V30 790 H 79.0255 -3.92345 4.37424 0
M  V30 791 H 80.5495 -4.71438 3.88044 0
M  V30 792 H 81.9635 -2.7542 5.02809 0
M  V30 793 H 80.3605 -2.19311 5.5859 0
M  V30 794 H 81.4305 -1.06824 4.72987 0
M  V30 795 N 82.7736 -1.49793 -0.48987 0
M  V30 796 C 84.0506 -1.50348 -1.25119 0
M  V30 797 C 84.4306 -0.237466 -2.0976 0
M  V30 798 O 83.7786 0.77981 -2.14782 0
M  V30 799 C 83.9886 -2.78872 -2.09837 0
M  V30 800 C 85.3366 -3.288 -2.68655 0
M  V30 801 O 86.3606 -2.80065 -2.20096 0
M  V30 802 O 85.2196 -4.13707 -3.57083 0
M  V30 803 H 82.3136 -0.602242 -0.566775 0
M  V30 804 H 84.8596 -1.62067 -0.503229 0
M  V30 805 H 83.6316 -3.62499 -1.47343 0
M  V30 806 H 83.2546 -2.70066 -2.91805 0
M  V30 807 N 84.2517 0.741722 -1.39055 0
M  V30 808 C 85.1817 1.869 -1.39966 0
M  V30 809 C 86.1627 1.6804 -0.26392 0
M  V30 810 O 87.3477 1.88458 -0.468755 0
M  V30 811 C 84.4777 3.24572 -1.23574 0
M  V30 812 C 83.4317 3.58056 -2.34477 0
M  V30 813 C 82.7577 4.94593 -2.0318 0
M  V30 814 C 84.0577 3.61716 -3.76774 0
M  V30 815 H 85.7517 1.86395 -2.34302 0
M  V30 816 H 83.2977 0.895361 -1.1278 0
M  V30 817 H 85.2507 4.031 -1.22834 0
M  V30 818 H 83.9747 3.25587 -0.257045 0
M  V30 819 H 82.6337 2.81854 -2.34423 0
M  V30 820 H 82.2817 4.92181 -1.03765 0
M  V30 821 H 81.9817 5.17964 -2.77465 0
M  V30 822 H 83.5057 5.75486 -2.04079 0
M  V30 823 H 84.9197 4.30335 -3.78794 0
M  V30 824 H 83.3167 3.96603 -4.50362 0
M  V30 825 H 84.3867 2.61672 -4.08235 0
M  V30 826 N 85.7298 1.2412 0.971189 0
M  V30 827 C 87.1408 1.07236 1.52831 0
M  V30 828 C 87.4918 -0.357352 1.92918 0
M  V30 829 O 86.6168 -1.24528 1.76979 0
M  V30 830 C 87.2118 1.94043 2.77728 0
M  V30 831 C 85.7708 1.81394 3.29808 0
M  V30 832 C 84.9178 1.89189 2.02738 0
M  V30 833 H 87.8688 1.37648 0.789864 0
M  V30 834 H 87.8898 1.47066 3.5093 0
M  V30 835 H 87.4018 2.98093 2.4852 0
M  V30 836 H 85.5028 0.801634 3.63874 0
M  V30 837 H 85.6158 2.65294 3.98944 0
M  V30 838 H 83.9798 1.32877 2.17292 0
M  V30 839 H 84.7628 2.94812 1.759 0
M  V30 840 N 87.2079 -1.17134 1.05439 0
M  V30 841 C 88.1379 -2.2342 0.678649 0
M  V30 842 C 89.1189 -1.66971 -0.32476 0
M  V30 843 O 90.3039 -1.93149 -0.201802 0
M  V30 844 C 87.4339 -3.47256 0.0552099 0
M  V30 845 C 86.3879 -4.16543 0.98365 0
M  V30 846 C 85.7139 -5.34231 0.223961 0
M  V30 847 C 87.0139 -4.68495 2.3089 0
M  V30 848 H 88.7079 -2.55105 1.56722 0
M  V30 849 H 86.2539 -1.2262 0.754998 0
M  V30 850 H 88.2069 -4.20828 -0.21946 0
M  V30 851 H 86.9309 -3.14846 -0.868319 0
M  V30 852 H 85.5899 -3.44887 1.24293 0
M  V30 853 H 85.2379 -4.98071 -0.702412 0
M  V30 854 H 84.9379 -5.81527 0.842627 0
M  V30 855 H 86.4619 -6.10585 -0.0433671 0
M  V30 856 H 87.8759 -5.33691 2.09396 0
M  V30 857 H 86.2729 -5.26379 2.88176 0
M  V30 858 H 87.3429 -3.85169 2.94572 0
M  V30 859 N 88.686 -0.835752 -1.33615 0
M  V30 860 C 89.596 -0.269088 -2.33052 0
M  V30 861 C 90.612 0.603251 -1.63208 0
M  V30 862 O 91.788 0.508112 -1.94885 0
M  V30 863 C 88.853 0.549091 -3.42324 0
M  V30 864 C 87.914 -0.347156 -4.27894 0
M  V30 865 C 87.147 0.43207 -5.31948 0
M  V30 866 O 87.37 1.66409 -5.45586 0
M  V30 867 O 86.304 -0.192298 -6.01593 0
M  V30 868 H 90.13 -1.09243 -2.83372 0
M  V30 869 H 87.715 -0.598198 -1.36901 0
M  V30 870 H 89.597 1.01414 -4.09015 0
M  V30 871 H 88.272 1.34955 -2.94226 0
M  V30 872 H 87.179 -0.859979 -3.64081 0
M  V30 873 H 88.512 -1.1123 -4.79467 0
M  V30 874 N 90.1641 1.46063 -0.591896 0
M  V30 875 C 91.4131 2.01547 -0.0786637 0
M  V30 876 C 91.7261 1.46796 1.29268 0
M  V30 877 O 92.9321 1.94157 1.89777 0
M  V30 878 C 91.3881 3.59787 -0.0900024 0
M  V30 879 C 90.9961 4.23534 -1.46023 0
M  V30 880 C 92.7401 4.22895 0.368806 0
M  V30 881 C 90.6471 5.73881 -1.4288 0
M  V30 882 H 89.5771 0.753564 -0.0256388 0
M  V30 883 H 92.2281 1.677 -0.744905 0
M  V30 884 H 90.6101 3.90752 0.642586 0
M  V30 885 H 91.7841 4.04167 -2.21328 0
M  V30 886 H 90.0991 3.72558 -1.85982 0
M  V30 887 H 92.6961 5.33116 0.411258 0
M  V30 888 H 93.0391 3.9247 1.38827 0
M  V30 889 H 93.5721 3.9659 -0.31001 0
M  V30 890 H 90.3111 6.0898 -2.42536 0
M  V30 891 H 89.8311 5.95486 -0.718095 0
M  V30 892 H 91.5101 6.36776 -1.14565 0
M  V30 893 N 91.6422 0.330177 1.54103 0
M  V30 894 C 92.5742 -0.566902 2.22079 0
M  V30 895 C 93.5872 -1.07462 1.22294 0
M  V30 896 O 94.7762 -0.987065 1.48726 0
M  V30 897 C 91.8762 -1.79138 2.87685 0
M  V30 898 C 91.0492 -1.42123 4.13666 0
M  V30 899 C 90.1082 -2.50394 4.62806 0
M  V30 900 O 89.1342 -2.14261 5.27334 0
M  V30 901 N 90.3362 -3.81433 4.37595 0
M  V30 902 H 93.1012 0.0151844 2.99696 0
M  V30 903 H 90.6622 0.153681 1.61169 0
M  V30 904 H 92.6542 -2.50975 3.1748 0
M  V30 905 H 91.2242 -2.28115 2.13734 0
M  V30 906 H 90.4442 -0.534201 3.90564 0
M  V30 907 H 91.7322 -1.14971 4.9564 0
M  V30 908 H 91.1302 -4.13584 3.8596 0
M  V30 909 H 89.6872 -4.4948 4.72029 0
M  V30 910 N 93.1203 -1.57491 0.0584922 0
M  V30 911 C 94.5313 -1.80526 -0.476138 0
M  V30 912 C 94.8823 -0.971334 -1.70469 0
M  V30 913 O 94.0073 -0.190012 -2.15564 0
M  V30 914 C 94.6023 -3.27424 -0.870587 0
M  V30 915 C 93.1613 -3.51351 -1.35015 0
M  V30 916 C 92.3083 -2.75343 -0.32887 0
M  V30 917 H 95.2593 -1.56133 0.284312 0
M  V30 918 H 95.2803 -3.38745 -1.73299 0
M  V30 919 H 94.7923 -3.88093 0.0237627 0
M  V30 920 H 92.8933 -2.95971 -2.26345 0
M  V30 921 H 93.0063 -4.60059 -1.33726 0
M  V30 922 H 91.3703 -2.417 -0.803321 0
M  V30 923 H 92.1533 -3.38743 0.557521 0
M  V30 924 N 94.5984 0.214957 -1.56127 0
M  V30 925 C 95.5284 1.2695 -1.95974 0
M  V30 926 C 96.5094 1.48539 -0.828868 0
M  V30 927 O 97.6944 1.60611 -1.09168 0
M  V30 928 C 94.8244 2.61794 -2.28214 0
M  V30 929 C 93.7784 2.54851 -3.43853 0
M  V30 930 C 93.1044 3.93785 -3.61715 0
M  V30 931 C 94.4044 2.09065 -4.78632 0
M  V30 932 H 96.0984 0.93846 -2.84312 0
M  V30 933 H 93.6444 0.449996 -1.36788 0
M  V30 934 H 95.5974 3.35731 -2.54682 0
M  V30 935 H 94.3214 2.96599 -1.36736 0
M  V30 936 H 92.9804 1.8337 -3.17444 0
M  V30 937 H 92.6284 4.25908 -2.67602 0
M  V30 938 H 92.3284 3.90019 -4.39498 0
M  V30 939 H 93.8524 4.69374 -3.90539 0
M  V30 940 H 95.2664 2.7275 -5.04262 0
M  V30 941 H 93.6634 2.16346 -5.59745 0
M  V30 942 H 94.7334 1.04315 -4.73547 0
M  V30 943 N 96.0765 1.50051 0.48192 0
M  V30 944 C 97.3045 1.64237 1.25832 0
M  V30 945 C 97.7195 0.321336 1.86045 0
M  V30 946 O 97.0765 -0.695478 1.68729 0
M  V30 947 C 97.1275 2.72548 2.37487 0
M  V30 948 O 96.8485 3.99529 1.79745 0
M  V30 949 C 98.3495 2.9761 3.28547 0
M  V30 950 H 95.5695 0.55237 0.380957 0
M  V30 951 H 98.1135 1.96207 0.576467 0
M  V30 952 H 96.2685 2.43303 3.01467 0
M  V30 953 H 96.6825 4.59342 2.5319 0
M  V30 954 H 98.1565 3.77084 4.03127 0
M  V30 955 H 98.6335 2.0826 3.86684 0
M  V30 956 H 99.2395 3.28345 2.70314 0
M  V30 957 N 97.5546 -0.734337 1.39446 0
M  V30 958 C 98.8006 -1.49613 1.36908 0
M  V30 959 C 99.1336 -1.94169 -0.0347829 0
M  V30 960 O 98.4086 -1.66833 -0.999847 0
M  V30 961 C 98.6916 -2.73534 2.34203 0
M  V30 962 C 98.5446 -2.34993 3.83534 0
M  V30 963 C 99.8636 -3.75635 2.29317 0
M  V30 964 H 96.9826 -0.542714 0.498629 0
M  V30 965 H 99.6246 -0.839597 1.70443 0
M  V30 966 H 97.7746 -3.29553 2.05736 0
M  V30 967 H 99.4466 -1.84601 4.22753 0
M  V30 968 H 97.6896 -1.67213 4.00278 0
M  V30 969 H 98.3606 -3.23738 4.47099 0
M  V30 970 H 100.837 -3.29203 2.54489 0
M  V30 971 H 99.7126 -4.60008 2.99472 0
M  V30 972 H 99.9736 -4.22603 1.29842 0
M  V30 973 N 99.0327 -1.24633 -0.964593 0
M  V30 974 C 100.281 -1.08573 -1.70459 0
M  V30 975 C 100.602 0.375655 -1.91347 0
M  V30 976 O 99.8717 1.26779 -1.49345 0
M  V30 977 H 98.4517 -0.398784 -0.631649 0
M  V30 978 H 101.114 -1.56601 -1.16026 0
M  V30 979 H 100.21 -1.58623 -2.68785 0
M  V30 980 N 100.511 1.16574 -1.06058 0
M  V30 981 C 101.757 1.87324 -0.777022 0
M  V30 982 C 102.09 1.81351 0.694645 0
M  V30 983 O 101.365 1.22753 1.50871 0
M  V30 984 C 101.648 3.36991 -1.26922 0
M  V30 985 C 101.501 3.51667 -2.80447 0
M  V30 986 C 102.82 4.3131 -0.87521 0
M  V30 987 H 99.9388 0.680191 -0.28374 0
M  V30 988 H 102.581 1.37036 -1.3161 0
M  V30 989 H 100.731 3.79949 -0.81063 0
M  V30 990 H 102.403 3.17664 -3.34495 0
M  V30 991 H 100.646 2.93656 -3.19294 0
M  V30 992 H 101.317 4.56766 -3.0995 0
M  V30 993 H 103.793 3.9624 -1.27014 0
M  V30 994 H 102.669 5.34545 -1.2471 0
M  V30 995 H 102.93 4.41552 0.220071 0
M  V30 996 N 101.989 0.842826 1.3317 0
M  V30 997 C 102.937 0.267495 2.31057 0
M  V30 998 C 103.931 -0.602682 1.58316 0
M  V30 999 O 105.137 -0.491803 1.73151 0
M  V30 1000 H 101.512 0.0677813 0.748939 0
M  V30 1001 H 103.483 1.10754 2.77085 0
M  V30 1002 C 102.232 -0.539331 3.43492 0
M  V30 1003 H 101.555 0.12095 3.99617 0
M  V30 1004 H 102.995 -0.90767 4.14171 0
M  V30 1005 C 101.454 -1.71981 2.89697 0
M  V30 1006 O 101.984 -2.81862 2.86211 0
M  V30 1007 N 100.19 -1.54299 2.46252 0
M  V30 1008 H 99.7369 -0.649143 2.49287 0
M  V30 1009 H 99.6949 -2.33431 2.10612 0
M  V30 1010 N 103.467 -1.45747 0.599634 0
M  V30 1011 C 104.695 -2.06668 0.0978551 0
M  V30 1012 C 105.11 -1.44562 -1.21439 0
M  V30 1013 O 104.467 -0.556923 -1.73795 0
M  V30 1014 C 104.518 -3.61456 -0.0567044 0
M  V30 1015 O 104.239 -4.21242 1.20361 0
M  V30 1016 C 105.74 -4.39345 -0.590869 0
M  V30 1017 H 102.96 -0.667825 0.0651943 0
M  V30 1018 H 105.504 -1.87115 0.82511 0
M  V30 1019 H 103.659 -3.80378 -0.734251 0
M  V30 1020 H 104.073 -5.14323 1.02821 0
M  V30 1021 H 105.547 -5.48182 -0.648131 0
M  V30 1022 H 106.024 -4.08568 -1.61147 0
M  V30 1023 H 106.63 -4.25268 0.0523679 0
M  V30 1024 N 104.945 -0.338344 -1.53925 0
M  V30 1025 C 106.173 0.261298 -2.05243 0
M  V30 1026 C 106.588 1.44625 -1.21363 0
M  V30 1027 O 105.945 1.80811 -0.247736 0
M  V30 1028 C 105.996 0.681412 -3.5502 0
M  V30 1029 O 105.717 -0.456414 -4.35716 0
M  V30 1030 C 107.218 1.34232 -4.22489 0
M  V30 1031 H 104.438 0.0513685 -0.669031 0
M  V30 1032 H 106.982 -0.488822 -1.98572 0
M  V30 1033 H 105.137 1.38148 -3.61931 0
M  V30 1034 H 105.551 -0.122564 -5.24357 0
M  V30 1035 H 107.025 1.58708 -5.28693 0
M  V30 1036 H 107.502 2.29426 -3.74514 0
M  V30 1037 H 108.108 0.684424 -4.19757 0
M  V30 1038 N 106.423 1.57458 -0.0668435 0
M  V30 1039 C 107.371 2.13639 0.919851 0
M  V30 1040 C 108.365 1.07204 1.31163 0
M  V30 1041 O 109.571 1.25591 1.28945 0
M  V30 1042 H 105.946 0.683048 0.314562 0
M  V30 1043 H 107.917 2.95415 0.421047 0
M  V30 1044 C 106.666 2.70892 2.17975 0
M  V30 1045 H 105.989 3.5246 1.88711 0
M  V30 1046 H 107.429 3.13803 2.85138 0
M  V30 1047 C 105.888 1.65414 2.93496 0
M  V30 1048 O 106.418 1.07619 3.87015 0
M  V30 1049 N 104.624 1.36564 2.56512 0
M  V30 1050 H 104.171 1.83751 1.80536 0
M  V30 1051 H 104.129 0.66223 3.07347 0
M  V30 1052 N 107.901 -0.206675 1.56239 0
M  V30 1053 C 109.312 -0.772383 1.69974 0
M  V30 1054 C 109.663 -1.84353 0.671436 0
M  V30 1055 O 108.788 -2.15695 -0.174491 0
M  V30 1056 C 109.383 -1.40779 3.08167 0
M  V30 1057 C 107.942 -1.92072 3.23706 0
M  V30 1058 C 107.089 -0.786347 2.65917 0
M  V30 1059 H 110.04 0.0182223 1.5869 0
M  V30 1060 H 110.061 -2.27696 3.04852 0
M  V30 1061 H 109.573 -0.627958 3.82986 0
M  V30 1062 H 107.674 -2.7281 2.53782 0
M  V30 1063 H 107.787 -2.09046 4.31087 0
M  V30 1064 H 106.151 -1.1976 2.24788 0
M  V30 1065 H 106.934 -0.0189416 3.43295 0
M  V30 1066 N 109.379 -1.50304 -0.473955 0
M  V30 1067 C 110.604 -1.65175 -1.25427 0
M  V30 1068 C 111.029 -0.333673 -1.85117 0
M  V30 1069 O 110.387 0.702114 -1.67153 0
M  V30 1070 C 110.435 -2.74295 -2.34082 0
M  V30 1071 O 109.539 -2.35349 -3.38651 0
M  V30 1072 H 108.88 -0.551944 -0.369126 0
M  V30 1073 H 111.41 -1.96662 -0.564364 0
M  V30 1074 H 111.42 -2.97285 -2.79438 0
M  V30 1075 H 110.095 -3.69959 -1.90008 0
M  V30 1076 H 108.672 -2.22794 -2.99027 0
M  V30 1077 N 110.857 0.726932 -1.39834 0
M  V30 1078 C 112.082 1.52121 -1.40976 0
M  V30 1079 C 112.507 1.88098 -0.00826029 0
M  V30 1080 O 111.865 1.52479 0.980807 0
M  V30 1081 C 111.913 2.78021 -2.29644 0
M  V30 1082 O 111.017 3.74272 -1.73188 0
M  V30 1083 H 110.358 0.45908 -0.479731 0
M  V30 1084 H 112.888 0.896207 -1.83927 0
M  V30 1085 H 112.898 3.26671 -2.44438 0
M  V30 1086 H 111.573 2.51169 -3.31492 0
M  V30 1087 H 110.15 3.33073 -1.6768 0
M  V30 1088 N 112.336 1.25143 0.95797 0
M  V30 1089 C 113.266 1.07711 2.07173 0
M  V30 1090 C 114.247 -0.0128462 1.70095 0
M  V30 1091 O 115.432 0.156061 1.93572 0
M  V30 1092 C 112.562 0.691503 3.40346 0
M  V30 1093 C 111.516 1.73132 3.9142 0
M  V30 1094 C 110.842 1.20049 5.21049 0
M  V30 1095 C 112.142 3.1294 4.1817 0
M  V30 1096 H 113.836 2.00873 2.22014 0
M  V30 1097 H 111.382 0.967191 1.06684 0
M  V30 1098 H 113.335 0.556505 4.17709 0
M  V30 1099 H 112.059 -0.275819 3.25433 0
M  V30 1100 H 110.718 1.8547 3.16222 0
M  V30 1101 H 110.366 0.223499 5.02503 0
M  V30 1102 H 110.066 1.89545 5.56189 0
M  V30 1103 H 111.59 1.07782 6.01012 0
M  V30 1104 H 113.004 3.03775 4.86203 0
M  V30 1105 H 111.401 3.79875 4.64559 0
M  V30 1106 H 112.471 3.6025 3.24573 0
M  V30 1107 N 113.814 -1.1601 1.06675 0
M  V30 1108 C 114.744 -2.22688 0.702307 0
M  V30 1109 C 115.725 -1.67306 -0.307032 0
M  V30 1110 O 116.91 -1.93352 -0.181305 0
M  V30 1111 C 114.04 -3.47178 0.092038 0
M  V30 1112 C 112.994 -4.15477 1.02777 0
M  V30 1113 C 112.32 -5.33963 0.28061 0
M  V30 1114 C 113.62 -4.66019 2.35846 0
M  V30 1115 H 115.314 -2.53429 1.59419 0
M  V30 1116 H 112.86 -1.21813 0.767961 0
M  V30 1117 H 114.813 -4.21037 -0.174814 0
M  V30 1118 H 113.537 -3.15749 -0.834877 0
M  V30 1119 H 112.196 -3.43549 1.27944 0
M  V30 1120 H 111.844 -4.98788 -0.649545 0
M  V30 1121 H 111.544 -5.806 0.904258 0
M  V30 1122 H 113.068 -6.10596 0.021396 0
M  V30 1123 H 114.482 -5.3144 2.15045 0
M  V30 1124 H 112.879 -5.23293 2.93743 0
M  V30 1125 H 113.949 -3.82023 2.98641 0
M  V30 1126 N 115.292 -0.849877 -1.32721 0
M  V30 1127 C 116.52 -0.464754 -2.01613 0
M  V30 1128 C 116.935 0.937191 -1.63897 0
M  V30 1129 O 116.292 1.61081 -0.857856 0
M  V30 1130 C 116.343 -0.588638 -3.56675 0
M  V30 1131 O 116.064 -1.93535 -3.93034 0
M  V30 1132 C 117.565 -0.2019 -4.4284 0
M  V30 1133 H 114.785 -0.183215 -0.645502 0
M  V30 1134 H 117.329 -1.1455 -1.69407 0
M  V30 1135 H 115.484 0.0443159 -3.87375 0
M  V30 1136 H 115.898 -1.92871 -4.87751 0
M  V30 1137 H 117.372 -0.339599 -5.50954 0
M  V30 1138 H 117.849 0.857224 -4.30753 0
M  V30 1139 H 118.455 -0.809733 -4.17521 0
M  V30 1140 N 116.77 1.45427 -0.607355 0
M  V30 1141 C 117.702 2.2871 0.149752 0
M  V30 1142 C 118.715 1.39937 0.831958 0
M  V30 1143 O 119.904 1.64313 0.697385 0
M  V30 1144 C 117.004 3.15673 1.23304 0
M  V30 1145 C 116.177 4.32722 0.637996 0
M  V30 1146 C 115.236 5.00895 1.61215 0
M  V30 1147 O 114.262 5.57697 1.13854 0
M  V30 1148 N 115.464 5.00159 2.94655 0
M  V30 1149 H 118.229 2.94328 -0.564882 0
M  V30 1150 H 115.79 1.55612 -0.446823 0
M  V30 1151 H 117.782 3.58144 1.88454 0
M  V30 1152 H 116.352 2.51965 1.8502 0
M  V30 1153 H 115.572 3.93734 -0.191572 0
M  V30 1154 H 116.86 5.08321 0.220665 0
M  V30 1155 H 116.258 4.553 3.35735 0
M  V30 1156 H 114.815 5.46495 3.55228 0
M  V30 1157 N 118.248 0.346503 1.53744 0
M  V30 1158 C 119.497 -0.250122 2.00143 0
M  V30 1159 C 119.81 -1.51418 1.23822 0
M  V30 1160 O 121.016 -2.18823 1.60713 0
M  V30 1161 C 119.472 -0.496252 3.56462 0
M  V30 1162 C 119.08 0.752077 4.41642 0
M  V30 1163 C 120.824 -1.05157 4.11269 0
M  V30 1164 C 118.731 0.476583 5.89477 0
M  V30 1165 H 117.661 -0.0972409 0.747703 0
M  V30 1166 H 120.312 0.46229 1.77581 0
M  V30 1167 H 118.694 -1.26944 3.75102 0
M  V30 1168 H 119.868 1.5266 4.34778 0
M  V30 1169 H 118.183 1.22925 3.97842 0
M  V30 1170 H 120.78 -1.27269 5.19333 0
M  V30 1171 H 121.123 -2.00799 3.64672 0
M  V30 1172 H 121.656 -0.339019 3.96353 0
M  V30 1173 H 118.395 1.4028 6.40314 0
M  V30 1174 H 117.915 -0.259794 5.99237 0
M  V30 1175 H 119.594 0.0949315 6.4693 0
M  V30 1176 N 119.726 -1.57421 0.075193 0
M  V30 1177 C 120.966 -1.95495 -0.596757 0
M  V30 1178 C 121.33 -0.954886 -1.66571 0
M  V30 1179 O 122.531 -1.22341 -2.39345 0
M  V30 1180 C 120.802 -3.382 -1.15566 0
M  V30 1181 S 122.361 -3.98254 -1.84226 0
M  V30 1182 H 119.179 -0.683649 -0.195307 0
M  V30 1183 H 121.781 -1.94925 0.149859 0
M  V30 1184 H 120.485 -4.08766 -0.36588 0
M  V30 1185 H 120.016 -3.42321 -1.93856 0
M  V30 1186 H 122.031 -3.85435 -3.12497 0
M  V30 1187 N 121.204 0.198386 -1.56346 0
M  V30 1188 C 122.452 0.91747 -1.80075 0
M  V30 1189 C 122.773 1.83929 -0.647692 0
M  V30 1190 O 122.043 1.93029 0.334166 0
M  V30 1191 H 120.623 0.341774 -0.664228 0
M  V30 1192 H 123.285 0.204684 -1.93822 0
M  V30 1193 H 122.381 1.51055 -2.7311 0
M  V30 1194 N 122.682 1.50554 0.465978 0
M  V30 1195 C 123.612 1.72722 1.57128 0
M  V30 1196 C 124.593 0.576294 1.6004 0
M  V30 1197 O 125.778 0.81598 1.76225 0
M  V30 1198 C 122.908 1.82605 2.95419 0
M  V30 1199 C 121.862 2.97835 3.07373 0
M  V30 1200 C 121.188 2.92867 4.47363 0
M  V30 1201 C 122.488 4.38265 2.84114 0
M  V30 1202 H 124.182 2.65267 1.38829 0
M  V30 1203 H 121.728 1.2765 0.666441 0
M  V30 1204 H 123.681 1.96698 3.72677 0
M  V30 1205 H 122.405 0.866858 3.14886 0
M  V30 1206 H 121.064 2.83401 2.3255 0
M  V30 1207 H 120.712 1.94783 4.63755 0
M  V30 1208 H 120.412 3.70227 4.56296 0
M  V30 1209 H 121.936 3.09015 5.26633 0
M  V30 1210 H 123.35 4.53198 3.51118 0
M  V30 1211 H 121.747 5.17115 3.04487 0
M  V30 1212 H 122.817 4.50281 1.7993 0
M  V30 1213 N 124.16 -0.719506 1.40217 0
M  V30 1214 C 125.09 -1.8465 1.42922 0
M  V30 1215 C 126.071 -1.67599 0.29062 0
M  V30 1216 O 127.256 -1.87688 0.498677 0
M  V30 1217 C 124.386 -3.22565 1.28722 0
M  V30 1218 C 123.34 -3.54281 2.40144 0
M  V30 1219 C 122.666 -4.91298 2.11023 0
M  V30 1220 C 123.966 -3.55676 3.82481 0
M  V30 1221 H 125.66 -1.82644 2.37237 0
M  V30 1222 H 123.206 -0.877305 1.1419 0
M  V30 1223 H 125.159 -4.01095 1.29232 0
M  V30 1224 H 123.883 -3.25137 0.308811 0
M  V30 1225 H 122.542 -2.78088 2.38877 0
M  V30 1226 H 122.19 -4.90468 1.11582 0
M  V30 1227 H 121.89 -5.13485 2.8567 0
M  V30 1228 H 123.414 -5.72166 2.13209 0
M  V30 1229 H 124.828 -4.24254 3.85592 0
M  V30 1230 H 123.225 -3.89388 4.56614 0
M  V30 1231 H 124.295 -2.55144 4.12346 0
M  V30 1232 N 125.638 -1.25649 -0.95132 0
M  V30 1233 C 126.886 -1.10375 -1.69298 0
M  V30 1234 C 127.207 0.355339 -1.91735 0
M  V30 1235 O 126.477 1.25188 -1.50681 0
M  V30 1236 H 125.057 -0.405461 -0.627384 0
M  V30 1237 H 127.719 -1.57823 -1.14358 0
M  V30 1238 H 126.815 -1.61465 -2.67087 0
M  V30 1239 N 127.117 1.15442 -1.07289 0
M  V30 1240 C 128.08 2.18358 -0.696591 0
M  V30 1241 C 129.08 1.58637 0.262837 0
M  V30 1242 O 130.27 1.74145 0.0438809 0
M  V30 1243 C 127.402 3.4089 -0.0266151 0
M  V30 1244 H 128.595 2.53162 -1.60776 0
M  V30 1245 H 126.148 1.29893 -0.869342 0
M  V30 1246 H 126.883 3.11653 0.896822 0
M  V30 1247 H 126.668 3.85495 -0.716657 0
M  V30 1248 H 128.158 4.17009 0.222028 0
M  V30 1249 N 128.595 0.856903 1.32268 0
M  V30 1250 C 129.558 0.308171 2.27119 0
M  V30 1251 C 130.558 -0.533421 1.51695 0
M  V30 1252 O 131.748 -0.344607 1.70757 0
M  V30 1253 C 128.88 -0.563757 3.36206 0
M  V30 1254 H 130.073 1.14535 2.77167 0
M  V30 1255 H 127.626 0.631421 1.42978 0
M  V30 1256 H 128.361 -1.42266 2.91429 0
M  V30 1257 H 128.146 0.0386749 3.92081 0
M  V30 1258 H 129.636 -0.940386 4.06874 0
M  V30 1259 N 130.073 -1.45103 0.615059 0
M  V30 1260 C 131.023 -2.27679 -0.120966 0
M  V30 1261 C 132.007 -1.3775 -0.831491 0
M  V30 1262 O 133.199 -1.61683 -0.720249 0
M  V30 1263 C 130.328 -3.24767 -1.1127 0
M  V30 1264 C 129.414 -4.22184 -0.402627 0
M  V30 1265 N 129.805 -5.02692 0.559884 0
M  V30 1266 C 128.103 -4.4125 -0.649202 0
M  V30 1267 C 128.804 -5.73421 0.977942 0
M  V30 1268 N 127.78 -5.42657 0.320104 0
M  V30 1269 H 131.582 -2.87325 0.618181 0
M  V30 1270 H 129.096 -1.56345 0.439304 0
M  V30 1271 H 131.093 -3.82666 -1.65446 0
M  V30 1272 H 129.753 -2.66682 -1.85232 0
M  V30 1273 H 130.764 -5.09354 0.936976 0
M  V30 1274 H 127.441 -3.9428 -1.37293 0
M  V30 1275 H 128.831 -6.48107 1.77222 0
M  V30 1276 N 131.551 -0.354651 -1.53558 0
M  V30 1277 C 132.797 0.238797 -2.01389 0
M  V30 1278 C 133.13 1.49309 -1.2418 0
M  V30 1279 O 132.405 1.91638 -0.332457 0
M  V30 1280 C 132.688 0.541771 -3.56001 0
M  V30 1281 C 132.541 -0.725388 -4.43912 0
M  V30 1282 C 133.86 1.34685 -4.18984 0
M  V30 1283 H 130.979 0.0853177 -0.732045 0
M  V30 1284 H 133.621 -0.477384 -1.83905 0
M  V30 1285 H 131.771 1.15189 -3.71031 0
M  V30 1286 H 133.443 -1.36313 -4.407 0
M  V30 1287 H 131.686 -1.34801 -4.12324 0
M  V30 1288 H 132.357 -0.468505 -5.50008 0
M  V30 1289 H 134.833 0.830837 -4.07721 0
M  V30 1290 H 133.709 1.52759 -5.27215 0
M  V30 1291 H 133.97 2.35221 -3.74331 0
M  V30 1292 N 133.029 1.57378 -0.0835403 0
M  V30 1293 C 133.979 2.09916 0.889905 0
M  V30 1294 C 134.963 1.01151 1.25129 0
M  V30 1295 O 136.155 1.27443 1.2283 0
M  V30 1296 C 133.284 2.67379 2.15322 0
M  V30 1297 C 132.37 3.83167 1.81779 0
M  V30 1298 N 132.761 4.91665 1.18739 0
M  V30 1299 C 131.059 3.92685 2.11459 0
M  V30 1300 C 131.76 5.72409 1.0355 0
M  V30 1301 N 130.736 5.21062 1.54906 0
M  V30 1302 H 134.538 2.91188 0.398378 0
M  V30 1303 H 132.052 1.61956 0.120013 0
M  V30 1304 H 134.049 3.0334 2.8599 0
M  V30 1305 H 132.709 1.87558 2.65051 0
M  V30 1306 H 133.72 5.10784 0.855604 0
M  V30 1307 H 130.397 3.23856 2.63483 0
M  V30 1308 H 131.787 6.69699 0.543425 0
M  V30 1309 N 134.507 -0.190092 1.56449 0
M  V30 1310 C 135.755 -0.907908 1.80559 0
M  V30 1311 C 136.076 -1.83583 0.657438 0
M  V30 1312 O 135.346 -1.93203 -0.323924 0
M  V30 1313 H 133.926 -0.338247 0.666032 0
M  V30 1314 H 136.588 -0.194403 1.93928 0
M  V30 1315 H 135.684 -1.49604 2.73907 0
M  V30 1316 N 135.985 -1.50799 -0.457987 0
M  V30 1317 C 137.234 -1.6168 -1.20593 0
M  V30 1318 C 137.547 -0.32888 -1.92815 0
M  V30 1319 O 138.753 -0.316773 -2.69646 0
M  V30 1320 C 137.209 -2.8545 -2.19195 0
M  V30 1321 C 136.817 -4.21168 -1.52715 0
M  V30 1322 C 138.561 -3.05681 -2.94549 0
M  V30 1323 C 136.468 -5.3611 -2.4968 0
M  V30 1324 H 135.398 -0.602134 -0.453818 0
M  V30 1325 H 138.049 -1.77245 -0.475031 0
M  V30 1326 H 136.431 -2.63472 -2.95632 0
M  V30 1327 H 137.605 -4.53449 -0.819775 0
M  V30 1328 H 135.92 -4.06648 -0.895922 0
M  V30 1329 H 138.517 -3.88727 -3.67145 0
M  V30 1330 H 138.86 -2.17929 -3.54701 0
M  V30 1331 H 139.393 -3.27901 -2.25223 0
M  V30 1332 H 136.132 -6.26057 -1.94249 0
M  V30 1333 H 135.652 -5.0823 -3.18532 0
M  V30 1334 H 137.331 -5.6722 -3.11241 0
M  V30 1335 N 137.463 0.71206 -1.40597 0
M  V30 1336 C 138.709 1.47416 -1.39271 0
M  V30 1337 C 139.042 1.942 0.00388791 0
M  V30 1338 O 138.317 1.68403 0.973179 0
M  V30 1339 C 138.6 2.69774 -2.38525 0
M  V30 1340 C 138.453 2.28861 -3.87224 0
M  V30 1341 C 139.772 3.71939 -2.35264 0
M  V30 1342 H 136.891 0.534713 -0.5072 0
M  V30 1343 H 139.533 0.812375 -1.71757 0
M  V30 1344 H 137.683 3.26238 -2.10953 0
M  V30 1345 H 139.355 1.77852 -4.25636 0
M  V30 1346 H 137.598 1.60824 -4.02887 0
M  V30 1347 H 138.269 3.16584 -4.52193 0
M  V30 1348 H 140.745 3.25113 -2.59694 0
M  V30 1349 H 139.621 4.55186 -3.06753 0
M  V30 1350 H 139.882 4.20484 -1.36549 0
M  V30 1351 N 138.941 1.26152 0.944643 0
M  V30 1352 C 140.188 1.11492 1.69044 0
M  V30 1353 C 140.516 -0.342366 1.91463 0
M  V30 1354 O 139.771 -1.26812 1.49054 0
M  V30 1355 C 140.07 1.82541 3.07268 0
M  V30 1356 C 139.736 3.32445 3.04616 0
M  V30 1357 C 138.398 3.73337 3.036 0
M  V30 1358 C 140.75 4.28171 2.97185 0
M  V30 1359 C 138.078 5.08348 2.92915 0
M  V30 1360 C 140.43 5.63218 2.88041 0
M  V30 1361 C 139.094 6.03426 2.85366 0
M  V30 1362 H 138.364 0.407977 0.618576 0
M  V30 1363 H 141.011 1.56551 1.10291 0
M  V30 1364 H 139.316 1.29941 3.69625 0
M  V30 1365 H 141.013 1.68642 3.63815 0
M  V30 1366 H 137.603 2.99915 3.06185 0
M  V30 1367 H 141.787 3.97563 2.97081 0
M  V30 1368 H 137.043 5.38667 2.89219 0
M  V30 1369 H 141.217 6.37078 2.81254 0
M  V30 1370 H 138.844 7.07999 2.76842 0
M  V30 1371 N 140.419 -1.14872 1.07899 0
M  V30 1372 C 141.329 -2.2341 0.715915 0
M  V30 1373 C 142.345 -1.71808 -0.275306 0
M  V30 1374 O 143.521 -2.01039 -0.120545 0
M  V30 1375 C 140.586 -3.46474 0.125168 0
M  V30 1376 C 139.647 -4.13039 1.17034 0
M  V30 1377 C 138.88 -5.30229 0.607688 0
M  V30 1378 O 139.103 -5.675 -0.574497 0
M  V30 1379 O 138.037 -5.86444 1.35526 0
M  V30 1380 H 141.863 -2.56808 1.62121 0
M  V30 1381 H 139.448 -1.22702 0.852322 0
M  V30 1382 H 141.33 -4.20917 -0.201729 0
M  V30 1383 H 140.005 -3.14811 -0.753364 0
M  V30 1384 H 138.912 -3.40493 1.54968 0
M  V30 1385 H 140.245 -4.48796 2.02097 0
M  V30 1386 N 141.898 -0.863906 -1.31812 0
M  V30 1387 C 143.175 -0.39275 -1.91616 0
M  V30 1388 C 143.555 1.12461 -1.7865 0
M  V30 1389 O 142.903 1.95045 -1.19037 0
M  V30 1390 C 143.113 -0.867385 -3.38049 0
M  V30 1391 C 144.461 -0.889966 -4.15168 0
M  V30 1392 O 145.485 -0.812635 -3.46806 0
M  V30 1393 O 144.344 -1.00079 -5.37258 0
M  V30 1394 H 141.438 -0.116358 -0.818773 0
M  V30 1395 H 143.984 -0.951418 -1.40521 0
M  V30 1396 H 142.756 -1.91081 -3.41473 0
M  V30 1397 H 142.379 -0.286687 -3.96565 0
M  V30 1398 N 143.376 1.44774 -0.622745 0
M  V30 1399 C 144.324 2.32387 0.0994683 0
M  V30 1400 C 145.318 1.46859 0.844326 0
M  V30 1401 O 146.524 1.63254 0.758174 0
M  V30 1402 H 142.899 0.750273 0.0509291 0
M  V30 1403 H 144.87 2.91062 -0.65767 0
M  V30 1404 C 143.619 3.30723 1.07319 0
M  V30 1405 H 142.942 3.96541 0.509462 0
M  V30 1406 H 144.382 3.94725 1.54817 0
M  V30 1407 C 142.841 2.59021 2.15429 0
M  V30 1408 O 143.371 2.38286 3.23393 0
M  V30 1409 N 141.577 2.189 1.91131 0
M  V30 1410 H 141.124 2.35964 1.03337 0
M  V30 1411 H 141.082 1.71251 2.63668 0
M  V30 1412 N 144.854 0.36279 1.53368 0
M  V30 1413 C 146.1 -0.228113 2.01513 0
M  V30 1414 C 146.433 -1.48648 1.2497 0
M  V30 1415 O 145.708 -1.91459 0.342616 0
M  V30 1416 C 145.991 -0.522884 3.56284 0
M  V30 1417 C 145.844 0.74892 4.43521 0
M  V30 1418 C 147.163 -1.32461 4.19693 0
M  V30 1419 H 144.282 -0.0814343 0.732487 0
M  V30 1420 H 146.924 0.48713 1.83649 0
M  V30 1421 H 145.074 -1.1322 3.71636 0
M  V30 1422 H 146.746 1.38648 4.39971 0
M  V30 1423 H 144.989 1.36986 4.11603 0
M  V30 1424 H 145.66 0.497667 5.49752 0
M  V30 1425 H 148.136 -0.809203 4.08156 0
M  V30 1426 H 147.012 -1.49961 5.28018 0
M  V30 1427 H 147.273 -2.33232 3.75573 0
M  V30 1428 N 146.332 -1.57332 0.0918853 0
M  V30 1429 C 147.609 -1.85691 -0.614668 0
M  V30 1430 C 147.989 -0.988146 -1.86545 0
M  V30 1431 O 147.337 -0.0597055 -2.28422 0
M  V30 1432 C 147.547 -3.36294 -0.933126 0
M  V30 1433 C 148.895 -4.04275 -1.29796 0
M  V30 1434 O 149.919 -3.41157 -1.02424 0
M  V30 1435 O 148.778 -5.1564 -1.81047 0
M  V30 1436 H 145.872 -0.767802 -0.307261 0
M  V30 1437 H 148.418 -1.69244 0.12434 0
M  V30 1438 H 147.19 -3.91273 -0.0456404 0
M  V30 1439 H 146.813 -3.58076 -1.72822 0
M  V30 1440 N 147.81 0.181792 -1.56548 0
M  V30 1441 C 149.038 0.915947 -1.85521 0
M  V30 1442 C 149.453 1.76282 -0.676016 0
M  V30 1443 O 148.81 1.79012 0.355077 0
M  V30 1444 C 148.861 1.80126 -3.13427 0
M  V30 1445 O 148.582 0.988562 -4.26801 0
M  V30 1446 C 150.083 2.64597 -3.55673 0
M  V30 1447 H 147.303 0.26661 -0.61576 0
M  V30 1448 H 149.847 0.185039 -2.03661 0
M  V30 1449 H 148.002 2.48563 -2.97145 0
M  V30 1450 H 148.416 1.59308 -4.99721 0
M  V30 1451 H 149.89 3.2235 -4.48101 0
M  V30 1452 H 150.367 3.38958 -2.79292 0
M  V30 1453 H 150.973 2.0151 -3.74532 0
M  V30 1454 N 149.288 1.51039 0.449983 0
M  V30 1455 C 150.198 1.74261 1.57067 0
M  V30 1456 C 151.214 0.626363 1.62335 0
M  V30 1457 O 152.39 0.907162 1.79812 0
M  V30 1458 C 149.455 1.85114 2.93144 0
M  V30 1459 C 148.516 3.0893 2.98095 0
M  V30 1460 C 147.749 3.19256 4.27681 0
M  V30 1461 O 147.972 2.35835 5.19363 0
M  V30 1462 O 146.906 4.12144 4.38658 0
M  V30 1463 H 150.732 2.69303 1.40391 0
M  V30 1464 H 148.317 1.35389 0.631688 0
M  V30 1465 H 150.199 1.94311 3.73926 0
M  V30 1466 H 148.874 0.932588 3.09975 0
M  V30 1467 H 147.781 3.0522 2.16314 0
M  V30 1468 H 149.114 4.00433 2.86206 0
M  V30 1469 N 150.766 -0.704594 1.40972 0
M  V30 1470 C 151.729 -1.80035 1.41845 0
M  V30 1471 C 152.729 -1.57774 0.310474 0
M  V30 1472 O 153.919 -1.64613 0.56992 0
M  V30 1473 C 151.051 -3.18284 1.22098 0
M  V30 1474 H 152.244 -1.80658 2.3938 0
M  V30 1475 H 149.797 -0.911329 1.26982 0
M  V30 1476 H 150.532 -3.23306 0.253672 0
M  V30 1477 H 150.317 -3.35843 2.02366 0
M  V30 1478 H 151.807 -3.98289 1.25522 0
M  V30 1479 N 152.244 -1.26651 -0.937939 0
M  V30 1480 C 153.49 -1.12553 -1.687 0
M  V30 1481 C 153.823 0.329782 -1.91379 0
M  V30 1482 O 153.098 1.24202 -1.4968 0
M  V30 1483 C 153.381 -1.89862 -3.05981 0
M  V30 1484 C 153.234 -3.43318 -2.90607 0
M  V30 1485 C 154.553 -1.69499 -4.0615 0
M  V30 1486 H 151.672 -0.410257 -0.612257 0
M  V30 1487 H 154.314 -1.55685 -1.08913 0
M  V30 1488 H 152.464 -1.53204 -3.57017 0
M  V30 1489 H 154.136 -3.89747 -2.46769 0
M  V30 1490 H 152.379 -3.70179 -2.26164 0
M  V30 1491 H 153.05 -3.92642 -3.8799 0
M  V30 1492 H 155.526 -2.01442 -3.64088 0
M  V30 1493 H 154.402 -2.26002 -5.00214 0
M  V30 1494 H 154.663 -0.640365 -4.37438 0
M  V30 1495 N 153.722 1.14298 -1.08507 0
M  V30 1496 C 154.685 2.17607 -0.719711 0
M  V30 1497 C 155.685 1.58907 0.245997 0
M  V30 1498 O 156.875 1.74181 0.0254081 0
M  V30 1499 C 154.007 3.40842 -0.0627695 0
M  V30 1500 H 155.2 2.51443 -1.63452 0
M  V30 1501 H 152.753 1.28963 -0.88307 0
M  V30 1502 H 153.488 3.12587 0.863716 0
M  V30 1503 H 153.273 3.84713 -0.757504 0
M  V30 1504 H 154.763 4.17221 0.177786 0
M  V30 1505 N 155.201 0.870884 1.31352 0
M  V30 1506 C 156.133 0.28455 2.27427 0
M  V30 1507 C 157.146 -0.552927 1.53123 0
M  V30 1508 O 158.335 -0.374771 1.74521 0
M  V30 1509 C 155.435 -0.615164 3.3327 0
M  V30 1510 C 154.608 0.190079 4.36987 0
M  V30 1511 C 153.667 -0.637917 5.22319 0
M  V30 1512 O 152.693 -0.065626 5.69162 0
M  V30 1513 N 153.895 -1.94973 5.46778 0
M  V30 1514 H 156.66 1.11017 2.7838 0
M  V30 1515 H 154.221 0.732458 1.44384 0
M  V30 1516 H 156.213 -1.1748 3.87273 0
M  V30 1517 H 154.783 -1.34146 2.82354 0
M  V30 1518 H 154.003 0.931165 3.83044 0
M  V30 1519 H 155.291 0.742579 5.03352 0
M  V30 1520 H 154.689 -2.4378 5.10478 0
M  V30 1521 H 153.246 -2.45713 6.03712 0
M  V30 1522 N 156.679 -1.44442 0.630414 0
M  V30 1523 C 157.928 -2.01267 0.132073 0
M  V30 1524 C 158.241 -1.50172 -1.25331 0
M  V30 1525 O 159.447 -1.9912 -1.84562 0
M  V30 1526 C 157.903 -3.59422 0.185362 0
M  V30 1527 C 157.511 -4.19514 1.57201 0
M  V30 1528 C 159.255 -4.23724 -0.256553 0
M  V30 1529 C 157.162 -5.69891 1.58045 0
M  V30 1530 H 156.092 -0.752619 0.0456092 0
M  V30 1531 H 158.743 -1.65666 0.789106 0
M  V30 1532 H 157.125 -3.92318 -0.538759 0
M  V30 1533 H 158.299 -3.98156 2.31966 0
M  V30 1534 H 156.614 -3.67496 1.95795 0
M  V30 1535 H 159.211 -5.34019 -0.269767 0
M  V30 1536 H 159.554 -3.96013 -1.28372 0
M  V30 1537 H 160.087 -3.95629 0.41505 0
M  V30 1538 H 156.826 -6.02336 2.58597 0
M  V30 1539 H 156.346 -5.93373 0.875725 0
M  V30 1540 H 158.025 -6.33515 1.31408 0
M  V30 1541 N 158.157 -0.370918 -1.53173 0
M  V30 1542 C 159.087 0.464847 -2.28826 0
M  V30 1543 C 160.068 1.07936 -1.31468 0
M  V30 1544 O 161.253 1.0956 -1.60344 0
M  V30 1545 C 158.383 1.60196 -3.08147 0
M  V30 1546 C 157.337 1.11443 -4.13237 0
M  V30 1547 C 156.663 2.3422 -4.80672 0
M  V30 1548 C 157.963 0.195384 -5.21934 0
M  V30 1549 H 159.657 -0.166329 -2.98938 0
M  V30 1550 H 157.203 -0.0814359 -1.4377 0
M  V30 1551 H 159.156 2.19332 -3.59822 0
M  V30 1552 H 157.88 2.26045 -2.35735 0
M  V30 1553 H 156.539 0.545727 -3.62515 0
M  V30 1554 H 156.187 2.98537 -4.04827 0
M  V30 1555 H 155.887 2.02269 -5.51689 0
M  V30 1556 H 157.411 2.94032 -5.35143 0
M  V30 1557 H 158.825 0.694375 -5.69079 0
M  V30 1558 H 157.222 -0.0335027 -6.00091 0
M  V30 1559 H 158.292 -0.760961 -4.78892 0
M  V30 1560 N 159.635 1.57281 -0.100228 0
M  V30 1561 C 160.912 1.86014 0.604812 0
M  V30 1562 C 161.292 0.998025 1.86018 0
M  V30 1563 O 160.64 0.0718184 2.28387 0
M  V30 1564 C 160.85 3.36784 0.915278 0
M  V30 1565 C 162.198 4.04957 1.27651 0
M  V30 1566 O 163.222 3.41695 1.00613 0
M  V30 1567 O 162.081 5.16593 1.7831 0
M  V30 1568 H 159.175 0.76942 0.303185 0
M  V30 1569 H 161.721 1.69176 -0.133313 0
M  V30 1570 H 160.493 3.91292 0.0248896 0
M  V30 1571 H 160.116 3.58987 1.70921 0
M  V30 1572 N 161.113 -0.173488 1.56642 0
M  V30 1573 C 162.36 -0.890465 1.81871 0
M  V30 1574 C 162.688 -1.82339 0.67696 0
M  V30 1575 O 161.943 -1.92795 -0.335926 0
M  V30 1576 C 162.242 -1.72069 3.13252 0
M  V30 1577 C 161.908 -0.936878 4.41059 0
M  V30 1578 C 160.57 -0.720545 4.75775 0
M  V30 1579 C 162.922 -0.386919 5.19762 0
M  V30 1580 C 160.25 0.0568829 5.86672 0
M  V30 1581 C 162.602 0.37741 6.31473 0
M  V30 1582 C 161.266 0.604563 6.64757 0
M  V30 1583 H 160.536 -0.325844 0.665512 0
M  V30 1584 H 163.183 -0.155527 1.90867 0
M  V30 1585 H 161.488 -2.52496 2.99588 0
M  V30 1586 H 163.185 -2.27844 3.29982 0
M  V30 1587 H 159.775 -1.11553 4.13828 0
M  V30 1588 H 163.959 -0.541398 4.93338 0
M  V30 1589 H 159.215 0.242635 6.10918 0
M  V30 1590 H 163.389 0.810825 6.91664 0
M  V30 1591 H 161.016 1.20885 7.50527 0
M  V30 1592 N 162.591 -1.51276 -0.441967 0
M  V30 1593 C 163.84 -1.6295 -1.18871 0
M  V30 1594 C 164.153 -0.349312 -1.92456 0
M  V30 1595 O 165.359 -0.345355 -2.69295 0
M  V30 1596 C 163.815 -2.87759 -2.16155 0
M  V30 1597 C 163.423 -4.22764 -1.48239 0
M  V30 1598 C 165.167 -3.08788 -2.91291 0
M  V30 1599 C 163.074 -5.38728 -2.4398 0
M  V30 1600 H 162.004 -0.606913 -0.447406 0
M  V30 1601 H 164.655 -1.77739 -0.456205 0
M  V30 1602 H 163.037 -2.66593 -2.92821 0
M  V30 1603 H 164.211 -4.54293 -0.771635 0
M  V30 1604 H 162.526 -4.07575 -0.852741 0
M  V30 1605 H 165.123 -3.92599 -3.63002 0
M  V30 1606 H 165.466 -2.21679 -3.5237 0
M  V30 1607 H 165.999 -3.30272 -2.21733 0
M  V30 1608 H 162.738 -6.28082 -1.87598 0
M  V30 1609 H 162.258 -5.1158 -3.13123 0
M  V30 1610 H 163.937 -5.70489 -3.05207 0
M  V30 1611 N 164.069 0.697108 -1.41344 0
M  V30 1612 C 165.294 1.49096 -1.44171 0
M  V30 1613 C 165.719 1.88038 -0.0481568 0
M  V30 1614 O 165.077 1.54525 0.948243 0
M  V30 1615 C 165.125 2.73088 -2.3549 0
M  V30 1616 O 164.229 3.70514 -1.81088 0
M  V30 1617 H 163.57 0.448801 -0.489361 0
M  V30 1618 H 166.1 0.856992 -1.85787 0
M  V30 1619 H 166.11 3.21413 -2.51312 0
M  V30 1620 H 164.785 2.44081 -3.36745 0
M  V30 1621 H 163.362 3.29441 -1.74708 0
M  V30 1622 N 165.547 1.27147 0.931209 0
M  V30 1623 C 166.772 1.16191 1.71797 0
M  V30 1624 C 167.197 -0.278004 1.86034 0
M  V30 1625 O 166.555 -1.20137 1.35782 0
M  V30 1626 C 166.603 1.84673 3.09723 0
M  V30 1627 O 165.707 1.14231 3.96264 0
M  V30 1628 H 165.048 0.404303 0.526721 0
M  V30 1629 H 167.578 1.68152 1.1656 0
M  V30 1630 H 167.588 1.91893 3.60057 0
M  V30 1631 H 166.263 2.89421 2.98677 0
M  V30 1632 H 164.84 1.15056 3.54706 0
M  V30 1633 N 167.025 -1.13721 1.09112 0
M  V30 1634 C 167.957 -2.1871 0.685467 0
M  V30 1635 C 168.97 -1.60527 -0.271068 0
M  V30 1636 O 170.159 -1.78407 -0.0576148 0
M  V30 1637 C 167.259 -3.38898 -0.0111255 0
M  V30 1638 C 166.432 -4.26597 0.966131 0
M  V30 1639 C 165.491 -5.25324 0.303539 0
M  V30 1640 O 164.517 -5.61213 0.950177 0
M  V30 1641 N 165.719 -5.72779 -0.943651 0
M  V30 1642 H 168.484 -2.54126 1.58871 0
M  V30 1643 H 166.045 -1.29012 0.978143 0
M  V30 1644 H 168.037 -4.02014 -0.465517 0
M  V30 1645 H 166.607 -3.01747 -0.816565 0
M  V30 1646 H 165.827 -3.60306 1.59917 0
M  V30 1647 H 167.115 -4.82048 1.6281 0
M  V30 1648 H 166.513 -5.45762 -1.48862 0
M  V30 1649 H 165.07 -6.37847 -1.34142 0
M  V30 1650 N 168.503 -0.877838 -1.30888 0
M  V30 1651 C 169.731 -0.507414 -2.00581 0
M  V30 1652 C 170.146 0.902216 -1.65848 0
M  V30 1653 O 169.503 1.59225 -0.891831 0
M  V30 1654 C 169.554 -0.664162 -3.55347 0
M  V30 1655 O 169.275 -2.01829 -3.8884 0
M  V30 1656 C 170.776 -0.295787 -4.42312 0
M  V30 1657 H 167.996 -0.196866 -0.641471 0
M  V30 1658 H 170.54 -1.18117 -1.66939 0
M  V30 1659 H 168.695 -0.0378619 -3.87381 0
M  V30 1660 H 169.109 -2.03174 -4.8355 0
M  V30 1661 H 170.583 -0.456388 -5.5011 0
M  V30 1662 H 171.06 0.765663 -4.32475 0
M  V30 1663 H 171.666 -0.898113 -4.15709 0
M  V30 1664 N 169.982 1.44106 -0.638065 0
M  V30 1665 C 170.932 2.27843 0.0847285 0
M  V30 1666 C 171.916 1.39055 0.809471 0
M  V30 1667 O 173.108 1.62808 0.694435 0
M  V30 1668 C 170.237 3.26497 1.06089 0
M  V30 1669 C 169.323 4.22772 0.33541 0
M  V30 1670 N 169.714 5.01737 -0.639787 0
M  V30 1671 C 168.012 4.42227 0.578921 0
M  V30 1672 C 168.713 5.71792 -1.06904 0
M  V30 1673 N 167.689 5.42079 -0.406395 0
M  V30 1674 H 171.491 2.86305 -0.663814 0
M  V30 1675 H 169.005 1.55627 -0.464122 0
M  V30 1676 H 171.002 3.8525 1.59337 0
M  V30 1677 H 169.662 2.69595 1.80966 0
M  V30 1678 H 170.673 5.07799 -1.01789 0
M  V30 1679 H 167.35 3.96415 1.31003 0
M  V30 1680 H 168.74 6.45205 -1.8751 0
M  V30 1681 N 171.46 0.379036 1.52974 0
M  V30 1682 C 172.706 -0.206727 2.01744 0
M  V30 1683 C 173.039 -1.47314 1.26539 0
M  V30 1684 O 172.314 -1.91084 0.362903 0
M  V30 1685 C 172.597 -0.485066 3.56818 0
M  V30 1686 C 172.45 0.795919 4.42702 0
M  V30 1687 C 173.769 -1.28003 4.21074 0
M  V30 1688 H 170.888 -0.0736607 0.73331 0
M  V30 1689 H 173.53 0.506581 1.83122 0
M  V30 1690 H 171.68 -1.09272 3.72816 0
M  V30 1691 H 173.352 1.43307 4.38476 0
M  V30 1692 H 171.595 1.41344 4.10127 0
M  V30 1693 H 172.266 0.555947 5.49193 0
M  V30 1694 H 174.742 -0.765867 4.08991 0
M  V30 1695 H 173.618 -1.44352 5.29579 0
M  V30 1696 H 173.879 -2.29236 3.78026 0
M  V30 1697 N 172.938 -1.57226 0.108567 0
M  V30 1698 C 174.349 -1.8195 -0.418464 0
M  V30 1699 C 174.7 -1.02508 -1.67292 0
M  V30 1700 O 173.825 -0.258496 -2.14851 0
M  V30 1701 C 174.42 -3.30028 -0.765979 0
M  V30 1702 C 172.979 -3.55469 -1.23769 0
M  V30 1703 C 172.126 -2.7625 -0.241106 0
M  V30 1704 H 175.077 -1.55149 0.33384 0
M  V30 1705 H 175.098 -3.44086 -1.62434 0
M  V30 1706 H 174.61 -3.87821 0.147219 0
M  V30 1707 H 172.711 -3.03022 -2.16814 0
M  V30 1708 H 172.824 -4.6408 -1.19022 0
M  V30 1709 H 171.188 -2.44133 -0.72602 0
M  V30 1710 H 171.971 -3.36797 0.665007 0
M  V30 1711 N 174.416 0.165178 -1.56732 0
M  V30 1712 C 175.665 0.879143 -1.81532 0
M  V30 1713 C 175.978 1.83144 -0.686842 0
M  V30 1714 O 177.184 2.58823 -0.819944 0
M  V30 1715 C 175.64 1.61388 -3.21686 0
M  V30 1716 C 175.248 0.704904 -4.4242 0
M  V30 1717 C 176.992 2.3157 -3.55774 0
M  V30 1718 C 174.899 1.44022 -5.73595 0
M  V30 1719 H 173.829 0.332033 -0.676957 0
M  V30 1720 H 176.48 0.132008 -1.83025 0
M  V30 1721 H 174.862 2.40599 -3.14529 0
M  V30 1722 H 176.036 -0.0506815 -4.60772 0
M  V30 1723 H 174.351 0.112419 -4.16248 0
M  V30 1724 H 176.948 2.8719 -4.51028 0
M  V30 1725 H 177.291 3.07201 -2.8095 0
M  V30 1726 H 177.824 1.59297 -3.64513 0
M  V30 1727 H 174.563 0.72612 -6.51466 0
M  V30 1728 H 174.083 2.16898 -5.5921 0
M  V30 1729 H 175.762 1.98606 -6.15764 0
M  V30 1730 N 175.894 1.51508 0.433938 0
M  V30 1731 C 176.824 1.76016 1.53429 0
M  V30 1732 C 177.805 0.610112 1.58782 0
M  V30 1733 O 178.99 0.853177 1.74455 0
M  V30 1734 C 176.12 1.88831 2.9148 0
M  V30 1735 C 175.074 3.04288 3.00987 0
M  V30 1736 C 174.4 3.0229 4.4105 0
M  V30 1737 C 175.7 4.44193 2.74754 0
M  V30 1738 H 177.394 2.68152 1.33171 0
M  V30 1739 H 174.94 1.29035 0.639214 0
M  V30 1740 H 176.893 2.04559 3.6842 0
M  V30 1741 H 175.617 0.933455 3.12976 0
M  V30 1742 H 174.276 2.8827 2.26486 0
M  V30 1743 H 173.924 2.04576 4.59519 0
M  V30 1744 H 173.624 3.79822 4.4834 0
M  V30 1745 H 175.148 3.20116 5.1996 0
M  V30 1746 H 176.562 4.60544 3.41426 0
M  V30 1747 H 174.959 5.23457 2.9345 0
M  V30 1748 H 176.029 4.53996 1.70339 0
M  V30 1749 N 177.372 -0.689602 1.41712 0
M  V30 1750 C 178.597 -1.48329 1.44959 0
M  V30 1751 C 179.022 -1.8801 0.0581283 0
M  V30 1752 O 178.38 -1.55026 -0.940035 0
M  V30 1753 C 178.428 -2.71835 2.36935 0
M  V30 1754 O 177.532 -3.69549 1.8305 0
M  V30 1755 H 176.873 -0.446199 0.491734 0
M  V30 1756 H 179.403 -0.847127 1.86239 0
M  V30 1757 H 179.413 -3.20076 2.53013 0
M  V30 1758 H 178.088 -2.42291 3.38035 0
M  V30 1759 H 176.665 -3.2851 1.76452 0
M  V30 1760 N 178.85 -1.27639 -0.924453 0
M  V30 1761 C 180.099 -1.13549 -1.66702 0
M  V30 1762 C 180.412 0.317487 -1.93006 0
M  V30 1763 O 181.618 0.579333 -2.65247 0
M  V30 1764 C 180.074 -1.98426 -3.00259 0
M  V30 1765 C 179.682 -3.484 -2.81641 0
M  V30 1766 C 181.426 -1.92993 -3.78092 0
M  V30 1767 C 179.333 -4.25464 -4.10773 0
M  V30 1768 H 178.263 -0.421351 -0.625283 0
M  V30 1769 H 180.914 -1.52085 -1.02676 0
M  V30 1770 H 179.296 -1.52736 -3.6536 0
M  V30 1771 H 180.47 -4.01973 -2.25287 0
M  V30 1772 H 178.785 -3.55245 -2.17232 0
M  V30 1773 H 181.382 -2.47844 -4.7379 0
M  V30 1774 H 181.725 -0.904281 -4.0636 0
M  V30 1775 H 182.258 -2.36595 -3.19793 0
M  V30 1776 H 178.997 -5.28566 -3.87683 0
M  V30 1777 H 178.517 -3.76667 -4.66779 0
M  V30 1778 H 180.196 -4.34812 -4.79111 0
M  V30 1779 N 180.328 1.1314 -1.09713 0
M  V30 1780 C 181.553 1.88862 -0.857081 0
M  V30 1781 C 181.978 1.78729 0.586304 0
M  V30 1782 O 181.336 1.13692 1.41222 0
M  V30 1783 C 181.384 3.36325 -1.30069 0
M  V30 1784 O 180.488 4.09815 -0.461007 0
M  V30 1785 H 179.829 0.587108 -0.310162 0
M  V30 1786 H 182.359 1.43129 -1.46203 0
M  V30 1787 H 182.369 3.87157 -1.28738 0
M  V30 1788 H 181.044 3.43017 -2.35185 0
M  V30 1789 H 179.621 3.68986 -0.538888 0
M  V30 1790 N 181.806 0.884767 1.30421 0
M  V30 1791 C 183.054 0.502112 1.95763 0
M  V30 1792 C 183.375 -0.951815 1.70192 0
M  V30 1793 O 182.645 -1.6692 1.0254 0
M  V30 1794 H 181.225 0.182694 0.724315 0
M  V30 1795 H 183.887 1.1278 1.58955 0
M  V30 1796 H 182.983 0.672188 3.04775 0
M  V30 1797 N 183.284 -1.43765 0.645699 0
M  V30 1798 C 184.532 -2.01499 0.155731 0
M  V30 1799 C 184.853 -1.51151 -1.232 0
M  V30 1800 O 184.123 -0.721044 -1.82148 0
M  V30 1801 H 182.703 -0.745003 0.0545817 0
M  V30 1802 H 185.365 -1.76075 0.835677 0
M  V30 1803 H 184.461 -3.1181 0.134577 0
M  V30 1804 N 184.763 -0.387143 -1.52771 0
M  V30 1805 C 185.988 0.198407 -2.06449 0
M  V30 1806 C 186.413 1.39918 -1.25716 0
M  V30 1807 O 185.771 1.79099 -0.281657 0
M  V30 1808 C 185.819 0.548893 -3.56398 0
M  V30 1809 O 184.923 1.64315 -3.78252 0
M  V30 1810 H 184.264 0.0237731 -0.663574 0
M  V30 1811 H 186.794 -0.553989 -1.96957 0
M  V30 1812 H 186.804 0.813812 -3.99801 0
M  V30 1813 H 185.479 -0.329005 -4.14597 0
M  V30 1814 H 184.056 1.37211 -3.46738 0
M  V30 1815 N 186.241 1.57166 -0.116904 0
M  V30 1816 C 187.204 2.14039 0.819742 0
M  V30 1817 C 188.204 1.07477 1.19605 0
M  V30 1818 O 189.394 1.33263 1.1219 0
M  V30 1819 C 186.526 2.67891 2.10826 0
M  V30 1820 H 187.719 2.98128 0.325511 0
M  V30 1821 H 185.272 1.55739 0.132312 0
M  V30 1822 H 186.007 1.87384 2.64685 0
M  V30 1823 H 185.792 3.45823 1.84793 0
M  V30 1824 H 187.282 3.11809 2.77785 0
M  V30 1825 N 187.719 -0.156864 1.56817 0
M  V30 1826 C 188.965 -0.872416 1.83076 0
M  V30 1827 C 189.298 -1.81261 0.697001 0
M  V30 1828 O 188.573 -1.92171 -0.30008 0
M  V30 1829 C 188.856 -1.65551 3.19789 0
M  V30 1830 C 188.709 -0.737467 4.43713 0
M  V30 1831 C 190.028 -2.62012 3.53606 0
M  V30 1832 H 187.147 -0.315715 0.665953 0
M  V30 1833 H 189.789 -0.138004 1.89498 0
M  V30 1834 H 187.939 -2.28159 3.14445 0
M  V30 1835 H 189.611 -0.123143 4.61136 0
M  V30 1836 H 187.854 -0.0464067 4.33775 0
M  V30 1837 H 188.525 -1.32122 5.35955 0
M  V30 1838 H 191.001 -2.09525 3.59497 0
M  V30 1839 H 189.877 -3.13861 4.50314 0
M  V30 1840 H 190.138 -3.42902 2.79053 0
M  V30 1841 N 189.197 -1.51736 -0.425897 0
M  V30 1842 C 190.443 -1.65214 -1.1761 0
M  V30 1843 C 190.776 -0.372778 -1.90589 0
M  V30 1844 O 190.051 0.628139 -1.84078 0
M  V30 1845 C 190.334 -2.86312 -2.18398 0
M  V30 1846 C 190.187 -4.24254 -1.49426 0
M  V30 1847 C 191.506 -3.02925 -3.19256 0
M  V30 1848 H 188.625 -0.601263 -0.426206 0
M  V30 1849 H 191.267 -1.8425 -0.463882 0
M  V30 1850 H 189.417 -2.70213 -2.79137 0
M  V30 1851 H 191.089 -4.52046 -0.919362 0
M  V30 1852 H 189.332 -4.26426 -0.796432 0
M  V30 1853 H 190.003 -5.05001 -2.22885 0
M  V30 1854 H 192.479 -3.1781 -2.68581 0
M  V30 1855 H 191.355 -3.89199 -3.8706 0
M  V30 1856 H 191.616 -2.15497 -3.86023 0
M  V30 1857 N 190.675 0.682077 -1.42076 0
M  V30 1858 C 191.605 1.80796 -1.47767 0
M  V30 1859 C 192.586 1.6677 -0.334954 0
M  V30 1860 O 193.771 1.863 -0.548264 0
M  V30 1861 C 190.901 3.19038 -1.37229 0
M  V30 1862 C 189.855 3.47789 -2.49453 0
M  V30 1863 C 189.181 4.8553 -2.23975 0
M  V30 1864 C 190.481 3.45411 -3.91776 0
M  V30 1865 H 192.175 1.7629 -2.41997 0
M  V30 1866 H 189.721 0.846721 -1.16476 0
M  V30 1867 H 191.674 3.97528 -1.39821 0
M  V30 1868 H 190.398 3.24204 -0.394907 0
M  V30 1869 H 189.057 2.71657 -2.46166 0
M  V30 1870 H 188.705 4.87337 -1.24547 0
M  V30 1871 H 188.405 5.0573 -2.99184 0
M  V30 1872 H 189.929 5.66312 -2.28304 0
M  V30 1873 H 191.343 4.13882 -3.96705 0
M  V30 1874 H 189.74 3.77145 -4.66778 0
M  V30 1875 H 190.81 2.44122 -4.18966 0
M  V30 1876 N 192.153 1.28127 0.917671 0
M  V30 1877 C 193.381 1.17892 1.70026 0
M  V30 1878 C 193.796 -0.262958 1.8696 0
M  V30 1879 O 193.153 -1.17811 1.3938 0
M  V30 1880 C 193.204 1.86872 3.09453 0
M  V30 1881 O 192.925 3.25428 2.93306 0
M  V30 1882 C 194.426 1.8289 4.03815 0
M  V30 1883 H 191.646 0.40942 0.531617 0
M  V30 1884 H 194.19 1.69181 1.14883 0
M  V30 1885 H 192.345 1.39464 3.61426 0
M  V30 1886 H 192.759 3.59918 3.81523 0
M  V30 1887 H 194.233 2.35751 4.99125 0
M  V30 1888 H 194.71 0.800412 4.31845 0
M  V30 1889 H 195.316 2.29959 3.57769 0
M  V30 1890 N 193.631 -1.12557 1.10312 0
M  V30 1891 C 195.042 -1.65574 0.862678 0
M  V30 1892 C 195.393 -1.86566 -0.607256 0
M  V30 1893 O 194.518 -1.59121 -1.46662 0
M  V30 1894 C 195.113 -3.00776 1.55947 0
M  V30 1895 C 193.672 -3.50748 1.36576 0
M  V30 1896 C 192.819 -2.25797 1.60968 0
M  V30 1897 H 195.77 -0.963552 1.26101 0
M  V30 1898 H 195.791 -3.67185 0.997753 0
M  V30 1899 H 195.303 -2.85465 2.62928 0
M  V30 1900 H 193.404 -3.71245 0.317531 0
M  V30 1901 H 193.517 -4.30289 2.10686 0
M  V30 1902 H 191.881 -2.32841 1.03234 0
M  V30 1903 H 192.664 -2.13043 2.69198 0
M  V30 1904 N 195.109 -0.891671 -1.2995 0
M  V30 1905 C 196.056 -0.361736 -2.27948 0
M  V30 1906 C 197.026 0.551761 -1.56668 0
M  V30 1907 O 198.211 0.478736 -1.84696 0
M  V30 1908 C 195.351 0.411825 -3.42634 0
M  V30 1909 C 194.464 -0.531651 -4.28716 0
M  V30 1910 C 193.599 0.258167 -5.30572 0
M  V30 1911 C 192.638 -0.680349 -6.08307 0
M  V30 1912 N 191.775 0.0745613 -7.0206 0
M  V30 1913 H 196.615 -1.20254 -2.72659 0
M  V30 1914 H 194.152 -0.604352 -1.34112 0
M  V30 1915 H 196.11 0.876304 -4.07893 0
M  V30 1916 H 194.74 1.21715 -2.98974 0
M  V30 1917 H 193.792 -1.11463 -3.63703 0
M  V30 1918 H 195.104 -1.25038 -4.82874 0
M  V30 1919 H 194.258 0.784204 -6.0161 0
M  V30 1920 H 192.997 1.01008 -4.77126 0
M  V30 1921 H 192.002 -1.21796 -5.3614 0
M  V30 1922 H 193.227 -1.43145 -6.63842 0
M  V30 1923 H 191.173 0.808883 -6.50994 0
M  V30 1924 H 191.09 -0.584409 -7.53738 0
M  V30 1925 H 192.358 0.581123 -7.77331 0
M  V30 1926 N 196.587 1.43421 -0.653314 0
M  V30 1927 C 197.497 2.34568 0.0388565 0
M  V30 1928 C 198.513 1.53888 0.81207 0
M  V30 1929 O 199.689 1.86539 0.759294 0
M  V30 1930 C 196.754 3.32167 0.993269 0
M  V30 1931 C 195.815 4.28751 0.216977 0
M  V30 1932 C 195.048 5.21688 1.12593 0
M  V30 1933 O 195.271 5.19052 2.36519 0
M  V30 1934 O 194.205 5.98919 0.598284 0
M  V30 1935 H 198.031 2.95251 -0.711386 0
M  V30 1936 H 195.616 1.43564 -0.413502 0
M  V30 1937 H 197.498 3.92183 1.54176 0
M  V30 1938 H 196.173 2.73987 1.72374 0
M  V30 1939 H 195.08 3.72215 -0.375101 0
M  V30 1940 H 196.413 4.89913 -0.473924 0
M  V30 1941 N 198.065 0.39524 1.52563 0
M  V30 1942 C 199.476 -0.0774719 1.86539 0
M  V30 1943 C 199.827 -1.45641 1.31466 0
M  V30 1944 O 198.952 -2.06459 0.648367 0
M  V30 1945 C 199.547 -0.147356 3.38479 0
M  V30 1946 C 198.106 -0.564373 3.72145 0
M  V30 1947 C 197.253 0.269919 2.75983 0
M  V30 1948 H 200.204 0.612876 1.46388 0
M  V30 1949 H 200.225 -0.965343 3.68051 0
M  V30 1950 H 199.737 0.856387 3.78534 0
M  V30 1951 H 197.838 -1.57527 3.37663 0
M  V30 1952 H 197.951 -0.318402 4.78041 0
M  V30 1953 H 196.315 -0.265696 2.5331 0
M  V30 1954 H 197.098 1.27175 3.18875 0
M  V30 1955 N 199.544 -1.57102 0.125237 0
M  V30 1956 C 200.792 -1.95021 -0.530198 0
M  V30 1957 C 201.113 -1.00982 -1.66816 0
M  V30 1958 O 200.383 -0.0672693 -1.95784 0
M  V30 1959 H 198.963 -0.720046 -0.198853 0
M  V30 1960 H 201.625 -1.93916 0.19564 0
M  V30 1961 H 200.721 -2.98211 -0.920681 0
M  V30 1962 N 201.022 0.148545 -1.56898 0
M  V30 1963 C 202.247 0.880385 -1.87787 0
M  V30 1964 C 202.672 1.74018 -0.714093 0
M  V30 1965 O 202.03 1.78153 0.336343 0
M  V30 1966 C 202.078 1.71422 -3.17249 0
M  V30 1967 O 201.182 2.8183 -3.01074 0
M  V30 1968 H 200.523 0.245301 -0.617028 0
M  V30 1969 H 203.053 0.139826 -2.04122 0
M  V30 1970 H 203.063 2.10954 -3.49231 0
M  V30 1971 H 201.738 1.08284 -4.01556 0
M  V30 1972 H 200.315 2.45715 -2.80497 0
M  V30 1973 N 202.5 1.5196 0.417844 0
M  V30 1974 C 203.463 1.74065 1.49111 0
M  V30 1975 C 204.463 0.610537 1.48758 0
M  V30 1976 O 205.653 0.87832 1.50437 0
M  V30 1977 C 202.785 1.81502 2.88565 0
M  V30 1978 H 203.978 2.69869 1.30807 0
M  V30 1979 H 201.531 1.42244 0.647785 0
M  V30 1980 H 202.266 0.875813 3.1225 0
M  V30 1981 H 202.051 2.63651 2.90225 0
M  V30 1982 H 203.541 2.00376 3.66387 0
M  V30 1983 N 203.978 -0.674533 1.42435 0
M  V30 1984 C 205.225 -1.43459 1.42919 0
M  V30 1985 C 205.553 -1.94446 0.0457312 0
M  V30 1986 O 204.808 -1.7132 -0.94593 0
M  V30 1987 C 205.107 -2.64767 2.40069 0
M  V30 1988 C 204.773 -2.3232 3.86443 0
M  V30 1989 C 203.435 -2.23182 4.26314 0
M  V30 1990 C 205.787 -2.05977 4.78773 0
M  V30 1991 C 203.115 -1.85827 5.56494 0
M  V30 1992 C 205.467 -1.70125 6.09295 0
M  V30 1993 C 204.131 -1.59498 6.48164 0
M  V30 1994 H 203.401 -0.524952 0.522978 0
M  V30 1995 H 206.048 -0.769097 1.75377 0
M  V30 1996 H 204.353 -3.36349 2.00939 0
M  V30 1997 H 206.05 -3.22949 2.37707 0
M  V30 1998 H 202.64 -2.40334 3.54877 0
M  V30 1999 H 206.824 -2.11969 4.48757 0
M  V30 2000 H 202.08 -1.76168 5.8547 0
M  V30 2001 H 206.254 -1.48767 6.80324 0
M  V30 2002 H 203.881 -1.30322 7.48946 0
M  V30 2003 N 205.456 -1.28612 -0.910864 0
M  V30 2004 C 206.386 -1.15326 -2.03032 0
M  V30 2005 C 207.367 -0.0502924 -1.70026 0
M  V30 2006 O 208.552 -0.227797 -1.92859 0
M  V30 2007 C 205.682 -0.817343 -3.37545 0
M  V30 2008 C 204.636 -1.8754 -3.84724 0
M  V30 2009 C 203.962 -1.39305 -5.16235 0
M  V30 2010 C 205.262 -3.28244 -4.06267 0
M  V30 2011 H 206.956 -2.08975 -2.14406 0
M  V30 2012 H 204.502 -1.00612 -1.03021 0
M  V30 2013 H 206.455 -0.711151 -4.15356 0
M  V30 2014 H 205.179 0.154846 -3.26233 0
M  V30 2015 H 203.838 -1.97079 -3.09121 0
M  V30 2016 H 203.486 -0.409846 -5.01328 0
M  V30 2017 H 203.186 -2.10057 -5.48771 0
M  V30 2018 H 204.71 -1.30014 -5.96598 0
M  V30 2019 H 206.124 -3.21611 -4.74594 0
M  V30 2020 H 204.521 -3.96855 -4.5014 0
M  V30 2021 H 205.591 -3.72048 -3.10979 0
M  V30 2022 N 206.934 1.1197 -1.10907 0
M  V30 2023 C 207.866 2.17592 -0.720175 0
M  V30 2024 C 208.879 1.60938 0.245495 0
M  V30 2025 O 210.068 1.78476 0.0292245 0
M  V30 2026 C 207.168 3.38873 -0.0427917 0
M  V30 2027 C 206.341 4.25006 -1.03388 0
M  V30 2028 C 205.4 5.24774 -0.387075 0
M  V30 2029 O 204.426 5.59631 -1.03934 0
M  V30 2030 N 205.628 5.74208 0.852407 0
M  V30 2031 H 208.393 2.51567 -1.62893 0
M  V30 2032 H 205.954 1.27439 -0.998543 0
M  V30 2033 H 207.946 4.02703 0.401501 0
M  V30 2034 H 206.516 3.03007 0.768456 0
M  V30 2035 H 205.736 3.57716 -1.65629 0
M  V30 2036 H 207.024 4.79397 -1.70458 0
M  V30 2037 H 206.422 5.48062 1.40161 0
M  V30 2038 H 204.979 6.39901 1.23977 0
M  V30 2039 N 208.412 0.89855 1.29475 0
M  V30 2040 C 209.342 0.39201 2.30186 0
M  V30 2041 C 210.323 -0.532359 1.61555 0
M  V30 2042 O 211.508 -0.443331 1.89072 0
M  V30 2043 C 208.638 -0.382353 3.45189 0
M  V30 2044 C 207.592 0.451483 4.25612 0
M  V30 2045 C 206.918 -0.450307 5.328 0
M  V30 2046 C 208.218 1.70079 4.93832 0
M  V30 2047 H 209.912 1.23362 2.72804 0
M  V30 2048 H 207.458 0.594638 1.31149 0
M  V30 2049 H 209.411 -0.747451 4.14718 0
M  V30 2050 H 208.135 -1.25774 3.01411 0
M  V30 2051 H 206.794 0.798897 3.57789 0
M  V30 2052 H 206.442 -1.32379 4.85268 0
M  V30 2053 H 206.142 0.103902 5.87508 0
M  V30 2054 H 207.666 -0.811623 6.05182 0
M  V30 2055 H 209.08 1.40549 5.55805 0
M  V30 2056 H 207.477 2.19623 5.58467 0
M  V30 2057 H 208.547 2.43744 4.19186 0
M  V30 2058 N 209.89 -1.43072 0.660911 0
M  V30 2059 C 211.138 -2.01323 0.177094 0
M  V30 2060 C 211.459 -1.5245 -1.2159 0
M  V30 2061 O 210.729 -0.740322 -1.81373 0
M  V30 2062 H 209.309 -0.744382 0.0624804 0
M  V30 2063 H 211.971 -1.75179 0.854305 0
M  V30 2064 H 211.067 -3.11649 0.167641 0
M  V30 2065 N 211.368 -0.403325 -1.52352 0
M  V30 2066 C 212.614 0.174605 -2.02047 0
M  V30 2067 C 212.947 1.45282 -1.28867 0
M  V30 2068 O 212.222 1.90483 -0.393257 0
M  V30 2069 C 212.505 0.428238 -3.57545 0
M  V30 2070 C 212.358 -0.866248 -4.4138 0
M  V30 2071 C 213.677 1.21287 -4.23057 0
M  V30 2072 H 210.796 0.0619851 -0.734389 0
M  V30 2073 H 213.438 -0.53565 -1.82293 0
M  V30 2074 H 211.588 1.03327 -3.74507 0
M  V30 2075 H 213.26 -1.50265 -4.3614 0
M  V30 2076 H 211.503 -1.47851 -4.07827 0
M  V30 2077 H 212.174 -0.643249 -5.48239 0
M  V30 2078 H 214.65 0.700703 -4.10158 0
M  V30 2079 H 213.526 1.35909 -5.31808 0
M  V30 2080 H 213.787 2.23193 -3.81625 0
M  V30 2081 N 212.846 1.57033 -0.133567 0
M  V30 2082 C 214.071 2.00475 0.531477 0
M  V30 2083 C 214.496 1.01291 1.58499 0
M  V30 2084 O 213.854 -0.0133279 1.81295 0
M  V30 2085 C 213.902 3.42729 1.12113 0
M  V30 2086 O 213.006 3.46498 2.23636 0
M  V30 2087 H 212.347 0.650876 0.131362 0
M  V30 2088 H 214.877 2.03344 -0.22634 0
M  V30 2089 H 214.887 3.81246 1.4531 0
M  V30 2090 H 213.562 4.14428 0.349557 0
M  V30 2091 H 212.139 3.19811 1.91769 0
M  V30 2092 N 214.325 -0.140222 1.56975 0
M  V30 2093 C 215.255 -1.17456 2.01808 0
M  V30 2094 C 216.236 -1.44415 0.898794 0
M  V30 2095 O 217.421 -1.5522 1.16707 0
M  V30 2096 C 214.551 -2.50607 2.40444 0
M  V30 2097 C 213.505 -2.38155 3.55621 0
M  V30 2098 C 212.831 -3.76078 3.80091 0
M  V30 2099 C 214.131 -1.85991 4.88062 0
M  V30 2100 H 215.825 -0.801743 2.88466 0
M  V30 2101 H 213.371 -0.38422 1.38779 0
M  V30 2102 H 215.324 -3.23197 2.7041 0
M  V30 2103 H 214.048 -2.89737 1.50732 0
M  V30 2104 H 212.707 -1.68016 3.25832 0
M  V30 2105 H 212.355 -4.12656 2.87618 0
M  V30 2106 H 212.055 -3.68606 4.57606 0
M  V30 2107 H 213.579 -4.50206 4.12488 0
M  V30 2108 H 214.993 -2.4838 5.16701 0
M  V30 2109 H 213.39 -1.89393 5.6943 0
M  V30 2110 H 214.46 -0.816023 4.77984 0
M  V30 2111 N 215.803 -1.52179 -0.40978 0
M  V30 2112 C 216.713 -1.78364 -1.52392 0
M  V30 2113 C 217.729 -0.669183 -1.60617 0
M  V30 2114 O 218.905 -0.954518 -1.77344 0
M  V30 2115 C 215.97 -1.92822 -2.88133 0
M  V30 2116 C 215.031 -3.16725 -2.898 0
M  V30 2117 C 214.264 -3.30483 -4.19067 0
M  V30 2118 O 214.487 -2.49522 -5.12928 0
M  V30 2119 O 213.421 -4.2363 -4.27576 0
M  V30 2120 H 217.247 -2.72931 -1.33201 0
M  V30 2121 H 214.832 -1.37016 -0.59557 0
M  V30 2122 H 216.714 -2.04157 -3.68643 0
M  V30 2123 H 215.389 -1.01444 -3.07393 0
M  V30 2124 H 214.296 -3.10848 -2.08146 0
M  V30 2125 H 215.629 -4.07881 -2.75489 0
M  V30 2126 N 217.281 0.66697 -1.42791 0
M  V30 2127 C 218.213 1.7925 -1.42836 0
M  V30 2128 C 219.226 1.59496 -0.326333 0
M  V30 2129 O 220.415 1.6847 -0.589916 0
M  V30 2130 C 217.515 3.16476 -1.21229 0
M  V30 2131 C 216.688 3.63011 -2.44013 0
M  V30 2132 C 215.747 4.78993 -2.17834 0
M  V30 2133 O 214.773 4.89137 -2.91091 0
M  V30 2134 N 215.975 5.68248 -1.18635 0
M  V30 2135 H 218.74 1.79695 -2.39854 0
M  V30 2136 H 216.301 0.850338 -1.37771 0
M  V30 2137 H 218.293 3.91734 -1.01621 0
M  V30 2138 H 216.863 3.10884 -0.32706 0
M  V30 2139 H 216.083 2.78346 -2.79137 0
M  V30 2140 H 217.371 3.90845 -3.25757 0
M  V30 2141 H 216.769 5.62712 -0.580615 0
M  V30 2142 H 215.326 6.43285 -1.05013 0
M  V30 2143 N 218.759 1.29093 0.90403 0
M  V30 2144 C 219.691 1.09658 2.01266 0
M  V30 2145 C 220.704 0.0453729 1.62737 0
M  V30 2146 O 221.893 0.289446 1.76138 0
M  V30 2147 C 218.993 0.646278 3.32681 0
M  V30 2148 C 218.166 1.77505 3.99763 0
M  V30 2149 C 217.225 1.31649 5.09465 0
M  V30 2150 O 216.251 2.02045 5.32134 0
M  V30 2151 N 217.453 0.184997 5.80205 0
M  V30 2152 H 220.218 2.05135 2.18494 0
M  V30 2153 H 217.779 1.20975 1.07594 0
M  V30 2154 H 219.771 0.322906 4.0341 0
M  V30 2155 H 218.341 -0.215916 3.11853 0
M  V30 2156 H 217.561 2.26752 3.22455 0
M  V30 2157 H 218.849 2.53198 4.41325 0
M  V30 2158 H 218.247 -0.402021 5.6427 0
M  V30 2159 H 216.804 -0.0790358 6.51752 0
M  V30 2160 N 220.237 -1.11381 1.11499 0
M  V30 2161 C 221.167 -2.19509 0.796125 0
M  V30 2162 C 222.148 -1.68458 -0.235796 0
M  V30 2163 O 223.333 -1.93947 -0.0991344 0
M  V30 2164 C 220.463 -3.46475 0.239205 0
M  V30 2165 C 219.417 -4.10744 1.20307 0
M  V30 2166 C 218.743 -5.32293 0.50683 0
M  V30 2167 C 220.043 -4.55597 2.55399 0
M  V30 2168 H 221.737 -2.46439 1.70024 0
M  V30 2169 H 219.283 -1.18446 0.818935 0
M  V30 2170 H 221.236 -4.214 0.00392006 0
M  V30 2171 H 219.96 -3.19006 -0.700206 0
M  V30 2172 H 218.619 -3.37813 1.42399 0
M  V30 2173 H 218.267 -5.01095 -0.437408 0
M  V30 2174 H 217.967 -5.76243 1.1497 0
M  V30 2175 H 219.491 -6.09956 0.280351 0
M  V30 2176 H 220.905 -5.21841 2.37391 0
M  V30 2177 H 219.302 -5.10363 3.15673 0
M  V30 2178 H 220.372 -3.69013 3.14575 0
M  V30 2179 N 221.715 -0.905404 -1.28997 0
M  V30 2180 C 222.647 -0.344748 -2.26592 0
M  V30 2181 C 223.66 0.512135 -1.54535 0
M  V30 2182 O 224.849 0.328368 -1.75454 0
M  V30 2183 C 221.949 0.526587 -3.34784 0
M  V30 2184 C 221.122 -0.305871 -4.36329 0
M  V30 2185 C 220.181 0.499209 -5.23827 0
M  V30 2186 O 219.207 -0.0853004 -5.69136 0
M  V30 2187 N 220.409 1.80408 -5.51755 0
M  V30 2188 H 223.174 -1.18359 -2.75338 0
M  V30 2189 H 220.735 -0.770481 -1.42391 0
M  V30 2190 H 222.727 1.07171 -3.90252 0
M  V30 2191 H 221.297 1.26613 -2.85811 0
M  V30 2192 H 220.517 -1.0324 -3.80441 0
M  V30 2193 H 221.805 -0.875773 -5.01206 0
M  V30 2194 H 221.203 2.3016 -5.16762 0
M  V30 2195 H 219.76 2.29621 -6.10014 0
M  V30 2196 N 223.193 1.4272 -0.668489 0
M  V30 2197 C 224.439 2.01923 -0.188419 0
M  V30 2198 C 224.772 1.52704 1.19979 0
M  V30 2199 O 224.047 0.726566 1.8042 0
M  V30 2200 C 224.33 3.59451 -0.216085 0
M  V30 2201 C 224.183 4.18864 -1.6393 0
M  V30 2202 C 225.502 4.37903 0.439179 0
M  V30 2203 H 222.621 0.733674 -0.0699412 0
M  V30 2204 H 225.263 1.69822 -0.852076 0
M  V30 2205 H 223.413 3.86929 0.349012 0
M  V30 2206 H 225.085 4.02362 -2.25616 0
M  V30 2207 H 223.328 3.74933 -2.18193 0
M  V30 2208 H 223.999 5.27987 -1.61039 0
M  V30 2209 H 226.475 4.16079 -0.0417878 0
M  V30 2210 H 225.351 5.47519 0.389157 0
M  V30 2211 H 225.612 4.15303 1.51577 0
M  V30 2212 N 224.671 0.411399 1.52136 0
M  V30 2213 C 225.601 -0.404015 2.29978 0
M  V30 2214 C 226.582 -1.04412 1.34284 0
M  V30 2215 O 227.767 -1.0527 1.63192 0
M  V30 2216 C 224.897 -1.5197 3.12286 0
M  V30 2217 C 223.851 -1.00448 4.16046 0
M  V30 2218 C 223.177 -2.21393 4.86712 0
M  V30 2219 C 224.477 -0.0569336 5.22269 0
M  V30 2220 H 226.171 0.245529 2.98392 0
M  V30 2221 H 223.717 0.119525 1.43503 0
M  V30 2222 H 225.67 -2.09715 3.6551 0
M  V30 2223 H 224.394 -2.19716 2.41646 0
M  V30 2224 H 223.053 -0.449421 3.63835 0
M  V30 2225 H 222.701 -2.87699 4.12599 0
M  V30 2226 H 222.401 -1.87571 5.56858 0
M  V30 2227 H 223.925 -2.7974 5.4275 0
M  V30 2228 H 225.339 -0.54325 5.7072 0
M  V30 2229 H 223.736 0.192594 5.99791 0
M  V30 2230 H 224.806 0.887663 4.76706 0
M  V30 2231 N 226.149 -1.5696 0.141893 0
M  V30 2232 C 227.396 -1.9596 -0.510492 0
M  V30 2233 C 227.724 -1.02648 -1.65208 0
M  V30 2234 O 226.979 -0.0546947 -1.95624 0
M  V30 2235 C 227.278 -3.41242 -1.06249 0
M  V30 2236 C 226.944 -4.50882 -0.0398791 0
M  V30 2237 C 225.606 -4.80595 0.241247 0
M  V30 2238 C 227.958 -5.17058 0.65578 0
M  V30 2239 C 225.286 -5.73792 1.22393 0
M  V30 2240 C 227.638 -6.11313 1.62724 0
M  V30 2241 C 226.302 -6.39407 1.91612 0
M  V30 2242 H 225.572 -0.717068 -0.186802 0
M  V30 2243 H 228.219 -1.90142 0.227643 0
M  V30 2244 H 226.524 -3.43866 -1.87785 0
M  V30 2245 H 228.221 -3.68742 -1.57576 0
M  V30 2246 H 224.811 -4.27754 -0.269174 0
M  V30 2247 H 228.995 -4.94239 0.451779 0
M  V30 2248 H 224.251 -5.93853 1.45424 0
M  V30 2249 H 228.425 -6.61668 2.17183 0
M  V30 2250 H 226.052 -7.11427 2.6791 0
M  V30 2251 N 227.627 0.131896 -1.57047 0
M  V30 2252 C 228.574 1.16236 -1.99393 0
M  V30 2253 C 229.544 1.41863 -0.863943 0
M  V30 2254 O 230.729 1.53946 -1.12718 0
M  V30 2255 C 227.869 2.48708 -2.39245 0
M  V30 2256 C 226.982 2.30127 -3.65603 0
M  V30 2257 C 226.117 3.55738 -3.94492 0
M  V30 2258 C 225.156 3.32259 -5.14073 0
M  V30 2259 N 224.293 4.50039 -5.38896 0
M  V30 2260 H 229.133 0.794251 -2.87221 0
M  V30 2261 H 226.67 0.380707 -1.42088 0
M  V30 2262 H 228.628 3.25969 -2.60384 0
M  V30 2263 H 227.258 2.83437 -1.54478 0
M  V30 2264 H 226.31 1.43845 -3.52154 0
M  V30 2265 H 227.622 2.08746 -4.5302 0
M  V30 2266 H 226.776 4.41423 -4.1621 0
M  V30 2267 H 225.515 3.80138 -3.05526 0
M  V30 2268 H 224.52 2.44963 -4.92212 0
M  V30 2269 H 225.745 3.09242 -6.04604 0
M  V30 2270 H 223.691 4.74584 -4.52886 0
M  V30 2271 H 223.608 4.31716 -6.2061 0
M  V30 2272 H 224.876 5.36895 -5.65123 0
M  V30 2273 N 229.106 1.52395 0.401703 0
M  V30 2274 C 230.352 1.67065 1.14966 0
M  V30 2275 C 230.685 0.403052 1.89971 0
M  V30 2276 O 229.96 -0.598774 1.85054 0
M  V30 2277 C 230.243 2.8975 2.13815 0
M  V30 2278 C 230.096 4.26578 1.42658 0
M  V30 2279 C 231.415 3.07965 3.14397 0
M  V30 2280 H 228.534 0.607968 0.416587 0
M  V30 2281 H 231.176 1.84965 0.434511 0
M  V30 2282 H 229.326 2.74619 2.74803 0
M  V30 2283 H 230.998 4.53451 0.847329 0
M  V30 2284 H 229.241 4.27639 0.72849 0
M  V30 2285 H 229.912 5.08483 2.14823 0
M  V30 2286 H 232.388 3.22043 2.63491 0
M  V30 2287 H 231.264 3.95308 3.80819 0
M  V30 2288 H 231.525 2.21611 3.82545 0
M  V30 2289 N 230.584 -0.659388 1.43143 0
M  V30 2290 C 231.514 -1.78422 1.50625 0
M  V30 2291 C 232.495 -1.66216 0.361443 0
M  V30 2292 O 233.68 -1.85404 0.577834 0
M  V30 2293 C 230.81 -3.16815 1.42287 0
M  V30 2294 C 229.764 -3.43777 2.54954 0
M  V30 2295 C 229.09 -4.81905 2.31671 0
M  V30 2296 C 230.39 -3.39134 3.97222 0
M  V30 2297 H 232.084 -1.72417 2.44771 0
M  V30 2298 H 229.63 -0.828084 1.17808 0
M  V30 2299 H 231.583 -3.95253 1.46127 0
M  V30 2300 H 230.307 -3.23534 0.446435 0
M  V30 2301 H 228.966 -2.67707 2.50457 0
M  V30 2302 H 228.614 -4.85294 1.32284 0
M  V30 2303 H 228.314 -5.00906 3.07192 0
M  V30 2304 H 229.838 -5.62609 2.37284 0
M  V30 2305 H 231.252 -4.07518 4.03239 0
M  V30 2306 H 229.649 -3.69671 4.72719 0
M  V30 2307 H 230.719 -2.37426 4.22797 0
M  V30 2308 N 232.062 -1.29571 -0.897171 0
M  V30 2309 C 232.972 -1.16808 -2.03453 0
M  V30 2310 C 233.988 -0.0907471 -1.73763 0
M  V30 2311 O 235.164 -0.303312 -1.99103 0
M  V30 2312 C 232.229 -0.848264 -3.36163 0
M  V30 2313 C 231.29 -2.0097 -3.79354 0
M  V30 2314 C 230.523 -1.70505 -5.05731 0
M  V30 2315 O 230.746 -0.62718 -5.66941 0
M  V30 2316 O 229.68 -2.5538 -5.45036 0
M  V30 2317 H 233.506 -2.12325 -2.17144 0
M  V30 2318 H 231.091 -1.09047 -1.02123 0
M  V30 2319 H 232.973 -0.684581 -4.15802 0
M  V30 2320 H 231.648 0.0771071 -3.23608 0
M  V30 2321 H 230.555 -2.22863 -3.00471 0
M  V30 2322 H 231.888 -2.91636 -3.96496 0
M  V30 2323 N 233.54 1.10788 -1.12088 0
M  V30 2324 C 234.45 2.20599 -0.798338 0
M  V30 2325 C 235.466 1.72712 0.21135 0
M  V30 2326 O 236.642 2.01348 0.0458477 0
M  V30 2327 C 233.707 3.45771 -0.253674 0
M  V30 2328 C 232.768 4.08411 -1.32283 0
M  V30 2329 C 232.001 5.27608 -0.80406 0
M  V30 2330 O 232.224 5.69241 0.363478 0
M  V30 2331 O 231.158 5.8101 -1.57198 0
M  V30 2332 H 234.984 2.50614 -1.7154 0
M  V30 2333 H 232.569 1.19454 -0.897275 0
M  V30 2334 H 234.451 4.21376 0.0453691 0
M  V30 2335 H 233.126 3.1739 0.636005 0
M  V30 2336 H 232.033 3.34507 -1.67499 0
M  V30 2337 H 233.366 4.40986 -2.18614 0
M  V30 2338 N 235.018 0.912232 1.28515 0
M  V30 2339 C 236.248 0.559604 1.98877 0
M  V30 2340 C 236.656 -0.863113 1.68366 0
M  V30 2341 O 235.999 -1.58304 0.931969 0
M  V30 2342 C 236.061 0.68703 3.52874 0
M  V30 2343 C 235.725 2.07901 4.06972 0
M  V30 2344 C 236.722 3.05157 4.20922 0
M  V30 2345 C 234.407 2.39178 4.417 0
M  V30 2346 C 236.401 4.31806 4.68852 0
M  V30 2347 C 234.088 3.66068 4.89324 0
M  V30 2348 C 235.086 4.62195 5.02856 0
M  V30 2349 O 234.774 5.86829 5.49442 0
M  V30 2350 H 234.506 0.212191 0.641834 0
M  V30 2351 H 237.06 1.22712 1.64715 0
M  V30 2352 H 235.29 -0.0375486 3.86682 0
M  V30 2353 H 236.979 0.341727 4.04459 0
M  V30 2354 H 237.745 2.82311 3.94367 0
M  V30 2355 H 233.624 1.65109 4.30418 0
M  V30 2356 H 237.168 5.06842 4.79329 0
M  V30 2357 H 233.065 3.88739 5.15318 0
M  V30 2358 H 233.833 5.89597 5.6773 0
M  V30 2359 N 236.496 -1.42363 0.676048 0
M  V30 2360 C 237.773 -1.95183 0.127726 0
M  V30 2361 C 238.153 -1.61641 -1.35777 0
M  V30 2362 O 237.501 -0.913216 -2.09458 0
M  V30 2363 C 237.711 -3.46721 0.398199 0
M  V30 2364 C 239.059 -4.23427 0.315383 0
M  V30 2365 O 240.083 -3.54649 0.332016 0
M  V30 2366 O 238.942 -5.45888 0.25865 0
M  V30 2367 H 236.036 -0.826992 0.00359427 0
M  V30 2368 H 238.582 -1.52184 0.750864 0
M  V30 2369 H 237.354 -3.64344 1.4272 0
M  V30 2370 H 236.977 -3.96769 -0.256885 0
M  V30 2371 N 237.974 -0.419461 -1.51915 0
M  V30 2372 C 239.22 0.145505 -2.02879 0
M  V30 2373 C 239.575 1.41926 -1.29903 0
M  V30 2374 O 238.868 1.87383 -0.399782 0
M  V30 2375 C 239.062 0.437067 -3.54717 0
M  V30 2376 C 238.891 -0.806877 -4.42402 0
M  V30 2377 C 237.661 -1.33514 -4.87342 0
M  V30 2378 C 239.859 -1.68796 -4.85811 0
M  V30 2379 N 237.841 -2.53349 -5.59185 0
M  V30 2380 C 239.212 -2.73247 -5.56539 0
M  V30 2381 C 241.267 -1.70449 -4.67816 0
M  V30 2382 C 239.97 -3.79276 -6.11181 0
M  V30 2383 C 241.996 -2.75403 -5.23361 0
M  V30 2384 C 241.358 -3.78575 -5.9402 0
M  V30 2385 H 237.457 0.0145424 -0.781865 0
M  V30 2386 H 240.041 -0.576126 -1.85981 0
M  V30 2387 H 238.212 1.12774 -3.71667 0
M  V30 2388 H 239.944 0.99182 -3.92358 0
M  V30 2389 H 236.699 -0.891657 -4.65131 0
M  V30 2390 H 237.123 -3.14066 -5.99743 0
M  V30 2391 H 241.765 -0.920209 -4.12664 0
M  V30 2392 H 239.483 -4.58554 -6.65397 0
M  V30 2393 H 243.069 -2.77603 -5.113 0
M  V30 2394 H 241.949 -4.58453 -6.36231 0
M  V30 2395 N 239.452 1.56882 -0.150215 0
M  V30 2396 C 240.677 2.01027 0.510184 0
M  V30 2397 C 241.102 1.02966 1.57415 0
M  V30 2398 O 240.46 0.00590158 1.81299 0
M  V30 2399 C 240.508 3.43899 1.08472 0
M  V30 2400 O 239.612 3.4885 2.19948 0
M  V30 2401 H 238.953 0.652233 0.124451 0
M  V30 2402 H 241.483 2.03093 -0.247894 0
M  V30 2403 H 241.493 3.82766 1.41259 0
M  V30 2404 H 240.168 4.14776 0.305582 0
M  V30 2405 H 238.745 3.21827 1.88366 0
M  V30 2406 N 240.93 -0.123565 1.57115 0
M  V30 2407 C 241.893 -1.13583 1.99076 0
M  V30 2408 C 242.893 -1.34564 0.880296 0
M  V30 2409 O 244.083 -1.31158 1.14644 0
M  V30 2410 C 241.215 -2.49128 2.32698 0
M  V30 2411 H 242.408 -0.775287 2.89706 0
M  V30 2412 H 239.961 -0.36771 1.51913 0
M  V30 2413 H 240.696 -2.90111 1.44934 0
M  V30 2414 H 240.481 -2.35255 3.13684 0
M  V30 2415 H 241.971 -3.2199 2.65918 0
M  V30 2416 N 242.408 -1.52605 -0.393616 0
M  V30 2417 C 243.655 -1.67424 -1.1391 0
M  V30 2418 C 243.983 -0.411859 -1.90089 0
M  V30 2419 O 243.238 0.605626 -1.86093 0
M  V30 2420 C 243.537 -2.85721 -2.14705 0
M  V30 2421 C 243.203 -4.23342 -1.55218 0
M  V30 2422 C 241.865 -4.60771 -1.3872 0
M  V30 2423 C 244.217 -5.09041 -1.11924 0
M  V30 2424 C 241.545 -5.81563 -0.774689 0
M  V30 2425 C 243.897 -6.30452 -0.520853 0
M  V30 2426 C 242.561 -6.66617 -0.343134 0
M  V30 2427 H 241.831 -0.612648 -0.416826 0
M  V30 2428 H 244.478 -1.8674 -0.424315 0
M  V30 2429 H 242.783 -2.60803 -2.92385 0
M  V30 2430 H 244.48 -2.94382 -2.72288 0
M  V30 2431 H 241.07 -3.93855 -1.69045 0
M  V30 2432 H 245.254 -4.80695 -1.23473 0
M  V30 2433 H 240.51 -6.08196 -0.625154 0
M  V30 2434 H 244.684 -6.96175 -0.177065 0
M  V30 2435 H 242.311 -7.60083 0.133571 0
M  V30 2436 N 243.887 0.651787 -1.4349 0
M  V30 2437 C 244.85 1.74647 -1.48429 0
M  V30 2438 C 245.85 1.56513 -0.368817 0
M  V30 2439 O 247.04 1.62385 -0.630623 0
M  V30 2440 C 244.172 3.13533 -1.33827 0
M  V30 2441 H 245.365 1.71649 -2.4592 0
M  V30 2442 H 242.918 0.863573 -1.30277 0
M  V30 2443 H 243.653 3.22142 -0.37349 0
M  V30 2444 H 243.438 3.28101 -2.14691 0
M  V30 2445 H 244.928 3.93356 -1.40218 0
M  V30 2446 N 245.365 1.30045 0.890287 0
M  V30 2447 C 246.611 1.18737 1.64406 0
M  V30 2448 C 246.944 -0.258525 1.92472 0
M  V30 2449 O 246.219 -1.18562 1.54186 0
M  V30 2450 C 246.502 2.01087 2.98724 0
M  V30 2451 C 246.355 3.53867 2.77665 0
M  V30 2452 C 247.674 1.84457 3.9958 0
M  V30 2453 H 244.793 0.432698 0.596608 0
M  V30 2454 H 247.435 1.5962 1.0306 0
M  V30 2455 H 245.585 1.66349 3.51084 0
M  V30 2456 H 247.257 3.98637 2.32133 0
M  V30 2457 H 245.5 3.78318 2.12269 0
M  V30 2458 H 246.171 4.06772 3.7315 0
M  V30 2459 H 248.647 2.14817 3.56361 0
M  V30 2460 H 247.523 2.44411 4.91482 0
M  V30 2461 H 247.784 0.802276 4.3476 0
M  V30 2462 N 246.843 -1.10192 1.12674 0
M  V30 2463 C 248.092 -1.81573 0.8783 0
M  V30 2464 C 248.405 -1.86249 -0.597557 0
M  V30 2465 O 249.611 -2.5386 -0.962681 0
M  V30 2466 C 248.067 -3.26149 1.52167 0
M  V30 2467 C 247.675 -3.29763 3.03249 0
M  V30 2468 C 249.419 -4.0234 1.3536 0
M  V30 2469 C 247.326 -4.68815 3.60508 0
M  V30 2470 H 246.256 -0.680394 0.324931 0
M  V30 2471 H 248.907 -1.23902 1.35353 0
M  V30 2472 H 247.289 -3.83832 0.974104 0
M  V30 2473 H 248.463 -2.8189 3.6452 0
M  V30 2474 H 246.778 -2.67059 3.19481 0
M  V30 2475 H 249.375 -5.05058 1.75559 0
M  V30 2476 H 249.718 -4.15235 0.297554 0
M  V30 2477 H 250.251 -3.51079 1.87052 0
M  V30 2478 H 246.99 -4.61121 4.65884 0
M  V30 2479 H 246.51 -5.17045 3.04014 0
M  V30 2480 H 248.189 -5.37785 3.59717 0
M  V30 2481 N 248.321 -0.919034 -1.28029 0
M  V30 2482 C 249.549 -0.570971 -1.98866 0
M  V30 2483 C 249.964 0.848996 -1.68634 0
M  V30 2484 O 249.321 1.56307 -0.942036 0
M  V30 2485 C 249.372 -0.776876 -3.53054 0
M  V30 2486 O 249.093 -2.14097 -3.82222 0
M  V30 2487 C 250.594 -0.436356 -4.41147 0
M  V30 2488 H 247.814 -0.217175 -0.634883 0
M  V30 2489 H 250.358 -1.23368 -1.63097 0
M  V30 2490 H 248.513 -0.161085 -3.87065 0
M  V30 2491 H 248.927 -2.18455 -4.76841 0
M  V30 2492 H 250.401 -0.63117 -5.4838 0
M  V30 2493 H 250.878 0.627686 -4.34692 0
M  V30 2494 H 251.484 -1.02991 -4.12641 0
M  V30 2495 N 249.799 1.42003 -0.683588 0
M  V30 2496 C 251.024 2.06265 -0.216647 0
M  V30 2497 C 251.449 1.51059 1.12083 0
M  V30 2498 O 250.807 0.632638 1.69904 0
M  V30 2499 C 250.855 3.60191 -0.171759 0
M  V30 2500 O 249.959 4.03396 0.857069 0
M  V30 2501 H 249.3 0.65502 -0.108834 0
M  V30 2502 H 251.83 1.81982 -0.935077 0
M  V30 2503 H 251.84 4.08 0.0014303 0
M  V30 2504 H 250.515 3.99743 -1.14796 0
M  V30 2505 H 249.092 3.67117 0.654208 0
M  V30 2506 N 251.277 0.427512 1.51691 0
M  V30 2507 C 252.207 -0.3796 2.30394 0
M  V30 2508 C 253.188 -1.02982 1.35384 0
M  V30 2509 O 254.373 -1.03534 1.643 0
M  V30 2510 C 251.503 -1.48649 3.1388 0
M  V30 2511 C 250.457 -0.960294 4.17088 0
M  V30 2512 C 249.783 -2.16219 4.89033 0
M  V30 2513 C 251.083 -0.00153679 5.223 0
M  V30 2514 H 252.777 0.277164 2.98114 0
M  V30 2515 H 250.323 0.134739 1.43368 0
M  V30 2516 H 252.276 -2.05826 3.67714 0
M  V30 2517 H 251 -2.1714 2.43962 0
M  V30 2518 H 249.659 -0.410806 3.64291 0
M  V30 2519 H 249.307 -2.83307 4.15628 0
M  V30 2520 H 249.007 -1.81654 5.58816 0
M  V30 2521 H 250.531 -2.73968 5.45687 0
M  V30 2522 H 251.945 -0.482687 5.71264 0
M  V30 2523 H 250.342 0.256199 5.99553 0
M  V30 2524 H 251.412 0.938174 4.75738 0
M  V30 2525 N 252.755 -1.56801 0.158532 0
M  V30 2526 C 253.705 -2.13923 -0.788738 0
M  V30 2527 C 254.689 -1.07006 -1.2016 0
M  V30 2528 O 255.881 -1.33159 -1.1661 0
M  V30 2529 C 253.01 -2.77348 -2.02319 0
M  V30 2530 C 252.096 -3.91404 -1.6329 0
M  V30 2531 N 252.487 -4.9677 -0.951463 0
M  V30 2532 C 250.785 -4.02326 -1.92482 0
M  V30 2533 C 251.486 -5.76698 -0.761221 0
M  V30 2534 N 250.462 -5.27859 -1.29869 0
M  V30 2535 H 254.264 -2.92757 -0.258995 0
M  V30 2536 H 251.778 -1.62344 -0.0426055 0
M  V30 2537 H 253.775 -3.16639 -2.71192 0
M  V30 2538 H 252.435 -1.99991 -2.558 0
M  V30 2539 H 253.446 -5.14284 -0.610928 0
M  V30 2540 H 250.123 -3.36059 -2.47732 0
M  V30 2541 H 251.513 -6.71529 -0.223284 0
M  V30 2542 N 254.233 0.115231 -1.57178 0
M  V30 2543 C 255.644 0.67197 -1.74188 0
M  V30 2544 C 255.995 1.80125 -0.777777 0
M  V30 2545 O 255.12 2.16346 0.0484376 0
M  V30 2546 C 255.715 1.22573 -3.1585 0
M  V30 2547 C 254.274 1.72872 -3.34353 0
M  V30 2548 C 253.421 0.629972 -2.70049 0
M  V30 2549 H 256.372 -0.110712 -1.58313 0
M  V30 2550 H 256.393 2.09535 -3.17609 0
M  V30 2551 H 255.905 0.403598 -3.85996 0
M  V30 2552 H 254.006 2.5755 -2.69256 0
M  V30 2553 H 254.119 1.83557 -4.42542 0
M  V30 2554 H 252.483 1.0645 -2.31388 0
M  V30 2555 H 253.266 -0.181241 -3.42821 0
M  V30 2556 N 255.711 1.52812 0.385517 0
M  V30 2557 C 256.959 1.67694 1.12797 0
M  V30 2558 C 257.28 0.421115 1.90399 0
M  V30 2559 O 256.55 -0.564551 1.87589 0
M  V30 2560 H 255.13 0.618155 0.419396 0
M  V30 2561 H 257.792 1.89938 0.436972 0
M  V30 2562 H 256.888 2.52896 1.82894 0
M  V30 2563 N 257.189 -0.644168 1.43834 0
M  V30 2564 C 258.139 -1.7501 1.46135 0
M  V30 2565 C 259.123 -1.57507 0.328685 0
M  V30 2566 O 260.315 -1.67465 0.5731 0
M  V30 2567 C 257.444 -3.13641 1.39585 0
M  V30 2568 C 256.53 -3.3666 2.57916 0
M  V30 2569 N 256.921 -3.30107 3.83227 0
M  V30 2570 C 255.219 -3.67411 2.52834 0
M  V30 2571 C 255.92 -3.53456 4.61999 0
M  V30 2572 N 254.896 -3.75705 3.9287 0
M  V30 2573 H 258.698 -1.68382 2.40883 0
M  V30 2574 H 256.212 -0.846169 1.38614 0
M  V30 2575 H 258.209 -3.92933 1.39317 0
M  V30 2576 H 256.869 -3.21444 0.45865 0
M  V30 2577 H 257.88 -3.09316 4.15384 0
M  V30 2578 H 254.557 -3.82275 1.67845 0
M  V30 2579 H 255.947 -3.54093 5.71024 0
M  V30 2580 N 258.668 -1.30515 -0.883378 0
M  V30 2581 C 259.631 -1.1701 -1.97082 0
M  V30 2582 C 260.631 -0.10089 -1.60483 0
M  V30 2583 O 261.821 -0.349127 -1.70666 0
M  V30 2584 C 258.953 -0.793045 -3.31547 0
M  V30 2585 H 260.146 -2.13622 -2.10489 0
M  V30 2586 H 257.699 -1.13935 -1.06998 0
M  V30 2587 H 258.434 0.172499 -3.23841 0
M  V30 2588 H 258.219 -1.56576 -3.5948 0
M  V30 2589 H 259.709 -0.722073 -4.1131 0
M  V30 2590 N 260.146 1.09593 -1.13257 0
M  V30 2591 C 261.076 2.18214 -0.830946 0
M  V30 2592 C 262.057 1.68812 0.208966 0
M  V30 2593 O 263.242 1.9408 0.0682666 0
M  V30 2594 C 260.372 3.46051 -0.294296 0
M  V30 2595 C 259.326 4.08778 -1.26826 0
M  V30 2596 C 258.652 5.31419 -0.591449 0
M  V30 2597 C 259.952 4.51476 -2.62615 0
M  V30 2598 H 261.646 2.43703 -1.73923 0
M  V30 2599 H 259.192 1.17128 -0.837675 0
M  V30 2600 H 261.145 4.2134 -0.0709606 0
M  V30 2601 H 259.869 3.20079 0.649366 0
M  V30 2602 H 258.528 3.35505 -1.47756 0
M  V30 2603 H 258.176 5.01727 0.357633 0
M  V30 2604 H 257.876 5.74341 -1.24123 0
M  V30 2605 H 259.4 6.09433 -0.377355 0
M  V30 2606 H 260.814 5.17999 -2.45663 0
M  V30 2607 H 259.211 5.05277 -3.23752 0
M  V30 2608 H 260.281 3.63962 -3.20406 0
M  V30 2609 N 261.624 0.925811 1.2754 0
M  V30 2610 C 262.871 0.565255 1.94451 0
M  V30 2611 C 263.199 -0.89316 1.7278 0
M  V30 2612 O 262.454 -1.65213 1.04895 0
M  V30 2613 C 262.753 0.835296 3.47502 0
M  V30 2614 C 262.419 2.27515 3.89291 0
M  V30 2615 C 261.081 2.66879 4.00411 0
M  V30 2616 C 263.433 3.21158 4.10496 0
M  V30 2617 C 260.761 3.99014 4.30122 0
M  V30 2618 C 263.113 4.52871 4.4169 0
M  V30 2619 C 261.777 4.92072 4.51023 0
M  V30 2620 H 261.047 0.206841 0.711546 0
M  V30 2621 H 263.694 1.16942 1.51647 0
M  V30 2622 H 261.999 0.148442 3.91519 0
M  V30 2623 H 263.696 0.535322 3.97411 0
M  V30 2624 H 260.286 1.95976 3.81171 0
M  V30 2625 H 264.47 2.9195 4.01346 0
M  V30 2626 H 259.726 4.2907 4.35556 0
M  V30 2627 H 263.9 5.25436 4.57045 0
M  V30 2628 H 261.527 5.9449 4.738 0
M  V30 2629 N 263.102 -1.41638 0.69111 0
M  V30 2630 C 264.032 -2.3347 0.037248 0
M  V30 2631 C 265.013 -1.51575 -0.771947 0
M  V30 2632 O 266.198 -1.80126 -0.72582 0
M  V30 2633 C 263.328 -3.35354 -0.903064 0
M  V30 2634 C 262.282 -4.27526 -0.201288 0
M  V30 2635 C 261.608 -5.19747 -1.25565 0
M  V30 2636 C 262.908 -5.13959 0.929689 0
M  V30 2637 H 264.602 -2.88397 0.804227 0
M  V30 2638 H 262.148 -1.38669 0.388189 0
M  V30 2639 H 264.101 -3.98519 -1.36969 0
M  V30 2640 H 262.825 -2.78767 -1.70166 0
M  V30 2641 H 261.484 -3.65779 0.245265 0
M  V30 2642 H 261.132 -4.59479 -2.04666 0
M  V30 2643 H 260.832 -5.8225 -0.791128 0
M  V30 2644 H 262.356 -5.85789 -1.72288 0
M  V30 2645 H 263.77 -5.70718 0.543546 0
M  V30 2646 H 262.167 -5.85379 1.32103 0
M  V30 2647 H 263.237 -4.51389 1.77133 0
M  V30 2648 N 264.58 -0.43555 -1.51462 0
M  V30 2649 C 265.49 0.383001 -2.31453 0
M  V30 2650 C 266.506 1.02931 -1.4029 0
M  V30 2651 O 267.682 1.02507 -1.73362 0
M  V30 2652 C 264.747 1.47043 -3.13973 0
M  V30 2653 C 263.808 0.844433 -4.20913 0
M  V30 2654 C 263.041 1.88004 -4.9949 0
M  V30 2655 O 263.264 3.10199 -4.78678 0
M  V30 2656 O 262.198 1.47157 -5.83634 0
M  V30 2657 H 266.024 -0.269964 -3.02498 0
M  V30 2658 H 263.609 -0.19813 -1.4808 0
M  V30 2659 H 265.491 2.10113 -3.65281 0
M  V30 2660 H 264.166 2.10751 -2.45695 0
M  V30 2661 H 263.073 0.175729 -3.73687 0
M  V30 2662 H 264.406 0.250869 -4.9156 0
M  V30 2663 N 266.058 1.56714 -0.166846 0
M  V30 2664 C 267.306 1.96358 0.478305 0
M  V30 2665 C 267.627 1.0537 1.6408 0
M  V30 2666 O 266.897 0.119154 1.95537 0
M  V30 2667 H 265.477 0.725065 0.179692 0
M  V30 2668 H 268.139 1.93329 -0.246985 0
M  V30 2669 H 267.235 3.00547 0.841292 0
M  V30 2670 N 267.536 -0.106894 1.57237 0
M  V30 2671 C 268.782 -0.81373 1.85759 0
M  V30 2672 C 269.115 -1.78952 0.754315 0
M  V30 2673 O 268.39 -1.93029 -0.23879 0
M  V30 2674 C 268.673 -1.55293 3.24894 0
M  V30 2675 C 268.526 -0.595929 4.45835 0
M  V30 2676 C 269.845 -2.5063 3.61763 0
M  V30 2677 H 266.964 -0.294369 0.67566 0
M  V30 2678 H 269.606 -0.0776472 1.89841 0
M  V30 2679 H 267.756 -2.1804 3.21544 0
M  V30 2680 H 269.428 0.0236262 4.61294 0
M  V30 2681 H 267.671 0.0916191 4.33703 0
M  V30 2682 H 268.342 -1.15004 5.39887 0
M  V30 2683 H 270.818 -1.97982 3.65981 0
M  V30 2684 H 269.694 -2.99376 4.60071 0
M  V30 2685 H 269.955 -3.3385 2.89821 0
M  V30 2686 N 269.014 -1.53014 -0.377408 0
M  V30 2687 C 270.43 -1.42523 -0.718281 0
M  V30 2688 C 270.63 -0.55487 -1.9371 0
M  V30 2689 O 269.686 -0.0327593 -2.52479 0
M  V30 2690 C 270.999 -2.85546 -0.942539 0
M  V30 2691 C 272.547 -2.95101 -1.04329 0
M  V30 2692 C 273.022 -4.3916 -1.3001 0
M  V30 2693 N 274.513 -4.42536 -1.36806 0
M  V30 2694 C 275.248 -5.51097 -1.58364 0
M  V30 2695 N 274.744 -6.69724 -1.77317 0
M  V30 2696 N 276.537 -5.38657 -1.60638 0
M  V30 2697 H 268.688 -2.08116 0.424426 0
M  V30 2698 H 270.951 -0.939352 0.127759 0
M  V30 2699 H 270.657 -3.51499 -0.118929 0
M  V30 2700 H 270.531 -3.28493 -1.85397 0
M  V30 2701 H 272.918 -2.29309 -1.85745 0
M  V30 2702 H 272.999 -2.55566 -0.109505 0
M  V30 2703 H 272.643 -5.05521 -0.490991 0
M  V30 2704 H 272.573 -4.76258 -2.24691 0
M  V30 2705 H 275.064 -3.57039 -1.23821 0
M  V30 2706 H 275.377 -7.48233 -1.93306 0
M  V30 2707 H 273.722 -6.72732 -1.74518 0
M  V30 2708 H 276.913 -4.44948 -1.45391 0
M  V30 2709 H 277.086 -6.2333 -1.77098 0
M  V30 2710 N 270.492 0.636531 -1.44174 0
M  V30 2711 C 271.455 1.73063 -1.50273 0
M  V30 2712 C 272.455 1.56113 -0.385397 0
M  V30 2713 O 273.645 1.61707 -0.64781 0
M  V30 2714 C 270.777 3.12096 -1.37145 0
M  V30 2715 H 271.97 1.69031 -2.47727 0
M  V30 2716 H 269.523 0.849706 -1.31186 0
M  V30 2717 H 270.258 3.21728 -0.407636 0
M  V30 2718 H 270.043 3.25805 -2.18159 0
M  V30 2719 H 271.533 3.91846 -1.44382 0
M  V30 2720 N 271.97 1.30982 0.876444 0
M  V30 2721 C 273.216 1.20474 1.63138 0
M  V30 2722 C 273.549 -0.238096 1.92735 0
M  V30 2723 O 272.824 -1.1692 1.55435 0
M  V30 2724 C 273.107 2.04244 2.96574 0
M  V30 2725 C 272.96 3.56793 2.73896 0
M  V30 2726 C 274.279 1.88684 3.97601 0
M  V30 2727 H 271.398 0.439001 0.591985 0
M  V30 2728 H 274.04 1.60704 1.01361 0
M  V30 2729 H 272.19 1.70063 3.493 0
M  V30 2730 H 273.862 4.01077 2.27892 0
M  V30 2731 H 272.105 3.80548 2.08245 0
M  V30 2732 H 272.776 4.10706 3.68815 0
M  V30 2733 H 275.252 2.18584 3.54062 0
M  V30 2734 H 274.128 2.4961 4.88862 0
M  V30 2735 H 274.389 0.848343 4.33884 0
M  V30 2736 N 273.449 -1.08991 1.13837 0
M  V30 2737 C 274.412 -2.13925 0.822715 0
M  V30 2738 C 275.412 -1.599 -0.1699 0
M  V30 2739 O 276.602 -1.74104 0.0577251 0
M  V30 2740 C 273.734 -3.40155 0.225318 0
M  V30 2741 H 274.927 -2.43358 1.75262 0
M  V30 2742 H 272.48 -1.24603 0.943594 0
M  V30 2743 H 273.215 -3.16352 -0.713594 0
M  V30 2744 H 273 -3.80661 0.940193 0
M  V30 2745 H 274.49 -4.17594 0.0214784 0
M  V30 2746 N 274.927 -0.932562 -1.27047 0
M  V30 2747 C 276.204 -0.49377 -1.89265 0
M  V30 2748 C 276.584 1.02833 -1.8436 0
M  V30 2749 O 275.932 1.88461 -1.29209 0
M  V30 2750 C 276.142 -1.04536 -3.32976 0
M  V30 2751 C 277.49 -1.10879 -4.09867 0
M  V30 2752 O 278.514 -0.995327 -3.42011 0
M  V30 2753 O 277.373 -1.28417 -5.31198 0
M  V30 2754 H 274.467 -0.159596 -0.811454 0
M  V30 2755 H 277.013 -1.02457 -1.3528 0
M  V30 2756 H 275.785 -2.08913 -3.30864 0
M  V30 2757 H 275.408 -0.496494 -3.94488 0
M  V30 2758 N 276.405 1.4127 -0.698611 0
M  V30 2759 C 277.368 2.29158 -0.044132 0
M  V30 2760 C 278.368 1.44529 0.704841 0
M  V30 2761 O 279.558 1.65643 0.539276 0
M  V30 2762 C 276.69 3.27459 0.947809 0
M  V30 2763 H 277.883 2.88529 -0.817994 0
M  V30 2764 H 275.436 1.49307 -0.46228 0
M  V30 2765 H 276.171 2.73073 1.74933 0
M  V30 2766 H 275.956 3.8991 0.41385 0
M  V30 2767 H 277.446 3.93311 1.40344 0
M  V30 2768 N 277.883 0.443576 1.51229 0
M  V30 2769 C 279.108 -0.121648 2.07043 0
M  V30 2770 C 279.533 -1.35156 1.30823 0
M  V30 2771 O 278.891 -1.7793 0.347934 0
M  V30 2772 C 278.939 -0.41624 3.5819 0
M  V30 2773 O 278.043 -1.50163 3.8409 0
M  V30 2774 H 277.384 0.000871367 0.663999 0
M  V30 2775 H 279.914 0.626706 1.94765 0
M  V30 2776 H 279.924 -0.664867 4.02546 0
M  V30 2777 H 278.599 0.482653 4.1309 0
M  V30 2778 H 277.176 -1.24248 3.51592 0
M  V30 2779 N 279.361 -1.56624 0.175154 0
M  V30 2780 C 280.311 -2.14747 -0.766004 0
M  V30 2781 C 281.295 -1.08275 -1.19018 0
M  V30 2782 O 282.487 -1.34388 -1.15191 0
M  V30 2783 C 279.616 -2.79478 -1.99366 0
M  V30 2784 C 278.702 -3.93114 -1.5913 0
M  V30 2785 N 279.093 -4.97752 -0.89872 0
M  V30 2786 C 277.391 -4.04345 -1.88204 0
M  V30 2787 C 278.092 -5.77473 -0.700012 0
M  V30 2788 N 277.068 -5.29207 -1.24263 0
M  V30 2789 H 280.87 -2.93015 -0.22793 0
M  V30 2790 H 278.384 -1.6238 -0.0253843 0
M  V30 2791 H 280.381 -3.19498 -2.67818 0
M  V30 2792 H 279.041 -2.02692 -2.53665 0
M  V30 2793 H 280.052 -5.14903 -0.556347 0
M  V30 2794 H 276.729 -3.38667 -2.44153 0
M  V30 2795 H 278.119 -6.71728 -0.152047 0
M  V30 2796 N 280.839 0.0985539 -1.57292 0
M  V30 2797 C 282.085 0.803867 -1.86188 0
M  V30 2798 C 282.418 1.78549 -0.763794 0
M  V30 2799 O 281.693 1.93153 0.22855 0
M  V30 2800 C 281.976 1.53568 -3.25713 0
M  V30 2801 C 281.829 0.572277 -4.46145 0
M  V30 2802 C 283.148 2.48708 -3.63087 0
M  V30 2803 H 280.267 0.290781 -0.677211 0
M  V30 2804 H 282.909 0.0675783 -1.8988 0
M  V30 2805 H 281.059 2.16332 -3.22696 0
M  V30 2806 H 282.731 -0.0480894 -4.61275 0
M  V30 2807 H 280.974 -0.114618 -4.33649 0
M  V30 2808 H 281.645 1.12139 -5.40489 0
M  V30 2809 H 284.121 1.96039 -3.67026 0
M  V30 2810 H 282.997 2.96932 -4.61652 0
M  V30 2811 H 283.258 3.32309 -2.91588 0
M  V30 2812 N 282.317 1.53212 0.369288 0
M  V30 2813 C 283.542 1.73423 1.1375 0
M  V30 2814 C 283.967 0.460404 1.82378 0
M  V30 2815 O 283.325 -0.585298 1.71592 0
M  V30 2816 C 283.373 2.89769 2.1463 0
M  V30 2817 O 282.477 2.58119 3.21634 0
M  V30 2818 H 281.818 0.576061 0.330227 0
M  V30 2819 H 284.348 2.00083 0.427547 0
M  V30 2820 H 284.358 3.15829 2.58294 0
M  V30 2821 H 283.033 3.8217 1.64071 0
M  V30 2822 H 281.61 2.42864 2.82969 0
M  V30 2823 N 283.795 -0.628877 1.44509 0
M  V30 2824 C 285.041 -1.38863 1.48623 0
M  V30 2825 C 285.396 -1.92038 0.117933 0
M  V30 2826 O 284.689 -1.70853 -0.86716 0
M  V30 2827 C 284.883 -2.56995 2.48371 0
M  V30 2828 C 284.712 -2.15385 3.94765 0
M  V30 2829 C 283.482 -2.02558 4.62924 0
M  V30 2830 C 285.68 -1.74158 4.83915 0
M  V30 2831 N 283.662 -1.54534 5.94132 0
M  V30 2832 C 285.033 -1.37396 6.04584 0
M  V30 2833 C 287.088 -1.61559 4.7096 0
M  V30 2834 C 285.791 -0.892948 7.13736 0
M  V30 2835 C 287.817 -1.14862 5.80139 0
M  V30 2836 C 287.179 -0.790516 6.9995 0
M  V30 2837 H 283.278 -0.502858 0.59888 0
M  V30 2838 H 285.862 -0.72121 1.8085 0
M  V30 2839 H 284.033 -3.21362 2.1813 0
M  V30 2840 H 285.765 -3.23801 2.42766 0
M  V30 2841 H 282.52 -2.23082 4.1777 0
M  V30 2842 H 282.944 -1.32815 6.63844 0
M  V30 2843 H 287.586 -1.87876 3.78764 0
M  V30 2844 H 285.304 -0.617291 8.05739 0
M  V30 2845 H 288.89 -1.05569 5.72142 0
M  V30 2846 H 287.77 -0.434713 7.82994 0
M  V30 2847 N 285.273 -1.31445 -0.869486 0
M  V30 2848 C 286.689 -1.10113 -1.15531 0
M  V30 2849 C 286.889 0.128087 -2.01092 0
M  V30 2850 O 285.945 0.817276 -2.38908 0
M  V30 2851 C 287.258 -2.37291 -1.84698 0
M  V30 2852 C 288.806 -2.42906 -1.97397 0
M  V30 2853 C 289.281 -3.69967 -2.69979 0
M  V30 2854 N 290.772 -3.70864 -2.77514 0
M  V30 2855 C 291.507 -4.65875 -3.34287 0
M  V30 2856 N 291.003 -5.71242 -3.91988 0
M  V30 2857 N 292.796 -4.53394 -3.3225 0
M  V30 2858 H 284.947 -2.1028 -0.299347 0
M  V30 2859 H 287.21 -0.927683 -0.195214 0
M  V30 2860 H 286.916 -3.27078 -1.29278 0
M  V30 2861 H 286.79 -2.47125 -2.84972 0
M  V30 2862 H 289.177 -1.53588 -2.51982 0
M  V30 2863 H 289.258 -2.37036 -0.961643 0
M  V30 2864 H 288.902 -4.59652 -2.16062 0
M  V30 2865 H 288.832 -3.73103 -3.7162 0
M  V30 2866 H 291.323 -2.94697 -2.36563 0
M  V30 2867 H 291.636 -6.39817 -4.33421 0
M  V30 2868 H 289.981 -5.75015 -3.90362 0
M  V30 2869 H 293.172 -3.70252 -2.8641 0
M  V30 2870 H 293.345 -5.27617 -3.76197 0
M  V30 2871 N 286.751 1.08385 -1.14413 0
M  V30 2872 C 287.681 2.17321 -0.854044 0
M  V30 2873 C 288.662 1.69024 0.191049 0
M  V30 2874 O 289.847 1.94141 0.0476779 0
M  V30 2875 C 286.977 3.45719 -0.330983 0
M  V30 2876 C 285.931 4.07409 -1.31155 0
M  V30 2877 C 285.257 5.30762 -0.64778 0
M  V30 2878 C 286.557 4.48665 -2.67388 0
M  V30 2879 H 288.251 2.41845 -1.76498 0
M  V30 2880 H 285.797 1.16233 -0.850051 0
M  V30 2881 H 287.75 4.21241 -0.115645 0
M  V30 2882 H 286.474 3.2075 0.615381 0
M  V30 2883 H 285.133 3.33919 -1.51306 0
M  V30 2884 H 284.781 5.02078 0.304398 0
M  V30 2885 H 284.481 5.72992 -1.30207 0
M  V30 2886 H 286.005 6.08998 -0.441972 0
M  V30 2887 H 287.419 5.15364 -2.51143 0
M  V30 2888 H 285.816 5.01814 -3.29093 0
M  V30 2889 H 286.886 3.60543 -3.24248 0
M  V30 2890 N 288.23 0.939286 1.26551 0
M  V30 2891 C 289.16 0.465044 2.28822 0
M  V30 2892 C 290.141 -0.480692 1.63167 0
M  V30 2893 O 291.326 -0.382955 1.90387 0
M  V30 2894 C 288.456 -0.27234 3.46231 0
M  V30 2895 C 287.41 0.58666 4.2396 0
M  V30 2896 C 286.736 -0.280573 5.33963 0
M  V30 2897 C 288.036 1.85704 4.88171 0
M  V30 2898 H 289.73 1.31979 2.68741 0
M  V30 2899 H 287.276 0.636061 1.29191 0
M  V30 2900 H 289.229 -0.615133 4.16886 0
M  V30 2901 H 287.953 -1.16121 3.0526 0
M  V30 2902 H 286.612 0.91232 3.55067 0
M  V30 2903 H 286.26 -1.16874 4.89234 0
M  V30 2904 H 285.96 0.29076 5.8688 0
M  V30 2905 H 287.484 -0.618678 6.07458 0
M  V30 2906 H 288.898 1.58161 5.51052 0
M  V30 2907 H 287.295 2.37279 5.51197 0
M  V30 2908 H 288.365 2.56957 4.11219 0
M  V30 2909 N 289.708 -1.40897 0.706093 0
M  V30 2910 C 290.985 -1.94868 0.169099 0
M  V30 2911 C 291.365 -1.64485 -1.32318 0
M  V30 2912 O 290.713 -0.95744 -2.07474 0
M  V30 2913 C 290.923 -3.45798 0.471654 0
M  V30 2914 C 292.271 -4.22663 0.405127 0
M  V30 2915 O 293.295 -3.53865 0.407168 0
M  V30 2916 O 292.154 -5.45216 0.374383 0
M  V30 2917 H 289.248 -0.82673 0.0211352 0
M  V30 2918 H 291.794 -1.50558 0.782976 0
M  V30 2919 H 290.566 -3.61235 1.50416 0
M  V30 2920 H 290.189 -3.97225 -0.172666 0
M  V30 2921 N 291.186 -0.45159 -1.50991 0
M  V30 2922 C 292.432 0.110237 -2.025 0
M  V30 2923 C 292.765 1.41109 -1.33424 0
M  V30 2924 O 292.04 1.89135 -0.453659 0
M  V30 2925 C 292.323 0.314271 -3.58726 0
M  V30 2926 C 292.176 -1.00623 -4.38401 0
M  V30 2927 C 293.495 1.07767 -4.26702 0
M  V30 2928 H 290.614 0.0385897 -0.735989 0
M  V30 2929 H 293.256 -0.593374 -1.80497 0
M  V30 2930 H 291.406 0.913601 -3.77605 0
M  V30 2931 H 293.078 -1.64064 -4.31139 0
M  V30 2932 H 291.321 -1.6075 -4.02917 0
M  V30 2933 H 291.992 -0.817341 -5.45915 0
M  V30 2934 H 294.468 0.56986 -4.12179 0
M  V30 2935 H 293.344 1.18921 -5.35863 0
M  V30 2936 H 293.605 2.10939 -3.88532 0
M  V30 2937 N 292.664 1.56529 -0.183458 0
M  V30 2938 C 293.91 1.97537 0.459036 0
M  V30 2939 C 294.243 1.06989 1.62071 0
M  V30 2940 O 293.518 0.11948 1.94133 0
M  V30 2941 C 293.801 3.47874 0.930368 0
M  V30 2942 C 293.654 4.492 -0.232317 0
M  V30 2943 C 294.973 4.01612 1.79989 0
M  V30 2944 H 292.092 0.718204 0.165383 0
M  V30 2945 H 294.734 1.88042 -0.272038 0
M  V30 2946 H 292.884 3.56095 1.55333 0
M  V30 2947 H 294.556 4.53027 -0.86972 0
M  V30 2948 H 292.799 4.24657 -0.885928 0
M  V30 2949 H 293.47 5.51823 0.139796 0
M  V30 2950 H 295.946 3.96097 1.27461 0
M  V30 2951 H 294.822 5.07195 2.09867 0
M  V30 2952 H 295.083 3.46163 2.74998 0
M  V30 2953 N 294.142 -0.090211 1.57342 0
M  V30 2954 C 295.37 -0.806224 1.90546 0
M  V30 2955 C 295.785 -1.72041 0.777644 0
M  V30 2956 O 295.142 -1.80778 -0.250103 0
M  V30 2957 C 295.193 -1.61546 3.23396 0
M  V30 2958 O 294.914 -0.738043 4.31839 0
M  V30 2959 C 296.415 -2.4341 3.70495 0
M  V30 2960 H 293.635 -0.230256 0.630257 0
M  V30 2961 H 296.179 -0.0659843 2.04394 0
M  V30 2962 H 294.334 -2.30816 3.11131 0
M  V30 2963 H 294.748 -1.29901 5.08159 0
M  V30 2964 H 296.222 -2.95676 4.66133 0
M  V30 2965 H 296.699 -3.22098 2.98579 0
M  V30 2966 H 297.305 -1.79331 3.85643 0
M  V30 2967 N 295.62 -1.53406 -0.361157 0
M  V30 2968 C 296.55 -1.83136 -1.44857 0
M  V30 2969 C 297.531 -0.685174 -1.5569 0
M  V30 2970 O 298.716 -0.93544 -1.70186 0
M  V30 2971 C 295.846 -2.02522 -2.82138 0
M  V30 2972 C 294.8 -3.18302 -2.86126 0
M  V30 2973 C 294.126 -3.22989 -4.26125 0
M  V30 2974 C 295.426 -4.56796 -2.53248 0
M  V30 2975 H 297.12 -2.74201 -1.20226 0
M  V30 2976 H 294.666 -1.31938 -0.576922 0
M  V30 2977 H 296.619 -2.21904 -3.58241 0
M  V30 2978 H 295.343 -1.08172 -3.08166 0
M  V30 2979 H 294.002 -2.98747 -2.12475 0
M  V30 2980 H 293.65 -2.26267 -4.49235 0
M  V30 2981 H 293.35 -4.00781 -4.29708 0
M  V30 2982 H 294.874 -3.44559 -5.04094 0
M  V30 2983 H 296.288 -4.7631 -3.19064 0
M  V30 2984 H 294.685 -5.36862 -2.68141 0
M  V30 2985 H 295.755 -4.61606 -1.48484 0
M  V30 2986 N 297.098 0.621204 -1.44841 0
M  V30 2987 C 298.008 1.7612 -1.5498 0
M  V30 2988 C 299.024 1.68477 -0.434927 0
M  V30 2989 O 300.2 1.89076 -0.693693 0
M  V30 2990 C 297.265 3.1254 -1.50065 0
M  V30 2991 C 296.326 3.31741 -2.72482 0
M  V30 2992 C 295.559 4.61653 -2.67792 0
M  V30 2993 O 295.782 5.431 -1.74352 0
M  V30 2994 O 294.716 4.83271 -3.58794 0
M  V30 2995 H 298.542 1.70518 -2.51311 0
M  V30 2996 H 296.127 0.783643 -1.27198 0
M  V30 2997 H 298.009 3.93844 -1.49882 0
M  V30 2998 H 296.684 3.18663 -0.568806 0
M  V30 2999 H 295.591 2.50077 -2.7823 0
M  V30 3000 H 296.924 3.30486 -3.64746 0
M  V30 3001 N 298.576 1.31904 0.862503 0
M  V30 3002 C 299.506 1.22782 1.98612 0
M  V30 3003 C 300.487 0.113362 1.69722 0
M  V30 3004 O 301.672 0.299218 1.91881 0
M  V30 3005 C 298.802 0.942058 3.34279 0
M  V30 3006 C 297.756 2.0169 3.77499 0
M  V30 3007 C 297.082 1.58369 5.10709 0
M  V30 3008 C 298.382 3.43096 3.93805 0
M  V30 3009 H 300.076 2.16788 2.06502 0
M  V30 3010 H 297.622 1.04366 0.992154 0
M  V30 3011 H 299.575 0.864818 4.1243 0
M  V30 3012 H 298.299 -0.0336603 3.26583 0
M  V30 3013 H 296.958 2.08416 3.01593 0
M  V30 3014 H 296.606 0.595628 4.99461 0
M  V30 3015 H 296.306 2.30279 5.40597 0
M  V30 3016 H 297.83 1.52067 5.91361 0
M  V30 3017 H 299.244 3.39003 4.62331 0
M  V30 3018 H 297.641 4.13288 4.35101 0
M  V30 3019 H 298.711 3.83334 2.96957 0
M  V30 3020 N 300.054 -1.07777 1.14986 0
M  V30 3021 C 301.302 -1.79934 0.920235 0
M  V30 3022 C 301.623 -1.86955 -0.554336 0
M  V30 3023 O 300.893 -1.36731 -1.40291 0
M  V30 3024 H 299.473 -0.666424 0.337473 0
M  V30 3025 H 302.135 -1.3027 1.44968 0
M  V30 3026 H 301.231 -2.82539 1.32583 0
M  V30 3027 N 301.532 -0.945985 -1.26051 0
M  V30 3028 C 302.943 -0.638096 -1.75457 0
M  V30 3029 C 303.294 0.846672 -1.76991 0
M  V30 3030 O 302.419 1.66262 -1.38513 0
M  V30 3031 C 303.014 -1.15157 -3.18629 0
M  V30 3032 C 301.573 -0.894004 -3.65629 0
M  V30 3033 C 300.72 -1.29967 -2.44957 0
M  V30 3034 H 303.671 -1.12376 -1.1206 0
M  V30 3035 H 303.692 -0.507615 -3.77099 0
M  V30 3036 H 303.204 -2.23222 -3.1748 0
M  V30 3037 H 301.305 0.172057 -3.72203 0
M  V30 3038 H 301.418 -1.52439 -4.54202 0
M  V30 3039 H 299.782 -0.718078 -2.44368 0
M  V30 3040 H 300.565 -2.38935 -2.46505 0
M  V30 3041 N 303.011 1.40521 -0.713556 0
M  V30 3042 C 304.259 2.00527 -0.251692 0
M  V30 3043 C 304.58 1.56857 1.15848 0
M  V30 3044 O 303.85 0.807127 1.785 0
M  V30 3045 H 302.43 0.741551 -0.0900646 0
M  V30 3046 H 305.092 1.71887 -0.918733 0
M  V30 3047 H 304.188 3.10813 -0.283192 0
M  V30 3048 N 304.489 0.459591 1.5075 0
M  V30 3049 C 305.737 -0.0991532 2.01857 0
M  V30 3050 C 306.058 -1.41247 1.34441 0
M  V30 3051 O 305.328 -1.89775 0.486022 0
M  V30 3052 H 303.908 -0.039633 0.745948 0
M  V30 3053 H 306.57 0.607387 1.85194 0
M  V30 3054 H 305.666 -0.258998 3.11023 0
M  V30 3055 N 305.967 -1.56429 0.191757 0
M  V30 3056 C 307.378 -1.83912 -0.321428 0
M  V30 3057 C 307.729 -1.11231 -1.61623 0
M  V30 3058 O 306.854 -0.37202 -2.13178 0
M  V30 3059 C 307.449 -3.33624 -0.589961 0
M  V30 3060 C 306.008 -3.6153 -1.04753 0
M  V30 3061 C 305.155 -2.7714 -0.0943327 0
M  V30 3062 H 308.106 -1.53161 0.415612 0
M  V30 3063 H 308.127 -3.52213 -1.43966 0
M  V30 3064 H 307.639 -3.86495 0.352588 0
M  V30 3065 H 305.74 -3.14089 -2.00447 0
M  V30 3066 H 305.853 -4.69737 -0.942549 0
M  V30 3067 H 304.217 -2.47638 -0.595589 0
M  V30 3068 H 305 -3.32799 0.842601 0
M  V30 3069 N 307.445 0.0818655 -1.57387 0
M  V30 3070 C 308.861 0.436412 -1.53517 0
M  V30 3071 C 309.061 1.79758 -0.910459 0
M  V30 3072 O 308.117 2.47324 -0.508636 0
M  V30 3073 C 309.43 0.386734 -2.98203 0
M  V30 3074 C 310.978 0.467644 -3.09487 0
M  V30 3075 C 311.453 0.447978 -4.55804 0
M  V30 3076 N 312.944 0.508348 -4.60402 0
M  V30 3077 C 313.679 0.515184 -5.71081 0
M  V30 3078 N 313.175 0.477435 -6.91153 0
M  V30 3079 N 314.968 0.560988 -5.59294 0
M  V30 3080 H 307.119 -0.809546 -1.96367 0
M  V30 3081 H 309.382 -0.302733 -0.898363 0
M  V30 3082 H 309.088 -0.546539 -3.47427 0
M  V30 3083 H 308.962 1.20075 -3.57578 0
M  V30 3084 H 311.349 1.39134 -2.60242 0
M  V30 3085 H 311.43 -0.374753 -2.5304 0
M  V30 3086 H 311.074 -0.471826 -5.05704 0
M  V30 3087 H 311.004 1.30777 -5.10103 0
M  V30 3088 H 313.495 0.54218 -3.7399 0
M  V30 3089 H 313.808 0.486299 -7.71268 0
M  V30 3090 H 312.153 0.444278 -6.93579 0
M  V30 3091 H 315.344 0.5881 -4.64391 0
M  V30 3092 H 315.517 0.562846 -6.45551 0
M  V30 3093 N 308.923 1.53595 0.353017 0
M  V30 3094 C 309.886 1.80232 1.41594 0
M  V30 3095 C 310.886 0.673081 1.46035 0
M  V30 3096 O 312.076 0.941335 1.46576 0
M  V30 3097 C 309.208 1.93578 2.80607 0
M  V30 3098 H 310.401 2.75174 1.19244 0
M  V30 3099 H 307.954 1.44864 0.586872 0
M  V30 3100 H 308.689 1.00746 3.08254 0
M  V30 3101 H 308.474 2.75724 2.78781 0
M  V30 3102 H 309.964 2.15735 3.57558 0
M  V30 3103 N 310.401 -0.613514 1.45168 0
M  V30 3104 C 311.817 -0.933629 1.29443 0
M  V30 3105 C 312.017 -2.00028 0.243101 0
M  V30 3106 O 311.073 -2.49848 -0.364992 0
M  V30 3107 C 312.386 -1.38018 2.67155 0
M  V30 3108 C 313.934 -1.49471 2.75004 0
M  V30 3109 C 314.409 -1.97503 4.13227 0
M  V30 3110 N 315.9 -2.04746 4.15491 0
M  V30 3111 C 316.635 -2.43121 5.19307 0
M  V30 3112 N 316.131 -2.80506 6.33473 0
M  V30 3113 N 317.924 -2.43408 5.06664 0
M  V30 3114 H 310.075 0.0916097 2.12202 0
M  V30 3115 H 312.338 -0.0216655 0.947752 0
M  V30 3116 H 312.044 -0.670625 3.45247 0
M  V30 3117 H 311.918 -2.34784 2.95222 0
M  V30 3118 H 314.305 -2.19519 1.9722 0
M  V30 3119 H 314.386 -0.510342 2.50657 0
M  V30 3120 H 314.03 -1.28045 4.91495 0
M  V30 3121 H 313.96 -2.96843 4.34962 0
M  V30 3122 H 316.451 -1.78468 3.33103 0
M  V30 3123 H 316.764 -3.08652 7.08487 0
M  V30 3124 H 315.109 -2.78216 6.36884 0
M  V30 3125 H 318.3 -2.13604 4.16523 0
M  V30 3126 H 318.473 -2.72989 5.87691 0
M  V30 3127 N 311.879 -1.3236 -0.855495 0
M  V30 3128 C 313.107 -1.2587 -1.64208 0
M  V30 3129 C 313.522 0.173457 -1.88002 0
M  V30 3130 O 312.879 1.11027 -1.44842 0
M  V30 3131 C 312.93 -2.01424 -3.00184 0
M  V30 3132 O 312.651 -3.39051 -2.77445 0
M  V30 3133 C 314.152 -2.01948 -3.94629 0
M  V30 3134 H 311.372 -0.434318 -0.511477 0
M  V30 3135 H 313.916 -1.74469 -1.0668 0
M  V30 3136 H 312.071 -1.56549 -3.5436 0
M  V30 3137 H 312.485 -3.77711 -3.63916 0
M  V30 3138 H 313.959 -2.59297 -4.87308 0
M  V30 3139 H 314.436 -1.00554 -4.27534 0
M  V30 3140 H 315.042 -2.46767 -3.4639 0
M  V30 3141 N 313.357 1.07166 -1.15556 0
M  V30 3142 C 314.289 2.14341 -0.811815 0
M  V30 3143 C 315.302 1.61835 0.177015 0
M  V30 3144 O 316.491 1.78439 -0.0464996 0
M  V30 3145 C 313.591 3.38387 -0.186481 0
M  V30 3146 C 312.764 4.20238 -1.21321 0
M  V30 3147 C 311.823 5.2266 -0.609302 0
M  V30 3148 O 310.849 5.54719 -1.27576 0
M  V30 3149 N 312.051 5.77306 0.608099 0
M  V30 3150 H 314.816 2.44431 -1.73417 0
M  V30 3151 H 312.377 1.23089 -1.0517 0
M  V30 3152 H 314.369 4.04044 0.230339 0
M  V30 3153 H 312.939 3.05994 0.639249 0
M  V30 3154 H 312.159 3.50369 -1.80652 0
M  V30 3155 H 313.447 4.71736 -1.90638 0
M  V30 3156 H 312.845 5.53513 1.1679 0
M  V30 3157 H 311.402 6.44583 0.96725 0
M  V30 3158 N 314.835 0.952656 1.25548 0
M  V30 3159 C 316.251 0.656769 1.4546 0
M  V30 3160 C 316.451 -0.78633 1.85524 0
M  V30 3161 O 315.507 -1.56183 1.98402 0
M  V30 3162 C 316.82 1.62801 2.52817 0
M  V30 3163 C 318.368 1.63897 2.66659 0
M  V30 3164 C 318.843 2.5978 3.77198 0
M  V30 3165 N 320.334 2.58133 3.84606 0
M  V30 3166 C 321.069 3.29003 4.69621 0
M  V30 3167 N 320.565 4.09339 5.58939 0
M  V30 3168 N 322.358 3.179 4.63569 0
M  V30 3169 H 314.509 1.88526 0.978344 0
M  V30 3170 H 316.772 0.810815 0.491206 0
M  V30 3171 H 316.478 2.65869 2.30232 0
M  V30 3172 H 316.352 1.38898 3.50695 0
M  V30 3173 H 318.739 0.615481 2.8861 0
M  V30 3174 H 318.82 1.91858 1.69187 0
M  V30 3175 H 318.464 3.62254 3.55997 0
M  V30 3176 H 318.394 2.29105 4.7415 0
M  V30 3177 H 320.885 1.99809 3.20757 0
M  V30 3178 H 321.198 4.6034 6.20731 0
M  V30 3179 H 319.543 4.13438 5.58654 0
M  V30 3180 H 322.734 2.54612 3.92798 0
M  V30 3181 H 322.907 3.73398 5.29602 0
M  V30 3182 N 316.313 -1.40141 0.720998 0
M  V30 3183 C 317.243 -2.33339 0.0867621 0
M  V30 3184 C 318.224 -1.53178 -0.739622 0
M  V30 3185 O 319.409 -1.81625 -0.687449 0
M  V30 3186 C 316.539 -3.37194 -0.831728 0
M  V30 3187 C 315.493 -4.27857 -0.110558 0
M  V30 3188 C 314.819 -5.22294 -1.14513 0
M  V30 3189 C 316.119 -5.11872 1.0385 0
M  V30 3190 H 317.813 -2.86626 0.865219 0
M  V30 3191 H 315.359 -1.37814 0.417516 0
M  V30 3192 H 317.312 -4.01335 -1.28485 0
M  V30 3193 H 316.036 -2.82314 -1.64214 0
M  V30 3194 H 314.695 -3.65176 0.322797 0
M  V30 3195 H 314.343 -4.63717 -1.94874 0
M  V30 3196 H 314.043 -5.83797 -0.667446 0
M  V30 3197 H 315.567 -5.89312 -1.59824 0
M  V30 3198 H 316.981 -5.69436 0.664482 0
M  V30 3199 H 315.378 -5.82445 1.4449 0
M  V30 3200 H 316.448 -4.4753 1.86668 0
M  V30 3201 N 317.792 -0.46758 -1.50504 0
M  V30 3202 C 318.722 0.318381 -2.31319 0
M  V30 3203 C 319.703 0.993564 -1.38066 0
M  V30 3204 O 320.888 0.991411 -1.66987 0
M  V30 3205 C 318.018 1.40275 -3.17711 0
M  V30 3206 C 316.972 0.849373 -4.19487 0
M  V30 3207 C 316.298 2.03177 -4.94594 0
M  V30 3208 C 317.598 -0.136942 -5.2212 0
M  V30 3209 H 319.292 -0.356106 -2.97275 0
M  V30 3210 H 316.838 -0.172703 -1.42961 0
M  V30 3211 H 318.791 1.96004 -3.73042 0
M  V30 3212 H 317.515 2.10596 -2.49634 0
M  V30 3213 H 316.174 0.314076 -3.65252 0
M  V30 3214 H 315.822 2.72187 -4.22993 0
M  V30 3215 H 315.522 1.66774 -5.63436 0
M  V30 3216 H 317.046 2.59403 -5.52759 0
M  V30 3217 H 318.46 0.331056 -5.72343 0
M  V30 3218 H 316.857 -0.41507 -5.98663 0
M  V30 3219 H 317.927 -1.06398 -4.73083 0
M  V30 3220 N 319.27 1.56325 -0.20005 0
M  V30 3221 C 320.686 1.58839 0.155716 0
M  V30 3222 C 320.886 1.21636 1.60645 0
M  V30 3223 O 319.942 0.941437 2.34293 0
M  V30 3224 C 321.255 3.0032 -0.151124 0
M  V30 3225 C 322.803 3.12866 -0.0916284 0
M  V30 3226 C 323.278 4.56488 -0.371845 0
M  V30 3227 N 324.769 4.62089 -0.320641 0
M  V30 3228 C 325.504 5.71116 -0.511243 0
M  V30 3229 N 325 6.88592 -0.762461 0
M  V30 3230 N 326.793 5.60335 -0.445157 0
M  V30 3231 H 318.944 1.78788 -1.14668 0
M  V30 3232 H 321.207 0.829996 -0.458051 0
M  V30 3233 H 320.913 3.32117 -1.15721 0
M  V30 3234 H 320.787 3.73257 0.543986 0
M  V30 3235 H 323.174 2.80878 0.905065 0
M  V30 3236 H 323.255 2.42304 -0.81989 0
M  V30 3237 H 322.899 4.89189 -1.36588 0
M  V30 3238 H 322.829 5.25246 0.377362 0
M  V30 3239 H 325.32 3.77665 -0.13329 0
M  V30 3240 H 325.633 7.67581 -0.896576 0
M  V30 3241 H 323.978 6.90387 -0.799412 0
M  V30 3242 H 327.169 4.67436 -0.249278 0
M  V30 3243 H 327.342 6.45243 -0.597116 0
M  V30 3244 N 320.748 -0.0735177 1.57428 0
M  V30 3245 C 321.68 -1.11423 2.00294 0
M  V30 3246 C 322.693 -1.35084 0.908637 0
M  V30 3247 O 323.882 -1.33355 1.18654 0
M  V30 3248 C 320.982 -2.46548 2.32523 0
M  V30 3249 C 320.155 -2.42867 3.63778 0
M  V30 3250 C 319.214 -3.60087 3.83697 0
M  V30 3251 O 318.24 -3.41595 4.55304 0
M  V30 3252 N 319.442 -4.80372 3.25919 0
M  V30 3253 H 322.207 -0.749206 2.90184 0
M  V30 3254 H 319.768 -0.262195 1.59763 0
M  V30 3255 H 321.76 -3.23607 2.43024 0
M  V30 3256 H 320.33 -2.75059 1.48531 0
M  V30 3257 H 319.55 -1.51206 3.64047 0
M  V30 3258 H 320.838 -2.37506 4.49965 0
M  V30 3259 H 320.236 -4.983 2.67795 0
M  V30 3260 H 318.793 -5.54948 3.41871 0
M  V30 3261 N 322.226 -1.5378 -0.344866 0
M  V30 3262 C 323.156 -1.84662 -1.42906 0
M  V30 3263 C 324.137 -0.701648 -1.54955 0
M  V30 3264 O 325.322 -0.953438 -1.69184 0
M  V30 3265 C 322.452 -2.05503 -2.79974 0
M  V30 3266 C 321.406 -3.21318 -2.82734 0
M  V30 3267 C 320.732 -3.2749 -4.22675 0
M  V30 3268 C 322.032 -4.59456 -2.48389 0
M  V30 3269 H 323.726 -2.75461 -1.17311 0
M  V30 3270 H 321.272 -1.32542 -0.562896 0
M  V30 3271 H 323.225 -2.25691 -3.55867 0
M  V30 3272 H 321.949 -1.11434 -3.07002 0
M  V30 3273 H 320.608 -3.00984 -2.09294 0
M  V30 3274 H 320.256 -2.31019 -4.4681 0
M  V30 3275 H 319.956 -4.05316 -4.25433 0
M  V30 3276 H 321.48 -3.49887 -5.00412 0
M  V30 3277 H 322.894 -4.79667 -3.13995 0
M  V30 3278 H 321.291 -5.39675 -2.62432 0
M  V30 3279 H 322.361 -4.63155 -1.4358 0
M  V30 3280 N 323.704 0.605807 -1.45491 0
M  V30 3281 C 324.981 1.36522 -1.40075 0
M  V30 3282 C 325.361 2.10976 -0.0722744 0
M  V30 3283 O 324.709 2.08007 0.945808 0
M  V30 3284 C 324.919 2.31056 -2.61561 0
M  V30 3285 C 326.267 2.93608 -3.06724 0
M  V30 3286 O 327.291 2.41376 -2.61946 0
M  V30 3287 O 326.15 3.88421 -3.84437 0
M  V30 3288 H 323.244 0.612248 -0.555951 0
M  V30 3289 H 325.79 0.628747 -1.57623 0
M  V30 3290 H 324.562 1.75311 -3.49831 0
M  V30 3291 H 324.185 3.12081 -2.46356 0
M  V30 3292 N 325.182 1.32811 0.848464 0
M  V30 3293 C 326.145 1.22194 1.9391 0
M  V30 3294 C 327.145 0.143404 1.60159 0
M  V30 3295 O 328.335 0.394253 1.6968 0
M  V30 3296 C 325.467 0.88067 3.29328 0
M  V30 3297 H 326.66 2.19127 2.04752 0
M  V30 3298 H 324.213 1.16731 1.0394 0
M  V30 3299 H 324.948 -0.0865776 3.24184 0
M  V30 3300 H 324.733 1.66052 3.55203 0
M  V30 3301 H 326.223 0.830871 4.09251 0
M  V30 3302 N 326.66 -1.06551 1.16123 0
M  V30 3303 C 328.071 -1.60768 0.949232 0
M  V30 3304 C 328.422 -1.89523 -0.507508 0
M  V30 3305 O 327.547 -1.66671 -1.38021 0
M  V30 3306 C 328.142 -2.92086 1.71671 0
M  V30 3307 C 326.701 -3.43015 1.54977 0
M  V30 3308 C 325.848 -2.16947 1.72711 0
M  V30 3309 H 328.799 -0.895354 1.31031 0
M  V30 3310 H 328.82 -3.6138 1.19099 0
M  V30 3311 H 328.332 -2.71127 2.7769 0
M  V30 3312 H 326.433 -3.69039 0.513873 0
M  V30 3313 H 326.546 -4.18516 2.33198 0
M  V30 3314 H 324.91 -2.27041 1.15431 0
M  V30 3315 H 325.693 -1.98473 2.80113 0
M  V30 3316 N 328.138 -0.959301 -1.25041 0
M  V30 3317 C 329.384 -0.617525 -1.9317 0
M  V30 3318 C 329.717 0.843981 -1.74902 0
M  V30 3319 O 328.992 1.60615 -1.09696 0
M  V30 3320 C 329.275 -0.982736 -3.46431 0
M  V30 3321 C 329.128 -2.50032 -3.73904 0
M  V30 3322 C 330.447 -0.511176 -4.37121 0
M  V30 3323 H 327.566 -0.22582 -0.701552 0
M  V30 3324 H 330.208 -1.19679 -1.4757 0
M  V30 3325 H 328.358 -0.489806 -3.854 0
M  V30 3326 H 330.03 -3.06737 -3.44544 0
M  V30 3327 H 328.273 -2.93598 -3.19348 0
M  V30 3328 H 328.944 -2.70635 -4.81103 0
M  V30 3329 H 331.42 -0.934075 -4.0548 0
M  V30 3330 H 330.296 -0.795361 -5.43107 0
M  V30 3331 H 330.557 0.588834 -4.38161 0
M  V30 3332 N 329.616 1.39756 -0.72842 0
M  V30 3333 C 330.863 2.00645 -0.273487 0
M  V30 3334 C 331.191 1.57786 1.13727 0
M  V30 3335 O 330.446 0.794886 1.7883 0
M  V30 3336 C 330.745 3.56002 -0.315776 0
M  V30 3337 C 330.411 4.18489 -1.67863 0
M  V30 3338 C 329.073 4.3527 -2.05166 0
M  V30 3339 C 331.425 4.53219 -2.57375 0
M  V30 3340 C 328.753 4.84069 -3.31503 0
M  V30 3341 C 331.105 5.03423 -3.83077 0
M  V30 3342 C 329.769 5.18413 -4.20481 0
M  V30 3343 H 329.039 0.734211 -0.100076 0
M  V30 3344 H 331.686 1.6718 -0.933972 0
M  V30 3345 H 329.991 3.89452 0.428285 0
M  V30 3346 H 331.688 4.00963 0.0542575 0
M  V30 3347 H 328.278 4.05824 -1.37858 0
M  V30 3348 H 332.462 4.39878 -2.29827 0
M  V30 3349 H 327.718 4.93859 -3.60435 0
M  V30 3350 H 331.892 5.2927 -4.52599 0
M  V30 3351 H 329.519 5.55987 -5.18443 0
M  V30 3352 N 331.094 0.475555 1.50254 0
M  V30 3353 C 332.34 -0.0780073 2.0265 0
M  V30 3354 C 332.673 -1.38968 1.35652 0
M  V30 3355 O 331.948 -1.8839 0.483691 0
M  V30 3356 C 332.231 -0.257161 3.59181 0
M  V30 3357 C 332.084 1.07585 4.36744 0
M  V30 3358 C 333.403 -1.00965 4.28362 0
M  V30 3359 H 330.522 -0.0268758 0.73651 0
M  V30 3360 H 333.164 0.622015 1.7953 0
M  V30 3361 H 331.314 -0.853412 3.79011 0
M  V30 3362 H 332.986 1.70902 4.28474 0
M  V30 3363 H 331.229 1.6714 4.00308 0
M  V30 3364 H 331.9 0.904088 5.44546 0
M  V30 3365 H 334.376 -0.504214 4.13034 0
M  V30 3366 H 333.252 -1.10381 5.37687 0
M  V30 3367 H 333.513 -2.04731 3.91839 0
M  V30 3368 N 332.573 -1.56217 0.208337 0
M  V30 3369 C 333.536 -2.18455 -0.693557 0
M  V30 3370 C 334.536 -1.14268 -1.13135 0
M  V30 3371 O 335.726 -1.39577 -1.0423 0
M  V30 3372 C 332.858 -2.79727 -1.94848 0
M  V30 3373 H 334.051 -2.99519 -0.15114 0
M  V30 3374 H 331.604 -1.56245 -0.041287 0
M  V30 3375 H 332.339 -2.02497 -2.53309 0
M  V30 3376 H 332.124 -3.56009 -1.64316 0
M  V30 3377 H 333.614 -3.27475 -2.59133 0
M  V30 3378 N 334.051 0.0651679 -1.57465 0
M  V30 3379 C 335.281 0.774683 -1.91526 0
M  V30 3380 C 335.689 1.71305 -0.803196 0
M  V30 3381 O 335.032 1.82231 0.231881 0
M  V30 3382 C 335.094 1.61645 -3.21109 0
M  V30 3383 C 334.758 0.846753 -4.49087 0
M  V30 3384 C 335.755 0.163024 -5.19644 0
M  V30 3385 C 333.44 0.811966 -4.95694 0
M  V30 3386 C 335.434 -0.54519 -6.35064 0
M  V30 3387 C 333.121 0.0999836 -6.11018 0
M  V30 3388 C 334.119 -0.577388 -6.80555 0
M  V30 3389 O 333.807 -1.27789 -7.93678 0
M  V30 3390 H 333.539 0.225031 -0.637446 0
M  V30 3391 H 336.093 0.0377134 -2.05365 0
M  V30 3392 H 334.323 2.39638 -3.03497 0
M  V30 3393 H 336.012 2.20525 -3.40769 0
M  V30 3394 H 336.778 0.181163 -4.84662 0
M  V30 3395 H 332.657 1.32867 -4.41438 0
M  V30 3396 H 336.201 -1.07446 -6.89276 0
M  V30 3397 H 332.098 0.0797945 -6.45451 0
M  V30 3398 H 332.866 -1.18784 -8.09835 0
M  V30 3399 N 335.529 1.53961 0.336706 0
M  V30 3400 C 336.769 1.73254 1.08454 0
M  V30 3401 C 337.133 0.488937 1.8567 0
M  V30 3402 O 338.334 0.559001 2.62923 0
M  V30 3403 C 336.605 2.96519 1.99528 0
M  V30 3404 S 338.164 3.36655 2.81441 0
M  V30 3405 H 334.982 0.609353 0.366347 0
M  V30 3406 H 337.584 1.92117 0.362124 0
M  V30 3407 H 336.288 3.85193 1.41614 0
M  V30 3408 H 335.819 2.80142 2.76196 0
M  V30 3409 H 337.834 2.90925 4.01967 0
M  V30 3410 N 337.007 -0.598083 1.45811 0
M  V30 3411 C 338.232 -1.3881 1.54099 0
M  V30 3412 C 338.657 -1.8726 0.177578 0
M  V30 3413 O 338.015 -1.6069 -0.839541 0
M  V30 3414 C 338.063 -2.56217 2.53743 0
M  V30 3415 O 337.167 -3.5716 2.06182 0
M  V30 3416 H 336.508 -0.414024 0.519115 0
M  V30 3417 H 339.038 -0.726971 1.91249 0
M  V30 3418 H 339.048 -3.03337 2.72856 0
M  V30 3419 H 337.723 -2.20303 3.5276 0
M  V30 3420 H 336.3 -3.16624 1.96987 0
M  V30 3421 N 338.485 -1.33259 -0.841409 0
M  V30 3422 C 339.901 -1.12538 -1.13169 0
M  V30 3423 C 340.101 0.0854037 -2.01319 0
M  V30 3424 O 339.157 0.766417 -2.40587 0
M  V30 3425 C 340.47 -2.41156 -1.79623 0
M  V30 3426 C 342.018 -2.47038 -1.922 0
M  V30 3427 C 342.493 -3.7561 -2.6207 0
M  V30 3428 N 343.984 -3.76667 -2.69585 0
M  V30 3429 C 344.719 -4.72861 -3.2433 0
M  V30 3430 N 344.215 -5.79428 -3.79783 0
M  V30 3431 N 346.008 -4.6034 -3.22558 0
M  V30 3432 H 338.159 -2.10868 -0.254676 0
M  V30 3433 H 340.422 -0.931615 -0.175493 0
M  V30 3434 H 340.128 -3.29747 -1.22311 0
M  V30 3435 H 340.002 -2.53114 -2.79666 0
M  V30 3436 H 342.389 -1.58898 -2.48667 0
M  V30 3437 H 342.47 -2.39022 -0.911148 0
M  V30 3438 H 342.114 -4.64131 -2.06263 0
M  V30 3439 H 342.044 -3.80902 -3.63622 0
M  V30 3440 H 344.535 -2.99648 -2.30259 0
M  V30 3441 H 344.848 -6.48867 -4.19752 0
M  V30 3442 H 343.193 -5.83166 -3.78078 0
M  V30 3443 H 346.384 -3.76244 -2.78492 0
M  V30 3444 H 346.557 -5.35478 -3.64921 0
M  V30 3445 N 339.963 1.05934 -1.16686 0
M  V30 3446 C 340.873 2.17014 -0.891183 0
M  V30 3447 C 341.889 1.73453 0.137907 0
M  V30 3448 O 343.065 2.01361 -0.039592 0
M  V30 3449 C 340.13 3.44384 -0.400099 0
M  V30 3450 C 339.191 4.02433 -1.49486 0
M  V30 3451 C 338.424 5.23723 -1.02711 0
M  V30 3452 O 338.647 5.7027 0.121716 0
M  V30 3453 O 337.581 5.7382 -1.81699 0
M  V30 3454 H 341.407 2.43113 -1.82015 0
M  V30 3455 H 338.992 1.15541 -0.947132 0
M  V30 3456 H 340.874 4.21189 -0.133392 0
M  V30 3457 H 339.549 3.19802 0.500817 0
M  V30 3458 H 338.456 3.27102 -1.81535 0
M  V30 3459 H 339.789 4.31317 -2.37121 0
M  V30 3460 N 341.441 0.965919 1.2453 0
M  V30 3461 C 342.351 0.502154 2.29163 0
M  V30 3462 C 343.367 -0.436017 1.68448 0
M  V30 3463 O 344.543 -0.309497 1.99008 0
M  V30 3464 C 341.608 -0.201956 3.46111 0
M  V30 3465 C 340.669 0.775821 4.22232 0
M  V30 3466 C 339.902 0.105217 5.33596 0
M  V30 3467 O 340.125 -1.10683 5.59558 0
M  V30 3468 O 339.059 0.796475 5.96607 0
M  V30 3469 H 342.885 1.37194 2.70946 0
M  V30 3470 H 340.47 0.732875 1.30189 0
M  V30 3471 H 342.352 -0.597564 4.17142 0
M  V30 3472 H 341.027 -1.04673 3.06309 0
M  V30 3473 H 339.934 1.22185 3.53584 0
M  V30 3474 H 341.267 1.58896 4.65846 0
M  V30 3475 N 342.919 -1.39368 0.735821 0
M  V30 3476 C 343.882 -2.2896 0.104874 0
M  V30 3477 C 344.882 -1.46347 -0.666274 0
M  V30 3478 O 346.072 -1.67014 -0.49517 0
M  V30 3479 C 343.204 -3.29857 -0.860656 0
M  V30 3480 H 344.397 -2.86259 0.894205 0
M  V30 3481 H 341.95 -1.48029 0.501704 0
M  V30 3482 H 342.685 -2.77615 -1.67631 0
M  V30 3483 H 342.47 -3.9087 -0.310327 0
M  V30 3484 H 343.96 -3.96893 -1.29867 0
M  V30 3485 N 344.397 -0.483516 -1.5 0
M  V30 3486 C 345.307 0.309172 -2.32554 0
M  V30 3487 C 346.323 0.984159 -1.43493 0
M  V30 3488 O 347.499 0.969399 -1.76535 0
M  V30 3489 C 344.564 1.36979 -3.18493 0
M  V30 3490 C 343.625 0.710095 -4.23387 0
M  V30 3491 C 342.858 1.72018 -5.05218 0
M  V30 3492 O 343.081 2.94813 -4.88305 0
M  V30 3493 O 342.015 1.28515 -5.8802 0
M  V30 3494 H 345.841 -0.366064 -3.01486 0
M  V30 3495 H 343.426 -0.24514 -1.47375 0
M  V30 3496 H 345.308 1.98385 -3.71781 0
M  V30 3497 H 343.983 2.02828 -2.52275 0
M  V30 3498 H 342.89 0.0567539 -3.74057 0
M  V30 3499 H 344.223 0.0943557 -4.9211 0
M  V30 3500 N 345.875 1.56104 -0.216619 0
M  V30 3501 C 347.121 1.98466 0.417033 0
M  V30 3502 C 347.454 1.10403 1.59765 0
M  V30 3503 O 346.729 0.160632 1.93836 0
M  V30 3504 C 347.012 3.49769 0.85637 0
M  V30 3505 C 346.865 4.48606 -0.327546 0
M  V30 3506 C 348.184 4.05339 1.7143 0
M  V30 3507 H 345.303 0.721551 0.150112 0
M  V30 3508 H 347.945 1.87423 -0.311864 0
M  V30 3509 H 346.095 3.5931 1.47745 0
M  V30 3510 H 347.767 4.5108 -0.965618 0
M  V30 3511 H 346.01 4.22682 -0.975805 0
M  V30 3512 H 346.681 5.51995 0.0227149 0
M  V30 3513 H 349.157 3.98712 1.19031 0
M  V30 3514 H 348.033 5.11533 1.99061 0
M  V30 3515 H 348.294 3.51918 2.67593 0
M  V30 3516 N 347.353 -0.0568162 1.57498 0
M  V30 3517 C 348.283 -1.06593 2.0775 0
M  V30 3518 C 349.264 -1.39448 0.974082 0
M  V30 3519 O 350.449 -1.48815 1.24771 0
M  V30 3520 C 347.579 -2.37509 2.5339 0
M  V30 3521 C 346.533 -2.1897 3.67745 0
M  V30 3522 C 345.859 -3.55402 3.99492 0
M  V30 3523 C 347.159 -1.59859 4.97235 0
M  V30 3524 H 348.853 -0.647706 2.9231 0
M  V30 3525 H 346.399 -0.310116 1.40621 0
M  V30 3526 H 348.352 -3.08409 2.87162 0
M  V30 3527 H 347.076 -2.8134 1.65878 0
M  V30 3528 H 345.735 -1.50508 3.3428 0
M  V30 3529 H 345.383 -3.9683 3.09088 0
M  V30 3530 H 345.083 -3.43831 4.76502 0
M  V30 3531 H 346.607 -4.27708 4.35773 0
M  V30 3532 H 348.021 -2.20642 5.29141 0
M  V30 3533 H 346.418 -1.58942 5.78669 0
M  V30 3534 H 347.488 -0.561506 4.81638 0
M  V30 3535 N 348.832 -1.54138 -0.328536 0
M  V30 3536 C 350.079 -1.72105 -1.06706 0
M  V30 3537 C 350.407 -0.492111 -1.88171 0
M  V30 3538 O 349.662 0.526153 -1.88494 0
M  V30 3539 C 349.961 -2.9457 -2.02393 0
M  V30 3540 C 349.627 -4.29544 -1.37122 0
M  V30 3541 C 348.289 -4.6624 -1.19052 0
M  V30 3542 C 350.641 -5.1333 -0.902331 0
M  V30 3543 C 347.969 -5.84325 -0.527331 0
M  V30 3544 C 350.321 -6.32094 -0.252988 0
M  V30 3545 C 348.985 -6.67473 -0.0600901 0
M  V30 3546 H 348.255 -0.629775 -0.390466 0
M  V30 3547 H 350.902 -1.88372 -0.34473 0
M  V30 3548 H 349.207 -2.72969 -2.81061 0
M  V30 3549 H 350.904 -3.05665 -2.59557 0
M  V30 3550 H 347.494 -4.0067 -1.52188 0
M  V30 3551 H 351.678 -4.855 -1.02974 0
M  V30 3552 H 346.934 -6.103 -0.366634 0
M  V30 3553 H 351.108 -6.96299 0.118366 0
M  V30 3554 H 348.735 -7.58832 0.455828 0
M  V30 3555 N 350.31 0.590341 -1.46126 0
M  V30 3556 C 351.273 1.68194 -1.55703 0
M  V30 3557 C 352.273 1.54808 -0.434868 0
M  V30 3558 O 353.463 1.59564 -0.698928 0
M  V30 3559 C 350.595 3.07575 -1.47005 0
M  V30 3560 H 351.788 1.61064 -2.52979 0
M  V30 3561 H 349.341 0.807541 -1.33823 0
M  V30 3562 H 350.076 3.20268 -0.509785 0
M  V30 3563 H 349.861 3.187 -2.28414 0
M  V30 3564 H 351.351 3.87055 -1.56776 0
M  V30 3565 N 351.788 1.33704 0.83433 0
M  V30 3566 C 352.698 1.26382 1.97648 0
M  V30 3567 C 353.714 0.173548 1.73132 0
M  V30 3568 O 354.89 0.397962 1.97429 0
M  V30 3569 C 351.955 1.00769 3.31733 0
M  V30 3570 C 351.016 2.1884 3.69334 0
M  V30 3571 C 350.249 1.9444 4.9702 0
M  V30 3572 O 350.472 0.896961 5.63303 0
M  V30 3573 O 349.406 2.81093 5.32231 0
M  V30 3574 H 353.232 2.22444 2.06767 0
M  V30 3575 H 350.817 1.13795 0.968037 0
M  V30 3576 H 352.699 0.882186 4.12062 0
M  V30 3577 H 351.374 0.0773783 3.23608 0
M  V30 3578 H 350.281 2.36946 2.89495 0
M  V30 3579 H 351.614 3.10221 3.82131 0
M  V30 3580 N 353.266 -1.05314 1.17247 0
M  V30 3581 C 354.229 -2.112 0.890357 0
M  V30 3582 C 355.229 -1.60359 -0.118943 0
M  V30 3583 O 356.419 -1.73833 0.113086 0
M  V30 3584 C 353.551 -3.39266 0.333422 0
M  V30 3585 H 354.744 -2.37659 1.82916 0
M  V30 3586 H 352.297 -1.21538 0.982758 0
M  V30 3587 H 353.032 -3.18462 -0.612587 0
M  V30 3588 H 352.817 -3.77477 1.06082 0
M  V30 3589 H 354.307 -4.17315 0.154322 0
M  V30 3590 N 354.744 -0.972509 -1.24016 0
M  V30 3591 C 355.707 -0.511403 -2.23422 0
M  V30 3592 C 356.707 0.394679 -1.55881 0
M  V30 3593 O 357.897 0.189469 -1.73167 0
M  V30 3594 C 355.029 0.258769 -3.39916 0
M  V30 3595 H 356.222 -1.39024 -2.6573 0
M  V30 3596 H 353.775 -0.757585 -1.36713 0
M  V30 3597 H 354.51 1.1545 -3.03054 0
M  V30 3598 H 354.295 -0.391522 -3.9014 0
M  V30 3599 H 355.785 0.570244 -4.13688 0
M  V30 3600 N 356.222 1.38976 -0.743202 0
M  V30 3601 C 357.154 2.29096 -0.0689228 0
M  V30 3602 C 358.167 1.47229 0.694791 0
M  V30 3603 O 359.356 1.70212 0.537597 0
M  V30 3604 C 356.456 3.25988 0.926548 0
M  V30 3605 C 355.629 4.36833 0.222647 0
M  V30 3606 C 354.688 5.13981 1.12739 0
M  V30 3607 O 353.714 5.6601 0.601795 0
M  V30 3608 N 354.916 5.25966 2.45641 0
M  V30 3609 H 357.681 2.87604 -0.842846 0
M  V30 3610 H 355.242 1.50645 -0.593109 0
M  V30 3611 H 357.234 3.74476 1.5346 0
M  V30 3612 H 355.804 2.68453 1.60162 0
M  V30 3613 H 355.024 3.90116 -0.565983 0
M  V30 3614 H 356.312 5.0811 -0.264841 0
M  V30 3615 H 355.71 4.85228 2.9081 0
M  V30 3616 H 354.267 5.77865 3.01522 0
M  V30 3617 N 357.7 0.491464 1.49741 0
M  V30 3618 C 358.663 -0.280906 2.27472 0
M  V30 3619 C 359.663 -0.902454 1.33088 0
M  V30 3620 O 360.853 -0.768465 1.56334 0
M  V30 3621 C 357.985 -1.40209 3.10732 0
M  V30 3622 H 359.178 0.401056 2.97206 0
M  V30 3623 H 356.731 0.246131 1.5435 0
M  V30 3624 H 357.466 -2.11849 2.45541 0
M  V30 3625 H 357.251 -0.961969 3.80117 0
M  V30 3626 H 358.741 -1.9464 3.69466 0
M  V30 3627 N 359.178 -1.55987 0.224894 0
M  V30 3628 C 360.426 -1.97998 -0.405099 0
M  V30 3629 C 360.747 -1.11387 -1.60056 0
M  V30 3630 O 360.017 -0.191645 -1.9496 0
M  V30 3631 H 358.597 -0.731235 -0.152658 0
M  V30 3632 H 361.259 -1.92279 0.318567 0
M  V30 3633 H 360.355 -3.03463 -0.729167 0
M  V30 3634 N 360.656 0.0484629 -1.57525 0
M  V30 3635 C 361.586 1.0549 -2.08313 0
M  V30 3636 C 362.567 1.38929 -0.981463 0
M  V30 3637 O 363.752 1.48151 -1.25558 0
M  V30 3638 C 360.882 2.36162 -2.54646 0
M  V30 3639 C 359.836 2.17016 -3.68901 0
M  V30 3640 C 359.162 3.53278 -4.01371 0
M  V30 3641 C 360.462 1.57219 -4.98076 0
M  V30 3642 H 362.156 0.632195 -2.92649 0
M  V30 3643 H 359.702 0.302654 -1.40784 0
M  V30 3644 H 361.655 3.06882 -2.88793 0
M  V30 3645 H 360.379 2.80456 -1.67368 0
M  V30 3646 H 359.038 1.48733 -3.35073 0
M  V30 3647 H 358.686 3.95185 -3.11188 0
M  V30 3648 H 358.386 3.41299 -4.78318 0
M  V30 3649 H 359.91 4.25391 -4.38035 0
M  V30 3650 H 361.324 2.17832 -5.30304 0
M  V30 3651 H 359.721 1.55871 -5.79503 0
M  V30 3652 H 360.791 0.535956 -4.81929 0
M  V30 3653 N 362.134 1.5431 0.320358 0
M  V30 3654 C 363.38 1.72924 1.05949 0
M  V30 3655 C 363.713 0.503185 1.87568 0
M  V30 3656 O 362.988 -0.499839 1.87968 0
M  V30 3657 C 363.271 3.00676 1.98156 0
M  V30 3658 C 363.124 4.3354 1.19845 0
M  V30 3659 C 364.443 3.24198 2.9763 0
M  V30 3660 H 361.562 0.629195 0.383774 0
M  V30 3661 H 364.204 1.87008 0.335854 0
M  V30 3662 H 362.354 2.888 2.59859 0
M  V30 3663 H 364.026 4.57305 0.605773 0
M  V30 3664 H 362.269 4.309 0.500784 0
M  V30 3665 H 362.94 5.19156 1.87567 0
M  V30 3666 H 365.416 3.35557 2.4605 0
M  V30 3667 H 364.292 4.14938 3.59329 0
M  V30 3668 H 364.553 2.41577 3.7026 0
M  V30 3669 N 363.613 -0.582584 1.46437 0
M  V30 3670 C 364.861 -1.33814 1.51453 0
M  V30 3671 C 365.182 -1.94277 0.167792 0
M  V30 3672 O 364.452 -1.78566 -0.805677 0
M  V30 3673 H 363.032 -0.496838 0.557818 0
M  V30 3674 H 365.694 -0.682281 1.82568 0
M  V30 3675 H 364.79 -2.14479 2.26728 0
M  V30 3676 N 365.091 -1.34144 -0.827227 0
M  V30 3677 C 366.502 -1.23557 -1.39966 0
M  V30 3678 C 366.853 0.140731 -1.95695 0
M  V30 3679 O 365.978 1.04087 -1.89723 0
M  V30 3680 C 366.573 -2.23708 -2.54441 0
M  V30 3681 C 365.132 -2.16924 -3.07605 0
M  V30 3682 C 364.279 -2.10549 -1.80456 0
M  V30 3683 H 367.23 -1.45573 -0.631991 0
M  V30 3684 H 367.251 -1.85157 -3.32411 0
M  V30 3685 H 366.763 -3.23866 -2.13851 0
M  V30 3686 H 364.864 -1.20107 -3.52711 0
M  V30 3687 H 364.977 -3.07988 -3.66988 0
M  V30 3688 H 363.341 -1.56203 -2.01178 0
M  V30 3689 H 364.124 -3.12535 -1.42046 0
M  V30 3690 N 366.569 1.04691 -1.17803 0
M  V30 3691 C 367.817 1.7743 -0.967617 0
M  V30 3692 C 368.138 1.88359 0.504574 0
M  V30 3693 O 367.408 1.40402 1.36617 0
M  V30 3694 H 365.988 0.657242 -0.355024 0
M  V30 3695 H 368.65 1.2638 -1.48371 0
M  V30 3696 H 367.746 2.78924 -1.40027 0
M  V30 3697 N 368.047 0.979072 1.23499 0
M  V30 3698 C 368.997 0.489378 2.22686 0
M  V30 3699 C 369.981 -0.434871 1.54912 0
M  V30 3700 O 371.173 -0.263941 1.75021 0
M  V30 3701 C 368.302 -0.208178 3.42668 0
M  V30 3702 C 367.388 0.735563 4.17672 0
M  V30 3703 N 367.779 1.87763 4.69658 0
M  V30 3704 C 366.077 0.548625 4.42613 0
M  V30 3705 C 366.778 2.46886 5.26709 0
M  V30 3706 N 365.754 1.75287 5.14563 0
M  V30 3707 H 369.556 1.36062 2.60508 0
M  V30 3708 H 367.07 0.83958 1.39014 0
M  V30 3709 H 369.067 -0.576295 4.12898 0
M  V30 3710 H 367.727 -1.07572 3.06363 0
M  V30 3711 H 368.738 2.25885 4.66043 0
M  V30 3712 H 365.415 -0.274006 4.166 0
M  V30 3713 H 366.805 3.43326 5.77561 0
M  V30 3714 N 369.525 -1.3858 0.750561 0
M  V30 3715 C 370.771 -2.00481 0.305825 0
M  V30 3716 C 371.104 -1.5944 -1.10872 0
M  V30 3717 O 370.379 -0.83052 -1.75877 0
M  V30 3718 C 370.662 -3.5758 0.425287 0
M  V30 3719 C 370.515 -4.08594 1.88072 0
M  V30 3720 C 371.834 -4.39719 -0.183122 0
M  V30 3721 H 368.953 -0.728348 0.112598 0
M  V30 3722 H 371.595 -1.64566 0.949638 0
M  V30 3723 H 369.745 -3.88306 -0.122828 0
M  V30 3724 H 371.417 -3.88523 2.48691 0
M  V30 3725 H 369.66 -3.61574 2.39681 0
M  V30 3726 H 370.331 -5.177 1.91548 0
M  V30 3727 H 372.807 -4.15128 0.284303 0
M  V30 3728 H 371.683 -5.48856 -0.0692757 0
M  V30 3729 H 371.944 -4.23434 -1.27106 0
M  V30 3730 N 371.003 -0.499398 -1.49478 0
M  V30 3731 C 372.249 0.0377587 -2.03365 0
M  V30 3732 C 372.604 1.3484 -1.37244 0
M  V30 3733 O 371.897 1.85 -0.498547 0
M  V30 3734 C 372.091 0.248424 -3.56536 0
M  V30 3735 C 371.92 -1.04025 -4.37503 0
M  V30 3736 C 370.69 -1.59159 -4.79579 0
M  V30 3737 C 372.888 -1.9431 -4.76181 0
M  V30 3738 N 370.87 -2.82634 -5.44969 0
M  V30 3739 C 372.241 -3.02364 -5.41272 0
M  V30 3740 C 374.296 -1.95008 -4.58123 0
M  V30 3741 C 372.999 -4.1114 -5.90217 0
M  V30 3742 C 375.025 -3.02758 -5.08027 0
M  V30 3743 C 374.387 -4.09531 -5.73118 0
M  V30 3744 H 370.486 -0.026923 -0.781536 0
M  V30 3745 H 373.07 -0.673901 -1.82665 0
M  V30 3746 H 371.241 0.929139 -3.77123 0
M  V30 3747 H 372.973 0.782445 -3.97064 0
M  V30 3748 H 369.728 -1.13696 -4.5975 0
M  V30 3749 H 370.152 -3.45416 -5.82252 0
M  V30 3750 H 374.794 -1.13766 -4.07207 0
M  V30 3751 H 372.512 -4.93181 -6.40155 0
M  V30 3752 H 376.098 -3.04315 -4.95866 0
M  V30 3753 H 374.978 -4.91534 -6.11035 0
M  V30 3754 N 372.481 1.55866 -0.233164 0
M  V30 3755 C 373.411 2.23783 0.666599 0
M  V30 3756 C 374.392 1.21343 1.19205 0
M  V30 3757 O 375.577 1.4996 1.23392 0
M  V30 3758 C 372.707 2.92671 1.86978 0
M  V30 3759 C 371.661 4.01682 1.47768 0
M  V30 3760 C 370.987 4.57926 2.76058 0
M  V30 3761 C 372.287 5.18126 0.658993 0
M  V30 3762 H 373.981 2.99232 0.100306 0
M  V30 3763 H 371.527 1.43924 0.046804 0
M  V30 3764 H 373.48 3.3888 2.50476 0
M  V30 3765 H 372.204 2.14688 2.46123 0
M  V30 3766 H 370.863 3.56222 0.866106 0
M  V30 3767 H 370.511 3.76659 3.33372 0
M  V30 3768 H 370.211 5.31505 2.50552 0
M  V30 3769 H 371.735 5.06859 3.40479 0
M  V30 3770 H 373.149 5.60644 1.19795 0
M  V30 3771 H 371.546 5.98009 0.500552 0
M  V30 3772 H 372.616 4.83763 -0.331856 0
M  V30 3773 N 373.959 -0.0401083 1.57549 0
M  V30 3774 C 375.205 -0.734211 1.89043 0
M  V30 3775 C 375.538 -1.75591 0.829535 0
M  V30 3776 O 374.813 -1.93868 -0.156706 0
M  V30 3777 C 375.096 -1.41374 3.31188 0
M  V30 3778 C 374.949 -0.406299 4.47961 0
M  V30 3779 C 376.268 -2.35061 3.72068 0
M  V30 3780 H 373.387 -0.265447 0.687537 0
M  V30 3781 H 376.029 0.00294087 1.9 0
M  V30 3782 H 374.179 -2.04206 3.30503 0
M  V30 3783 H 375.851 0.219255 4.60779 0
M  V30 3784 H 374.094 0.275485 4.32924 0
M  V30 3785 H 374.765 -0.920022 5.44279 0
M  V30 3786 H 377.241 -1.82282 3.74049 0
M  V30 3787 H 376.117 -2.79593 4.72355 0
M  V30 3788 H 376.378 -3.21258 3.0372 0
M  V30 3789 N 375.437 -1.54477 -0.31217 0
M  V30 3790 C 376.848 -1.64344 -0.885891 0
M  V30 3791 C 377.199 -0.54485 -1.88483 0
M  V30 3792 O 376.324 0.320387 -2.14015 0
M  V30 3793 C 376.919 -2.97908 -1.61357 0
M  V30 3794 C 375.478 -3.09933 -2.13585 0
M  V30 3795 C 374.625 -2.59971 -0.964897 0
M  V30 3796 H 377.576 -1.58448 -0.0894528 0
M  V30 3797 H 377.597 -2.88706 -2.47848 0
M  V30 3798 H 377.109 -3.77845 -0.886277 0
M  V30 3799 H 375.21 -2.34694 -2.89395 0
M  V30 3800 H 375.323 -4.15916 -2.37804 0
M  V30 3801 H 373.687 -2.16147 -1.34731 0
M  V30 3802 H 374.47 -3.42376 -0.251742 0
M  V30 3803 N 376.915 0.57481 -1.46744 0
M  V30 3804 C 377.863 1.70435 -1.58286 0
M  V30 3805 C 378.857 1.63287 -0.450956 0
M  V30 3806 O 380.063 1.68685 -0.628121 0
M  V30 3807 H 376.438 0.56364 -0.497809 0
M  V30 3808 H 378.409 1.57833 -2.53242 0
M  V30 3809 C 377.158 3.08815 -1.59776 0
M  V30 3810 H 376.481 3.1499 -2.46214 0
M  V30 3811 H 377.921 3.87588 -1.71905 0
M  V30 3812 C 376.38 3.35301 -0.327812 0
M  V30 3813 O 376.91 3.97511 0.57861 0
M  V30 3814 N 375.116 2.89816 -0.213274 0
M  V30 3815 H 374.663 2.39371 -0.951798 0
M  V30 3816 H 374.621 3.0791 0.63553 0
M  V30 3817 N 378.394 1.34581 0.820102 0
M  V30 3818 C 379.324 1.29038 1.94606 0
M  V30 3819 C 380.305 0.1673 1.69275 0
M  V30 3820 O 381.49 0.360112 1.90832 0
M  V30 3821 C 378.62 1.04793 3.31113 0
M  V30 3822 C 377.574 2.13597 3.70891 0
M  V30 3823 C 376.9 1.74537 5.05412 0
M  V30 3824 C 378.2 3.55451 3.8269 0
M  V30 3825 H 379.894 2.23248 1.99501 0
M  V30 3826 H 377.44 1.0747 0.958449 0
M  V30 3827 H 379.393 0.995592 4.0947 0
M  V30 3828 H 378.117 0.0702565 3.26524 0
M  V30 3829 H 376.776 2.17905 2.9481 0
M  V30 3830 H 376.424 0.754226 4.97313 0
M  V30 3831 H 376.124 2.47361 5.32997 0
M  V30 3832 H 377.648 1.70803 5.86224 0
M  V30 3833 H 379.062 3.5354 4.51312 0
M  V30 3834 H 377.459 4.26922 4.21732 0
M  V30 3835 H 378.529 3.92587 2.84611 0
M  V30 3836 N 379.872 -1.04064 1.18357 0
M  V30 3837 C 380.835 -2.10243 0.912707 0
M  V30 3838 C 381.835 -1.60477 -0.101928 0
M  V30 3839 O 383.025 -1.73703 0.131517 0
M  V30 3840 C 380.157 -3.38893 0.369387 0
M  V30 3841 H 381.35 -2.35706 1.85426 0
M  V30 3842 H 378.903 -1.20489 0.995594 0
M  V30 3843 H 379.638 -3.19094 -0.578776 0
M  V30 3844 H 379.423 -3.76331 1.1008 0
M  V30 3845 H 380.913 -4.17128 0.198575 0
M  V30 3846 N 381.35 -0.985608 -1.22978 0
M  V30 3847 C 382.28 -0.549649 -2.26939 0
M  V30 3848 C 383.261 0.419803 -1.64838 0
M  V30 3849 O 384.446 0.31203 -1.91677 0
M  V30 3850 C 381.576 0.143652 -3.47003 0
M  V30 3851 C 380.53 -0.743606 -4.21491 0
M  V30 3852 C 379.856 0.0822027 -5.34637 0
M  V30 3853 C 381.156 -2.03694 -4.80943 0
M  V30 3854 H 382.85 -1.41862 -2.63658 0
M  V30 3855 H 380.396 -0.683571 -1.26741 0
M  V30 3856 H 382.349 0.459985 -4.18882 0
M  V30 3857 H 381.073 1.04711 -3.09359 0
M  V30 3858 H 379.732 -1.04347 -3.51436 0
M  V30 3859 H 379.38 0.986359 -4.93234 0
M  V30 3860 H 379.08 -0.508377 -5.85397 0
M  V30 3861 H 380.604 0.392797 -6.09335 0
M  V30 3862 H 382.018 -1.78504 -5.44802 0
M  V30 3863 H 380.415 -2.57573 -5.42011 0
M  V30 3864 H 381.485 -2.72042 -4.01399 0
M  V30 3865 N 382.828 1.3818 -0.7579 0
M  V30 3866 C 384.076 1.99624 -0.315361 0
M  V30 3867 C 384.397 1.60464 1.10799 0
M  V30 3868 O 383.667 0.863507 1.75842 0
M  V30 3869 H 382.247 0.73831 -0.113611 0
M  V30 3870 H 384.909 1.68878 -0.972952 0
M  V30 3871 H 384.005 3.09754 -0.381931 0
M  V30 3872 N 384.306 0.507319 1.49211 0
M  V30 3873 C 385.531 -0.033725 2.07373 0
M  V30 3874 C 385.956 -1.29485 1.36437 0
M  V30 3875 O 385.314 -1.76294 0.423087 0
M  V30 3876 C 385.362 -0.263945 3.59633 0
M  V30 3877 O 384.466 -1.33737 3.90113 0
M  V30 3878 H 383.807 0.0290331 0.663365 0
M  V30 3879 H 386.337 0.708749 1.91932 0
M  V30 3880 H 386.347 -0.493536 4.05004 0
M  V30 3881 H 385.022 0.657424 4.10671 0
M  V30 3882 H 383.599 -1.09224 3.56545 0
M  V30 3883 N 385.784 -1.5574 0.241426 0
M  V30 3884 C 387.012 -2.03208 -0.389134 0
M  V30 3885 C 387.427 -1.12082 -1.51931 0
M  V30 3886 O 386.784 -0.134183 -1.82006 0
M  V30 3887 C 386.835 -3.50064 -0.902087 0
M  V30 3888 O 386.556 -4.37717 0.18305 0
M  V30 3889 C 388.057 -4.13268 -1.60389 0
M  V30 3890 H 385.277 -0.664509 -0.0931053 0
M  V30 3891 H 387.821 -2.0124 0.36369 0
M  V30 3892 H 385.976 -3.52583 -1.60511 0
M  V30 3893 H 386.39 -5.24097 -0.205579 0
M  V30 3894 H 387.864 -5.17733 -1.91458 0
M  V30 3895 H 388.341 -3.59434 -2.52397 0
M  V30 3896 H 388.947 -4.14655 -0.945576 0
M  V30 3897 N 387.262 0.0317525 -1.57568 0
M  V30 3898 C 388.539 0.758366 -1.803 0
M  V30 3899 C 388.919 1.93718 -0.838845 0
M  V30 3900 O 388.267 2.28187 0.119571 0
M  V30 3901 C 388.477 1.19392 -3.27943 0
M  V30 3902 C 389.825 1.61094 -3.92854 0
M  V30 3903 O 390.849 1.28857 -3.32076 0
M  V30 3904 O 389.708 2.20918 -4.99858 0
M  V30 3905 H 386.802 0.366514 -0.741348 0
M  V30 3906 H 389.348 0.00873765 -1.69698 0
M  V30 3907 H 388.12 0.352275 -3.89711 0
M  V30 3908 H 387.743 2.00365 -3.43424 0
M  V30 3909 N 388.74 1.54641 0.303973 0
M  V30 3910 C 389.703 1.84646 1.35789 0
M  V30 3911 C 390.703 0.7192 1.4382 0
M  V30 3912 O 391.893 0.987491 1.43507 0
M  V30 3913 C 389.025 2.02407 2.74307 0
M  V30 3914 H 390.218 2.78829 1.10429 0
M  V30 3915 H 387.771 1.46658 0.540487 0
M  V30 3916 H 388.506 1.10502 3.04893 0
M  V30 3917 H 388.291 2.84453 2.69868 0
M  V30 3918 H 389.781 2.27002 3.50514 0
M  V30 3919 N 390.218 -0.567019 1.47046 0
M  V30 3920 C 391.629 -1.14916 1.47143 0
M  V30 3921 C 391.98 -1.94954 0.220767 0
M  V30 3922 O 391.105 -2.05602 -0.67505 0
M  V30 3923 C 391.7 -2.09069 2.666 0
M  V30 3924 C 390.259 -2.62575 2.69687 0
M  V30 3925 C 389.406 -1.38755 2.40088 0
M  V30 3926 H 392.357 -0.354126 1.54699 0
M  V30 3927 H 392.378 -2.92789 2.43011 0
M  V30 3928 H 391.89 -1.50789 3.57609 0
M  V30 3929 H 389.991 -3.24681 1.82792 0
M  V30 3930 H 390.104 -3.04239 3.70102 0
M  V30 3931 H 388.468 -1.69098 1.90468 0
M  V30 3932 H 389.251 -0.822822 3.33293 0
M  V30 3933 N 391.696 -1.35014 -0.812953 0
M  V30 3934 C 393.107 -1.25035 -1.38648 0
M  V30 3935 C 393.458 0.119967 -1.95833 0
M  V30 3936 O 392.583 1.02069 -1.90816 0
M  V30 3937 C 393.178 -2.26394 -2.52054 0
M  V30 3938 C 391.737 -2.20175 -3.05287 0
M  V30 3939 C 390.884 -2.12451 -1.78213 0
M  V30 3940 H 393.835 -1.46235 -0.616516 0
M  V30 3941 H 393.856 -1.88672 -3.30429 0
M  V30 3942 H 393.368 -3.26116 -2.10404 0
M  V30 3943 H 391.469 -1.23841 -3.51417 0
M  V30 3944 H 391.582 -3.11863 -3.63701 0
M  V30 3945 H 389.946 -1.58328 -1.9951 0
M  V30 3946 H 390.729 -3.14024 -1.38723 0
M  V30 3947 N 393.175 1.03435 -1.18907 0
M  V30 3948 C 394.138 2.09756 -0.923844 0
M  V30 3949 C 395.138 1.60528 0.093416 0
M  V30 3950 O 396.328 1.73631 -0.140727 0
M  V30 3951 C 393.46 3.38692 -0.387354 0
M  V30 3952 H 394.653 2.34719 -1.86674 0
M  V30 3953 H 392.206 1.19959 -1.00197 0
M  V30 3954 H 392.941 3.19396 0.561845 0
M  V30 3955 H 392.726 3.75742 -1.12074 0
M  V30 3956 H 394.216 4.17016 -0.220694 0
M  V30 3957 N 394.653 0.992116 1.22453 0
M  V30 3958 C 395.881 0.685944 1.95198 0
M  V30 3959 C 396.296 -0.749233 1.73297 0
M  V30 3960 O 395.653 -1.50549 1.03156 0
M  V30 3961 C 395.704 0.981395 3.47924 0
M  V30 3962 O 395.425 2.36018 3.6909 0
M  V30 3963 C 396.926 0.692815 4.37853 0
M  V30 3964 H 394.146 0.253821 0.621141 0
M  V30 3965 H 396.69 1.32668 1.55626 0
M  V30 3966 H 394.845 0.386481 3.85467 0
M  V30 3967 H 395.259 2.45884 4.63294 0
M  V30 3968 H 396.733 0.949818 5.43767 0
M  V30 3969 H 397.21 -0.373181 4.37612 0
M  V30 3970 H 397.816 1.26874 4.05935 0
M  V30 3971 N 396.131 -1.37776 0.765217 0
M  V30 3972 C 397.378 -1.99849 0.326588 0
M  V30 3973 C 397.706 -1.60746 -1.09504 0
M  V30 3974 O 396.961 -0.84202 -1.76659 0
M  V30 3975 C 397.26 -3.5504 0.410053 0
M  V30 3976 C 396.926 -4.13891 1.78899 0
M  V30 3977 C 395.588 -4.29678 2.16635 0
M  V30 3978 C 397.94 -4.46236 2.69301 0
M  V30 3979 C 395.268 -4.7511 3.44221 0
M  V30 3980 C 397.62 -4.93089 3.9629 0
M  V30 3981 C 396.284 -5.07082 4.34078 0
M  V30 3982 H 395.554 -0.7313 0.119507 0
M  V30 3983 H 398.201 -1.64645 0.977968 0
M  V30 3984 H 396.506 -3.90451 -0.324878 0
M  V30 3985 H 398.203 -4.00966 0.0520699 0
M  V30 3986 H 394.793 -4.02026 1.48569 0
M  V30 3987 H 398.977 -4.3363 2.41409 0
M  V30 3988 H 394.233 -4.84129 3.73402 0
M  V30 3989 H 398.407 -5.17084 4.66472 0
M  V30 3990 H 396.034 -5.42046 5.33001 0
M  V30 3991 N 397.609 -0.515225 -1.4894 0
M  V30 3992 C 399.02 -0.0710067 -1.86565 0
M  V30 3993 C 399.371 1.34733 -1.42623 0
M  V30 3994 O 398.496 2.00653 -0.810379 0
M  V30 3995 C 399.091 -0.122083 -3.3858 0
M  V30 3996 C 397.65 0.266863 -3.75453 0
M  V30 3997 C 396.797 -0.488376 -2.72966 0
M  V30 3998 H 399.748 -0.727266 -1.41055 0
M  V30 3999 H 399.769 0.669818 -3.74558 0
M  V30 4000 H 399.281 -1.15448 -3.70531 0
M  V30 4001 H 397.382 1.30196 -3.49113 0
M  V30 4002 H 397.495 -0.0624811 -4.79059 0
M  V30 4003 H 395.859 0.0635622 -2.54621 0
M  V30 4004 H 396.642 -1.52113 -3.07761 0
M  V30 4005 N 399.087 1.5561 -0.249682 0
M  V30 4006 C 400.333 1.99306 0.374841 0
M  V30 4007 C 400.666 1.13767 1.57387 0
M  V30 4008 O 399.941 0.201711 1.93451 0
M  V30 4009 C 400.224 3.51507 0.781986 0
M  V30 4010 C 400.077 4.4781 -0.422629 0
M  V30 4011 C 401.396 4.08884 1.62793 0
M  V30 4012 H 398.515 0.724572 0.134773 0
M  V30 4013 H 401.157 1.86719 -0.351549 0
M  V30 4014 H 399.307 3.62363 1.4009 0
M  V30 4015 H 400.979 4.48931 -1.06108 0
M  V30 4016 H 399.222 4.20518 -1.06524 0
M  V30 4017 H 399.893 5.51919 -0.0943766 0
M  V30 4018 H 402.369 4.01147 1.10547 0
M  V30 4019 H 401.245 5.1564 1.88166 0
M  V30 4020 H 401.506 3.57515 2.60068 0
M  V30 4021 N 400.565 -0.0233959 1.57583 0
M  V30 4022 C 401.813 -0.711654 1.89156 0
M  V30 4023 C 402.134 -1.75591 0.848096 0
M  V30 4024 O 401.404 -1.95547 -0.117566 0
M  V30 4025 H 399.984 -0.265835 0.698098 0
M  V30 4026 H 402.646 0.0119948 1.94896 0
M  V30 4027 H 401.742 -1.19766 2.88206 0
M  V30 4028 N 402.043 -1.548 -0.295768 0
M  V30 4029 C 402.973 -1.89115 -1.36959 0
M  V30 4030 C 403.954 -0.75059 -1.52644 0
M  V30 4031 O 405.139 -1.00678 -1.66065 0
M  V30 4032 C 402.269 -2.14307 -2.73295 0
M  V30 4033 C 401.223 -3.30151 -2.72368 0
M  V30 4034 C 400.549 -3.40772 -4.12042 0
M  V30 4035 C 401.849 -4.67126 -2.33646 0
M  V30 4036 H 403.543 -2.79053 -1.08488 0
M  V30 4037 H 401.089 -1.34266 -0.520443 0
M  V30 4038 H 403.042 -2.36898 -3.48507 0
M  V30 4039 H 401.766 -1.21145 -3.03301 0
M  V30 4040 H 400.425 -3.0749 -1.99613 0
M  V30 4041 H 400.073 -2.45117 -4.39234 0
M  V30 4042 H 399.773 -4.18645 -4.12322 0
M  V30 4043 H 401.297 -3.6563 -4.89027 0
M  V30 4044 H 402.711 -4.89414 -2.98575 0
M  V30 4045 H 401.108 -5.47751 -2.45129 0
M  V30 4046 H 402.178 -4.67489 -1.28772 0
M  V30 4047 N 403.521 0.559213 -1.47345 0
M  V30 4048 C 404.77 1.31281 -1.53128 0
M  V30 4049 C 405.083 1.94602 -0.197344 0
M  V30 4050 O 406.289 2.71173 -0.133154 0
M  V30 4051 C 404.745 2.38051 -2.69925 0
M  V30 4052 C 404.353 1.8093 -4.0984 0
M  V30 4053 C 406.097 3.14604 -2.84999 0
M  V30 4054 C 404.004 2.85468 -5.1794 0
M  V30 4055 H 402.934 0.493614 -0.569966 0
M  V30 4056 H 405.585 0.594155 -1.73615 0
M  V30 4057 H 403.967 3.12822 -2.42814 0
M  V30 4058 H 405.141 1.12544 -4.46845 0
M  V30 4059 H 403.456 1.16967 -3.99634 0
M  V30 4060 H 406.053 3.92666 -3.62929 0
M  V30 4061 H 406.396 3.68665 -1.93369 0
M  V30 4062 H 406.929 2.46945 -3.1187 0
M  V30 4063 H 403.668 2.36264 -6.1144 0
M  V30 4064 H 403.188 3.52269 -4.85455 0
M  V30 4065 H 404.867 3.48996 -5.44803 0
M  V30 4066 N 404.999 1.35443 0.805782 0
M  V30 4067 C 406.224 1.32037 1.59941 0
M  V30 4068 C 406.649 -0.0994215 1.87837 0
M  V30 4069 O 406.007 -1.06648 1.46615 0
M  V30 4070 C 406.055 2.13354 2.90711 0
M  V30 4071 O 405.159 1.5148 3.83572 0
M  V30 4072 H 404.5 0.452666 0.485787 0
M  V30 4073 H 407.03 1.78496 1.00002 0
M  V30 4074 H 407.04 2.25338 3.40128 0
M  V30 4075 H 405.715 3.16572 2.69732 0
M  V30 4076 H 404.292 1.4834 3.42125 0
M  V30 4077 N 406.477 -1.02803 1.19454 0
M  V30 4078 C 407.723 -1.76478 0.999171 0
M  V30 4079 C 408.056 -1.88456 -0.468828 0
M  V30 4080 O 407.331 -1.40198 -1.34814 0
M  V30 4081 C 407.614 -3.19044 1.66981 0
M  V30 4082 C 407.467 -3.14932 3.21151 0
M  V30 4083 C 408.786 -4.17456 1.39349 0
M  V30 4084 H 405.905 -0.640614 0.364393 0
M  V30 4085 H 408.547 -1.20005 1.47305 0
M  V30 4086 H 406.697 -3.67263 1.2669 0
M  V30 4087 H 408.369 -2.74605 3.70661 0
M  V30 4088 H 406.612 -2.52625 3.52652 0
M  V30 4089 H 407.283 -4.1566 3.63223 0
M  V30 4090 H 409.759 -3.77842 1.74283 0
M  V30 4091 H 408.635 -5.154 1.88823 0
M  V30 4092 H 408.896 -4.40949 0.318813 0
M  V30 4093 N 407.956 -0.998596 -1.21925 0
M  V30 4094 C 409.202 -0.678667 -1.91107 0
M  V30 4095 C 409.535 0.78791 -1.77498 0
M  V30 4096 O 408.81 1.57043 -1.1475 0
M  V30 4097 C 409.093 -1.09245 -3.43129 0
M  V30 4098 C 408.946 -2.61801 -3.6576 0
M  V30 4099 C 410.265 -0.649984 -4.35274 0
M  V30 4100 H 407.384 -0.248025 -0.694012 0
M  V30 4101 H 410.026 -1.24314 -1.43688 0
M  V30 4102 H 408.176 -0.612171 -3.83647 0
M  V30 4103 H 409.848 -3.17543 -3.34611 0
M  V30 4104 H 408.091 -3.03609 -3.09845 0
M  V30 4105 H 408.762 -2.85804 -4.7225 0
M  V30 4106 H 411.238 -1.0626 -4.02303 0
M  V30 4107 H 410.114 -0.967743 -5.40302 0
M  V30 4108 H 410.375 0.449139 -4.39813 0
M  V30 4109 N 409.434 1.37368 -0.772513 0
M  V30 4110 C 410.662 2.03942 -0.348588 0
M  V30 4111 C 411.077 1.58264 1.02947 0
M  V30 4112 O 410.434 0.764246 1.65727 0
M  V30 4113 C 410.485 3.5946 -0.38351 0
M  V30 4114 O 410.206 4.03468 -1.70721 0
M  V30 4115 C 411.707 4.4327 0.0519152 0
M  V30 4116 H 408.927 0.654931 -0.145966 0
M  V30 4117 H 411.471 1.75686 -1.04665 0
M  V30 4118 H 409.626 3.86486 0.265978 0
M  V30 4119 H 410.04 4.97991 -1.64636 0
M  V30 4120 H 411.514 5.51995 -0.0236733 0
M  V30 4121 H 411.991 4.2514 1.10238 0
M  V30 4122 H 412.597 4.21471 -0.569415 0
M  V30 4123 N 410.912 0.523116 1.48665 0
M  V30 4124 C 411.822 -0.247406 2.33292 0
M  V30 4125 C 412.838 -0.945769 1.46052 0
M  V30 4126 O 414.014 -0.922253 1.79043 0
M  V30 4127 C 411.079 -1.28487 3.22012 0
M  V30 4128 C 410.14 -0.597592 4.2512 0
M  V30 4129 C 409.373 -1.58563 5.09601 0
M  V30 4130 O 409.596 -2.81763 4.95949 0
M  V30 4131 O 408.53 -1.12879 5.91221 0
M  V30 4132 H 412.356 0.445869 3.00409 0
M  V30 4133 H 409.941 0.284128 1.46673 0
M  V30 4134 H 411.823 -1.88459 3.7691 0
M  V30 4135 H 410.498 -1.96068 2.57564 0
M  V30 4136 H 409.405 0.0424407 3.74076 0
M  V30 4137 H 410.738 0.0361517 4.92187 0
M  V30 4138 N 412.39 -1.55475 0.257931 0
M  V30 4139 C 413.615 -2.04064 -0.370488 0
M  V30 4140 C 414.04 -1.13565 -1.49948 0
M  V30 4141 O 413.398 -0.130781 -1.80828 0
M  V30 4142 C 413.446 -3.50554 -0.845237 0
M  V30 4143 O 412.55 -3.63173 -1.95394 0
M  V30 4144 H 411.891 -0.659257 -0.0792243 0
M  V30 4145 H 414.421 -2.00903 0.387212 0
M  V30 4146 H 414.431 -3.91588 -1.14555 0
M  V30 4147 H 413.106 -4.15896 -0.0191259 0
M  V30 4148 H 411.683 -3.34039 -1.65748 0
M  V30 4149 N 413.868 0.0150385 -1.57593 0
M  V30 4150 C 415.114 0.69849 -1.91031 0
M  V30 4151 C 415.469 1.72208 -0.85804 0
M  V30 4152 O 414.762 1.91147 0.131614 0
M  V30 4153 C 414.956 1.39686 -3.28972 0
M  V30 4154 C 414.785 0.442428 -4.47518 0
M  V30 4155 C 413.555 0.0583223 -5.05266 0
M  V30 4156 C 415.753 -0.285072 -5.13509 0
M  V30 4157 N 413.735 -0.895893 -6.07328 0
M  V30 4158 C 415.106 -1.09447 -6.10263 0
M  V30 4159 C 417.161 -0.350518 -4.96665 0
M  V30 4160 C 415.864 -1.96333 -6.91987 0
M  V30 4161 C 417.89 -1.20655 -5.78962 0
M  V30 4162 C 417.252 -2.00383 -6.75297 0
M  V30 4163 H 413.351 0.22926 -0.747639 0
M  V30 4164 H 415.935 -0.0417748 -1.94655 0
M  V30 4165 H 414.106 2.1075 -3.2625 0
M  V30 4166 H 415.838 2.03381 -3.49883 0
M  V30 4167 H 412.593 0.423506 -4.71703 0
M  V30 4168 H 413.017 -1.36792 -6.63036 0
M  V30 4169 H 417.659 0.251596 -4.22051 0
M  V30 4170 H 415.377 -2.57618 -7.65936 0
M  V30 4171 H 418.963 -1.2609 -5.67972 0
M  V30 4172 H 417.843 -2.65552 -7.3787 0
M  V30 4173 N 415.346 1.54954 0.287554 0
M  V30 4174 C 416.762 1.46469 0.633964 0
M  V30 4175 C 416.962 0.666865 1.90145 0
M  V30 4176 O 416.018 0.179906 2.51858 0
M  V30 4177 C 417.331 2.90556 0.774454 0
M  V30 4178 C 418.879 3.00681 0.869462 0
M  V30 4179 C 419.354 4.45993 1.04184 0
M  V30 4180 N 420.845 4.4976 1.10772 0
M  V30 4181 C 421.58 5.59393 1.25964 0
M  V30 4182 N 421.076 6.78923 1.37968 0
M  V30 4183 N 422.869 5.47107 1.28959 0
M  V30 4184 H 415.02 2.05288 -0.545041 0
M  V30 4185 H 417.283 0.930305 -0.182308 0
M  V30 4186 H 416.989 3.51594 -0.086207 0
M  V30 4187 H 416.863 3.38743 1.6593 0
M  V30 4188 H 419.25 2.39749 1.7206 0
M  V30 4189 H 419.331 2.55769 -0.0396831 0
M  V30 4190 H 418.975 5.07524 0.195422 0
M  V30 4191 H 418.905 4.88548 1.96542 0
M  V30 4192 H 421.396 3.63651 1.02794 0
M  V30 4193 H 421.709 7.58231 1.49353 0
M  V30 4194 H 420.054 6.81763 1.34999 0
M  V30 4195 H 423.245 4.52668 1.19202 0
M  V30 4196 H 423.418 6.32595 1.40455 0
M  V30 4197 N 416.824 -0.551391 1.4764 0
M  V30 4198 C 417.754 -1.66757 1.63445 0
M  V30 4199 C 418.735 -1.63077 0.483742 0
M  V30 4200 O 419.92 -1.80607 0.71377 0
M  V30 4201 C 417.05 -3.05387 1.65396 0
M  V30 4202 C 416.004 -3.23918 2.79752 0
M  V30 4203 C 415.33 -4.63393 2.66779 0
M  V30 4204 C 416.63 -3.08735 4.21284 0
M  V30 4205 H 418.324 -1.53786 2.56886 0
M  V30 4206 H 415.87 -0.738415 1.23626 0
M  V30 4207 H 417.823 -3.83325 1.75043 0
M  V30 4208 H 416.547 -3.19332 0.685195 0
M  V30 4209 H 415.206 -2.48391 2.69625 0
M  V30 4210 H 414.854 -4.74144 1.67918 0
M  V30 4211 H 414.554 -4.7674 3.43501 0
M  V30 4212 H 416.078 -5.43458 2.78364 0
M  V30 4213 H 417.492 -3.76484 4.32357 0
M  V30 4214 H 415.889 -3.33588 4.98838 0
M  V30 4215 H 416.959 -2.0541 4.39243 0
M  V30 4216 N 418.302 -1.35869 -0.798587 0
M  V30 4217 C 419.527 -1.32883 -1.59238 0
M  V30 4218 C 419.952 0.0894587 -1.87887 0
M  V30 4219 O 419.31 1.05869 -1.47178 0
M  V30 4220 C 419.358 -2.14892 -2.89575 0
M  V30 4221 O 418.462 -1.53512 -3.82763 0
M  V30 4222 H 417.803 -0.455236 -0.48338 0
M  V30 4223 H 420.333 -1.79024 -0.990539 0
M  V30 4224 H 420.343 -2.27139 -3.38928 0
M  V30 4225 H 419.018 -3.17998 -2.68049 0
M  V30 4226 H 417.595 -1.50153 -3.41334 0
M  V30 4227 N 419.78 1.02168 -1.19998 0
M  V30 4228 C 420.71 2.12488 -0.96804 0
M  V30 4229 C 421.691 1.69799 0.101185 0
M  V30 4230 O 422.876 1.94121 -0.0552993 0
M  V30 4231 C 420.006 3.43479 -0.513776 0
M  V30 4232 C 418.96 3.99884 -1.52566 0
M  V30 4233 C 418.286 5.26582 -0.928214 0
M  V30 4234 C 419.586 4.33861 -2.90795 0
M  V30 4235 H 421.28 2.32149 -1.89069 0
M  V30 4236 H 418.826 1.11564 -0.910468 0
M  V30 4237 H 420.779 4.20036 -0.338774 0
M  V30 4238 H 419.503 3.23561 0.444493 0
M  V30 4239 H 418.162 3.25429 -1.68794 0
M  V30 4240 H 417.81 5.02986 0.0378289 0
M  V30 4241 H 417.51 5.65284 -1.60397 0
M  V30 4242 H 419.034 6.05799 -0.764167 0
M  V30 4243 H 420.448 5.01327 -2.78109 0
M  V30 4244 H 418.845 4.83664 -3.55231 0
M  V30 4245 H 419.915 3.42848 -3.42904 0
M  V30 4246 N 421.258 1.00505 1.21394 0
M  V30 4247 C 422.674 0.717873 1.42544 0
M  V30 4248 C 422.874 -0.706936 1.88692 0
M  V30 4249 O 421.93 -1.47627 2.04847 0
M  V30 4250 C 423.243 1.73377 2.45684 0
M  V30 4251 C 424.791 1.75059 2.59467 0
M  V30 4252 C 425.266 2.75545 3.6584 0
M  V30 4253 N 426.757 2.74213 3.73311 0
M  V30 4254 C 427.492 3.48626 4.55245 0
M  V30 4255 N 426.988 4.32678 5.41075 0
M  V30 4256 N 428.781 3.37276 4.49668 0
M  V30 4257 H 420.932 1.92506 0.897503 0
M  V30 4258 H 423.195 0.830919 0.456375 0
M  V30 4259 H 422.901 2.75395 2.18748 0
M  V30 4260 H 422.775 1.53647 3.44489 0
M  V30 4261 H 425.162 0.737337 2.8574 0
M  V30 4262 H 425.243 1.98861 1.60897 0
M  V30 4263 H 424.887 3.77028 3.40313 0
M  V30 4264 H 424.817 2.49009 4.64007 0
M  V30 4265 H 427.308 2.13234 3.11993 0
M  V30 4266 H 427.621 4.86253 6.00648 0
M  V30 4267 H 425.966 4.3676 5.40616 0
M  V30 4268 H 429.157 2.71043 3.81646 0
M  V30 4269 H 429.33 3.95524 5.13288 0
M  V30 4270 N 422.737 -1.36956 0.779787 0
M  V30 4271 C 423.669 -2.28833 0.129639 0
M  V30 4272 C 424.682 -1.4902 -0.655511 0
M  V30 4273 O 425.871 -1.71578 -0.492279 0
M  V30 4274 C 422.971 -3.2833 -0.839792 0
M  V30 4275 C 422.144 -4.3727 -0.10675 0
M  V30 4276 C 421.203 -5.16789 -0.990717 0
M  V30 4277 O 420.229 -5.67406 -0.451516 0
M  V30 4278 N 421.431 -5.32294 -2.3161 0
M  V30 4279 H 424.196 -2.85268 0.918803 0
M  V30 4280 H 421.757 -1.49019 0.632841 0
M  V30 4281 H 423.749 -3.78413 -1.43477 0
M  V30 4282 H 422.319 -2.72605 -1.52988 0
M  V30 4283 H 421.539 -3.88478 0.669216 0
M  V30 4284 H 422.827 -5.07229 0.399464 0
M  V30 4285 H 422.225 -4.92768 -2.77843 0
M  V30 4286 H 420.782 -5.85656 -2.86095 0
M  V30 4287 N 424.215 -0.530993 -1.48385 0
M  V30 4288 C 425.162 0.231223 -2.29639 0
M  V30 4289 C 426.132 0.932864 -1.37429 0
M  V30 4290 O 427.317 0.933692 -1.66394 0
M  V30 4291 C 424.457 1.27155 -3.2082 0
M  V30 4292 C 423.57 0.578655 -4.28107 0
M  V30 4293 C 422.705 1.602 -5.06467 0
M  V30 4294 C 421.744 0.892625 -6.05556 0
M  V30 4295 N 420.881 1.86157 -6.76971 0
M  V30 4296 H 425.721 -0.467848 -2.94305 0
M  V30 4297 H 423.258 -0.242556 -1.45086 0
M  V30 4298 H 425.216 1.88703 -3.72085 0
M  V30 4299 H 423.846 1.939 -2.58075 0
M  V30 4300 H 422.898 -0.150782 -3.80101 0
M  V30 4301 H 424.21 0.0217065 -4.98795 0
M  V30 4302 H 423.364 2.29173 -5.61751 0
M  V30 4303 H 422.103 2.19285 -4.35621 0
M  V30 4304 H 421.108 0.188829 -5.49476 0
M  V30 4305 H 422.333 0.307878 -6.78402 0
M  V30 4306 H 420.279 2.44147 -6.08875 0
M  V30 4307 H 420.196 1.35608 -7.43738 0
M  V30 4308 H 421.464 2.54325 -7.36844 0
M  V30 4309 N 425.693 1.55336 -0.266172 0
M  V30 4310 C 426.939 1.99692 0.353681 0
M  V30 4311 C 427.272 1.1543 1.56172 0
M  V30 4312 O 426.547 0.222218 1.93226 0
M  V30 4313 C 426.83 3.52316 0.74466 0
M  V30 4314 C 426.683 4.47337 -0.470101 0
M  V30 4315 C 428.002 4.10588 1.58447 0
M  V30 4316 H 425.121 0.725961 0.12708 0
M  V30 4317 H 427.763 1.86336 -0.371333 0
M  V30 4318 H 425.913 3.63829 1.36239 0
M  V30 4319 H 427.585 4.4778 -1.10864 0
M  V30 4320 H 425.828 4.19364 -1.10978 0
M  V30 4321 H 426.499 5.51788 -0.15291 0
M  V30 4322 H 428.975 4.02297 1.06286 0
M  V30 4323 H 427.851 5.17607 1.82686 0
M  V30 4324 H 428.112 3.60253 2.56262 0
M  V30 4325 N 427.171 -0.0066808 1.57599 0
M  V30 4326 C 428.587 -0.36267 1.55425 0
M  V30 4327 C 428.787 -1.75209 0.995187 0
M  V30 4328 O 427.843 -2.44616 0.626058 0
M  V30 4329 C 429.156 -0.244017 2.99708 0
M  V30 4330 C 430.704 -0.319451 3.11366 0
M  V30 4331 C 431.179 -0.229998 4.57422 0
M  V30 4332 N 432.67 -0.288105 4.62303 0
M  V30 4333 C 433.405 -0.242127 5.72889 0
M  V30 4334 N 432.901 -0.147133 6.92644 0
M  V30 4335 N 434.694 -0.293502 5.61333 0
M  V30 4336 H 426.845 0.902314 1.92281 0
M  V30 4337 H 429.108 0.34525 0.882896 0
M  V30 4338 H 428.814 0.711678 3.44424 0
M  V30 4339 H 428.688 -1.02877 3.629 0
M  V30 4340 H 431.075 -1.26559 2.66584 0
M  V30 4341 H 431.156 0.495055 2.50964 0
M  V30 4342 H 430.8 0.712566 5.02877 0
M  V30 4343 H 430.73 -1.0629 5.15761 0
M  V30 4344 H 433.221 -0.363126 3.76151 0
M  V30 4345 H 433.534 -0.117763 7.7271 0
M  V30 4346 H 431.879 -0.112857 6.94908 0
M  V30 4347 H 435.07 -0.365864 4.66668 0
M  V30 4348 H 435.243 -0.254204 6.47501 0
M  V30 4349 N 428.649 -1.55105 -0.279332 0
M  V30 4350 C 429.926 -1.66119 -1.03267 0
M  V30 4351 C 430.306 -0.523525 -2.04505 0
M  V30 4352 O 429.654 0.477194 -2.23462 0
M  V30 4353 C 429.864 -3.05067 -1.69515 0
M  V30 4354 C 431.212 -3.62606 -2.20912 0
M  V30 4355 O 432.236 -3.07659 -1.79512 0
M  V30 4356 O 431.095 -4.58861 -2.96831 0
M  V30 4357 H 428.189 -0.674429 -0.478618 0
M  V30 4358 H 430.735 -1.67446 -0.275694 0
M  V30 4359 H 429.507 -3.79311 -0.9612 0
M  V30 4360 H 429.13 -3.07611 -2.51915 0
M  V30 4361 N 430.127 0.543554 -1.4793 0
M  V30 4362 C 431.375 1.29752 -1.54948 0
M  V30 4363 C 431.696 1.93764 -0.219242 0
M  V30 4364 O 430.966 1.80639 0.75805 0
M  V30 4365 H 429.546 0.481874 -0.570795 0
M  V30 4366 H 432.208 0.633636 -1.84312 0
M  V30 4367 H 431.304 2.08392 -2.32334 0
M  V30 4368 N 431.605 1.3629 0.791371 0
M  V30 4369 C 432.851 1.30605 1.55146 0
M  V30 4370 C 433.184 -0.115042 1.93859 0
M  V30 4371 O 432.459 -1.06798 1.62556 0
M  V30 4372 C 432.742 2.22692 2.82985 0
M  V30 4373 C 432.595 3.73489 2.50651 0
M  V30 4374 C 433.914 2.13588 3.84796 0
M  V30 4375 H 431.033 0.475761 0.562868 0
M  V30 4376 H 433.675 1.66825 0.909358 0
M  V30 4377 H 431.825 1.91933 3.37778 0
M  V30 4378 H 433.497 4.14758 2.01924 0
M  V30 4379 H 431.74 3.93021 1.83622 0
M  V30 4380 H 432.411 4.3333 3.41949 0
M  V30 4381 H 434.887 2.40659 3.39445 0
M  V30 4382 H 433.763 2.80195 4.71998 0
M  V30 4383 H 434.024 1.12256 4.27611 0
M  V30 4384 N 433.083 -1.0153 1.20538 0
M  V30 4385 C 434.046 -2.0826 0.957098 0
M  V30 4386 C 435.046 -1.60657 -0.0678655 0
M  V30 4387 O 436.236 -1.73385 0.168332 0
M  V30 4388 C 433.368 -3.38033 0.441188 0
M  V30 4389 H 434.561 -2.31719 1.90384 0
M  V30 4390 H 432.114 -1.1835 1.02093 0
M  V30 4391 H 432.849 -3.20249 -0.510961 0
M  V30 4392 H 432.634 -3.73911 1.18038 0
M  V30 4393 H 434.124 -4.16613 0.287009 0
M  V30 4394 N 434.561 -1.01147 -1.20859 0
M  V30 4395 C 435.81 -0.693214 -1.89413 0
M  V30 4396 C 436.123 0.779969 -1.79376 0
M  V30 4397 O 437.329 1.21057 -2.43017 0
M  V30 4398 C 435.785 -1.18949 -3.39675 0
M  V30 4399 C 435.393 -2.68921 -3.58309 0
M  V30 4400 C 437.137 -0.94642 -4.13815 0
M  V30 4401 C 435.044 -3.12056 -5.0237 0
M  V30 4402 H 433.974 -0.255595 -0.709357 0
M  V30 4403 H 436.625 -1.22349 -1.36759 0
M  V30 4404 H 435.007 -0.587228 -3.91622 0
M  V30 4405 H 436.181 -3.34652 -3.16772 0
M  V30 4406 H 434.496 -2.91314 -2.97532 0
M  V30 4407 H 437.093 -1.24417 -5.20023 0
M  V30 4408 H 437.436 0.117219 -4.16135 0
M  V30 4409 H 437.969 -1.5118 -3.67953 0
M  V30 4410 H 434.708 -4.17674 -5.05202 0
M  V30 4411 H 434.228 -2.51041 -5.44737 0
M  V30 4412 H 435.907 -3.04403 -5.70918 0
M  V30 4413 N 436.039 1.36541 -0.78704 0
M  V30 4414 C 436.969 2.32659 -0.197992 0
M  V30 4415 C 437.95 1.56533 0.665697 0
M  V30 4416 O 439.135 1.84698 0.60001 0
M  V30 4417 C 436.265 3.40778 0.669901 0
M  V30 4418 C 435.219 4.27897 -0.0937039 0
M  V30 4419 C 434.545 5.27163 0.894629 0
M  V30 4420 C 435.845 5.06334 -1.28154 0
M  V30 4421 H 437.539 2.82171 -1.00099 0
M  V30 4422 H 435.085 1.35665 -0.482793 0
M  V30 4423 H 437.038 4.07008 1.09191 0
M  V30 4424 H 435.762 2.89827 1.50558 0
M  V30 4425 H 434.421 3.6322 -0.49666 0
M  V30 4426 H 434.069 4.72486 1.72527 0
M  V30 4427 H 433.769 5.86317 0.388149 0
M  V30 4428 H 435.293 5.96266 1.31525 0
M  V30 4429 H 436.707 5.65617 -0.93541 0
M  V30 4430 H 435.104 5.74888 -1.72115 0
M  V30 4431 H 436.174 4.38114 -2.07807 0
M  V30 4432 N 437.518 0.538854 1.48102 0
M  V30 4433 C 438.481 -0.208395 2.28251 0
M  V30 4434 C 439.481 -0.859656 1.35892 0
M  V30 4435 O 440.671 -0.71834 1.58699 0
M  V30 4436 C 437.803 -1.30252 3.15035 0
M  V30 4437 H 438.996 0.495407 2.9578 0
M  V30 4438 H 436.549 0.295112 1.53489 0
M  V30 4439 H 437.284 -2.0393 2.52157 0
M  V30 4440 H 437.069 -0.840551 3.82985 0
M  V30 4441 H 438.559 -1.82787 3.75471 0
M  V30 4442 N 438.996 -1.55193 0.274407 0
M  V30 4443 C 439.926 -2.25471 -0.607032 0
M  V30 4444 C 440.907 -1.24461 -1.15946 0
M  V30 4445 O 442.092 -1.53179 -1.19373 0
M  V30 4446 C 439.222 -2.97526 -1.79153 0
M  V30 4447 C 438.176 -4.05459 -1.37067 0
M  V30 4448 C 437.502 -4.65084 -2.6382 0
M  V30 4449 C 438.802 -5.19691 -0.521389 0
M  V30 4450 H 440.496 -2.99393 -0.0209343 0
M  V30 4451 H 438.042 -1.43997 -0.00862866 0
M  V30 4452 H 439.995 -3.45402 -2.41404 0
M  V30 4453 H 438.719 -2.21138 -2.40344 0
M  V30 4454 H 437.378 -3.58393 -0.771355 0
M  V30 4455 H 437.026 -3.85365 -3.23268 0
M  V30 4456 H 436.726 -5.37961 -2.36372 0
M  V30 4457 H 438.25 -5.15708 -3.26921 0
M  V30 4458 H 439.664 -5.63623 -1.04889 0
M  V30 4459 H 438.061 -5.99126 -0.341825 0
M  V30 4460 H 439.131 -4.82713 0.46 0
M  V30 4461 N 440.474 -0.00167713 -1.576 0
M  V30 4462 C 441.722 0.681471 -1.90264 0
M  V30 4463 C 442.043 1.7422 -0.875924 0
M  V30 4464 O 441.313 1.95709 0.0864412 0
M  V30 4465 H 439.893 0.254696 -0.702239 0
M  V30 4466 H 442.555 -0.0429996 -1.94853 0
M  V30 4467 H 441.651 1.15166 -2.90075 0
M  V30 4468 N 441.952 1.55251 0.271103 0
M  V30 4469 C 442.915 1.87484 1.31842 0
M  V30 4470 C 443.915 0.749545 1.42262 0
M  V30 4471 O 445.105 1.01771 1.4138 0
M  V30 4472 C 442.237 2.0818 2.69951 0
M  V30 4473 H 443.43 2.81108 1.0449 0
M  V30 4474 H 440.983 1.47771 0.509258 0
M  V30 4475 H 441.718 1.16944 3.02481 0
M  V30 4476 H 441.503 2.90114 2.63774 0
M  V30 4477 H 442.993 2.34385 3.4562 0
M  V30 4478 N 443.43 -0.535701 1.48216 0
M  V30 4479 C 444.38 -1.63688 1.58714 0
M  V30 4480 C 445.364 -1.54635 0.444615 0
M  V30 4481 O 446.556 -1.62753 0.695742 0
M  V30 4482 C 443.685 -3.02423 1.62466 0
M  V30 4483 C 442.771 -3.16601 2.82178 0
M  V30 4484 N 443.162 -3.00771 4.06658 0
M  V30 4485 C 441.46 -3.47645 2.79391 0
M  V30 4486 C 442.161 -3.18213 4.86945 0
M  V30 4487 N 441.137 -3.45528 4.19656 0
M  V30 4488 H 444.939 -1.5005 2.5271 0
M  V30 4489 H 442.453 -0.741018 1.44508 0
M  V30 4490 H 444.45 -3.81517 1.6808 0
M  V30 4491 H 443.11 -3.17157 0.695826 0
M  V30 4492 H 444.121 -2.77652 4.37184 0
M  V30 4493 H 440.798 -3.68771 1.95739 0
M  V30 4494 H 442.188 -3.1076 5.95716 0
M  V30 4495 N 444.908 -1.36708 -0.784132 0
M  V30 4496 C 446.133 -1.34565 -1.5782 0
M  V30 4497 C 446.558 0.0695257 -1.87971 0
M  V30 4498 O 445.916 1.04302 -1.48293 0
M  V30 4499 C 445.964 -2.17952 -2.87279 0
M  V30 4500 O 445.068 -1.57563 -3.81114 0
M  V30 4501 H 444.409 -0.460337 -0.478524 0
M  V30 4502 H 446.939 -1.80064 -0.971495 0
M  V30 4503 H 446.949 -2.30721 -3.365 0
M  V30 4504 H 445.624 -3.20823 -2.64661 0
M  V30 4505 H 444.201 -1.53764 -3.39722 0
M  V30 4506 N 446.386 1.0089 -1.21074 0
M  V30 4507 C 447.616 1.77933 -1.04993 0
M  V30 4508 C 448.024 1.84847 0.403495 0
M  V30 4509 O 447.367 1.30606 1.29181 0
M  V30 4510 C 447.429 3.23541 -1.56722 0
M  V30 4511 C 447.093 3.40214 -3.05129 0
M  V30 4512 C 448.09 3.2881 -4.02716 0
M  V30 4513 C 445.775 3.65781 -3.44252 0
M  V30 4514 C 447.769 3.42732 -5.37414 0
M  V30 4515 C 445.456 3.79346 -4.79103 0
M  V30 4516 C 446.454 3.67827 -5.75493 0
M  V30 4517 O 446.142 3.80965 -7.07899 0
M  V30 4518 H 445.874 0.566157 -0.369381 0
M  V30 4519 H 448.428 1.27826 -1.60779 0
M  V30 4520 H 446.658 3.74766 -0.953285 0
M  V30 4521 H 448.347 3.82245 -1.36543 0
M  V30 4522 H 449.113 3.08986 -3.73835 0
M  V30 4523 H 444.992 3.73831 -2.69762 0
M  V30 4524 H 448.536 3.33658 -6.12632 0
M  V30 4525 H 444.433 3.98672 -5.07672 0
M  V30 4526 H 445.201 3.97937 -7.15254 0
M  V30 4527 N 447.864 1.01787 1.20321 0
M  V30 4528 C 449.11 0.718699 1.90279 0
M  V30 4529 C 449.465 -0.743669 1.77447 0
M  V30 4530 O 448.758 -1.53345 1.14874 0
M  V30 4531 C 448.952 1.09076 3.40349 0
M  V30 4532 C 448.781 2.58775 3.67784 0
M  V30 4533 C 447.551 3.25578 3.86428 0
M  V30 4534 C 449.749 3.56966 3.70243 0
M  V30 4535 N 447.731 4.64495 4.01395 0
M  V30 4536 C 449.102 4.8145 3.90649 0
M  V30 4537 C 451.157 3.5092 3.53213 0
M  V30 4538 C 449.86 6.00619 3.95789 0
M  V30 4539 C 451.886 4.69493 3.59625 0
M  V30 4540 C 451.248 5.92786 3.80505 0
M  V30 4541 H 447.347 0.31468 0.715891 0
M  V30 4542 H 449.931 1.30295 1.44677 0
M  V30 4543 H 448.102 0.534839 3.847 0
M  V30 4544 H 449.834 0.744997 3.97784 0
M  V30 4545 H 446.589 2.76003 3.84862 0
M  V30 4546 H 447.013 5.36624 4.12752 0
M  V30 4547 H 451.655 2.56593 3.36035 0
M  V30 4548 H 449.373 6.95326 4.11762 0
M  V30 4549 H 452.959 4.66432 3.47754 0
M  V30 4550 H 451.839 6.83003 3.85327 0
M  V30 4551 N 449.342 -1.36122 0.79427 0
M  V30 4552 C 450.758 -1.5232 0.476525 0
M  V30 4553 C 450.958 -1.74685 -1.00436 0
M  V30 4554 O 450.014 -1.78115 -1.78973 0
M  V30 4555 C 451.327 -2.70607 1.31119 0
M  V30 4556 C 452.875 -2.8448 1.30537 0
M  V30 4557 C 453.35 -4.05778 2.12387 0
M  V30 4558 N 454.841 -4.12933 2.09859 0
M  V30 4559 C 455.576 -5.05876 2.69957 0
M  V30 4560 N 455.072 -6.04232 3.38934 0
M  V30 4561 N 456.865 -4.98528 2.59665 0
M  V30 4562 H 449.016 -1.1986 1.75349 0
M  V30 4563 H 451.279 -0.585418 0.745647 0
M  V30 4564 H 450.985 -2.60619 2.36158 0
M  V30 4565 H 450.859 -3.64888 0.955843 0
M  V30 4566 H 453.246 -2.93927 0.262876 0
M  V30 4567 H 453.327 -1.91093 1.70051 0
M  V30 4568 H 452.971 -3.97092 3.1667 0
M  V30 4569 H 452.901 -4.98323 1.70242 0
M  V30 4570 H 455.392 -3.42515 1.59662 0
M  V30 4571 H 455.705 -6.71724 3.82109 0
M  V30 4572 H 454.05 -6.04443 3.43036 0
M  V30 4573 H 457.241 -4.20641 2.05375 0
M  V30 4574 H 457.414 -5.70773 3.06793 0
M  V30 4575 N 450.82 -0.546701 -1.47814 0
M  V30 4576 C 451.752 0.244196 -2.27895 0
M  V30 4577 C 452.765 0.88911 -1.36377 0
M  V30 4578 O 453.954 0.764733 -1.61289 0
M  V30 4579 C 451.054 1.36252 -3.10304 0
M  V30 4580 C 450.227 0.816382 -4.29714 0
M  V30 4581 C 449.286 1.81789 -4.93801 0
M  V30 4582 O 448.312 1.36818 -5.52512 0
M  V30 4583 N 449.514 3.15085 -4.87547 0
M  V30 4584 H 452.279 -0.442694 -2.96412 0
M  V30 4585 H 449.84 -0.382095 -1.57327 0
M  V30 4586 H 451.832 2.03102 -3.50045 0
M  V30 4587 H 450.402 1.95281 -2.44099 0
M  V30 4588 H 449.622 -0.0285981 -3.9419 0
M  V30 4589 H 450.91 0.430668 -5.06974 0
M  V30 4590 H 450.308 3.54275 -4.41028 0
M  V30 4591 H 448.865 3.77522 -5.31339 0
M  V30 4592 N 452.299 1.55045 -0.282633 0
M  V30 4593 C 453.249 2.19514 0.616249 0
M  V30 4594 C 454.233 1.16216 1.11277 0
M  V30 4595 O 455.425 1.42004 1.05659 0
M  V30 4596 C 452.554 2.92548 1.7964 0
M  V30 4597 C 451.64 4.03142 1.31671 0
M  V30 4598 N 452.031 5.0276 0.553695 0
M  V30 4599 C 450.329 4.1635 1.59903 0
M  V30 4600 C 451.03 5.80923 0.30054 0
M  V30 4601 N 450.006 5.3651 0.875116 0
M  V30 4602 H 453.808 2.93889 0.0255363 0
M  V30 4603 H 451.322 1.62169 -0.0865362 0
M  V30 4604 H 453.319 3.37188 2.45173 0
M  V30 4605 H 451.979 2.19685 2.39099 0
M  V30 4606 H 452.99 5.17512 0.20032 0
M  V30 4607 H 449.667 3.54682 2.20243 0
M  V30 4608 H 451.057 6.7118 -0.311053 0
M  V30 4609 N 453.777 0.010035 1.57597 0
M  V30 4610 C 455.025 -0.671371 1.90623 0
M  V30 4611 C 455.346 -1.73753 0.885151 0
M  V30 4612 O 454.616 -1.95752 -0.0760611 0
M  V30 4613 H 453.196 -0.250968 0.703579 0
M  V30 4614 H 455.858 0.0533325 1.94827 0
M  V30 4615 H 454.954 -1.13626 2.90681 0
M  V30 4616 N 455.255 -1.55392 -0.262866 0
M  V30 4617 C 456.483 -1.80513 -1.01108 0
M  V30 4618 C 456.898 -0.583533 -1.79556 0
M  V30 4619 O 456.255 0.447585 -1.76926 0
M  V30 4620 C 456.306 -3.03648 -1.96164 0
M  V30 4621 O 456.027 -4.2109 -1.20893 0
M  V30 4622 C 457.528 -3.41448 -2.82715 0
M  V30 4623 H 454.748 -0.601079 -0.298236 0
M  V30 4624 H 457.292 -2.02425 -0.290582 0
M  V30 4625 H 455.447 -2.83832 -2.63663 0
M  V30 4626 H 455.861 -4.90771 -1.85051 0
M  V30 4627 H 457.335 -4.30751 -3.45192 0
M  V30 4628 H 457.812 -2.61308 -3.53008 0
M  V30 4629 H 458.418 -3.63559 -2.20693 0
M  V30 4630 N 456.733 0.527833 -1.48498 0
M  V30 4631 C 457.663 1.64136 -1.66077 0
M  V30 4632 C 458.644 1.62286 -0.509625 0
M  V30 4633 O 459.829 1.79449 -0.742413 0
M  V30 4634 C 456.959 3.02717 -1.70234 0
M  V30 4635 C 455.913 3.19426 -2.8487 0
M  V30 4636 C 455.239 4.5909 -2.74118 0
M  V30 4637 C 456.539 3.01993 -4.26142 0
M  V30 4638 H 458.233 1.4968 -2.593 0
M  V30 4639 H 455.779 0.718654 -1.24785 0
M  V30 4640 H 457.732 3.80491 -1.8112 0
M  V30 4641 H 456.456 3.18201 -0.735911 0
M  V30 4642 H 455.115 2.4407 -2.73542 0
M  V30 4643 H 454.763 4.71413 -1.7544 0
M  V30 4644 H 454.463 4.71214 -3.51042 0
M  V30 4645 H 455.987 5.3896 -2.86974 0
M  V30 4646 H 457.401 3.69558 -4.38292 0
M  V30 4647 H 455.798 3.2561 -5.04082 0
M  V30 4648 H 456.868 1.98396 -4.42456 0
M  V30 4649 N 458.211 1.37122 0.776871 0
M  V30 4650 C 459.622 1.28667 1.35284 0
M  V30 4651 C 459.973 -0.0680035 1.96082 0
M  V30 4652 O 459.098 -0.969743 1.93455 0
M  V30 4653 C 459.693 2.32997 2.45963 0
M  V30 4654 C 458.252 2.28191 2.99342 0
M  V30 4655 C 457.399 2.17101 1.72517 0
M  V30 4656 H 460.35 1.47819 0.577527 0
M  V30 4657 H 460.371 1.97366 3.2531 0
M  V30 4658 H 459.883 3.3158 2.01684 0
M  V30 4659 H 457.984 1.33115 3.4801 0
M  V30 4660 H 458.097 3.21397 3.55304 0
M  V30 4661 H 456.461 1.63562 1.95242 0
M  V30 4662 H 457.244 3.17591 1.30348 0
M  V30 4663 N 459.689 -1.00246 1.21608 0
M  V30 4664 C 460.652 -2.07233 0.979133 0
M  V30 4665 C 461.652 -1.6072 -0.0508219 0
M  V30 4666 O 462.842 -1.73196 0.186712 0
M  V30 4667 C 459.974 -3.37546 0.477016 0
M  V30 4668 H 461.167 -2.29687 1.92831 0
M  V30 4669 H 458.72 -1.17261 1.03342 0
M  V30 4670 H 459.455 -3.20773 -0.476966 0
M  V30 4671 H 459.24 -3.72638 1.21997 0
M  V30 4672 H 460.73 -4.16285 0.331181 0
M  V30 4673 N 461.167 -1.02423 -1.1978 0
M  V30 4674 C 462.578 -0.748389 -1.71044 0
M  V30 4675 C 462.929 0.732398 -1.82017 0
M  V30 4676 O 462.054 1.57116 -1.48807 0
M  V30 4677 C 462.649 -1.35187 -3.1066 0
M  V30 4678 C 461.208 -1.12472 -3.59203 0
M  V30 4679 C 460.355 -1.45283 -2.36195 0
M  V30 4680 H 463.306 -1.19275 -1.04686 0
M  V30 4681 H 463.327 -0.746408 -3.73107 0
M  V30 4682 H 462.839 -2.4296 -3.02642 0
M  V30 4683 H 460.94 -0.0649983 -3.72543 0
M  V30 4684 H 461.053 -1.81016 -4.43588 0
M  V30 4685 H 459.417 -0.872034 -2.39307 0
M  V30 4686 H 460.2 -2.54129 -2.30811 0
M  V30 4687 N 462.645 1.35699 -0.801477 0
M  V30 4688 C 463.608 2.28199 -0.213994 0
M  V30 4689 C 464.608 1.49359 0.595691 0
M  V30 4690 O 465.798 1.69186 0.414921 0
M  V30 4691 C 462.93 3.33587 0.702297 0
M  V30 4692 H 464.123 2.81666 -1.02976 0
M  V30 4693 H 461.676 1.45467 -0.571759 0
M  V30 4694 H 462.411 2.85297 1.54195 0
M  V30 4695 H 462.196 3.91906 0.123484 0
M  V30 4696 H 463.686 4.02638 1.10783 0
M  V30 4697 N 464.123 0.554532 1.47522 0
M  V30 4698 C 465.371 0.0294208 2.02079 0
M  V30 4699 C 465.692 -1.32411 1.43151 0
M  V30 4700 O 464.962 -1.863 0.605728 0
M  V30 4701 H 463.542 0.00788672 0.746958 0
M  V30 4702 H 466.204 0.723934 1.80956 0
M  V30 4703 H 465.3 -0.0606745 3.12041 0
M  V30 4704 N 465.601 -1.54893 0.290851 0
M  V30 4705 C 466.878 -1.91991 -0.373989 0
M  V30 4706 C 467.258 -1.21694 -1.72493 0
M  V30 4707 O 466.606 -0.34917 -2.25816 0
M  V30 4708 C 466.816 -3.45419 -0.498703 0
M  V30 4709 C 468.164 -4.1748 -0.774298 0
M  V30 4710 O 469.188 -3.51398 -0.582908 0
M  V30 4711 O 468.047 -5.3445 -1.14129 0
M  V30 4712 H 465.141 -0.800593 -0.207315 0
M  V30 4713 H 467.687 -1.66297 0.338164 0
M  V30 4714 H 466.459 -3.88688 0.451392 0
M  V30 4715 H 466.082 -3.77117 -1.25972 0
M  V30 4716 N 467.08 -0.0183926 -1.57589 0
M  V30 4717 C 468.32 0.666846 -1.93216 0
M  V30 4718 C 468.684 1.69905 -0.894215 0
M  V30 4719 O 469.885 2.436 -1.13633 0
M  V30 4720 C 468.156 1.27684 -3.33814 0
M  V30 4721 S 469.715 1.98464 -3.91353 0
M  V30 4722 H 466.533 0.219826 -0.676164 0
M  V30 4723 H 469.135 -0.0794893 -1.95338 0
M  V30 4724 H 467.839 0.513006 -4.07181 0
M  V30 4725 H 467.37 2.06071 -3.3511 0
M  V30 4726 H 469.385 3.26189 -3.73918 0
M  V30 4727 N 468.558 1.5553 0.254621 0
M  V30 4728 C 469.974 1.4778 0.602753 0
M  V30 4729 C 470.174 0.707047 1.88688 0
M  V30 4730 O 469.23 0.233288 2.5142 0
M  V30 4731 C 470.543 2.92133 0.712648 0
M  V30 4732 C 472.091 3.02458 0.805488 0
M  V30 4733 C 472.566 4.48102 0.947009 0
M  V30 4734 N 474.057 4.52008 1.01207 0
M  V30 4735 C 474.792 5.61939 1.1407 0
M  V30 4736 N 474.288 6.81697 1.23536 0
M  V30 4737 N 476.081 5.49719 1.17325 0
M  V30 4738 H 468.232 2.04085 -0.588463 0
M  V30 4739 H 470.495 0.926229 -0.202001 0
M  V30 4740 H 470.201 3.51332 -0.160766 0
M  V30 4741 H 470.075 3.42187 1.58707 0
M  V30 4742 H 472.462 2.43344 1.66936 0
M  V30 4743 H 472.543 2.55627 -0.0939266 0
M  V30 4744 H 472.187 5.07824 0.087725 0
M  V30 4745 H 472.117 4.92607 1.86135 0
M  V30 4746 H 474.608 3.65749 0.950577 0
M  V30 4747 H 474.921 7.61228 1.33236 0
M  V30 4748 H 473.266 6.84473 1.20508 0
M  V30 4749 H 476.457 4.55095 1.09573 0
M  V30 4750 H 476.63 6.35432 1.27005 0
M  V30 4751 N 470.036 -0.519951 1.48776 0
M  V30 4752 C 471.282 -1.27711 1.57536 0
M  V30 4753 C 471.615 -1.92547 0.252866 0
M  V30 4754 O 470.89 -1.7979 -0.742021 0
M  V30 4755 C 471.173 -2.35875 2.72094 0
M  V30 4756 C 471.026 -1.75664 4.1408 0
M  V30 4757 C 472.345 -3.37575 2.82367 0
M  V30 4758 H 469.464 -0.462971 0.573434 0
M  V30 4759 H 472.106 -0.578194 1.80989 0
M  V30 4760 H 470.256 -2.95488 2.52228 0
M  V30 4761 H 471.928 -1.20025 4.45412 0
M  V30 4762 H 470.171 -1.06154 4.20611 0
M  V30 4763 H 470.842 -2.54029 4.90075 0
M  V30 4764 H 473.318 -2.87929 3.00393 0
M  V30 4765 H 472.194 -4.1064 3.64233 0
M  V30 4766 H 472.455 -3.98743 1.90936 0
M  V30 4767 N 471.514 -1.37532 -0.769588 0
M  V30 4768 C 472.464 -1.29984 -1.87318 0
M  V30 4769 C 473.448 -0.187242 -1.59807 0
M  V30 4770 O 474.64 -0.421827 -1.719 0
M  V30 4771 C 471.769 -1.11126 -3.24817 0
M  V30 4772 C 470.855 -2.26939 -3.58273 0
M  V30 4773 N 471.246 -3.52336 -3.62895 0
M  V30 4774 C 469.544 -2.19141 -3.8845 0
M  V30 4775 C 470.245 -4.28719 -3.9316 0
M  V30 4776 N 469.221 -3.57884 -4.0917 0
M  V30 4777 H 473.023 -2.24946 -1.89147 0
M  V30 4778 H 470.537 -1.30535 -0.966143 0
M  V30 4779 H 472.534 -1.03803 -4.0377 0
M  V30 4780 H 471.194 -0.17083 -3.2425 0
M  V30 4781 H 472.205 -3.86216 -3.45048 0
M  V30 4782 H 468.882 -1.33167 -3.95693 0
M  V30 4783 H 470.272 -5.37254 -4.03494 0
M  V30 4784 N 472.992 0.995999 -1.22138 0
M  V30 4785 C 474.403 1.54961 -1.04135 0
M  V30 4786 C 474.754 1.92159 0.396147 0
M  V30 4787 O 473.879 1.74435 1.28069 0
M  V30 4788 C 474.474 2.81581 -1.88408 0
M  V30 4789 C 473.033 3.33396 -1.74712 0
M  V30 4790 C 472.18 2.06509 -1.85066 0
M  V30 4791 H 475.131 0.817436 -1.36028 0
M  V30 4792 H 475.152 3.53822 -1.39966 0
M  V30 4793 H 474.664 2.54476 -2.93025 0
M  V30 4794 H 472.765 3.65416 -0.728159 0
M  V30 4795 H 472.878 4.04208 -2.57202 0
M  V30 4796 H 471.242 2.19925 -1.28472 0
M  V30 4797 H 472.025 1.81804 -2.91208 0
M  V30 4798 N 474.47 1.03057 1.19235 0
M  V30 4799 C 475.718 0.726581 1.88587 0
M  V30 4800 C 476.039 -0.747227 1.80115 0
M  V30 4801 O 475.309 -1.53849 1.21274 0
M  V30 4802 H 473.889 0.265768 0.698124 0
M  V30 4803 H 476.551 1.30516 1.44746 0
M  V30 4804 H 475.647 1.0224 2.94879 0
M  V30 4805 N 475.948 -1.35272 0.808662 0
M  V30 4806 C 477.359 -1.81179 0.450688 0
M  V30 4807 C 477.71 -1.67143 -1.02751 0
M  V30 4808 O 476.835 -1.20325 -1.79864 0
M  V30 4809 C 477.43 -3.28943 0.811275 0
M  V30 4810 C 475.989 -3.72985 0.505871 0
M  V30 4811 C 475.136 -2.57229 1.03578 0
M  V30 4812 H 478.087 -1.2322 1.00012 0
M  V30 4813 H 478.108 -3.80342 0.109588 0
M  V30 4814 H 477.62 -3.39127 1.88718 0
M  V30 4815 H 475.721 -3.68349 -0.561209 0
M  V30 4816 H 475.834 -4.67677 1.03995 0
M  V30 4817 H 474.198 -2.50548 0.458005 0
M  V30 4818 H 474.981 -2.7019 2.11784 0
M  V30 4819 N 477.426 -0.562348 -1.47226 0
M  V30 4820 C 478.672 -0.0402761 -2.0276 0
M  V30 4821 C 479.005 1.30823 -1.43523 0
M  V30 4822 O 478.28 1.85249 -0.592705 0
M  V30 4823 C 478.563 0.047311 -3.60069 0
M  V30 4824 C 478.416 -1.32865 -4.29729 0
M  V30 4825 C 479.735 0.758182 -4.3352 0
M  V30 4826 H 476.854 -0.0161105 -0.736824 0
M  V30 4827 H 479.496 -0.725628 -1.75598 0
M  V30 4828 H 477.646 0.630986 -3.83342 0
M  V30 4829 H 479.318 -1.95593 -4.17781 0
M  V30 4830 H 477.561 -1.90195 -3.89882 0
M  V30 4831 H 478.232 -1.22004 -5.38349 0
M  V30 4832 H 480.708 0.262546 -4.15271 0
M  V30 4833 H 479.584 0.78844 -5.43208 0
M  V30 4834 H 479.845 1.81537 -4.03109 0
M  V30 4835 N 478.904 1.54736 -0.299062 0
M  V30 4836 C 480.129 2.04975 0.316254 0
M  V30 4837 C 480.554 1.17501 1.46885 0
M  V30 4838 O 479.912 0.178678 1.80417 0
M  V30 4839 C 479.96 3.52672 0.751997 0
M  V30 4840 O 479.064 3.68226 1.85697 0
M  V30 4841 H 478.405 0.661126 0.0617175 0
M  V30 4842 H 480.935 1.99805 -0.440341 0
M  V30 4843 H 480.945 3.94488 1.04133 0
M  V30 4844 H 479.62 4.158 -0.0911482 0
M  V30 4845 H 478.197 3.38316 1.56834 0
M  V30 4846 N 480.382 0.0267497 1.57577 0
M  V30 4847 C 481.793 -0.512413 1.79531 0
M  V30 4848 C 482.144 -1.72391 0.936791 0
M  V30 4849 O 481.269 -2.15903 0.146543 0
M  V30 4850 C 481.864 -0.936378 3.25603 0
M  V30 4851 C 480.423 -1.42067 3.4856 0
M  V30 4852 C 479.57 -0.384278 2.74624 0
M  V30 4853 H 482.521 0.252797 1.56674 0
M  V30 4854 H 482.542 -1.80088 3.35184 0
M  V30 4855 H 482.054 -0.0544332 3.88062 0
M  V30 4856 H 480.155 -2.32262 2.9135 0
M  V30 4857 H 480.268 -1.42968 4.57271 0
M  V30 4858 H 478.632 -0.851855 2.40032 0
M  V30 4859 H 479.415 0.489159 3.39797 0
M  V30 4860 N 481.861 -1.55662 -0.24637 0
M  V30 4861 C 482.824 -1.89558 -1.28842 0
M  V30 4862 C 483.824 -0.772082 -1.41052 0
M  V30 4863 O 485.014 -1.04007 -1.39743 0
M  V30 4864 C 482.146 -2.12449 -2.66605 0
M  V30 4865 H 483.339 -2.82735 -1.00004 0
M  V30 4866 H 480.892 -1.48562 -0.485684 0
M  V30 4867 H 481.627 -1.21742 -3.00582 0
M  V30 4868 H 481.412 -2.94273 -2.59125 0
M  V30 4869 H 482.902 -2.39854 -3.41847 0
M  V30 4870 N 483.339 0.512053 -1.4905 0
M  V30 4871 C 484.755 0.84224 -1.35567 0
M  V30 4872 C 484.955 1.97878 -0.380319 0
M  V30 4873 O 484.011 2.51769 0.19201 0
M  V30 4874 C 485.324 1.19286 -2.76028 0
M  V30 4875 C 486.872 1.30171 -2.84648 0
M  V30 4876 C 487.347 1.68568 -4.25851 0
M  V30 4877 N 488.838 1.75638 -4.28609 0
M  V30 4878 C 489.573 2.06769 -5.34821 0
M  V30 4879 N 489.069 2.36201 -6.51292 0
M  V30 4880 N 490.862 2.07927 -5.22229 0
M  V30 4881 H 483.013 -0.237574 -2.11067 0
M  V30 4882 H 485.276 -0.0436747 -0.946993 0
M  V30 4883 H 484.982 0.431199 -3.49047 0
M  V30 4884 H 484.856 2.13889 -3.10695 0
M  V30 4885 H 487.243 2.05411 -2.11873 0
M  V30 4886 H 487.324 0.336457 -2.53578 0
M  V30 4887 H 486.968 0.938824 -4.99148 0
M  V30 4888 H 486.898 2.66174 -4.54377 0
M  V30 4889 H 489.389 1.55097 -3.44606 0
M  V30 4890 H 489.702 2.59112 -7.28066 0
M  V30 4891 H 488.047 2.33681 -6.54536 0
M  V30 4892 H 491.238 1.84403 -4.30248 0
M  V30 4893 H 491.411 2.31856 -6.05101 0
M  V30 4894 N 484.817 1.37938 0.762283 0
M  V30 4895 C 485.727 1.36681 1.90671 0
M  V30 4896 C 486.743 0.265078 1.71969 0
M  V30 4897 O 487.919 0.502055 1.95042 0
M  V30 4898 C 484.984 1.18211 3.25925 0
M  V30 4899 C 484.045 2.3811 3.57214 0
M  V30 4900 C 483.278 2.20512 4.86014 0
M  V30 4901 O 483.501 1.19429 5.57757 0
M  V30 4902 O 482.435 3.08911 5.16583 0
M  V30 4903 H 486.261 2.33091 1.94685 0
M  V30 4904 H 483.846 1.18767 0.906356 0
M  V30 4905 H 485.728 1.09937 4.06807 0
M  V30 4906 H 484.403 0.248807 3.22742 0
M  V30 4907 H 483.31 2.51958 2.76529 0
M  V30 4908 H 484.643 3.30041 3.65149 0
M  V30 4909 N 486.295 -0.989507 1.22664 0
M  V30 4910 C 487.258 -2.06183 1.00106 0
M  V30 4911 C 488.258 -1.60765 -0.0337726 0
M  V30 4912 O 489.448 -1.72989 0.205072 0
M  V30 4913 C 486.58 -3.37021 0.51279 0
M  V30 4914 H 487.773 -2.27629 1.95256 0
M  V30 4915 H 485.326 -1.16158 1.0458 0
M  V30 4916 H 486.061 -3.21261 -0.442917 0
M  V30 4917 H 485.846 -3.71323 1.25942 0
M  V30 4918 H 487.336 -4.1591 0.375315 0
M  V30 4919 N 487.773 -1.03688 -1.18687 0
M  V30 4920 C 489.02 -0.73803 -1.88572 0
M  V30 4921 C 489.348 0.733973 -1.8012 0
M  V30 4922 O 488.603 1.55098 -1.19344 0
M  V30 4923 C 488.902 -1.14477 -3.3857 0
M  V30 4924 C 488.568 -2.61641 -3.67226 0
M  V30 4925 C 487.23 -3.01846 -3.74757 0
M  V30 4926 C 489.582 -3.56812 -3.79914 0
M  V30 4927 C 486.91 -4.36118 -3.92451 0
M  V30 4928 C 489.262 -4.90799 -3.99123 0
M  V30 4929 C 487.926 -5.3068 -4.04888 0
M  V30 4930 H 487.196 -0.270064 -0.690034 0
M  V30 4931 H 489.843 -1.3012 -1.40503 0
M  V30 4932 H 488.148 -0.500337 -3.88592 0
M  V30 4933 H 489.845 -0.89095 -3.90977 0
M  V30 4934 H 486.435 -2.29498 -3.61979 0
M  V30 4935 H 490.619 -3.26899 -3.73431 0
M  V30 4936 H 485.875 -4.66542 -3.95157 0
M  V30 4937 H 490.049 -5.64451 -4.07882 0
M  V30 4938 H 487.676 -6.34733 -4.18351 0
M  V30 4939 N 489.251 1.34841 -0.815825 0
M  V30 4940 C 490.481 2.02436 -0.412695 0
M  V30 4941 C 490.889 1.61604 0.983906 0
M  V30 4942 O 490.232 0.813729 1.64694 0
M  V30 4943 C 490.294 3.56953 -0.427182 0
M  V30 4944 C 489.958 4.21083 -1.77589 0
M  V30 4945 C 490.955 4.42107 -2.73564 0
M  V30 4946 C 488.64 4.58006 -2.06243 0
M  V30 4947 C 490.634 4.99169 -3.9637 0
M  V30 4948 C 488.321 5.1478 -3.2931 0
M  V30 4949 C 489.319 5.35304 -4.24191 0
M  V30 4950 O 489.007 5.90878 -5.45086 0
M  V30 4951 H 488.739 0.655631 -0.164695 0
M  V30 4952 H 491.293 1.73246 -1.1034 0
M  V30 4953 H 489.523 3.85372 0.320175 0
M  V30 4954 H 491.212 4.05875 -0.0450875 0
M  V30 4955 H 491.978 4.13953 -2.52721 0
M  V30 4956 H 487.857 4.41339 -1.33196 0
M  V30 4957 H 491.401 5.15105 -4.70439 0
M  V30 4958 H 487.298 5.42362 -3.5002 0
M  V30 4959 H 488.066 6.0932 -5.46508 0
M  V30 4960 N 490.729 0.570148 1.46925 0
M  V30 4961 C 492.145 0.23087 1.57921 0
M  V30 4962 C 492.345 -1.26676 1.56702 0
M  V30 4963 O 491.401 -2.04774 1.47729 0
M  V30 4964 C 492.714 0.868973 2.8787 0
M  V30 4965 C 494.262 0.841397 3.01479 0
M  V30 4966 C 494.737 1.45881 4.34146 0
M  V30 4967 N 496.228 1.42258 4.40814 0
M  V30 4968 C 496.963 1.8698 5.42057 0
M  V30 4969 N 496.459 2.39618 6.50042 0
M  V30 4970 N 498.252 1.77972 5.33181 0
M  V30 4971 H 490.403 1.54301 1.45962 0
M  V30 4972 H 492.666 0.644224 0.69547 0
M  V30 4973 H 492.372 1.922 2.94537 0
M  V30 4974 H 492.246 0.369682 3.75384 0
M  V30 4975 H 494.633 -0.202973 2.94401 0
M  V30 4976 H 494.714 1.37858 2.15474 0
M  V30 4977 H 494.358 2.50231 4.4198 0
M  V30 4978 H 494.288 0.896958 5.18905 0
M  V30 4979 H 496.779 1.03768 3.63374 0
M  V30 4980 H 497.092 2.71633 7.23488 0
M  V30 4981 H 495.437 2.43636 6.50897 0
M  V30 4982 H 498.628 1.36617 4.4772 0
M  V30 4983 H 498.801 2.13143 6.11943 0
M  V30 4984 N 492.207 -1.54576 0.307264 0
M  V30 4985 C 493.157 -2.20467 -0.581249 0
M  V30 4986 C 494.141 -1.17972 -1.09414 0
M  V30 4987 O 495.333 -1.43667 -1.03387 0
M  V30 4988 C 492.462 -2.95369 -1.74963 0
M  V30 4989 C 491.548 -4.05186 -1.25241 0
M  V30 4990 N 491.939 -5.03577 -0.47364 0
M  V30 4991 C 490.237 -4.18841 -1.53259 0
M  V30 4992 C 490.938 -5.81328 -0.208083 0
M  V30 4993 N 489.914 -5.37834 -0.789651 0
M  V30 4994 H 493.716 -2.93892 0.0212221 0
M  V30 4995 H 491.23 -1.62011 0.112325 0
M  V30 4996 H 493.227 -3.41046 -2.39777 0
M  V30 4997 H 491.887 -2.23461 -2.35574 0
M  V30 4998 H 492.898 -5.17766 -0.117963 0
M  V30 4999 H 489.575 -3.58141 -2.14573 0
M  V30 5000 H 490.965 -6.706 0.417793 0
M  V30 5001 N 493.685 -0.035106 -1.57561 0
M  V30 5002 C 494.615 0.942993 -2.13612 0
M  V30 5003 C 495.596 1.33531 -1.05373 0
M  V30 5004 O 496.781 1.41287 -1.33235 0
M  V30 5005 C 493.911 2.22332 -2.66807 0
M  V30 5006 C 492.865 1.97156 -3.79886 0
M  V30 5007 C 492.191 3.31506 -4.19533 0
M  V30 5008 C 493.491 1.30596 -5.05709 0
M  V30 5009 H 495.185 0.476179 -2.95589 0
M  V30 5010 H 492.731 0.227602 -1.4219 0
M  V30 5011 H 494.684 2.91142 -3.04654 0
M  V30 5012 H 493.408 2.7119 -1.81999 0
M  V30 5013 H 492.067 1.30763 -3.42486 0
M  V30 5014 H 491.715 3.78134 -3.31698 0
M  V30 5015 H 491.415 3.15465 -4.95738 0
M  V30 5016 H 492.939 4.01574 -4.59968 0
M  V30 5017 H 494.353 1.89416 -5.41105 0
M  V30 5018 H 492.75 1.24934 -5.86951 0
M  V30 5019 H 493.82 0.279742 -4.84092 0
M  V30 5020 N 495.163 1.55791 0.238111 0
M  V30 5021 C 496.093 1.94068 1.29846 0
M  V30 5022 C 497.074 0.806726 1.49753 0
M  V30 5023 O 498.259 1.06772 1.62214 0
M  V30 5024 C 495.389 2.24302 2.65153 0
M  V30 5025 C 494.343 3.40032 2.59927 0
M  V30 5026 C 493.669 3.55829 3.99111 0
M  V30 5027 C 494.969 4.75476 2.16148 0
M  V30 5028 H 496.663 2.82887 0.980563 0
M  V30 5029 H 494.209 1.36105 0.470253 0
M  V30 5030 H 496.162 2.4967 3.39475 0
M  V30 5031 H 494.886 1.32318 2.98596 0
M  V30 5032 H 493.545 3.14687 1.88063 0
M  V30 5033 H 493.193 2.6125 4.29834 0
M  V30 5034 H 492.893 4.3366 3.96501 0
M  V30 5035 H 494.417 3.83528 4.7512 0
M  V30 5036 H 495.831 5.00158 2.80205 0
M  V30 5037 H 494.228 5.56472 2.24631 0
M  V30 5038 H 495.298 4.71946 1.11333 0
M  V30 5039 N 496.642 -0.504142 1.49319 0
M  V30 5040 C 497.59 -1.62689 1.66238 0
M  V30 5041 C 498.584 -1.6095 0.528349 0
M  V30 5042 O 499.79 -1.65496 0.707887 0
M  V30 5043 H 496.165 -0.539247 0.524134 0
M  V30 5044 H 498.136 -1.45571 2.60484 0
M  V30 5045 C 496.885 -3.00841 1.74328 0
M  V30 5046 H 496.208 -3.02884 2.60963 0
M  V30 5047 H 497.648 -3.78945 1.90202 0
M  V30 5048 C 496.107 -3.33355 0.487416 0
M  V30 5049 O 496.637 -3.99819 -0.388294 0
M  V30 5050 N 494.843 -2.88469 0.351306 0
M  V30 5051 H 494.39 -2.34557 1.06492 0
M  V30 5052 H 494.348 -3.10591 -0.487899 0
M  V30 5053 N 498.12 -1.38341 -0.754957 0
M  V30 5054 C 499.366 -1.34672 -1.51628 0
M  V30 5055 C 499.699 0.0636036 -1.94096 0
M  V30 5056 O 498.974 1.0245 -1.6533 0
M  V30 5057 C 499.257 -2.30116 -2.76981 0
M  V30 5058 C 499.11 -3.80003 -2.4066 0
M  V30 5059 C 500.429 -2.23715 -3.78998 0
M  V30 5060 H 497.548 -0.490517 -0.550056 0
M  V30 5061 H 500.19 -1.69178 -0.864807 0
M  V30 5062 H 498.34 -2.00821 -3.3257 0
M  V30 5063 H 500.012 -4.19966 -1.90856 0
M  V30 5064 H 498.255 -3.97751 -1.73137 0
M  V30 5065 H 498.926 -4.42244 -3.30339 0
M  V30 5066 H 501.402 -2.49574 -3.32945 0
M  V30 5067 H 500.278 -2.9261 -4.64403 0
M  V30 5068 H 500.539 -1.23554 -4.24484 0
M  V30 5069 N 499.598 0.982988 -1.23187 0
M  V30 5070 C 500.826 1.75921 -1.08901 0
M  V30 5071 C 501.241 1.85341 0.359719 0
M  V30 5072 O 500.598 1.33072 1.24892 0
M  V30 5073 C 500.649 3.18742 -1.70545 0
M  V30 5074 O 500.37 3.09814 -3.09753 0
M  V30 5075 C 501.871 4.1277 -1.61667 0
M  V30 5076 H 499.091 0.552166 -0.381252 0
M  V30 5077 H 501.635 1.23516 -1.62985 0
M  V30 5078 H 499.79 3.68182 -1.20501 0
M  V30 5079 H 500.204 3.99703 -3.39614 0
M  V30 5080 H 501.678 5.10697 -2.09506 0
M  V30 5081 H 502.155 4.3542 -0.575009 0
M  V30 5082 H 502.761 3.69232 -2.11064 0
M  V30 5083 N 501.076 1.04316 1.18135 0
M  V30 5084 C 502.322 0.758899 1.88712 0
M  V30 5085 C 502.677 -0.705863 1.78984 0
M  V30 5086 O 501.97 -1.50874 1.18101 0
M  V30 5087 C 502.164 1.16271 3.37958 0
M  V30 5088 C 501.993 2.66518 3.62213 0
M  V30 5089 C 500.763 3.33702 3.79436 0
M  V30 5090 C 502.961 3.64739 3.62588 0
M  V30 5091 N 500.943 4.72904 3.91452 0
M  V30 5092 C 502.314 4.89627 3.80348 0
M  V30 5093 C 504.369 3.58333 3.4569 0
M  V30 5094 C 503.072 6.08879 3.8296 0
M  V30 5095 C 505.098 4.77016 3.49586 0
M  V30 5096 C 504.46 6.00724 3.67845 0
M  V30 5097 H 500.559 0.329795 0.709055 0
M  V30 5098 H 503.143 1.33334 1.4188 0
M  V30 5099 H 501.314 0.616319 3.83479 0
M  V30 5100 H 503.046 0.829205 3.96114 0
M  V30 5101 H 499.801 2.84105 3.78921 0
M  V30 5102 H 500.225 5.45258 4.01277 0
M  V30 5103 H 504.867 2.63663 3.30517 0
M  V30 5104 H 502.585 7.03903 3.96921 0
M  V30 5105 H 506.171 4.73703 3.37782 0
M  V30 5106 H 505.051 6.91022 3.70753 0
M  V30 5107 N 502.554 -1.34406 0.822964 0
M  V30 5108 C 503.464 -2.33298 0.246838 0
M  V30 5109 C 504.48 -1.62625 -0.618797 0
M  V30 5110 O 505.656 -1.94391 -0.526685 0
M  V30 5111 C 502.721 -3.41785 -0.581731 0
M  V30 5112 C 501.782 -4.28206 0.306309 0
M  V30 5113 C 501.015 -5.31512 -0.48281 0
M  V30 5114 O 501.238 -5.43973 -1.71607 0
M  V30 5115 O 500.172 -6.01749 0.134884 0
M  V30 5116 H 503.998 -2.84401 1.06534 0
M  V30 5117 H 501.583 -1.37466 0.585108 0
M  V30 5118 H 503.465 -4.08028 -1.05313 0
M  V30 5119 H 502.14 -2.92925 -1.37756 0
M  V30 5120 H 501.047 -3.64885 0.825199 0
M  V30 5121 H 502.38 -4.80507 1.06649 0
M  V30 5122 N 504.032 -0.577932 -1.46621 0
M  V30 5123 C 505.28 -0.061566 -2.02006 0
M  V30 5124 C 505.601 1.30117 -1.4524 0
M  V30 5125 O 504.871 1.85313 -0.63529 0
M  V30 5126 H 503.451 -0.0197692 -0.746738 0
M  V30 5127 H 506.113 -0.752631 -1.79782 0
M  V30 5128 H 505.209 0.0110238 -3.12098 0
M  V30 5129 N 505.51 1.54411 -0.315457 0
M  V30 5130 C 506.926 1.59556 0.037464 0
M  V30 5131 C 507.126 1.33217 1.5118 0
M  V30 5132 O 506.182 1.11264 2.26664 0
M  V30 5133 C 507.495 2.98372 -0.373477 0
M  V30 5134 C 509.043 3.11324 -0.323452 0
M  V30 5135 C 509.518 4.52472 -0.709433 0
M  V30 5136 N 511.009 4.58437 -0.662524 0
M  V30 5137 C 511.744 5.65751 -0.933474 0
M  V30 5138 N 511.24 6.81039 -1.27114 0
M  V30 5139 N 513.033 5.55489 -0.859573 0
M  V30 5140 H 505.184 1.6979 -1.27614 0
M  V30 5141 H 507.447 0.793732 -0.518356 0
M  V30 5142 H 507.153 3.22618 -1.40037 0
M  V30 5143 H 507.027 3.76264 0.265615 0
M  V30 5144 H 509.414 2.86818 0.694223 0
M  V30 5145 H 509.495 2.35555 -0.997367 0
M  V30 5146 H 509.139 4.7771 -1.72498 0
M  V30 5147 H 509.069 5.26598 -0.0132923 0
M  V30 5148 H 511.56 3.75636 -0.413065 0
M  V30 5149 H 511.873 7.58816 -1.46348 0
M  V30 5150 H 510.218 6.82555 -1.30932 0
M  V30 5151 H 513.409 4.64299 -0.595324 0
M  V30 5152 H 513.582 6.39036 -1.0741 0
M  V30 5153 N 506.988 0.0434614 1.5754 0
M  V30 5154 C 508.265 -0.671479 1.83713 0
M  V30 5155 C 508.645 -1.89495 0.930315 0
M  V30 5156 O 507.993 -2.28498 -0.0105639 0
M  V30 5157 C 508.203 -1.0361 3.33266 0
M  V30 5158 C 509.551 -1.42167 4.00092 0
M  V30 5159 O 510.575 -1.12866 3.37846 0
M  V30 5160 O 509.434 -1.96817 5.09829 0
M  V30 5161 H 506.528 -0.330726 0.75799 0
M  V30 5162 H 509.074 0.0722373 1.69546 0
M  V30 5163 H 507.846 -0.165938 3.90948 0
M  V30 5164 H 507.469 -1.83751 3.52592 0
M  V30 5165 N 508.466 -1.55915 -0.229846 0
M  V30 5166 C 509.713 -1.78542 -0.955452 0
M  V30 5167 C 510.041 -0.610785 -1.84661 0
M  V30 5168 O 509.296 0.405213 -1.91459 0
M  V30 5169 C 509.595 -3.06845 -1.8325 0
M  V30 5170 C 509.261 -4.37395 -1.09528 0
M  V30 5171 C 507.923 -4.72868 -0.891598 0
M  V30 5172 C 510.275 -5.18029 -0.574046 0
M  V30 5173 C 507.603 -5.86496 -0.154655 0
M  V30 5174 C 509.955 -6.32423 0.149513 0
M  V30 5175 C 508.619 -6.66504 0.364519 0
M  V30 5176 H 507.889 -0.653333 -0.349625 0
M  V30 5177 H 510.536 -1.90183 -0.224235 0
M  V30 5178 H 508.841 -2.90291 -2.63132 0
M  V30 5179 H 510.538 -3.21553 -2.39592 0
M  V30 5180 H 507.128 -4.09538 -1.26399 0
M  V30 5181 H 511.312 -4.91066 -0.718899 0
M  V30 5182 H 506.568 -6.11396 0.0222356 0
M  V30 5183 H 510.742 -6.94137 0.560947 0
M  V30 5184 H 508.369 -7.54397 0.937495 0
M  V30 5185 N 509.944 0.496216 -1.49584 0
M  V30 5186 C 511.169 1.27865 -1.63295 0
M  V30 5187 C 511.594 1.85592 -0.306156 0
M  V30 5188 O 510.952 1.66092 0.726851 0
M  V30 5189 C 511 2.38128 -2.7079 0
M  V30 5190 O 510.104 3.42108 -2.30296 0
M  V30 5191 H 509.445 0.377279 -0.546403 0
M  V30 5192 H 511.975 0.593497 -1.95803 0
M  V30 5193 H 511.985 2.8382 -2.93104 0
M  V30 5194 H 510.66 1.95479 -3.67098 0
M  V30 5195 H 509.237 3.02301 -2.18331 0
M  V30 5196 N 511.423 1.38739 0.74761 0
M  V30 5197 C 512.67 1.35274 1.50689 0
M  V30 5198 C 512.998 -0.0553359 1.94421 0
M  V30 5199 O 512.253 -1.03365 1.66175 0
M  V30 5200 C 512.552 2.25992 2.7688 0
M  V30 5201 C 512.218 3.73854 2.5208 0
M  V30 5202 C 510.88 4.14145 2.45025 0
M  V30 5203 C 513.232 4.67427 2.30568 0
M  V30 5204 C 510.56 5.4609 2.14483 0
M  V30 5205 C 512.912 5.99635 2.01545 0
M  V30 5206 C 511.576 6.39004 1.92951 0
M  V30 5207 H 510.846 0.495003 0.55141 0
M  V30 5208 H 513.493 1.71145 0.859158 0
M  V30 5209 H 511.798 1.83196 3.46333 0
M  V30 5210 H 513.495 2.20611 3.34861 0
M  V30 5211 H 510.085 3.41913 2.58444 0
M  V30 5212 H 514.269 4.3714 2.34994 0
M  V30 5213 H 509.525 5.75528 2.06342 0
M  V30 5214 H 513.699 6.71678 1.83906 0
M  V30 5215 H 511.326 7.41165 1.6905 0
M  V30 5216 N 512.901 -0.976442 1.23707 0
M  V30 5217 C 514.126 -1.75875 1.09922 0
M  V30 5218 C 514.551 -1.84911 -0.34489 0
M  V30 5219 O 513.909 -1.31363 -1.24954 0
M  V30 5220 C 513.957 -3.16179 1.73388 0
M  V30 5221 O 513.061 -4.00124 0.99871 0
M  V30 5222 H 512.402 -0.540954 0.385052 0
M  V30 5223 H 514.932 -1.22546 1.6384 0
M  V30 5224 H 514.942 -3.66741 1.78788 0
M  V30 5225 H 513.617 -3.08917 2.78466 0
M  V30 5226 H 512.194 -3.58624 1.02193 0
M  V30 5227 N 514.379 -1.04941 -1.1758 0
M  V30 5228 C 515.79 -0.784501 -1.69418 0
M  V30 5229 C 516.141 0.693625 -1.8353 0
M  V30 5230 O 515.266 1.53925 -1.52106 0
M  V30 5231 C 515.861 -1.41746 -3.07723 0
M  V30 5232 C 514.42 -1.20066 -3.56737 0
M  V30 5233 C 513.567 -1.5026 -2.33061 0
M  V30 5234 H 516.518 -1.21469 -1.02133 0
M  V30 5235 H 516.539 -0.825381 -3.7144 0
M  V30 5236 H 516.051 -2.49325 -2.9742 0
M  V30 5237 H 514.152 -0.144006 -3.72322 0
M  V30 5238 H 514.265 -1.90384 -4.39648 0
M  V30 5239 H 512.629 -0.922598 -2.37403 0
M  V30 5240 H 513.412 -2.58967 -2.25368 0
M  V30 5241 N 515.857 1.33968 -0.830081 0
M  V30 5242 C 517.105 1.97672 -0.420734 0
M  V30 5243 C 517.426 1.66111 1.02138 0
M  V30 5244 O 516.696 0.955503 1.71017 0
M  V30 5245 H 515.276 0.73125 -0.152587 0
M  V30 5246 H 517.938 1.63483 -1.0611 0
M  V30 5247 H 517.034 3.07294 -0.545588 0
M  V30 5248 N 517.335 0.585699 1.46312 0
M  V30 5249 C 518.583 0.072278 2.01971 0
M  V30 5250 C 518.904 -1.29345 1.45928 0
M  V30 5251 O 518.174 -1.84973 0.645109 0
M  V30 5252 H 516.754 0.023729 0.746623 0
M  V30 5253 H 519.416 0.762155 1.7938 0
M  V30 5254 H 518.512 0.00552767 3.121 0
M  V30 5255 N 518.813 -1.54241 0.323641 0
M  V30 5256 C 520.043 -2.04687 -0.280464 0
M  V30 5257 C 520.451 -1.19939 -1.46326 0
M  V30 5258 O 519.794 -0.222872 -1.82343 0
M  V30 5259 C 519.856 -3.50978 -0.778123 0
M  V30 5260 C 519.52 -4.56127 0.282371 0
M  V30 5261 C 520.517 -5.07726 1.11847 0
M  V30 5262 C 518.202 -5.00451 0.430582 0
M  V30 5263 C 520.196 -6.02212 2.08851 0
M  V30 5264 C 517.883 -5.94752 1.40404 0
M  V30 5265 C 518.881 -6.45519 2.23147 0
M  V30 5266 O 518.569 -7.37968 3.1884 0
M  V30 5267 H 518.301 -0.673192 -0.0615473 0
M  V30 5268 H 520.855 -1.99999 0.467921 0
M  V30 5269 H 519.085 -3.53064 -1.57742 0
M  V30 5270 H 520.774 -3.84499 -1.30058 0
M  V30 5271 H 521.54 -4.74261 1.01496 0
M  V30 5272 H 517.419 -4.6055 -0.203569 0
M  V30 5273 H 520.963 -6.41761 2.73474 0
M  V30 5274 H 516.86 -6.27633 1.5082 0
M  V30 5275 H 517.628 -7.55841 3.14079 0
M  V30 5276 N 520.291 -0.0518155 -1.57515 0
M  V30 5277 C 521.221 0.920283 -2.146 0
M  V30 5278 C 522.202 1.32406 -1.06783 0
M  V30 5279 O 523.387 1.39866 -1.34726 0
M  V30 5280 C 520.517 2.1949 -2.6915 0
M  V30 5281 C 519.471 1.93116 -3.81956 0
M  V30 5282 C 518.797 3.27037 -4.23026 0
M  V30 5283 C 520.097 1.25225 -5.07066 0
M  V30 5284 H 521.791 0.444801 -2.96077 0
M  V30 5285 H 519.337 0.212508 -1.42423 0
M  V30 5286 H 521.29 2.87894 -3.07725 0
M  V30 5287 H 520.014 2.69244 -1.84865 0
M  V30 5288 H 518.673 1.27123 -3.43854 0
M  V30 5289 H 518.321 3.74595 -3.3569 0
M  V30 5290 H 518.021 3.10189 -4.99056 0
M  V30 5291 H 519.545 3.96673 -4.64202 0
M  V30 5292 H 520.959 1.83666 -5.43083 0
M  V30 5293 H 519.356 1.18702 -5.88243 0
M  V30 5294 H 520.426 0.228382 -4.84362 0
M  V30 5295 N 521.769 1.56035 0.221574 0
M  V30 5296 C 523.015 1.79312 0.947372 0
M  V30 5297 C 523.348 0.621453 1.83988 0
M  V30 5298 O 522.623 -0.379287 1.90766 0
M  V30 5299 C 522.906 3.1267 1.78633 0
M  V30 5300 C 522.759 4.40284 0.920312 0
M  V30 5301 C 524.078 3.4247 2.7641 0
M  V30 5302 H 521.197 0.652328 0.342982 0
M  V30 5303 H 523.839 1.88765 0.216244 0
M  V30 5304 H 521.989 3.04741 2.40967 0
M  V30 5305 H 523.661 4.60232 0.313718 0
M  V30 5306 H 521.904 4.33212 0.225734 0
M  V30 5307 H 522.575 5.30033 1.54171 0
M  V30 5308 H 525.051 3.50526 2.24211 0
M  V30 5309 H 523.927 4.3695 3.32213 0
M  V30 5310 H 524.188 2.64635 3.54148 0
M  V30 5311 N 523.247 -0.488276 1.49845 0
M  V30 5312 C 524.179 -1.60539 1.63584 0
M  V30 5313 C 525.192 -1.5434 0.517972 0
M  V30 5314 O 526.381 -1.60041 0.790516 0
M  V30 5315 C 523.481 -2.99374 1.58835 0
M  V30 5316 C 522.654 -3.30624 2.86368 0
M  V30 5317 C 521.713 -4.4893 2.74496 0
M  V30 5318 O 520.739 -4.50085 3.48443 0
M  V30 5319 N 521.941 -5.49591 1.86894 0
M  V30 5320 H 524.706 -1.49176 2.59936 0
M  V30 5321 H 522.267 -0.67639 1.47094 0
M  V30 5322 H 524.259 -3.76459 1.48529 0
M  V30 5323 H 522.829 -3.04595 0.702892 0
M  V30 5324 H 522.049 -2.42314 3.1093 0
M  V30 5325 H 523.337 -3.48305 3.70892 0
M  V30 5326 H 522.735 -5.51467 1.26097 0
M  V30 5327 H 521.292 -6.25728 1.82503 0
M  V30 5328 N 524.725 -1.39134 -0.740242 0
M  V30 5329 C 526.136 -1.32208 -1.31825 0
M  V30 5330 C 526.487 0.0159919 -1.96193 0
M  V30 5331 O 525.612 0.918111 -1.95958 0
M  V30 5332 C 526.207 -2.39436 -2.39699 0
M  V30 5333 C 524.766 -2.36048 -2.93187 0
M  V30 5334 C 523.913 -2.21599 -1.66701 0
M  V30 5335 H 526.864 -1.49298 -0.538133 0
M  V30 5336 H 526.885 -2.05922 -3.19963 0
M  V30 5337 H 526.397 -3.36811 -1.92821 0
M  V30 5338 H 524.498 -1.42295 -3.44359 0
M  V30 5339 H 524.611 -3.30704 -3.46658 0
M  V30 5340 H 522.975 -1.68681 -1.90837 0
M  V30 5341 H 523.758 -3.20936 -1.21882 0
M  V30 5342 N 526.204 0.969867 -1.24223 0
M  V30 5343 C 527.432 1.74756 -1.10761 0
M  V30 5344 C 527.847 1.85713 0.340041 0
M  V30 5345 O 527.204 1.34389 1.23474 0
M  V30 5346 C 527.255 3.16915 -1.73917 0
M  V30 5347 O 526.976 3.06511 -3.13021 0
M  V30 5348 C 528.477 4.11032 -1.66036 0
M  V30 5349 H 525.697 0.548092 -0.387087 0
M  V30 5350 H 528.241 1.2178 -1.64286 0
M  V30 5351 H 526.396 3.66884 -1.244 0
M  V30 5352 H 526.81 3.96079 -3.43834 0
M  V30 5353 H 528.284 5.08446 -2.14911 0
M  V30 5354 H 528.761 4.34785 -0.621159 0
M  V30 5355 H 529.367 3.66972 -2.14969 0
M  V30 5356 N 527.682 1.05563 1.17022 0
M  V30 5357 C 528.615 0.604197 2.20056 0
M  V30 5358 C 529.593 -0.369169 1.58354 0
M  V30 5359 O 530.777 -0.279898 1.8641 0
M  V30 5360 C 527.904 -0.115265 3.38504 0
M  V30 5361 C 526.95 0.813698 4.18666 0
M  V30 5362 S 527.783 2.30492 4.83357 0
M  V30 5363 C 528.939 1.59674 6.0519 0
M  V30 5364 H 529.172 1.47713 2.58008 0
M  V30 5365 H 526.705 0.867932 1.27696 0
M  V30 5366 H 528.663 -0.524162 4.0714 0
M  V30 5367 H 527.324 -0.964284 2.98932 0
M  V30 5368 H 526.517 0.256736 5.03346 0
M  V30 5369 H 526.119 1.16213 3.55486 0
M  V30 5370 H 528.411 0.898164 6.7152 0
M  V30 5371 H 529.354 2.42115 6.65422 0
M  V30 5372 H 529.762 1.08252 5.54023 0
M  V30 5373 N 529.16 -1.33526 0.837174 0
M  V30 5374 C 530.406 -1.9813 0.432704 0
M  V30 5375 C 530.739 -1.66168 -1.00508 0
M  V30 5376 O 530.014 -0.94069 -1.70239 0
M  V30 5377 C 530.297 -3.54151 0.651834 0
M  V30 5378 C 530.15 -3.95806 2.13676 0
M  V30 5379 C 531.469 -4.39993 0.0968937 0
M  V30 5380 H 528.588 -0.719713 0.15869 0
M  V30 5381 H 531.23 -1.58193 1.05237 0
M  V30 5382 H 529.38 -3.88301 0.124369 0
M  V30 5383 H 531.052 -3.71921 2.72896 0
M  V30 5384 H 529.295 -3.45599 2.62191 0
M  V30 5385 H 529.966 -5.0447 2.24084 0
M  V30 5386 H 532.442 -4.12479 0.547733 0
M  V30 5387 H 531.318 -5.48186 0.279917 0
M  V30 5388 H 531.579 -4.3066 -0.9992 0
M  V30 5389 N 530.638 -0.59345 -1.46 0
M  V30 5390 C 531.884 -0.0832754 -2.02629 0
M  V30 5391 C 532.217 1.27749 -1.46266 0
M  V30 5392 O 531.492 1.8395 -0.631866 0
M  V30 5393 C 531.775 -0.0290756 -3.60088 0
M  V30 5394 C 531.628 -1.41951 -4.26814 0
M  V30 5395 C 532.947 0.666055 -4.35031 0
M  V30 5396 H 530.066 -0.031736 -0.736316 0
M  V30 5397 H 532.708 -0.762711 -1.74019 0
M  V30 5398 H 530.858 0.549532 -3.84594 0
M  V30 5399 H 532.53 -2.04411 -4.13538 0
M  V30 5400 H 530.773 -1.98422 -3.8576 0
M  V30 5401 H 531.444 -1.33395 -5.3564 0
M  V30 5402 H 533.92 0.174401 -4.15734 0
M  V30 5403 H 532.796 0.673041 -5.44758 0
M  V30 5404 H 533.057 1.72946 -4.06869 0
M  V30 5405 N 532.116 1.54067 -0.331816 0
M  V30 5406 C 533.365 1.99895 0.269209 0
M  V30 5407 C 533.678 1.22371 1.52593 0
M  V30 5408 O 534.884 1.58618 2.20347 0
M  V30 5409 C 533.34 3.55972 0.530244 0
M  V30 5410 C 532.948 4.4234 -0.709901 0
M  V30 5411 C 534.692 4.10247 1.09077 0
M  V30 5412 C 532.599 5.89905 -0.420312 0
M  V30 5413 H 531.529 0.746741 0.104371 0
M  V30 5414 H 534.18 1.78014 -0.445324 0
M  V30 5415 H 532.562 3.73873 1.30518 0
M  V30 5416 H 533.736 4.36215 -1.48504 0
M  V30 5417 H 532.051 3.98997 -1.19123 0
M  V30 5418 H 534.648 5.18095 1.32219 0
M  V30 5419 H 534.991 3.62739 2.0427 0
M  V30 5420 H 535.524 3.96011 0.376824 0
M  V30 5421 H 532.263 6.41623 -1.34164 0
M  V30 5422 H 531.783 5.98962 0.316962 0
M  V30 5423 H 533.462 6.46991 -0.0331956 0
M  V30 5424 N 533.594 0.0601682 1.57485 0
M  V30 5425 C 534.557 -0.896373 2.10945 0
M  V30 5426 C 535.557 -1.23402 1.03095 0
M  V30 5427 O 536.747 -1.16921 1.29132 0
M  V30 5428 C 533.879 -2.20346 2.60116 0
M  V30 5429 H 535.072 -0.432778 2.96761 0
M  V30 5430 H 532.625 -0.188372 1.55161 0
M  V30 5431 H 533.36 -2.71268 1.7772 0
M  V30 5432 H 533.145 -1.9714 3.38937 0
M  V30 5433 H 534.635 -2.88846 3.01592 0
M  V30 5434 N 535.072 -1.5615 -0.213296 0
M  V30 5435 C 536.002 -1.96109 -1.26742 0
M  V30 5436 C 536.983 -0.830448 -1.48451 0
M  V30 5437 O 538.168 -1.09339 -1.60495 0
M  V30 5438 C 535.298 -2.28492 -2.61551 0
M  V30 5439 C 534.252 -3.44124 -2.54485 0
M  V30 5440 C 533.578 -3.62134 -3.93399 0
M  V30 5441 C 534.878 -4.78855 -2.08556 0
M  V30 5442 H 536.572 -2.84412 -0.935434 0
M  V30 5443 H 534.118 -1.36836 -0.44854 0
M  V30 5444 H 536.071 -2.55039 -3.3546 0
M  V30 5445 H 534.795 -1.37052 -2.96453 0
M  V30 5446 H 533.454 -3.17639 -1.83033 0
M  V30 5447 H 533.102 -2.68055 -4.25623 0
M  V30 5448 H 532.802 -4.39913 -3.89551 0
M  V30 5449 H 534.326 -3.91038 -4.68958 0
M  V30 5450 H 535.74 -5.04552 -2.72213 0
M  V30 5451 H 534.137 -5.59975 -2.1575 0
M  V30 5452 H 535.207 -4.73657 -1.03811 0
M  V30 5453 N 536.55 0.480323 -1.50102 0
M  V30 5454 C 537.498 1.60024 -1.68805 0
M  V30 5455 C 538.492 1.60089 -0.553888 0
M  V30 5456 O 539.698 1.64349 -0.734127 0
M  V30 5457 H 536.073 0.530841 -0.532646 0
M  V30 5458 H 538.044 1.41408 -2.62767 0
M  V30 5459 C 536.793 2.98029 -1.79092 0
M  V30 5460 H 536.116 2.98694 -2.65748 0
M  V30 5461 H 537.556 3.75871 -1.96206 0
M  V30 5462 C 536.015 3.32538 -0.540388 0
M  V30 5463 O 536.545 4.00386 0.324637 0
M  V30 5464 N 534.751 2.87873 -0.397154 0
M  V30 5465 H 534.298 2.32834 -1.1021 0
M  V30 5466 H 534.256 3.11328 0.438425 0
M  V30 5467 N 538.028 1.39524 0.732853 0
M  V30 5468 C 539.444 1.21176 1.03868 0
M  V30 5469 C 539.644 0.0748448 2.01361 0
M  V30 5470 O 538.7 -0.57281 2.45917 0
M  V30 5471 C 540.013 2.54667 1.59892 0
M  V30 5472 C 541.561 2.6153 1.71962 0
M  V30 5473 C 542.036 3.95248 2.31394 0
M  V30 5474 N 543.527 3.96899 2.38801 0
M  V30 5475 C 544.262 4.97138 2.85729 0
M  V30 5476 N 543.758 6.07775 3.32537 0
M  V30 5477 N 545.551 4.84516 2.84957 0
M  V30 5478 H 537.702 2.12225 0.086304 0
M  V30 5479 H 539.965 0.942614 0.100907 0
M  V30 5480 H 539.671 3.38423 0.95721 0
M  V30 5481 H 539.545 2.74538 2.58668 0
M  V30 5482 H 541.932 1.78156 2.35254 0
M  V30 5483 H 542.013 2.45507 0.718327 0
M  V30 5484 H 541.657 4.79054 1.68729 0
M  V30 5485 H 541.587 4.08593 3.32204 0
M  V30 5486 H 544.078 3.16998 2.05719 0
M  V30 5487 H 544.391 6.8017 3.66862 0
M  V30 5488 H 542.736 6.11366 3.30541 0
M  V30 5489 H 545.927 3.97185 2.47713 0
M  V30 5490 H 546.1 5.62783 3.21215 0
M  V30 5491 N 539.506 -0.963266 1.24736 0
M  V30 5492 C 540.456 -2.0438 1.01058 0
M  V30 5493 C 541.44 -1.60824 -0.0495354 0
M  V30 5494 O 542.632 -1.76232 0.164741 0
M  V30 5495 C 539.761 -3.37617 0.622067 0
M  V30 5496 C 538.847 -3.87722 1.7185 0
M  V30 5497 N 539.238 -4.10715 2.95207 0
M  V30 5498 C 537.536 -4.16426 1.59703 0
M  V30 5499 C 538.237 -4.51872 3.66315 0
M  V30 5500 N 537.213 -4.57302 2.93897 0
M  V30 5501 H 541.015 -2.20138 1.94721 0
M  V30 5502 H 538.529 -1.14741 1.14927 0
M  V30 5503 H 540.526 -4.14638 0.43366 0
M  V30 5504 H 539.186 -3.23242 -0.307327 0
M  V30 5505 H 540.197 -3.98037 3.31341 0
M  V30 5506 H 536.874 -4.10962 0.73598 0
M  V30 5507 H 538.264 -4.78037 4.72155 0
M  V30 5508 N 540.985 -1.06182 -1.16461 0
M  V30 5509 C 542.401 -0.785065 -1.38956 0
M  V30 5510 C 542.601 0.616103 -1.9185 0
M  V30 5511 O 541.657 1.37686 -2.11657 0
M  V30 5512 C 542.97 -1.84902 -2.37132 0
M  V30 5513 C 544.518 -1.8724 -2.50819 0
M  V30 5514 C 544.993 -2.92686 -3.52277 0
M  V30 5515 N 546.484 -2.91712 -3.59803 0
M  V30 5516 C 547.219 -3.69949 -4.38093 0
M  V30 5517 N 546.715 -4.58 -5.19815 0
M  V30 5518 N 548.508 -3.58346 -4.33064 0
M  V30 5519 H 540.659 -1.96569 -0.804634 0
M  V30 5520 H 542.922 -0.851747 -0.416211 0
M  V30 5521 H 542.628 -2.85518 -2.0536 0
M  V30 5522 H 542.502 -1.69908 -3.36766 0
M  V30 5523 H 544.889 -0.872827 -2.81897 0
M  V30 5524 H 544.97 -2.06311 -1.51226 0
M  V30 5525 H 544.614 -3.92835 -3.21937 0
M  V30 5526 H 544.544 -2.70864 -4.51598 0
M  V30 5527 H 547.035 -2.27876 -3.01464 0
M  V30 5528 H 547.348 -5.14357 -5.76764 0
M  V30 5529 H 545.693 -4.62056 -5.19162 0
M  V30 5530 H 548.884 -2.88943 -3.68279 0
M  V30 5531 H 549.057 -4.19563 -4.93833 0
M  V30 5532 N 542.463 1.3308 -0.844243 0
M  V30 5533 C 543.393 2.3161 -0.296493 0
M  V30 5534 C 544.374 1.59215 0.598707 0
M  V30 5535 O 545.559 1.87077 0.521134 0
M  V30 5536 C 542.689 3.43313 0.524762 0
M  V30 5537 C 541.643 4.27115 -0.275106 0
M  V30 5538 C 540.969 5.30483 0.670236 0
M  V30 5539 C 542.269 5.00443 -1.49514 0
M  V30 5540 H 543.963 2.77672 -1.11976 0
M  V30 5541 H 541.509 1.33496 -0.539899 0
M  V30 5542 H 543.462 4.11273 0.918298 0
M  V30 5543 H 542.186 2.95952 1.3813 0
M  V30 5544 H 540.845 3.60787 -0.650267 0
M  V30 5545 H 540.493 4.79379 1.52332 0
M  V30 5546 H 540.193 5.87435 0.139123 0
M  V30 5547 H 541.717 6.01308 1.06117 0
M  V30 5548 H 543.131 5.61141 -1.17447 0
M  V30 5549 H 541.528 5.67071 -1.96343 0
M  V30 5550 H 542.598 4.28906 -2.26202 0
M  V30 5551 N 543.941 0.601185 1.45683 0
M  V30 5552 C 545.187 0.102425 2.03142 0
M  V30 5553 C 545.542 -1.25066 1.46207 0
M  V30 5554 O 544.835 -1.81126 0.624806 0
M  V30 5555 C 545.029 -0.00222425 3.574 0
M  V30 5556 C 544.858 1.33917 4.29298 0
M  V30 5557 C 543.628 1.91818 4.67476 0
M  V30 5558 C 545.826 2.26652 4.61664 0
M  V30 5559 N 543.808 3.19504 5.24204 0
M  V30 5560 C 545.179 3.38933 5.19157 0
M  V30 5561 C 547.234 2.26103 4.43601 0
M  V30 5562 C 545.937 4.50823 5.60492 0
M  V30 5563 C 547.963 3.37036 4.85964 0
M  V30 5564 C 547.325 4.48039 5.43545 0
M  V30 5565 H 543.424 0.0806974 0.777825 0
M  V30 5566 H 546.008 0.798134 1.77589 0
M  V30 5567 H 544.179 -0.66714 3.82627 0
M  V30 5568 H 545.911 -0.507058 4.01511 0
M  V30 5569 H 542.666 1.45097 4.50826 0
M  V30 5570 H 543.09 3.84705 5.57073 0
M  V30 5571 H 547.732 1.41547 3.98402 0
M  V30 5572 H 545.45 5.36108 6.0466 0
M  V30 5573 H 549.036 3.37752 4.73725 0
M  V30 5574 H 547.916 5.32459 5.75723 0
M  V30 5575 N 545.419 -1.53889 0.339982 0
M  V30 5576 C 546.329 -2.28604 -0.526988 0
M  V30 5577 C 547.345 -1.33578 -1.11503 0
M  V30 5578 O 548.521 -1.66612 -1.13148 0
M  V30 5579 C 545.586 -3.04164 -1.66389 0
M  V30 5580 C 544.647 -4.14809 -1.10599 0
M  V30 5581 C 543.88 -4.86756 -2.18871 0
M  V30 5582 O 544.103 -4.58343 -3.39526 0
M  V30 5583 O 543.037 -5.73289 -1.83366 0
M  V30 5584 H 546.863 -3.03594 0.0802707 0
M  V30 5585 H 544.448 -1.4903 0.105141 0
M  V30 5586 H 546.33 -3.51427 -2.32544 0
M  V30 5587 H 545.005 -2.32035 -2.25703 0
M  V30 5588 H 543.912 -3.71857 -0.409067 0
M  V30 5589 H 545.245 -4.89029 -0.557771 0
M  V30 5590 N 546.897 -0.0685191 -1.57451 0
M  V30 5591 C 547.83 0.935736 -2.08133 0
M  V30 5592 C 548.808 1.29317 -0.985698 0
M  V30 5593 O 549.992 1.40304 -1.25886 0
M  V30 5594 C 547.119 2.2448 -2.53627 0
M  V30 5595 C 546.165 2.03917 -3.74593 0
M  V30 5596 S 546.998 1.30154 -5.19442 0
M  V30 5597 C 548.154 2.62346 -5.68265 0
M  V30 5598 H 548.387 0.504473 -2.92989 0
M  V30 5599 H 545.92 0.144169 -1.53725 0
M  V30 5600 H 547.878 2.99718 -2.80499 0
M  V30 5601 H 546.539 2.64731 -1.69045 0
M  V30 5602 H 545.732 3.00788 -4.04404 0
M  V30 5603 H 545.334 1.36815 -3.48077 0
M  V30 5604 H 547.626 3.58448 -5.7491 0
M  V30 5605 H 548.569 2.3715 -6.67207 0
M  V30 5606 H 548.977 2.69401 -4.96068 0
M  V30 5607 N 548.375 1.56261 0.205012 0
M  V30 5608 C 549.621 1.80306 0.9283 0
M  V30 5609 C 549.954 0.640932 1.83319 0
M  V30 5610 O 549.229 -0.359032 1.91158 0
M  V30 5611 C 549.512 3.14547 1.75306 0
M  V30 5612 C 549.365 4.41236 0.873562 0
M  V30 5613 C 550.684 3.45382 2.72762 0
M  V30 5614 H 547.803 0.655929 0.336044 0
M  V30 5615 H 550.445 1.88984 0.196211 0
M  V30 5616 H 548.595 3.0728 2.37721 0
M  V30 5617 H 550.267 4.60539 0.264887 0
M  V30 5618 H 548.51 4.33427 0.179773 0
M  V30 5619 H 549.181 5.31639 1.48541 0
M  V30 5620 H 551.657 3.52884 2.20481 0
M  V30 5621 H 550.533 4.40449 3.2756 0
M  V30 5622 H 550.794 2.68377 3.51321 0
M  V30 5623 N 549.853 -0.472356 1.50355 0
M  V30 5624 C 551.101 -1.22211 1.60962 0
M  V30 5625 C 551.422 -1.92497 0.311439 0
M  V30 5626 O 550.692 -1.8405 -0.671002 0
M  V30 5627 H 549.272 -0.454092 0.593135 0
M  V30 5628 H 551.934 -0.544977 1.87126 0
M  V30 5629 H 551.03 -1.9707 2.42012 0
M  V30 5630 N 551.331 -1.39911 -0.725443 0
M  V30 5631 C 552.747 -1.21725 -1.03224 0
M  V30 5632 C 552.947 -0.0855224 -2.01318 0
M  V30 5633 O 552.003 0.55976 -2.46217 0
M  V30 5634 C 553.316 -2.55511 -1.58539 0
M  V30 5635 C 554.864 -2.62439 -1.70572 0
M  V30 5636 C 555.339 -3.9647 -2.29294 0
M  V30 5637 N 556.83 -3.98159 -2.36692 0
M  V30 5638 C 557.565 -4.98647 -2.83088 0
M  V30 5639 N 557.061 -6.0953 -3.2931 0
M  V30 5640 N 558.854 -4.8602 -2.82384 0
M  V30 5641 H 551.005 -2.12267 -0.075048 0
M  V30 5642 H 553.268 -0.943136 -0.0959066 0
M  V30 5643 H 552.974 -3.38926 -0.939249 0
M  V30 5644 H 552.848 -2.75905 -2.57208 0
M  V30 5645 H 555.235 -1.79401 -2.34306 0
M  V30 5646 H 555.316 -2.45885 -0.705297 0
M  V30 5647 H 554.96 -4.79942 -1.66186 0
M  V30 5648 H 554.89 -4.10349 -3.30032 0
M  V30 5649 H 557.381 -3.18085 -2.04035 0
M  V30 5650 H 557.694 -6.82106 -3.6325 0
M  V30 5651 H 556.039 -6.1311 -3.27294 0
M  V30 5652 H 559.23 -3.98493 -2.45603 0
M  V30 5653 H 559.403 -5.64478 -3.18226 0
M  V30 5654 N 552.809 0.956637 -1.25245 0
M  V30 5655 C 554.055 1.70413 -1.11044 0
M  V30 5656 C 554.41 1.89275 0.345377 0
M  V30 5657 O 553.703 1.45116 1.25107 0
M  V30 5658 C 553.897 3.08996 -1.79601 0
M  V30 5659 C 553.726 3.03654 -3.317 0
M  V30 5660 C 552.496 3.07521 -4.00947 0
M  V30 5661 C 554.694 2.84975 -4.28128 0
M  V30 5662 N 552.676 2.92316 -5.39838 0
M  V30 5663 C 554.047 2.7818 -5.5409 0
M  V30 5664 C 556.102 2.6964 -4.18568 0
M  V30 5665 C 554.805 2.57616 -6.71585 0
M  V30 5666 C 556.831 2.50447 -5.35752 0
M  V30 5667 C 556.193 2.4437 -6.60653 0
M  V30 5668 H 552.292 0.631642 -0.461035 0
M  V30 5669 H 554.876 1.13331 -1.58317 0
M  V30 5670 H 553.047 3.64248 -1.34826 0
M  V30 5671 H 554.779 3.72515 -1.58161 0
M  V30 5672 H 551.534 3.16635 -3.52192 0
M  V30 5673 H 551.958 2.87923 -6.12723 0
M  V30 5674 H 556.6 2.73113 -3.22752 0
M  V30 5675 H 554.318 2.52885 -7.67512 0
M  V30 5676 H 557.904 2.39509 -5.30214 0
M  V30 5677 H 556.784 2.29712 -7.49801 0
M  V30 5678 N 554.287 1.06798 1.15896 0
M  V30 5679 C 555.197 0.694564 2.24083 0
M  V30 5680 C 556.213 -0.291687 1.71538 0
M  V30 5681 O 557.389 -0.139723 2.00915 0
M  V30 5682 C 554.454 0.0921014 3.46578 0
M  V30 5683 C 553.515 1.13087 4.14137 0
M  V30 5684 C 552.748 0.557064 5.30785 0
M  V30 5685 O 552.971 -0.628623 5.66925 0
M  V30 5686 O 551.905 1.29924 5.8771 0
M  V30 5687 H 555.731 1.59663 2.58344 0
M  V30 5688 H 553.316 0.840575 1.2351 0
M  V30 5689 H 555.198 -0.241884 4.20705 0
M  V30 5690 H 553.873 -0.78337 3.14078 0
M  V30 5691 H 552.78 1.51712 3.41957 0
M  V30 5692 H 554.113 1.97805 4.50704 0
M  V30 5693 N 555.766 -1.3263 0.851289 0
M  V30 5694 C 556.716 -2.26451 0.265302 0
M  V30 5695 C 557.7 -1.49814 -0.586899 0
M  V30 5696 O 558.892 -1.71525 -0.436834 0
M  V30 5697 C 556.021 -3.38895 -0.548212 0
M  V30 5698 C 555.107 -4.2292 0.316189 0
M  V30 5699 N 555.498 -4.86014 1.40084 0
M  V30 5700 C 553.796 -4.45876 0.105356 0
M  V30 5701 C 554.497 -5.48667 1.93235 0
M  V30 5702 N 553.473 -5.29455 1.232 0
M  V30 5703 H 557.275 -2.72757 1.09457 0
M  V30 5704 H 554.789 -1.4668 0.697047 0
M  V30 5705 H 556.786 -4.05111 -0.984402 0
M  V30 5706 H 555.446 -2.94135 -1.37531 0
M  V30 5707 H 556.457 -4.86212 1.78377 0
M  V30 5708 H 553.134 -4.11804 -0.687299 0
M  V30 5709 H 554.524 -6.08865 2.84135 0
M  V30 5710 N 557.244 -0.608902 -1.45362 0
M  V30 5711 C 558.492 -0.104401 -2.0183 0
M  V30 5712 C 558.813 1.27007 -1.47967 0
M  V30 5713 O 558.083 1.83924 -0.674455 0
M  V30 5714 H 556.663 -0.0356042 -0.746151 0
M  V30 5715 H 559.325 -0.790596 -1.78145 0
M  V30 5716 H 558.421 -0.0551793 -3.12051 0
M  V30 5717 N 558.722 1.53707 -0.348139 0
M  V30 5718 C 559.968 2.01286 0.247332 0
M  V30 5719 C 560.301 1.23546 1.49834 0
M  V30 5720 O 559.576 0.324331 1.91777 0
M  V30 5721 C 559.859 3.55768 0.556858 0
M  V30 5722 C 559.712 4.44216 -0.706564 0
M  V30 5723 C 561.031 4.1841 1.3646 0
M  V30 5724 H 558.15 0.731677 0.0884201 0
M  V30 5725 H 560.792 1.84106 -0.469584 0
M  V30 5726 H 558.942 3.70539 1.16761 0
M  V30 5727 H 560.614 4.41274 -1.34444 0
M  V30 5728 H 558.857 4.12892 -1.33052 0
M  V30 5729 H 559.528 5.50202 -0.445186 0
M  V30 5730 H 562.004 4.07365 0.848113 0
M  V30 5731 H 560.88 5.26563 1.54992 0
M  V30 5732 H 561.141 3.7333 2.36805 0
M  V30 5733 N 560.2 0.0768682 1.57412 0
M  V30 5734 C 561.13 -0.886026 2.16037 0
M  V30 5735 C 562.111 -1.30691 1.08876 0
M  V30 5736 O 563.296 -1.37705 1.36934 0
M  V30 5737 C 560.426 -2.1518 2.72608 0
M  V30 5738 C 559.38 -1.87015 3.8498 0
M  V30 5739 C 558.706 -3.20266 4.28175 0
M  V30 5740 C 560.006 -1.17143 5.08994 0
M  V30 5741 H 561.7 -0.397642 2.96748 0
M  V30 5742 H 559.246 -0.189823 1.42743 0
M  V30 5743 H 561.199 -2.82962 3.12266 0
M  V30 5744 H 559.923 -2.66269 1.89125 0
M  V30 5745 H 558.582 -1.21636 3.45833 0
M  V30 5746 H 558.23 -3.69207 3.41607 0
M  V30 5747 H 557.93 -3.0221 5.03927 0
M  V30 5748 H 559.454 -3.89237 4.70454 0
M  V30 5749 H 560.868 -1.75003 5.45937 0
M  V30 5750 H 559.265 -1.09328 5.90057 0
M  V30 5751 H 560.335 -0.151295 4.84664 0
M  V30 5752 N 561.678 -1.56367 -0.196722 0
M  V30 5753 C 562.908 -1.84371 -0.932254 0
M  V30 5754 C 563.316 -0.657013 -1.77426 0
M  V30 5755 O 562.659 0.383576 -1.79651 0
M  V30 5756 C 562.721 -3.06454 -1.87952 0
M  V30 5757 C 562.385 -4.40425 -1.21962 0
M  V30 5758 C 563.382 -5.16457 -0.597343 0
M  V30 5759 C 561.067 -4.8716 -1.22396 0
M  V30 5760 C 563.061 -6.37399 0.0117913 0
M  V30 5761 C 560.748 -6.08038 -0.610995 0
M  V30 5762 C 561.746 -6.83 0.00580487 0
M  V30 5763 O 561.434 -8.01589 0.609173 0
M  V30 5764 H 561.166 -0.616377 -0.277589 0
M  V30 5765 H 563.72 -2.04329 -0.209452 0
M  V30 5766 H 561.95 -2.82377 -2.64197 0
M  V30 5767 H 563.639 -3.21118 -2.48271 0
M  V30 5768 H 564.405 -4.81445 -0.586142 0
M  V30 5769 H 560.284 -4.2877 -1.69345 0
M  V30 5770 H 563.828 -6.9585 0.493836 0
M  V30 5771 H 559.725 -6.42519 -0.619693 0
M  V30 5772 H 560.493 -8.16935 0.505919 0
M  V30 5773 N 563.156 0.464375 -1.50603 0
M  V30 5774 C 564.089 1.58052 -1.64605 0
M  V30 5775 C 565.067 1.54914 -0.494016 0
M  V30 5776 O 566.251 1.74438 -0.714393 0
M  V30 5777 C 563.378 2.96634 -1.63481 0
M  V30 5778 C 562.424 3.17901 -2.84325 0
M  V30 5779 S 563.257 2.97083 -4.45536 0
M  V30 5780 C 564.413 4.37994 -4.47115 0
M  V30 5781 H 564.646 1.45937 -2.59017 0
M  V30 5782 H 562.179 0.652189 -1.39949 0
M  V30 5783 H 564.137 3.76527 -1.63517 0
M  V30 5784 H 562.798 3.06134 -0.702928 0
M  V30 5785 H 561.991 4.19158 -2.79862 0
M  V30 5786 H 561.593 2.45792 -2.81891 0
M  V30 5787 H 563.885 5.30743 -4.21091 0
M  V30 5788 H 564.828 4.47499 -5.48772 0
M  V30 5789 H 565.236 4.20386 -3.76743 0
M  V30 5790 N 564.634 1.40294 0.718013 0
M  V30 5791 C 565.581 1.40367 1.8321 0
M  V30 5792 C 566.551 0.260952 1.64037 0
M  V30 5793 O 567.736 0.458648 1.85205 0
M  V30 5794 C 564.876 1.26965 3.20895 0
M  V30 5795 C 563.989 2.50922 3.51656 0
M  V30 5796 C 563.124 2.29981 4.78834 0
M  V30 5797 C 562.163 3.49527 5.02491 0
M  V30 5798 N 561.3 3.27796 6.20882 0
M  V30 5799 H 566.14 2.35593 1.82482 0
M  V30 5800 H 563.677 1.17012 0.891444 0
M  V30 5801 H 565.635 1.17202 4.00399 0
M  V30 5802 H 564.265 0.353591 3.20858 0
M  V30 5803 H 563.317 2.71223 2.66725 0
M  V30 5804 H 564.629 3.39913 3.65048 0
M  V30 5805 H 563.783 2.17558 5.66351 0
M  V30 5806 H 562.522 1.38411 4.67647 0
M  V30 5807 H 561.527 3.6243 4.1343 0
M  V30 5808 H 562.752 4.42021 5.15553 0
M  V30 5809 H 560.698 2.38906 6.1095 0
M  V30 5810 H 560.615 4.10351 6.34939 0
M  V30 5811 H 561.883 3.19101 7.11193 0
M  V30 5812 N 566.112 -0.949982 1.2575 0
M  V30 5813 C 567.342 -1.72721 1.13363 0
M  V30 5814 C 567.75 -1.86562 -0.314842 0
M  V30 5815 O 567.093 -1.36621 -1.22803 0
M  V30 5816 C 567.155 -3.15695 1.7198 0
M  V30 5817 C 566.819 -3.25268 3.21014 0
M  V30 5818 C 567.816 -3.09222 4.17945 0
M  V30 5819 C 565.501 -3.4894 3.61312 0
M  V30 5820 C 567.495 -3.16701 5.53154 0
M  V30 5821 C 565.182 -3.56055 4.96657 0
M  V30 5822 C 566.18 -3.3995 5.92387 0
M  V30 5823 O 565.868 -3.46757 7.25269 0
M  V30 5824 H 565.6 -0.547888 0.395973 0
M  V30 5825 H 568.154 -1.20009 1.66694 0
M  V30 5826 H 566.384 -3.69791 1.13101 0
M  V30 5827 H 568.073 -3.75295 1.54624 0
M  V30 5828 H 568.839 -2.90798 3.88151 0
M  V30 5829 H 564.718 -3.60534 2.87291 0
M  V30 5830 H 568.262 -3.04048 6.27854 0
M  V30 5831 H 564.159 -3.73997 5.26115 0
M  V30 5832 H 564.927 -3.63358 7.33426 0
M  V30 5833 N 567.59 -1.07411 -1.15328 0
M  V30 5834 C 569.001 -0.820261 -1.67716 0
M  V30 5835 C 569.352 0.654539 -1.8496 0
M  V30 5836 O 568.477 1.50664 -1.55337 0
M  V30 5837 C 569.072 -1.48242 -3.04647 0
M  V30 5838 C 567.631 -1.27606 -3.5411 0
M  V30 5839 C 566.778 -1.5517 -2.29821 0
M  V30 5840 H 569.729 -1.23608 -0.995332 0
M  V30 5841 H 569.75 -0.903984 -3.69606 0
M  V30 5842 H 569.262 -2.55578 -2.92064 0
M  V30 5843 H 567.363 -0.222948 -3.71932 0
M  V30 5844 H 567.476 -1.99667 -4.35511 0
M  V30 5845 H 565.84 -0.972747 -2.35393 0
M  V30 5846 H 566.623 -2.63689 -2.19824 0
M  V30 5847 N 569.068 1.32177 -0.85831 0
M  V30 5848 C 570.314 1.97417 -0.46417 0
M  V30 5849 C 570.647 1.67746 0.978514 0
M  V30 5850 O 569.922 0.967654 1.68721 0
M  V30 5851 C 570.205 3.53069 -0.708094 0
M  V30 5852 C 570.058 3.92357 -2.19946 0
M  V30 5853 C 571.377 4.39783 -0.166881 0
M  V30 5854 H 568.496 0.717097 -0.17012 0
M  V30 5855 H 571.138 1.56499 -1.07741 0
M  V30 5856 H 569.288 3.88054 -0.186128 0
M  V30 5857 H 570.96 3.67533 -2.78779 0
M  V30 5858 H 569.203 3.41384 -2.67656 0
M  V30 5859 H 569.874 5.00841 -2.32082 0
M  V30 5860 H 572.35 4.11556 -0.613285 0
M  V30 5861 H 571.226 5.47671 -0.367093 0
M  V30 5862 H 571.487 4.32196 0.930559 0
M  V30 5863 N 570.547 0.616602 1.45037 0
M  V30 5864 C 571.793 0.123965 2.03022 0
M  V30 5865 C 572.148 -1.23508 1.47525 0
M  V30 5866 O 571.441 -1.80453 0.643981 0
M  V30 5867 C 571.635 0.0356829 3.57382 0
M  V30 5868 C 571.464 1.38462 4.27853 0
M  V30 5869 C 570.234 1.96766 4.65415 0
M  V30 5870 C 572.432 2.31536 4.59234 0
M  V30 5871 N 570.414 3.25046 5.20786 0
M  V30 5872 C 571.785 3.4442 5.15533 0
M  V30 5873 C 573.84 2.30796 4.41178 0
M  V30 5874 C 572.543 4.56742 5.55679 0
M  V30 5875 C 574.569 3.42171 4.82362 0
M  V30 5876 C 573.931 4.53778 5.38762 0
M  V30 5877 H 570.03 0.0889428 0.776925 0
M  V30 5878 H 572.614 0.816925 1.76733 0
M  V30 5879 H 570.785 -0.62652 3.83314 0
M  V30 5880 H 572.517 -0.464443 4.02026 0
M  V30 5881 H 569.272 1.4987 4.49261 0
M  V30 5882 H 569.696 3.90592 5.52962 0
M  V30 5883 H 574.338 1.45765 3.96878 0
M  V30 5884 H 572.056 5.42491 5.9894 0
M  V30 5885 H 575.642 3.42757 4.70116 0
M  V30 5886 H 574.522 5.38536 5.70043 0
M  V30 5887 N 572.025 -1.5352 0.356285 0
M  V30 5888 C 573.436 -1.86282 -0.12492 0
M  V30 5889 C 573.787 -1.27717 -1.48939 0
M  V30 5890 O 572.912 -0.595614 -2.08042 0
M  V30 5891 C 573.507 -3.37995 -0.23345 0
M  V30 5892 C 572.066 -3.70588 -0.658899 0
M  V30 5893 C 571.213 -2.76581 0.199596 0
M  V30 5894 H 574.164 -1.47901 0.575423 0
M  V30 5895 H 574.185 -3.65475 -1.0587 0
M  V30 5896 H 573.697 -3.8059 0.759776 0
M  V30 5897 H 571.798 -3.33544 -1.66069 0
M  V30 5898 H 571.911 -4.77076 -0.439957 0
M  V30 5899 H 570.275 -2.52552 -0.330076 0
M  V30 5900 H 571.058 -3.22008 1.19019 0
M  V30 5901 N 573.503 -0.0852151 -1.57369 0
M  V30 5902 C 574.919 0.271436 -1.57275 0
M  V30 5903 C 575.119 1.69109 -1.09565 0
M  V30 5904 O 574.175 2.40549 -0.767611 0
M  V30 5905 C 575.488 0.0688638 -3.00621 0
M  V30 5906 C 577.036 0.137373 -3.12698 0
M  V30 5907 C 577.511 -0.0370832 -4.57985 0
M  V30 5908 N 579.002 0.0180794 -4.63196 0
M  V30 5909 C 579.737 -0.0922953 -5.73326 0
M  V30 5910 N 579.233 -0.256948 -6.92323 0
M  V30 5911 N 581.026 -0.0342702 -5.6209 0
M  V30 5912 H 573.177 -1.01288 -1.86693 0
M  V30 5913 H 575.44 -0.396138 -0.861266 0
M  V30 5914 H 575.146 -0.911277 -3.39689 0
M  V30 5915 H 575.02 0.815442 -3.6828 0
M  V30 5916 H 577.407 1.10801 -2.73509 0
M  V30 5917 H 577.488 -0.640532 -2.47651 0
M  V30 5918 H 577.132 -1.00455 -4.97867 0
M  V30 5919 H 577.062 0.760392 -5.21081 0
M  V30 5920 H 579.553 0.143202 -3.77629 0
M  V30 5921 H 579.866 -0.332949 -7.72082 0
M  V30 5922 H 578.211 -0.292487 -6.94384 0
M  V30 5923 H 581.402 0.0931605 -4.68007 0
M  V30 5924 H 581.575 -0.12374 -6.47882 0
M  V30 5925 N 574.981 1.5647 0.188427 0
M  V30 5926 C 576.211 1.84863 0.922463 0
M  V30 5927 C 576.619 0.666413 1.77075 0
M  V30 5928 O 575.962 -0.374044 1.79852 0
M  V30 5929 C 576.024 3.07447 1.86324 0
M  V30 5930 C 575.688 4.41066 1.19625 0
M  V30 5931 C 576.685 5.16767 0.569946 0
M  V30 5932 C 574.37 4.87802 1.19811 0
M  V30 5933 C 576.364 6.37384 -0.045594 0
M  V30 5934 C 574.051 6.08353 0.57874 0
M  V30 5935 C 575.049 6.82987 -0.0420259 0
M  V30 5936 O 574.737 8.01254 -0.651675 0
M  V30 5937 H 574.469 0.61784 0.274316 0
M  V30 5938 H 577.023 2.04437 0.198613 0
M  V30 5939 H 575.253 2.83774 2.62696 0
M  V30 5940 H 576.942 3.2243 2.46564 0
M  V30 5941 H 577.708 4.81749 0.560601 0
M  V30 5942 H 573.587 4.29662 1.67069 0
M  V30 5943 H 577.131 6.95578 -0.530731 0
M  V30 5944 H 573.028 6.42838 0.58561 0
M  V30 5945 H 573.796 8.16655 -0.549236 0
M  V30 5946 N 576.459 -0.456382 1.50847 0
M  V30 5947 C 577.684 -1.2349 1.66628 0
M  V30 5948 C 578.109 -1.84715 0.355254 0
M  V30 5949 O 577.467 -1.67961 -0.682559 0
M  V30 5950 C 577.515 -2.30865 2.77009 0
M  V30 5951 O 576.619 -3.35882 2.39285 0
M  V30 5952 H 575.96 -0.36266 0.556214 0
M  V30 5953 H 578.49 -0.541374 1.97308 0
M  V30 5954 H 578.5 -2.75949 3.00526 0
M  V30 5955 H 577.175 -1.85677 3.72152 0
M  V30 5956 H 575.752 -2.96406 2.26269 0
M  V30 5957 N 577.937 -1.40673 -0.710563 0
M  V30 5958 C 578.9 -1.4108 -1.80635 0
M  V30 5959 C 579.9 -0.303783 -1.57904 0
M  V30 5960 O 581.09 -0.562937 -1.64853 0
M  V30 5961 C 578.222 -1.20748 -3.18799 0
M  V30 5962 H 579.415 -2.38612 -1.81671 0
M  V30 5963 H 576.968 -1.26595 -0.916704 0
M  V30 5964 H 577.703 -0.239964 -3.23411 0
M  V30 5965 H 577.488 -2.00941 -3.36698 0
M  V30 5966 H 578.978 -1.23833 -3.98817 0
M  V30 5967 N 579.415 0.9433 -1.26252 0
M  V30 5968 C 580.64 1.72898 -1.14547 0
M  V30 5969 C 581.065 1.85761 0.295743 0
M  V30 5970 O 580.423 1.3463 1.21427 0
M  V30 5971 C 580.471 3.11471 -1.8171 0
M  V30 5972 O 579.575 3.97336 -1.10445 0
M  V30 5973 H 578.916 0.530555 -0.399259 0
M  V30 5974 H 581.446 1.18159 -1.67032 0
M  V30 5975 H 581.456 3.61872 -1.88449 0
M  V30 5976 H 580.131 3.01425 -2.86558 0
M  V30 5977 H 578.708 3.55788 -1.11666 0
M  V30 5978 N 580.893 1.08022 1.14757 0
M  V30 5979 C 581.823 0.728248 2.21853 0
M  V30 5980 C 582.804 -0.287486 1.67653 0
M  V30 5981 O 583.989 -0.158727 1.9355 0
M  V30 5982 C 581.119 0.132549 3.47047 0
M  V30 5983 C 580.073 1.07619 4.14249 0
M  V30 5984 C 579.399 0.342907 5.33599 0
M  V30 5985 C 580.699 2.41268 4.63235 0
M  V30 5986 H 582.393 1.62365 2.51551 0
M  V30 5987 H 579.939 0.782125 1.20908 0
M  V30 5988 H 581.892 -0.125665 4.21213 0
M  V30 5989 H 580.616 -0.797971 3.16702 0
M  V30 5990 H 579.275 1.31944 3.42033 0
M  V30 5991 H 578.923 -0.59129 4.99513 0
M  V30 5992 H 578.623 0.971955 5.79506 0
M  V30 5993 H 580.147 0.0926538 6.1053 0
M  V30 5994 H 581.561 2.21232 5.28894 0
M  V30 5995 H 579.958 2.9983 5.19829 0
M  V30 5996 H 581.028 3.03079 3.78512 0
M  V30 5997 N 582.371 -1.3172 0.865308 0
M  V30 5998 C 583.303 -2.27545 0.274906 0
M  V30 5999 C 584.316 -1.52887 -0.559413 0
M  V30 6000 O 585.505 -1.74361 -0.382166 0
M  V30 6001 C 582.605 -3.33006 -0.629286 0
M  V30 6002 C 581.778 -4.37063 0.171553 0
M  V30 6003 C 580.837 -5.22044 -0.660052 0
M  V30 6004 O 579.863 -5.69129 -0.0897527 0
M  V30 6005 N 581.065 -5.45946 -1.97289 0
M  V30 6006 H 583.83 -2.78848 1.09836 0
M  V30 6007 H 581.391 -1.44693 0.726331 0
M  V30 6008 H 583.383 -3.86772 -1.19121 0
M  V30 6009 H 581.953 -2.81782 -1.35342 0
M  V30 6010 H 581.173 -3.83436 0.914919 0
M  V30 6011 H 582.461 -5.03662 0.721235 0
M  V30 6012 H 581.859 -5.0944 -2.45942 0
M  V30 6013 H 580.416 -6.02665 -2.4827 0
M  V30 6014 N 583.85 -0.624285 -1.44708 0
M  V30 6015 C 585.26 -0.2092 -1.85524 0
M  V30 6016 C 585.611 1.23783 -1.52225 0
M  V30 6017 O 584.736 1.94089 -0.956986 0
M  V30 6018 C 585.332 -0.372897 -3.36742 0
M  V30 6019 C 583.891 -0.012374 -3.76398 0
M  V30 6020 C 583.038 -0.68951 -2.68591 0
M  V30 6021 H 585.989 -0.829894 -1.35272 0
M  V30 6022 H 586.01 0.390134 -3.78495 0
M  V30 6023 H 585.522 -1.42615 -3.60947 0
M  V30 6024 H 583.623 1.03941 -3.57809 0
M  V30 6025 H 583.736 -0.417663 -4.77276 0
M  V30 6026 H 582.1 -0.125484 -2.54391 0
M  V30 6027 H 582.883 -1.74522 -2.9563 0
M  V30 6028 N 585.328 1.53329 -0.364422 0
M  V30 6029 C 586.574 2.01537 0.225969 0
M  V30 6030 C 586.907 1.25128 1.48515 0
M  V30 6031 O 586.182 0.344653 1.91422 0
M  V30 6032 C 586.465 3.56339 0.519092 0
M  V30 6033 C 586.318 4.43441 -0.753639 0
M  V30 6034 C 587.637 4.19833 1.32015 0
M  V30 6035 H 584.756 0.732573 0.0806548 0
M  V30 6036 H 587.398 1.83597 -0.489084 0
M  V30 6037 H 585.548 3.71756 1.12825 0
M  V30 6038 H 587.22 4.39823 -1.39116 0
M  V30 6039 H 585.463 4.11457 -1.37424 0
M  V30 6040 H 586.134 5.49699 -0.503517 0
M  V30 6041 H 588.61 4.08242 0.804859 0
M  V30 6042 H 587.486 5.28177 1.49399 0
M  V30 6043 H 587.747 3.75821 2.32832 0
M  V30 6044 N 586.806 0.0935595 1.57322 0
M  V30 6045 C 588.052 -0.571355 1.94585 0
M  V30 6046 C 588.385 -1.67929 0.975366 0
M  V30 6047 O 587.66 -1.94498 0.00816206 0
M  V30 6048 C 587.943 -1.12797 3.41978 0
M  V30 6049 C 587.796 -0.0251881 4.49793 0
M  V30 6050 C 589.115 -2.02682 3.90651 0
M  V30 6051 H 586.234 -0.206223 0.70756 0
M  V30 6052 H 588.876 0.163956 1.89291 0
M  V30 6053 H 587.026 -1.75461 3.4662 0
M  V30 6054 H 588.698 0.608979 4.57263 0
M  V30 6055 H 586.941 0.641399 4.29032 0
M  V30 6056 H 587.612 -0.455433 5.50118 0
M  V30 6057 H 590.088 -1.49925 3.88152 0
M  V30 6058 H 588.964 -2.38555 4.94351 0
M  V30 6059 H 589.225 -2.94362 3.29854 0
M  V30 6060 N 588.284 -1.56567 -0.180126 0
M  V30 6061 C 589.561 -1.7235 -0.924931 0
M  V30 6062 C 589.941 -0.652523 -2.00762 0
M  V30 6063 O 589.289 0.334115 -2.26044 0
M  V30 6064 C 589.499 -3.1523 -1.49771 0
M  V30 6065 C 590.847 -3.75921 -1.97405 0
M  V30 6066 O 591.871 -3.18452 -1.59583 0
M  V30 6067 O 590.73 -4.7681 -2.67048 0
M  V30 6068 H 587.824 -0.703502 -0.434758 0
M  V30 6069 H 590.37 -1.6886 -0.168647 0
M  V30 6070 H 589.142 -3.84656 -0.718027 0
M  V30 6071 H 588.765 -3.23009 -2.31842 0
M  V30 6072 N 589.762 0.448376 -1.51087 0
M  V30 6073 C 590.987 1.22605 -1.6728 0
M  V30 6074 C 591.412 1.84524 -0.365045 0
M  V30 6075 O 590.77 1.6832 0.673642 0
M  V30 6076 C 590.818 2.29393 -2.78229 0
M  V30 6077 O 589.922 3.34608 -2.41063 0
M  V30 6078 H 589.263 0.359705 -0.558129 0
M  V30 6079 H 591.793 0.530903 -1.97592 0
M  V30 6080 H 591.803 2.74352 -3.01986 0
M  V30 6081 H 590.478 1.83701 -3.73131 0
M  V30 6082 H 589.055 2.95202 -2.27838 0
M  V30 6083 N 591.24 1.41047 0.703093 0
M  V30 6084 C 592.656 1.23351 1.01275 0
M  V30 6085 C 592.856 0.11754 2.01157 0
M  V30 6086 O 591.912 -0.520518 2.47077 0
M  V30 6087 C 593.225 2.58001 1.54454 0
M  V30 6088 C 594.773 2.65119 1.66376 0
M  V30 6089 C 595.248 4.00067 2.22958 0
M  V30 6090 N 596.739 4.01875 2.30328 0
M  V30 6091 C 597.474 5.03087 2.75119 0
M  V30 6092 N 596.97 6.14692 3.19571 0
M  V30 6093 N 598.763 4.90451 2.74616 0
M  V30 6094 H 590.914 2.1236 0.0412686 0
M  V30 6095 H 593.177 0.944543 0.08089 0
M  V30 6096 H 592.883 3.40378 0.88521 0
M  V30 6097 H 592.757 2.79962 2.52786 0
M  V30 6098 H 595.144 1.83106 2.31422 0
M  V30 6099 H 595.225 2.46975 0.666089 0
M  V30 6100 H 594.869 4.82526 1.58529 0
M  V30 6101 H 594.799 4.15547 3.23462 0
M  V30 6102 H 597.29 3.21291 1.98949 0
M  V30 6103 H 597.603 6.87799 3.52352 0
M  V30 6104 H 595.948 6.18239 3.17498 0
M  V30 6105 H 599.139 4.0235 2.39233 0
M  V30 6106 H 599.312 5.6947 3.09206 0
M  V30 6107 N 592.718 -0.936591 1.26751 0
M  V30 6108 C 593.668 -2.0219 1.05371 0
M  V30 6109 C 594.652 -1.60893 -0.0154112 0
M  V30 6110 O 595.844 -1.75843 0.202085 0
M  V30 6111 C 592.973 -3.36222 0.693541 0
M  V30 6112 C 592.059 -3.8399 1.80035 0
M  V30 6113 N 592.45 -4.0436 3.03852 0
M  V30 6114 C 590.748 -4.12945 1.685 0
M  V30 6115 C 591.449 -4.44 3.75818 0
M  V30 6116 N 590.425 -4.50966 3.03531 0
M  V30 6117 H 594.227 -2.15958 1.99347 0
M  V30 6118 H 591.741 -1.12277 1.17335 0
M  V30 6119 H 593.738 -4.13625 0.521513 0
M  V30 6120 H 592.398 -3.23821 -0.238693 0
M  V30 6121 H 593.409 -3.9092 3.39709 0
M  V30 6122 H 590.086 -4.09308 0.822986 0
M  V30 6123 H 591.476 -4.67914 4.82189 0
M  V30 6124 N 594.196 -1.08629 -1.14182 0
M  V30 6125 C 595.126 -0.740003 -2.21464 0
M  V30 6126 C 596.107 0.278591 -1.67803 0
M  V30 6127 O 597.292 0.148461 -1.93632 0
M  V30 6128 C 594.422 -0.150952 -3.46972 0
M  V30 6129 C 593.376 -1.09815 -4.13672 0
M  V30 6130 C 592.702 -0.3712 -5.3341 0
M  V30 6131 C 594.002 -2.43722 -4.61949 0
M  V30 6132 H 595.696 -1.63697 -2.50686 0
M  V30 6133 H 593.242 -0.788526 -1.20492 0
M  V30 6134 H 595.195 0.103325 -4.21273 0
M  V30 6135 H 593.919 0.781164 -3.1712 0
M  V30 6136 H 592.578 -1.33756 -3.41328 0
M  V30 6137 H 592.226 0.564792 -4.99819 0
M  V30 6138 H 591.926 -1.00267 -5.78982 0
M  V30 6139 H 593.45 -0.12503 -6.10472 0
M  V30 6140 H 594.864 -2.24034 -5.27714 0
M  V30 6141 H 593.261 -3.02582 -5.18232 0
M  V30 6142 H 594.331 -3.05082 -3.76899 0
M  V30 6143 N 595.674 1.31259 -0.872281 0
M  V30 6144 C 596.902 2.00795 -0.498907 0
M  V30 6145 C 597.317 1.65464 0.909238 0
M  V30 6146 O 596.674 0.885073 1.59602 0
M  V30 6147 C 596.725 3.55625 -0.649092 0
M  V30 6148 O 596.446 3.89692 -2.00179 0
M  V30 6149 C 597.947 4.42434 -0.277034 0
M  V30 6150 H 595.167 0.642299 -0.194145 0
M  V30 6151 H 597.711 1.67438 -1.17408 0
M  V30 6152 H 595.866 3.87394 -0.0214402 0
M  V30 6153 H 596.28 4.84407 -2.01122 0
M  V30 6154 H 597.754 5.50299 -0.433064 0
M  V30 6155 H 598.231 4.32146 0.783989 0
M  V30 6156 H 598.837 4.16086 -0.880483 0
M  V30 6157 N 597.152 0.631951 1.44375 0
M  V30 6158 C 598.398 0.13697 2.02337 0
M  V30 6159 C 598.731 -1.23826 1.49602 0
M  V30 6160 O 598.006 -1.8221 0.680415 0
M  V30 6161 C 598.289 0.124536 3.59885 0
M  V30 6162 C 598.142 1.53217 4.229 0
M  V30 6163 C 599.461 -0.550481 4.36644 0
M  V30 6164 H 596.58 0.051247 0.735216 0
M  V30 6165 H 599.222 0.808581 1.71936 0
M  V30 6166 H 597.372 -0.44737 3.85916 0
M  V30 6167 H 599.044 2.15303 4.07973 0
M  V30 6168 H 597.287 2.0858 3.80364 0
M  V30 6169 H 597.958 1.4755 5.31914 0
M  V30 6170 H 600.434 -0.0641154 4.16051 0
M  V30 6171 H 599.31 -0.528371 5.46351 0
M  V30 6172 H 599.571 -1.62097 4.11311 0
M  V30 6173 N 598.631 -1.53133 0.372548 0
M  V30 6174 C 599.594 -2.24569 -0.458389 0
M  V30 6175 C 600.594 -1.25603 -1.00402 0
M  V30 6176 O 601.784 -1.49827 -0.888672 0
M  V30 6177 C 598.916 -2.98783 -1.6414 0
M  V30 6178 H 600.109 -2.99436 0.166799 0
M  V30 6179 H 597.662 -1.55805 0.124357 0
M  V30 6180 H 598.397 -2.28176 -2.30448 0
M  V30 6181 H 598.182 -3.71404 -1.25704 0
M  V30 6182 H 599.672 -3.53068 -2.23008 0
M  V30 6183 N 600.109 -0.101901 -1.5727 0
M  V30 6184 C 601.337 0.568392 -1.98939 0
M  V30 6185 C 601.752 1.61301 -0.981194 0
M  V30 6186 O 601.109 1.82478 0.0282869 0
M  V30 6187 C 601.16 1.20997 -3.40649 0
M  V30 6188 O 600.881 0.207129 -4.3761 0
M  V30 6189 C 602.382 1.96523 -3.97358 0
M  V30 6190 H 599.602 0.15186 -0.65359 0
M  V30 6191 H 602.146 -0.183198 -2.03678 0
M  V30 6192 H 600.301 1.91245 -3.36904 0
M  V30 6193 H 600.715 0.671071 -5.20189 0
M  V30 6194 H 602.189 2.36764 -4.98645 0
M  V30 6195 H 602.666 2.83376 -3.35552 0
M  V30 6196 H 603.272 1.31076 -4.04598 0
M  V30 6197 N 601.587 1.56661 0.17182 0
M  V30 6198 C 602.517 1.99401 1.21498 0
M  V30 6199 C 603.498 0.869516 1.46197 0
M  V30 6200 O 604.683 1.13556 1.57539 0
M  V30 6201 C 601.813 2.35346 2.55401 0
M  V30 6202 C 600.767 3.5075 2.45272 0
M  V30 6203 C 600.093 3.72437 3.8366 0
M  V30 6204 C 601.393 4.84216 1.95787 0
M  V30 6205 H 603.087 2.86792 0.859699 0
M  V30 6206 H 600.633 1.37977 0.412103 0
M  V30 6207 H 602.586 2.63843 3.2858 0
M  V30 6208 H 601.31 1.44864 2.92715 0
M  V30 6209 H 599.969 3.2238 1.74547 0
M  V30 6210 H 599.617 2.79246 4.18367 0
M  V30 6211 H 599.317 4.50087 3.77751 0
M  V30 6212 H 600.841 4.03334 4.58426 0
M  V30 6213 H 602.255 5.11592 2.5874 0
M  V30 6214 H 600.652 5.65498 2.00827 0
M  V30 6215 H 601.722 4.76243 0.912159 0
M  V30 6216 N 603.065 -0.440357 1.51323 0
M  V30 6217 C 603.975 -1.55955 1.75258 0
M  V30 6218 C 604.991 -1.61933 0.636687 0
M  V30 6219 O 606.167 -1.79231 0.918593 0
M  V30 6220 C 603.232 -2.9196 1.86977 0
M  V30 6221 C 602.293 -2.96122 3.10822 0
M  V30 6222 C 601.526 -4.2564 3.21973 0
M  V30 6223 O 601.749 -5.17851 2.39137 0
M  V30 6224 O 600.683 -4.36025 4.14929 0
M  V30 6225 H 604.509 -1.38673 2.70191 0
M  V30 6226 H 602.094 -0.623055 1.35788 0
M  V30 6227 H 603.976 -3.72682 1.96688 0
M  V30 6228 H 602.651 -3.09375 0.952307 0
M  V30 6229 H 601.558 -2.14366 3.06591 0
M  V30 6230 H 602.891 -2.83651 4.02247 0
M  V30 6231 N 604.543 -1.41418 -0.695603 0
M  V30 6232 C 605.453 -1.45622 -1.83933 0
M  V30 6233 C 606.469 -0.346825 -1.70508 0
M  V30 6234 O 607.645 -0.59454 -1.92424 0
M  V30 6235 C 604.71 -1.33627 -3.19914 0
M  V30 6236 C 603.771 -2.54882 -3.45447 0
M  V30 6237 C 603.004 -2.43449 -4.7494 0
M  V30 6238 O 603.227 -1.45905 -5.51424 0
M  V30 6239 O 602.161 -3.33206 -5.01256 0
M  V30 6240 H 605.987 -2.42114 -1.83342 0
M  V30 6241 H 603.572 -1.22956 -0.848658 0
M  V30 6242 H 605.454 -1.29221 -4.01098 0
M  V30 6243 H 604.129 -0.402508 -3.21188 0
M  V30 6244 H 603.036 -2.64865 -2.64192 0
M  V30 6245 H 604.369 -3.47087 -3.48987 0
M  V30 6246 N 606.021 0.929856 -1.27246 0
M  V30 6247 C 607.437 1.20542 -1.04603 0
M  V30 6248 C 607.637 2.00276 0.221754 0
M  V30 6249 O 606.693 2.34835 0.927833 0
M  V30 6250 C 608.006 1.95566 -2.28417 0
M  V30 6251 C 609.554 2.08513 -2.33433 0
M  V30 6252 C 610.029 2.86943 -3.5697 0
M  V30 6253 N 611.52 2.94512 -3.57515 0
M  V30 6254 C 612.255 3.55656 -4.49774 0
M  V30 6255 N 611.751 4.18209 -5.52334 0
M  V30 6256 N 613.544 3.53038 -4.37402 0
M  V30 6257 H 605.695 0.397113 -2.08655 0
M  V30 6258 H 607.958 0.238277 -0.917566 0
M  V30 6259 H 607.664 1.44395 -3.20691 0
M  V30 6260 H 607.538 2.9619 -2.33563 0
M  V30 6261 H 609.925 2.58872 -1.41666 0
M  V30 6262 H 610.006 1.07117 -2.32292 0
M  V30 6263 H 609.65 2.37268 -4.49072 0
M  V30 6264 H 609.58 3.8862 -3.55362 0
M  V30 6265 H 612.071 2.50053 -2.83341 0
M  V30 6266 H 612.384 4.62796 -6.18902 0
M  V30 6267 H 610.729 4.16761 -5.56179 0
M  V30 6268 H 613.92 3.0337 -3.56489 0
M  V30 6269 H 614.093 4.004 -5.09493 0
M  V30 6270 N 607.499 1.09233 1.13605 0
M  V30 6271 C 608.91 0.846839 1.6639 0
M  V30 6272 C 609.261 -0.625031 1.85978 0
M  V30 6273 O 608.386 -1.48173 1.57714 0
M  V30 6274 C 608.981 1.5307 3.0225 0
M  V30 6275 C 607.54 1.33223 3.52035 0
M  V30 6276 C 606.687 1.58806 2.27323 0
M  V30 6277 H 609.638 1.25175 0.975541 0
M  V30 6278 H 609.659 0.96267 3.68121 0
M  V30 6279 H 609.171 2.60192 2.87961 0
M  V30 6280 H 607.272 0.282091 3.71531 0
M  V30 6281 H 607.385 2.0657 4.32279 0
M  V30 6282 H 605.749 1.01007 2.33815 0
M  V30 6283 H 606.532 2.67153 2.15602 0
M  V30 6284 N 608.977 -1.30795 0.87923 0
M  V30 6285 C 610.224 -1.96362 0.494786 0
M  V30 6286 C 610.552 -1.69448 -0.954868 0
M  V30 6287 O 609.807 -0.988711 -1.68888 0
M  V30 6288 C 610.106 -3.50287 0.709476 0
M  V30 6289 C 609.772 -3.9724 2.13333 0
M  V30 6290 C 608.434 -4.09772 2.52271 0
M  V30 6291 C 610.786 -4.21807 3.06151 0
M  V30 6292 C 608.114 -4.44227 3.83248 0
M  V30 6293 C 610.466 -4.5773 4.36654 0
M  V30 6294 C 609.13 -4.68469 4.75492 0
M  V30 6295 H 608.4 -0.71854 0.181055 0
M  V30 6296 H 611.047 -1.55764 1.11399 0
M  V30 6297 H 609.352 -3.91799 0.0072 0
M  V30 6298 H 611.049 -3.99082 0.391703 0
M  V30 6299 H 607.639 -3.87988 1.82107 0
M  V30 6300 H 611.823 -4.11611 2.77291 0
M  V30 6301 H 607.079 -4.50741 4.13089 0
M  V30 6302 H 611.253 -4.7569 5.08617 0
M  V30 6303 H 608.88 -4.94923 5.77022 0
M  V30 6304 N 610.455 -0.639598 -1.44038 0
M  V30 6305 C 611.701 -0.147698 -2.02261 0
M  V30 6306 C 612.034 1.23031 -1.50256 0
M  V30 6307 O 611.309 1.81847 -0.690068 0
M  V30 6308 C 611.592 -0.14362 -3.59813 0
M  V30 6309 C 611.445 -1.55458 -4.22082 0
M  V30 6310 C 612.764 0.527317 -4.36929 0
M  V30 6311 H 609.883 -0.0551453 -0.734934 0
M  V30 6312 H 612.525 -0.817688 -1.71505 0
M  V30 6313 H 610.675 0.426898 -3.86147 0
M  V30 6314 H 612.347 -2.17464 -4.06826 0
M  V30 6315 H 610.59 -2.10594 -3.79253 0
M  V30 6316 H 611.261 -1.50369 -5.31124 0
M  V30 6317 H 613.737 0.0420504 -4.16079 0
M  V30 6318 H 612.613 0.499389 -5.46624 0
M  V30 6319 H 612.874 1.59914 -4.12165 0
M  V30 6320 N 611.933 1.52934 -0.380664 0
M  V30 6321 C 613.182 2.00651 0.205477 0
M  V30 6322 C 613.495 1.27164 1.48623 0
M  V30 6323 O 614.701 1.65547 2.15189 0
M  V30 6324 C 613.157 3.57479 0.416726 0
M  V30 6325 C 612.765 4.39857 -0.850268 0
M  V30 6326 C 614.509 4.13509 0.959702 0
M  V30 6327 C 612.416 5.88269 -0.607773 0
M  V30 6328 H 611.346 0.749684 0.0805614 0
M  V30 6329 H 613.997 1.76508 -0.501732 0
M  V30 6330 H 612.379 3.77836 1.18557 0
M  V30 6331 H 613.553 4.31269 -1.62307 0
M  V30 6332 H 611.868 3.95005 -1.31756 0
M  V30 6333 H 614.465 5.22039 1.15669 0
M  V30 6334 H 614.808 3.69054 1.92626 0
M  V30 6335 H 615.341 3.9701 0.250645 0
M  V30 6336 H 612.08 6.3703 -1.54509 0
M  V30 6337 H 611.6 5.99667 0.126247 0
M  V30 6338 H 613.279 6.46558 -0.239014 0
M  V30 6339 N 613.412 0.11024 1.57214 0
M  V30 6340 C 614.658 -0.550684 1.9518 0
M  V30 6341 C 614.991 -1.66885 0.993122 0
M  V30 6342 O 614.266 -1.94479 0.0287907 0
M  V30 6343 C 614.549 -1.09163 3.43155 0
M  V30 6344 C 614.402 0.0225198 4.49794 0
M  V30 6345 C 615.721 -1.98527 3.92778 0
M  V30 6346 H 612.84 -0.198706 0.709708 0
M  V30 6347 H 615.482 0.184024 1.89107 0
M  V30 6348 H 613.632 -1.71775 3.48462 0
M  V30 6349 H 615.304 0.657443 4.56591 0
M  V30 6350 H 613.547 0.686868 4.28328 0
M  V30 6351 H 614.218 -0.39706 5.5057 0
M  V30 6352 H 616.694 -1.458 3.8972 0
M  V30 6353 H 615.57 -2.33298 4.96853 0
M  V30 6354 H 615.831 -2.90846 3.32958 0
M  V30 6355 N 614.89 -1.56749 -0.16351 0
M  V30 6356 C 615.8 -2.00255 -1.2221 0
M  V30 6357 C 616.816 -0.915194 -1.47987 0
M  V30 6358 O 617.992 -1.22342 -1.59982 0
M  V30 6359 C 615.057 -2.36035 -2.53946 0
M  V30 6360 C 614.118 -3.58637 -2.35962 0
M  V30 6361 C 613.351 -3.92701 -3.61416 0
M  V30 6362 O 613.574 -3.27632 -4.66919 0
M  V30 6363 O 612.508 -4.86019 -3.55062 0
M  V30 6364 H 616.334 -2.90586 -0.882794 0
M  V30 6365 H 613.919 -1.44721 -0.370978 0
M  V30 6366 H 615.801 -2.59982 -3.31643 0
M  V30 6367 H 614.476 -1.48863 -2.8744 0
M  V30 6368 H 613.383 -3.39898 -1.5627 0
M  V30 6369 H 614.716 -4.46374 -2.0739 0
M  V30 6370 N 616.368 0.432326 -1.51554 0
M  V30 6371 C 617.593 1.20824 -1.68571 0
M  V30 6372 C 618.018 1.84126 -0.384596 0
M  V30 6373 O 617.376 1.69025 0.655751 0
M  V30 6374 C 617.424 2.26429 -2.80646 0
M  V30 6375 O 616.528 3.32032 -2.44598 0
M  V30 6376 H 615.869 0.353765 -0.561913 0
M  V30 6377 H 618.399 0.509916 -1.98144 0
M  V30 6378 H 618.409 2.71133 -3.04878 0
M  V30 6379 H 617.084 1.79733 -3.75058 0
M  V30 6380 H 615.661 2.92769 -2.30956 0
M  V30 6381 N 617.846 1.41785 0.688094 0
M  V30 6382 C 619.257 1.3701 1.26828 0
M  V30 6383 C 619.608 0.056835 1.96118 0
M  V30 6384 O 618.733 -0.84475 1.99231 0
M  V30 6385 C 619.328 2.48168 2.30648 0
M  V30 6386 C 617.887 2.46766 2.84224 0
M  V30 6387 C 617.034 2.27633 1.58361 0
M  V30 6388 H 619.985 1.51192 0.482351 0
M  V30 6389 H 620.006 2.17655 3.121 0
M  V30 6390 H 619.518 3.43735 1.80188 0
M  V30 6391 H 617.619 1.54978 3.3884 0
M  V30 6392 H 617.732 3.43342 3.34145 0
M  V30 6393 H 616.096 1.75648 1.84445 0
M  V30 6394 H 616.879 3.25238 1.09887 0
M  V30 6395 N 619.324 -0.923095 1.27737 0
M  V30 6396 C 620.601 -1.64989 1.05062 0
M  V30 6397 C 620.981 -2.07018 -0.413124 0
M  V30 6398 O 620.329 -1.80797 -1.39731 0
M  V30 6399 C 620.539 -2.84847 2.01652 0
M  V30 6400 C 621.887 -3.56083 2.31279 0
M  V30 6401 O 622.911 -2.94981 1.99662 0
M  V30 6402 O 621.77 -4.66182 2.85196 0
M  V30 6403 H 618.864 -0.723357 0.400853 0
M  V30 6404 H 621.41 -0.973224 1.3902 0
M  V30 6405 H 620.182 -2.50814 3.00347 0
M  V30 6406 H 619.805 -3.60231 1.68284 0
M  V30 6407 N 620.802 -1.09834 -1.13024 0
M  V30 6408 C 622.213 -0.855651 -1.65938 0
M  V30 6409 C 622.564 0.615159 -1.86307 0
M  V30 6410 O 621.689 1.47335 -1.58497 0
M  V30 6411 C 622.284 -1.5467 -3.01434 0
M  V30 6412 C 620.843 -1.35088 -3.51323 0
M  V30 6413 C 619.99 -1.6001 -2.26478 0
M  V30 6414 H 622.941 -1.25691 -0.968889 0
M  V30 6415 H 622.962 -0.982179 -3.67605 0
M  V30 6416 H 622.474 -2.61715 -2.86578 0
M  V30 6417 H 620.575 -0.30179 -3.71376 0
M  V30 6418 H 620.688 -2.0886 -4.31178 0
M  V30 6419 H 619.052 -1.02246 -2.33276 0
M  V30 6420 H 619.835 -2.68293 -2.14182 0
M  V30 6421 N 622.28 1.30327 -0.886154 0
M  V30 6422 C 623.528 1.9571 -0.504195 0
M  V30 6423 C 623.849 1.70294 0.950003 0
M  V30 6424 O 623.119 1.02718 1.66811 0
M  V30 6425 H 621.699 0.72412 -0.183465 0
M  V30 6426 H 624.361 1.58835 -1.12949 0
M  V30 6427 H 623.457 3.04704 -0.675431 0
M  V30 6428 N 623.758 0.647228 1.43697 0
M  V30 6429 C 624.986 0.16575 2.06235 0
M  V30 6430 C 625.401 -1.1662 1.48476 0
M  V30 6431 O 624.758 -1.7187 0.613762 0
M  V30 6432 C 624.809 0.0621651 3.61447 0
M  V30 6433 O 624.53 1.34146 4.17057 0
M  V30 6434 C 626.031 -0.446102 4.4105 0
M  V30 6435 H 623.251 0.0871158 0.665321 0
M  V30 6436 H 625.795 0.886183 1.84301 0
M  V30 6437 H 623.95 -0.608794 3.82587 0
M  V30 6438 H 624.364 1.19675 5.10664 0
M  V30 6439 H 625.838 -0.46755 5.50016 0
M  V30 6440 H 626.315 -1.47627 4.13646 0
M  V30 6441 H 626.921 0.192159 4.24866 0
M  V30 6442 N 625.236 -1.5273 0.388769 0
M  V30 6443 C 626.484 -2.01174 -0.193208 0
M  V30 6444 C 626.805 -1.27705 -1.47365 0
M  V30 6445 O 626.075 -0.396966 -1.91836 0
M  V30 6446 H 624.655 -0.743287 -0.0743871 0
M  V30 6447 H 627.317 -1.87826 0.520336 0
M  V30 6448 H 626.413 -3.09477 -0.403803 0
M  V30 6449 N 626.714 -0.118576 -1.57153 0
M  V30 6450 C 627.962 0.538461 -1.94795 0
M  V30 6451 C 628.283 1.67243 -1.00274 0
M  V30 6452 O 627.553 1.95811 -0.0589692 0
M  V30 6453 H 626.133 0.201904 -0.719197 0
M  V30 6454 H 628.795 -0.187418 -1.93997 0
M  V30 6455 H 627.891 0.933315 -2.97818 0
M  V30 6456 N 628.193 1.56834 0.155195 0
M  V30 6457 C 629.433 1.84701 0.875488 0
M  V30 6458 C 629.797 0.701747 1.78716 0
M  V30 6459 O 630.998 0.861263 2.54629 0
M  V30 6460 C 629.269 3.1773 1.63654 0
M  V30 6461 S 630.828 3.67128 2.40338 0
M  V30 6462 H 627.646 0.647856 0.292923 0
M  V30 6463 H 630.248 1.95026 0.136024 0
M  V30 6464 H 628.952 3.99059 0.958117 0
M  V30 6465 H 628.483 3.10388 2.41708 0
M  V30 6466 H 630.498 3.35739 3.65368 0
M  V30 6467 N 629.671 -0.424282 1.51781 0
M  V30 6468 C 630.917 -1.17434 1.6534 0
M  V30 6469 C 631.25 -1.90549 0.374806 0
M  V30 6470 O 630.525 -1.84145 -0.626179 0
M  V30 6471 C 630.808 -2.18093 2.86544 0
M  V30 6472 C 630.661 -1.48975 4.24413 0
M  V30 6473 C 631.98 -3.18934 3.03264 0
M  V30 6474 H 629.099 -0.425566 0.601716 0
M  V30 6475 H 631.741 -0.461921 1.84299 0
M  V30 6476 H 629.891 -2.78849 2.7051 0
M  V30 6477 H 631.563 -0.914551 4.52143 0
M  V30 6478 H 629.806 -0.791893 4.26511 0
M  V30 6479 H 630.477 -2.22347 5.05238 0
M  V30 6480 H 632.953 -2.68243 3.18096 0
M  V30 6481 H 631.829 -3.86645 3.89611 0
M  V30 6482 H 632.09 -3.85793 2.15908 0
M  V30 6483 N 631.149 -1.42148 -0.680565 0
M  V30 6484 C 632.56 -1.3768 -1.26099 0
M  V30 6485 C 632.911 -0.0672348 -1.96085 0
M  V30 6486 O 632.036 0.834172 -1.99676 0
M  V30 6487 C 632.631 -2.49387 -2.29328 0
M  V30 6488 C 631.19 -2.4827 -2.82911 0
M  V30 6489 C 630.337 -2.2847 -1.57152 0
M  V30 6490 H 633.288 -1.51446 -0.474326 0
M  V30 6491 H 633.309 -2.19307 -3.10941 0
M  V30 6492 H 632.821 -3.44686 -1.78363 0
M  V30 6493 H 630.922 -1.56773 -3.38013 0
M  V30 6494 H 631.035 -3.45109 -3.3232 0
M  V30 6495 H 629.399 -1.76623 -1.83511 0
M  V30 6496 H 630.182 -3.25816 -1.0816 0
M  V30 6497 N 632.627 0.916307 -1.28225 0
M  V30 6498 C 633.575 2.03977 -1.11786 0
M  V30 6499 C 634.569 1.69358 -0.0378265 0
M  V30 6500 O 635.775 1.78925 -0.196405 0
M  V30 6501 H 632.15 0.66829 -0.344809 0
M  V30 6502 H 634.121 2.14985 -2.06939 0
M  V30 6503 C 632.87 3.38518 -0.7938 0
M  V30 6504 H 632.193 3.65649 -1.61682 0
M  V30 6505 H 633.633 4.17864 -0.718719 0
M  V30 6506 C 632.092 3.33134 0.502353 0
M  V30 6507 O 632.622 3.71281 1.53341 0
M  V30 6508 N 630.828 2.86229 0.502147 0
M  V30 6509 H 630.375 2.55382 -0.337338 0
M  V30 6510 H 630.333 2.83009 1.36942 0
M  V30 6511 N 634.105 1.10431 1.1244 0
M  V30 6512 C 635.333 0.868872 1.87772 0
M  V30 6513 C 635.748 -0.580645 1.7965 0
M  V30 6514 O 635.105 -1.40031 1.17036 0
M  V30 6515 C 635.156 1.30855 3.36986 0
M  V30 6516 O 634.877 2.70123 3.44914 0
M  V30 6517 C 636.378 1.107 4.29256 0
M  V30 6518 H 633.598 0.311868 0.59412 0
M  V30 6519 H 636.142 1.46897 1.42273 0
M  V30 6520 H 634.297 0.752126 3.80029 0
M  V30 6521 H 634.711 2.88923 4.37748 0
M  V30 6522 H 636.185 1.46378 5.32238 0
M  V30 6523 H 636.662 0.0456228 4.39176 0
M  V30 6524 H 637.268 1.64988 3.91994 0
M  V30 6525 N 635.583 -1.29855 0.893053 0
M  V30 6526 C 636.829 -1.96116 0.516349 0
M  V30 6527 C 637.162 -1.70281 -0.933695 0
M  V30 6528 O 636.437 -1.01205 -1.66096 0
M  V30 6529 C 636.72 -3.51068 0.801455 0
M  V30 6530 C 636.573 -3.86387 2.30272 0
M  V30 6531 C 637.892 -4.39186 0.283423 0
M  V30 6532 H 635.011 -0.712335 0.189072 0
M  V30 6533 H 637.653 -1.53587 1.11852 0
M  V30 6534 H 635.803 -3.87424 0.288949 0
M  V30 6535 H 637.475 -3.60012 2.88425 0
M  V30 6536 H 635.718 -3.34167 2.76613 0
M  V30 6537 H 636.389 -4.94512 2.45279 0
M  V30 6538 H 638.865 -4.09785 0.722187 0
M  V30 6539 H 637.741 -5.46505 0.512169 0
M  V30 6540 H 638.002 -4.34511 -0.815643 0
M  V30 6541 N 637.061 -0.65484 -1.43351 0
M  V30 6542 C 638.472 -0.248506 -1.85039 0
M  V30 6543 C 638.823 1.20526 -1.54816 0
M  V30 6544 O 637.948 1.92016 -0.99794 0
M  V30 6545 C 638.543 -0.444241 -3.35875 0
M  V30 6546 C 637.102 -0.0922108 -3.76287 0
M  V30 6547 C 636.249 -0.746327 -2.67068 0
M  V30 6548 H 639.2 -0.8584 -1.33481 0
M  V30 6549 H 639.221 0.309762 -3.79237 0
M  V30 6550 H 638.733 -1.50239 -3.5784 0
M  V30 6551 H 636.834 0.96328 -3.59933 0
M  V30 6552 H 636.947 -0.518807 -4.76283 0
M  V30 6553 H 635.311 -0.179416 -2.54067 0
M  V30 6554 H 636.094 -1.80754 -2.91861 0
M  V30 6555 N 638.539 1.52521 -0.396863 0
M  V30 6556 C 639.779 2.03583 0.182578 0
M  V30 6557 C 640.143 1.2766 1.43412 0
M  V30 6558 O 641.344 1.68884 2.09121 0
M  V30 6559 C 639.615 3.54724 0.436519 0
M  V30 6560 S 641.174 4.27598 0.985163 0
M  V30 6561 H 637.992 0.709186 0.0507529 0
M  V30 6562 H 640.594 1.87693 -0.546955 0
M  V30 6563 H 639.298 4.07567 -0.481343 0
M  V30 6564 H 638.829 3.74834 1.19427 0
M  V30 6565 H 640.844 4.41393 2.26686 0
M  V30 6566 N 640.017 0.126909 1.57088 0
M  V30 6567 C 641.433 -0.229641 1.57939 0
M  V30 6568 C 641.633 -1.66145 1.1401 0
M  V30 6569 O 640.689 -2.3843 0.831119 0
M  V30 6570 C 642.002 0.0108648 3.00698 0
M  V30 6571 C 643.55 -0.054418 3.12953 0
M  V30 6572 C 644.025 0.158497 4.57726 0
M  V30 6573 N 645.516 0.104735 4.63082 0
M  V30 6574 C 646.251 0.24427 5.72879 0
M  V30 6575 N 645.747 0.440415 6.91399 0
M  V30 6576 N 647.54 0.183286 5.61801 0
M  V30 6577 H 639.691 1.06203 1.83942 0
M  V30 6578 H 641.954 0.418834 0.85046 0
M  V30 6579 H 641.66 1.00102 3.37154 0
M  V30 6580 H 641.534 -0.717512 3.70313 0
M  V30 6581 H 643.921 -1.0351 2.7635 0
M  V30 6582 H 644.002 0.705967 2.45865 0
M  V30 6583 H 643.646 1.13619 4.95028 0
M  V30 6584 H 643.576 -0.62197 5.22914 0
M  V30 6585 H 646.067 -0.0430298 3.77876 0
M  V30 6586 H 646.38 0.537536 7.70928 0
M  V30 6587 H 644.725 0.476488 6.93365 0
M  V30 6588 H 647.916 0.0309561 4.6809 0
M  V30 6589 H 648.089 0.295471 6.47326 0
M  V30 6590 N 641.495 -1.56914 -0.146875 0
M  V30 6591 C 642.911 -1.51582 -0.499518 0
M  V30 6592 C 643.111 -0.83535 -1.83369 0
M  V30 6593 O 642.167 -0.405932 -2.49216 0
M  V30 6594 C 643.48 -2.96349 -0.509711 0
M  V30 6595 C 645.028 -3.07288 -0.595217 0
M  V30 6596 C 645.503 -4.53562 -0.636071 0
M  V30 6597 N 646.994 -4.57906 -0.69829 0
M  V30 6598 C 647.729 -5.68462 -0.750886 0
M  V30 6599 N 647.225 -6.88588 -0.76282 0
M  V30 6600 N 649.018 -5.56496 -0.791777 0
M  V30 6601 H 641.169 -1.99547 0.727656 0
M  V30 6602 H 643.432 -0.910113 0.265327 0
M  V30 6603 H 643.138 -3.4939 0.402409 0
M  V30 6604 H 643.012 -3.52307 -1.34758 0
M  V30 6605 H 645.399 -2.54266 -1.49776 0
M  V30 6606 H 645.48 -2.54373 0.2698 0
M  V30 6607 H 645.124 -5.07222 0.262313 0
M  V30 6608 H 645.054 -5.04259 -1.51758 0
M  V30 6609 H 647.545 -3.71429 -0.696362 0
M  V30 6610 H 647.858 -7.68598 -0.804804 0
M  V30 6611 H 646.203 -6.91148 -0.730694 0
M  V30 6612 H 649.394 -4.61562 -0.779624 0
M  V30 6613 H 649.567 -6.42671 -0.829301 0
M  V30 6614 N 642.974 0.416227 -1.52004 0
M  V30 6615 C 643.906 1.52552 -1.71058 0
M  V30 6616 C 644.919 1.51693 -0.59102 0
M  V30 6617 O 646.108 1.56087 -0.865973 0
M  V30 6618 C 643.208 2.91455 -1.72937 0
M  V30 6619 C 642.381 3.16584 -3.01816 0
M  V30 6620 C 641.44 4.35322 -2.95603 0
M  V30 6621 O 640.466 4.32947 -3.6952 0
M  V30 6622 N 641.668 5.40049 -2.12903 0
M  V30 6623 H 644.433 1.36604 -2.66757 0
M  V30 6624 H 641.994 0.60544 -1.50153 0
M  V30 6625 H 643.986 3.68944 -1.66321 0
M  V30 6626 H 642.556 3.00895 -0.847418 0
M  V30 6627 H 641.776 2.27203 -3.22137 0
M  V30 6628 H 643.064 3.30213 -3.87088 0
M  V30 6629 H 642.462 5.44823 -1.52265 0
M  V30 6630 H 641.019 6.16308 -2.1215 0
M  V30 6631 N 644.452 1.42507 0.673017 0
M  V30 6632 C 645.677 1.4668 1.46627 0
M  V30 6633 C 646.102 0.080066 1.8793 0
M  V30 6634 O 645.46 -0.921879 1.56112 0
M  V30 6635 C 645.508 2.40091 2.69051 0
M  V30 6636 O 644.612 1.8735 3.67387 0
M  V30 6637 H 643.953 0.496908 0.44043 0
M  V30 6638 H 646.483 1.87215 0.825334 0
M  V30 6639 H 646.493 2.56731 3.17101 0
M  V30 6640 H 645.168 3.4084 2.3833 0
M  V30 6641 H 643.745 1.80274 3.26429 0
M  V30 6642 N 645.93 -0.909495 1.28709 0
M  V30 6643 C 646.878 -2.03381 1.12866 0
M  V30 6644 C 647.872 -1.69335 0.0468074 0
M  V30 6645 O 649.078 -1.78819 0.205891 0
M  V30 6646 H 645.453 -0.666452 0.348348 0
M  V30 6647 H 647.424 -2.13885 2.08077 0
M  V30 6648 C 646.173 -3.38092 0.811742 0
M  V30 6649 H 645.496 -3.64786 1.63619 0
M  V30 6650 H 646.936 -4.17477 0.740869 0
M  V30 6651 C 645.395 -3.33395 -0.484679 0
M  V30 6652 O 645.925 -3.72089 -1.5137 0
M  V30 6653 N 644.131 -2.86491 -0.486961 0
M  V30 6654 H 643.678 -2.55199 0.350877 0
M  V30 6655 H 643.636 -2.83731 -1.3544 0
M  V30 6656 N 647.408 -1.11026 -1.11852 0
M  V30 6657 C 648.358 -0.733836 -2.15868 0
M  V30 6658 C 649.342 0.26001 -1.58785 0
M  V30 6659 O 650.534 0.0677901 -1.7687 0
M  V30 6660 C 647.663 -0.173948 -3.42859 0
M  V30 6661 C 646.749 -1.1952 -4.0691 0
M  V30 6662 N 647.14 -2.38797 -4.45881 0
M  V30 6663 C 645.438 -1.03714 -4.33773 0
M  V30 6664 C 646.139 -3.03894 -4.96007 0
M  V30 6665 N 645.115 -2.31389 -4.91894 0
M  V30 6666 H 648.917 -1.64171 -2.43773 0
M  V30 6667 H 646.431 -0.988877 -1.28822 0
M  V30 6668 H 648.428 0.113836 -4.16745 0
M  V30 6669 H 647.088 0.728568 -3.16421 0
M  V30 6670 H 648.099 -2.76281 -4.38051 0
M  V30 6671 H 644.776 -0.190694 -4.17064 0
M  V30 6672 H 646.166 -4.05389 -5.35826 0
M  V30 6673 N 648.886 1.2938 -0.899927 0
M  V30 6674 C 650.114 1.99691 -0.541386 0
M  V30 6675 C 650.529 1.67355 0.873936 0
M  V30 6676 O 649.886 0.918728 1.57688 0
M  V30 6677 C 649.937 3.54168 -0.72438 0
M  V30 6678 O 649.658 3.85359 -2.08399 0
M  V30 6679 C 651.159 4.41746 -0.370819 0
M  V30 6680 H 648.379 0.638037 -0.207726 0
M  V30 6681 H 650.923 1.6491 -1.20934 0
M  V30 6682 H 649.078 3.87261 -0.103607 0
M  V30 6683 H 649.492 4.80032 -2.11352 0
M  V30 6684 H 650.966 5.49256 -0.549693 0
M  V30 6685 H 651.443 4.33712 0.692148 0
M  V30 6686 H 652.049 4.14125 -0.968543 0
M  V30 6687 N 650.364 0.662433 1.43002 0
M  V30 6688 C 651.611 0.179591 2.01702 0
M  V30 6689 C 651.939 -1.20964 1.52309 0
M  V30 6690 O 651.194 -1.82343 0.7106 0
M  V30 6691 C 651.493 0.149363 3.57088 0
M  V30 6692 C 651.159 1.48158 4.25864 0
M  V30 6693 C 649.821 1.84638 4.44367 0
M  V30 6694 C 652.173 2.35953 4.64732 0
M  V30 6695 C 649.501 3.08561 4.99006 0
M  V30 6696 C 651.853 3.59176 5.20745 0
M  V30 6697 C 650.517 3.95841 5.37463 0
M  V30 6698 H 649.787 0.0657172 0.73808 0
M  V30 6699 H 652.434 0.854968 1.71355 0
M  V30 6700 H 650.739 -0.609491 3.8703 0
M  V30 6701 H 652.436 -0.241241 4.00274 0
M  V30 6702 H 649.026 1.18777 4.11813 0
M  V30 6703 H 653.21 2.09058 4.50121 0
M  V30 6704 H 648.466 3.37005 5.10135 0
M  V30 6705 H 652.64 4.27417 5.49807 0
M  V30 6706 H 650.267 4.91942 5.79566 0
M  V30 6707 N 651.842 -1.52309 0.404946 0
M  V30 6708 C 653.067 -2.06666 -0.1743 0
M  V30 6709 C 653.492 -1.27341 -1.38441 0
M  V30 6710 O 652.85 -0.302539 -1.78758 0
M  V30 6711 C 652.898 -3.57014 -0.507262 0
M  V30 6712 O 652.002 -3.80144 -1.59889 0
M  V30 6713 H 651.343 -0.663807 -0.0160273 0
M  V30 6714 H 653.873 -1.96297 0.576937 0
M  V30 6715 H 653.883 -4.00724 -0.767098 0
M  V30 6716 H 652.558 -4.14184 0.377368 0
M  V30 6717 H 651.135 -3.48316 -1.33155 0
M  V30 6718 N 653.32 -0.135238 -1.57019 0
M  V30 6719 C 654.545 0.529343 -2.00531 0
M  V30 6720 C 654.97 1.58391 -1.01459 0
M  V30 6721 O 654.328 1.81296 0.0113986 0
M  V30 6722 C 654.376 1.11748 -3.42848 0
M  V30 6723 O 653.48 2.23267 -3.46736 0
M  V30 6724 H 652.821 0.130669 -0.651016 0
M  V30 6725 H 655.351 -0.228503 -2.0332 0
M  V30 6726 H 655.361 1.44905 -3.81401 0
M  V30 6727 H 654.036 0.345147 -4.14465 0
M  V30 6728 H 652.613 1.91428 -3.20015 0
M  V30 6729 N 654.798 1.5699 0.138552 0
M  V30 6730 C 656.046 1.83446 0.848053 0
M  V30 6731 C 656.367 0.71744 1.81322 0
M  V30 6732 O 655.637 -0.260228 1.94164 0
M  V30 6733 H 654.217 0.676792 0.316166 0
M  V30 6734 H 656.879 1.94462 0.130538 0
M  V30 6735 H 655.975 2.78677 1.40518 0
M  V30 6736 N 656.276 -0.40816 1.52223 0
M  V30 6737 C 657.553 -1.16807 1.56893 0
M  V30 6738 C 657.933 -2.08169 0.350537 0
M  V30 6739 O 657.281 -2.18684 -0.662536 0
M  V30 6740 C 657.491 -1.94451 2.8981 0
M  V30 6741 C 658.839 -2.50484 3.42845 0
M  V30 6742 O 659.863 -2.0463 2.91556 0
M  V30 6743 O 658.722 -3.34192 4.3241 0
M  V30 6744 H 655.816 -0.533382 0.632007 0
M  V30 6745 H 658.362 -0.414862 1.64551 0
M  V30 6746 H 657.134 -1.27527 3.69936 0
M  V30 6747 H 656.757 -2.76775 2.85449 0
M  V30 6748 N 657.755 -1.42862 -0.66545 0
M  V30 6749 C 659.001 -1.44043 -1.42757 0
M  V30 6750 C 659.334 -0.0599629 -1.94107 0
M  V30 6751 O 658.609 0.917286 -1.71511 0
M  V30 6752 C 658.892 -2.47266 -2.61786 0
M  V30 6753 C 658.745 -3.94539 -2.16007 0
M  V30 6754 C 660.064 -2.47365 -3.64003 0
M  V30 6755 H 657.183 -0.524506 -0.517748 0
M  V30 6756 H 659.825 -1.74335 -0.755466 0
M  V30 6757 H 657.975 -2.21565 -3.19126 0
M  V30 6758 H 659.647 -4.31254 -1.63762 0
M  V30 6759 H 657.89 -4.07957 -1.47491 0
M  V30 6760 H 658.561 -4.62357 -3.01546 0
M  V30 6761 H 661.037 -2.70243 -3.16399 0
M  V30 6762 H 659.913 -3.21552 -4.44854 0
M  V30 6763 H 660.174 -1.50299 -4.15767 0
M  V30 6764 N 659.233 0.902656 -1.29189 0
M  V30 6765 C 660.196 1.98797 -1.14071 0
M  V30 6766 C 661.196 1.60615 -0.0770549 0
M  V30 6767 O 662.386 1.71165 -0.323753 0
M  V30 6768 C 659.518 3.32688 -0.743739 0
M  V30 6769 H 660.711 2.13637 -2.10473 0
M  V30 6770 H 658.264 1.08678 -1.12334 0
M  V30 6771 H 658.999 3.23549 0.220554 0
M  V30 6772 H 658.784 3.61765 -1.51223 0
M  V30 6773 H 660.274 4.12337 -0.660935 0
M  V30 6774 N 660.711 1.11618 1.11262 0
M  V30 6775 C 662.122 0.881942 1.64556 0
M  V30 6776 C 662.473 -0.585442 1.87262 0
M  V30 6777 O 661.598 -1.44795 1.60821 0
M  V30 6778 C 662.193 1.59446 2.98935 0
M  V30 6779 C 660.752 1.40661 3.4913 0
M  V30 6780 C 659.899 1.63593 2.23903 0
M  V30 6781 H 662.85 1.27217 0.94877 0
M  V30 6782 H 662.871 1.04054 3.65996 0
M  V30 6783 H 662.383 2.66241 2.82378 0
M  V30 6784 H 660.484 0.360835 3.70849 0
M  V30 6785 H 660.597 2.15693 4.27801 0
M  V30 6786 H 658.961 1.05944 2.3162 0
M  V30 6787 H 659.744 2.71666 2.09886 0
M  V30 6788 N 662.189 -1.289 0.906776 0
M  V30 6789 C 663.419 -1.99112 0.551168 0
M  V30 6790 C 663.827 -1.67998 -0.870243 0
M  V30 6791 O 663.17 -0.92525 -1.58697 0
M  V30 6792 C 663.232 -3.53162 0.672065 0
M  V30 6793 C 662.896 -4.07849 2.06174 0
M  V30 6794 C 663.893 -4.22212 3.0337 0
M  V30 6795 C 661.578 -4.4271 2.37304 0
M  V30 6796 C 663.572 -4.70678 4.29815 0
M  V30 6797 C 661.259 -4.90871 3.6399 0
M  V30 6798 C 662.257 -5.04811 4.6006 0
M  V30 6799 O 661.945 -5.51925 5.84495 0
M  V30 6800 H 661.677 -0.642728 0.209469 0
M  V30 6801 H 664.231 -1.65234 1.22012 0
M  V30 6802 H 662.461 -3.86662 -0.05394 0
M  V30 6803 H 664.15 -4.046 0.324579 0
M  V30 6804 H 664.916 -3.9556 2.80637 0
M  V30 6805 H 660.795 -4.31114 1.63283 0
M  V30 6806 H 664.339 -4.81474 5.04806 0
M  V30 6807 H 660.236 -5.16961 3.86551 0
M  V30 6808 H 661.004 -5.70225 5.87185 0
M  V30 6809 N 663.667 -0.670007 -1.42649 0
M  V30 6810 C 664.895 -0.19854 -2.05945 0
M  V30 6811 C 665.31 1.14243 -1.50313 0
M  V30 6812 O 664.667 1.70872 -0.641027 0
M  V30 6813 C 664.718 -0.11966 -3.61302 0
M  V30 6814 O 664.439 -1.40764 -4.1487 0
M  V30 6815 C 665.94 0.375878 -4.41704 0
M  V30 6816 H 663.16 -0.0976894 -0.663851 0
M  V30 6817 H 665.704 -0.915392 -1.82868 0
M  V30 6818 H 663.859 0.547851 -3.83507 0
M  V30 6819 H 664.273 -1.27784 -5.08696 0
M  V30 6820 H 665.747 0.379988 -5.50691 0
M  V30 6821 H 666.224 1.41028 -4.15942 0
M  V30 6822 H 666.83 -0.259727 -4.24506 0
M  V30 6823 N 665.145 1.52092 -0.413018 0
M  V30 6824 C 666.092 2.27119 0.410558 0
M  V30 6825 C 667.062 1.29692 1.03774 0
M  V30 6826 O 668.247 1.58561 1.06128 0
M  V30 6827 C 665.387 3.09863 1.51918 0
M  V30 6828 C 664.5 4.22252 0.912528 0
M  V30 6829 C 663.635 4.92348 1.99417 0
M  V30 6830 C 662.674 5.96694 1.36466 0
M  V30 6831 N 661.811 6.60292 2.38661 0
M  V30 6832 H 666.651 2.97067 -0.235661 0
M  V30 6833 H 664.188 1.46542 -0.128055 0
M  V30 6834 H 666.146 3.56144 2.17295 0
M  V30 6835 H 664.776 2.42078 2.13537 0
M  V30 6836 H 663.828 3.80113 0.147697 0
M  V30 6837 H 665.14 4.9709 0.412717 0
M  V30 6838 H 664.294 5.42054 2.72512 0
M  V30 6839 H 663.033 4.17087 2.52764 0
M  V30 6840 H 662.038 5.46304 0.61906 0
M  V30 6841 H 663.263 6.73899 0.838827 0
M  V30 6842 H 661.209 5.87858 2.91134 0
M  V30 6843 H 661.126 7.30816 1.93503 0
M  V30 6844 H 662.394 7.14635 3.11314 0
M  V30 6845 N 666.623 0.143563 1.56945 0
M  V30 6846 C 667.553 -0.7936 2.196 0
M  V30 6847 C 668.534 -1.25955 1.14321 0
M  V30 6848 O 669.719 -1.31773 1.42651 0
M  V30 6849 C 666.849 -2.03424 2.81489 0
M  V30 6850 C 665.803 -1.70519 3.92565 0
M  V30 6851 C 665.129 -3.01817 4.41373 0
M  V30 6852 C 666.429 -0.95449 5.13504 0
M  V30 6853 H 668.123 -0.271423 2.98167 0
M  V30 6854 H 665.669 -0.12911 1.4342 0
M  V30 6855 H 667.622 -2.69463 3.23987 0
M  V30 6856 H 666.346 -2.58008 2.00248 0
M  V30 6857 H 665.005 -1.06859 3.5068 0
M  V30 6858 H 664.653 -3.54386 3.56959 0
M  V30 6859 H 664.353 -2.80565 5.16292 0
M  V30 6860 H 665.877 -3.68934 4.86539 0
M  V30 6861 H 667.291 -1.5169 5.52868 0
M  V30 6862 H 665.688 -0.842035 5.94163 0
M  V30 6863 H 666.758 0.0544033 4.84869 0
M  V30 6864 N 668.101 -1.57061 -0.130224 0
M  V30 6865 C 669.341 -1.86071 -0.845993 0
M  V30 6866 C 669.705 -0.73009 -1.77577 0
M  V30 6867 O 670.906 -0.901663 -2.53226 0
M  V30 6868 C 669.177 -3.20293 -1.58579 0
M  V30 6869 S 670.736 -3.70905 -2.34467 0
M  V30 6870 H 667.554 -0.652434 -0.282579 0
M  V30 6871 H 670.156 -1.95218 -0.10498 0
M  V30 6872 H 668.86 -4.00533 -0.894509 0
M  V30 6873 H 668.391 -3.14195 -2.36739 0
M  V30 6874 H 670.406 -3.41509 -3.59981 0
M  V30 6875 N 669.579 0.400081 -1.52437 0
M  V30 6876 C 670.819 1.15526 -1.68622 0
M  V30 6877 C 671.183 1.87533 -0.411744 0
M  V30 6878 O 672.384 2.6501 -0.449804 0
M  V30 6879 C 670.655 2.11618 -2.88015 0
M  V30 6880 S 672.214 2.95121 -3.24729 0
M  V30 6881 H 669.032 0.39123 -0.593683 0
M  V30 6882 H 671.634 0.441255 -1.90455 0
M  V30 6883 H 670.338 1.5742 -3.79008 0
M  V30 6884 H 669.869 2.87544 -2.68481 0
M  V30 6885 H 671.884 4.13653 -2.74055 0
M  V30 6886 N 671.057 1.43213 0.657864 0
M  V30 6887 C 672.004 1.48011 1.77092 0
M  V30 6888 C 672.974 0.330291 1.62783 0
M  V30 6889 O 674.159 0.536787 1.83094 0
M  V30 6890 C 671.299 1.40461 3.15222 0
M  V30 6891 C 670.412 2.65612 3.40697 0
M  V30 6892 C 669.547 2.50083 4.68649 0
M  V30 6893 C 668.586 3.70525 4.87214 0
M  V30 6894 N 667.723 3.53835 6.0642 0
M  V30 6895 H 672.563 2.43121 1.72326 0
M  V30 6896 H 670.1 1.20687 0.841013 0
M  V30 6897 H 672.058 1.34079 3.95068 0
M  V30 6898 H 670.688 0.489359 3.19069 0
M  V30 6899 H 669.74 2.82292 2.54982 0
M  V30 6900 H 671.052 3.5509 3.50303 0
M  V30 6901 H 670.206 2.41383 5.56614 0
M  V30 6902 H 668.945 1.58121 4.61356 0
M  V30 6903 H 667.95 3.79639 3.97686 0
M  V30 6904 H 669.175 4.63489 4.96341 0
M  V30 6905 H 667.121 2.64604 6.00267 0
M  V30 6906 H 667.038 4.36912 6.16963 0
M  V30 6907 H 668.306 3.48978 6.97019 0
M  V30 6908 N 672.536 -0.895792 1.29666 0
M  V30 6909 C 673.784 -1.64339 1.17631 0
M  V30 6910 C 674.105 -1.93099 -0.271643 0
M  V30 6911 O 673.375 -1.55981 -1.18518 0
M  V30 6912 H 671.955 -0.609162 0.432354 0
M  V30 6913 H 674.617 -1.07389 1.62646 0
M  V30 6914 H 673.713 -2.59815 1.72924 0
M  V30 6915 N 674.014 -1.12206 -1.10668 0
M  V30 6916 C 675.261 -0.875875 -1.82578 0
M  V30 6917 C 675.589 0.598342 -1.85068 0
M  V30 6918 O 674.844 1.45818 -1.3052 0
M  V30 6919 C 675.143 -1.39276 -3.29146 0
M  V30 6920 C 674.809 -2.8816 -3.46806 0
M  V30 6921 C 673.471 -3.28813 -3.51334 0
M  V30 6922 C 675.823 -3.8401 -3.52399 0
M  V30 6923 C 673.151 -4.64028 -3.59019 0
M  V30 6924 C 675.503 -5.19053 -3.61617 0
M  V30 6925 C 674.167 -5.59252 -3.64408 0
M  V30 6926 H 673.437 -0.320505 -0.6681 0
M  V30 6927 H 676.084 -1.40184 -1.30464 0
M  V30 6928 H 674.389 -0.787207 -3.8381 0
M  V30 6929 H 676.086 -1.17851 -3.83291 0
M  V30 6930 H 672.676 -2.55716 -3.43958 0
M  V30 6931 H 676.86 -3.53698 -3.48154 0
M  V30 6932 H 672.116 -4.94568 -3.59461 0
M  V30 6933 H 676.29 -5.93152 -3.64889 0
M  V30 6934 H 673.917 -6.64017 -3.70116 0
M  V30 6935 N 675.492 1.28418 -0.913599 0
M  V30 6936 C 676.732 1.96756 -0.553771 0
M  V30 6937 C 677.096 1.70334 0.886013 0
M  V30 6938 O 678.297 2.32242 1.35341 0
M  V30 6939 C 676.568 3.47041 -0.854249 0
M  V30 6940 S 678.127 4.34667 -0.600816 0
M  V30 6941 H 674.945 0.680831 -0.204915 0
M  V30 6942 H 677.547 1.55947 -1.17902 0
M  V30 6943 H 676.251 3.63766 -1.90007 0
M  V30 6944 H 675.782 3.92797 -0.217651 0
M  V30 6945 H 677.797 4.93166 0.547906 0
M  V30 6946 N 676.97 0.677563 1.42291 0
M  V30 6947 C 678.219 0.198173 2.00724 0
M  V30 6948 C 678.532 -1.20325 1.54211 0
M  V30 6949 O 679.738 -1.77916 2.05081 0
M  V30 6950 C 678.194 0.303432 3.58619 0
M  V30 6951 C 677.802 1.70909 4.14119 0
M  V30 6952 C 679.546 -0.117103 4.24338 0
M  V30 6953 C 677.453 1.76696 5.64387 0
M  V30 6954 H 676.383 0.070329 0.750713 0
M  V30 6955 H 679.034 0.843147 1.62982 0
M  V30 6956 H 677.416 -0.409482 3.93877 0
M  V30 6957 H 678.59 2.44931 3.90315 0
M  V30 6958 H 676.905 2.07771 3.6086 0
M  V30 6959 H 679.502 -0.0940471 5.34617 0
M  V30 6960 H 679.845 -1.15283 4.00019 0
M  V30 6961 H 680.378 0.5449 3.9405 0
M  V30 6962 H 677.117 2.7826 5.93508 0
M  V30 6963 H 676.637 1.07034 5.90173 0
M  V30 6964 H 678.316 1.52166 6.28852 0
M  V30 6965 N 678.448 -1.51871 0.421078 0
M  V30 6966 C 679.725 -1.9447 -0.20993 0
M  V30 6967 C 680.105 -1.35875 -1.61558 0
M  V30 6968 O 679.453 -0.539294 -2.22045 0
M  V30 6969 C 679.663 -3.48402 -0.204165 0
M  V30 6970 C 681.011 -4.2254 -0.417696 0
M  V30 6971 O 682.035 -3.55074 -0.282999 0
M  V30 6972 O 680.894 -5.422 -0.684239 0
M  V30 6973 H 677.988 -0.815283 -0.138718 0
M  V30 6974 H 680.534 -1.62832 0.477884 0
M  V30 6975 H 679.306 -3.83464 0.779183 0
M  V30 6976 H 678.929 -3.86436 -0.935576 0
M  V30 6977 N 679.926 -0.151884 -1.56866 0
M  V30 6978 C 681.175 0.497992 -1.95456 0
M  V30 6979 C 681.488 1.6569 -1.03953 0
M  V30 6980 O 682.694 2.37173 -1.32142 0
M  V30 6981 C 681.15 0.93732 -3.4748 0
M  V30 6982 C 680.758 -0.194921 -4.47576 0
M  V30 6983 C 682.502 1.55671 -3.94926 0
M  V30 6984 C 680.409 0.26295 -5.90815 0
M  V30 6985 H 679.339 0.189811 -0.729717 0
M  V30 6986 H 681.99 -0.237011 -1.81963 0
M  V30 6987 H 680.372 1.72773 -3.56322 0
M  V30 6988 H 681.546 -0.971951 -4.50433 0
M  V30 6989 H 679.861 -0.72303 -4.10075 0
M  V30 6990 H 682.458 1.91099 -4.99385 0
M  V30 6991 H 682.801 2.44748 -3.36755 0
M  V30 6992 H 683.334 0.831109 -3.89021 0
M  V30 6993 H 680.073 -0.592568 -6.52816 0
M  V30 6994 H 679.593 1.00575 -5.91308 0
M  V30 6995 H 681.272 0.713333 -6.43056 0
M  V30 6996 N 681.404 1.57128 0.121893 0
M  V30 6997 C 682.334 2.03165 1.15092 0
M  V30 6998 C 683.315 0.915587 1.43356 0
M  V30 6999 O 684.5 1.1851 1.53847 0
M  V30 7000 C 681.63 2.43352 2.47784 0
M  V30 7001 C 680.584 3.58376 2.33989 0
M  V30 7002 C 679.91 3.84454 3.71617 0
M  V30 7003 C 681.21 4.90199 1.80283 0
M  V30 7004 H 682.904 2.89382 0.768023 0
M  V30 7005 H 680.45 1.39218 0.367998 0
M  V30 7006 H 682.403 2.74163 3.20019 0
M  V30 7007 H 681.127 1.54103 2.87958 0
M  V30 7008 H 679.786 3.2777 1.64202 0
M  V30 7009 H 679.434 2.92414 4.09271 0
M  V30 7010 H 679.134 4.61877 3.6324 0
M  V30 7011 H 680.658 4.17714 4.45362 0
M  V30 7012 H 682.072 5.19565 2.42333 0
M  V30 7013 H 680.469 5.71601 1.82735 0
M  V30 7014 H 681.539 4.78904 0.760184 0
M  V30 7015 N 682.882 -0.391992 1.52647 0
M  V30 7016 C 683.829 -1.47866 1.77213 0
M  V30 7017 C 684.799 -1.54286 0.615223 0
M  V30 7018 O 685.984 -1.7059 0.854622 0
M  V30 7019 C 683.124 -2.85129 1.94411 0
M  V30 7020 C 682.237 -2.87883 3.22098 0
M  V30 7021 C 681.372 -4.16553 3.29631 0
M  V30 7022 C 680.411 -4.13348 4.51453 0
M  V30 7023 N 679.548 -5.33619 4.56284 0
M  V30 7024 H 684.388 -1.26219 2.6995 0
M  V30 7025 H 681.925 -0.612367 1.33748 0
M  V30 7026 H 683.883 -3.64833 2.02367 0
M  V30 7027 H 682.513 -3.05232 1.05038 0
M  V30 7028 H 681.565 -2.00567 3.23229 0
M  V30 7029 H 682.877 -2.81382 4.11856 0
M  V30 7030 H 682.031 -5.0466 3.36753 0
M  V30 7031 H 680.77 -4.25773 2.37842 0
M  V30 7032 H 679.775 -3.23629 4.44459 0
M  V30 7033 H 681 -4.05754 5.44555 0
M  V30 7034 H 678.946 -5.43474 3.67385 0
M  V30 7035 H 678.863 -5.29182 5.3991 0
M  V30 7036 H 680.131 -6.23632 4.67657 0
M  V30 7037 N 684.36 -1.4356 -0.65026 0
M  V30 7038 C 685.307 -1.48948 -1.76304 0
M  V30 7039 C 686.277 -0.338919 -1.62605 0
M  V30 7040 O 687.462 -0.54649 -1.82806 0
M  V30 7041 C 684.602 -1.42131 -3.14472 0
M  V30 7042 C 683.715 -2.67415 -3.39284 0
M  V30 7043 C 682.85 -2.52565 -4.67316 0
M  V30 7044 C 681.889 -3.73103 -4.85243 0
M  V30 7045 N 681.026 -3.57046 -6.04535 0
M  V30 7046 H 685.866 -2.44032 -1.71034 0
M  V30 7047 H 683.403 -1.21131 -0.834601 0
M  V30 7048 H 685.361 -1.36172 -3.94351 0
M  V30 7049 H 683.991 -0.506273 -3.18805 0
M  V30 7050 H 683.043 -2.8364 -2.53481 0
M  V30 7051 H 684.355 -3.56943 -3.48415 0
M  V30 7052 H 683.509 -2.44331 -5.55326 0
M  V30 7053 H 682.248 -1.60566 -4.60511 0
M  V30 7054 H 681.253 -3.81743 -3.95667 0
M  V30 7055 H 682.478 -4.66115 -4.93876 0
M  V30 7056 H 680.424 -2.67783 -5.98856 0
M  V30 7057 H 680.341 -4.40178 -6.14638 0
M  V30 7058 H 681.609 -3.52669 -6.95158 0
M  V30 7059 N 685.838 0.888903 -1.30139 0
M  V30 7060 C 686.768 2.01046 -1.18755 0
M  V30 7061 C 687.749 1.69916 -0.0791438 0
M  V30 7062 O 688.934 1.92445 -0.260498 0
M  V30 7063 C 686.064 3.36109 -0.874518 0
M  V30 7064 C 685.018 3.81486 -1.94043 0
M  V30 7065 C 684.344 5.13796 -1.48047 0
M  V30 7066 C 685.644 4.00637 -3.35093 0
M  V30 7067 H 687.338 2.10828 -2.12584 0
M  V30 7068 H 684.884 1.01298 -1.02346 0
M  V30 7069 H 686.837 4.14089 -0.781548 0
M  V30 7070 H 685.561 3.26449 0.0994519 0
M  V30 7071 H 684.22 3.05731 -2.02297 0
M  V30 7072 H 683.868 5.0056 -0.494878 0
M  V30 7073 H 683.568 5.45127 -2.19341 0
M  V30 7074 H 685.092 5.94305 -1.40121 0
M  V30 7075 H 686.506 4.69067 -3.2962 0
M  V30 7076 H 684.903 4.43339 -4.04438 0
M  V30 7077 H 685.973 3.0462 -3.77273 0
M  V30 7078 N 687.317 1.12792 1.10072 0
M  V30 7079 C 688.28 0.802264 2.14701 0
M  V30 7080 C 689.28 -0.18515 1.59731 0
M  V30 7081 O 690.47 0.041109 1.74151 0
M  V30 7082 C 687.602 0.19285 3.40354 0
M  V30 7083 H 688.795 1.72932 2.45019 0
M  V30 7084 H 686.348 0.931662 1.25498 0
M  V30 7085 H 687.083 -0.743748 3.15656 0
M  V30 7086 H 686.868 0.903827 3.81541 0
M  V30 7087 H 688.358 -0.0183704 4.17596 0
M  V30 7088 N 688.795 -1.27931 0.920396 0
M  V30 7089 C 690.211 -1.47085 0.619537 0
M  V30 7090 C 690.411 -1.83463 -0.833291 0
M  V30 7091 O 689.467 -1.94363 -1.61181 0
M  V30 7092 C 690.78 -2.56878 1.56314 0
M  V30 7093 C 692.328 -2.70743 1.57058 0
M  V30 7094 C 692.803 -3.83687 2.50097 0
M  V30 7095 N 694.294 -3.9105 2.48262 0
M  V30 7096 C 695.029 -4.77842 3.16945 0
M  V30 7097 N 694.525 -5.69176 3.94982 0
M  V30 7098 N 696.318 -4.71509 3.06 0
M  V30 7099 H 688.469 -1.02601 1.85975 0
M  V30 7100 H 690.732 -0.511682 0.798051 0
M  V30 7101 H 690.438 -2.36923 2.59923 0
M  V30 7102 H 690.312 -3.54117 1.29928 0
M  V30 7103 H 692.699 -2.90083 0.541832 0
M  V30 7104 H 692.78 -1.74015 1.8749 0
M  V30 7105 H 692.424 -3.65101 3.53077 0
M  V30 7106 H 692.354 -4.79827 2.16964 0
M  V30 7107 H 694.845 -3.25738 1.91581 0
M  V30 7108 H 695.158 -6.32245 4.44394 0
M  V30 7109 H 693.503 -5.68995 3.99086 0
M  V30 7110 H 696.694 -3.99151 2.44533 0
M  V30 7111 H 696.867 -5.38933 3.59799 0
M  V30 7112 N 690.273 -0.685099 -1.4193 0
M  V30 7113 C 691.519 -0.211971 -2.01689 0
M  V30 7114 C 691.852 1.18189 -1.54094 0
M  V30 7115 O 691.127 1.79559 -0.747572 0
M  V30 7116 C 691.41 -0.258019 -3.59174 0
M  V30 7117 C 691.263 -1.68807 -4.16922 0
M  V30 7118 C 692.582 0.388044 -4.38386 0
M  V30 7119 H 689.701 -0.0784987 -0.732808 0
M  V30 7120 H 692.343 -0.871837 -1.68816 0
M  V30 7121 H 690.493 0.303832 -3.8731 0
M  V30 7122 H 692.165 -2.30296 -3.99702 0
M  V30 7123 H 690.408 -2.22553 -3.72361 0
M  V30 7124 H 691.079 -1.6719 -5.26072 0
M  V30 7125 H 693.555 -0.0903432 -4.16002 0
M  V30 7126 H 692.431 0.325232 -5.47936 0
M  V30 7127 H 692.692 1.4672 -4.17044 0
M  V30 7128 N 691.751 1.51645 -0.429126 0
M  V30 7129 C 692.997 2.02314 0.140286 0
M  V30 7130 C 693.33 1.31314 1.43074 0
M  V30 7131 O 692.605 0.425531 1.89788 0
M  V30 7132 C 692.888 3.5822 0.36749 0
M  V30 7133 C 692.741 4.39846 -0.941039 0
M  V30 7134 C 694.06 4.25055 1.14089 0
M  V30 7135 H 691.179 0.735335 0.0495112 0
M  V30 7136 H 693.821 1.81358 -0.566514 0
M  V30 7137 H 691.971 3.76207 0.969556 0
M  V30 7138 H 693.643 4.33527 -1.57646 0
M  V30 7139 H 691.886 4.05259 -1.54751 0
M  V30 7140 H 692.557 5.47069 -0.73621 0
M  V30 7141 H 695.033 4.11288 0.630986 0
M  V30 7142 H 693.909 5.34038 1.26863 0
M  V30 7143 H 694.17 3.85358 2.16683 0
M  V30 7144 N 693.229 0.160201 1.56784 0
M  V30 7145 C 694.176 -0.774416 2.1742 0
M  V30 7146 C 695.146 -1.23483 1.11091 0
M  V30 7147 O 696.331 -1.30499 1.39193 0
M  V30 7148 C 693.471 -2.00283 2.81035 0
M  V30 7149 C 692.584 -1.58701 4.01793 0
M  V30 7150 C 691.719 -2.76824 4.53367 0
M  V30 7151 C 690.758 -2.31679 5.66561 0
M  V30 7152 N 689.895 -3.42856 6.12694 0
M  V30 7153 H 694.735 -0.250542 2.96945 0
M  V30 7154 H 692.272 -0.111943 1.46673 0
M  V30 7155 H 694.23 -2.72316 3.16069 0
M  V30 7156 H 692.86 -2.5006 2.04132 0
M  V30 7157 H 691.912 -0.76384 3.72652 0
M  V30 7158 H 693.224 -1.21555 4.83762 0
M  V30 7159 H 692.378 -3.57029 4.90525 0
M  V30 7160 H 691.117 -3.17223 3.70433 0
M  V30 7161 H 690.122 -1.49917 5.28966 0
M  V30 7162 H 691.347 -1.9235 6.5129 0
M  V30 7163 H 689.293 -3.82852 5.32692 0
M  V30 7164 H 689.21 -3.09767 6.89624 0
M  V30 7165 H 690.478 -4.23379 6.545 0
M  V30 7166 N 694.707 -1.5719 -0.113559 0
M  V30 7167 C 695.954 -1.85138 -0.820382 0
M  V30 7168 C 696.282 -0.74608 -1.79622 0
M  V30 7169 O 695.537 0.262077 -1.93937 0
M  V30 7170 C 695.836 -3.19593 -1.59984 0
M  V30 7171 C 695.502 -4.44315 -0.767809 0
M  V30 7172 C 694.164 -4.78179 -0.538379 0
M  V30 7173 C 696.516 -5.2086 -0.188203 0
M  V30 7174 C 693.844 -5.86028 0.28082 0
M  V30 7175 C 696.196 -6.29572 0.618217 0
M  V30 7176 C 694.86 -6.61964 0.857912 0
M  V30 7177 H 694.13 -0.677467 -0.300199 0
M  V30 7178 H 696.777 -1.91322 -0.0825443 0
M  V30 7179 H 695.082 -3.0901 -2.40874 0
M  V30 7180 H 696.779 -3.3844 -2.1508 0
M  V30 7181 H 693.369 -4.17786 -0.956724 0
M  V30 7182 H 697.553 -4.95045 -0.352658 0
M  V30 7183 H 692.809 -6.09547 0.475693 0
M  V30 7184 H 696.983 -6.88064 1.0743 0
M  V30 7185 H 694.61 -7.45365 1.49451 0
M  V30 7186 N 696.185 0.383891 -1.52853 0
M  V30 7187 C 697.41 1.154 -1.7233 0
M  V30 7188 C 697.835 1.82809 -0.44298 0
M  V30 7189 O 697.193 1.71026 0.601645 0
M  V30 7190 C 697.241 2.17386 -2.87708 0
M  V30 7191 O 696.345 3.24082 -2.55038 0
M  V30 7192 H 695.686 0.335709 -0.572883 0
M  V30 7193 H 698.216 0.44662 -1.99666 0
M  V30 7194 H 698.226 2.61296 -3.1335 0
M  V30 7195 H 696.901 1.6771 -3.80587 0
M  V30 7196 H 695.478 2.85273 -2.40153 0
M  V30 7197 N 697.663 1.43903 0.642637 0
M  V30 7198 C 698.893 1.49323 1.4278 0
M  V30 7199 C 699.301 0.113058 1.88862 0
M  V30 7200 O 698.644 -0.889089 1.60751 0
M  V30 7201 C 698.706 2.3861 2.68897 0
M  V30 7202 C 698.37 3.85976 2.44687 0
M  V30 7203 C 699.367 4.7681 2.07239 0
M  V30 7204 C 697.052 4.30567 2.58683 0
M  V30 7205 C 699.046 6.10234 1.841 0
M  V30 7206 C 696.733 5.64042 2.35159 0
M  V30 7207 C 697.731 6.53693 1.97925 0
M  V30 7208 O 697.419 7.84698 1.74654 0
M  V30 7209 H 697.151 0.509109 0.444729 0
M  V30 7210 H 699.705 1.89425 0.794195 0
M  V30 7211 H 697.935 1.93415 3.34855 0
M  V30 7212 H 699.624 2.35112 3.30873 0
M  V30 7213 H 700.39 4.43635 1.95993 0
M  V30 7214 H 696.269 3.61054 2.86637 0
M  V30 7215 H 699.813 6.80171 1.54962 0
M  V30 7216 H 695.71 5.96782 2.46011 0
M  V30 7217 H 696.478 7.96382 1.88993 0
M  V30 7218 N 699.141 -0.881989 1.30609 0
M  V30 7219 C 700.418 -1.61563 1.10258 0
M  V30 7220 C 700.798 -2.08228 -0.347053 0
M  V30 7221 O 700.146 -1.85151 -1.33908 0
M  V30 7222 C 700.356 -2.78287 2.10612 0
M  V30 7223 C 701.704 -3.48545 2.4249 0
M  V30 7224 O 702.728 -2.88479 2.08945 0
M  V30 7225 O 701.587 -4.56873 2.99883 0
M  V30 7226 H 698.681 -0.710238 0.423663 0
M  V30 7227 H 701.227 -0.928503 1.42045 0
M  V30 7228 H 699.999 -2.41131 3.08174 0
M  V30 7229 H 699.622 -3.54695 1.79659 0
M  V30 7230 N 700.619 -1.13374 -1.09472 0
M  V30 7231 C 701.549 -0.833268 -2.18126 0
M  V30 7232 C 702.53 0.207169 -1.68834 0
M  V30 7233 O 703.715 0.0662012 -1.94087 0
M  V30 7234 C 700.845 -0.297979 -3.46019 0
M  V30 7235 C 699.799 -1.27261 -4.08642 0
M  V30 7236 C 699.125 -0.597104 -5.31356 0
M  V30 7237 C 700.425 -2.63095 -4.51197 0
M  V30 7238 H 702.119 -1.74182 -2.43518 0
M  V30 7239 H 699.665 -0.838921 -1.17039 0
M  V30 7240 H 701.618 -0.0754444 -4.21332 0
M  V30 7241 H 700.342 0.645959 -3.20148 0
M  V30 7242 H 699.001 -1.48113 -3.35348 0
M  V30 7243 H 698.649 0.352293 -5.01765 0
M  V30 7244 H 698.349 -1.24734 -5.74208 0
M  V30 7245 H 699.873 -0.38384 -6.09392 0
M  V30 7246 H 701.287 -2.46214 -5.17737 0
M  V30 7247 H 699.684 -3.2429 -5.04932 0
M  V30 7248 H 700.754 -3.20793 -3.6362 0
M  V30 7249 N 702.098 1.27442 -0.927168 0
M  V30 7250 C 703.328 1.9821 -0.582775 0
M  V30 7251 C 703.736 1.69361 0.843406 0
M  V30 7252 O 703.079 0.950381 1.57205 0
M  V30 7253 C 703.141 3.52048 -0.728165 0
M  V30 7254 C 702.805 4.04518 -2.12637 0
M  V30 7255 C 703.802 4.17332 -3.10048 0
M  V30 7256 C 701.487 4.38879 -2.44317 0
M  V30 7257 C 703.481 4.6378 -4.37249 0
M  V30 7258 C 701.168 4.85018 -3.71753 0
M  V30 7259 C 702.166 4.97428 -4.68033 0
M  V30 7260 O 701.854 5.42556 -5.93202 0
M  V30 7261 H 701.586 0.639314 -0.219667 0
M  V30 7262 H 704.14 1.63272 -1.24626 0
M  V30 7263 H 702.37 3.86699 -0.00758143 0
M  V30 7264 H 704.059 4.04033 -0.388906 0
M  V30 7265 H 704.825 3.91046 -2.86894 0
M  V30 7266 H 700.704 4.28462 -1.70121 0
M  V30 7267 H 704.248 4.73382 -5.12402 0
M  V30 7268 H 700.145 5.10746 -3.94726 0
M  V30 7269 H 700.913 5.60811 -5.96182 0
M  V30 7270 N 703.576 0.692616 1.41565 0
M  V30 7271 C 704.506 0.0397325 2.33466 0
M  V30 7272 C 705.487 -0.770334 1.51657 0
M  V30 7273 O 706.672 -0.723903 1.80203 0
M  V30 7274 C 703.802 -0.899495 3.3545 0
M  V30 7275 C 702.756 -0.196738 4.27548 0
M  V30 7276 C 702.082 -1.25012 5.19881 0
M  V30 7277 C 703.382 0.935158 5.1386 0
M  V30 7278 H 705.076 0.807296 2.88311 0
M  V30 7279 H 702.622 0.389665 1.38628 0
M  V30 7280 H 704.575 -1.36545 3.98665 0
M  V30 7281 H 703.299 -1.69869 2.78948 0
M  V30 7282 H 701.958 0.249158 3.65752 0
M  V30 7283 H 701.606 -2.04177 4.59696 0
M  V30 7284 H 701.306 -0.784931 5.82334 0
M  V30 7285 H 702.83 -1.71665 5.85972 0
M  V30 7286 H 704.244 0.549619 5.70659 0
M  V30 7287 H 702.641 1.32726 5.85238 0
M  V30 7288 H 703.711 1.77613 4.512 0
M  V30 7289 N 705.054 -1.51416 0.437162 0
M  V30 7290 C 706.3 -2.02386 -0.129555 0
M  V30 7291 C 706.633 -1.32071 -1.42376 0
M  V30 7292 O 705.908 -0.43559 -1.8956 0
M  V30 7293 C 706.191 -3.5841 -0.348487 0
M  V30 7294 C 706.044 -4.39341 0.964352 0
M  V30 7295 C 707.363 -4.25654 -1.11834 0
M  V30 7296 H 704.482 -0.735587 -0.0456109 0
M  V30 7297 H 707.124 -1.81055 0.576124 0
M  V30 7298 H 705.274 -3.76716 -0.949592 0
M  V30 7299 H 706.946 -4.32685 1.59942 0
M  V30 7300 H 705.189 -4.04432 1.56898 0
M  V30 7301 H 705.86 -5.4667 0.765212 0
M  V30 7302 H 708.336 -4.11617 -0.609165 0
M  V30 7303 H 707.212 -5.34704 -1.24029 0
M  V30 7304 H 707.473 -3.86502 -2.14636 0
M  V30 7305 N 706.532 -0.168513 -1.56696 0
M  V30 7306 C 707.76 0.483503 -2.01171 0
M  V30 7307 C 708.175 1.56994 -1.04872 0
M  V30 7308 O 707.532 1.82434 -0.0491337 0
M  V30 7309 C 707.583 1.0644 -3.45475 0
M  V30 7310 O 707.304 0.0213375 -4.38095 0
M  V30 7311 C 708.805 1.79493 -4.05336 0
M  V30 7312 H 706.025 0.124002 -0.659443 0
M  V30 7313 H 708.569 -0.269419 -2.02717 0
M  V30 7314 H 706.724 1.76784 -3.44712 0
M  V30 7315 H 707.138 0.449837 -5.22567 0
M  V30 7316 H 708.612 2.15401 -5.08238 0
M  V30 7317 H 709.089 2.68889 -3.47269 0
M  V30 7318 H 709.695 1.13798 -4.09793 0
M  V30 7319 N 708.01 1.57248 0.105221 0
M  V30 7320 C 708.958 2.02337 1.14728 0
M  V30 7321 C 709.952 0.922652 1.42069 0
M  V30 7322 O 711.158 1.10785 1.41869 0
M  V30 7323 H 707.533 0.644682 0.387155 0
M  V30 7324 H 709.504 2.89063 0.740607 0
M  V30 7325 C 708.253 2.45513 2.46209 0
M  V30 7326 H 707.576 3.29785 2.26013 0
M  V30 7327 H 709.016 2.80846 3.1765 0
M  V30 7328 C 707.475 1.3243 3.09781 0
M  V30 7329 O 708.005 0.647841 3.96442 0
M  V30 7330 N 706.211 1.07785 2.69872 0
M  V30 7331 H 705.758 1.62973 1.99493 0
M  V30 7332 H 705.716 0.323204 3.12734 0
M  V30 7333 N 709.488 -0.375779 1.53054 0
M  V30 7334 C 710.736 -1.11727 1.68409 0
M  V30 7335 C 711.057 -1.90127 0.43323 0
M  V30 7336 O 710.327 -1.87945 -0.552595 0
M  V30 7337 H 708.907 -0.415451 0.620813 0
M  V30 7338 H 711.569 -0.424869 1.90213 0
M  V30 7339 H 710.665 -1.8128 2.54055 0
M  V30 7340 N 710.966 -1.44241 -0.634997 0
M  V30 7341 C 711.913 -1.5081 -1.74714 0
M  V30 7342 C 712.883 -0.356147 -1.62237 0
M  V30 7343 O 714.068 -0.565848 -1.82216 0
M  V30 7344 C 711.208 -1.45458 -3.12947 0
M  V30 7345 C 710.321 -2.70998 -3.36428 0
M  V30 7346 C 709.456 -2.57507 -4.64611 0
M  V30 7347 C 708.495 -3.78229 -4.81258 0
M  V30 7348 N 707.632 -3.63438 -6.00714 0
M  V30 7349 H 712.472 -2.45832 -1.68436 0
M  V30 7350 H 710.009 -1.2201 -0.821706 0
M  V30 7351 H 711.967 -1.40347 -3.92885 0
M  V30 7352 H 710.597 -0.540058 -3.1825 0
M  V30 7353 H 709.649 -2.86312 -2.50458 0
M  V30 7354 H 710.961 -3.60619 -3.44609 0
M  V30 7355 H 710.115 -2.50207 -5.52703 0
M  V30 7356 H 708.854 -1.65441 -4.58782 0
M  V30 7357 H 707.859 -3.85918 -3.91596 0
M  V30 7358 H 709.084 -4.71327 -4.88904 0
M  V30 7359 H 707.03 -2.7412 -5.95982 0
M  V30 7360 H 706.947 -4.46672 -6.09934 0
M  V30 7361 H 708.215 -3.60022 -6.91378 0
M  V30 7362 N 712.444 0.87505 -1.31075 0
M  V30 7363 C 713.394 1.96933 -1.14898 0
M  V30 7364 C 714.378 1.60783 -0.0613703 0
M  V30 7365 O 715.57 1.74678 -0.285751 0
M  V30 7366 C 712.699 3.3253 -0.853166 0
M  V30 7367 C 711.785 3.74963 -1.98151 0
M  V30 7368 N 712.176 3.89403 -3.22799 0
M  V30 7369 C 710.474 4.04436 -1.8801 0
M  V30 7370 C 711.175 4.25563 -3.96574 0
M  V30 7371 N 710.151 4.3597 -3.24701 0
M  V30 7372 H 713.953 2.06201 -2.09424 0
M  V30 7373 H 711.467 1.06551 -1.22558 0
M  V30 7374 H 713.464 4.10666 -0.718266 0
M  V30 7375 H 712.124 3.24592 0.0839218 0
M  V30 7376 H 713.135 3.74266 -3.57974 0
M  V30 7377 H 709.812 4.04915 -1.01733 0
M  V30 7378 H 711.202 4.44375 -5.03965 0
M  V30 7379 N 713.922 1.13953 1.08869 0
M  V30 7380 C 715.17 0.903023 1.80803 0
M  V30 7381 C 715.491 -0.572151 1.86417 0
M  V30 7382 O 714.761 -1.41589 1.35386 0
M  V30 7383 H 713.341 0.331099 0.669614 0
M  V30 7384 H 716.003 1.43719 1.31647 0
M  V30 7385 H 715.099 1.29881 2.83791 0
M  V30 7386 N 715.4 -1.26948 0.933913 0
M  V30 7387 C 716.347 -2.26635 0.436484 0
M  V30 7388 C 717.317 -1.58397 -0.499953 0
M  V30 7389 O 718.502 -1.86171 -0.417753 0
M  V30 7390 C 715.642 -3.43803 -0.298951 0
M  V30 7391 C 714.755 -4.26736 0.672316 0
M  V30 7392 C 713.89 -5.31134 -0.0835872 0
M  V30 7393 C 712.929 -6.05742 0.879979 0
M  V30 7394 N 712.066 -7.01926 0.156301 0
M  V30 7395 H 716.906 -2.68558 1.29154 0
M  V30 7396 H 714.443 -1.32052 0.648118 0
M  V30 7397 H 716.401 -4.10554 -0.741723 0
M  V30 7398 H 715.031 -3.02814 -1.1182 0
M  V30 7399 H 714.083 -3.59842 1.23361 0
M  V30 7400 H 715.395 -4.78502 1.40846 0
M  V30 7401 H 714.549 -6.03863 -0.585984 0
M  V30 7402 H 713.288 -4.80188 -0.852661 0
M  V30 7403 H 712.293 -5.31846 1.39357 0
M  V30 7404 H 713.518 -6.58777 1.64894 0
M  V30 7405 H 711.464 -6.53301 -0.594413 0
M  V30 7406 H 711.381 -7.51409 0.831906 0
M  V30 7407 H 712.649 -7.78821 -0.325239 0
M  V30 7408 N 716.879 -0.700114 -1.41195 0
M  V30 7409 C 718.295 -0.372114 -1.55201 0
M  V30 7410 C 718.495 1.12053 -1.6747 0
M  V30 7411 O 717.551 1.90642 -1.65566 0
M  V30 7412 C 718.864 -1.12462 -2.78878 0
M  V30 7413 C 720.412 -1.10941 -2.92679 0
M  V30 7414 C 720.887 -1.84376 -4.19249 0
M  V30 7415 N 722.378 -1.81368 -4.26216 0
M  V30 7416 C 723.113 -2.35024 -5.23021 0
M  V30 7417 N 722.609 -2.9717 -6.25829 0
M  V30 7418 N 724.402 -2.25254 -5.14992 0
M  V30 7419 H 716.553 -1.66816 -1.31477 0
M  V30 7420 H 718.816 -0.704223 -0.634644 0
M  V30 7421 H 718.522 -2.17937 -2.76037 0
M  V30 7422 H 718.396 -0.706152 -3.70531 0
M  V30 7423 H 720.783 -0.062911 -2.95033 0
M  V30 7424 H 720.864 -1.56698 -2.02187 0
M  V30 7425 H 720.508 -2.89008 -4.17656 0
M  V30 7426 H 720.438 -1.3605 -5.08722 0
M  V30 7427 H 722.929 -1.36062 -3.52556 0
M  V30 7428 H 723.242 -3.35668 -6.96094 0
M  V30 7429 H 721.587 -3.01249 -6.26318 0
M  V30 7430 H 724.778 -1.76372 -4.33602 0
M  V30 7431 H 724.951 -2.67373 -5.90268 0
M  V30 7432 N 718.357 1.51182 -0.445186 0
M  V30 7433 C 719.603 2.02452 0.11882 0
M  V30 7434 C 719.936 1.32824 1.41673 0
M  V30 7435 O 719.211 0.445637 1.89326 0
M  V30 7436 C 719.494 3.5859 0.329475 0
M  V30 7437 C 719.347 4.38823 -0.987638 0
M  V30 7438 C 720.666 4.26241 1.09575 0
M  V30 7439 H 717.785 0.735819 0.0417092 0
M  V30 7440 H 720.427 1.80747 -0.585718 0
M  V30 7441 H 718.577 3.77214 0.9296 0
M  V30 7442 H 720.249 4.3183 -1.62235 0
M  V30 7443 H 718.492 4.03594 -1.59041 0
M  V30 7444 H 719.163 5.46257 -0.794192 0
M  V30 7445 H 721.639 4.11934 0.587328 0
M  V30 7446 H 720.515 5.35354 1.21191 0
M  V30 7447 H 720.776 3.87635 2.12584 0
M  V30 7448 N 719.835 0.176821 1.56605 0
M  V30 7449 C 721.251 -0.179278 1.5859 0
M  V30 7450 C 721.451 -1.62433 1.19238 0
M  V30 7451 O 720.507 -2.35665 0.906552 0
M  V30 7452 C 721.82 0.106524 3.00511 0
M  V30 7453 C 723.368 0.0451731 3.12967 0
M  V30 7454 C 723.843 0.304038 4.5699 0
M  V30 7455 N 725.334 0.252008 4.62514 0
M  V30 7456 C 726.069 0.426404 5.71812 0
M  V30 7457 N 725.565 0.660155 6.89648 0
M  V30 7458 N 727.358 0.361926 5.60934 0
M  V30 7459 H 719.509 1.12001 1.8047 0
M  V30 7460 H 721.772 0.445679 0.836704 0
M  V30 7461 H 721.478 1.10778 3.33798 0
M  V30 7462 H 721.352 -0.599337 3.72408 0
M  V30 7463 H 723.739 -0.946662 2.79504 0
M  V30 7464 H 723.82 0.78383 2.43495 0
M  V30 7465 H 723.464 1.29311 4.91163 0
M  V30 7466 H 723.394 -0.455294 5.24628 0
M  V30 7467 H 725.885 0.0772102 3.77821 0
M  V30 7468 H 726.198 0.782529 7.68828 0
M  V30 7469 H 724.543 0.696835 6.91498 0
M  V30 7470 H 727.734 0.17986 4.67754 0
M  V30 7471 H 727.907 0.501263 6.46058 0
M  V30 7472 N 721.313 -1.57302 -0.09688 0
M  V30 7473 C 722.561 -1.8563 -0.799117 0
M  V30 7474 C 722.882 -0.765263 -1.79356 0
M  V30 7475 O 722.152 0.208657 -1.94786 0
M  V30 7476 H 720.732 -0.684937 -0.298111 0
M  V30 7477 H 723.394 -1.9474 -0.0789341 0
M  V30 7478 H 722.49 -2.82305 -1.3308 0
M  V30 7479 N 722.791 0.367657 -1.53252 0
M  V30 7480 C 724.037 1.11216 -1.69584 0
M  V30 7481 C 724.37 1.89026 -0.445269 0
M  V30 7482 O 723.645 1.86342 0.557404 0
M  V30 7483 C 723.928 2.07308 -2.94441 0
M  V30 7484 C 723.781 1.3312 -4.2965 0
M  V30 7485 C 725.1 3.07459 -3.14892 0
M  V30 7486 H 722.219 0.40294 -0.617096 0
M  V30 7487 H 724.861 0.393201 -1.85887 0
M  V30 7488 H 723.011 2.68617 -2.80673 0
M  V30 7489 H 724.683 0.746111 -4.55226 0
M  V30 7490 H 722.926 0.633051 -4.29156 0
M  V30 7491 H 723.597 2.03443 -5.13142 0
M  V30 7492 H 726.073 2.56252 -3.27832 0
M  V30 7493 H 724.949 3.71919 -4.03693 0
M  V30 7494 H 725.21 3.77514 -2.30077 0
M  V30 7495 N 724.269 1.44576 0.627338 0
M  V30 7496 C 725.515 1.4877 1.38705 0
M  V30 7497 C 725.87 0.119976 1.92026 0
M  V30 7498 O 725.163 -0.865341 1.70946 0
M  V30 7499 C 725.357 2.48644 2.56731 0
M  V30 7500 C 725.186 3.94994 2.14965 0
M  V30 7501 C 723.956 4.63139 2.02065 0
M  V30 7502 C 726.154 4.841 1.73643 0
M  V30 7503 N 724.136 5.94296 1.53902 0
M  V30 7504 C 725.507 6.0473 1.36753 0
M  V30 7505 C 727.562 4.71131 1.61058 0
M  V30 7506 C 726.265 7.13831 0.885353 0
M  V30 7507 C 728.291 5.8026 1.14244 0
M  V30 7508 C 727.653 7.00034 0.783067 0
M  V30 7509 H 723.752 0.599415 0.50222 0
M  V30 7510 H 726.336 1.80926 0.719285 0
M  V30 7511 H 724.507 2.18472 3.2113 0
M  V30 7512 H 726.239 2.4311 3.23542 0
M  V30 7513 H 722.994 4.18007 2.22637 0
M  V30 7514 H 723.418 6.63985 1.32108 0
M  V30 7515 H 728.06 3.78964 1.87473 0
M  V30 7516 H 725.778 8.05804 0.608716 0
M  V30 7517 H 729.364 5.72254 1.0496 0
M  V30 7518 H 728.244 7.8304 0.426381 0
M  V30 7519 N 725.747 -0.868086 1.31537 0
M  V30 7520 C 726.695 -1.99688 1.1928 0
M  V30 7521 C 727.689 -1.69101 0.100656 0
M  V30 7522 O 728.895 -1.78073 0.262677 0
M  V30 7523 H 725.27 -0.655032 0.369374 0
M  V30 7524 H 727.241 -2.07157 2.14776 0
M  V30 7525 C 725.99 -3.35338 0.918892 0
M  V30 7526 H 725.313 -3.59396 1.75142 0
M  V30 7527 H 726.753 -4.14909 0.873311 0
M  V30 7528 C 725.212 -3.34769 -0.378366 0
M  V30 7529 O 725.742 -3.76716 -1.39456 0
M  V30 7530 N 723.948 -2.87895 -0.39557 0
M  V30 7531 H 723.495 -2.53954 0.431889 0
M  V30 7532 H 723.453 -2.87897 -1.26344 0
M  V30 7533 N 727.225 -1.14528 -1.08264 0
M  V30 7534 C 728.473 -0.912599 -1.80322 0
M  V30 7535 C 728.794 0.562256 -1.86718 0
M  V30 7536 O 728.064 1.40869 -1.36135 0
M  V30 7537 H 726.644 -0.334645 -0.667849 0
M  V30 7538 H 729.306 -1.44415 -1.30883 0
M  V30 7539 H 728.402 -1.31384 -2.83098 0
M  V30 7540 N 728.703 1.26451 -0.940633 0
M  V30 7541 C 729.636 2.24771 -0.394094 0
M  V30 7542 C 730.614 1.54169 0.516781 0
M  V30 7543 O 731.798 1.82942 0.454352 0
M  V30 7544 C 728.925 3.3591 0.433807 0
M  V30 7545 C 727.971 4.24472 -0.415464 0
M  V30 7546 S 728.804 5.0293 -1.83907 0
M  V30 7547 C 729.96 6.17546 -1.01921 0
M  V30 7548 H 730.193 2.70782 -1.22737 0
M  V30 7549 H 727.726 1.35308 -0.743709 0
M  V30 7550 H 729.684 4.00387 0.905576 0
M  V30 7551 H 728.345 2.88512 1.24175 0
M  V30 7552 H 727.538 5.03525 0.218833 0
M  V30 7553 H 727.14 3.64857 -0.821897 0
M  V30 7554 H 729.432 6.76996 -0.261227 0
M  V30 7555 H 730.375 6.8528 -1.78318 0
M  V30 7556 H 730.783 5.6176 -0.555511 0
M  V30 7557 N 730.181 0.707592 1.40822 0
M  V30 7558 C 731.43 0.240705 2.00259 0
M  V30 7559 C 731.743 -1.17027 1.56729 0
M  V30 7560 O 732.949 -1.73526 2.08809 0
M  V30 7561 C 731.405 0.379432 3.57894 0
M  V30 7562 C 731.013 1.79654 4.104 0
M  V30 7563 C 732.757 -0.0270684 4.24491 0
M  V30 7564 C 730.664 1.88628 5.60512 0
M  V30 7565 H 729.594 0.0862369 0.749052 0
M  V30 7566 H 732.245 0.877528 1.61157 0
M  V30 7567 H 730.627 -0.325842 3.94657 0
M  V30 7568 H 731.801 2.53155 3.85032 0
M  V30 7569 H 730.116 2.15379 3.56372 0
M  V30 7570 H 732.713 0.0193743 5.34696 0
M  V30 7571 H 733.056 -1.06772 4.02375 0
M  V30 7572 H 733.589 0.628361 3.92806 0
M  V30 7573 H 730.328 2.90787 5.87472 0
M  V30 7574 H 729.848 1.19528 5.8777 0
M  V30 7575 H 731.527 1.6547 6.25483 0
M  V30 7576 N 731.66 -1.50943 0.453197 0
M  V30 7577 C 732.908 -2.01813 -0.107709 0
M  V30 7578 C 733.229 -1.33841 -1.41816 0
M  V30 7579 O 732.499 -0.477973 -1.8998 0
M  V30 7580 H 731.079 -0.745773 -0.0427948 0
M  V30 7581 H 733.741 -1.8545 0.599531 0
M  V30 7582 H 732.837 -3.10911 -0.27218 0
M  V30 7583 N 733.138 -0.185124 -1.56509 0
M  V30 7584 C 734.048 0.751908 -2.22224 0
M  V30 7585 C 735.064 1.24244 -1.21817 0
M  V30 7586 O 736.24 1.29169 -1.54523 0
M  V30 7587 C 733.305 1.95837 -2.86092 0
M  V30 7588 C 732.366 1.51337 -4.01741 0
M  V30 7589 C 731.599 2.66233 -4.62554 0
M  V30 7590 O 731.822 3.8346 -4.22273 0
M  V30 7591 O 730.756 2.39517 -5.52191 0
M  V30 7592 H 734.582 0.222304 -3.02885 0
M  V30 7593 H 732.167 0.0437141 -1.49336 0
M  V30 7594 H 734.049 2.66368 -3.26536 0
M  V30 7595 H 732.724 2.47677 -2.08417 0
M  V30 7596 H 731.631 0.777155 -3.65939 0
M  V30 7597 H 732.964 1.04175 -4.81049 0
M  V30 7598 N 734.616 1.57351 0.0885366 0
M  V30 7599 C 735.862 1.86696 0.791996 0
M  V30 7600 C 736.195 0.775148 1.78059 0
M  V30 7601 O 735.47 -0.216247 1.93294 0
M  V30 7602 C 735.753 3.26684 1.51491 0
M  V30 7603 C 735.606 4.465 0.543858 0
M  V30 7604 C 736.925 3.64664 2.46391 0
M  V30 7605 H 734.044 0.679049 0.286463 0
M  V30 7606 H 736.686 1.89919 0.0554866 0
M  V30 7607 H 734.836 3.24067 2.14273 0
M  V30 7608 H 736.508 4.61235 -0.0774597 0
M  V30 7609 H 734.751 4.33567 -0.142228 0
M  V30 7610 H 735.422 5.41192 1.08696 0
M  V30 7611 H 737.898 3.68267 1.93698 0
M  V30 7612 H 736.774 4.63534 2.93986 0
M  V30 7613 H 737.035 2.93698 3.30445 0
M  V30 7614 N 736.094 -0.359525 1.53444 0
M  V30 7615 C 737.324 -1.12036 1.73585 0
M  V30 7616 C 737.732 -1.83335 0.467438 0
M  V30 7617 O 737.075 -1.74641 -0.569753 0
M  V30 7618 C 737.137 -2.19036 2.85068 0
M  V30 7619 C 736.801 -1.67451 4.25217 0
M  V30 7620 C 737.798 -1.13534 5.07352 0
M  V30 7621 C 735.483 -1.72781 4.71648 0
M  V30 7622 C 737.477 -0.656321 6.34012 0
M  V30 7623 C 735.164 -1.2449 5.98285 0
M  V30 7624 C 736.162 -0.710068 6.79299 0
M  V30 7625 O 735.85 -0.234314 8.03558 0
M  V30 7626 H 735.582 -0.340662 0.583888 0
M  V30 7627 H 738.136 -0.422452 2.01009 0
M  V30 7628 H 736.366 -2.92338 2.53131 0
M  V30 7629 H 738.055 -2.80559 2.93328 0
M  V30 7630 H 738.821 -1.08751 4.7265 0
M  V30 7631 H 734.7 -2.13351 4.08659 0
M  V30 7632 H 738.244 -0.238193 6.97193 0
M  V30 7633 H 734.141 -1.28969 6.32485 0
M  V30 7634 H 734.909 -0.353084 8.17738 0
M  V30 7635 N 737.572 -1.44907 -0.619662 0
M  V30 7636 C 738.802 -1.51575 -1.40387 0
M  V30 7637 C 739.21 -0.14309 -1.88658 0
M  V30 7638 O 738.553 0.863403 -1.62145 0
M  V30 7639 C 738.615 -2.42858 -2.65067 0
M  V30 7640 C 738.279 -3.8982 -2.38515 0
M  V30 7641 C 739.276 -4.80047 -1.99627 0
M  V30 7642 C 736.961 -4.34628 -2.51801 0
M  V30 7643 C 738.955 -6.13086 -1.74369 0
M  V30 7644 C 736.642 -5.67712 -2.26156 0
M  V30 7645 C 737.64 -6.56759 -1.875 0
M  V30 7646 O 737.328 -7.87377 -1.62148 0
M  V30 7647 H 737.06 -0.51612 -0.436573 0
M  V30 7648 H 739.614 -1.90664 -0.763959 0
M  V30 7649 H 737.844 -1.98717 -3.31735 0
M  V30 7650 H 739.533 -2.40346 -3.27091 0
M  V30 7651 H 740.299 -4.46697 -1.8891 0
M  V30 7652 H 736.178 -3.65568 -2.80857 0
M  V30 7653 H 739.722 -6.8255 -1.44122 0
M  V30 7654 H 735.619 -6.0062 -2.36486 0
M  V30 7655 H 736.387 -7.99288 -1.763 0
M  V30 7656 N 739.05 0.861098 -1.31996 0
M  V30 7657 C 739.997 1.96912 -1.20392 0
M  V30 7658 C 740.967 1.65869 -0.0875899 0
M  V30 7659 O 742.152 1.88992 -0.262011 0
M  V30 7660 C 739.292 3.32435 -0.926335 0
M  V30 7661 C 738.405 3.76018 -2.12684 0
M  V30 7662 C 737.54 5.00301 -1.78529 0
M  V30 7663 C 736.579 5.36357 -2.94937 0
M  V30 7664 N 735.716 6.51818 -2.60917 0
M  V30 7665 H 740.556 2.06169 -2.1517 0
M  V30 7666 H 738.093 1.00917 -1.07024 0
M  V30 7667 H 740.051 4.10478 -0.745917 0
M  V30 7668 H 738.681 3.22796 -0.0153578 0
M  V30 7669 H 737.733 2.93683 -2.41774 0
M  V30 7670 H 739.045 3.98664 -2.99781 0
M  V30 7671 H 738.199 5.86034 -1.57001 0
M  V30 7672 H 736.938 4.79578 -0.886356 0
M  V30 7673 H 735.943 4.49139 -3.17103 0
M  V30 7674 H 737.168 5.59041 -3.85552 0
M  V30 7675 H 735.114 6.32624 -1.73558 0
M  V30 7676 H 735.031 6.7445 -3.41544 0
M  V30 7677 H 736.299 7.4072 -2.42804 0
M  V30 7678 N 740.528 1.15101 1.07655 0
M  V30 7679 C 741.944 0.893004 1.32279 0
M  V30 7680 C 742.144 -0.461701 1.96139 0
M  V30 7681 O 741.2 -1.20431 2.21929 0
M  V30 7682 C 742.513 2.03161 2.21689 0
M  V30 7683 C 744.061 2.06579 2.35147 0
M  V30 7684 C 744.536 3.19754 3.27905 0
M  V30 7685 N 746.027 3.19382 3.35484 0
M  V30 7686 C 746.762 4.03592 4.07309 0
M  V30 7687 N 746.258 4.97859 4.81776 0
M  V30 7688 N 748.051 3.91626 4.03219 0
M  V30 7689 H 740.202 2.02341 0.645886 0
M  V30 7690 H 742.465 0.882127 0.347211 0
M  V30 7691 H 742.171 3.00934 1.82021 0
M  V30 7692 H 742.045 1.96132 3.22199 0
M  V30 7693 H 744.432 1.09408 2.74069 0
M  V30 7694 H 744.513 2.17676 1.34353 0
M  V30 7695 H 744.157 4.17175 2.89702 0
M  V30 7696 H 744.087 3.05893 4.28645 0
M  V30 7697 H 746.578 2.51112 2.82403 0
M  V30 7698 H 746.891 5.58563 5.34067 0
M  V30 7699 H 745.236 5.0185 4.80803 0
M  V30 7700 H 748.427 3.17295 3.44154 0
M  V30 7701 H 748.6 4.57479 4.5893 0
M  V30 7702 N 742.006 -1.2595 0.947325 0
M  V30 7703 C 742.969 -2.24407 0.466285 0
M  V30 7704 C 743.969 -1.55054 -0.426005 0
M  V30 7705 O 745.159 -1.7275 -0.224319 0
M  V30 7706 C 742.291 -3.39326 -0.327201 0
M  V30 7707 H 743.484 -2.68477 1.33642 0
M  V30 7708 H 741.037 -1.38211 0.729887 0
M  V30 7709 H 741.772 -3.00667 -1.21532 0
M  V30 7710 H 741.557 -3.9085 0.312839 0
M  V30 7711 H 743.047 -4.12455 -0.653477 0
M  V30 7712 N 743.484 -0.715051 -1.40445 0
M  V30 7713 C 744.761 -0.181503 -1.94756 0
M  V30 7714 C 745.141 1.31268 -1.65324 0
M  V30 7715 O 744.489 2.0686 -0.970631 0
M  V30 7716 C 744.699 -0.493663 -3.45491 0
M  V30 7717 C 746.047 -0.432032 -4.22396 0
M  V30 7718 O 747.071 -0.429692 -3.53599 0
M  V30 7719 O 745.93 -0.409091 -5.44967 0
M  V30 7720 H 743.024 -0.0263989 -0.826579 0
M  V30 7721 H 745.57 -0.792546 -1.50056 0
M  V30 7722 H 744.342 -1.52713 -3.6027 0
M  V30 7723 H 743.965 0.14737 -3.97327 0
M  V30 7724 N 744.962 1.50701 -0.461195 0
M  V30 7725 C 745.895 2.24948 0.383863 0
M  V30 7726 C 746.873 1.27851 1.00464 0
M  V30 7727 O 748.057 1.57049 1.04249 0
M  V30 7728 C 745.184 3.01818 1.537 0
M  V30 7729 C 744.23 4.13762 1.03457 0
M  V30 7730 S 745.063 5.35483 -0.0427485 0
M  V30 7731 C 746.219 6.15898 1.11449 0
M  V30 7732 H 746.452 2.96277 -0.246425 0
M  V30 7733 H 743.985 1.52428 -0.245961 0
M  V30 7734 H 745.943 3.467 2.19794 0
M  V30 7735 H 744.604 2.30034 2.13877 0
M  V30 7736 H 743.797 4.66914 1.89757 0
M  V30 7737 H 743.399 3.71265 0.4515 0
M  V30 7738 H 745.691 6.46431 2.02813 0
M  V30 7739 H 746.634 7.05359 0.622444 0
M  V30 7740 H 747.042 5.47777 1.36385 0
M  V30 7741 N 746.441 0.193421 1.56409 0
M  V30 7742 C 747.404 -0.714371 2.17783 0
M  V30 7743 C 748.404 -1.1422 1.13183 0
M  V30 7744 O 749.594 -1.05557 1.38576 0
M  V30 7745 C 746.726 -1.97509 2.77855 0
M  V30 7746 H 747.919 -0.179714 2.99361 0
M  V30 7747 H 745.472 -0.0561944 1.56199 0
M  V30 7748 H 746.207 -2.5523 2.0007 0
M  V30 7749 H 745.992 -1.67706 3.54425 0
M  V30 7750 H 747.482 -2.62246 3.24987 0
M  V30 7751 N 747.919 -1.57396 -0.0801906 0
M  V30 7752 C 749.168 -1.8602 -0.779702 0
M  V30 7753 C 749.481 -0.784864 -1.79163 0
M  V30 7754 O 750.687 -0.958691 -2.54011 0
M  V30 7755 C 749.143 -3.29942 -1.43758 0
M  V30 7756 C 748.751 -4.45584 -0.464654 0
M  V30 7757 C 750.495 -3.67775 -2.11995 0
M  V30 7758 C 748.402 -5.80544 -1.12797 0
M  V30 7759 H 747.332 -0.69392 -0.294943 0
M  V30 7760 H 749.983 -1.83471 -0.0328527 0
M  V30 7761 H 748.365 -3.27078 -2.2324 0
M  V30 7762 H 749.539 -4.59824 0.299749 0
M  V30 7763 H 747.854 -4.16247 0.112813 0
M  V30 7764 H 750.451 -4.65896 -2.62383 0
M  V30 7765 H 750.794 -2.9715 -2.91561 0
M  V30 7766 H 751.327 -3.72593 -1.39354 0
M  V30 7767 H 748.066 -6.54439 -0.372807 0
M  V30 7768 H 747.586 -5.70119 -1.86344 0
M  V30 7769 H 749.265 -6.25602 -1.6502 0
M  V30 7770 N 749.397 0.351382 -1.53633 0
M  V30 7771 C 750.645 1.09034 -1.70165 0
M  V30 7772 C 750.966 1.89413 -0.463422 0
M  V30 7773 O 750.236 1.888 0.522624 0
M  V30 7774 H 748.816 0.405522 -0.627344 0
M  V30 7775 H 751.478 0.394554 -1.90865 0
M  V30 7776 H 750.574 1.77215 -2.56907 0
M  V30 7777 N 750.875 1.45233 0.611969 0
M  V30 7778 C 752.1 1.52767 1.40274 0
M  V30 7779 C 752.525 0.159701 1.87421 0
M  V30 7780 O 751.883 -0.854837 1.59882 0
M  V30 7781 C 751.931 2.51286 2.58626 0
M  V30 7782 O 751.035 2.02764 3.59111 0
M  V30 7783 H 750.376 0.515141 0.418958 0
M  V30 7784 H 752.906 1.90547 0.745188 0
M  V30 7785 H 752.916 2.69949 3.05927 0
M  V30 7786 H 751.591 3.50641 2.23659 0
M  V30 7787 H 750.168 1.93957 3.18489 0
M  V30 7788 N 752.353 -0.854086 1.3245 0
M  V30 7789 C 753.283 -1.97827 1.24044 0
M  V30 7790 C 754.264 -1.69646 0.124166 0
M  V30 7791 O 755.449 -1.91687 0.31143 0
M  V30 7792 C 752.579 -3.33673 0.963324 0
M  V30 7793 C 751.533 -3.76207 2.04089 0
M  V30 7794 C 750.859 -5.0969 1.61618 0
M  V30 7795 C 752.159 -3.91612 3.45597 0
M  V30 7796 H 753.853 -2.05118 2.18099 0
M  V30 7797 H 751.399 -0.985489 1.04996 0
M  V30 7798 H 753.352 -4.11871 0.891061 0
M  V30 7799 H 752.076 -3.26597 -0.0128649 0
M  V30 7800 H 750.735 -3.0026 2.10332 0
M  V30 7801 H 750.383 -4.99072 0.627418 0
M  V30 7802 H 750.083 -5.3912 2.33717 0
M  V30 7803 H 751.607 -5.90381 1.55829 0
M  V30 7804 H 753.021 -4.60163 3.4194 0
M  V30 7805 H 751.418 -4.3246 4.16051 0
M  V30 7806 H 752.488 -2.9451 3.85217 0
M  V30 7807 N 753.831 -1.1567 -1.07043 0
M  V30 7808 C 755.059 -0.957471 -1.83412 0
M  V30 7809 C 755.474 0.494271 -1.82215 0
M  V30 7810 O 754.831 1.34288 -1.23584 0
M  V30 7811 C 754.882 -1.46784 -3.30359 0
M  V30 7812 O 754.603 -2.86271 -3.31633 0
M  V30 7813 C 756.104 -1.31054 -4.23485 0
M  V30 7814 H 753.324 -0.33986 -0.578564 0
M  V30 7815 H 755.868 -1.53518 -1.35102 0
M  V30 7816 H 754.023 -0.932586 -3.76007 0
M  V30 7817 H 754.437 -3.0948 -4.23465 0
M  V30 7818 H 755.911 -1.71605 -5.24648 0
M  V30 7819 H 756.388 -0.255107 -4.38458 0
M  V30 7820 H 756.994 -1.83503 -3.83676 0
M  V30 7821 N 755.309 1.25446 -0.953992 0
M  V30 7822 C 756.558 1.92441 -0.604101 0
M  V30 7823 C 756.871 1.75543 0.862796 0
M  V30 7824 O 758.077 2.37106 1.32262 0
M  V30 7825 C 756.533 3.44854 -1.02974 0
M  V30 7826 C 756.141 3.70464 -2.51914 0
M  V30 7827 C 757.885 4.1778 -0.752352 0
M  V30 7828 C 755.792 5.1638 -2.88281 0
M  V30 7829 H 754.722 0.720508 -0.222227 0
M  V30 7830 H 757.373 1.42318 -1.15836 0
M  V30 7831 H 755.755 3.93935 -0.403904 0
M  V30 7832 H 756.929 3.32038 -3.19511 0
M  V30 7833 H 755.244 3.10797 -2.77117 0
M  V30 7834 H 757.841 5.25261 -1.00024 0
M  V30 7835 H 758.184 4.15135 0.311212 0
M  V30 7836 H 758.717 3.74605 -1.33851 0
M  V30 7837 H 755.456 5.24135 -3.93653 0
M  V30 7838 H 754.976 5.55855 -2.25357 0
M  V30 7839 H 756.655 5.84497 -2.77439 0
M  V30 7840 N 756.787 0.722489 1.40064 0
M  V30 7841 C 757.735 0.063329 2.32514 0
M  V30 7842 C 758.729 -0.73953 1.52405 0
M  V30 7843 O 759.935 -0.642122 1.68157 0
M  V30 7844 H 756.31 0.00167692 0.751998 0
M  V30 7845 H 758.281 0.859656 2.85749 0
M  V30 7846 C 757.03 -0.839219 3.3742 0
M  V30 7847 H 756.353 -0.230836 3.99133 0
M  V30 7848 H 757.793 -1.26827 4.04587 0
M  V30 7849 C 756.252 -1.96783 2.73456 0
M  V30 7850 O 756.782 -3.05933 2.60323 0
M  V30 7851 N 754.988 -1.75351 2.31734 0
M  V30 7852 H 754.535 -0.865787 2.42615 0
M  V30 7853 H 754.493 -2.51043 1.89275 0
M  V30 7854 N 758.265 -1.50454 0.469181 0
M  V30 7855 C 759.175 -2.32248 -0.331349 0
M  V30 7856 C 760.191 -1.42548 -0.997807 0
M  V30 7857 O 761.367 -1.75602 -0.9862 0
M  V30 7858 C 758.432 -3.17171 -1.40012 0
M  V30 7859 C 757.493 -4.2269 -0.750463 0
M  V30 7860 C 756.726 -5.03554 -1.76831 0
M  V30 7861 O 756.949 -4.85469 -2.99459 0
M  V30 7862 O 755.883 -5.86767 -1.3412 0
M  V30 7863 H 759.709 -3.01821 0.337279 0
M  V30 7864 H 757.294 -1.47602 0.231066 0
M  V30 7865 H 759.176 -3.69871 -2.01924 0
M  V30 7866 H 757.851 -2.50328 -2.05226 0
M  V30 7867 H 756.758 -3.73986 -0.0924446 0
M  V30 7868 H 758.091 -4.91997 -0.14131 0
M  V30 7869 N 759.743 -0.201713 -1.56304 0
M  V30 7870 C 760.653 0.728296 -2.23009 0
M  V30 7871 C 761.669 1.22945 -1.23128 0
M  V30 7872 O 762.845 1.27523 -1.55884 0
M  V30 7873 C 759.91 1.92792 -2.88153 0
M  V30 7874 C 758.971 1.47068 -4.03323 0
M  V30 7875 C 758.204 2.61312 -4.65351 0
M  V30 7876 O 758.427 3.7896 -4.26317 0
M  V30 7877 O 757.361 2.33646 -5.54701 0
M  V30 7878 H 761.187 0.190166 -3.03104 0
M  V30 7879 H 758.772 0.0278725 -1.49374 0
M  V30 7880 H 760.654 2.6289 -3.29343 0
M  V30 7881 H 759.329 2.45452 -2.11033 0
M  V30 7882 H 758.236 0.738299 -3.66742 0
M  V30 7883 H 759.569 0.990666 -4.82127 0
M  V30 7884 N 761.222 1.57436 0.0718424 0
M  V30 7885 C 762.638 1.53792 0.426628 0
M  V30 7886 C 762.838 0.921887 1.79174 0
M  V30 7887 O 761.894 0.524374 2.46995 0
M  V30 7888 C 763.207 2.98443 0.367739 0
M  V30 7889 C 764.755 3.09778 0.447928 0
M  V30 7890 C 765.23 4.5608 0.418946 0
M  V30 7891 N 766.721 4.60716 0.479022 0
M  V30 7892 C 767.456 5.71397 0.47881 0
M  V30 7893 N 766.952 6.91443 0.433417 0
M  V30 7894 N 768.745 5.59639 0.525364 0
M  V30 7895 H 760.896 1.95848 -0.822033 0
M  V30 7896 H 763.159 0.896418 -0.308447 0
M  V30 7897 H 762.865 3.47072 -0.56865 0
M  V30 7898 H 762.739 3.58335 1.17795 0
M  V30 7899 H 765.126 2.61122 1.37474 0
M  V30 7900 H 765.207 2.52796 -0.390857 0
M  V30 7901 H 764.851 5.05393 -0.504016 0
M  V30 7902 H 764.781 5.10925 1.27526 0
M  V30 7903 H 767.272 3.74328 0.518355 0
M  V30 7904 H 767.585 7.71562 0.43718 0
M  V30 7905 H 765.93 6.93847 0.400106 0
M  V30 7906 H 769.121 4.64756 0.558519 0
M  V30 7907 H 769.294 6.45896 0.52173 0
M  V30 7908 N 762.7 -0.34323 1.53817 0
M  V30 7909 C 763.925 -1.1079 1.75329 0
M  V30 7910 C 764.35 -1.81571 0.491293 0
M  V30 7911 O 763.708 -1.72561 -0.556089 0
M  V30 7912 C 763.756 -2.09681 2.9337 0
M  V30 7913 O 762.86 -3.17207 2.63541 0
M  V30 7914 H 762.201 -0.320402 0.581583 0
M  V30 7915 H 764.731 -0.393525 2.0078 0
M  V30 7916 H 764.741 -2.52897 3.20168 0
M  V30 7917 H 763.416 -1.5756 3.84899 0
M  V30 7918 H 761.993 -2.78806 2.47632 0
M  V30 7919 N 764.178 -1.45556 -0.604258 0
M  V30 7920 C 765.088 -1.57025 -1.74299 0
M  V30 7921 C 766.104 -0.45456 -1.67958 0
M  V30 7922 O 767.28 -0.715711 -1.88254 0
M  V30 7923 C 764.345 -1.53702 -3.10768 0
M  V30 7924 C 763.406 -2.76335 -3.28538 0
M  V30 7925 C 762.639 -2.73161 -4.58496 0
M  V30 7926 O 762.862 -1.80678 -5.41028 0
M  V30 7927 O 761.796 -3.64409 -4.79051 0
M  V30 7928 H 765.622 -2.53284 -1.67573 0
M  V30 7929 H 763.207 -1.28104 -0.768745 0
M  V30 7930 H 765.089 -1.54468 -3.92068 0
M  V30 7931 H 763.764 -0.605957 -3.17978 0
M  V30 7932 H 762.671 -2.8113 -2.46813 0
M  V30 7933 H 764.004 -3.68578 -3.26207 0
M  V30 7934 N 765.656 0.84705 -1.32902 0
M  V30 7935 C 766.905 1.59667 -1.23245 0
M  V30 7936 C 767.218 1.94551 0.202349 0
M  V30 7937 O 768.424 2.68218 0.420847 0
M  V30 7938 C 766.88 2.8795 -2.15901 0
M  V30 7939 C 766.488 2.60461 -3.64505 0
M  V30 7940 C 768.232 3.65968 -2.15098 0
M  V30 7941 C 766.139 3.84791 -4.49099 0
M  V30 7942 H 765.069 0.599167 -0.457728 0
M  V30 7943 H 767.72 0.934662 -1.57912 0
M  V30 7944 H 766.102 3.55648 -1.74157 0
M  V30 7945 H 767.276 2.01026 -4.14639 0
M  V30 7946 H 765.591 1.9576 -3.67515 0
M  V30 7947 H 768.188 4.58241 -2.75534 0
M  V30 7948 H 768.531 4.00275 -1.14392 0
M  V30 7949 H 769.064 3.05184 -2.55162 0
M  V30 7950 H 765.803 3.55621 -5.50649 0
M  V30 7951 H 765.323 4.43594 -4.03713 0
M  V30 7952 H 767.002 4.52454 -4.62487 0
M  V30 7953 N 767.134 1.16236 1.06428 0
M  V30 7954 C 768.38 0.944431 1.79467 0
M  V30 7955 C 768.713 -0.526558 1.86925 0
M  V30 7956 O 767.988 -1.39061 1.35986 0
M  V30 7957 C 768.271 1.57092 3.24028 0
M  V30 7958 C 768.124 3.11315 3.24658 0
M  V30 7959 C 769.443 1.26447 4.21544 0
M  V30 7960 H 766.562 0.344521 0.651517 0
M  V30 7961 H 769.204 1.43545 1.24478 0
M  V30 7962 H 767.354 1.15337 3.70985 0
M  V30 7963 H 769.026 3.62042 2.85873 0
M  V30 7964 H 767.269 3.44716 2.6335 0
M  V30 7965 H 767.94 3.50269 4.26633 0
M  V30 7966 H 770.416 1.62581 3.83023 0
M  V30 7967 H 769.292 1.72885 5.20963 0
M  V30 7968 H 769.553 0.183068 4.41721 0
M  V30 7969 N 768.612 -1.24939 0.960631 0
M  V30 7970 C 769.889 -1.88118 0.535807 0
M  V30 7971 C 770.269 -1.86605 -0.987009 0
M  V30 7972 O 769.617 -1.33375 -1.85536 0
M  V30 7973 C 769.827 -3.30565 1.11927 0
M  V30 7974 C 771.175 -4.07296 1.19981 0
M  V30 7975 O 772.199 -3.39709 1.07126 0
M  V30 7976 O 771.058 -5.28206 1.40218 0
M  V30 7977 H 768.152 -0.807698 0.177631 0
M  V30 7978 H 770.698 -1.32964 1.05445 0
M  V30 7979 H 769.47 -3.26128 2.16231 0
M  V30 7980 H 769.093 -3.93284 0.584245 0
M  V30 7981 N 770.09 -0.729906 -1.39679 0
M  V30 7982 C 771.337 -0.275622 -2.00615 0
M  V30 7983 C 771.665 1.13559 -1.57907 0
M  V30 7984 O 770.92 1.78745 -0.796789 0
M  V30 7985 C 771.219 -0.319564 -3.55968 0
M  V30 7986 C 770.885 -1.68308 -4.1831 0
M  V30 7987 C 769.547 -2.05629 -4.35052 0
M  V30 7988 C 771.899 -2.57857 -4.52945 0
M  V30 7989 C 769.227 -3.32018 -4.83716 0
M  V30 7990 C 771.579 -3.83613 -5.03015 0
M  V30 7991 C 770.243 -4.21033 -5.17965 0
M  V30 7992 H 769.513 -0.100857 -0.734104 0
M  V30 7993 H 772.16 -0.93575 -1.67081 0
M  V30 7994 H 770.465 0.42414 -3.89497 0
M  V30 7995 H 772.162 0.0499905 -4.00969 0
M  V30 7996 H 768.752 -1.3829 -4.05677 0
M  V30 7997 H 772.936 -2.30295 -4.39634 0
M  V30 7998 H 768.192 -3.6096 -4.93475 0
M  V30 7999 H 772.366 -4.53162 -5.28788 0
M  V30 8000 H 769.993 -5.19034 -5.55435 0
M  V30 8001 N 771.568 1.50203 -0.477153 0
M  V30 8002 C 772.793 2.07263 0.0754986 0
M  V30 8003 C 773.218 1.33801 1.32208 0
M  V30 8004 O 772.576 0.387482 1.77111 0
M  V30 8005 C 772.624 3.59028 0.336348 0
M  V30 8006 O 771.728 3.87339 1.4157 0
M  V30 8007 H 771.069 0.663815 -0.015662 0
M  V30 8008 H 773.599 1.93321 -0.669936 0
M  V30 8009 H 773.609 4.03927 0.575034 0
M  V30 8010 H 772.284 4.11912 -0.574551 0
M  V30 8011 H 770.861 3.54272 1.16385 0
M  V30 8012 N 773.046 0.209999 1.56195 0
M  V30 8013 C 774.292 -0.425442 1.98287 0
M  V30 8014 C 774.625 -1.60232 1.09724 0
M  V30 8015 O 773.9 -1.93902 0.152414 0
M  V30 8016 C 774.183 -0.871189 3.49403 0
M  V30 8017 C 774.036 0.308527 4.48741 0
M  V30 8018 C 775.355 -1.73146 4.04609 0
M  V30 8019 H 772.474 -0.153169 0.720908 0
M  V30 8020 H 775.116 0.303916 1.87554 0
M  V30 8021 H 773.266 -1.49266 3.58681 0
M  V30 8022 H 774.938 0.946487 4.51486 0
M  V30 8023 H 773.181 0.957878 4.23092 0
M  V30 8024 H 773.852 -0.0461143 5.51981 0
M  V30 8025 H 776.328 -1.2072 3.98203 0
M  V30 8026 H 775.204 -2.01228 5.10684 0
M  V30 8027 H 775.465 -2.69083 3.5078 0
M  V30 8028 N 774.524 -1.57472 -0.0634922 0
M  V30 8029 C 775.935 -1.76303 -0.614337 0
M  V30 8030 C 776.286 -0.836578 -1.77471 0
M  V30 8031 O 775.411 -0.0227184 -2.16388 0
M  V30 8032 C 776.006 -3.19709 -1.12122 0
M  V30 8033 C 774.565 -3.39856 -1.61786 0
M  V30 8034 C 773.712 -2.71975 -0.540845 0
M  V30 8035 H 776.663 -1.57864 0.162702 0
M  V30 8036 H 776.684 -3.24326 -1.98979 0
M  V30 8037 H 776.196 -3.87114 -0.276472 0
M  V30 8038 H 774.297 -2.77578 -2.48558 0
M  V30 8039 H 774.41 -4.48338 -1.68908 0
M  V30 8040 H 772.774 -2.34763 -0.987854 0
M  V30 8041 H 773.557 -3.4204 0.293856 0
M  V30 8042 N 776.003 0.335068 -1.53997 0
M  V30 8043 C 777.25 1.07435 -1.71651 0
M  V30 8044 C 777.578 1.88378 -0.48413 0
M  V30 8045 O 776.833 1.8827 0.534139 0
M  V30 8046 C 777.132 2.0364 -2.9371 0
M  V30 8047 C 776.798 1.38942 -4.28959 0
M  V30 8048 C 775.46 1.21027 -4.65732 0
M  V30 8049 C 777.812 0.924083 -5.12943 0
M  V30 8050 C 775.14 0.552097 -5.84097 0
M  V30 8051 C 777.492 0.27978 -6.31981 0
M  V30 8052 C 776.156 0.0883843 -6.67441 0
M  V30 8053 H 775.426 0.393133 -0.628114 0
M  V30 8054 H 778.073 0.352712 -1.88224 0
M  V30 8055 H 776.378 2.82215 -2.71775 0
M  V30 8056 H 778.075 2.6085 -3.04562 0
M  V30 8057 H 774.665 1.53885 -4.00022 0
M  V30 8058 H 778.849 1.05032 -4.85059 0
M  V30 8059 H 774.105 0.392502 -6.10139 0
M  V30 8060 H 778.279 -0.0888479 -6.96343 0
M  V30 8061 H 775.906 -0.423657 -7.59019 0
M  V30 8062 N 777.481 1.45874 0.596531 0
M  V30 8063 C 778.727 1.5069 1.35722 0
M  V30 8064 C 779.06 0.152506 1.936 0
M  V30 8065 O 778.335 -0.834411 1.75692 0
M  V30 8066 C 778.618 2.59474 2.4969 0
M  V30 8067 C 778.471 4.04396 1.96937 0
M  V30 8068 C 779.79 2.64451 3.51787 0
M  V30 8069 H 776.909 0.548611 0.492133 0
M  V30 8070 H 779.551 1.77741 0.671428 0
M  V30 8071 H 777.701 2.36539 3.08191 0
M  V30 8072 H 779.373 4.38576 1.43 0
M  V30 8073 H 777.616 4.14529 1.27859 0
M  V30 8074 H 778.287 4.76218 2.79143 0
M  V30 8075 H 780.763 2.85031 3.03145 0
M  V30 8076 H 779.639 3.42411 4.29006 0
M  V30 8077 H 779.9 1.69965 4.08123 0
M  V30 8078 N 778.959 -0.83999 1.33349 0
M  V30 8079 C 779.869 -1.98182 1.25543 0
M  V30 8080 C 780.885 -1.73204 0.166208 0
M  V30 8081 O 782.061 -1.97596 0.389589 0
M  V30 8082 C 779.126 -3.32157 0.993614 0
M  V30 8083 C 778.187 -3.70258 2.17273 0
M  V30 8084 C 777.42 -4.9784 1.92331 0
M  V30 8085 O 777.643 -5.63679 0.873074 0
M  V30 8086 O 776.577 -5.33418 2.78835 0
M  V30 8087 H 780.403 -2.07708 2.21565 0
M  V30 8088 H 777.988 -0.972852 1.13384 0
M  V30 8089 H 779.87 -4.12433 0.864711 0
M  V30 8090 H 778.545 -3.23637 0.0636596 0
M  V30 8091 H 777.452 -2.90497 2.35716 0
M  V30 8092 H 778.785 -3.83442 3.08598 0
M  V30 8093 N 780.437 -1.16799 -1.0581 0
M  V30 8094 C 781.665 -0.97687 -1.82387 0
M  V30 8095 C 782.08 0.474917 -1.82729 0
M  V30 8096 O 781.437 1.3297 -1.25001 0
M  V30 8097 C 781.488 -1.50279 -3.28783 0
M  V30 8098 O 781.209 -2.89772 -3.28578 0
M  V30 8099 C 782.71 -1.35538 -4.22071 0
M  V30 8100 H 779.93 -0.345977 -0.574927 0
M  V30 8101 H 782.474 -1.54942 -1.33466 0
M  V30 8102 H 780.629 -0.972414 -3.74997 0
M  V30 8103 H 781.043 -3.13954 -4.20159 0
M  V30 8104 H 782.517 -1.7716 -5.22799 0
M  V30 8105 H 782.994 -0.301598 -4.38163 0
M  V30 8106 H 783.6 -1.87562 -3.81708 0
M  V30 8107 N 781.915 1.24427 -0.967243 0
M  V30 8108 C 783.163 1.92107 -0.627638 0
M  V30 8109 C 783.484 1.75991 0.83978 0
M  V30 8110 O 782.754 1.13118 1.59941 0
M  V30 8111 H 781.334 0.710986 -0.229145 0
M  V30 8112 H 783.996 1.51331 -1.22821 0
M  V30 8113 H 783.092 2.99791 -0.867844 0
M  V30 8114 N 783.393 0.737304 1.3929 0
M  V30 8115 C 784.642 0.283129 1.99703 0
M  V30 8116 C 784.955 -1.13677 1.59176 0
M  V30 8117 O 786.161 -1.69058 2.12442 0
M  V30 8118 C 784.617 0.455262 3.57009 0
M  V30 8119 C 784.225 1.88319 4.06497 0
M  V30 8120 C 785.969 0.0629786 4.24453 0
M  V30 8121 C 783.876 2.00475 5.56385 0
M  V30 8122 H 782.806 0.102106 0.747054 0
M  V30 8123 H 785.457 0.911515 1.5926 0
M  V30 8124 H 783.839 -0.242057 3.9526 0
M  V30 8125 H 785.013 2.61265 3.79575 0
M  V30 8126 H 783.328 2.2289 3.51723 0
M  V30 8127 H 785.925 0.132787 5.34535 0
M  V30 8128 H 786.268 -0.982128 4.04549 0
M  V30 8129 H 786.801 0.71154 3.91385 0
M  V30 8130 H 783.54 3.03182 5.81172 0
M  V30 8131 H 783.06 1.31969 5.85102 0
M  V30 8132 H 784.739 1.787 6.21832 0
M  V30 8133 N 784.871 -1.49948 0.485112 0
M  V30 8134 C 786.096 -2.073 -0.0645059 0
M  V30 8135 C 786.521 -1.345 -1.31497 0
M  V30 8136 O 785.879 -0.39687 -1.76903 0
M  V30 8137 C 785.927 -3.59201 -0.317304 0
M  V30 8138 O 785.031 -3.88085 -1.39514 0
M  V30 8139 H 784.372 -0.663723 0.0191822 0
M  V30 8140 H 786.902 -1.92963 0.680179 0
M  V30 8141 H 786.912 -4.04227 -0.553604 0
M  V30 8142 H 785.587 -4.11602 0.596387 0
M  V30 8143 H 784.164 -3.54885 -1.14504 0
M  V30 8144 N 786.349 -0.21828 -1.56081 0
M  V30 8145 C 787.595 0.414921 -1.9851 0
M  V30 8146 C 787.928 1.59648 -1.10573 0
M  V30 8147 O 787.203 1.93818 -0.162695 0
M  V30 8148 C 787.486 0.852647 -3.4986 0
M  V30 8149 C 787.339 -0.33232 -4.48571 0
M  V30 8150 C 788.658 1.70998 -4.05521 0
M  V30 8151 H 785.777 0.149344 -0.72171 0
M  V30 8152 H 788.419 -0.313858 -1.8739 0
M  V30 8153 H 786.569 1.47362 -3.59467 0
M  V30 8154 H 788.241 -0.970418 -4.50977 0
M  V30 8155 H 786.484 -0.980302 -4.22578 0
M  V30 8156 H 787.155 0.0168407 -5.51997 0
M  V30 8157 H 789.631 1.18606 -3.98838 0
M  V30 8158 H 788.507 1.98517 -5.11744 0
M  V30 8159 H 788.768 2.67219 -3.52202 0
M  V30 8160 N 787.827 1.57504 0.0551401 0
M  V30 8161 C 788.76 2.00155 1.09604 0
M  V30 8162 C 789.738 0.881274 1.36647 0
M  V30 8163 O 790.922 1.14498 1.49742 0
M  V30 8164 C 788.049 2.35246 2.43674 0
M  V30 8165 C 787.095 3.57452 2.32659 0
M  V30 8166 S 787.928 5.07639 1.7048 0
M  V30 8167 C 789.084 5.45947 3.06093 0
M  V30 8168 H 789.317 2.88131 0.732635 0
M  V30 8169 H 786.85 1.52122 0.264252 0
M  V30 8170 H 788.808 2.56136 3.20787 0
M  V30 8171 H 787.469 1.47769 2.7717 0
M  V30 8172 H 786.662 3.79576 3.31569 0
M  V30 8173 H 786.264 3.36279 1.63685 0
M  V30 8174 H 788.556 5.45036 4.0242 0
M  V30 8175 H 789.499 6.4656 2.88732 0
M  V30 8176 H 789.907 4.73419 3.07466 0
M  V30 8177 N 789.305 -0.326896 1.54172 0
M  V30 8178 C 790.551 -1.06681 1.72473 0
M  V30 8179 C 790.884 -1.87779 0.49523 0
M  V30 8180 O 790.159 -1.87754 -0.507803 0
M  V30 8181 C 790.442 -1.99429 2.99834 0
M  V30 8182 C 790.295 -1.21682 4.33028 0
M  V30 8183 C 791.614 -2.99002 3.22933 0
M  V30 8184 H 788.733 -0.386438 0.627563 0
M  V30 8185 H 791.375 -0.343779 1.86864 0
M  V30 8186 H 789.525 -2.61081 2.87696 0
M  V30 8187 H 791.197 -0.625153 4.57044 0
M  V30 8188 H 789.44 -0.519045 4.30684 0
M  V30 8189 H 790.111 -1.89766 5.18356 0
M  V30 8190 H 792.587 -2.4747 3.34511 0
M  V30 8191 H 791.463 -3.61085 4.13412 0
M  V30 8192 H 791.724 -3.71281 2.40006 0
M  V30 8193 N 790.784 -1.46188 -0.588786 0
M  V30 8194 C 791.747 -1.55882 -1.68029 0
M  V30 8195 C 792.747 -0.436515 -1.54762 0
M  V30 8196 O 793.937 -0.700626 -1.59489 0
M  V30 8197 C 791.069 -1.47332 -3.07418 0
M  V30 8198 H 792.262 -2.5315 -1.60795 0
M  V30 8199 H 789.815 -1.33908 -0.806116 0
M  V30 8200 H 790.55 -0.513193 -3.20214 0
M  V30 8201 H 790.335 -2.28753 -3.18456 0
M  V30 8202 H 791.825 -1.57187 -3.86887 0
M  V30 8203 N 792.262 0.832906 -1.33792 0
M  V30 8204 C 793.678 1.1245 -1.13257 0
M  V30 8205 C 793.878 2.01369 0.0725832 0
M  V30 8206 O 792.934 2.41071 0.751082 0
M  V30 8207 C 794.247 1.78084 -2.42294 0
M  V30 8208 C 795.795 1.90624 -2.48257 0
M  V30 8209 C 796.27 2.59673 -3.77271 0
M  V30 8210 N 797.761 2.67181 -3.78376 0
M  V30 8211 C 798.496 3.21313 -4.74916 0
M  V30 8212 N 797.992 3.76086 -5.81835 0
M  V30 8213 N 799.785 3.19621 -4.62384 0
M  V30 8214 H 791.936 0.241244 -2.11026 0
M  V30 8215 H 794.199 0.169557 -0.932713 0
M  V30 8216 H 793.905 1.20209 -3.30519 0
M  V30 8217 H 793.779 2.78049 -2.5489 0
M  V30 8218 H 796.166 2.4765 -1.60478 0
M  V30 8219 H 796.247 0.89591 -2.39598 0
M  V30 8220 H 795.891 2.03304 -4.65435 0
M  V30 8221 H 795.821 3.61189 -3.8321 0
M  V30 8222 H 798.312 2.28346 -3.01108 0
M  V30 8223 H 798.625 4.15612 -6.51526 0
M  V30 8224 H 796.97 3.74357 -5.85561 0
M  V30 8225 H 800.161 2.76091 -3.7801 0
M  V30 8226 H 800.334 3.61504 -5.37791 0
M  V30 8227 N 793.74 1.17359 1.05189 0
M  V30 8228 C 794.965 0.98709 1.82404 0
M  V30 8229 C 795.39 -0.459848 1.82392 0
M  V30 8230 O 794.748 -1.32924 1.23292 0
M  V30 8231 C 794.796 1.53276 3.26403 0
M  V30 8232 O 793.9 0.746541 4.05587 0
M  V30 8233 H 793.241 0.35047 0.563974 0
M  V30 8234 H 795.771 1.55856 1.32552 0
M  V30 8235 H 795.781 1.55504 3.77203 0
M  V30 8236 H 794.456 2.58603 3.25726 0
M  V30 8237 H 793.033 0.795671 3.64312 0
M  V30 8238 N 795.218 -1.23913 0.973828 0
M  V30 8239 C 796.166 -2.27141 0.50098 0
M  V30 8240 C 797.16 -1.63623 -0.438631 0
M  V30 8241 O 798.366 -1.77253 -0.313247 0
M  V30 8242 H 794.741 -0.73817 0.14356 0
M  V30 8243 H 796.712 -2.64392 1.38346 0
M  V30 8244 C 795.461 -3.47195 -0.187377 0
M  V30 8245 H 794.784 -3.96318 0.526535 0
M  V30 8246 H 796.224 -4.21252 -0.481962 0
M  V30 8247 C 794.683 -3.05678 -1.41642 0
M  V30 8248 O 795.213 -3.1338 -2.51309 0
M  V30 8249 N 793.419 -2.60661 -1.28469 0
M  V30 8250 H 792.966 -2.54594 -0.39238 0
M  V30 8251 H 792.924 -2.33249 -2.10813 0
M  V30 8252 N 796.696 -0.74468 -1.38897 0
M  V30 8253 C 797.944 -0.296298 -1.99916 0
M  V30 8254 C 798.265 1.12325 -1.59399 0
M  V30 8255 O 797.535 1.76658 -0.846689 0
M  V30 8256 H 796.115 -0.106561 -0.73936 0
M  V30 8257 H 798.777 -0.956793 -1.69798 0
M  V30 8258 H 797.873 -0.352356 -3.10105 0
M  V30 8259 N 798.174 1.49689 -0.493057 0
M  V30 8260 C 799.402 2.06836 0.0513141 0
M  V30 8261 C 799.817 1.35436 1.31539 0
M  V30 8262 O 799.174 0.430248 1.77356 0
M  V30 8263 C 799.225 3.60107 0.317003 0
M  V30 8264 O 798.946 4.2882 -0.896957 0
M  V30 8265 C 800.447 4.33945 0.905902 0
M  V30 8266 H 797.667 0.670787 -0.0169048 0
M  V30 8267 H 800.211 1.92574 -0.688139 0
M  V30 8268 H 798.366 3.74099 1.00642 0
M  V30 8269 H 798.78 5.20395 -0.654939 0
M  V30 8270 H 800.254 5.42087 1.04144 0
M  V30 8271 H 800.731 3.95895 1.90168 0
M  V30 8272 H 801.337 4.2454 0.254195 0
M  V30 8273 N 799.652 0.226554 1.55963 0
M  V30 8274 C 800.898 -0.404387 1.98727 0
M  V30 8275 C 801.231 -1.59059 1.11418 0
M  V30 8276 O 800.506 -1.93729 0.172971 0
M  V30 8277 C 800.789 -0.834081 3.50307 0
M  V30 8278 C 800.642 0.356104 4.48388 0
M  V30 8279 C 801.961 -1.68845 4.06423 0
M  V30 8280 H 799.08 -0.145515 0.722492 0
M  V30 8281 H 801.722 0.323791 1.87221 0
M  V30 8282 H 799.872 -1.45454 3.60244 0
M  V30 8283 H 801.544 0.99432 4.50456 0
M  V30 8284 H 799.787 1.0027 4.22053 0
M  V30 8285 H 800.458 0.0124333 5.51999 0
M  V30 8286 H 802.934 -1.16489 3.99461 0
M  V30 8287 H 801.81 -1.958 5.1279 0
M  V30 8288 H 802.071 -2.65347 3.53615 0
M  V30 8289 N 801.13 -1.57531 -0.0467866 0
M  V30 8290 C 802.355 -1.93087 -0.757123 0
M  V30 8291 C 802.78 -0.825116 -1.69037 0
M  V30 8292 O 802.138 0.220449 -1.79955 0
M  V30 8293 C 802.186 -3.27669 -1.5055 0
M  V30 8294 O 801.29 -3.18667 -2.61773 0
M  V30 8295 H 800.631 -0.631597 -0.204892 0
M  V30 8296 H 803.161 -2.04599 -0.00755232 0
M  V30 8297 H 803.171 -3.6214 -1.87932 0
M  V30 8298 H 801.846 -4.07717 -0.820931 0
M  V30 8299 H 800.423 -2.95798 -2.27064 0
M  V30 8300 N 802.608 0.318715 -1.54344 0
M  V30 8301 C 804.019 0.89285 -1.63967 0
M  V30 8302 C 804.37 1.88712 -0.536855 0
M  V30 8303 O 803.495 2.13877 0.329457 0
M  V30 8304 C 804.09 1.62618 -2.97222 0
M  V30 8305 C 802.649 2.14897 -3.09025 0
M  V30 8306 C 801.796 0.975909 -2.5956 0
M  V30 8307 H 804.747 0.0961687 -1.58408 0
M  V30 8308 H 804.768 2.4907 -2.87653 0
M  V30 8309 H 804.28 0.902286 -3.77466 0
M  V30 8310 H 802.381 2.90387 -2.33465 0
M  V30 8311 H 802.494 2.39565 -4.14904 0
M  V30 8312 H 800.858 1.35646 -2.15574 0
M  V30 8313 H 801.641 0.266253 -3.42266 0
M  V30 8314 N 804.086 1.46499 0.581025 0
M  V30 8315 C 805.311 1.55708 1.37002 0
M  V30 8316 C 805.736 0.19942 1.8704 0
M  V30 8317 O 805.094 -0.820731 1.61659 0
M  V30 8318 C 805.142 2.56716 2.53238 0
M  V30 8319 O 804.246 2.10336 3.54729 0
M  V30 8320 H 803.587 0.523912 0.407937 0
M  V30 8321 H 806.117 1.92085 0.704602 0
M  V30 8322 H 806.127 2.76378 3.00132 0
M  V30 8323 H 804.802 3.55307 2.16171 0
M  V30 8324 H 803.379 2.00669 3.14303 0
M  V30 8325 N 805.565 -0.825799 1.34232 0
M  V30 8326 C 806.528 -1.91808 1.25468 0
M  V30 8327 C 807.528 -1.59893 0.170567 0
M  V30 8328 O 808.718 -1.68986 0.422996 0
M  V30 8329 C 805.85 -3.27786 0.93644 0
M  V30 8330 H 807.043 -2.01003 2.22571 0
M  V30 8331 H 804.596 -1.01944 1.18479 0
M  V30 8332 H 805.331 -3.24285 -0.0315408 0
M  V30 8333 H 805.116 -3.52333 1.72057 0
M  V30 8334 H 806.606 -4.07782 0.900214 0
M  V30 8335 N 807.043 -1.17915 -1.04565 0
M  V30 8336 C 808.29 -0.971424 -1.77678 0
M  V30 8337 C 808.618 0.499401 -1.87979 0
M  V30 8338 O 807.873 1.38695 -1.38066 0
M  V30 8339 C 808.172 -1.56528 -3.213 0
M  V30 8340 C 807.838 -3.06138 -3.31044 0
M  V30 8341 C 806.5 -3.46974 -3.33411 0
M  V30 8342 C 808.852 -4.02151 -3.31548 0
M  V30 8343 C 806.18 -4.82406 -3.33918 0
M  V30 8344 C 808.532 -5.37492 -3.33595 0
M  V30 8345 C 807.196 -5.77782 -3.34251 0
M  V30 8346 H 806.466 -0.355469 -0.650171 0
M  V30 8347 H 809.113 -1.46902 -1.22849 0
M  V30 8348 H 807.418 -0.98955 -3.79098 0
M  V30 8349 H 809.115 -1.38003 -3.76505 0
M  V30 8350 H 805.705 -2.73589 -3.29919 0
M  V30 8351 H 809.889 -3.71656 -3.28916 0
M  V30 8352 H 805.145 -5.12927 -3.3274 0
M  V30 8353 H 809.319 -6.1166 -3.32934 0
M  V30 8354 H 806.946 -6.82702 -3.34397 0
M  V30 8355 N 808.521 1.23394 -0.980386 0
M  V30 8356 C 809.451 2.2717 -0.540024 0
M  V30 8357 C 810.432 1.64659 0.426787 0
M  V30 8358 O 811.617 1.91543 0.320153 0
M  V30 8359 C 808.747 3.46939 0.15836 0
M  V30 8360 C 807.701 4.21802 -0.725732 0
M  V30 8361 C 807.027 5.34597 0.104866 0
M  V30 8362 C 808.327 4.81802 -2.01654 0
M  V30 8363 H 810.021 2.64257 -1.40743 0
M  V30 8364 H 807.567 1.2703 -0.678193 0
M  V30 8365 H 809.52 4.18683 0.477737 0
M  V30 8366 H 808.244 3.08912 1.06022 0
M  V30 8367 H 806.903 3.51875 -1.02857 0
M  V30 8368 H 806.551 4.92812 1.00726 0
M  V30 8369 H 806.251 5.85607 -0.483557 0
M  V30 8370 H 807.775 6.09163 0.418624 0
M  V30 8371 H 809.189 5.45554 -1.76193 0
M  V30 8372 H 807.586 5.43098 -2.55273 0
M  V30 8373 H 808.656 4.02549 -2.70338 0
M  V30 8374 N 809.999 0.752036 1.385 0
M  V30 8375 C 810.909 0.125318 2.34265 0
M  V30 8376 C 811.925 -0.702437 1.59191 0
M  V30 8377 O 813.101 -0.626951 1.91393 0
M  V30 8378 C 810.166 -0.758486 3.38301 0
M  V30 8379 C 809.227 0.0834636 4.29219 0
M  V30 8380 C 808.46 -0.758252 5.28286 0
M  V30 8381 O 808.683 -1.99632 5.34325 0
M  V30 8382 O 807.617 -0.177878 6.01637 0
M  V30 8383 H 811.443 0.91617 2.89551 0
M  V30 8384 H 809.028 0.512911 1.4032 0
M  V30 8385 H 810.91 -1.26365 4.02007 0
M  V30 8386 H 809.585 -1.52786 2.85374 0
M  V30 8387 H 808.492 0.634545 3.68679 0
M  V30 8388 H 809.825 0.815455 4.85398 0
M  V30 8389 N 811.477 -1.49425 0.500989 0
M  V30 8390 C 812.888 -1.86624 0.0532011 0
M  V30 8391 C 813.239 -1.41331 -1.36088 0
M  V30 8392 O 812.364 -0.791195 -2.01418 0
M  V30 8393 C 812.959 -3.38681 0.0897693 0
M  V30 8394 C 811.518 -3.75181 -0.302677 0
M  V30 8395 C 810.665 -2.73419 0.462307 0
M  V30 8396 H 813.616 -1.41743 0.713773 0
M  V30 8397 H 813.637 -3.73902 -0.705528 0
M  V30 8398 H 813.149 -3.71616 1.11907 0
M  V30 8399 H 811.25 -3.47855 -1.33521 0
M  V30 8400 H 811.363 -4.79097 0.0167653 0
M  V30 8401 H 809.727 -2.54548 -0.0878557 0
M  V30 8402 H 810.51 -3.09198 1.49169 0
M  V30 8403 N 812.955 -0.234822 -1.55841 0
M  V30 8404 C 814.185 0.397168 -2.02746 0
M  V30 8405 C 814.593 1.52951 -1.11367 0
M  V30 8406 O 813.936 1.8332 -0.118133 0
M  V30 8407 C 813.998 0.977748 -3.45948 0
M  V30 8408 C 813.662 -0.0208193 -4.56995 0
M  V30 8409 C 814.659 -0.826015 -5.13296 0
M  V30 8410 C 812.344 -0.143416 -5.02095 0
M  V30 8411 C 814.338 -1.74038 -6.1318 0
M  V30 8412 C 812.025 -1.0613 -6.01814 0
M  V30 8413 C 813.023 -1.85832 -6.57233 0
M  V30 8414 O 812.711 -2.76075 -7.55008 0
M  V30 8415 H 812.443 0.0999802 -0.668566 0
M  V30 8416 H 814.997 -0.352673 -2.0235 0
M  V30 8417 H 813.227 1.77693 -3.43456 0
M  V30 8418 H 814.916 1.51854 -3.76424 0
M  V30 8419 H 815.682 -0.741822 -4.79293 0
M  V30 8420 H 811.561 0.466857 -4.5863 0
M  V30 8421 H 815.105 -2.36291 -6.56363 0
M  V30 8422 H 811.002 -1.14646 -6.35237 0
M  V30 8423 H 811.77 -2.703 -7.7258 0
M  V30 8424 N 814.433 1.57553 0.0384317 0
M  V30 8425 C 815.658 1.93485 0.746872 0
M  V30 8426 C 816.083 0.834069 1.68597 0
M  V30 8427 O 815.441 -0.210902 1.80069 0
M  V30 8428 C 815.489 3.28463 1.4881 0
M  V30 8429 O 814.593 3.20051 2.60079 0
M  V30 8430 H 813.934 0.632675 0.201539 0
M  V30 8431 H 816.464 2.046 -0.00329815 0
M  V30 8432 H 816.474 3.63132 1.86009 0
M  V30 8433 H 815.149 4.08147 0.799297 0
M  V30 8434 H 813.726 2.96998 2.25492 0
M  V30 8435 N 815.911 -0.310526 1.54511 0
M  V30 8436 C 817.322 -0.884142 1.64438 0
M  V30 8437 C 817.673 -1.88425 0.546855 0
M  V30 8438 O 816.798 -2.14049 -0.31811 0
M  V30 8439 C 817.393 -1.6104 2.9808 0
M  V30 8440 C 815.952 -2.13255 3.1016 0
M  V30 8441 C 815.099 -0.96213 2.60074 0
M  V30 8442 H 818.05 -0.0877666 1.58457 0
M  V30 8443 H 818.071 -2.47541 2.8897 0
M  V30 8444 H 817.583 -0.882255 3.77939 0
M  V30 8445 H 815.684 -2.89145 2.35002 0
M  V30 8446 H 815.797 -2.37361 4.16169 0
M  V30 8447 H 814.161 -1.34501 2.16291 0
M  V30 8448 H 814.944 -0.248098 3.42402 0
M  V30 8449 N 817.389 -1.46805 -0.573248 0
M  V30 8450 C 818.352 -1.57655 -1.66366 0
M  V30 8451 C 819.352 -0.452905 -1.5429 0
M  V30 8452 O 820.542 -0.717502 -1.58737 0
M  V30 8453 C 817.674 -1.50584 -3.05839 0
M  V30 8454 H 818.867 -2.54842 -1.581 0
M  V30 8455 H 816.42 -1.34756 -0.791868 0
M  V30 8456 H 817.155 -0.547127 -3.19651 0
M  V30 8457 H 816.94 -2.32118 -3.16012 0
M  V30 8458 H 818.43 -1.61282 -3.85199 0
M  V30 8459 N 818.867 0.818669 -1.34668 0
M  V30 8460 C 820.113 1.57746 -1.27453 0
M  V30 8461 C 820.446 1.93588 0.154077 0
M  V30 8462 O 819.721 1.60371 1.10051 0
M  V30 8463 C 820.004 2.87414 -2.16945 0
M  V30 8464 C 819.857 2.58125 -3.68363 0
M  V30 8465 C 821.176 3.89021 -2.05792 0
M  V30 8466 H 818.295 0.572339 -0.464324 0
M  V30 8467 H 820.937 0.942784 -1.64959 0
M  V30 8468 H 819.087 3.41576 -1.85089 0
M  V30 8469 H 820.759 2.10239 -4.10606 0
M  V30 8470 H 819.002 1.91503 -3.89242 0
M  V30 8471 H 819.673 3.5061 -4.26353 0
M  V30 8472 H 822.149 3.44224 -2.33771 0
M  V30 8473 H 821.025 4.77548 -2.70628 0
M  V30 8474 H 821.286 4.29786 -1.03618 0
M  V30 8475 N 820.346 1.18468 1.03938 0
M  V30 8476 C 821.592 0.992302 1.77553 0
M  V30 8477 C 821.947 -0.472959 1.86496 0
M  V30 8478 O 821.24 -1.34662 1.36296 0
M  V30 8479 C 821.434 1.58229 3.20466 0
M  V30 8480 C 821.263 3.1034 3.25452 0
M  V30 8481 C 820.033 3.79166 3.34008 0
M  V30 8482 C 822.231 4.07814 3.13357 0
M  V30 8483 N 820.213 5.18768 3.28258 0
M  V30 8484 C 821.584 5.33946 3.15121 0
M  V30 8485 C 823.639 3.99315 2.97409 0
M  V30 8486 C 822.342 6.52565 3.02574 0
M  V30 8487 C 824.368 5.17532 2.86208 0
M  V30 8488 C 823.73 6.42557 2.88617 0
M  V30 8489 H 819.829 0.417131 0.661457 0
M  V30 8490 H 822.413 1.50265 1.23808 0
M  V30 8491 H 820.584 1.0981 3.72554 0
M  V30 8492 H 822.316 1.32531 3.82384 0
M  V30 8493 H 819.071 3.29905 3.39794 0
M  V30 8494 H 819.495 5.91783 3.28818 0
M  V30 8495 H 824.137 3.03485 2.94375 0
M  V30 8496 H 821.855 7.48592 3.0436 0
M  V30 8497 H 825.441 5.12748 2.7492 0
M  V30 8498 H 824.321 7.32494 2.80039 0
M  V30 8499 N 821.824 -1.22873 0.986916 0
M  V30 8500 C 823.07 -1.91746 0.660401 0
M  V30 8501 C 823.403 -1.76738 -0.804812 0
M  V30 8502 O 822.678 -1.13246 -1.58131 0
M  V30 8503 C 822.961 -3.44156 1.05966 0
M  V30 8504 C 822.814 -3.68242 2.58298 0
M  V30 8505 C 824.133 -4.35874 0.60842 0
M  V30 8506 H 821.252 -0.696347 0.241391 0
M  V30 8507 H 823.894 -1.44867 1.22937 0
M  V30 8508 H 822.044 -3.84213 0.575534 0
M  V30 8509 H 823.716 -3.37626 3.14335 0
M  V30 8510 H 821.959 -3.12728 3.00638 0
M  V30 8511 H 822.63 -4.74956 2.81285 0
M  V30 8512 H 825.106 -4.03299 1.02417 0
M  V30 8513 H 823.982 -5.41201 0.916142 0
M  V30 8514 H 824.243 -4.39364 -0.491086 0
M  V30 8515 N 823.302 -0.75937 -1.38099 0
M  V30 8516 C 824.235 -0.0838362 -2.28046 0
M  V30 8517 C 825.213 0.722229 -1.4568 0
M  V30 8518 O 826.397 0.699629 -1.75036 0
M  V30 8519 C 823.524 0.887916 -3.26854 0
M  V30 8520 C 822.57 0.167374 -4.26171 0
M  V30 8521 S 823.403 -1.13592 -5.23314 0
M  V30 8522 C 824.559 -0.167385 -6.25676 0
M  V30 8523 H 824.792 -0.846564 -2.84992 0
M  V30 8524 H 822.325 -0.552206 -1.44188 0
M  V30 8525 H 824.283 1.44322 -3.84293 0
M  V30 8526 H 822.944 1.62366 -2.68879 0
M  V30 8527 H 822.137 0.903567 -4.95834 0
M  V30 8528 H 821.739 -0.316572 -3.72658 0
M  V30 8529 H 824.031 0.664598 -6.74232 0
M  V30 8530 H 824.974 -0.831836 -7.03197 0
M  V30 8531 H 825.382 0.21589 -5.64087 0
M  V30 8532 N 824.78 1.49157 -0.508906 0
M  V30 8533 C 825.713 2.26056 0.312103 0
M  V30 8534 C 826.691 1.30982 0.963456 0
M  V30 8535 O 827.875 1.60286 0.992002 0
M  V30 8536 C 825.002 3.06555 1.4402 0
M  V30 8537 C 824.048 4.16844 0.902414 0
M  V30 8538 S 824.881 5.35076 -0.213087 0
M  V30 8539 C 826.037 6.19132 0.917985 0
M  V30 8540 H 826.27 2.95343 -0.340559 0
M  V30 8541 H 823.803 1.51569 -0.294331 0
M  V30 8542 H 825.761 3.53517 2.08653 0
M  V30 8543 H 824.422 2.36722 2.0645 0
M  V30 8544 H 823.615 4.72714 1.74806 0
M  V30 8545 H 823.217 3.72513 0.333156 0
M  V30 8546 H 825.509 6.52556 1.82145 0
M  V30 8547 H 826.452 7.06982 0.397724 0
M  V30 8548 H 826.86 5.51839 1.18889 0
M  V30 8549 N 826.258 0.243083 1.55714 0
M  V30 8550 C 827.505 -0.38272 1.9885 0
M  V30 8551 C 827.833 -1.58225 1.13115 0
M  V30 8552 O 827.088 -1.94861 0.181067 0
M  V30 8553 C 827.387 -0.839621 3.47398 0
M  V30 8554 C 827.053 0.251737 4.50197 0
M  V30 8555 C 825.715 0.551487 4.78029 0
M  V30 8556 C 828.067 0.988728 5.11736 0
M  V30 8557 C 825.395 1.59237 5.64677 0
M  V30 8558 C 827.747 2.0191 5.99512 0
M  V30 8559 C 826.411 2.32554 6.2568 0
M  V30 8560 H 825.681 -0.140047 0.727645 0
M  V30 8561 H 828.328 0.35011 1.88272 0
M  V30 8562 H 826.633 -1.65159 3.55288 0
M  V30 8563 H 828.33 -1.33404 3.78159 0
M  V30 8564 H 824.92 0.00796741 4.28599 0
M  V30 8565 H 829.104 0.7704 4.90284 0
M  V30 8566 H 824.36 1.83517 5.83208 0
M  V30 8567 H 828.534 2.59511 6.46241 0
M  V30 8568 H 826.161 3.13349 6.92616 0
M  V30 8569 N 827.736 -1.57571 -0.0300757 0
M  V30 8570 C 828.982 -1.89506 -0.722159 0
M  V30 8571 C 829.315 -0.840699 -1.7506 0
M  V30 8572 O 828.59 0.144358 -1.93964 0
M  V30 8573 C 828.873 -3.32081 -1.39262 0
M  V30 8574 C 828.726 -4.48211 -0.377768 0
M  V30 8575 C 830.045 -3.73557 -2.32687 0
M  V30 8576 H 827.164 -0.689213 -0.261064 0
M  V30 8577 H 829.806 -1.89994 0.0150388 0
M  V30 8578 H 827.956 -3.31796 -2.02098 0
M  V30 8579 H 829.628 -4.6063 0.248591 0
M  V30 8580 H 827.871 -4.3274 0.303045 0
M  V30 8581 H 828.542 -5.44854 -0.885347 0
M  V30 8582 H 831.018 -3.75202 -1.79896 0
M  V30 8583 H 829.894 -4.74125 -2.7658 0
M  V30 8584 H 830.155 -3.05759 -3.19317 0
M  V30 8585 N 829.214 0.302327 -1.54673 0
M  V30 8586 C 830.147 1.39738 -1.80412 0
M  V30 8587 C 831.125 1.48813 -0.655241 0
M  V30 8588 O 832.309 1.65895 -0.89505 0
M  V30 8589 C 829.436 2.7766 -1.93966 0
M  V30 8590 C 828.482 2.86014 -3.16383 0
M  V30 8591 S 829.315 2.48246 -4.74483 0
M  V30 8592 C 830.471 3.88198 -4.90971 0
M  V30 8593 H 830.704 1.17696 -2.73011 0
M  V30 8594 H 828.237 0.500364 -1.46068 0
M  V30 8595 H 830.195 3.571 -2.0246 0
M  V30 8596 H 828.856 2.96971 -1.02307 0
M  V30 8597 H 828.049 3.87174 -3.22664 0
M  V30 8598 H 827.651 2.14568 -3.06328 0
M  V30 8599 H 829.943 4.83181 -4.74913 0
M  V30 8600 H 830.886 3.86887 -5.93063 0
M  V30 8601 H 831.294 3.78139 -4.19131 0
M  V30 8602 N 830.692 1.47107 0.565454 0
M  V30 8603 C 831.932 1.5488 1.33385 0
M  V30 8604 C 832.296 0.202804 1.90926 0
M  V30 8605 O 833.497 0.155345 2.68351 0
M  V30 8606 C 831.768 2.62969 2.42037 0
M  V30 8607 S 833.327 2.90269 3.29074 0
M  V30 8608 H 830.145 0.547008 0.454206 0
M  V30 8609 H 832.747 1.8444 0.648228 0
M  V30 8610 H 831.451 3.59376 1.98185 0
M  V30 8611 H 830.982 2.35197 3.15351 0
M  V30 8612 H 832.997 2.26854 4.41307 0
M  V30 8613 N 832.17 -0.811516 1.35101 0
M  V30 8614 C 833.1 -1.9378 1.30275 0
M  V30 8615 C 834.081 -1.69165 0.178075 0
M  V30 8616 O 835.266 -1.90599 0.372256 0
M  V30 8617 C 832.396 -3.30439 1.06899 0
M  V30 8618 C 831.35 -3.69523 2.15955 0
M  V30 8619 C 830.676 -5.0429 1.77751 0
M  V30 8620 C 831.976 -3.80419 3.57881 0
M  V30 8621 H 833.67 -1.98075 2.24514 0
M  V30 8622 H 831.216 -0.951586 1.08078 0
M  V30 8623 H 833.169 -4.08828 1.02164 0
M  V30 8624 H 831.893 -3.26473 0.0910462 0
M  V30 8625 H 830.552 -2.93416 2.19778 0
M  V30 8626 H 830.2 -4.96823 0.785876 0
M  V30 8627 H 829.9 -5.31411 2.5075 0
M  V30 8628 H 831.424 -5.85125 1.74533 0
M  V30 8629 H 832.838 -4.49051 3.56407 0
M  V30 8630 H 831.235 -4.19005 4.29598 0
M  V30 8631 H 832.305 -2.82105 3.94391 0
M  V30 8632 N 833.648 -1.19017 -1.03309 0
M  V30 8633 C 834.876 -1.01534 -1.80273 0
M  V30 8634 C 835.291 0.43605 -1.83696 0
M  V30 8635 O 834.648 1.30288 -1.27794 0
M  V30 8636 C 834.699 -1.5722 -3.25522 0
M  V30 8637 O 834.42 -2.96677 -3.22358 0
M  V30 8638 C 835.921 -1.4446 -4.19102 0
M  V30 8639 H 833.141 -0.358094 -0.567459 0
M  V30 8640 H 835.685 -1.57738 -1.3015 0
M  V30 8641 H 833.84 -1.05174 -3.7285 0
M  V30 8642 H 834.254 -3.22795 -4.13405 0
M  V30 8643 H 835.728 -1.88209 -5.18923 0
M  V30 8644 H 836.205 -0.394471 -4.37425 0
M  V30 8645 H 836.811 -1.95616 -3.77643 0
M  V30 8646 N 835.127 1.22348 -0.993418 0
M  V30 8647 C 836.373 1.91393 -0.67056 0
M  V30 8648 C 836.706 1.77163 0.795428 0
M  V30 8649 O 835.981 1.14084 1.57528 0
M  V30 8650 C 836.264 3.43589 -1.0779 0
M  V30 8651 C 836.117 3.66867 -2.60248 0
M  V30 8652 C 837.436 4.35545 -0.631527 0
M  V30 8653 H 834.555 0.695057 -0.24508 0
M  V30 8654 H 837.197 1.44213 -1.23703 0
M  V30 8655 H 835.347 3.83903 -0.595902 0
M  V30 8656 H 837.019 3.35954 -3.16121 0
M  V30 8657 H 835.262 3.1113 -3.02293 0
M  V30 8658 H 835.933 4.73457 -2.838 0
M  V30 8659 H 838.409 4.0275 -1.04554 0
M  V30 8660 H 837.285 5.40707 -0.944831 0
M  V30 8661 H 837.546 4.39618 0.467779 0
M  V30 8662 N 836.605 0.766683 1.37694 0
M  V30 8663 C 837.851 0.329201 2.0011 0
M  V30 8664 C 838.184 -1.09004 1.60723 0
M  V30 8665 O 837.459 -1.74895 0.850989 0
M  V30 8666 C 837.742 0.466989 3.57059 0
M  V30 8667 C 837.595 1.92828 4.06371 0
M  V30 8668 C 838.914 -0.131792 4.39903 0
M  V30 8669 H 836.033 0.12109 0.726984 0
M  V30 8670 H 838.675 0.968779 1.63446 0
M  V30 8671 H 836.825 -0.0775023 3.88423 0
M  V30 8672 H 838.497 2.53208 3.85595 0
M  V30 8673 H 836.74 2.43884 3.58752 0
M  V30 8674 H 837.411 1.97577 5.15429 0
M  V30 8675 H 839.887 0.332731 4.14768 0
M  V30 8676 H 838.763 -0.005217 5.489 0
M  V30 8677 H 839.024 -1.22156 4.24889 0
M  V30 8678 N 838.083 -1.48885 0.516809 0
M  V30 8679 C 839.046 -2.27916 -0.242256 0
M  V30 8680 C 840.046 -1.34601 -0.879735 0
M  V30 8681 O 841.236 -1.57616 -0.74182 0
M  V30 8682 C 838.368 -3.13067 -1.34914 0
M  V30 8683 H 839.561 -2.96483 0.451444 0
M  V30 8684 H 837.114 -1.5391 0.272294 0
M  V30 8685 H 837.849 -2.49102 -2.07651 0
M  V30 8686 H 837.634 -3.81695 -0.897313 0
M  V30 8687 H 839.124 -3.72716 -1.88341 0
M  V30 8688 N 839.561 -0.251338 -1.55583 0
M  V30 8689 C 840.81 0.372681 -1.98227 0
M  V30 8690 C 841.123 1.58743 -1.1428 0
M  V30 8691 O 842.329 2.28289 -1.46957 0
M  V30 8692 C 840.785 0.714439 -3.52738 0
M  V30 8693 C 840.393 -0.479168 -4.4543 0
M  V30 8694 C 842.137 1.3024 -4.04027 0
M  V30 8695 C 840.044 -0.113318 -5.91291 0
M  V30 8696 H 838.974 0.14302 -0.740312 0
M  V30 8697 H 841.625 -0.352253 -1.80087 0
M  V30 8698 H 840.007 1.49762 -3.66589 0
M  V30 8699 H 841.181 -1.25644 -4.4334 0
M  V30 8700 H 839.496 -0.982359 -4.04646 0
M  V30 8701 H 842.093 1.58953 -5.10527 0
M  V30 8702 H 842.436 2.22837 -3.51638 0
M  V30 8703 H 842.969 0.582024 -3.93519 0
M  V30 8704 H 839.708 -1.00654 -6.47726 0
M  V30 8705 H 839.228 0.627666 -5.96507 0
M  V30 8706 H 840.907 0.30293 -6.4629 0
M  V30 8707 N 841.039 1.57585 0.0217189 0
M  V30 8708 C 842.267 1.93871 0.722619 0
M  V30 8709 C 842.682 0.851706 1.68498 0
M  V30 8710 O 842.039 -0.17127 1.81695 0
M  V30 8711 C 842.09 3.30114 1.47333 0
M  V30 8712 O 841.811 4.34639 0.549597 0
M  V30 8713 C 843.312 3.80727 2.27072 0
M  V30 8714 H 840.532 0.639671 0.202637 0
M  V30 8715 H 843.076 2.04487 -0.0229414 0
M  V30 8716 H 841.231 3.20872 2.17071 0
M  V30 8717 H 841.645 5.13326 1.07686 0
M  V30 8718 H 843.119 4.78547 2.75131 0
M  V30 8719 H 843.596 3.12301 3.08812 0
M  V30 8720 H 844.202 3.93075 1.62395 0
M  V30 8721 N 842.517 -0.29412 1.54831 0
M  V30 8722 C 843.763 -1.02999 1.74697 0
M  V30 8723 C 844.096 -1.86687 0.534949 0
M  V30 8724 O 843.371 -1.88789 -0.467863 0
M  V30 8725 C 843.654 -1.93024 3.03996 0
M  V30 8726 C 843.507 -1.1247 4.35512 0
M  V30 8727 C 844.826 -2.92085 3.29203 0
M  V30 8728 H 841.945 -0.373039 0.635618 0
M  V30 8729 H 844.587 -0.304065 1.87551 0
M  V30 8730 H 842.737 -2.5492 2.93169 0
M  V30 8731 H 844.409 -0.528067 4.58268 0
M  V30 8732 H 842.652 -0.427574 4.31688 0
M  V30 8733 H 843.323 -1.78728 5.22265 0
M  V30 8734 H 845.799 -2.40319 3.39685 0
M  V30 8735 H 844.675 -3.52234 4.20978 0
M  V30 8736 H 844.936 -3.66107 2.47827 0
M  V30 8737 N 843.995 -1.47404 -0.557645 0
M  V30 8738 C 845.242 -1.54007 -1.31484 0
M  V30 8739 C 845.57 -0.202162 -1.93447 0
M  V30 8740 O 844.825 0.804901 -1.78381 0
M  V30 8741 C 845.124 -2.6061 -2.44575 0
M  V30 8742 C 844.79 -4.03896 -2.00446 0
M  V30 8743 C 843.452 -4.42901 -1.88127 0
M  V30 8744 C 845.804 -4.93804 -1.66754 0
M  V30 8745 C 843.132 -5.6965 -1.40411 0
M  V30 8746 C 845.484 -6.21016 -1.20509 0
M  V30 8747 C 844.148 -6.58903 -1.06786 0
M  V30 8748 H 843.418 -0.563552 -0.481134 0
M  V30 8749 H 846.065 -1.81001 -0.625375 0
M  V30 8750 H 844.37 -2.27371 -3.19076 0
M  V30 8751 H 846.067 -2.62941 -3.02759 0
M  V30 8752 H 842.657 -3.73077 -2.10977 0
M  V30 8753 H 846.841 -4.64369 -1.75144 0
M  V30 8754 H 842.097 -5.97755 -1.2845 0
M  V30 8755 H 846.271 -6.90095 -0.935001 0
M  V30 8756 H 843.898 -7.57008 -0.695891 0
M  V30 8757 N 845.473 0.80434 -1.35529 0
M  V30 8758 C 846.406 1.92222 -1.22987 0
M  V30 8759 C 847.384 1.62177 -0.117269 0
M  V30 8760 O 848.568 1.86321 -0.285761 0
M  V30 8761 C 845.695 3.26682 -0.894223 0
M  V30 8762 C 844.741 3.75674 -2.01919 0
M  V30 8763 S 845.574 3.93209 -3.6352 0
M  V30 8764 C 846.73 5.30568 -3.32037 0
M  V30 8765 H 846.963 2.02567 -2.1761 0
M  V30 8766 H 844.496 0.961961 -1.20771 0
M  V30 8767 H 846.454 4.04359 -0.707371 0
M  V30 8768 H 845.115 3.14082 0.0339729 0
M  V30 8769 H 844.308 4.73065 -1.73854 0
M  V30 8770 H 843.91 3.05001 -2.16449 0
M  V30 8771 H 846.202 6.14637 -2.85004 0
M  V30 8772 H 847.145 5.63628 -4.28636 0
M  V30 8773 H 847.553 4.96961 -2.6775 0
M  V30 8774 N 846.951 1.19563 1.02676 0
M  V30 8775 C 848.198 0.999568 1.7611 0
M  V30 8776 C 848.526 -0.469432 1.8875 0
M  V30 8777 O 847.781 -1.36481 1.40255 0
M  V30 8778 C 848.08 1.61619 3.18769 0
M  V30 8779 C 847.746 3.11366 3.26132 0
M  V30 8780 C 846.408 3.52234 3.27848 0
M  V30 8781 C 848.76 4.07374 3.25109 0
M  V30 8782 C 846.088 4.87658 3.26201 0
M  V30 8783 C 848.44 5.42731 3.25002 0
M  V30 8784 C 847.104 5.83027 3.25017 0
M  V30 8785 H 846.374 0.365768 0.644434 0
M  V30 8786 H 849.021 1.48838 1.20497 0
M  V30 8787 H 847.326 1.04974 3.77476 0
M  V30 8788 H 849.023 1.43975 3.74262 0
M  V30 8789 H 845.613 2.78804 3.25525 0
M  V30 8790 H 849.797 3.76842 3.22961 0
M  V30 8791 H 845.053 5.18156 3.24537 0
M  V30 8792 H 849.227 6.16879 3.23161 0
M  V30 8793 H 846.854 6.87936 3.23494 0
M  V30 8794 N 848.429 -1.21819 0.999893 0
M  V30 8795 C 849.339 -2.27691 0.565159 0
M  V30 8796 C 850.355 -1.69587 -0.389398 0
M  V30 8797 O 851.531 -1.99786 -0.254499 0
M  V30 8798 C 848.596 -3.46537 -0.106432 0
M  V30 8799 C 847.657 -4.19932 0.891964 0
M  V30 8800 C 846.89 -5.33103 0.252327 0
M  V30 8801 O 847.113 -5.62398 -0.952103 0
M  V30 8802 O 846.047 -5.94184 0.960698 0
M  V30 8803 H 849.873 -2.67059 1.44613 0
M  V30 8804 H 847.458 -1.28119 0.768499 0
M  V30 8805 H 849.34 -4.18631 -0.482301 0
M  V30 8806 H 848.015 -3.09079 -0.961865 0
M  V30 8807 H 846.922 -3.5008 1.3189 0
M  V30 8808 H 848.255 -4.61287 1.71682 0
M  V30 8809 N 849.908 -0.773975 -1.37286 0
M  V30 8810 C 851.138 -0.350249 -2.03609 0
M  V30 8811 C 851.546 1.03313 -1.58502 0
M  V30 8812 O 850.889 1.67118 -0.7627 0
M  V30 8813 C 850.951 -0.317215 -3.58098 0
M  V30 8814 C 850.615 -1.64556 -4.26345 0
M  V30 8815 C 851.612 -2.59839 -4.50311 0
M  V30 8816 C 849.297 -1.92061 -4.64131 0
M  V30 8817 C 851.291 -3.80833 -5.11122 0
M  V30 8818 C 848.978 -3.13325 -5.24663 0
M  V30 8819 C 849.976 -4.0753 -5.48095 0
M  V30 8820 O 849.664 -5.26658 -6.0736 0
M  V30 8821 H 849.396 -0.144456 -0.660385 0
M  V30 8822 H 851.95 -1.0496 -1.76557 0
M  V30 8823 H 850.18 0.438528 -3.84205 0
M  V30 8824 H 851.869 0.0797428 -4.05822 0
M  V30 8825 H 852.635 -2.39872 -4.21529 0
M  V30 8826 H 848.514 -1.19562 -4.45226 0
M  V30 8827 H 852.058 -4.54377 -5.29327 0
M  V30 8828 H 847.955 -3.33177 -5.52869 0
M  V30 8829 H 848.723 -5.27513 -6.25837 0
M  V30 8830 N 851.386 1.48609 -0.524698 0
M  V30 8831 C 852.633 2.02497 0.0113214 0
M  V30 8832 C 852.961 1.40229 1.34781 0
M  V30 8833 O 852.216 0.53557 1.88229 0
M  V30 8834 C 852.515 3.56906 0.187873 0
M  V30 8835 C 852.181 4.37932 -1.07359 0
M  V30 8836 C 850.843 4.59792 -1.41933 0
M  V30 8837 C 853.195 4.84902 -1.911 0
M  V30 8838 C 850.523 5.25868 -2.60154 0
M  V30 8839 C 852.875 5.52281 -3.08495 0
M  V30 8840 C 851.539 5.7238 -3.4342 0
M  V30 8841 H 850.809 0.740988 0.0041428 0
M  V30 8842 H 853.456 1.78651 -0.689652 0
M  V30 8843 H 851.761 3.79563 0.971572 0
M  V30 8844 H 853.458 3.96218 0.617443 0
M  V30 8845 H 850.048 4.21175 -0.794331 0
M  V30 8846 H 854.232 4.67821 -1.65701 0
M  V30 8847 H 849.488 5.39628 -2.87422 0
M  V30 8848 H 853.662 5.87645 -3.73692 0
M  V30 8849 H 851.289 6.23354 -4.35126 0
M  V30 8850 N 852.864 0.259585 1.55447 0
M  V30 8851 C 854.089 -0.368317 2.04103 0
M  V30 8852 C 854.514 -1.49827 1.13725 0
M  V30 8853 O 853.872 -1.80814 0.132705 0
M  V30 8854 C 853.92 -0.841506 3.50644 0
M  V30 8855 O 853.024 -1.95008 3.63381 0
M  V30 8856 H 852.365 -0.0785227 0.659341 0
M  V30 8857 H 854.895 0.389349 2.00861 0
M  V30 8858 H 854.905 -1.14138 3.9171 0
M  V30 8859 H 853.58 -0.0147001 4.15897 0
M  V30 8860 H 852.157 -1.65393 3.34215 0
M  V30 8861 N 854.342 -1.57594 -0.0133615 0
M  V30 8862 C 855.753 -1.78168 -0.557937 0
M  V30 8863 C 856.104 -0.892616 -1.74719 0
M  V30 8864 O 855.229 -0.0915491 -2.16206 0
M  V30 8865 C 855.824 -3.23115 -1.01894 0
M  V30 8866 C 854.383 -3.44831 -1.50892 0
M  V30 8867 C 853.53 -2.73558 -0.454044 0
M  V30 8868 H 856.481 -1.57266 0.212843 0
M  V30 8869 H 856.502 -3.30493 -1.8856 0
M  V30 8870 H 856.014 -3.87798 -0.153175 0
M  V30 8871 H 854.115 -2.85345 -2.39602 0
M  V30 8872 H 854.228 -4.53485 -1.54559 0
M  V30 8873 H 852.592 -2.37787 -0.912666 0
M  V30 8874 H 853.375 -3.40932 0.402524 0
M  V30 8875 N 855.82 0.285905 -1.54985 0
M  V30 8876 C 857.066 1.02071 -1.75241 0
M  V30 8877 C 857.399 1.864 -0.544842 0
M  V30 8878 O 856.674 1.89034 0.457844 0
M  V30 8879 C 856.957 1.91409 -3.05016 0
M  V30 8880 C 856.81 1.10158 -4.36102 0
M  V30 8881 C 858.129 2.90335 -3.30747 0
M  V30 8882 H 855.248 0.369663 -0.637588 0
M  V30 8883 H 857.89 0.294114 -1.8771 0
M  V30 8884 H 856.04 2.53362 -2.94517 0
M  V30 8885 H 857.712 0.503756 -4.58541 0
M  V30 8886 H 855.955 0.404675 -4.31908 0
M  V30 8887 H 856.626 1.75956 -5.23205 0
M  V30 8888 H 859.102 2.38514 -3.40955 0
M  V30 8889 H 857.978 3.49997 -4.2284 0
M  V30 8890 H 858.239 3.64787 -2.49765 0
M  V30 8891 N 857.298 1.47698 0.54982 0
M  V30 8892 C 858.523 1.58579 1.33669 0
M  V30 8893 C 858.948 0.239049 1.86575 0
M  V30 8894 O 858.306 -0.786256 1.63364 0
M  V30 8895 C 858.354 2.62029 2.47736 0
M  V30 8896 O 857.458 2.17813 3.50188 0
M  V30 8897 H 856.799 0.532447 0.396732 0
M  V30 8898 H 859.329 1.93536 0.6637 0
M  V30 8899 H 859.339 2.82682 2.94202 0
M  V30 8900 H 858.014 3.59812 2.08586 0
M  V30 8901 H 856.591 2.07291 3.09976 0
M  V30 8902 N 858.776 -0.797141 1.35954 0
M  V30 8903 C 860.006 -1.5835 1.32698 0
M  V30 8904 C 860.414 -1.88959 -0.0955298 0
M  V30 8905 O 859.757 -1.49987 -1.06064 0
M  V30 8906 C 859.819 -2.93529 2.0756 0
M  V30 8907 C 859.483 -2.85688 3.56695 0
M  V30 8908 C 860.48 -2.58467 4.51099 0
M  V30 8909 C 858.165 -3.04508 3.99475 0
M  V30 8910 C 860.159 -2.50157 5.8626 0
M  V30 8911 C 857.846 -2.9582 5.34728 0
M  V30 8912 C 858.844 -2.68681 6.27933 0
M  V30 8913 O 858.532 -2.59973 7.60703 0
M  V30 8914 H 858.264 -0.49807 0.457059 0
M  V30 8915 H 860.818 -0.997889 1.79531 0
M  V30 8916 H 859.048 -3.54111 1.55378 0
M  V30 8917 H 860.737 -3.54744 1.9726 0
M  V30 8918 H 861.503 -2.43638 4.19363 0
M  V30 8919 H 857.382 -3.24641 3.27306 0
M  V30 8920 H 860.926 -2.28894 6.58979 0
M  V30 8921 H 856.823 -3.10211 5.66074 0
M  V30 8922 H 857.591 -2.75511 7.70737 0
M  V30 8923 N 860.254 -1.20106 -1.0204 0
M  V30 8924 C 861.202 -0.943231 -2.12617 0
M  V30 8925 C 862.196 0.104042 -1.6908 0
M  V30 8926 O 863.402 -0.0459732 -1.79941 0
M  V30 8927 H 859.777 -0.28767 -0.694802 0
M  V30 8928 H 861.748 -1.88221 -2.3155 0
M  V30 8929 C 860.497 -0.50771 -3.43973 0
M  V30 8930 H 859.82 -1.30514 -3.77897 0
M  V30 8931 H 861.26 -0.366486 -4.22413 0
M  V30 8932 C 859.719 0.77939 -3.27761 0
M  V30 8933 O 860.249 1.83876 -3.57145 0
M  V30 8934 N 858.455 0.739931 -2.81022 0
M  V30 8935 H 858.002 -0.122426 -2.57309 0
M  V30 8936 H 857.96 1.60147 -2.70556 0
M  V30 8937 N 861.732 1.21287 -1.00634 0
M  V30 8938 C 862.664 2.2308 -0.526094 0
M  V30 8939 C 863.677 1.58157 0.386031 0
M  V30 8940 O 864.866 1.77528 0.186016 0
M  V30 8941 C 861.966 3.37937 0.255289 0
M  V30 8942 C 861.139 4.32449 -0.656236 0
M  V30 8943 C 860.198 5.26145 0.0757714 0
M  V30 8944 O 859.224 5.66601 -0.543325 0
M  V30 8945 N 860.426 5.6449 1.35391 0
M  V30 8946 H 863.191 2.64913 -1.40147 0
M  V30 8947 H 860.752 1.35724 -0.882641 0
M  V30 8948 H 862.744 3.97614 0.753977 0
M  V30 8949 H 861.314 2.95078 1.03187 0
M  V30 8950 H 860.534 3.70892 -1.3354 0
M  V30 8951 H 861.822 4.92526 -1.27653 0
M  V30 8952 H 861.22 5.33617 1.878 0
M  V30 8953 H 859.777 6.26524 1.79753 0
M  V30 8954 N 863.21 0.781244 1.36873 0
M  V30 8955 C 864.158 0.161889 2.32036 0
M  V30 8956 C 865.152 -0.674225 1.55405 0
M  V30 8957 O 866.358 -0.570223 1.70729 0
M  V30 8958 H 862.733 0.0335702 0.75125 0
M  V30 8959 H 864.704 0.980078 2.81846 0
M  V30 8960 C 863.453 -0.695352 3.40676 0
M  V30 8961 H 862.776 -0.0613425 3.99753 0
M  V30 8962 H 864.216 -1.09553 4.09602 0
M  V30 8963 C 862.675 -1.85008 2.81556 0
M  V30 8964 O 863.205 -2.94616 2.73065 0
M  V30 8965 N 861.411 -1.65364 2.38962 0
M  V30 8966 H 860.958 -0.762106 2.46068 0
M  V30 8967 H 860.916 -2.42789 1.99752 0
M  V30 8968 N 864.689 -1.48329 0.532571 0
M  V30 8969 C 865.619 -2.32485 -0.217511 0
M  V30 8970 C 866.6 -1.42255 -0.932598 0
M  V30 8971 O 867.785 -1.7114 -0.917873 0
M  V30 8972 C 864.915 -3.23509 -1.26329 0
M  V30 8973 C 863.869 -4.22784 -0.666191 0
M  V30 8974 C 863.195 -5.0296 -1.81482 0
M  V30 8975 C 864.495 -5.21031 0.363813 0
M  V30 8976 H 866.189 -2.95445 0.485014 0
M  V30 8977 H 863.735 -1.42075 0.234694 0
M  V30 8978 H 865.688 -3.81211 -1.79601 0
M  V30 8979 H 864.412 -2.58554 -1.99543 0
M  V30 8980 H 863.071 -3.66272 -0.15498 0
M  V30 8981 H 862.719 -4.34427 -2.5354 0
M  V30 8982 H 862.419 -5.70154 -1.4212 0
M  V30 8983 H 863.943 -5.63514 -2.35126 0
M  V30 8984 H 865.357 -5.73241 -0.0819079 0
M  V30 8985 H 863.754 -5.96292 0.674956 0
M  V30 8986 H 864.824 -4.6801 1.26865 0
M  V30 8987 N 866.167 -0.267825 -1.55308 0
M  V30 8988 C 867.395 0.354587 -2.03839 0
M  V30 8989 C 867.81 1.50007 -1.14644 0
M  V30 8990 O 867.167 1.81752 -0.165055 0
M  V30 8991 C 867.218 0.84254 -3.51544 0
M  V30 8992 O 866.939 -0.257318 -4.37344 0
M  V30 8993 C 868.44 1.53351 -4.15931 0
M  V30 8994 H 865.66 0.0818131 -0.665994 0
M  V30 8995 H 868.204 -0.397795 -2.00594 0
M  V30 8996 H 866.359 1.54503 -3.55257 0
M  V30 8997 H 866.773 0.116593 -5.2437 0
M  V30 8998 H 868.247 1.82643 -5.20908 0
M  V30 8999 H 868.724 2.4626 -3.63666 0
M  V30 9000 H 869.33 0.87506 -4.162 0
M  V30 9001 N 867.645 1.57599 0.00500368 0
M  V30 9002 C 869.061 1.55463 0.361015 0
M  V30 9003 C 869.261 0.997051 1.75103 0
M  V30 9004 O 868.317 0.628661 2.44549 0
M  V30 9005 C 869.63 2.99734 0.240828 0
M  V30 9006 C 871.178 3.11399 0.316138 0
M  V30 9007 C 871.653 4.57446 0.22513 0
M  V30 9008 N 873.144 4.62334 0.283186 0
M  V30 9009 C 873.879 5.72914 0.23603 0
M  V30 9010 N 873.375 6.92659 0.139762 0
M  V30 9011 N 875.168 5.61364 0.287529 0
M  V30 9012 H 867.319 1.92185 -0.904359 0
M  V30 9013 H 869.582 0.882529 -0.34619 0
M  V30 9014 H 869.288 3.44348 -0.715343 0
M  V30 9015 H 869.162 3.63009 1.02491 0
M  V30 9016 H 871.549 2.66718 1.26275 0
M  V30 9017 H 871.63 2.50911 -0.497725 0
M  V30 9018 H 871.274 5.02801 -0.717917 0
M  V30 9019 H 871.204 5.15874 1.05742 0
M  V30 9020 H 873.695 3.7619 0.359123 0
M  V30 9021 H 874.008 7.72722 0.10954 0
M  V30 9022 H 872.353 6.9492 0.105462 0
M  V30 9023 H 875.544 4.66707 0.360897 0
M  V30 9024 H 875.717 6.47528 0.247313 0
M  V30 9025 N 869.123 -0.277682 1.55134 0
M  V30 9026 C 870.371 -1.00791 1.75173 0
M  V30 9027 C 870.692 -1.86987 0.553266 0
M  V30 9028 O 869.962 -1.91079 -0.43195 0
M  V30 9029 H 868.542 -0.375129 0.645978 0
M  V30 9030 H 871.204 -0.303041 1.9253 0
M  V30 9031 H 870.3 -1.64756 2.6507 0
M  V30 9032 N 870.601 -1.47988 -0.541979 0
M  V30 9033 C 871.548 -1.61615 -1.6477 0
M  V30 9034 C 872.518 -0.458602 -1.59644 0
M  V30 9035 O 873.703 -0.680585 -1.78249 0
M  V30 9036 C 870.843 -1.65066 -3.03063 0
M  V30 9037 C 869.956 -2.91845 -3.18513 0
M  V30 9038 C 869.091 -2.86534 -4.47294 0
M  V30 9039 C 868.13 -4.0807 -4.5623 0
M  V30 9040 N 867.267 -4.00905 -5.76385 0
M  V30 9041 H 872.107 -2.56046 -1.52461 0
M  V30 9042 H 869.644 -1.26989 -0.742449 0
M  V30 9043 H 871.602 -1.65049 -3.83164 0
M  V30 9044 H 870.232 -0.74136 -3.14171 0
M  V30 9045 H 869.284 -3.01661 -2.31743 0
M  V30 9046 H 870.596 -3.81804 -3.20978 0
M  V30 9047 H 869.75 -2.84851 -5.35672 0
M  V30 9048 H 868.489 -1.94283 -4.47332 0
M  V30 9049 H 867.494 -4.10041 -3.66261 0
M  V30 9050 H 868.719 -5.01465 -4.5794 0
M  V30 9051 H 866.665 -3.11467 -5.77342 0
M  V30 9052 H 866.582 -4.84557 -5.80293 0
M  V30 9053 H 867.85 -4.03263 -6.67083 0
M  V30 9054 N 872.079 0.78992 -1.36375 0
M  V30 9055 C 873.026 1.90254 -1.3066 0
M  V30 9056 C 873.996 1.65171 -0.17539 0
M  V30 9057 O 875.181 1.87338 -0.361824 0
M  V30 9058 C 872.321 3.27057 -1.10125 0
M  V30 9059 C 871.434 3.64215 -2.32317 0
M  V30 9060 C 870.569 4.90134 -2.04798 0
M  V30 9061 C 869.608 5.19969 -3.22953 0
M  V30 9062 N 868.745 6.37071 -2.95102 0
M  V30 9063 H 873.585 1.94474 -2.25796 0
M  V30 9064 H 871.122 0.951022 -1.12223 0
M  V30 9065 H 873.08 4.05947 -0.962453 0
M  V30 9066 H 871.71 3.22261 -0.186444 0
M  V30 9067 H 870.762 2.80454 -2.57002 0
M  V30 9068 H 872.074 3.82212 -3.20492 0
M  V30 9069 H 871.228 5.76888 -1.87845 0
M  V30 9070 H 869.967 4.74205 -1.13932 0
M  V30 9071 H 868.972 4.31699 -3.40465 0
M  V30 9072 H 870.197 5.37817 -4.14644 0
M  V30 9073 H 868.143 6.22535 -2.06848 0
M  V30 9074 H 868.06 6.55398 -3.76815 0
M  V30 9075 H 869.328 7.26808 -2.81727 0
M  V30 9076 N 873.557 1.20646 1.01402 0
M  V30 9077 C 874.782 1.04462 1.79172 0
M  V30 9078 C 875.207 -0.401588 1.83763 0
M  V30 9079 O 874.565 -1.28934 1.27459 0
M  V30 9080 C 874.613 1.63583 3.21361 0
M  V30 9081 O 873.717 0.875198 4.03006 0
M  V30 9082 H 873.058 0.368235 0.552539 0
M  V30 9083 H 875.588 1.59994 1.27526 0
M  V30 9084 H 875.598 1.67426 3.72065 0
M  V30 9085 H 874.273 2.68835 3.17334 0
M  V30 9086 H 872.85 0.911172 3.61597 0
M  V30 9087 N 875.035 -1.20752 1.01276 0
M  V30 9088 C 876.283 -1.89645 0.698505 0
M  V30 9089 C 876.604 -1.78986 -0.773883 0
M  V30 9090 O 875.874 -1.18977 -1.55632 0
M  V30 9091 H 874.454 -0.701992 0.255375 0
M  V30 9092 H 877.116 -1.46668 1.28353 0
M  V30 9093 H 876.212 -2.96364 0.978512 0
M  V30 9094 N 876.513 -0.788492 -1.36457 0
M  V30 9095 C 877.761 -0.359749 -1.98872 0
M  V30 9096 C 878.082 1.07197 -1.62892 0
M  V30 9097 O 877.352 1.73875 -0.902463 0
M  V30 9098 H 875.932 -0.130029 -0.735596 0
M  V30 9099 H 878.594 -1.01033 -1.66668 0
M  V30 9100 H 877.69 -0.450835 -3.08827 0
M  V30 9101 N 877.991 1.48044 -0.54043 0
M  V30 9102 C 879.402 1.86418 -0.102662 0
M  V30 9103 C 879.753 1.4489 1.32293 0
M  V30 9104 O 878.878 0.844319 1.99249 0
M  V30 9105 C 879.473 3.38324 -0.179533 0
M  V30 9106 C 878.032 3.75852 0.203098 0
M  V30 9107 C 877.179 2.72097 -0.534637 0
M  V30 9108 H 880.13 1.398 -0.751103 0
M  V30 9109 H 880.151 3.75641 0.606147 0
M  V30 9110 H 879.663 3.68518 -1.21721 0
M  V30 9111 H 877.764 3.51272 1.24252 0
M  V30 9112 H 877.877 4.78884 -0.143784 0
M  V30 9113 H 876.241 2.54692 0.0203358 0
M  V30 9114 H 877.024 3.05135 -1.57314 0
M  V30 9115 N 879.47 0.276058 1.55163 0
M  V30 9116 C 880.433 -0.597924 2.21263 0
M  V30 9117 C 881.433 -1.0806 1.19078 0
M  V30 9118 O 882.623 -0.980626 1.43977 0
M  V30 9119 C 879.755 -1.82503 2.87933 0
M  V30 9120 H 880.948 -0.0207769 2.99893 0
M  V30 9121 H 878.501 0.0266823 1.56277 0
M  V30 9122 H 879.236 -2.44266 2.13318 0
M  V30 9123 H 879.021 -1.48683 3.62816 0
M  V30 9124 H 880.511 -2.44651 3.38431 0
M  V30 9125 N 880.948 -1.576 0.00335426 0
M  V30 9126 C 882.195 -1.90713 -0.680791 0
M  V30 9127 C 882.523 -0.877263 -1.73592 0
M  V30 9128 O 881.778 0.117497 -1.95347 0
M  V30 9129 C 882.077 -3.3058 -1.35837 0
M  V30 9130 C 881.743 -4.48786 -0.436111 0
M  V30 9131 C 880.405 -4.80855 -0.182195 0
M  V30 9132 C 882.757 -5.20821 0.198677 0
M  V30 9133 C 880.085 -5.8233 0.714747 0
M  V30 9134 C 882.437 -6.23252 1.08351 0
M  V30 9135 C 881.101 -6.53776 1.34658 0
M  V30 9136 H 880.371 -0.697869 -0.249119 0
M  V30 9137 H 883.018 -1.91407 0.0596011 0
M  V30 9138 H 881.323 -3.26026 -2.17289 0
M  V30 9139 H 883.02 -3.53462 -1.89383 0
M  V30 9140 H 879.61 -4.23731 -0.644186 0
M  V30 9141 H 883.794 -4.96298 0.0155259 0
M  V30 9142 H 879.05 -6.04339 0.926529 0
M  V30 9143 H 883.224 -6.78199 1.58172 0
M  V30 9144 H 880.851 -7.32225 2.04328 0
M  V30 9145 N 882.426 0.269451 -1.5528 0
M  V30 9146 C 883.654 1.01872 -1.80082 0
M  V30 9147 C 884.069 1.79802 -0.575917 0
M  V30 9148 O 883.426 1.76735 0.455081 0
M  V30 9149 C 883.477 1.9745 -3.02813 0
M  V30 9150 O 883.198 1.22677 -4.20573 0
M  V30 9151 C 884.699 2.8416 -3.40247 0
M  V30 9152 H 881.919 0.300781 -0.59981 0
M  V30 9153 H 884.463 0.29916 -2.023 0
M  V30 9154 H 882.618 2.64864 -2.82712 0
M  V30 9155 H 883.032 1.87129 -4.89982 0
M  V30 9156 H 884.506 3.47014 -4.29284 0
M  V30 9157 H 884.983 3.54113 -2.59809 0
M  V30 9158 H 885.589 2.22232 -3.6262 0
M  V30 9159 N 883.904 1.48273 0.534124 0
M  V30 9160 C 885.153 1.55334 1.28663 0
M  V30 9161 C 885.466 0.230345 1.94239 0
M  V30 9162 O 886.672 0.179161 2.70908 0
M  V30 9163 C 885.128 2.73927 2.33435 0
M  V30 9164 C 884.736 4.12852 1.73947 0
M  V30 9165 C 886.48 2.90298 3.09722 0
M  V30 9166 C 884.387 5.22711 2.76636 0
M  V30 9167 H 883.317 0.578262 0.483869 0
M  V30 9168 H 885.968 1.74598 0.564602 0
M  V30 9169 H 884.35 2.48089 3.08655 0
M  V30 9170 H 885.524 4.48691 1.04944 0
M  V30 9171 H 883.839 4.01562 1.10167 0
M  V30 9172 H 886.436 3.69542 3.86449 0
M  V30 9173 H 886.779 1.99598 3.6533 0
M  V30 9174 H 887.312 3.16017 2.41616 0
M  V30 9175 H 884.051 6.15362 2.25852 0
M  V30 9176 H 883.571 4.91364 3.43979 0
M  V30 9177 H 885.25 5.50648 3.39699 0
M  V30 9178 N 885.382 -0.782676 1.36792 0
M  V30 9179 C 886.63 -1.53778 1.31136 0
M  V30 9180 C 886.951 -1.94706 -0.107014 0
M  V30 9181 O 886.221 -1.65465 -1.04872 0
M  V30 9182 H 884.801 -0.570328 0.482426 0
M  V30 9183 H 887.463 -0.932181 1.71162 0
M  V30 9184 H 886.559 -2.44224 1.94321 0
M  V30 9185 N 886.86 -1.21182 -1.00761 0
M  V30 9186 C 887.807 -0.968741 -2.09485 0
M  V30 9187 C 888.777 0.104325 -1.65772 0
M  V30 9188 O 889.962 -0.0422587 -1.90753 0
M  V30 9189 C 887.102 -0.536686 -3.40901 0
M  V30 9190 C 886.215 -1.6789 -3.98041 0
M  V30 9191 C 885.35 -1.19627 -5.17555 0
M  V30 9192 C 884.389 -2.31099 -5.66798 0
M  V30 9193 N 883.526 -1.83988 -6.77564 0
M  V30 9194 H 888.366 -1.89952 -2.29613 0
M  V30 9195 H 885.903 -0.946688 -1.12589 0
M  V30 9196 H 887.861 -0.26745 -4.16342 0
M  V30 9197 H 886.491 0.357092 -3.20819 0
M  V30 9198 H 885.543 -2.06284 -3.19611 0
M  V30 9199 H 886.855 -2.51794 -4.30582 0
M  V30 9200 H 886.009 -0.883539 -6.00232 0
M  V30 9201 H 884.748 -0.327244 -4.86601 0
M  V30 9202 H 883.753 -2.63178 -4.82719 0
M  V30 9203 H 884.978 -3.18493 -5.99782 0
M  V30 9204 H 882.924 -0.994257 -6.48422 0
M  V30 9205 H 882.841 -2.61466 -7.09346 0
M  V30 9206 H 884.109 -1.55741 -7.63783 0
M  V30 9207 N 888.338 1.20213 -1.01915 0
M  V30 9208 C 889.563 1.94163 -0.729076 0
M  V30 9209 C 889.988 1.74416 0.704323 0
M  V30 9210 O 889.346 1.0401 1.48498 0
M  V30 9211 C 889.394 3.44258 -1.07324 0
M  V30 9212 O 888.498 4.11979 -0.186367 0
M  V30 9213 H 887.839 0.606506 -0.270272 0
M  V30 9214 H 890.369 1.52571 -1.3632 0
M  V30 9215 H 890.379 3.94888 -1.02603 0
M  V30 9216 H 889.054 3.57954 -2.11759 0
M  V30 9217 H 887.631 3.7176 -0.291334 0
M  V30 9218 N 889.816 0.795718 1.36037 0
M  V30 9219 C 891.062 0.371574 1.99367 0
M  V30 9220 C 891.395 -1.0557 1.62999 0
M  V30 9221 O 890.67 -1.73051 0.887895 0
M  V30 9222 C 890.953 0.542622 3.55988 0
M  V30 9223 C 890.806 2.01404 4.0219 0
M  V30 9224 C 892.125 -0.0384527 4.40083 0
M  V30 9225 H 889.244 0.136483 0.724252 0
M  V30 9226 H 891.886 1.00323 1.61355 0
M  V30 9227 H 890.036 0.0049053 3.885 0
M  V30 9228 H 891.708 2.6133 3.80137 0
M  V30 9229 H 889.951 2.51439 3.53498 0
M  V30 9230 H 890.622 2.08466 5.11122 0
M  V30 9231 H 893.098 0.420634 4.13968 0
M  V30 9232 H 891.974 0.111214 5.48787 0
M  V30 9233 H 892.235 -1.13116 4.27384 0
M  V30 9234 N 891.294 -1.47756 0.548274 0
M  V30 9235 C 892.54 -2.03379 0.0291238 0
M  V30 9236 C 892.895 -1.41603 -1.30255 0
M  V30 9237 O 892.188 -0.559102 -1.83261 0
M  V30 9238 C 892.382 -3.5716 -0.131069 0
M  V30 9239 C 892.211 -4.33846 1.18353 0
M  V30 9240 C 890.981 -4.74087 1.74841 0
M  V30 9241 C 893.179 -4.69535 2.09861 0
M  V30 9242 N 891.161 -5.35382 3.00398 0
M  V30 9243 C 892.532 -5.31039 3.19997 0
M  V30 9244 C 894.587 -4.51464 2.09964 0
M  V30 9245 C 893.29 -5.7638 4.30323 0
M  V30 9246 C 895.316 -4.97798 3.19297 0
M  V30 9247 C 894.678 -5.59343 4.28152 0
M  V30 9248 H 890.777 -0.780229 0.0526037 0
M  V30 9249 H 893.361 -1.80351 0.733593 0
M  V30 9250 H 891.532 -3.79974 -0.804647 0
M  V30 9251 H 893.264 -3.99422 -0.651476 0
M  V30 9252 H 890.019 -4.55764 1.2875 0
M  V30 9253 H 890.443 -5.7058 3.64372 0
M  V30 9254 H 895.085 -4.03246 1.27093 0
M  V30 9255 H 892.803 -6.23594 5.13961 0
M  V30 9256 H 896.389 -4.85593 3.20454 0
M  V30 9257 H 895.269 -5.94544 5.11358 0
M  V30 9258 N 892.772 -0.284283 -1.55015 0
M  V30 9259 C 893.702 0.592663 -2.25853 0
M  V30 9260 C 894.683 1.15151 -1.25197 0
M  V30 9261 O 895.868 1.18395 -1.53936 0
M  V30 9262 C 892.998 1.77254 -2.98661 0
M  V30 9263 C 891.952 1.34482 -4.06323 0
M  V30 9264 C 891.278 2.60853 -4.66754 0
M  V30 9265 C 892.578 0.488288 -5.20013 0
M  V30 9266 H 894.272 0.00187041 -2.994 0
M  V30 9267 H 891.818 -0.000540402 -1.44 0
M  V30 9268 H 893.771 2.39199 -3.46932 0
M  V30 9269 H 892.495 2.38931 -2.22664 0
M  V30 9270 H 891.154 0.748519 -3.58877 0
M  V30 9271 H 890.802 3.20808 -3.87416 0
M  V30 9272 H 890.502 2.32942 -5.39455 0
M  V30 9273 H 892.026 3.23631 -5.1778 0
M  V30 9274 H 893.44 1.01298 -5.6428 0
M  V30 9275 H 891.837 0.303669 -5.99331 0
M  V30 9276 H 892.907 -0.490727 -4.8241 0
M  V30 9277 N 894.251 1.57596 -0.0117121 0
M  V30 9278 C 895.181 2.12188 0.9746 0
M  V30 9279 C 896.162 1.03379 1.35081 0
M  V30 9280 O 897.347 1.31123 1.4325 0
M  V30 9281 C 894.477 2.63477 2.26268 0
M  V30 9282 C 893.431 3.76917 2.02774 0
M  V30 9283 C 892.757 4.14566 3.37697 0
M  V30 9284 C 894.057 5.03715 1.38089 0
M  V30 9285 H 895.751 2.9485 0.520007 0
M  V30 9286 H 893.297 1.41836 0.248685 0
M  V30 9287 H 895.25 3.00299 2.95633 0
M  V30 9288 H 893.974 1.77953 2.73862 0
M  V30 9289 H 892.633 3.40507 1.35832 0
M  V30 9290 H 892.281 3.26048 3.83016 0
M  V30 9291 H 891.981 4.91 3.22789 0
M  V30 9292 H 893.505 4.53956 4.08358 0
M  V30 9293 H 894.919 5.38233 1.97428 0
M  V30 9294 H 893.316 5.85032 1.33634 0
M  V30 9295 H 894.386 4.83624 0.351575 0
M  V30 9296 N 895.729 -0.261212 1.5542 0
M  V30 9297 C 896.975 -0.988533 1.77763 0
M  V30 9298 C 897.33 -1.83504 0.578286 0
M  V30 9299 O 896.623 -1.8674 -0.428808 0
M  V30 9300 C 896.817 -1.89395 3.03091 0
M  V30 9301 C 896.646 -1.13658 4.351 0
M  V30 9302 C 895.416 -0.847467 4.98143 0
M  V30 9303 C 897.614 -0.52118 5.11652 0
M  V30 9304 N 895.596 -0.0645324 6.13866 0
M  V30 9305 C 896.967 0.127016 6.1987 0
M  V30 9306 C 899.022 -0.430206 4.96038 0
M  V30 9307 C 897.725 0.857433 7.14171 0
M  V30 9308 C 899.751 0.286645 5.90705 0
M  V30 9309 C 899.113 0.923534 6.9832 0
M  V30 9310 H 895.212 -0.343317 0.702608 0
M  V30 9311 H 897.796 -0.263035 1.92915 0
M  V30 9312 H 895.967 -2.5916 2.89293 0
M  V30 9313 H 897.699 -2.55576 3.13788 0
M  V30 9314 H 894.454 -1.15569 4.59283 0
M  V30 9315 H 894.878 0.31461 6.76269 0
M  V30 9316 H 899.52 -0.908278 4.12929 0
M  V30 9317 H 897.238 1.34715 7.96792 0
M  V30 9318 H 900.824 0.357511 5.80701 0
M  V30 9319 H 899.704 1.46939 7.70311 0
M  V30 9320 N 897.207 -1.48554 -0.526253 0
M  V30 9321 C 898.17 -1.62868 -1.61266 0
M  V30 9322 C 899.17 -0.501762 -1.52771 0
M  V30 9323 O 900.36 -0.76764 -1.56374 0
M  V30 9324 C 897.492 -1.60238 -3.00893 0
M  V30 9325 H 898.685 -2.59742 -1.49913 0
M  V30 9326 H 896.238 -1.37207 -0.748595 0
M  V30 9327 H 896.973 -0.648545 -3.17749 0
M  V30 9328 H 896.758 -2.42054 -3.08468 0
M  V30 9329 H 898.248 -1.73455 -3.79872 0
M  V30 9330 N 898.685 0.775411 -1.37205 0
M  V30 9331 C 899.615 1.90258 -1.35367 0
M  V30 9332 C 900.596 1.68634 -0.222864 0
M  V30 9333 O 901.781 1.89545 -0.422659 0
M  V30 9334 C 898.911 3.27488 -1.15623 0
M  V30 9335 C 897.865 3.63668 -2.25676 0
M  V30 9336 C 897.191 4.994 -1.91059 0
M  V30 9337 C 898.491 3.70797 -3.67841 0
M  V30 9338 H 900.185 1.92053 -2.29687 0
M  V30 9339 H 897.731 0.922597 -1.10563 0
M  V30 9340 H 899.684 4.05976 -1.12968 0
M  V30 9341 H 898.408 3.26117 -0.177573 0
M  V30 9342 H 897.067 2.87486 -2.2748 0
M  V30 9343 H 896.715 4.94565 -0.917324 0
M  V30 9344 H 896.415 5.24576 -2.64751 0
M  V30 9345 H 897.939 5.80291 -1.89985 0
M  V30 9346 H 899.353 4.39444 -3.68187 0
M  V30 9347 H 897.75 4.07468 -4.40556 0
M  V30 9348 H 898.82 2.71549 -4.01732 0
M  V30 9349 N 900.163 1.21714 1.00117 0
M  V30 9350 C 901.409 1.03823 1.74208 0
M  V30 9351 C 901.742 -0.426733 1.89454 0
M  V30 9352 O 901.017 -1.31658 1.43166 0
M  V30 9353 C 901.3 1.74047 3.15246 0
M  V30 9354 C 901.153 3.28087 3.077 0
M  V30 9355 C 902.472 1.48614 4.14249 0
M  V30 9356 H 899.591 0.378573 0.632338 0
M  V30 9357 H 902.233 1.49942 1.16694 0
M  V30 9358 H 900.383 1.3484 3.64349 0
M  V30 9359 H 902.055 3.76686 2.6628 0
M  V30 9360 H 900.298 3.58191 2.44707 0
M  V30 9361 H 900.969 3.72392 4.07466 0
M  V30 9362 H 903.445 1.82656 3.73866 0
M  V30 9363 H 902.321 2.00257 5.11066 0
M  V30 9364 H 902.582 0.416957 4.40129 0
M  V30 9365 N 901.641 -1.19671 1.02551 0
M  V30 9366 C 902.888 -1.89268 0.720002 0
M  V30 9367 C 903.216 -1.79411 -0.751127 0
M  V30 9368 O 902.471 -1.17859 -1.5623 0
M  V30 9369 C 902.77 -3.39647 1.11241 0
M  V30 9370 C 902.436 -3.69706 2.58125 0
M  V30 9371 C 901.098 -3.7762 2.98256 0
M  V30 9372 C 903.45 -3.83301 3.53171 0
M  V30 9373 C 900.778 -3.96594 4.32354 0
M  V30 9374 C 903.13 -4.03788 4.86968 0
M  V30 9375 C 901.794 -4.09934 5.26793 0
M  V30 9376 H 901.064 -0.692579 0.263467 0
M  V30 9377 H 903.711 -1.41738 1.28774 0
M  V30 9378 H 902.016 -3.89052 0.463234 0
M  V30 9379 H 903.713 -3.91809 0.853602 0
M  V30 9380 H 900.303 -3.64152 2.26033 0
M  V30 9381 H 904.487 -3.76534 3.2332 0
M  V30 9382 H 899.743 -3.9959 4.6275 0
M  V30 9383 H 903.917 -4.1325 5.60533 0
M  V30 9384 H 901.544 -4.24389 6.30712 0
M  V30 9385 N 903.119 -0.802921 -1.35613 0
M  V30 9386 C 904.067 -0.198783 -2.31749 0
M  V30 9387 C 905.061 0.649416 -1.56458 0
M  V30 9388 O 906.267 0.542989 -1.71615 0
M  V30 9389 H 902.642 -0.0455177 -0.750621 0
M  V30 9390 H 904.613 -1.02479 -2.80251 0
M  V30 9391 C 903.362 0.641066 -3.41739 0
M  V30 9392 H 902.685 -0.00226244 -3.998 0
M  V30 9393 H 904.125 1.03022 -4.11294 0
M  V30 9394 C 902.584 1.80505 -2.84464 0
M  V30 9395 O 903.114 2.90235 -2.77717 0
M  V30 9396 N 901.32 1.61542 -2.41563 0
M  V30 9397 H 900.867 0.722863 -2.4725 0
M  V30 9398 H 900.825 2.39581 -2.03589 0
M  V30 9399 N 904.597 1.47463 -0.556102 0
M  V30 9400 C 905.545 2.31692 0.205299 0
M  V30 9401 C 906.539 1.42857 0.910394 0
M  V30 9402 O 907.745 1.59628 0.831806 0
M  V30 9403 H 904.12 0.747172 0.0850775 0
M  V30 9404 H 906.091 2.93758 -0.524305 0
M  V30 9405 C 904.84 3.25487 1.22283 0
M  V30 9406 H 904.163 3.93806 0.689697 0
M  V30 9407 H 905.603 3.87257 1.7265 0
M  V30 9408 C 904.062 2.48931 2.27013 0
M  V30 9409 O 904.592 2.23296 3.33919 0
M  V30 9410 N 902.798 2.0996 2.00911 0
M  V30 9411 H 902.345 2.31008 1.13986 0
M  V30 9412 H 902.303 1.59053 2.712 0
M  V30 9413 N 906.075 0.2925 1.54862 0
M  V30 9414 C 907.3 -0.32494 2.04839 0
M  V30 9415 C 907.725 -1.47381 1.16877 0
M  V30 9416 O 907.083 -1.80492 0.171028 0
M  V30 9417 C 907.131 -0.76694 3.5235 0
M  V30 9418 O 906.235 -1.87256 3.67436 0
M  V30 9419 H 905.576 -0.0645195 0.660858 0
M  V30 9420 H 908.106 0.431867 1.9999 0
M  V30 9421 H 908.116 -1.05804 3.94043 0
M  V30 9422 H 906.791 0.0735212 4.15835 0
M  V30 9423 H 905.368 -1.58266 3.37648 0
M  V30 9424 N 907.553 -1.57587 0.0200696 0
M  V30 9425 C 908.799 -1.91708 -0.661503 0
M  V30 9426 C 909.132 -0.895968 -1.72296 0
M  V30 9427 O 908.407 0.082577 -1.94325 0
M  V30 9428 C 908.69 -3.36344 -1.28627 0
M  V30 9429 C 908.543 -4.49186 -0.234982 0
M  V30 9430 C 909.862 -3.80771 -2.20685 0
M  V30 9431 H 906.981 -0.69717 -0.239005 0
M  V30 9432 H 909.623 -1.8985 0.0754764 0
M  V30 9433 H 907.773 -3.38058 -1.91439 0
M  V30 9434 H 909.445 -4.59606 0.395011 0
M  V30 9435 H 907.688 -4.31557 0.440565 0
M  V30 9436 H 908.359 -5.47395 -0.711558 0
M  V30 9437 H 910.835 -3.80735 -1.67868 0
M  V30 9438 H 909.711 -4.82685 -2.61356 0
M  V30 9439 H 909.972 -3.15764 -3.09428 0
M  V30 9440 N 909.032 0.252966 -1.55557 0
M  V30 9441 C 910.443 0.822503 -1.67606 0
M  V30 9442 C 910.794 1.86265 -0.616411 0
M  V30 9443 O 909.919 2.15082 0.238447 0
M  V30 9444 C 910.514 1.49866 -3.03852 0
M  V30 9445 C 909.073 2.01597 -3.17861 0
M  V30 9446 C 908.22 0.864943 -2.63465 0
M  V30 9447 H 911.171 0.0288958 -1.58674 0
M  V30 9448 H 911.192 2.36646 -2.97958 0
M  V30 9449 H 910.704 0.741378 -3.80953 0
M  V30 9450 H 908.805 2.80224 -2.45571 0
M  V30 9451 H 908.918 2.21752 -4.24692 0
M  V30 9452 H 907.282 1.2638 -2.21134 0
M  V30 9453 H 908.065 0.120847 -3.43087 0
M  V30 9454 N 910.51 1.48831 0.518367 0
M  V30 9455 C 911.759 1.5669 1.27008 0
M  V30 9456 C 912.072 0.250934 1.93984 0
M  V30 9457 O 913.278 0.207884 2.70703 0
M  V30 9458 C 911.734 2.76387 2.30517 0
M  V30 9459 C 911.342 4.14673 1.69559 0
M  V30 9460 C 913.086 2.93566 3.06625 0
M  V30 9461 C 910.993 5.25616 2.71076 0
M  V30 9462 H 909.923 0.583362 0.477708 0
M  V30 9463 H 912.574 1.75187 0.546052 0
M  V30 9464 H 910.956 2.51348 3.06006 0
M  V30 9465 H 912.13 4.49779 1.00179 0
M  V30 9466 H 910.445 4.02708 1.05902 0
M  V30 9467 H 913.042 3.7362 3.82508 0
M  V30 9468 H 913.385 2.03462 3.63193 0
M  V30 9469 H 913.918 3.18562 2.38251 0
M  V30 9470 H 910.657 6.17723 2.19313 0
M  V30 9471 H 910.177 4.94985 3.38748 0
M  V30 9472 H 911.856 5.5422 3.3384 0
M  V30 9473 N 911.988 -0.768124 1.37614 0
M  V30 9474 C 912.898 -1.91249 1.35871 0
M  V30 9475 C 913.914 -1.7208 0.257786 0
M  V30 9476 O 915.09 -1.95253 0.493782 0
M  V30 9477 C 912.155 -3.26423 1.16829 0
M  V30 9478 C 911.216 -3.5822 2.36594 0
M  V30 9479 C 910.449 -4.86945 2.1845 0
M  V30 9480 O 910.672 -5.58258 1.17064 0
M  V30 9481 O 909.606 -5.17888 3.06718 0
M  V30 9482 H 913.432 -1.95671 2.32264 0
M  V30 9483 H 911.017 -0.911382 1.18382 0
M  V30 9484 H 912.899 -4.07269 1.08212 0
M  V30 9485 H 911.574 -3.22845 0.235123 0
M  V30 9486 H 910.481 -2.77594 2.50783 0
M  V30 9487 H 911.814 -3.66545 3.2849 0
M  V30 9488 N 913.466 -1.22244 -0.994698 0
M  V30 9489 C 914.414 -0.988118 -2.10568 0
M  V30 9490 C 915.408 0.0681541 -1.69263 0
M  V30 9491 O 916.614 -0.0841311 -1.79803 0
M  V30 9492 H 912.989 -0.302343 -0.688544 0
M  V30 9493 H 914.96 -1.93091 -2.27505 0
M  V30 9494 C 913.709 -0.580557 -3.42819 0
M  V30 9495 H 913.032 -1.385 -3.75044 0
M  V30 9496 H 914.472 -0.456004 -4.21541 0
M  V30 9497 C 912.931 0.709692 -3.2934 0
M  V30 9498 O 913.461 1.76259 -3.60965 0
M  V30 9499 N 911.667 0.680155 -2.82528 0
M  V30 9500 H 911.214 -0.176977 -2.56991 0
M  V30 9501 H 911.172 1.54372 -2.73892 0
M  V30 9502 N 914.944 1.19125 -1.03184 0
M  V30 9503 C 916.355 1.70564 -0.759264 0
M  V30 9504 C 916.706 1.8248 0.720794 0
M  V30 9505 O 915.831 1.49804 1.56166 0
M  V30 9506 C 916.426 3.09793 -1.37163 0
M  V30 9507 C 914.985 3.5848 -1.14757 0
M  V30 9508 C 914.132 2.35265 -1.46784 0
M  V30 9509 H 917.083 1.03925 -1.19939 0
M  V30 9510 H 917.104 3.72624 -0.77015 0
M  V30 9511 H 916.616 3.01088 -2.44882 0
M  V30 9512 H 914.717 3.72494 -0.0887182 0
M  V30 9513 H 914.83 4.42426 -1.83836 0
M  V30 9514 H 913.194 2.38747 -0.887254 0
M  V30 9515 H 913.977 2.29188 -2.55593 0
M  V30 9516 N 916.422 0.810101 1.35185 0
M  V30 9517 C 917.838 0.494269 1.51754 0
M  V30 9518 C 918.038 -0.983907 1.75845 0
M  V30 9519 O 917.094 -1.76882 1.80191 0
M  V30 9520 C 918.407 1.34268 2.69059 0
M  V30 9521 C 919.955 1.33848 2.82938 0
M  V30 9522 C 920.43 2.17109 4.03271 0
M  V30 9523 N 921.921 2.14664 4.10456 0
M  V30 9524 C 922.656 2.75843 5.02691 0
M  V30 9525 N 922.152 3.45962 6.00235 0
M  V30 9526 N 923.945 2.65465 4.95464 0
M  V30 9527 H 916.096 1.76736 1.17805 0
M  V30 9528 H 918.359 0.752429 0.576676 0
M  V30 9529 H 918.065 2.39183 2.57845 0
M  V30 9530 H 917.939 0.998362 3.63748 0
M  V30 9531 H 920.326 0.29716 2.936 0
M  V30 9532 H 920.407 1.72269 1.89095 0
M  V30 9533 H 920.051 3.21283 3.93369 0
M  V30 9534 H 919.981 1.76046 4.96302 0
M  V30 9535 H 922.472 1.63648 3.40628 0
M  V30 9536 H 922.785 3.89922 6.67219 0
M  V30 9537 H 921.13 3.50067 6.00398 0
M  V30 9538 H 924.321 2.1027 4.18215 0
M  V30 9539 H 924.494 3.13433 5.67154 0
M  V30 9540 N 917.9 -1.47166 0.563914 0
M  V30 9541 C 919.148 -2.02056 0.0422873 0
M  V30 9542 C 919.469 -1.43992 -1.31497 0
M  V30 9543 O 918.739 -0.617578 -1.85911 0
M  V30 9544 H 917.319 -0.746893 0.0126427 0
M  V30 9545 H 919.981 -1.80492 0.735441 0
M  V30 9546 H 919.077 -3.12073 -0.0408044 0
M  V30 9547 N 919.378 -0.300708 -1.54705 0
M  V30 9548 C 920.606 0.31127 -2.04545 0
M  V30 9549 C 921.021 1.47542 -1.178 0
M  V30 9550 O 920.378 1.81361 -0.203571 0
M  V30 9551 C 920.429 0.767783 -3.53253 0
M  V30 9552 O 920.15 -0.350027 -4.36699 0
M  V30 9553 C 921.651 1.44494 -4.1909 0
M  V30 9554 H 918.871 0.067668 -0.667579 0
M  V30 9555 H 921.415 -0.440254 -1.99705 0
M  V30 9556 H 919.57 1.46933 -3.58454 0
M  V30 9557 H 919.984 0.00534038 -5.245 0
M  V30 9558 H 921.458 1.71553 -5.24665 0
M  V30 9559 H 921.935 2.3849 -3.68808 0
M  V30 9560 H 922.541 0.786581 -4.17963 0
M  V30 9561 N 920.856 1.57574 -0.0284266 0
M  V30 9562 C 922.084 1.96071 0.660575 0
M  V30 9563 C 922.499 0.904881 1.65703 0
M  V30 9564 O 921.856 -0.113379 1.82147 0
M  V30 9565 C 921.907 3.34634 1.36756 0
M  V30 9566 O 921.628 4.36167 0.411041 0
M  V30 9567 C 923.129 3.87758 2.14845 0
M  V30 9568 H 920.349 0.645794 0.182183 0
M  V30 9569 H 922.893 2.04311 -0.0879858 0
M  V30 9570 H 921.048 3.27616 2.06753 0
M  V30 9571 H 921.462 5.16493 0.913 0
M  V30 9572 H 922.936 4.87058 2.59767 0
M  V30 9573 H 923.413 3.21967 2.9872 0
M  V30 9574 H 924.019 3.98043 1.49807 0
M  V30 9575 N 922.334 -0.244713 1.55689 0
M  V30 9576 C 923.559 -0.994157 1.8202 0
M  V30 9577 C 923.984 -1.78079 0.60577 0
M  V30 9578 O 923.342 -1.75748 -0.445221 0
M  V30 9579 C 923.39 -1.90599 3.06111 0
M  V30 9580 O 922.494 -2.99804 2.8318 0
M  V30 9581 H 921.835 -0.282767 0.600782 0
M  V30 9582 H 924.365 -0.26504 2.02876 0
M  V30 9583 H 924.375 -2.32023 3.35603 0
M  V30 9584 H 923.05 -1.32763 3.9414 0
M  V30 9585 H 921.627 -2.62493 2.64862 0
M  V30 9586 N 923.813 -1.49104 -0.510467 0
M  V30 9587 C 924.76 -1.65074 -1.61305 0
M  V30 9588 C 925.73 -0.492362 -1.58635 0
M  V30 9589 O 926.915 -0.718241 -1.76765 0
M  V30 9590 C 924.055 -1.71457 -2.99493 0
M  V30 9591 C 923.168 -2.98536 -3.12251 0
M  V30 9592 C 922.303 -2.95957 -4.41116 0
M  V30 9593 C 921.342 -4.17655 -4.47471 0
M  V30 9594 N 920.479 -4.13041 -5.67751 0
M  V30 9595 H 925.319 -2.59222 -1.46996 0
M  V30 9596 H 922.856 -1.28535 -0.715346 0
M  V30 9597 H 924.814 -1.7314 -3.79577 0
M  V30 9598 H 923.444 -0.807834 -3.12528 0
M  V30 9599 H 922.496 -3.06509 -2.25292 0
M  V30 9600 H 923.808 -3.88527 -3.12807 0
M  V30 9601 H 922.962 -2.96149 -5.2951 0
M  V30 9602 H 921.701 -2.03728 -4.4311 0
M  V30 9603 H 920.706 -4.17717 -3.57481 0
M  V30 9604 H 921.931 -5.11066 -4.472 0
M  V30 9605 H 919.877 -3.23643 -5.70606 0
M  V30 9606 H 919.794 -4.96757 -5.69884 0
M  V30 9607 H 921.062 -4.17322 -6.58379 0
M  V30 9608 N 925.291 0.760815 -1.38019 0
M  V30 9609 C 926.54 1.51506 -1.3315 0
M  V30 9610 C 926.853 1.95444 0.0782124 0
M  V30 9611 O 928.059 2.70352 0.249418 0
M  V30 9612 C 926.515 2.73636 -2.33776 0
M  V30 9613 C 926.123 2.36753 -3.80332 0
M  V30 9614 C 927.867 3.51548 -2.37937 0
M  V30 9615 C 925.774 3.55451 -4.72661 0
M  V30 9616 H 924.704 0.568844 -0.494907 0
M  V30 9617 H 927.355 0.832343 -1.63537 0
M  V30 9618 H 925.737 3.43852 -1.96422 0
M  V30 9619 H 926.911 1.7425 -4.26584 0
M  V30 9620 H 925.226 1.71991 -3.7922 0
M  V30 9621 H 927.823 4.39791 -3.04119 0
M  V30 9622 H 928.166 3.9219 -1.39617 0
M  V30 9623 H 928.699 2.88339 -2.74054 0
M  V30 9624 H 925.438 3.19882 -5.7215 0
M  V30 9625 H 924.958 4.17022 -4.31107 0
M  V30 9626 H 926.637 4.22125 -4.90326 0
M  V30 9627 N 926.769 1.22769 0.988202 0
M  V30 9628 C 927.702 0.945196 2.07705 0
M  V30 9629 C 928.68 -0.11363 1.62202 0
M  V30 9630 O 929.864 0.0189624 1.8849 0
M  V30 9631 C 926.991 0.422474 3.36055 0
M  V30 9632 C 926.037 1.4667 4.00487 0
M  V30 9633 S 926.87 3.04158 4.40736 0
M  V30 9634 C 928.026 2.53536 5.7225 0
M  V30 9635 H 928.259 1.86723 2.31348 0
M  V30 9636 H 925.792 1.05928 1.12333 0
M  V30 9637 H 927.75 0.12748 4.10302 0
M  V30 9638 H 926.411 -0.478515 3.10434 0
M  V30 9639 H 925.604 1.05093 4.92921 0
M  V30 9640 H 925.206 1.71064 3.32585 0
M  V30 9641 H 927.498 1.95069 6.4881 0
M  V30 9642 H 928.441 3.44479 6.1866 0
M  V30 9643 H 928.849 1.94658 5.29876 0
M  V30 9644 N 928.247 -1.18576 1.03814 0
M  V30 9645 C 929.493 -1.88773 0.741132 0
M  V30 9646 C 929.826 -1.79993 -0.729127 0
M  V30 9647 O 929.101 -1.19851 -1.53186 0
M  V30 9648 C 929.384 -3.39352 1.20468 0
M  V30 9649 C 929.237 -3.56955 2.73684 0
M  V30 9650 C 930.556 -4.32901 0.792741 0
M  V30 9651 H 927.675 -0.685482 0.270708 0
M  V30 9652 H 930.317 -1.39523 1.2897 0
M  V30 9653 H 928.467 -3.81427 0.737974 0
M  V30 9654 H 930.139 -3.2399 3.28372 0
M  V30 9655 H 928.382 -2.99696 3.13632 0
M  V30 9656 H 929.053 -4.62598 3.01176 0
M  V30 9657 H 931.529 -3.98592 1.1943 0
M  V30 9658 H 930.405 -5.36828 1.14486 0
M  V30 9659 H 930.666 -4.41052 -0.304295 0
M  V30 9660 N 929.725 -0.817259 -1.34754 0
M  V30 9661 C 930.655 -0.249769 -2.3216 0
M  V30 9662 C 931.636 0.630663 -1.57977 0
M  V30 9663 O 932.821 0.558719 -1.85989 0
M  V30 9664 C 929.951 0.593825 -3.42186 0
M  V30 9665 C 928.905 -0.188997 -4.27583 0
M  V30 9666 C 928.231 0.776979 -5.29025 0
M  V30 9667 C 929.531 -1.39401 -5.03354 0
M  V30 9668 H 931.225 -1.06359 -2.79872 0
M  V30 9669 H 928.771 -0.512894 -1.34556 0
M  V30 9670 H 930.724 1.00097 -4.09339 0
M  V30 9671 H 929.448 1.44064 -2.93109 0
M  V30 9672 H 928.107 -0.577445 -3.62024 0
M  V30 9673 H 927.755 1.61959 -4.76212 0
M  V30 9674 H 927.455 0.257448 -5.87036 0
M  V30 9675 H 928.979 1.18211 -5.99048 0
M  V30 9676 H 930.393 -1.06117 -5.63393 0
M  V30 9677 H 928.79 -1.84878 -5.70912 0
M  V30 9678 H 929.86 -2.17515 -4.33377 0
M  V30 9679 N 931.203 1.46865 -0.571711 0
M  V30 9680 C 932.449 2.0273 -0.0531858 0
M  V30 9681 C 932.782 1.44353 1.29907 0
M  V30 9682 O 932.057 0.604488 1.84868 0
M  V30 9683 C 932.34 3.60092 0.0243831 0
M  V30 9684 C 932.193 4.28874 -1.35599 0
M  V30 9685 C 933.512 4.33994 0.730563 0
M  V30 9686 H 930.631 0.736706 -0.0208018 0
M  V30 9687 H 933.273 1.75132 -0.736794 0
M  V30 9688 H 931.423 3.83736 0.606565 0
M  V30 9689 H 933.095 4.16527 -1.98249 0
M  V30 9690 H 931.338 3.88664 -1.92674 0
M  V30 9691 H 932.009 5.37561 -1.25429 0
M  V30 9692 H 934.485 4.1543 0.236098 0
M  V30 9693 H 933.361 5.43699 0.753836 0
M  V30 9694 H 933.622 4.04257 1.78967 0
M  V30 9695 N 932.681 0.308908 1.54543 0
M  V30 9696 C 933.927 -0.291311 2.01303 0
M  V30 9697 C 934.282 -1.50917 1.19339 0
M  V30 9698 O 933.575 -1.89776 0.263724 0
M  V30 9699 C 933.769 -0.691522 3.50646 0
M  V30 9700 C 933.598 0.486007 4.47066 0
M  V30 9701 C 932.368 0.980515 4.95695 0
M  V30 9702 C 934.566 1.33352 4.96711 0
M  V30 9703 N 932.548 2.12398 5.75986 0
M  V30 9704 C 933.919 2.32436 5.74781 0
M  V30 9705 C 935.974 1.36298 4.78881 0
M  V30 9706 C 934.677 3.34252 6.36921 0
M  V30 9707 C 936.703 2.36976 5.41845 0
M  V30 9708 C 936.065 3.34789 6.19755 0
M  V30 9709 H 932.164 -0.0708418 0.778785 0
M  V30 9710 H 934.748 0.440621 1.89649 0
M  V30 9711 H 932.919 -1.39261 3.62575 0
M  V30 9712 H 934.651 -1.27196 3.84192 0
M  V30 9713 H 931.406 0.55419 4.70346 0
M  V30 9714 H 931.83 2.70036 6.20814 0
M  V30 9715 H 936.472 0.620472 4.18222 0
M  V30 9716 H 934.19 4.09417 6.96709 0
M  V30 9717 H 937.776 2.40039 5.29974 0
M  V30 9718 H 936.656 4.11418 6.67611 0
M  V30 9719 N 934.159 -1.57557 0.0367827 0
M  V30 9720 C 935.122 -2.09591 -0.927589 0
M  V30 9721 C 936.122 -1.01252 -1.24919 0
M  V30 9722 O 937.312 -1.27382 -1.18825 0
M  V30 9723 C 934.444 -2.56816 -2.24184 0
M  V30 9724 H 935.637 -2.96086 -0.476784 0
M  V30 9725 H 933.19 -1.54864 -0.211385 0
M  V30 9726 H 933.925 -1.73673 -2.73876 0
M  V30 9727 H 933.71 -3.35973 -2.0215 0
M  V30 9728 H 935.2 -2.97271 -2.93291 0
M  V30 9729 N 935.637 0.236453 -1.55816 0
M  V30 9730 C 936.884 0.963012 -1.78136 0
M  V30 9731 C 937.212 1.84918 -0.602952 0
M  V30 9732 O 936.467 1.91285 0.413325 0
M  V30 9733 C 936.766 1.84549 -3.06066 0
M  V30 9734 C 936.432 1.11381 -4.36927 0
M  V30 9735 C 935.094 0.911635 -4.72486 0
M  V30 9736 C 937.446 0.596 -5.17781 0
M  V30 9737 C 934.774 0.179515 -5.86425 0
M  V30 9738 C 937.126 -0.122702 -6.32481 0
M  V30 9739 C 935.79 -0.336263 -6.66652 0
M  V30 9740 H 935.06 0.352391 -0.651845 0
M  V30 9741 H 937.707 0.232295 -1.90086 0
M  V30 9742 H 936.012 2.6436 -2.89173 0
M  V30 9743 H 937.709 2.40953 -3.20535 0
M  V30 9744 H 934.299 1.28134 -4.08998 0
M  V30 9745 H 938.483 0.73971 -4.90757 0
M  V30 9746 H 933.739 0.00368224 -6.114 0
M  V30 9747 H 937.913 -0.531516 -6.94369 0
M  V30 9748 H 935.54 -0.905507 -7.54788 0
M  V30 9749 N 937.115 1.49373 0.502552 0
M  V30 9750 C 938.362 1.58781 1.25678 0
M  V30 9751 C 938.69 0.273819 1.92563 0
M  V30 9752 O 937.945 -0.738141 1.81246 0
M  V30 9753 C 938.244 2.69508 2.34735 0
M  V30 9754 C 937.91 4.11057 1.85318 0
M  V30 9755 C 936.572 4.49578 1.7156 0
M  V30 9756 C 938.924 4.99653 1.48312 0
M  V30 9757 C 936.252 5.74469 1.19172 0
M  V30 9758 C 938.604 6.2506 0.97377 0
M  V30 9759 C 937.268 6.62412 0.822573 0
M  V30 9760 H 936.538 0.581021 0.459887 0
M  V30 9761 H 939.185 1.83197 0.557767 0
M  V30 9762 H 937.49 2.39057 3.10418 0
M  V30 9763 H 939.187 2.73997 2.92791 0
M  V30 9764 H 935.777 3.80651 1.96985 0
M  V30 9765 H 939.961 4.70549 1.57789 0
M  V30 9766 H 935.217 6.0211 1.06176 0
M  V30 9767 H 939.391 6.93089 0.678233 0
M  V30 9768 H 937.018 7.59069 0.414453 0
M  V30 9769 N 938.594 -0.753485 1.38421 0
M  V30 9770 C 939.557 -1.84888 1.35459 0
M  V30 9771 C 940.557 -1.58764 0.255083 0
M  V30 9772 O 941.747 -1.66507 0.511978 0
M  V30 9773 C 938.879 -3.22361 1.10888 0
M  V30 9774 H 940.072 -1.88922 2.32913 0
M  V30 9775 H 937.625 -0.955199 1.23716 0
M  V30 9776 H 938.36 -3.23996 0.1404 0
M  V30 9777 H 938.145 -3.42717 1.90492 0
M  V30 9778 H 939.635 -4.02437 1.1151 0
M  V30 9779 N 940.072 -1.23292 -0.981677 0
M  V30 9780 C 941.318 -1.06582 -1.72535 0
M  V30 9781 C 941.651 0.396538 -1.90108 0
M  V30 9782 O 940.926 1.29363 -1.45243 0
M  V30 9783 C 941.209 -1.7904 -3.12437 0
M  V30 9784 C 941.062 -3.32941 -3.02441 0
M  V30 9785 C 942.381 -1.55185 -4.11832 0
M  V30 9786 H 939.5 -0.388585 -0.626236 0
M  V30 9787 H 942.142 -1.51779 -1.14293 0
M  V30 9788 H 940.292 -1.40619 -3.62158 0
M  V30 9789 H 941.964 -3.80875 -2.60254 0
M  V30 9790 H 940.207 -3.62039 -2.38977 0
M  V30 9791 H 940.878 -3.78827 -4.0149 0
M  V30 9792 H 943.354 -1.88581 -3.70913 0
M  V30 9793 H 942.23 -2.08362 -5.07815 0
M  V30 9794 H 942.491 -0.486925 -4.3941 0
M  V30 9795 N 941.55 1.18024 -1.04442 0
M  V30 9796 C 942.799 1.8743 -0.745185 0
M  V30 9797 C 943.112 1.81459 0.730206 0
M  V30 9798 O 944.318 2.46263 1.1431 0
M  V30 9799 C 942.774 3.36266 -1.28271 0
M  V30 9800 C 942.382 3.50757 -2.787 0
M  V30 9801 C 944.126 4.11048 -1.06018 0
M  V30 9802 C 942.033 4.93573 -3.25791 0
M  V30 9803 H 940.963 0.702038 -0.27506 0
M  V30 9804 H 943.614 1.33333 -1.26073 0
M  V30 9805 H 941.996 3.89853 -0.695002 0
M  V30 9806 H 943.17 3.07423 -3.43261 0
M  V30 9807 H 941.485 2.89385 -2.99408 0
M  V30 9808 H 944.082 5.16395 -1.38711 0
M  V30 9809 H 944.425 4.163 0.00241716 0
M  V30 9810 H 944.958 3.63644 -1.61269 0
M  V30 9811 H 941.697 4.93491 -4.31447 0
M  V30 9812 H 941.217 5.37607 -2.65968 0
M  V30 9813 H 942.896 5.62307 -3.20031 0
M  V30 9814 N 943.028 0.824394 1.34319 0
M  V30 9815 C 944.275 0.413167 1.9824 0
M  V30 9816 C 944.603 -1.02412 1.65354 0
M  V30 9817 O 943.858 -1.72831 0.91803 0
M  V30 9818 C 944.157 0.564024 3.52921 0
M  V30 9819 C 943.823 1.96725 4.05722 0
M  V30 9820 C 942.485 2.35111 4.19853 0
M  V30 9821 C 944.837 2.88447 4.34106 0
M  V30 9822 C 942.165 3.64551 4.59695 0
M  V30 9823 C 944.517 4.17353 4.75394 0
M  V30 9824 C 943.181 4.55714 4.8773 0
M  V30 9825 H 942.451 0.151188 0.725412 0
M  V30 9826 H 945.098 1.04863 1.60238 0
M  V30 9827 H 943.403 -0.154816 3.91494 0
M  V30 9828 H 945.1 0.226347 4.00361 0
M  V30 9829 H 941.69 1.65908 3.95187 0
M  V30 9830 H 945.874 2.60034 4.22725 0
M  V30 9831 H 941.13 3.94097 4.67437 0
M  V30 9832 H 945.304 4.88512 4.96315 0
M  V30 9833 H 942.931 5.56064 5.1836 0
M  V30 9834 N 944.506 -1.46559 0.579492 0
M  V30 9835 C 945.436 -2.33059 -0.143437 0
M  V30 9836 C 946.417 -1.4515 -0.886868 0
M  V30 9837 O 947.602 -1.73973 -0.862961 0
M  V30 9838 C 944.732 -3.27364 -1.15973 0
M  V30 9839 C 943.686 -4.24689 -0.531348 0
M  V30 9840 C 943.012 -5.08479 -1.65388 0
M  V30 9841 C 944.312 -5.1961 0.529391 0
M  V30 9842 H 946.006 -2.93753 0.578762 0
M  V30 9843 H 943.552 -1.41256 0.279775 0
M  V30 9844 H 945.505 -3.86732 -1.67382 0
M  V30 9845 H 944.229 -2.64771 -1.91217 0
M  V30 9846 H 942.888 -3.6658 -0.0383749 0
M  V30 9847 H 942.536 -4.42273 -2.3959 0
M  V30 9848 H 942.236 -5.74387 -1.23909 0
M  V30 9849 H 943.76 -5.70709 -2.17079 0
M  V30 9850 H 945.174 -5.73212 0.100506 0
M  V30 9851 H 943.571 -5.93843 0.86432 0
M  V30 9852 H 944.641 -4.63737 1.4169 0
M  V30 9853 N 945.984 -0.3171 -1.54377 0
M  V30 9854 C 946.947 0.53905 -2.22771 0
M  V30 9855 C 947.947 1.04865 -1.21901 0
M  V30 9856 O 949.137 0.942108 -1.46526 0
M  V30 9857 C 946.269 1.74804 -2.92671 0
M  V30 9858 H 947.462 -0.0587417 -2.99842 0
M  V30 9859 H 945.015 -0.068107 -1.56152 0
M  V30 9860 H 945.75 2.38524 -2.1972 0
M  V30 9861 H 945.535 1.39011 -3.66631 0
M  V30 9862 H 947.025 2.35592 -3.44799 0
M  V30 9863 N 947.462 1.57535 -0.0451378 0
M  V30 9864 C 948.687 1.97172 0.64326 0
M  V30 9865 C 949.112 0.922266 1.63939 0
M  V30 9866 O 948.47 -0.115155 1.80934 0
M  V30 9867 C 948.518 3.35889 1.3119 0
M  V30 9868 O 947.622 3.33387 2.42748 0
M  V30 9869 H 946.963 0.642469 0.167719 0
M  V30 9870 H 949.493 2.04295 -0.111747 0
M  V30 9871 H 949.503 3.72481 1.66499 0
M  V30 9872 H 948.178 4.1181 0.581823 0
M  V30 9873 H 946.755 3.08533 2.09432 0
M  V30 9874 N 948.94 -0.228186 1.55939 0
M  V30 9875 C 950.17 -0.969211 1.82455 0
M  V30 9876 C 950.578 -1.78714 0.621133 0
M  V30 9877 O 949.921 -1.78841 -0.419694 0
M  V30 9878 C 949.983 -1.94088 3.02605 0
M  V30 9879 C 949.647 -1.30811 4.37878 0
M  V30 9880 C 950.644 -0.701275 5.15149 0
M  V30 9881 C 948.329 -1.32187 4.84595 0
M  V30 9882 C 950.323 -0.116631 6.37293 0
M  V30 9883 C 948.01 -0.733375 6.06683 0
M  V30 9884 C 949.008 -0.131804 6.82873 0
M  V30 9885 O 948.696 0.447549 8.02653 0
M  V30 9886 H 948.428 -0.289951 0.610659 0
M  V30 9887 H 950.982 -0.250576 2.03866 0
M  V30 9888 H 949.212 -2.69833 2.76996 0
M  V30 9889 H 950.901 -2.5469 3.1605 0
M  V30 9890 H 951.667 -0.683022 4.80166 0
M  V30 9891 H 947.546 -1.77949 4.25271 0
M  V30 9892 H 951.09 0.353539 6.96704 0
M  V30 9893 H 946.987 -0.749019 6.4114 0
M  V30 9894 H 947.755 0.341224 8.17788 0
M  V30 9895 N 950.418 -1.49637 -0.494624 0
M  V30 9896 C 951.646 -1.63164 -1.2722 0
M  V30 9897 C 952.061 -0.305552 -1.86311 0
M  V30 9898 O 951.418 0.709758 -1.68133 0
M  V30 9899 C 951.469 -2.70524 -2.39789 0
M  V30 9900 O 951.19 -3.97991 -1.83126 0
M  V30 9901 C 952.691 -2.94814 -3.31058 0
M  V30 9902 H 949.911 -0.54912 -0.385627 0
M  V30 9903 H 952.455 -1.95711 -0.593081 0
M  V30 9904 H 950.61 -2.40738 -3.03519 0
M  V30 9905 H 951.024 -4.57179 -2.57075 0
M  V30 9906 H 952.498 -3.73653 -4.06309 0
M  V30 9907 H 952.975 -2.04974 -3.88436 0
M  V30 9908 H 953.581 -3.26042 -2.73088 0
M  V30 9909 N 951.896 0.746133 -1.38819 0
M  V30 9910 C 952.859 1.84167 -1.36437 0
M  V30 9911 C 953.859 1.58626 -0.263499 0
M  V30 9912 O 955.049 1.66233 -0.520801 0
M  V30 9913 C 952.181 3.21769 -1.12596 0
M  V30 9914 H 953.374 1.87684 -2.33912 0
M  V30 9915 H 950.927 0.948625 -1.24221 0
M  V30 9916 H 951.662 3.23917 -0.15758 0
M  V30 9917 H 951.447 3.41702 -1.92307 0
M  V30 9918 H 952.937 4.0184 -1.13643 0
M  V30 9919 N 953.375 1.23811 0.975125 0
M  V30 9920 C 954.323 1.02149 2.0897 0
M  V30 9921 C 955.317 -0.0412172 1.6935 0
M  V30 9922 O 956.523 0.112726 1.79647 0
M  V30 9923 H 952.898 0.313259 0.683647 0
M  V30 9924 H 954.869 1.96686 2.24404 0
M  V30 9925 C 953.618 0.635023 3.41852 0
M  V30 9926 H 952.941 1.44449 3.72793 0
M  V30 9927 H 954.381 0.52301 4.20762 0
M  V30 9928 C 952.84 -0.657207 3.30428 0
M  V30 9929 O 953.37 -1.70494 3.63723 0
M  V30 9930 N 951.576 -0.635122 2.83575 0
M  V30 9931 H 951.123 0.21784 2.56677 0
M  V30 9932 H 951.081 -1.49995 2.76313 0
M  V30 9933 N 954.853 -1.17469 1.05066 0
M  V30 9934 C 955.783 -2.23635 0.671552 0
M  V30 9935 C 956.764 -1.66867 -0.33006 0
M  V30 9936 O 957.949 -1.93084 -0.207933 0
M  V30 9937 C 955.079 -3.47272 0.0441845 0
M  V30 9938 C 954.033 -4.16854 0.97042 0
M  V30 9939 C 953.359 -5.34299 0.206998 0
M  V30 9940 C 954.659 -4.69225 2.29401 0
M  V30 9941 H 956.353 -2.55602 1.55911 0
M  V30 9942 H 953.899 -1.2286 0.751101 0
M  V30 9943 H 955.852 -4.20756 -0.23282 0
M  V30 9944 H 954.576 -3.14568 -0.878311 0
M  V30 9945 H 953.235 -3.4528 1.23197 0
M  V30 9946 H 952.883 -4.97846 -0.718222 0
M  V30 9947 H 952.583 -5.81792 0.82416 0
M  V30 9948 H 954.107 -6.10568 -0.0627525 0
M  V30 9949 H 955.521 -5.34353 2.077 0
M  V30 9950 H 953.918 -5.27291 2.86503 0
M  V30 9951 H 954.988 -3.86102 2.93348 0
M  V30 9952 N 956.331 -0.831506 -1.3388 0
M  V30 9953 C 957.294 -0.264773 -2.27666 0
M  V30 9954 C 958.294 0.562273 -1.50649 0
M  V30 9955 O 959.484 0.377131 -1.70069 0
M  V30 9956 C 956.616 0.627814 -3.35069 0
M  V30 9957 H 957.809 -1.09225 -2.79303 0
M  V30 9958 H 955.362 -0.604021 -1.44157 0
M  V30 9959 H 956.097 1.47802 -2.88661 0
M  V30 9960 H 955.882 0.0361552 -3.92083 0
M  V30 9961 H 957.372 1.01786 -4.05005 0
M  V30 9962 N 957.809 1.4625 -0.587256 0
M  V30 9963 C 958.772 2.28812 0.133238 0
M  V30 9964 C 959.772 1.38645 0.814513 0
M  V30 9965 O 960.962 1.60975 0.665774 0
M  V30 9966 C 958.094 3.19147 1.19824 0
M  V30 9967 H 959.287 2.93991 -0.592386 0
M  V30 9968 H 956.84 1.52435 -0.345416 0
M  V30 9969 H 957.575 2.58725 1.95529 0
M  V30 9970 H 957.36 3.85541 0.71418 0
M  V30 9971 H 958.85 3.81278 1.70344 0
M  V30 9972 N 959.287 0.325282 1.54207 0
M  V30 9973 C 960.534 -0.276775 2.006 0
M  V30 9974 C 960.862 -1.52007 1.21343 0
M  V30 9975 O 960.117 -1.93627 0.284104 0
M  V30 9976 C 960.416 -0.654292 3.5136 0
M  V30 9977 C 960.082 0.490023 4.48229 0
M  V30 9978 C 958.744 0.804104 4.74434 0
M  V30 9979 C 961.096 1.2586 5.05775 0
M  V30 9980 C 958.424 1.88945 5.55443 0
M  V30 9981 C 960.776 2.33405 5.87967 0
M  V30 9982 C 959.44 2.65393 6.12473 0
M  V30 9983 H 958.71 -0.101279 0.734046 0
M  V30 9984 H 961.357 0.449416 1.86152 0
M  V30 9985 H 959.662 -1.46093 3.63544 0
M  V30 9986 H 961.359 -1.13171 3.84699 0
M  V30 9987 H 957.949 0.235147 4.27954 0
M  V30 9988 H 962.133 1.02921 4.85511 0
M  V30 9989 H 957.389 2.14174 5.7266 0
M  V30 9990 H 961.563 2.93402 6.31576 0
M  V30 9991 H 959.19 3.49622 6.75032 0
M  V30 9992 N 960.765 -1.57509 0.0534917 0
M  V30 9993 C 961.698 -2.0723 -0.955554 0
M  V30 9994 C 962.676 -0.973313 -1.30251 0
M  V30 9995 O 963.86 -1.24541 -1.41498 0
M  V30 9996 C 960.987 -2.51473 -2.2689 0
M  V30 9997 C 960.033 -3.7263 -2.07482 0
M  V30 9998 S 960.866 -5.18177 -1.35104 0
M  V30 9999 C 962.022 -5.65736 -2.67757 0
M  V30 10000 H 962.255 -2.92494 -0.532407 0
M  V30 10001 H 959.788 -1.53581 -0.158831 0
M  V30 10002 H 961.746 -2.77626 -3.02381 0
M  V30 10003 H 960.407 -1.66511 -2.66332 0
M  V30 10004 H 959.6 -4.01515 -3.04633 0
M  V30 10005 H 959.202 -3.46756 -1.4013 0
M  V30 10006 H 961.494 -5.71463 -3.63918 0
M  V30 10007 H 962.437 -6.64914 -2.43506 0
M  V30 10008 H 962.845 -4.93475 -2.74123 0
M  V30 10009 N 962.243 0.219913 -1.56058 0
M  V30 10010 C 963.492 0.942119 -1.78345 0
M  V30 10011 C 963.805 1.85435 -0.622344 0
M  V30 10012 O 965.011 2.61533 -0.728886 0
M  V30 10013 C 963.467 1.72544 -3.15843 0
M  V30 10014 C 963.075 0.859263 -4.39682 0
M  V30 10015 C 964.819 2.43876 -3.47455 0
M  V30 10016 C 962.726 1.64003 -5.68205 0
M  V30 10017 H 961.656 0.355514 -0.664925 0
M  V30 10018 H 964.307 0.195963 -1.82451 0
M  V30 10019 H 962.689 2.51456 -3.05918 0
M  V30 10020 H 963.863 0.110562 -4.60667 0
M  V30 10021 H 962.178 0.257985 -4.156 0
M  V30 10022 H 964.775 3.02794 -4.40704 0
M  V30 10023 H 965.118 3.16843 -2.7003 0
M  V30 10024 H 965.651 1.71952 -3.58716 0
M  V30 10025 H 962.39 0.953606 -6.48526 0
M  V30 10026 H 961.91 2.3633 -5.51279 0
M  V30 10027 H 963.589 2.20028 -6.08438 0
M  V30 10028 N 963.721 1.49897 0.486681 0
M  V30 10029 C 964.653 1.63755 1.60365 0
M  V30 10030 C 965.666 0.519614 1.54285 0
M  V30 10031 O 966.855 0.792219 1.59957 0
M  V30 10032 C 963.955 1.59153 2.99205 0
M  V30 10033 C 963.128 2.8672 3.30319 0
M  V30 10034 C 962.187 2.74974 4.48638 0
M  V30 10035 O 961.213 3.48922 4.49714 0
M  V30 10036 N 962.415 1.87479 5.49392 0
M  V30 10037 H 965.18 2.60094 1.48899 0
M  V30 10038 H 962.741 1.47166 0.674825 0
M  V30 10039 H 964.733 1.4893 3.76301 0
M  V30 10040 H 963.303 0.706133 3.0452 0
M  V30 10041 H 962.523 3.11188 2.41983 0
M  V30 10042 H 963.811 3.71262 3.47911 0
M  V30 10043 H 963.209 1.26684 5.51333 0
M  V30 10044 H 961.766 1.83169 6.25534 0
M  V30 10045 N 965.199 -0.738761 1.39212 0
M  V30 10046 C 966.109 -1.88324 1.39897 0
M  V30 10047 C 967.125 -1.71494 0.294229 0
M  V30 10048 O 968.301 -1.94162 0.535087 0
M  V30 10049 C 965.366 -3.23871 1.23726 0
M  V30 10050 C 964.427 -3.53121 2.44139 0
M  V30 10051 C 963.66 -4.82202 2.2873 0
M  V30 10052 O 963.883 -5.55649 1.28879 0
M  V30 10053 O 962.817 -5.11265 3.17634 0
M  V30 10054 H 966.643 -1.90701 2.36362 0
M  V30 10055 H 964.228 -0.886067 1.20288 0
M  V30 10056 H 966.11 -4.04882 1.16826 0
M  V30 10057 H 964.785 -3.22274 0.303551 0
M  V30 10058 H 963.692 -2.72212 2.56615 0
M  V30 10059 H 965.025 -3.59495 3.36191 0
M  V30 10060 N 966.677 -1.24326 -0.968545 0
M  V30 10061 C 967.609 -0.992749 -2.06584 0
M  V30 10062 C 968.622 0.0374902 -1.62757 0
M  V30 10063 O 969.811 -0.199448 -1.77382 0
M  V30 10064 C 966.911 -0.476165 -3.35538 0
M  V30 10065 C 966.084 -1.56934 -4.08277 0
M  V30 10066 C 965.143 -1.05555 -5.15504 0
M  V30 10067 O 964.169 -1.74707 -5.41725 0
M  V30 10068 N 965.371 0.110465 -5.80395 0
M  V30 10069 H 968.136 -1.93752 -2.28649 0
M  V30 10070 H 965.697 -1.15344 -1.13611 0
M  V30 10071 H 967.689 -0.117223 -4.0453 0
M  V30 10072 H 966.259 0.374315 -3.10351 0
M  V30 10073 H 965.479 -2.10051 -3.33575 0
M  V30 10074 H 966.767 -2.30415 -4.53637 0
M  V30 10075 H 966.165 0.688614 -5.61493 0
M  V30 10076 H 964.722 0.41056 -6.50506 0
M  V30 10077 N 968.156 1.1691 -1.05688 0
M  V30 10078 C 969.386 1.90927 -0.789339 0
M  V30 10079 C 969.794 1.77339 0.659369 0
M  V30 10080 O 969.137 1.11147 1.4626 0
M  V30 10081 C 969.199 3.42361 -1.09677 0
M  V30 10082 C 968.863 3.79733 -2.54267 0
M  V30 10083 C 969.86 3.82163 -3.52487 0
M  V30 10084 C 967.545 4.10547 -2.89406 0
M  V30 10085 C 969.539 4.14884 -4.8389 0
M  V30 10086 C 967.226 4.42936 -4.21011 0
M  V30 10087 C 968.224 4.45084 -5.18063 0
M  V30 10088 O 967.912 4.76707 -6.47307 0
M  V30 10089 H 967.644 0.612466 -0.286115 0
M  V30 10090 H 970.198 1.4916 -1.4121 0
M  V30 10091 H 968.428 3.84446 -0.416924 0
M  V30 10092 H 970.117 3.97645 -0.814456 0
M  V30 10093 H 970.883 3.58476 -3.26681 0
M  V30 10094 H 966.762 4.08044 -2.14525 0
M  V30 10095 H 970.306 4.16475 -5.59638 0
M  V30 10096 H 966.203 4.66088 -4.46579 0
M  V30 10097 H 966.971 4.94544 -6.52203 0
M  V30 10098 N 969.634 0.838594 1.33437 0
M  V30 10099 C 970.883 0.430484 1.97053 0
M  V30 10100 C 971.196 -1.01556 1.6717 0
M  V30 10101 O 972.402 -1.52834 2.24397 0
M  V30 10102 C 970.858 0.718828 3.52648 0
M  V30 10103 C 970.466 2.17953 3.91408 0
M  V30 10104 C 972.21 0.377654 4.22817 0
M  V30 10105 C 970.117 2.41194 5.39981 0
M  V30 10106 H 969.047 0.157239 0.737422 0
M  V30 10107 H 971.698 1.02714 1.5206 0
M  V30 10108 H 970.08 0.0518042 3.95966 0
M  V30 10109 H 971.254 2.88701 3.59149 0
M  V30 10110 H 969.569 2.48366 3.34221 0
M  V30 10111 H 972.166 0.528926 5.32077 0
M  V30 10112 H 972.509 -0.679338 4.1072 0
M  V30 10113 H 973.042 0.999899 3.85028 0
M  V30 10114 H 969.781 3.45457 5.57081 0
M  V30 10115 H 969.301 1.75007 5.73701 0
M  V30 10116 H 970.98 2.24334 6.06863 0
M  V30 10117 N 971.112 -1.45937 0.595003 0
M  V30 10118 C 972.389 -1.95592 0.0178748 0
M  V30 10119 C 972.769 -1.53758 -1.44643 0
M  V30 10120 O 972.117 -0.794104 -2.14257 0
M  V30 10121 C 972.327 -3.4841 0.202789 0
M  V30 10122 C 973.675 -4.2453 0.0770121 0
M  V30 10123 O 974.699 -3.55954 0.132257 0
M  V30 10124 O 973.558 -5.46479 -0.0484271 0
M  V30 10125 H 970.652 -0.825888 -0.0428702 0
M  V30 10126 H 973.198 -1.56162 0.664184 0
M  V30 10127 H 971.97 -3.71787 1.22027 0
M  V30 10128 H 971.593 -3.947 -0.479376 0
M  V30 10129 N 972.59 -0.333456 -1.54032 0
M  V30 10130 C 973.818 0.267813 -2.05159 0
M  V30 10131 C 974.233 1.4501 -1.20903 0
M  V30 10132 O 973.59 1.80888 -0.241994 0
M  V30 10133 C 973.641 0.69268 -3.54802 0
M  V30 10134 O 973.362 -0.442579 -4.35859 0
M  V30 10135 C 974.863 1.35572 -4.2206 0
M  V30 10136 H 972.083 0.0534924 -0.668864 0
M  V30 10137 H 974.627 -0.482515 -1.98726 0
M  V30 10138 H 972.782 1.39297 -3.6149 0
M  V30 10139 H 973.196 -0.105915 -5.24393 0
M  V30 10140 H 974.67 1.60385 -5.28186 0
M  V30 10141 H 975.147 2.30614 -3.73783 0
M  V30 10142 H 975.753 0.697748 -4.19537 0
M  V30 10143 N 974.068 1.57479 -0.061844 0
M  V30 10144 C 975.314 1.93395 0.610443 0
M  V30 10145 C 975.647 0.941334 1.6986 0
M  V30 10146 O 974.922 -0.0310262 1.94475 0
M  V30 10147 C 975.205 3.39636 1.19664 0
M  V30 10148 C 975.058 4.49651 0.115805 0
M  V30 10149 C 976.377 3.86488 2.10512 0
M  V30 10150 H 973.496 0.703262 0.220436 0
M  V30 10151 H 976.138 1.89583 -0.125785 0
M  V30 10152 H 974.288 3.43015 1.82409 0
M  V30 10153 H 975.96 4.58397 -0.516728 0
M  V30 10154 H 974.203 4.30237 -0.55483 0
M  V30 10155 H 974.874 5.49089 0.566176 0
M  V30 10156 H 977.35 3.85052 1.57715 0
M  V30 10157 H 976.226 4.89444 2.48466 0
M  V30 10158 H 976.487 3.23856 3.00948 0
M  V30 10159 N 975.546 -0.211634 1.56173 0
M  V30 10160 C 976.771 -0.955324 1.84088 0
M  V30 10161 C 977.196 -1.76754 0.643407 0
M  V30 10162 O 976.554 -1.76653 -0.407842 0
M  V30 10163 C 976.602 -1.84063 3.10085 0
M  V30 10164 O 975.706 -2.9373 2.89476 0
M  V30 10165 H 975.047 -0.26996 0.606645 0
M  V30 10166 H 977.577 -0.221947 2.03393 0
M  V30 10167 H 977.587 -2.24852 3.40449 0
M  V30 10168 H 976.262 -1.24373 3.96868 0
M  V30 10169 H 974.839 -2.56816 2.7037 0
M  V30 10170 N 977.024 -1.50153 -0.478725 0
M  V30 10171 C 978.272 -1.60443 -1.22892 0
M  V30 10172 C 978.593 -0.303276 -1.92627 0
M  V30 10173 O 977.863 0.678798 -1.83764 0
M  V30 10174 H 976.443 -0.591205 -0.456602 0
M  V30 10175 H 979.105 -1.86893 -0.552905 0
M  V30 10176 H 978.201 -2.41175 -1.98094 0
M  V30 10177 N 978.502 0.731368 -1.39602 0
M  V30 10178 C 979.432 1.85855 -1.41351 0
M  V30 10179 C 980.413 1.67839 -0.2764 0
M  V30 10180 O 981.598 1.88104 -0.482747 0
M  V30 10181 C 978.728 3.23644 -1.25983 0
M  V30 10182 C 977.682 3.56304 -2.37132 0
M  V30 10183 C 977.008 4.93069 -2.0685 0
M  V30 10184 C 978.308 3.58906 -3.79452 0
M  V30 10185 H 980.002 1.84648 -2.3568 0
M  V30 10186 H 977.548 0.886955 -1.13442 0
M  V30 10187 H 979.501 4.02176 -1.25826 0
M  V30 10188 H 978.225 3.25387 -0.281234 0
M  V30 10189 H 976.884 2.80104 -2.36511 0
M  V30 10190 H 976.532 4.91396 -1.0742 0
M  V30 10191 H 976.232 5.15888 -2.81306 0
M  V30 10192 H 977.756 5.73953 -2.0835 0
M  V30 10193 H 979.17 4.27508 -3.81982 0
M  V30 10194 H 977.567 3.93246 -4.53297 0
M  V30 10195 H 978.637 2.58631 -4.10168 0
M  V30 10196 N 979.98 1.24838 0.961938 0
M  V30 10197 C 981.205 1.11967 1.7458 0
M  V30 10198 C 981.63 -0.323287 1.85301 0
M  V30 10199 O 980.988 -1.23412 1.32812 0
M  V30 10200 C 981.036 1.77066 3.14134 0
M  V30 10201 O 980.14 1.04534 3.98932 0
M  V30 10202 H 979.481 0.391338 0.536424 0
M  V30 10203 H 982.011 1.65259 1.20626 0
M  V30 10204 H 982.021 1.83056 3.64629 0
M  V30 10205 H 980.696 2.82052 3.05646 0
M  V30 10206 H 979.273 1.06372 3.57407 0
M  V30 10207 N 981.458 -1.16348 1.06306 0
M  V30 10208 C 982.735 -1.829 0.69331 0
M  V30 10209 C 983.115 -1.94298 -0.82531 0
M  V30 10210 O 982.463 -1.48619 -1.73565 0
M  V30 10211 C 982.673 -3.1989 1.3954 0
M  V30 10212 C 984.021 -3.95662 1.54068 0
M  V30 10213 O 985.045 -3.29408 1.35532 0
M  V30 10214 O 983.904 -5.14422 1.84479 0
M  V30 10215 H 980.998 -0.789738 0.245445 0
M  V30 10216 H 983.544 -1.23549 1.16334 0
M  V30 10217 H 982.316 -3.06629 2.43093 0
M  V30 10218 H 981.939 -3.86918 0.915453 0
M  V30 10219 N 982.937 -0.845659 -1.3299 0
M  V30 10220 C 983.884 -0.281761 -2.29074 0
M  V30 10221 C 984.854 0.606237 -1.54641 0
M  V30 10222 O 986.039 0.543063 -1.82908 0
M  V30 10223 C 983.179 0.531451 -3.40983 0
M  V30 10224 C 982.292 -0.381328 -4.30314 0
M  V30 10225 C 981.427 0.443643 -5.29344 0
M  V30 10226 C 980.466 -0.467101 -6.10315 0
M  V30 10227 N 979.603 0.320148 -7.0137 0
M  V30 10228 H 984.443 -1.10641 -2.76699 0
M  V30 10229 H 981.98 -0.55706 -1.36144 0
M  V30 10230 H 983.938 1.01848 -4.04577 0
M  V30 10231 H 982.568 1.32101 -2.94532 0
M  V30 10232 H 981.62 -0.986701 -3.6738 0
M  V30 10233 H 982.932 -1.08067 -4.86953 0
M  V30 10234 H 982.086 0.994212 -5.98498 0
M  V30 10235 H 980.825 1.17639 -4.73299 0
M  V30 10236 H 979.83 -1.02963 -5.40073 0
M  V30 10237 H 981.055 -1.19832 -6.68444 0
M  V30 10238 H 979.001 1.03615 -6.47765 0
M  V30 10239 H 978.918 -0.320338 -7.55321 0
M  V30 10240 H 980.186 0.852735 -7.74822 0
M  V30 10241 N 984.415 1.45619 -0.602734 0
M  V30 10242 C 985.362 2.30493 0.118944 0
M  V30 10243 C 986.332 1.41816 0.864723 0
M  V30 10244 O 987.517 1.7075 0.851424 0
M  V30 10245 C 984.657 3.2664 1.11356 0
M  V30 10246 C 983.77 4.3042 0.369161 0
M  V30 10247 C 982.905 5.13678 1.35307 0
M  V30 10248 C 981.944 6.09189 0.596207 0
M  V30 10249 N 981.081 6.85245 1.52916 0
M  V30 10250 H 985.921 2.91672 -0.610836 0
M  V30 10251 H 983.458 1.43731 -0.313032 0
M  V30 10252 H 985.416 3.80846 1.7033 0
M  V30 10253 H 984.046 2.67225 1.81081 0
M  V30 10254 H 983.098 3.78913 -0.335994 0
M  V30 10255 H 984.41 4.98307 -0.221603 0
M  V30 10256 H 983.564 5.7226 2.01502 0
M  V30 10257 H 982.303 4.45798 1.97777 0
M  V30 10258 H 981.308 5.49743 -0.0793984 0
M  V30 10259 H 982.533 6.79096 -0.0233734 0
M  V30 10260 H 980.479 6.20058 2.14159 0
M  V30 10261 H 980.396 7.49467 0.991713 0
M  V30 10262 H 981.664 7.48371 2.18083 0
M  V30 10263 N 985.893 0.34162 1.53853 0
M  V30 10264 C 987.14 -0.255484 2.00882 0
M  V30 10265 C 987.468 -1.50711 1.22949 0
M  V30 10266 O 986.723 -1.93315 0.304625 0
M  V30 10267 C 987.022 -0.616989 3.52034 0
M  V30 10268 C 986.688 0.537536 4.47684 0
M  V30 10269 C 985.35 0.854379 4.73554 0
M  V30 10270 C 987.702 1.31217 5.04412 0
M  V30 10271 C 985.03 1.94826 5.53407 0
M  V30 10272 C 987.382 2.39628 5.85458 0
M  V30 10273 C 986.046 2.71874 6.09623 0
M  V30 10274 H 985.316 -0.0934881 0.735079 0
M  V30 10275 H 987.963 0.469135 1.85665 0
M  V30 10276 H 986.268 -1.42229 3.65073 0
M  V30 10277 H 987.965 -1.09084 3.85878 0
M  V30 10278 H 984.555 0.280524 4.27681 0
M  V30 10279 H 988.739 1.08064 4.84392 0
M  V30 10280 H 983.995 2.20235 5.70356 0
M  V30 10281 H 988.169 3.00084 6.28429 0
M  V30 10282 H 985.796 3.56762 6.71286 0
M  V30 10283 N 987.371 -1.57444 0.0701946 0
M  V30 10284 C 988.303 -2.09611 -0.927142 0
M  V30 10285 C 989.316 -1.02791 -1.26245 0
M  V30 10286 O 990.505 -1.30309 -1.21992 0
M  V30 10287 C 987.605 -2.54015 -2.24342 0
M  V30 10288 C 986.778 -3.84389 -2.08719 0
M  V30 10289 C 985.837 -4.14904 -3.23638 0
M  V30 10290 O 984.863 -4.84528 -2.98699 0
M  V30 10291 N 986.065 -3.68322 -4.48686 0
M  V30 10292 H 988.83 -2.95803 -0.481753 0
M  V30 10293 H 986.391 -1.61487 -0.115572 0
M  V30 10294 H 988.383 -2.71492 -3.00124 0
M  V30 10295 H 986.953 -1.72969 -2.60385 0
M  V30 10296 H 986.173 -3.76308 -1.17415 0
M  V30 10297 H 987.461 -4.69729 -1.9553 0
M  V30 10298 H 986.859 -3.12073 -4.71834 0
M  V30 10299 H 985.416 -3.91002 -5.21499 0
M  V30 10300 N 988.849 0.203349 -1.56283 0
M  V30 10301 C 990.265 0.55384 -1.49682 0
M  V30 10302 C 990.465 1.86261 -0.768701 0
M  V30 10303 O 989.521 2.50517 -0.315824 0
M  V30 10304 C 990.834 0.616216 -2.94318 0
M  V30 10305 C 992.382 0.705611 -3.04943 0
M  V30 10306 C 992.857 0.79917 -4.50974 0
M  V30 10307 N 994.348 0.862916 -4.55091 0
M  V30 10308 C 995.083 0.955334 -5.65386 0
M  V30 10309 N 994.579 1.01057 -6.8539 0
M  V30 10310 N 996.372 0.991884 -5.53279 0
M  V30 10311 H 988.523 -0.655244 -2.0204 0
M  V30 10312 H 990.786 -0.232344 -0.919087 0
M  V30 10313 H 990.492 -0.27619 -3.50614 0
M  V30 10314 H 990.366 1.47371 -3.4722 0
M  V30 10315 H 992.753 1.58845 -2.48701 0
M  V30 10316 H 992.834 -0.177921 -2.5518 0
M  V30 10317 H 992.478 -0.0792841 -5.07838 0
M  V30 10318 H 992.408 1.69838 -4.9846 0
M  V30 10319 H 994.899 0.829812 -3.68677 0
M  V30 10320 H 995.212 1.08137 -7.65197 0
M  V30 10321 H 993.557 0.979384 -6.88065 0
M  V30 10322 H 996.748 0.945514 -4.58451 0
M  V30 10323 H 996.921 1.06045 -6.39264 0
M  V30 10324 N 990.327 1.50405 0.470755 0
M  V30 10325 C 991.738 1.54266 1.05162 0
M  V30 10326 C 992.089 0.346359 1.93119 0
M  V30 10327 O 991.214 -0.540699 2.09536 0
M  V30 10328 C 991.809 2.7956 1.91394 0
M  V30 10329 C 990.368 2.86101 2.44588 0
M  V30 10330 C 989.515 2.48557 1.22941 0
M  V30 10331 H 992.466 1.56665 0.253359 0
M  V30 10332 H 992.487 2.61434 2.76464 0
M  V30 10333 H 991.999 3.66611 1.27351 0
M  V30 10334 H 990.1 2.03403 3.12183 0
M  V30 10335 H 990.213 3.88999 2.79672 0
M  V30 10336 H 988.577 2.01003 1.56429 0
M  V30 10337 H 989.36 3.37916 0.605598 0
M  V30 10338 N 991.805 -0.723954 1.39988 0
M  V30 10339 C 992.737 -1.84859 1.35498 0
M  V30 10340 C 993.75 -1.60681 0.261812 0
M  V30 10341 O 994.939 -1.7071 0.521566 0
M  V30 10342 C 992.039 -3.21103 1.08381 0
M  V30 10343 C 991.212 -3.72546 2.2919 0
M  V30 10344 C 990.271 -4.8738 1.9836 0
M  V30 10345 O 989.297 -5.00467 2.71149 0
M  V30 10346 N 990.499 -5.72566 0.956461 0
M  V30 10347 H 993.264 -1.89212 2.3242 0
M  V30 10348 H 990.825 -0.905152 1.34233 0
M  V30 10349 H 992.817 -3.9551 0.857564 0
M  V30 10350 H 991.387 -3.1195 0.201549 0
M  V30 10351 H 990.607 -2.89365 2.67697 0
M  V30 10352 H 991.895 -4.03652 3.09746 0
M  V30 10353 H 991.293 -5.64595 0.353444 0
M  V30 10354 H 989.85 -6.46993 0.790118 0
M  V30 10355 N 993.283 -1.25346 -0.955304 0
M  V30 10356 C 994.56 -1.00829 -1.67609 0
M  V30 10357 C 994.94 0.465675 -2.059 0
M  V30 10358 O 994.288 1.44287 -1.77182 0
M  V30 10359 C 994.498 -1.94337 -2.89886 0
M  V30 10360 C 995.846 -2.22142 -3.61854 0
M  V30 10361 O 996.87 -1.9209 -2.99967 0
M  V30 10362 O 995.729 -2.73239 -4.73289 0
M  V30 10363 H 992.823 -0.382314 -0.733325 0
M  V30 10364 H 995.369 -1.36498 -1.00829 0
M  V30 10365 H 994.141 -2.93867 -2.58376 0
M  V30 10366 H 993.764 -1.59062 -3.64397 0
M  V30 10367 N 994.761 1.15782 -1.06922 0
M  V30 10368 C 995.693 2.19978 -0.643604 0
M  V30 10369 C 996.706 1.59981 0.301653 0
M  V30 10370 O 997.895 1.78265 0.0916508 0
M  V30 10371 C 994.995 3.38815 0.0757973 0
M  V30 10372 C 994.168 4.28363 -0.884545 0
M  V30 10373 C 993.227 5.25807 -0.203233 0
M  V30 10374 O 992.253 5.62924 -0.842904 0
M  V30 10375 N 993.455 5.70874 1.05279 0
M  V30 10376 H 996.22 2.57112 -1.53992 0
M  V30 10377 H 993.781 1.30855 -0.953344 0
M  V30 10378 H 995.773 4.01052 0.542151 0
M  V30 10379 H 994.343 3.00133 0.874 0
M  V30 10380 H 993.563 3.63292 -1.53012 0
M  V30 10381 H 994.851 4.85067 -1.53581 0
M  V30 10382 H 994.249 5.42822 1.5925 0
M  V30 10383 H 992.806 6.35171 1.46289 0
M  V30 10384 N 996.239 0.8527 1.3254 0
M  V30 10385 C 997.469 0.468363 2.01221 0
M  V30 10386 C 997.877 -0.938966 1.64256 0
M  V30 10387 O 997.22 -1.62387 0.858837 0
M  V30 10388 C 997.282 0.525457 3.55639 0
M  V30 10389 C 996.946 1.89133 4.16026 0
M  V30 10390 C 997.943 2.85652 4.34395 0
M  V30 10391 C 995.628 2.18795 4.52144 0
M  V30 10392 C 997.622 4.09985 4.88048 0
M  V30 10393 C 995.309 3.43381 5.05502 0
M  V30 10394 C 996.307 4.38792 5.23403 0
M  V30 10395 O 995.995 5.61173 5.75622 0
M  V30 10396 H 995.727 0.182712 0.65084 0
M  V30 10397 H 998.281 1.15076 1.70138 0
M  V30 10398 H 996.511 -0.213779 3.86109 0
M  V30 10399 H 998.2 0.156999 4.05596 0
M  V30 10400 H 998.966 2.6404 4.06827 0
M  V30 10401 H 994.845 1.45317 4.37498 0
M  V30 10402 H 998.389 4.84465 5.01936 0
M  V30 10403 H 994.286 3.64844 5.32503 0
M  V30 10404 H 995.054 5.63104 5.94017 0
M  V30 10405 N 997.718 -1.45297 0.610449 0
M  V30 10406 C 999.129 -1.85715 0.191488 0
M  V30 10407 C 999.48 -1.51036 -1.25229 0
M  V30 10408 O 998.605 -0.938422 -1.94994 0
M  V30 10409 C 999.2 -3.37082 0.340747 0
M  V30 10410 C 997.759 -3.76393 -0.0235433 0
M  V30 10411 C 996.906 -2.69237 0.663849 0
M  V30 10412 H 999.857 -1.36058 0.816948 0
M  V30 10413 H 999.878 -3.78105 -0.426233 0
M  V30 10414 H 999.39 -3.62291 1.39164 0
M  V30 10415 H 997.491 -3.56801 -1.07351 0
M  V30 10416 H 997.604 -4.77653 0.372102 0
M  V30 10417 H 995.968 -2.54499 0.101204 0
M  V30 10418 H 996.751 -2.97281 1.71694 0
M  V30 10419 N 999.196 -0.349774 -1.5367 0
M  V30 10420 C 1000.61 0.132815 -1.86227 0
M  V30 10421 C 1000.96 1.49479 -1.27084 0
M  V30 10422 O 1000.08 2.08292 -0.58679 0
M  V30 10423 C 1000.68 0.247775 -3.37893 0
M  V30 10424 C 999.237 0.674603 -3.70305 0
M  V30 10425 C 998.384 -0.187869 -2.76663 0
M  V30 10426 H 1001.33 -0.569148 -1.48143 0
M  V30 10427 H 1001.36 1.07418 -3.65023 0
M  V30 10428 H 1000.87 -0.743635 -3.80909 0
M  V30 10429 H 998.969 1.67481 -3.32837 0
M  V30 10430 H 999.082 0.460177 -4.76885 0
M  V30 10431 H 997.446 0.340779 -2.5241 0
M  V30 10432 H 998.229 -1.17653 -3.2251 0
M  V30 10433 N 1000.67 1.57404 -0.0785433 0
M  V30 10434 C 1001.92 1.93744 0.589024 0
M  V30 10435 C 1002.25 0.959087 1.69209 0
M  V30 10436 O 1001.5 -0.0241604 1.95685 0
M  V30 10437 C 1001.8 3.36684 1.1991 0
M  V30 10438 C 1001.47 4.50356 0.221493 0
M  V30 10439 C 1000.13 4.81177 -0.0474347 0
M  V30 10440 C 1002.48 5.1928 -0.446941 0
M  V30 10441 C 999.811 5.78257 -0.99177 0
M  V30 10442 C 1002.16 6.17372 -1.37964 0
M  V30 10443 C 1000.83 6.46607 -1.65697 0
M  V30 10444 H 1000.1 0.70896 0.215539 0
M  V30 10445 H 1002.74 1.90905 -0.150856 0
M  V30 10446 H 1001.05 3.36022 2.01486 0
M  V30 10447 H 1002.75 3.62095 1.72303 0
M  V30 10448 H 999.336 4.26322 0.441284 0
M  V30 10449 H 1003.52 4.95658 -0.252298 0
M  V30 10450 H 998.776 5.9923 -1.21381 0
M  V30 10451 H 1002.95 6.6988 -1.9035 0
M  V30 10452 H 1000.58 7.21643 -2.39031 0
M  V30 10453 N 1002.15 -0.195058 1.56388 0
M  V30 10454 C 1003.57 -0.545894 1.49974 0
M  V30 10455 C 1003.77 -1.85851 0.778568 0
M  V30 10456 O 1002.82 -2.50346 0.329105 0
M  V30 10457 C 1004.14 -0.600599 2.94641 0
M  V30 10458 C 1005.68 -0.689429 3.05313 0
M  V30 10459 C 1006.16 -0.775243 4.51391 0
M  V30 10460 N 1007.65 -0.838769 4.55542 0
M  V30 10461 C 1008.39 -0.925337 5.65884 0
M  V30 10462 N 1007.88 -0.974204 6.85916 0
M  V30 10463 N 1009.67 -0.962528 5.53798 0
M  V30 10464 H 1001.83 0.66595 2.0169 0
M  V30 10465 H 1004.09 0.237215 0.917842 0
M  V30 10466 H 1003.79 0.29478 3.50462 0
M  V30 10467 H 1003.67 -1.45528 3.47996 0
M  V30 10468 H 1006.06 -1.57524 2.4954 0
M  V30 10469 H 1006.14 0.191451 2.55083 0
M  V30 10470 H 1005.78 0.106215 5.07789 0
M  V30 10471 H 1005.71 -1.67193 4.99354 0
M  V30 10472 H 1008.2 -0.810249 3.69112 0
M  V30 10473 H 1008.51 -1.04077 7.6576 0
M  V30 10474 H 1006.86 -0.942881 6.88574 0
M  V30 10475 H 1010.05 -0.921188 4.58946 0
M  V30 10476 H 1010.22 -1.02653 6.39817 0
M  V30 10477 N 1003.63 -1.50653 -0.462772 0
M  V30 10478 C 1004.88 -1.62057 -1.21424 0
M  V30 10479 C 1005.2 -0.324778 -1.91769 0
M  V30 10480 O 1004.46 0.689828 -1.83139 0
M  V30 10481 C 1004.76 -2.75637 -2.27507 0
M  V30 10482 C 1004.42 -4.15826 -1.74354 0
M  V30 10483 C 1003.09 -4.53969 -1.5958 0
M  V30 10484 C 1005.44 -5.03409 -1.35012 0
M  V30 10485 C 1002.77 -5.77427 -1.03899 0
M  V30 10486 C 1005.12 -6.27422 -0.807704 0
M  V30 10487 C 1003.78 -6.6436 -0.646657 0
M  V30 10488 H 1003.05 -0.59301 -0.44432 0
M  V30 10489 H 1005.7 -1.84612 -0.508999 0
M  V30 10490 H 1004 -2.47203 -3.0397 0
M  V30 10491 H 1005.7 -2.81663 -2.85424 0
M  V30 10492 H 1002.29 -3.85739 -1.86823 0
M  V30 10493 H 1006.48 -4.74567 -1.45258 0
M  V30 10494 H 1001.73 -6.04713 -0.901751 0
M  V30 10495 H 1005.91 -6.94644 -0.494234 0
M  V30 10496 H 1003.53 -7.59901 -0.213053 0
M  V30 10497 N 1005.11 0.71652 -1.4037 0
M  V30 10498 C 1006.36 1.47347 -1.38324 0
M  V30 10499 C 1006.68 1.94995 0.0139949 0
M  V30 10500 O 1005.95 1.7028 0.968585 0
M  V30 10501 H 1004.53 0.546662 -0.509087 0
M  V30 10502 H 1007.19 0.849455 -1.75415 0
M  V30 10503 H 1006.29 2.34675 -2.05752 0
M  V30 10504 N 1006.59 1.25851 0.948643 0
M  V30 10505 C 1007.81 1.13711 1.72851 0
M  V30 10506 C 1008.23 -0.308471 1.86263 0
M  V30 10507 O 1007.59 -1.21175 1.36465 0
M  V30 10508 C 1007.64 1.79271 3.13918 0
M  V30 10509 O 1007.36 3.18179 3.01154 0
M  V30 10510 C 1008.86 1.72988 4.08154 0
M  V30 10511 H 1006.08 0.396334 0.541443 0
M  V30 10512 H 1008.62 1.66329 1.18974 0
M  V30 10513 H 1006.78 1.30609 3.64719 0
M  V30 10514 H 1007.19 3.50507 3.90186 0
M  V30 10515 H 1008.67 2.2351 5.04725 0
M  V30 10516 H 1009.14 0.694866 4.33668 0
M  V30 10517 H 1009.75 2.21166 3.63271 0
M  V30 10518 N 1008.06 -1.15214 1.07534 0
M  V30 10519 C 1009.31 -1.86319 0.800814 0
M  V30 10520 C 1009.64 -1.82221 -0.671494 0
M  V30 10521 O 1008.92 -1.24664 -1.49295 0
M  V30 10522 C 1009.2 -3.35347 1.31203 0
M  V30 10523 C 1009.05 -3.48067 2.84902 0
M  V30 10524 C 1010.37 -4.3016 0.930064 0
M  V30 10525 H 1007.49 -0.676523 0.292379 0
M  V30 10526 H 1010.13 -1.35349 1.33344 0
M  V30 10527 H 1008.28 -3.78886 0.858949 0
M  V30 10528 H 1009.96 -3.13379 3.38514 0
M  V30 10529 H 1008.2 -2.89566 3.23008 0
M  V30 10530 H 1008.87 -4.52782 3.15741 0
M  V30 10531 H 1011.35 -3.94591 1.3205 0
M  V30 10532 H 1010.22 -5.32914 1.31507 0
M  V30 10533 H 1010.48 -4.41796 -0.163824 0
M  V30 10534 N 1009.54 -0.859717 -1.32086 0
M  V30 10535 C 1010.95 -0.519529 -1.79326 0
M  V30 10536 C 1011.3 0.96295 -1.70944 0
M  V30 10537 O 1010.43 1.75139 -1.27104 0
M  V30 10538 C 1011.02 -0.936267 -3.25606 0
M  V30 10539 C 1009.58 -0.647899 -3.70782 0
M  V30 10540 C 1008.73 -1.13323 -2.53087 0
M  V30 10541 H 1011.68 -1.04643 -1.19312 0
M  V30 10542 H 1011.7 -0.254714 -3.79646 0
M  V30 10543 H 1011.21 -2.01527 -3.31675 0
M  V30 10544 H 1009.32 0.420172 -3.70223 0
M  V30 10545 H 1009.43 -1.21774 -4.63366 0
M  V30 10546 H 1007.79 -0.553325 -2.48617 0
M  V30 10547 H 1008.58 -2.21945 -2.61907 0
M  V30 10548 N 1011.02 1.44971 -0.618145 0
M  V30 10549 C 1011.97 2.32354 0.106846 0
M  V30 10550 C 1012.96 1.4659 0.848984 0
M  V30 10551 O 1014.17 1.63012 0.763354 0
M  V30 10552 H 1010.54 0.750108 0.0533109 0
M  V30 10553 H 1012.51 2.9127 -0.648426 0
M  V30 10554 C 1011.26 3.30381 1.08368 0
M  V30 10555 H 1010.59 3.96377 0.52205 0
M  V30 10556 H 1012.03 3.94231 1.56069 0
M  V30 10557 C 1010.49 2.58336 2.1625 0
M  V30 10558 O 1011.02 2.37258 3.24148 0
M  V30 10559 N 1009.22 2.18292 1.91825 0
M  V30 10560 H 1008.77 2.35635 1.04086 0
M  V30 10561 H 1008.73 1.70413 2.6421 0
M  V30 10562 N 1012.5 0.357919 1.53482 0
M  V30 10563 C 1013.75 -0.2337 2.00744 0
M  V30 10564 C 1014.07 -1.49908 1.2471 0
M  V30 10565 O 1013.34 -1.92597 0.358235 0
M  V30 10566 H 1011.92 -0.0893474 0.741637 0
M  V30 10567 H 1014.58 0.482388 1.88836 0
M  V30 10568 H 1013.68 -0.466073 3.086 0
M  V30 10569 N 1013.98 -1.5736 0.0868897 0
M  V30 10570 C 1015.2 -1.98809 -0.590757 0
M  V30 10571 C 1015.63 -0.965407 -1.61436 0
M  V30 10572 O 1014.98 0.067143 -1.81176 0
M  V30 10573 C 1015.03 -3.39249 -1.22238 0
M  V30 10574 O 1014.14 -3.39706 -2.33824 0
M  V30 10575 H 1013.48 -0.64669 -0.150626 0
M  V30 10576 H 1016.01 -2.03927 0.165873 0
M  V30 10577 H 1016.02 -3.76765 -1.56564 0
M  V30 10578 H 1014.69 -4.13208 -0.472434 0
M  V30 10579 H 1013.27 -3.13977 -2.01178 0
M  V30 10580 N 1015.45 0.186762 -1.56489 0
M  V30 10581 C 1016.68 0.921832 -1.85229 0
M  V30 10582 C 1017.1 1.76496 -0.670416 0
M  V30 10583 O 1016.45 1.78899 0.360758 0
M  V30 10584 C 1016.51 1.81121 -3.12854 0
M  V30 10585 O 1016.23 1.00211 -4.26485 0
M  V30 10586 C 1017.73 2.65725 -3.54831 0
M  V30 10587 H 1014.95 0.268563 -0.61491 0
M  V30 10588 H 1017.49 0.191505 -2.03601 0
M  V30 10589 H 1015.65 2.49506 -2.96354 0
M  V30 10590 H 1016.06 1.60893 -4.99213 0
M  V30 10591 H 1017.53 3.23771 -4.47075 0
M  V30 10592 H 1018.01 3.39843 -2.78215 0
M  V30 10593 H 1018.62 2.02698 -3.7389 0
M  V30 10594 N 1016.93 1.50896 0.454776 0
M  V30 10595 C 1017.84 1.73762 1.5762 0
M  V30 10596 C 1018.86 0.621206 1.62533 0
M  V30 10597 O 1020.03 0.901449 1.801 0
M  V30 10598 C 1017.1 1.84183 2.9373 0
M  V30 10599 C 1016.16 3.07982 2.99075 0
M  V30 10600 C 1015.39 3.17896 4.28693 0
M  V30 10601 O 1015.62 2.34184 5.20109 0
M  V30 10602 O 1014.55 4.10749 4.39964 0
M  V30 10603 H 1018.38 2.68856 1.41245 0
M  V30 10604 H 1015.96 1.35187 0.635984 0
M  V30 10605 H 1017.84 1.93123 3.74542 0
M  V30 10606 H 1016.52 0.922742 3.10269 0
M  V30 10607 H 1015.43 3.04531 2.17282 0
M  V30 10608 H 1016.76 3.99523 2.87476 0
M  V30 10609 N 1018.41 -0.709066 1.40748 0
M  V30 10610 C 1019.83 -1.01797 1.22921 0
M  V30 10611 C 1020.03 -2.01205 0.109011 0
M  V30 10612 O 1019.08 -2.46854 -0.530987 0
M  V30 10613 C 1020.4 -1.55546 2.57344 0
M  V30 10614 C 1021.94 -1.67498 2.64412 0
M  V30 10615 C 1022.42 -2.24652 3.99119 0
M  V30 10616 N 1023.91 -2.3203 4.00895 0
M  V30 10617 C 1024.64 -2.7725 5.01917 0
M  V30 10618 N 1024.14 -3.22174 6.13332 0
M  V30 10619 N 1025.93 -2.76692 4.89283 0
M  V30 10620 H 1018.08 -0.0502704 2.12341 0
M  V30 10621 H 1020.35 -0.0848933 0.944191 0
M  V30 10622 H 1020.05 -0.899631 3.39999 0
M  V30 10623 H 1019.93 -2.53971 2.78888 0
M  V30 10624 H 1022.31 -2.32196 1.82123 0
M  V30 10625 H 1022.4 -0.676553 2.46691 0
M  V30 10626 H 1022.04 -1.60573 4.81849 0
M  V30 10627 H 1021.97 -3.25221 4.14173 0
M  V30 10628 H 1024.46 -2.00309 3.20444 0
M  V30 10629 H 1024.77 -3.55265 6.86299 0
M  V30 10630 H 1023.12 -3.20116 6.16888 0
M  V30 10631 H 1026.31 -2.40936 4.01332 0
M  V30 10632 H 1026.48 -3.11617 5.68154 0
M  V30 10633 N 1019.89 -1.26353 -0.941956 0
M  V30 10634 C 1020.84 -1.07654 -2.06188 0
M  V30 10635 C 1021.83 -0.00369741 -1.694 0
M  V30 10636 O 1023.04 -0.160316 -1.79285 0
M  V30 10637 H 1019.41 -0.331274 -0.675101 0
M  V30 10638 H 1021.38 -2.02566 -2.19111 0
M  V30 10639 C 1020.13 -0.725436 -3.40048 0
M  V30 10640 H 1019.46 -1.54283 -3.68832 0
M  V30 10641 H 1020.9 -0.634383 -4.19227 0
M  V30 10642 C 1019.35 0.569369 -3.32054 0
M  V30 10643 O 1019.88 1.60791 -3.68116 0
M  V30 10644 N 1018.09 0.559714 -2.85159 0
M  V30 10645 H 1017.64 -0.285817 -2.56009 0
M  V30 10646 H 1017.6 1.42617 -2.80193 0
M  V30 10647 N 1021.37 1.14642 -1.08144 0
M  V30 10648 C 1022.62 1.84964 -0.804437 0
M  V30 10649 C 1022.93 1.8369 0.672106 0
M  V30 10650 O 1024.14 2.49775 1.06417 0
M  V30 10651 C 1022.59 3.32015 -1.38904 0
M  V30 10652 C 1022.2 3.41713 -2.89718 0
M  V30 10653 C 1023.94 4.07467 -1.19041 0
M  V30 10654 C 1021.85 4.82958 -3.41329 0
M  V30 10655 H 1020.78 0.692932 -0.297256 0
M  V30 10656 H 1023.43 1.29255 -1.30251 0
M  V30 10657 H 1021.81 3.87445 -0.818679 0
M  V30 10658 H 1022.99 2.96347 -3.52867 0
M  V30 10659 H 1021.3 2.79713 -3.08463 0
M  V30 10660 H 1023.9 5.1172 -1.55069 0
M  V30 10661 H 1024.24 4.16097 -0.130027 0
M  V30 10662 H 1024.78 3.58329 -1.72757 0
M  V30 10663 H 1021.51 4.79515 -4.46929 0
M  V30 10664 H 1021.03 5.28873 -2.82937 0
M  V30 10665 H 1022.71 5.51841 -3.37759 0
M  V30 10666 N 1022.85 0.866709 1.31628 0
M  V30 10667 C 1024.26 0.558188 1.49521 0
M  V30 10668 C 1024.46 -0.90844 1.7986 0
M  V30 10669 O 1023.52 -1.6908 1.87531 0
M  V30 10670 C 1024.83 1.45559 2.63122 0
M  V30 10671 C 1026.38 1.45728 2.77006 0
M  V30 10672 C 1026.85 2.34017 3.937 0
M  V30 10673 N 1028.34 2.31879 4.00982 0
M  V30 10674 C 1029.08 2.96915 4.90539 0
M  V30 10675 N 1028.58 3.71109 5.85021 0
M  V30 10676 N 1030.37 2.86241 4.83759 0
M  V30 10677 H 1022.52 1.81574 1.10203 0
M  V30 10678 H 1024.78 0.77621 0.544244 0
M  V30 10679 H 1024.49 2.49904 2.47469 0
M  V30 10680 H 1024.36 1.15174 3.59186 0
M  V30 10681 H 1026.75 0.421419 2.92075 0
M  V30 10682 H 1026.83 1.80134 1.81619 0
M  V30 10683 H 1026.47 3.37678 3.79389 0
M  V30 10684 H 1026.4 1.96937 4.88388 0
M  V30 10685 H 1028.9 1.77948 3.33381 0
M  V30 10686 H 1029.21 4.1787 6.5008 0
M  V30 10687 H 1027.55 3.75217 5.8501 0
M  V30 10688 H 1030.74 2.27819 4.08921 0
M  V30 10689 H 1030.92 3.37206 5.5335 0
M  V30 10690 N 1024.32 -1.44642 0.625825 0
M  V30 10691 C 1025.55 -2.06971 0.133373 0
M  V30 10692 C 1025.97 -1.46421 -1.18078 0
M  V30 10693 O 1025.33 -0.563676 -1.72315 0
M  V30 10694 C 1025.38 -3.6059 0.0265097 0
M  V30 10695 O 1024.48 -3.99615 -1.01889 0
M  V30 10696 H 1023.82 -0.658873 0.0823568 0
M  V30 10697 H 1026.35 -1.85601 0.861002 0
M  V30 10698 H 1026.36 -4.07663 -0.1658 0
M  V30 10699 H 1025.04 -4.04043 0.985986 0
M  V30 10700 H 1023.62 -3.64183 -0.801577 0
M  V30 10701 N 1025.8 -0.366053 -1.5329 0
M  V30 10702 C 1026.75 0.495319 -2.27265 0
M  V30 10703 C 1027.74 1.08298 -1.30261 0
M  V30 10704 O 1028.95 1.02613 -1.47887 0
M  V30 10705 H 1025.32 0.178454 -0.730519 0
M  V30 10706 H 1027.3 -0.150354 -2.98021 0
M  V30 10707 C 1026.04 1.62283 -3.07505 0
M  V30 10708 H 1025.37 1.17993 -3.81992 0
M  V30 10709 H 1026.81 2.20024 -3.62444 0
M  V30 10710 C 1025.27 2.56542 -2.18375 0
M  V30 10711 O 1025.8 3.59371 -1.79486 0
M  V30 10712 N 1024 2.25742 -1.82999 0
M  V30 10713 H 1023.55 1.42159 -2.14822 0
M  V30 10714 H 1023.51 2.89064 -1.2365 0
M  V30 10715 N 1027.28 1.57312 -0.0952337 0
M  V30 10716 C 1028.51 1.98409 0.575984 0
M  V30 10717 C 1028.92 0.973168 1.62253 0
M  V30 10718 O 1028.26 -0.0454416 1.83644 0
M  V30 10719 C 1028.32 3.35877 1.28167 0
M  V30 10720 C 1027.99 4.55368 0.385868 0
M  V30 10721 C 1028.98 5.1861 -0.366041 0
M  V30 10722 C 1026.67 5.0138 0.303885 0
M  V30 10723 C 1028.66 6.26233 -1.18791 0
M  V30 10724 C 1026.35 6.0887 -0.521637 0
M  V30 10725 C 1027.35 6.71161 -1.26618 0
M  V30 10726 O 1027.04 7.76577 -2.07804 0
M  V30 10727 H 1026.77 0.657018 0.159068 0
M  V30 10728 H 1029.32 2.04685 -0.171237 0
M  V30 10729 H 1027.55 3.26284 2.07547 0
M  V30 10730 H 1029.24 3.6142 1.84744 0
M  V30 10731 H 1030.01 4.83993 -0.312435 0
M  V30 10732 H 1025.89 4.52657 0.873065 0
M  V30 10733 H 1029.43 6.74784 -1.76955 0
M  V30 10734 H 1025.33 6.42918 -0.576722 0
M  V30 10735 H 1026.09 7.93566 -2.00489 0
M  V30 10736 N 1028.76 -0.17846 1.56586 0
M  V30 10737 C 1030.17 -0.529957 1.50544 0
M  V30 10738 C 1030.37 -1.85015 0.798237 0
M  V30 10739 O 1029.43 -2.49983 0.355639 0
M  V30 10740 C 1030.74 -0.569314 2.95261 0
M  V30 10741 C 1032.29 -0.657008 3.06027 0
M  V30 10742 C 1032.77 -0.727323 4.52188 0
M  V30 10743 N 1034.26 -0.790406 4.56406 0
M  V30 10744 C 1034.99 -0.865265 5.66834 0
M  V30 10745 N 1034.49 -0.901398 6.86911 0
M  V30 10746 N 1036.28 -0.903736 5.54787 0
M  V30 10747 H 1028.43 0.687304 2.00972 0
M  V30 10748 H 1030.69 0.246936 0.915274 0
M  V30 10749 H 1030.4 0.331934 3.5013 0
M  V30 10750 H 1030.27 -1.41828 3.4952 0
M  V30 10751 H 1032.66 -1.54868 2.51197 0
M  V30 10752 H 1032.74 0.218495 2.54865 0
M  V30 10753 H 1032.39 0.160067 5.07648 0
M  V30 10754 H 1032.32 -1.61887 5.01099 0
M  V30 10755 H 1034.81 -0.771054 3.6995 0
M  V30 10756 H 1035.12 -0.959494 7.6682 0
M  V30 10757 H 1033.47 -0.869795 6.89536 0
M  V30 10758 H 1036.66 -0.872459 4.59898 0
M  V30 10759 H 1036.83 -0.958615 6.4087 0
M  V30 10760 N 1030.24 -1.51135 -0.446768 0
M  V30 10761 C 1031.51 -1.5387 -1.20762 0
M  V30 10762 C 1031.89 -0.297446 -2.08994 0
M  V30 10763 O 1031.24 0.717975 -2.16927 0
M  V30 10764 C 1031.45 -2.84767 -2.01764 0
M  V30 10765 C 1032.8 -3.3636 -2.59128 0
M  V30 10766 O 1033.82 -2.86254 -2.11984 0
M  V30 10767 O 1032.68 -4.23765 -3.45088 0
M  V30 10768 H 1029.78 -0.618228 -0.549293 0
M  V30 10769 H 1032.32 -1.63442 -0.456605 0
M  V30 10770 H 1031.09 -3.6657 -1.36901 0
M  V30 10771 H 1030.72 -2.78313 -2.8395 0
M  V30 10772 N 1031.71 0.701592 -1.41122 0
M  V30 10773 C 1032.65 1.8257 -1.36907 0
M  V30 10774 C 1033.62 1.6086 -0.237245 0
M  V30 10775 O 1034.81 1.83688 -0.423182 0
M  V30 10776 C 1031.94 3.19149 -1.13408 0
M  V30 10777 C 1030.98 3.59661 -2.29229 0
M  V30 10778 S 1031.81 3.65161 -3.91685 0
M  V30 10779 C 1032.97 5.04477 -3.70478 0
M  V30 10780 H 1033.2 1.85867 -2.32036 0
M  V30 10781 H 1030.74 0.869726 -1.27574 0
M  V30 10782 H 1032.69 3.97998 -1.00537 0
M  V30 10783 H 1031.36 3.13468 -0.199099 0
M  V30 10784 H 1030.55 4.58866 -2.08466 0
M  V30 10785 H 1030.15 2.88105 -2.38477 0
M  V30 10786 H 1032.44 5.91803 -3.29811 0
M  V30 10787 H 1033.39 5.3028 -4.69264 0
M  V30 10788 H 1033.79 4.75731 -3.03876 0
M  V30 10789 N 1033.19 1.2685 0.935242 0
M  V30 10790 C 1034.14 1.05586 2.02078 0
M  V30 10791 C 1035.13 -0.013699 1.60894 0
M  V30 10792 O 1036.32 0.203956 1.75821 0
M  V30 10793 C 1033.45 0.697118 3.36148 0
M  V30 10794 C 1032.53 1.80444 3.83798 0
M  V30 10795 N 1032.92 3.04283 4.04037 0
M  V30 10796 C 1031.22 1.68939 4.12766 0
M  V30 10797 C 1031.92 3.7629 4.436 0
M  V30 10798 N 1030.9 3.04011 4.50642 0
M  V30 10799 H 1034.7 1.99577 2.15746 0
M  V30 10800 H 1032.21 1.17455 1.12153 0
M  V30 10801 H 1034.21 0.525915 4.1357 0
M  V30 10802 H 1032.87 -0.235247 3.23847 0
M  V30 10803 H 1033.88 3.40125 3.90558 0
M  V30 10804 H 1030.56 0.827341 4.0922 0
M  V30 10805 H 1031.95 4.82687 4.67401 0
M  V30 10806 N 1034.67 -1.14067 1.0875 0
M  V30 10807 C 1035.9 -1.89041 0.840902 0
M  V30 10808 C 1036.31 -1.78768 -0.60725 0
M  V30 10809 O 1035.67 -1.14945 -1.41753 0
M  V30 10810 C 1035.72 -3.38891 1.25838 0
M  V30 10811 O 1035.44 -3.48886 2.64972 0
M  V30 10812 C 1036.94 -4.30852 1.04315 0
M  V30 10813 H 1034.16 -0.598685 0.303014 0
M  V30 10814 H 1036.71 -1.44438 1.44769 0
M  V30 10815 H 1034.86 -3.81103 0.695627 0
M  V30 10816 H 1035.28 -4.41989 2.82393 0
M  V30 10817 H 1036.75 -5.34353 1.38461 0
M  V30 10818 H 1037.23 -4.39196 -0.0195784 0
M  V30 10819 H 1037.83 -3.944 1.59151 0
M  V30 10820 N 1036.15 -0.873678 -1.31166 0
M  V30 10821 C 1037.1 -0.303699 -2.25968 0
M  V30 10822 C 1038.08 0.561387 -1.50789 0
M  V30 10823 O 1039.27 0.407658 -1.72242 0
M  V30 10824 C 1036.4 0.490612 -3.39776 0
M  V30 10825 C 1035.49 -0.387927 -4.22322 0
M  V30 10826 N 1035.88 -1.48313 -4.83567 0
M  V30 10827 C 1034.18 -0.18102 -4.45632 0
M  V30 10828 C 1034.88 -2.0252 -5.45308 0
M  V30 10829 N 1033.86 -1.32169 -5.27288 0
M  V30 10830 H 1037.66 -1.14071 -2.7086 0
M  V30 10831 H 1035.17 -0.721843 -1.45476 0
M  V30 10832 H 1037.17 0.9155 -4.06724 0
M  V30 10833 H 1035.83 1.32519 -2.96427 0
M  V30 10834 H 1036.84 -1.86604 -4.83114 0
M  V30 10835 H 1033.52 0.617304 -4.12911 0
M  V30 10836 H 1034.91 -2.94429 -6.03955 0
M  V30 10837 N 1037.63 1.44308 -0.633487 0
M  V30 10838 C 1038.56 2.27887 0.119397 0
M  V30 10839 C 1039.54 1.38676 0.848981 0
M  V30 10840 O 1040.72 1.68116 0.85259 0
M  V30 10841 C 1037.85 3.17658 1.17521 0
M  V30 10842 C 1036.89 4.22992 0.54589 0
M  V30 10843 S 1037.73 5.31345 -0.6658 0
M  V30 10844 C 1038.88 6.24684 0.389965 0
M  V30 10845 H 1039.12 2.91394 -0.589638 0
M  V30 10846 H 1036.65 1.48529 -0.421727 0
M  V30 10847 H 1038.61 3.69929 1.77941 0
M  V30 10848 H 1037.27 2.53367 1.85645 0
M  V30 10849 H 1036.46 4.85828 1.34115 0
M  V30 10850 H 1036.06 3.73996 0.0162506 0
M  V30 10851 H 1038.36 6.65645 1.26185 0
M  V30 10852 H 1039.3 7.07809 -0.202878 0
M  V30 10853 H 1039.71 5.59929 0.716922 0
M  V30 10854 N 1039.1 0.374177 1.53094 0
M  V30 10855 C 1040.35 -0.213131 2.01677 0
M  V30 10856 C 1040.68 -1.47715 1.26071 0
M  V30 10857 O 1039.96 -1.91199 0.356834 0
M  V30 10858 C 1040.24 -0.496392 3.56662 0
M  V30 10859 C 1040.09 0.781859 4.42953 0
M  V30 10860 C 1041.41 -1.29339 4.20666 0
M  V30 10861 H 1038.53 -0.0759885 0.733072 0
M  V30 10862 H 1041.17 0.500765 1.83282 0
M  V30 10863 H 1039.32 -1.10455 3.72467 0
M  V30 10864 H 1041 1.41914 4.38928 0
M  V30 10865 H 1039.24 1.40041 4.10574 0
M  V30 10866 H 1039.91 0.538508 5.49367 0
M  V30 10867 H 1042.39 -0.778848 4.08746 0
M  V30 10868 H 1041.26 -1.46033 5.29118 0
M  V30 10869 H 1041.52 -2.30435 3.77296 0
M  V30 10870 N 1040.58 -1.57259 0.103575 0
M  V30 10871 C 1041.53 -2.14487 -0.852295 0
M  V30 10872 C 1042.5 -1.06567 -1.27407 0
M  V30 10873 O 1043.68 -1.34398 -1.35432 0
M  V30 10874 C 1040.82 -2.73632 -2.10284 0
M  V30 10875 C 1039.94 -3.95811 -1.73083 0
M  V30 10876 C 1039.07 -4.43093 -2.92988 0
M  V30 10877 C 1038.11 -5.5784 -2.51953 0
M  V30 10878 N 1037.25 -5.99936 -3.64721 0
M  V30 10879 H 1042.09 -2.95849 -0.35743 0
M  V30 10880 H 1039.63 -1.46175 -0.164748 0
M  V30 10881 H 1041.58 -3.06046 -2.83534 0
M  V30 10882 H 1040.21 -1.94985 -2.57256 0
M  V30 10883 H 1039.27 -3.69656 -0.897688 0
M  V30 10884 H 1040.58 -4.79066 -1.38916 0
M  V30 10885 H 1039.73 -4.77335 -3.74481 0
M  V30 10886 H 1038.47 -3.58756 -3.30372 0
M  V30 10887 H 1037.48 -5.23217 -1.6889 0
M  V30 10888 H 1038.7 -6.43932 -2.15705 0
M  V30 10889 H 1036.65 -5.18543 -4.01807 0
M  V30 10890 H 1036.56 -6.78008 -3.34427 0
M  V30 10891 H 1037.83 -6.38812 -4.46699 0
M  V30 10892 N 1042.06 0.170153 -1.56679 0
M  V30 10893 C 1043.31 0.886592 -1.8206 0
M  V30 10894 C 1043.64 1.82194 -0.680839 0
M  V30 10895 O 1042.89 1.92866 0.331822 0
M  V30 10896 C 1043.19 1.71402 -3.13618 0
M  V30 10897 C 1042.86 0.927489 -4.41258 0
M  V30 10898 C 1041.52 0.710417 -4.75927 0
M  V30 10899 C 1043.87 0.375855 -5.19843 0
M  V30 10900 C 1041.2 -0.0693691 -5.86659 0
M  V30 10901 C 1043.55 -0.390849 -6.31391 0
M  V30 10902 C 1042.21 -0.61871 -6.64626 0
M  V30 10903 H 1041.48 0.324427 -0.666204 0
M  V30 10904 H 1044.13 0.151464 -1.909 0
M  V30 10905 H 1042.44 2.51858 -3.00125 0
M  V30 10906 H 1044.13 2.27141 -3.30466 0
M  V30 10907 H 1040.72 1.10672 -4.14065 0
M  V30 10908 H 1044.91 0.530897 -4.93452 0
M  V30 10909 H 1040.16 -0.255637 -6.10865 0
M  V30 10910 H 1044.34 -0.825544 -6.9149 0
M  V30 10911 H 1041.96 -1.22482 -7.50268 0
M  V30 10912 N 1043.54 1.5137 0.438746 0
M  V30 10913 C 1044.49 1.73154 1.55308 0
M  V30 10914 C 1045.48 0.597825 1.58501 0
M  V30 10915 O 1046.69 0.77917 1.62262 0
M  V30 10916 H 1043.06 0.547083 0.51595 0
M  V30 10917 H 1045.03 2.66566 1.34108 0
M  V30 10918 C 1043.78 1.87242 2.92977 0
M  V30 10919 H 1043.1 2.73884 2.91252 0
M  V30 10920 H 1044.54 2.06497 3.70317 0
M  V30 10921 C 1043 0.631887 3.30921 0
M  V30 10922 O 1043.53 -0.214099 4.01129 0
M  V30 10923 N 1041.74 0.47639 2.86669 0
M  V30 10924 H 1041.29 1.16589 2.29706 0
M  V30 10925 H 1041.24 -0.352403 3.12419 0
M  V30 10926 N 1045.02 -0.694098 1.41492 0
M  V30 10927 C 1045.95 -1.81943 1.39389 0
M  V30 10928 C 1046.96 -1.6009 0.295836 0
M  V30 10929 O 1048.15 -1.69565 0.557658 0
M  V30 10930 C 1045.25 -3.18731 1.15167 0
M  V30 10931 C 1044.42 -3.67601 2.37041 0
M  V30 10932 C 1043.48 -4.83063 2.08654 0
M  V30 10933 O 1042.51 -4.94603 2.81704 0
M  V30 10934 N 1043.71 -5.70409 1.0777 0
M  V30 10935 H 1046.48 -1.84239 2.36381 0
M  V30 10936 H 1044.04 -0.876475 1.36123 0
M  V30 10937 H 1046.03 -3.93602 0.941264 0
M  V30 10938 H 1044.6 -3.11452 0.267673 0
M  V30 10939 H 1043.82 -2.83622 2.73774 0
M  V30 10940 H 1045.11 -3.96991 3.18239 0
M  V30 10941 H 1044.5 -5.63718 0.473123 0
M  V30 10942 H 1043.06 -6.45172 0.927177 0
M  V30 10943 N 1046.49 -1.27344 -0.928501 0
M  V30 10944 C 1047.91 -1.04732 -1.2043 0
M  V30 10945 C 1048.11 0.219623 -2.003 0
M  V30 10946 O 1047.17 0.925333 -2.34934 0
M  V30 10947 C 1048.48 -2.28625 -1.95323 0
M  V30 10948 C 1050.03 -2.33655 -2.08265 0
M  V30 10949 C 1050.5 -3.57275 -2.86563 0
M  V30 10950 N 1051.99 -3.57828 -2.94132 0
M  V30 10951 C 1052.73 -4.50152 -3.55177 0
M  V30 10952 N 1052.22 -5.52779 -4.17621 0
M  V30 10953 N 1054.02 -4.37777 -3.52573 0
M  V30 10954 H 1046.17 -2.08697 -0.394892 0
M  V30 10955 H 1048.43 -0.91782 -0.2373 0
M  V30 10956 H 1048.14 -3.20845 -1.44054 0
M  V30 10957 H 1048.01 -2.33878 -2.95941 0
M  V30 10958 H 1050.4 -1.41942 -2.58721 0
M  V30 10959 H 1050.48 -2.32406 -1.0687 0
M  V30 10960 H 1050.12 -4.49325 -2.3679 0
M  V30 10961 H 1050.05 -3.55775 -3.88242 0
M  V30 10962 H 1052.54 -2.83607 -2.49751 0
M  V30 10963 H 1052.86 -6.19394 -4.62137 0
M  V30 10964 H 1051.2 -5.56622 -4.16169 0
M  V30 10965 H 1054.39 -3.56811 -3.02991 0
M  V30 10966 H 1054.57 -5.09919 -3.99858 0
M  V30 10967 N 1047.97 1.13488 -1.09353 0
M  V30 10968 C 1049.2 1.89133 -0.85108 0
M  V30 10969 C 1049.62 1.78542 0.591976 0
M  V30 10970 O 1048.98 1.13243 1.41583 0
M  V30 10971 C 1049.03 3.36736 -1.29001 0
M  V30 10972 O 1048.13 4.09959 -0.447993 0
M  V30 10973 H 1047.47 0.58809 -0.308296 0
M  V30 10974 H 1050 1.43593 -1.45747 0
M  V30 10975 H 1050.01 3.87564 -1.27508 0
M  V30 10976 H 1048.69 3.43762 -2.34095 0
M  V30 10977 H 1047.27 3.69155 -0.52717 0
M  V30 10978 N 1049.45 0.880621 1.30701 0
M  V30 10979 C 1050.7 0.497611 1.966 0
M  V30 10980 C 1051.03 -0.949901 1.69383 0
M  V30 10981 O 1050.31 -1.67054 0.996152 0
M  V30 10982 C 1050.59 0.767919 3.51817 0
M  V30 10983 C 1050.44 2.26574 3.88567 0
M  V30 10984 C 1051.76 0.241502 4.39437 0
M  V30 10985 H 1048.88 0.182267 0.714106 0
M  V30 10986 H 1051.52 1.10382 1.54648 0
M  V30 10987 H 1049.67 0.251967 3.87682 0
M  V30 10988 H 1051.34 2.84977 3.62748 0
M  V30 10989 H 1049.59 2.73411 3.36792 0
M  V30 10990 H 1050.26 2.40549 4.9683 0
M  V30 10991 H 1052.73 0.683051 4.10455 0
M  V30 10992 H 1051.61 0.459997 5.46969 0
M  V30 10993 H 1051.87 -0.857068 4.33713 0
M  V30 10994 N 1050.93 -1.4397 0.641131 0
M  V30 10995 C 1051.84 -2.34526 -0.058742 0
M  V30 10996 C 1052.86 -1.53194 -0.825088 0
M  V30 10997 O 1054.03 -1.85888 -0.775081 0
M  V30 10998 C 1051.1 -3.31313 -1.02139 0
M  V30 10999 C 1050.16 -4.28552 -0.253319 0
M  V30 11000 C 1049.39 -5.20715 -1.17012 0
M  V30 11001 O 1049.61 -5.17028 -2.40911 0
M  V30 11002 O 1048.55 -5.9839 -0.649039 0
M  V30 11003 H 1052.37 -2.95843 0.686329 0
M  V30 11004 H 1049.96 -1.43909 0.401316 0
M  V30 11005 H 1051.84 -3.90862 -1.57496 0
M  V30 11006 H 1050.52 -2.72516 -1.7469 0
M  V30 11007 H 1049.42 -3.72519 0.343531 0
M  V30 11008 H 1050.76 -4.90297 0.432372 0
M  V30 11009 N 1052.41 -0.382291 -1.52893 0
M  V30 11010 C 1053.68 0.259354 -1.93873 0
M  V30 11011 C 1054.06 1.64964 -1.3172 0
M  V30 11012 O 1053.41 2.23345 -0.482611 0
M  V30 11013 C 1053.62 0.292765 -3.4777 0
M  V30 11014 C 1054.97 0.525095 -4.21341 0
M  V30 11015 O 1055.99 0.373272 -3.54239 0
M  V30 11016 O 1054.85 0.822004 -5.40283 0
M  V30 11017 H 1051.95 0.159422 -0.811489 0
M  V30 11018 H 1054.49 -0.436289 -1.63996 0
M  V30 11019 H 1053.27 -0.681341 -3.85323 0
M  V30 11020 H 1052.89 1.03362 -3.8393 0
M  V30 11021 N 1053.89 1.57202 -0.111913 0
M  V30 11022 C 1054.85 2.13778 0.826534 0
M  V30 11023 C 1055.85 1.07097 1.19945 0
M  V30 11024 O 1057.04 1.32906 1.12613 0
M  V30 11025 C 1054.17 2.6722 2.11675 0
M  V30 11026 H 1055.36 2.98023 0.334975 0
M  V30 11027 H 1052.92 1.55696 0.137256 0
M  V30 11028 H 1053.65 1.86542 2.65278 0
M  V30 11029 H 1053.44 3.45235 1.8589 0
M  V30 11030 H 1054.93 3.10926 2.78774 0
M  V30 11031 N 1055.36 -0.161842 1.56767 0
M  V30 11032 C 1056.29 -1.20226 2.0017 0
M  V30 11033 C 1057.27 -1.4564 0.878807 0
M  V30 11034 O 1058.46 -1.56813 1.14557 0
M  V30 11035 C 1055.59 -2.53897 2.36968 0
M  V30 11036 C 1054.54 -2.43033 3.52305 0
M  V30 11037 C 1053.87 -3.81281 3.74872 0
M  V30 11038 C 1055.17 -1.927 4.85453 0
M  V30 11039 H 1056.86 -0.84142 2.87333 0
M  V30 11040 H 1054.41 -0.403309 1.38237 0
M  V30 11041 H 1056.36 -3.26893 2.6593 0
M  V30 11042 H 1055.09 -2.91787 1.46724 0
M  V30 11043 H 1053.75 -1.7249 3.23485 0
M  V30 11044 H 1053.39 -4.1658 2.81904 0
M  V30 11045 H 1053.09 -3.74877 4.52483 0
M  V30 11046 H 1054.62 -4.55848 4.06245 0
M  V30 11047 H 1056.03 -2.55477 5.13229 0
M  V30 11048 H 1054.43 -1.97222 5.66766 0
M  V30 11049 H 1055.5 -0.881816 4.76814 0
M  V30 11050 N 1056.84 -1.516 -0.430713 0
M  V30 11051 C 1058.07 -1.68414 -1.20185 0
M  V30 11052 C 1058.48 -0.384297 -1.84847 0
M  V30 11053 O 1057.84 0.637808 -1.70992 0
M  V30 11054 C 1057.89 -2.80451 -2.28099 0
M  V30 11055 O 1057.61 -4.05399 -1.66081 0
M  V30 11056 C 1059.11 -3.0859 -3.18256 0
M  V30 11057 H 1056.33 -0.564982 -0.361989 0
M  V30 11058 H 1058.88 -1.9805 -0.50954 0
M  V30 11059 H 1057.03 -2.53395 -2.93036 0
M  V30 11060 H 1057.45 -4.67671 -2.37453 0
M  V30 11061 H 1058.92 -3.9055 -3.90096 0
M  V30 11062 H 1059.4 -2.21264 -3.79393 0
M  V30 11063 H 1060 -3.37331 -2.59014 0
M  V30 11064 N 1058.32 0.686584 -1.41858 0
M  V30 11065 C 1059.54 1.4802 -1.45275 0
M  V30 11066 C 1059.97 1.87997 -0.0621297 0
M  V30 11067 O 1059.33 1.55226 0.936733 0
M  V30 11068 C 1059.38 2.7133 -2.37513 0
M  V30 11069 O 1058.48 3.69159 -1.83836 0
M  V30 11070 H 1057.82 0.445152 -0.492682 0
M  V30 11071 H 1060.35 0.843161 -1.86419 0
M  V30 11072 H 1060.36 3.19537 -2.53693 0
M  V30 11073 H 1059.04 2.41571 -3.3855 0
M  V30 11074 H 1057.61 3.28134 -1.77151 0
M  V30 11075 N 1059.8 1.27835 0.921735 0
M  V30 11076 C 1060.73 1.136 2.04003 0
M  V30 11077 C 1061.71 0.0358756 1.70062 0
M  V30 11078 O 1062.89 0.211438 1.93046 0
M  V30 11079 C 1060.02 0.788697 3.38226 0
M  V30 11080 C 1058.98 1.84272 3.863 0
M  V30 11081 C 1058.3 1.34923 5.17397 0
M  V30 11082 C 1059.6 3.24788 4.09035 0
M  V30 11083 H 1061.3 2.07149 2.1617 0
M  V30 11084 H 1058.84 0.997349 1.0387 0
M  V30 11085 H 1060.8 0.675911 4.15944 0
M  V30 11086 H 1059.52 -0.182499 3.2609 0
M  V30 11087 H 1058.18 1.94451 3.1078 0
M  V30 11088 H 1057.83 0.367328 5.01657 0
M  V30 11089 H 1057.53 2.05397 5.50532 0
M  V30 11090 H 1059.05 1.24951 5.97678 0
M  V30 11091 H 1060.47 3.17575 4.77304 0
M  V30 11092 H 1058.86 3.93025 4.53488 0
M  V30 11093 H 1059.93 3.69398 3.14122 0
M  V30 11094 N 1061.28 -1.12907 1.09954 0
M  V30 11095 C 1062.22 -2.18485 0.743848 0
M  V30 11096 C 1063.19 -1.63766 -0.277494 0
M  V30 11097 O 1064.38 -1.90146 -0.157899 0
M  V30 11098 C 1061.52 -3.44649 0.176437 0
M  V30 11099 C 1060.63 -4.13445 1.25248 0
M  V30 11100 C 1059.77 -5.27242 0.647242 0
M  V30 11101 C 1058.8 -5.87897 1.70421 0
M  V30 11102 N 1057.94 -6.93116 1.1196 0
M  V30 11103 H 1062.78 -2.48257 1.64841 0
M  V30 11104 H 1060.32 -1.21891 0.823471 0
M  V30 11105 H 1062.28 -4.16852 -0.170384 0
M  V30 11106 H 1060.91 -3.15309 -0.69137 0
M  V30 11107 H 1059.96 -3.39471 1.7165 0
M  V30 11108 H 1061.27 -4.54601 2.05279 0
M  V30 11109 H 1060.42 -6.06186 0.249579 0
M  V30 11110 H 1059.16 -4.87351 -0.184556 0
M  V30 11111 H 1058.17 -5.07643 2.11136 0
M  V30 11112 H 1059.39 -6.2986 2.53877 0
M  V30 11113 H 1057.34 -6.55271 0.309181 0
M  V30 11114 H 1057.26 -7.32843 1.85681 0
M  V30 11115 H 1058.52 -7.759 0.748326 0
M  V30 11116 N 1062.75 -0.88754 -1.30232 0
M  V30 11117 C 1063.69 -0.300814 -2.26209 0
M  V30 11118 C 1064.66 0.580088 -1.519 0
M  V30 11119 O 1065.85 0.529611 -1.80907 0
M  V30 11120 C 1062.98 0.572336 -3.33829 0
M  V30 11121 C 1062.02 -0.239589 -4.25827 0
M  V30 11122 S 1062.85 -1.62953 -5.10104 0
M  V30 11123 C 1064.01 -0.762979 -6.21232 0
M  V30 11124 H 1064.24 -1.11435 -2.75626 0
M  V30 11125 H 1061.78 -0.687123 -1.38268 0
M  V30 11126 H 1063.73 1.07036 -3.963 0
M  V30 11127 H 1062.4 1.35999 -2.83131 0
M  V30 11128 H 1061.59 0.426854 -5.02189 0
M  V30 11129 H 1061.19 -0.670325 -3.67944 0
M  V30 11130 H 1063.48 0.0189354 -6.77497 0
M  V30 11131 H 1064.43 -1.49829 -6.92067 0
M  V30 11132 H 1064.83 -0.322747 -5.63577 0
M  V30 11133 N 1064.23 1.43628 -0.648757 0
M  V30 11134 C 1065.48 2.01465 -0.16002 0
M  V30 11135 C 1065.8 1.51413 1.22878 0
M  V30 11136 O 1065.07 0.724919 1.81994 0
M  V30 11137 H 1063.65 0.744885 -0.0561672 0
M  V30 11138 H 1066.31 1.75897 -0.839422 0
M  V30 11139 H 1065.41 3.1178 -0.141213 0
M  V30 11140 N 1065.71 0.390394 1.52688 0
M  V30 11141 C 1066.66 -0.444229 2.26485 0
M  V30 11142 C 1067.63 -1.05688 1.28138 0
M  V30 11143 O 1068.81 -1.0847 1.56968 0
M  V30 11144 C 1065.95 -1.56501 3.07574 0
M  V30 11145 C 1065.07 -0.975111 4.20851 0
M  V30 11146 C 1064.2 -2.06704 4.89333 0
M  V30 11147 C 1063.24 -1.45309 5.94602 0
M  V30 11148 N 1062.38 -2.48437 6.56676 0
M  V30 11149 H 1067.22 0.191535 2.97384 0
M  V30 11150 H 1064.75 0.106287 1.46716 0
M  V30 11151 H 1066.71 -2.22558 3.52879 0
M  V30 11152 H 1065.34 -2.17107 2.38881 0
M  V30 11153 H 1064.39 -0.204109 3.79852 0
M  V30 11154 H 1065.71 -0.486465 4.96422 0
M  V30 11155 H 1064.86 -2.80528 5.37949 0
M  V30 11156 H 1063.6 -2.58928 4.13289 0
M  V30 11157 H 1062.6 -0.700091 5.45324 0
M  V30 11158 H 1063.83 -0.938775 6.7258 0
M  V30 11159 H 1061.77 -2.99829 5.83471 0
M  V30 11160 H 1061.69 -2.04331 7.27863 0
M  V30 11161 H 1062.96 -3.21888 7.09935 0
M  V30 11162 N 1067.19 -1.57141 0.120249 0
M  V30 11163 C 1068.12 -2.18398 -0.826112 0
M  V30 11164 C 1069.1 -1.12439 -1.27638 0
M  V30 11165 O 1070.28 -1.40679 -1.33877 0
M  V30 11166 C 1067.41 -2.78438 -2.0758 0
M  V30 11167 C 1066.37 -3.89991 -1.76327 0
M  V30 11168 C 1065.69 -4.36844 -3.08336 0
M  V30 11169 C 1066.99 -5.12031 -1.03062 0
M  V30 11170 H 1068.69 -2.97731 -0.315656 0
M  V30 11171 H 1066.23 -1.43213 -0.150387 0
M  V30 11172 H 1068.19 -3.19951 -2.74243 0
M  V30 11173 H 1066.91 -1.96396 -2.60953 0
M  V30 11174 H 1065.57 -3.49055 -1.12053 0
M  V30 11175 H 1065.22 -3.51659 -3.59646 0
M  V30 11176 H 1064.92 -5.1207 -2.88199 0
M  V30 11177 H 1066.44 -4.81009 -3.76116 0
M  V30 11178 H 1067.86 -5.50555 -1.59881 0
M  V30 11179 H 1066.25 -5.92848 -0.930146 0
M  V30 11180 H 1067.32 -4.84897 -0.017582 0
M  V30 11181 N 1068.67 0.153526 -1.5685 0
M  V30 11182 C 1069.94 0.895545 -1.73895 0
M  V30 11183 C 1070.32 1.99625 -0.686504 0
M  V30 11184 O 1069.67 2.26579 0.2957 0
M  V30 11185 C 1069.88 1.44399 -3.17726 0
M  V30 11186 C 1071.23 1.90996 -3.79217 0
M  V30 11187 O 1072.25 1.54155 -3.21115 0
M  V30 11188 O 1071.11 2.58917 -4.81274 0
M  V30 11189 H 1068.21 0.422755 -0.710779 0
M  V30 11190 H 1070.75 0.139961 -1.69122 0
M  V30 11191 H 1069.52 0.652635 -3.85819 0
M  V30 11192 H 1069.15 2.26326 -3.26898 0
M  V30 11193 N 1070.14 1.51827 0.422667 0
M  V30 11194 C 1071.11 1.7359 1.49663 0
M  V30 11195 C 1072.11 0.605811 1.48952 0
M  V30 11196 O 1073.3 0.87354 1.50715 0
M  V30 11197 C 1070.43 1.80585 2.8914 0
M  V30 11198 H 1071.62 2.69453 1.31664 0
M  V30 11199 H 1069.18 1.42038 0.652298 0
M  V30 11200 H 1069.91 0.865895 3.12526 0
M  V30 11201 H 1069.7 2.62729 2.9106 0
M  V30 11202 H 1071.19 1.99212 3.67021 0
M  V30 11203 N 1071.62 -0.679052 1.4222 0
M  V30 11204 C 1072.87 -1.43912 1.42463 0
M  V30 11205 C 1073.2 -1.9446 0.0395574 0
M  V30 11206 O 1072.45 -1.71019 -0.951365 0
M  V30 11207 C 1072.75 -2.65528 2.39227 0
M  V30 11208 C 1072.42 -2.33545 3.85704 0
M  V30 11209 C 1071.08 -2.24534 4.25603 0
M  V30 11210 C 1073.43 -2.07496 4.78116 0
M  V30 11211 C 1070.76 -1.87592 5.55901 0
M  V30 11212 C 1073.11 -1.72059 6.08752 0
M  V30 11213 C 1071.78 -1.61555 6.47654 0
M  V30 11214 H 1071.05 -0.52661 0.521309 0
M  V30 11215 H 1073.69 -0.774661 1.75132 0
M  V30 11216 H 1072 -3.36985 1.9987 0
M  V30 11217 H 1073.69 -3.23702 2.36681 0
M  V30 11218 H 1070.28 -2.4146 3.54112 0
M  V30 11219 H 1074.47 -2.13393 4.48082 0
M  V30 11220 H 1069.72 -1.78026 5.84908 0
M  V30 11221 H 1073.9 -1.50926 6.79849 0
M  V30 11222 H 1071.53 -1.32699 7.48529 0
M  V30 11223 N 1073.1 -1.28322 -0.914942 0
M  V30 11224 C 1074.35 -1.14785 -1.65853 0
M  V30 11225 C 1074.66 0.303135 -1.93237 0
M  V30 11226 O 1075.87 0.559606 -2.6567 0
M  V30 11227 C 1074.32 -2.00652 -2.98776 0
M  V30 11228 C 1073.93 -3.50483 -2.79044 0
M  V30 11229 C 1075.68 -1.95798 -3.76648 0
M  V30 11230 C 1073.58 -4.28505 -4.076 0
M  V30 11231 H 1072.51 -0.425987 -0.622135 0
M  V30 11232 H 1075.16 -1.52844 -1.01543 0
M  V30 11233 H 1073.55 -1.55447 -3.64214 0
M  V30 11234 H 1074.72 -4.03636 -2.22293 0
M  V30 11235 H 1073.04 -3.5685 -2.14586 0
M  V30 11236 H 1075.63 -2.51359 -4.71935 0
M  V30 11237 H 1075.98 -0.934455 -4.05677 0
M  V30 11238 H 1076.51 -2.38965 -3.18026 0
M  V30 11239 H 1073.25 -5.31433 -3.83744 0
M  V30 11240 H 1072.77 -3.80125 -4.63966 0
M  V30 11241 H 1074.45 -4.3836 -4.75867 0
M  V30 11242 N 1074.58 1.12322 -1.10551 0
M  V30 11243 C 1075.81 1.87407 -0.869607 0
M  V30 11244 C 1076.22 1.79976 0.58356 0
M  V30 11245 O 1075.56 1.1725 1.41415 0
M  V30 11246 C 1075.62 3.37401 -1.24099 0
M  V30 11247 C 1075.29 3.68607 -2.70144 0
M  V30 11248 C 1076.28 3.66869 -3.68379 0
M  V30 11249 C 1073.97 3.97903 -3.06559 0
M  V30 11250 C 1075.96 3.93987 -5.01052 0
M  V30 11251 C 1073.65 4.24681 -4.39419 0
M  V30 11252 C 1074.65 4.2271 -5.36475 0
M  V30 11253 O 1074.33 4.48823 -6.66943 0
M  V30 11254 H 1074.07 0.59978 -0.311834 0
M  V30 11255 H 1076.62 1.43037 -1.4741 0
M  V30 11256 H 1074.85 3.82332 -0.579606 0
M  V30 11257 H 1076.54 3.93833 -0.982378 0
M  V30 11258 H 1077.31 3.44297 -3.41591 0
M  V30 11259 H 1073.18 3.98578 -2.31638 0
M  V30 11260 H 1076.73 3.92364 -5.76798 0
M  V30 11261 H 1072.63 4.46727 -4.65945 0
M  V30 11262 H 1073.39 4.66436 -6.72592 0
M  V30 11263 N 1076.06 0.894434 1.2976 0
M  V30 11264 C 1077.33 0.437365 1.90648 0
M  V30 11265 C 1077.71 -1.08261 1.81226 0
M  V30 11266 O 1077.06 -1.92213 1.23557 0
M  V30 11267 C 1077.27 0.946047 3.35933 0
M  V30 11268 C 1078.62 0.986621 4.12978 0
M  V30 11269 O 1079.64 0.893356 3.44815 0
M  V30 11270 O 1078.5 1.12591 5.34776 0
M  V30 11271 H 1075.6 0.135436 0.815835 0
M  V30 11272 H 1078.14 0.983955 1.38262 0
M  V30 11273 H 1076.91 1.98998 3.3692 0
M  V30 11274 H 1076.54 0.379164 3.95788 0
M  V30 11275 N 1077.53 -1.43282 0.656365 0
M  V30 11276 C 1078.5 -2.29188 -0.0239173 0
M  V30 11277 C 1079.5 -1.42373 -0.747436 0
M  V30 11278 O 1080.69 -1.63969 -0.588213 0
M  V30 11279 C 1077.82 -3.24501 -1.0446 0
M  V30 11280 H 1079.01 -2.9083 0.731978 0
M  V30 11281 H 1076.57 -1.50614 0.417752 0
M  V30 11282 H 1077.3 -2.6776 -1.82962 0
M  V30 11283 H 1077.09 -3.88509 -0.52942 0
M  V30 11284 H 1078.58 -3.88971 -1.51958 0
M  V30 11285 N 1079.01 -0.398486 -1.52479 0
M  V30 11286 C 1079.98 0.420206 -2.25315 0
M  V30 11287 C 1080.98 0.982559 -1.27289 0
M  V30 11288 O 1082.17 0.863113 -1.51314 0
M  V30 11289 C 1079.3 1.59045 -3.01525 0
M  V30 11290 H 1080.49 -0.217599 -2.9911 0
M  V30 11291 H 1078.04 -0.150784 -1.55571 0
M  V30 11292 H 1078.78 2.26542 -2.32054 0
M  V30 11293 H 1078.56 1.19382 -3.73484 0
M  V30 11294 H 1080.05 2.16984 -3.56802 0
M  V30 11295 N 1080.49 1.57075 -0.12858 0
M  V30 11296 C 1081.74 1.9581 0.527868 0
M  V30 11297 C 1082.07 1.01253 1.65715 0
M  V30 11298 O 1081.35 0.0514853 1.94432 0
M  V30 11299 C 1081.63 3.44406 1.05151 0
M  V30 11300 C 1081.48 4.49737 -0.0750113 0
M  V30 11301 C 1082.8 3.95069 1.9393 0
M  V30 11302 H 1079.92 0.711978 0.19041 0
M  V30 11303 H 1082.56 1.88879 -0.206081 0
M  V30 11304 H 1080.71 3.50443 1.67697 0
M  V30 11305 H 1082.38 4.55793 -0.710685 0
M  V30 11306 H 1080.63 4.27497 -0.736809 0
M  V30 11307 H 1081.3 5.50996 0.332779 0
M  V30 11308 H 1083.77 3.91395 1.41241 0
M  V30 11309 H 1082.65 4.99542 2.27484 0
M  V30 11310 H 1082.91 3.36329 2.86941 0
M  V30 11311 N 1081.97 -0.145205 1.5693 0
M  V30 11312 C 1082.9 -1.18096 2.01434 0
M  V30 11313 C 1083.88 -1.447 0.894204 0
M  V30 11314 O 1085.07 -1.55589 1.16214 0
M  V30 11315 C 1082.2 -2.51369 2.39647 0
M  V30 11316 C 1081.15 -2.39283 3.54863 0
M  V30 11317 C 1080.48 -3.77283 3.78895 0
M  V30 11318 C 1081.78 -1.8754 4.87469 0
M  V30 11319 H 1083.47 -0.810897 2.8821 0
M  V30 11320 H 1081.02 -0.388624 1.38657 0
M  V30 11321 H 1082.97 -3.24054 2.69382 0
M  V30 11322 H 1081.69 -2.90214 1.49811 0
M  V30 11323 H 1080.35 -1.6905 3.25296 0
M  V30 11324 H 1080 -4.13567 2.86307 0
M  V30 11325 H 1079.7 -3.70057 4.56433 0
M  V30 11326 H 1081.22 -4.51514 4.11057 0
M  V30 11327 H 1082.64 -2.50019 5.1591 0
M  V30 11328 H 1081.03 -1.912 5.68826 0
M  V30 11329 H 1082.1 -0.831194 4.77723 0
M  V30 11330 N 1083.45 -1.52049 -0.414609 0
M  V30 11331 C 1084.4 -1.75603 -1.52533 0
M  V30 11332 C 1085.39 -0.622965 -1.57529 0
M  V30 11333 O 1086.6 -0.804886 -1.61002 0
M  V30 11334 H 1082.97 -0.555222 -0.507181 0
M  V30 11335 H 1084.94 -2.68666 -1.2985 0
M  V30 11336 C 1083.69 -1.9188 -2.89961 0
M  V30 11337 H 1083.01 -2.78483 -2.86857 0
M  V30 11338 H 1084.45 -2.12363 -3.66985 0
M  V30 11339 C 1082.91 -0.684453 -3.29874 0
M  V30 11340 O 1083.44 0.150256 -4.01419 0
M  V30 11341 N 1081.65 -0.521936 -2.85874 0
M  V30 11342 H 1081.2 -1.20229 -2.27822 0
M  V30 11343 H 1081.15 0.302655 -3.1294 0
M  V30 11344 N 1084.93 0.6715 -1.42579 0
M  V30 11345 C 1086.16 1.4576 -1.46416 0
M  V30 11346 C 1086.56 1.89051 -0.0749843 0
M  V30 11347 O 1085.91 1.58927 0.921296 0
M  V30 11348 C 1085.97 2.7365 -2.33144 0
M  V30 11349 C 1085.63 2.52414 -3.80968 0
M  V30 11350 C 1086.63 2.16804 -4.72538 0
M  V30 11351 C 1084.31 2.67306 -4.25268 0
M  V30 11352 C 1086.31 1.96358 -6.06401 0
M  V30 11353 C 1084 2.46475 -5.5919 0
M  V30 11354 C 1084.99 2.11055 -6.49573 0
M  V30 11355 O 1084.68 1.90428 -7.8102 0
M  V30 11356 H 1084.41 0.454896 -0.500045 0
M  V30 11357 H 1086.97 0.832198 -1.87786 0
M  V30 11358 H 1085.2 3.38684 -1.86629 0
M  V30 11359 H 1086.89 3.35543 -2.28398 0
M  V30 11360 H 1087.65 2.04891 -4.39596 0
M  V30 11361 H 1083.53 2.93854 -3.55206 0
M  V30 11362 H 1087.08 1.68634 -6.76911 0
M  V30 11363 H 1082.97 2.57985 -5.91704 0
M  V30 11364 H 1083.74 2.05 -7.92412 0
M  V30 11365 N 1086.4 1.28806 0.908124 0
M  V30 11366 C 1087.34 1.07538 2.01273 0
M  V30 11367 C 1088.31 -0.0102454 1.62597 0
M  V30 11368 O 1089.5 0.138797 1.87988 0
M  V30 11369 C 1086.63 0.635337 3.32688 0
M  V30 11370 C 1085.67 1.71843 3.90349 0
M  V30 11371 S 1086.5 3.31571 4.20501 0
M  V30 11372 C 1087.66 2.89416 5.54968 0
M  V30 11373 H 1087.89 2.01058 2.19005 0
M  V30 11374 H 1085.43 1.12857 1.05369 0
M  V30 11375 H 1087.38 0.388159 4.08661 0
M  V30 11376 H 1086.05 -0.280122 3.12848 0
M  V30 11377 H 1085.24 1.36228 4.8524 0
M  V30 11378 H 1084.84 1.91869 3.21033 0
M  V30 11379 H 1087.13 2.35936 6.35091 0
M  V30 11380 H 1088.08 3.83126 5.955 0
M  V30 11381 H 1088.48 2.27962 5.16424 0
M  V30 11382 N 1087.88 -1.11734 1.11145 0
M  V30 11383 C 1088.84 -2.15868 0.770303 0
M  V30 11384 C 1089.84 -1.59438 -0.208842 0
M  V30 11385 O 1091.03 -1.74193 0.0152516 0
M  V30 11386 C 1088.17 -3.40603 0.142303 0
M  V30 11387 H 1089.36 -2.4756 1.69276 0
M  V30 11388 H 1086.91 -1.26867 0.912929 0
M  V30 11389 H 1087.65 -3.14517 -0.790526 0
M  V30 11390 H 1087.43 -3.8284 0.847087 0
M  V30 11391 H 1088.92 -4.17523 -0.0803608 0
M  V30 11392 N 1089.36 -0.901303 -1.29284 0
M  V30 11393 C 1090.61 -0.527 -1.95108 0
M  V30 11394 C 1090.93 0.930065 -1.71391 0
M  V30 11395 O 1090.2 1.65601 -1.04658 0
M  V30 11396 H 1088.78 -0.191903 -0.721929 0
M  V30 11397 H 1091.44 -1.14795 -1.57506 0
M  V30 11398 H 1090.54 -0.710945 -3.03895 0
M  V30 11399 N 1090.84 1.42931 -0.663954 0
M  V30 11400 C 1091.78 2.3079 0.0210764 0
M  V30 11401 C 1092.75 1.45356 0.803796 0
M  V30 11402 O 1093.94 1.74207 0.778237 0
M  V30 11403 C 1091.08 3.31069 0.974023 0
M  V30 11404 C 1090.19 4.31598 0.186273 0
M  V30 11405 C 1089.33 5.18955 1.13399 0
M  V30 11406 C 1088.37 6.1117 0.337292 0
M  V30 11407 N 1087.5 6.91114 1.23715 0
M  V30 11408 H 1092.34 2.88819 -0.733995 0
M  V30 11409 H 1089.88 1.42274 -0.373711 0
M  V30 11410 H 1091.84 3.87727 1.54024 0
M  V30 11411 H 1090.47 2.74665 1.69585 0
M  V30 11412 H 1089.52 3.77147 -0.496402 0
M  V30 11413 H 1090.83 4.96919 -0.432753 0
M  V30 11414 H 1089.99 5.80292 1.77049 0
M  V30 11415 H 1088.73 4.53785 1.78691 0
M  V30 11416 H 1087.73 5.48911 -0.312492 0
M  V30 11417 H 1088.96 6.78386 -0.31138 0
M  V30 11418 H 1086.9 6.28583 1.87668 0
M  V30 11419 H 1086.82 7.52999 0.672946 0
M  V30 11420 H 1088.09 7.56948 1.86146 0
M  V30 11421 N 1092.32 0.406567 1.52266 0
M  V30 11422 C 1093.59 -0.228477 1.94261 0
M  V30 11423 C 1093.97 -1.62848 1.34328 0
M  V30 11424 O 1093.32 -2.22549 0.518082 0
M  V30 11425 C 1093.53 -0.237401 3.48192 0
M  V30 11426 C 1094.88 -0.457997 4.22123 0
M  V30 11427 O 1095.9 -0.316868 3.54788 0
M  V30 11428 O 1094.76 -0.735946 5.41522 0
M  V30 11429 H 1091.86 -0.146492 0.813922 0
M  V30 11430 H 1094.4 0.462325 1.63281 0
M  V30 11431 H 1093.17 0.742556 3.8419 0
M  V30 11432 H 1092.8 -0.972408 3.85526 0
M  V30 11433 N 1093.79 -1.57004 0.136909 0
M  V30 11434 C 1094.7 -2.19807 -0.819887 0
M  V30 11435 C 1095.72 -1.17939 -1.27932 0
M  V30 11436 O 1096.9 -1.50478 -1.3386 0
M  V30 11437 C 1093.96 -2.79935 -2.04542 0
M  V30 11438 C 1093.02 -3.96897 -1.6362 0
M  V30 11439 C 1092.26 -4.54148 -2.80331 0
M  V30 11440 O 1092.48 -4.10282 -3.96264 0
M  V30 11441 O 1091.41 -5.44565 -2.56384 0
M  V30 11442 H 1095.24 -3.02058 -0.315337 0
M  V30 11443 H 1092.82 -1.49131 -0.0896151 0
M  V30 11444 H 1094.71 -3.18191 -2.76283 0
M  V30 11445 H 1093.38 -2.00703 -2.53969 0
M  V30 11446 H 1092.29 -3.63376 -0.889316 0
M  V30 11447 H 1093.62 -4.77618 -1.18918 0
M  V30 11448 N 1095.27 0.136881 -1.57004 0
M  V30 11449 C 1096.52 0.8461 -1.83536 0
M  V30 11450 C 1096.84 1.81246 -0.71937 0
M  V30 11451 O 1096.11 1.94191 0.258161 0
M  V30 11452 H 1094.69 0.315446 -0.677128 0
M  V30 11453 H 1097.35 0.128469 -1.94476 0
M  V30 11454 H 1096.45 1.40221 -2.78827 0
M  V30 11455 N 1096.75 1.52266 0.40654 0
M  V30 11456 C 1097.99 1.6813 1.16239 0
M  V30 11457 C 1098.35 0.403791 1.87706 0
M  V30 11458 O 1099.56 0.438566 2.65198 0
M  V30 11459 C 1097.83 2.87115 2.12837 0
M  V30 11460 S 1099.39 3.23475 2.96495 0
M  V30 11461 H 1096.2 0.59202 0.393743 0
M  V30 11462 H 1098.81 1.90266 0.449325 0
M  V30 11463 H 1097.51 3.78337 1.59026 0
M  V30 11464 H 1097.04 2.6726 2.88679 0
M  V30 11465 H 1099.06 2.72299 4.14811 0
M  V30 11466 N 1098.23 -0.663929 1.42933 0
M  V30 11467 C 1099.18 -1.77717 1.47259 0
M  V30 11468 C 1100.15 -1.62922 0.323387 0
M  V30 11469 O 1101.33 -1.83319 0.529021 0
M  V30 11470 C 1098.47 -3.15814 1.39124 0
M  V30 11471 C 1097.58 -3.4182 2.64165 0
M  V30 11472 C 1096.72 -4.69705 2.48094 0
M  V30 11473 C 1095.76 -4.88781 3.68456 0
M  V30 11474 N 1094.89 -6.07915 3.51261 0
M  V30 11475 H 1099.73 -1.73355 2.42388 0
M  V30 11476 H 1097.27 -0.846121 1.2033 0
M  V30 11477 H 1099.23 -3.95633 1.32403 0
M  V30 11478 H 1097.86 -3.19274 0.475829 0
M  V30 11479 H 1096.91 -2.56176 2.81208 0
M  V30 11480 H 1098.22 -3.51805 3.53602 0
M  V30 11481 H 1097.38 -5.57632 2.39021 0
M  V30 11482 H 1096.12 -4.62022 1.56164 0
M  V30 11483 H 1095.12 -3.99292 3.7795 0
M  V30 11484 H 1096.35 -4.98301 4.61381 0
M  V30 11485 H 1094.29 -6.01384 2.62057 0
M  V30 11486 H 1094.21 -6.1881 4.34293 0
M  V30 11487 H 1095.48 -6.98492 3.4602 0
M  V30 11488 N 1099.71 -1.29285 -0.901281 0
M  V30 11489 C 1100.64 -1.16832 -2.0217 0
M  V30 11490 C 1101.62 -0.0629265 -1.69984 0
M  V30 11491 O 1102.8 -0.242123 -1.92685 0
M  V30 11492 C 1099.93 -0.842406 -3.36929 0
M  V30 11493 C 1098.89 -1.90394 -3.8332 0
M  V30 11494 C 1098.21 -1.43138 -5.15185 0
M  V30 11495 C 1099.51 -3.31254 -4.03817 0
M  V30 11496 H 1101.21 -2.10562 -2.12847 0
M  V30 11497 H 1098.75 -1.01375 -1.0227 0
M  V30 11498 H 1100.71 -0.741999 -4.14816 0
M  V30 11499 H 1099.43 0.130598 -3.26339 0
M  V30 11500 H 1098.09 -1.99371 -3.07647 0
M  V30 11501 H 1097.74 -0.447091 -5.01009 0
M  V30 11502 H 1097.44 -2.14129 -5.47195 0
M  V30 11503 H 1098.96 -1.34444 -5.95615 0
M  V30 11504 H 1100.37 -3.25129 -4.72191 0
M  V30 11505 H 1098.77 -4.00189 -4.47178 0
M  V30 11506 H 1099.84 -3.74349 -3.08206 0
M  V30 11507 N 1101.18 1.11143 -1.11736 0
M  V30 11508 C 1102.43 1.83219 -0.869413 0
M  V30 11509 C 1102.76 1.84588 0.603402 0
M  V30 11510 O 1102.04 1.30119 1.44566 0
M  V30 11511 C 1102.32 3.30247 -1.43559 0
M  V30 11512 C 1102.17 3.37253 -2.97624 0
M  V30 11513 C 1103.49 4.26412 -1.08907 0
M  V30 11514 H 1100.61 0.665205 -0.317286 0
M  V30 11515 H 1103.25 1.30307 -1.38275 0
M  V30 11516 H 1101.4 3.75437 -0.998978 0
M  V30 11517 H 1103.08 3.00599 -3.49911 0
M  V30 11518 H 1101.32 2.77378 -3.33532 0
M  V30 11519 H 1101.99 4.40752 -3.32328 0
M  V30 11520 H 1104.47 3.89418 -1.46604 0
M  V30 11521 H 1103.34 5.27666 -1.51195 0
M  V30 11522 H 1103.6 4.421 -0.000259009 0
M  V30 11523 N 1102.66 0.908147 1.28804 0
M  V30 11524 C 1103.89 0.55409 1.99343 0
M  V30 11525 C 1104.31 -0.863262 1.67908 0
M  V30 11526 O 1103.66 -1.571 0.92875 0
M  V30 11527 C 1103.71 0.746916 3.537 0
M  V30 11528 O 1103.43 2.10849 3.84024 0
M  V30 11529 C 1104.94 0.398939 4.41501 0
M  V30 11530 H 1102.16 0.211784 0.636701 0
M  V30 11531 H 1104.7 1.21981 1.64137 0
M  V30 11532 H 1102.85 0.128264 3.87188 0
M  V30 11533 H 1103.27 2.14404 4.78676 0
M  V30 11534 H 1104.74 0.584656 5.48895 0
M  V30 11535 H 1105.22 -0.664517 4.34144 0
M  V30 11536 H 1105.83 0.994892 4.135 0
M  V30 11537 N 1104.14 -1.42577 0.671525 0
M  V30 11538 C 1105.39 -2.00806 0.189663 0
M  V30 11539 C 1105.7 -1.537 -1.20978 0
M  V30 11540 O 1106.91 -2.04325 -1.78784 0
M  V30 11541 C 1105.36 -3.58744 0.288227 0
M  V30 11542 C 1104.97 -4.14839 1.69152 0
M  V30 11543 C 1106.72 -4.24285 -0.13509 0
M  V30 11544 C 1104.62 -5.65131 1.74302 0
M  V30 11545 H 1103.55 -0.751004 0.067146 0
M  V30 11546 H 1106.2 -1.63338 0.83623 0
M  V30 11547 H 1104.59 -3.937 -0.426175 0
M  V30 11548 H 1105.76 -3.91349 2.43274 0
M  V30 11549 H 1104.08 -3.61738 2.0624 0
M  V30 11550 H 1106.67 -5.34573 -0.116709 0
M  V30 11551 H 1107.02 -3.99527 -1.16977 0
M  V30 11552 H 1107.55 -3.94278 0.528191 0
M  V30 11553 H 1104.29 -5.94682 2.75742 0
M  V30 11554 H 1103.81 -5.90621 1.04531 0
M  V30 11555 H 1105.49 -6.29491 1.49498 0
M  V30 11556 N 1105.62 -0.414636 -1.52048 0
M  V30 11557 C 1106.87 0.159034 -2.01473 0
M  V30 11558 C 1107.19 1.45176 -1.30188 0
M  V30 11559 O 1106.46 1.91134 -0.429469 0
M  V30 11560 H 1105.04 0.0617604 -0.744443 0
M  V30 11561 H 1107.7 -0.552141 -1.86916 0
M  V30 11562 H 1106.8 0.351217 -3.10118 0
M  V30 11563 N 1107.1 1.56929 -0.145233 0
M  V30 11564 C 1108.32 2.00864 0.516564 0
M  V30 11565 C 1108.75 1.02466 1.57741 0
M  V30 11566 O 1108.1 0.000145439 1.813 0
M  V30 11567 C 1108.15 3.43552 1.09563 0
M  V30 11568 O 1107.26 3.4815 2.21055 0
M  V30 11569 H 1106.6 0.651835 0.126521 0
M  V30 11570 H 1109.13 2.0317 -0.241445 0
M  V30 11571 H 1109.14 3.82316 1.42473 0
M  V30 11572 H 1107.81 4.14677 0.318749 0
M  V30 11573 H 1106.39 3.21228 1.89387 0
M  V30 11574 N 1108.58 -0.128553 1.57075 0
M  V30 11575 C 1109.82 -0.836355 1.83982 0
M  V30 11576 C 1110.14 -1.80862 0.728971 0
M  V30 11577 O 1109.41 -1.94326 -0.247859 0
M  V30 11578 H 1107.99 -0.31185 0.678792 0
M  V30 11579 H 1110.66 -0.118153 1.94542 0
M  V30 11580 H 1109.75 -1.38741 2.79567 0
M  V30 11581 N 1110.05 -1.5248 -0.398459 0
M  V30 11582 C 1111 -1.76585 -1.48615 0
M  V30 11583 C 1111.97 -0.608677 -1.54546 0
M  V30 11584 O 1113.16 -0.847383 -1.7095 0
M  V30 11585 C 1110.3 -1.93201 -2.8595 0
M  V30 11586 C 1109.41 -3.20875 -2.89246 0
M  V30 11587 C 1108.54 -3.27862 -4.17947 0
M  V30 11588 C 1107.58 -4.49697 -4.15258 0
M  V30 11589 N 1106.72 -4.54017 -5.35549 0
M  V30 11590 H 1111.56 -2.69412 -1.27362 0
M  V30 11591 H 1109.1 -1.33487 -0.618031 0
M  V30 11592 H 1111.05 -2.00819 -3.65688 0
M  V30 11593 H 1109.68 -1.03743 -3.05675 0
M  V30 11594 H 1108.74 -3.22376 -2.01935 0
M  V30 11595 H 1110.05 -4.1066 -2.83125 0
M  V30 11596 H 1109.2 -3.34611 -5.06083 0
M  V30 11597 H 1107.94 -2.36035 -4.26777 0
M  V30 11598 H 1106.95 -4.43083 -3.25511 0
M  V30 11599 H 1108.17 -5.42831 -4.08059 0
M  V30 11600 H 1106.12 -3.65078 -5.45027 0
M  V30 11601 H 1106.03 -5.37661 -5.31466 0
M  V30 11602 H 1107.3 -4.65009 -6.25609 0
M  V30 11603 N 1111.53 0.65634 -1.43283 0
M  V30 11604 C 1112.78 1.41837 -1.44949 0
M  V30 11605 C 1113.11 1.94065 -0.0723212 0
M  V30 11606 O 1112.39 1.72092 0.906346 0
M  V30 11607 C 1112.67 2.60206 -2.48927 0
M  V30 11608 C 1112.52 2.1349 -3.95907 0
M  V30 11609 C 1113.84 3.62421 -2.49678 0
M  V30 11610 H 1110.96 0.514398 -0.527792 0
M  V30 11611 H 1113.6 0.74435 -1.74813 0
M  V30 11612 H 1111.75 3.17708 -2.23592 0
M  V30 11613 H 1113.42 1.61012 -4.32288 0
M  V30 11614 H 1111.67 1.4489 -4.08888 0
M  V30 11615 H 1112.34 2.98596 -4.64268 0
M  V30 11616 H 1114.81 3.14671 -2.72252 0
M  V30 11617 H 1113.69 4.42798 -3.24378 0
M  V30 11618 H 1113.95 4.14802 -1.52944 0
M  V30 11619 N 1113.01 1.29761 0.894412 0
M  V30 11620 C 1114.26 1.18039 1.64539 0
M  V30 11621 C 1114.58 -0.26697 1.92659 0
M  V30 11622 O 1113.84 -1.20865 1.53916 0
M  V30 11623 C 1114.14 1.94458 2.99868 0
M  V30 11624 C 1113.8 3.44143 2.91336 0
M  V30 11625 C 1112.47 3.84963 2.88716 0
M  V30 11626 C 1114.82 4.39503 2.80154 0
M  V30 11627 C 1112.15 5.19451 2.72741 0
M  V30 11628 C 1114.5 5.74088 2.65718 0
M  V30 11629 C 1113.16 6.14159 2.61467 0
M  V30 11630 H 1112.43 0.431936 0.60209 0
M  V30 11631 H 1115.08 1.60758 1.04063 0
M  V30 11632 H 1113.38 1.44346 3.64241 0
M  V30 11633 H 1115.08 1.82788 3.56917 0
M  V30 11634 H 1111.67 3.11699 2.9418 0
M  V30 11635 H 1115.86 4.08915 2.81251 0
M  V30 11636 H 1111.11 5.49602 2.67858 0
M  V30 11637 H 1115.29 6.47625 2.56038 0
M  V30 11638 H 1112.91 7.18317 2.48847 0
M  V30 11639 N 1114.49 -1.10549 1.12324 0
M  V30 11640 C 1115.45 -2.15039 0.793156 0
M  V30 11641 C 1116.45 -1.59651 -0.19192 0
M  V30 11642 O 1117.64 -1.74167 0.0337262 0
M  V30 11643 C 1114.77 -3.40433 0.17842 0
M  V30 11644 H 1115.97 -2.4575 1.71892 0
M  V30 11645 H 1113.52 -1.25892 0.926333 0
M  V30 11646 H 1114.25 -3.15338 -0.757122 0
M  V30 11647 H 1114.04 -3.81921 0.887645 0
M  V30 11648 H 1115.53 -4.17584 -0.0360724 0
M  V30 11649 N 1115.97 -0.914965 -1.28321 0
M  V30 11650 C 1117.19 -0.564654 -1.99046 0
M  V30 11651 C 1117.61 0.854345 -1.68364 0
M  V30 11652 O 1116.97 1.56605 -0.937068 0
M  V30 11653 C 1117.02 -0.765663 -3.53299 0
M  V30 11654 O 1116.74 -2.12883 -3.829 0
M  V30 11655 C 1118.24 -0.422347 -4.41283 0
M  V30 11656 H 1115.46 -0.215158 -0.635569 0
M  V30 11657 H 1118 -1.2285 -1.63487 0
M  V30 11658 H 1116.16 -0.148795 -3.87114 0
M  V30 11659 H 1116.57 -2.1694 -4.77533 0
M  V30 11660 H 1118.05 -0.613757 -5.48577 0
M  V30 11661 H 1118.52 0.641484 -4.3449 0
M  V30 11662 H 1119.13 -1.01681 -4.12966 0
M  V30 11663 N 1117.44 1.42219 -0.679077 0
M  V30 11664 C 1118.67 2.05815 -0.211649 0
M  V30 11665 C 1119.09 1.51037 1.13284 0
M  V30 11666 O 1118.44 0.651894 1.7046 0
M  V30 11667 C 1118.49 3.61218 -0.142663 0
M  V30 11668 O 1118.22 4.13965 -1.43402 0
M  V30 11669 C 1119.72 4.41934 0.347746 0
M  V30 11670 H 1116.94 0.663215 -0.101914 0
M  V30 11671 H 1119.48 1.82282 -0.927017 0
M  V30 11672 H 1117.64 3.83848 0.52342 0
M  V30 11673 H 1118.05 5.07872 -1.31021 0
M  V30 11674 H 1119.52 5.50921 0.344916 0
M  V30 11675 H 1120 4.16832 1.38377 0
M  V30 11676 H 1120.61 4.24332 -0.286751 0
M  V30 11677 N 1118.92 0.422693 1.51826 0
M  V30 11678 C 1120.17 -0.148348 2.01555 0
M  V30 11679 C 1120.49 -1.44483 1.30956 0
M  V30 11680 O 1119.76 -1.90904 0.439599 0
M  V30 11681 H 1118.34 -0.0578116 0.74476 0
M  V30 11682 H 1121 0.562046 1.8662 0
M  V30 11683 H 1120.1 -0.334766 3.10299 0
M  V30 11684 N 1120.4 -1.5685 0.153553 0
M  V30 11685 C 1121.63 -2.0041 -0.501949 0
M  V30 11686 C 1122.04 -1.03272 -1.58529 0
M  V30 11687 O 1121.38 -0.0227479 -1.83686 0
M  V30 11688 C 1121.44 -3.40402 -1.15613 0
M  V30 11689 C 1121.11 -4.56486 -0.216596 0
M  V30 11690 C 1122.1 -5.16894 0.558267 0
M  V30 11691 C 1119.79 -5.02162 -0.117592 0
M  V30 11692 C 1121.78 -6.21392 1.41951 0
M  V30 11693 C 1119.47 -6.06514 0.747255 0
M  V30 11694 C 1120.47 -6.65999 1.51441 0
M  V30 11695 O 1120.16 -7.6833 2.36483 0
M  V30 11696 H 1119.89 -0.66247 -0.134574 0
M  V30 11697 H 1122.44 -2.03908 0.247086 0
M  V30 11698 H 1120.67 -3.33762 -1.95294 0
M  V30 11699 H 1122.36 -3.68028 -1.71202 0
M  V30 11700 H 1123.13 -4.825 0.491851 0
M  V30 11701 H 1119.01 -4.55586 -0.704462 0
M  V30 11702 H 1122.55 -6.67751 2.01877 0
M  V30 11703 H 1118.45 -6.40335 0.81494 0
M  V30 11704 H 1119.21 -7.85578 2.29803 0
M  V30 11705 N 1121.88 0.120221 -1.57141 0
M  V30 11706 C 1123.13 0.826586 -1.84423 0
M  V30 11707 C 1123.45 1.80473 -0.738553 0
M  V30 11708 O 1122.72 1.94454 0.23755 0
M  V30 11709 H 1121.3 0.308246 -0.680436 0
M  V30 11710 H 1123.96 0.107835 -1.94601 0
M  V30 11711 H 1123.05 1.37256 -2.80298 0
M  V30 11712 N 1123.36 1.52689 0.390367 0
M  V30 11713 C 1124.61 1.6689 1.13272 0
M  V30 11714 C 1124.92 0.414433 1.91159 0
M  V30 11715 O 1126.12 0.436559 2.67967 0
M  V30 11716 C 1124.58 2.94929 2.06264 0
M  V30 11717 C 1124.19 4.27551 1.33805 0
M  V30 11718 C 1125.93 3.18497 2.80642 0
M  V30 11719 C 1123.84 5.46698 2.25554 0
M  V30 11720 H 1122.77 0.621749 0.426549 0
M  V30 11721 H 1125.42 1.79185 0.395615 0
M  V30 11722 H 1123.8 2.76378 2.83604 0
M  V30 11723 H 1124.98 4.56651 0.616997 0
M  V30 11724 H 1123.29 4.10234 0.713913 0
M  V30 11725 H 1125.89 4.04693 3.49467 0
M  V30 11726 H 1126.23 2.33511 3.44642 0
M  V30 11727 H 1126.76 3.37607 2.10395 0
M  V30 11728 H 1123.5 6.34088 1.66171 0
M  V30 11729 H 1123.02 5.21913 2.95579 0
M  V30 11730 H 1124.7 5.80519 2.85668 0
M  V30 11731 N 1124.83 -0.648732 1.43629 0
M  V30 11732 C 1125.8 -1.74331 1.488 0
M  V30 11733 C 1126.8 -1.56434 0.372147 0
M  V30 11734 O 1127.99 -1.6225 0.634078 0
M  V30 11735 C 1125.12 -3.13248 1.34494 0
M  V30 11736 H 1126.31 -1.71125 2.46285 0
M  V30 11737 H 1123.87 -0.860798 1.30461 0
M  V30 11738 H 1124.6 -3.22062 0.380345 0
M  V30 11739 H 1124.39 -3.27643 2.15389 0
M  V30 11740 H 1125.88 -3.93056 1.41055 0
M  V30 11741 N 1126.31 -1.30234 -0.887518 0
M  V30 11742 C 1127.25 -1.10726 -1.99537 0
M  V30 11743 C 1128.22 -0.0156237 -1.62592 0
M  V30 11744 O 1129.41 -0.168687 -1.87744 0
M  V30 11745 C 1126.53 -0.688185 -3.31635 0
M  V30 11746 C 1125.58 -1.78031 -3.87566 0
M  V30 11747 S 1126.41 -3.38219 -4.15172 0
M  V30 11748 C 1127.57 -2.98208 -5.50293 0
M  V30 11749 H 1127.8 -2.04516 -2.15778 0
M  V30 11750 H 1125.34 -1.14519 -1.0356 0
M  V30 11751 H 1127.29 -0.453124 -4.07991 0
M  V30 11752 H 1125.95 0.230315 -3.13254 0
M  V30 11753 H 1125.15 -1.43931 -4.83011 0
M  V30 11754 H 1124.75 -1.96952 -3.1794 0
M  V30 11755 H 1127.04 -2.4601 -6.31257 0
M  V30 11756 H 1127.98 -3.92551 -5.89329 0
M  V30 11757 H 1128.39 -2.36149 -5.12732 0
M  V30 11758 N 1127.79 1.09952 -1.12909 0
M  V30 11759 C 1128.72 2.16257 -0.759305 0
M  V30 11760 C 1129.74 1.61355 0.216427 0
M  V30 11761 O 1130.92 1.785 -0.00297224 0
M  V30 11762 C 1128.02 3.38741 -0.103908 0
M  V30 11763 C 1127.2 4.23072 -1.11037 0
M  V30 11764 C 1126.26 5.23991 -0.481667 0
M  V30 11765 O 1125.28 5.57665 -1.14011 0
M  V30 11766 N 1126.48 5.75652 0.748698 0
M  V30 11767 H 1129.25 2.48588 -1.67405 0
M  V30 11768 H 1126.81 1.25617 -1.02137 0
M  V30 11769 H 1128.8 4.03362 0.328799 0
M  V30 11770 H 1127.37 3.04344 0.713677 0
M  V30 11771 H 1126.59 3.5467 -1.72054 0
M  V30 11772 H 1127.88 4.76244 -1.79078 0
M  V30 11773 H 1127.28 5.505 1.30253 0
M  V30 11774 H 1125.84 6.42033 1.12415 0
M  V30 11775 N 1129.27 0.921757 1.27833 0
M  V30 11776 C 1130.22 0.414838 2.27041 0
M  V30 11777 C 1131.19 -0.515045 1.57913 0
M  V30 11778 O 1132.37 -0.435499 1.85763 0
M  V30 11779 C 1129.51 -0.331744 3.43502 0
M  V30 11780 C 1128.62 0.631565 4.27358 0
M  V30 11781 C 1127.76 -0.134265 5.3103 0
M  V30 11782 C 1126.8 0.822138 6.06554 0
M  V30 11783 N 1125.93 0.0893149 7.02043 0
M  V30 11784 H 1130.77 1.26585 2.69778 0
M  V30 11785 H 1128.31 0.635488 1.32665 0
M  V30 11786 H 1130.27 -0.780866 4.09827 0
M  V30 11787 H 1128.9 -1.14704 3.01733 0
M  V30 11788 H 1127.95 1.19922 3.61003 0
M  V30 11789 H 1129.26 1.36274 4.79824 0
M  V30 11790 H 1128.42 -0.643579 6.03277 0
M  V30 11791 H 1127.16 -0.898443 4.79353 0
M  V30 11792 H 1126.16 1.34275 5.33151 0
M  V30 11793 H 1127.39 1.586 6.6032 0
M  V30 11794 H 1125.33 -0.656725 6.52704 0
M  V30 11795 H 1125.25 0.760167 7.52169 0
M  V30 11796 H 1126.52 -0.399541 7.78475 0
M  V30 11797 N 1130.75 -1.41857 0.686609 0
M  V30 11798 C 1132.02 -1.95082 0.142228 0
M  V30 11799 C 1132.4 -1.62646 -1.34572 0
M  V30 11800 O 1131.75 -0.928757 -2.08773 0
M  V30 11801 C 1131.96 -3.46415 0.423955 0
M  V30 11802 C 1133.31 -4.23181 0.346842 0
M  V30 11803 O 1134.33 -3.54393 0.358363 0
M  V30 11804 O 1133.19 -5.4568 0.299211 0
M  V30 11805 H 1130.29 -0.826943 0.00974 0
M  V30 11806 H 1132.83 -1.51622 0.762153 0
M  V30 11807 H 1131.6 -3.63273 1.45424 0
M  V30 11808 H 1131.23 -3.96949 -0.227391 0
M  V30 11809 N 1132.22 -0.430739 -1.51599 0
M  V30 11810 C 1133.45 0.139197 -2.06932 0
M  V30 11811 C 1133.87 1.3626 -1.29672 0
M  V30 11812 O 1133.23 1.78219 -0.332836 0
M  V30 11813 C 1133.28 0.446593 -3.57824 0
M  V30 11814 O 1132.38 1.53414 -3.82803 0
M  V30 11815 H 1131.73 0.00475812 -0.663983 0
M  V30 11816 H 1134.26 -0.610171 -1.9529 0
M  V30 11817 H 1134.27 0.698972 -4.01968 0
M  V30 11818 H 1132.94 -0.447613 -4.13484 0
M  V30 11819 H 1131.52 1.27224 -3.50526 0
M  V30 11820 N 1133.7 1.56767 -0.161869 0
M  V30 11821 C 1134.65 2.1409 0.784183 0
M  V30 11822 C 1135.64 1.07262 1.19932 0
M  V30 11823 O 1136.83 1.33406 1.16326 0
M  V30 11824 C 1133.96 2.77778 2.01729 0
M  V30 11825 C 1133.04 3.91751 1.62457 0
M  V30 11826 N 1133.43 4.96972 0.940888 0
M  V30 11827 C 1131.73 4.02735 1.91626 0
M  V30 11828 C 1132.43 5.76858 0.748946 0
M  V30 11829 N 1131.41 5.28134 1.28745 0
M  V30 11830 H 1135.21 2.92811 0.252763 0
M  V30 11831 H 1132.73 1.62353 0.0391501 0
M  V30 11832 H 1134.72 3.17216 2.70517 0
M  V30 11833 H 1133.38 2.00535 2.55374 0
M  V30 11834 H 1134.39 5.14413 0.599981 0
M  V30 11835 H 1131.07 3.36585 2.47016 0
M  V30 11836 H 1132.46 6.71575 0.208991 0
M  V30 11837 N 1135.18 -0.111886 1.57202 0
M  V30 11838 C 1136.43 -0.8146 1.86376 0
M  V30 11839 C 1136.78 -1.77156 0.750558 0
M  V30 11840 O 1136.07 -1.89977 -0.248867 0
M  V30 11841 C 1136.27 -1.59644 3.19763 0
M  V30 11842 C 1136.1 -0.71669 4.43952 0
M  V30 11843 C 1134.87 -0.36881 5.03952 0
M  V30 11844 C 1137.07 -0.0311316 5.14291 0
M  V30 11845 N 1135.05 0.520861 6.11686 0
M  V30 11846 C 1136.42 0.71726 6.15837 0
M  V30 11847 C 1138.47 0.0445453 4.9788 0
M  V30 11848 C 1137.18 1.53423 7.02747 0
M  V30 11849 C 1139.2 0.848364 5.85283 0
M  V30 11850 C 1138.56 1.58493 6.86338 0
M  V30 11851 H 1134.66 -0.274785 0.732132 0
M  V30 11852 H 1137.25 -0.0779628 1.94544 0
M  V30 11853 H 1135.42 -2.30407 3.12678 0
M  V30 11854 H 1137.15 -2.24504 3.36719 0
M  V30 11855 H 1133.91 -0.712671 4.68207 0
M  V30 11856 H 1134.33 0.957756 6.70191 0
M  V30 11857 H 1138.97 -0.510564 4.19706 0
M  V30 11858 H 1136.69 2.10047 7.80324 0
M  V30 11859 H 1140.28 0.909372 5.74649 0
M  V30 11860 H 1139.16 2.19691 7.52798 0
M  V30 11861 N 1136.66 -1.52894 -0.382264 0
M  V30 11862 C 1137.61 -1.78151 -1.46734 0
M  V30 11863 C 1138.58 -0.625034 -1.53891 0
M  V30 11864 O 1139.76 -0.865467 -1.70042 0
M  V30 11865 C 1136.9 -1.96223 -2.83885 0
M  V30 11866 C 1136.01 -3.23925 -2.85826 0
M  V30 11867 C 1135.15 -3.32277 -4.14446 0
M  V30 11868 C 1134.19 -4.54076 -4.10465 0
M  V30 11869 N 1133.32 -4.59672 -5.30703 0
M  V30 11870 H 1138.16 -2.70748 -1.24497 0
M  V30 11871 H 1135.7 -1.34135 -0.603838 0
M  V30 11872 H 1137.66 -2.04686 -3.63537 0
M  V30 11873 H 1136.29 -1.0698 -3.04557 0
M  V30 11874 H 1135.34 -3.245 -1.98505 0
M  V30 11875 H 1136.65 -4.1364 -2.78754 0
M  V30 11876 H 1135.81 -3.3996 -5.02506 0
M  V30 11877 H 1134.55 -2.40548 -4.2425 0
M  V30 11878 H 1133.55 -4.46511 -3.20793 0
M  V30 11879 H 1134.78 -5.47128 -4.02278 0
M  V30 11880 H 1132.72 -3.70838 -5.41124 0
M  V30 11881 H 1132.64 -5.43268 -5.25734 0
M  V30 11882 H 1133.91 -4.71618 -6.20642 0
M  V30 11883 N 1138.14 0.641106 -1.43971 0
M  V30 11884 C 1139.55 0.958161 -1.27638 0
M  V30 11885 C 1139.75 2.00456 -0.204885 0
M  V30 11886 O 1138.81 2.49106 0.412606 0
M  V30 11887 C 1140.12 1.43091 -2.64472 0
M  V30 11888 C 1141.67 1.54692 -2.72102 0
M  V30 11889 C 1142.15 2.05353 -4.09382 0
M  V30 11890 N 1143.64 2.12638 -4.11509 0
M  V30 11891 C 1144.37 2.52987 -5.14573 0
M  V30 11892 N 1143.87 2.92544 -6.28005 0
M  V30 11893 N 1145.66 2.53033 -5.01927 0
M  V30 11894 H 1137.81 -0.0510973 -2.12339 0
M  V30 11895 H 1140.07 0.039748 -0.947166 0
M  V30 11896 H 1139.78 0.736389 -3.43904 0
M  V30 11897 H 1139.65 2.40375 -2.90688 0
M  V30 11898 H 1142.04 2.23242 -1.92994 0
M  V30 11899 H 1142.12 0.558083 -2.49638 0
M  V30 11900 H 1141.77 1.37401 -4.88962 0
M  V30 11901 H 1141.7 3.0509 -4.29218 0
M  V30 11902 H 1144.19 1.84792 -3.29636 0
M  V30 11903 H 1144.5 3.22116 -7.02468 0
M  V30 11904 H 1142.85 2.90319 -6.31458 0
M  V30 11905 H 1146.04 2.21514 -4.1237 0
M  V30 11906 H 1146.21 2.84155 -5.82375 0
M  V30 11907 N 1139.62 1.30703 0.880598 0
M  V30 11908 C 1140.58 1.17429 1.96832 0
M  V30 11909 C 1141.58 0.104305 1.60461 0
M  V30 11910 O 1142.77 0.352758 1.70591 0
M  V30 11911 C 1139.9 0.800099 3.31378 0
M  V30 11912 H 1141.09 2.14069 2.10034 0
M  V30 11913 H 1138.65 1.14162 1.06755 0
M  V30 11914 H 1139.38 -0.165606 3.23877 0
M  V30 11915 H 1139.17 1.57341 3.59146 0
M  V30 11916 H 1140.66 0.730826 4.11155 0
M  V30 11917 N 1141.09 -1.09351 1.1349 0
M  V30 11918 C 1142.34 -1.80915 0.89177 0
M  V30 11919 C 1142.66 -1.86688 -0.5837 0
M  V30 11920 O 1143.86 -2.54568 -0.943788 0
M  V30 11921 C 1142.32 -3.25009 1.54587 0
M  V30 11922 C 1141.93 -3.27501 3.05691 0
M  V30 11923 C 1143.67 -4.01323 1.38346 0
M  V30 11924 C 1141.58 -4.66123 3.63983 0
M  V30 11925 H 1140.51 -0.677961 0.329978 0
M  V30 11926 H 1143.16 -1.22893 1.3627 0
M  V30 11927 H 1141.54 -3.83098 1.0026 0
M  V30 11928 H 1142.71 -2.79174 3.66604 0
M  V30 11929 H 1141.03 -2.64677 3.21457 0
M  V30 11930 H 1143.63 -5.03739 1.79307 0
M  V30 11931 H 1143.97 -4.15003 0.328404 0
M  V30 11932 H 1144.5 -3.49679 1.89656 0
M  V30 11933 H 1141.24 -4.57646 4.69298 0
M  V30 11934 H 1140.76 -5.14772 3.07848 0
M  V30 11935 H 1142.44 -5.35097 3.63703 0
M  V30 11936 N 1142.57 -0.928524 -1.27343 0
M  V30 11937 C 1143.85 -0.487758 -1.89421 0
M  V30 11938 C 1144.23 1.03418 -1.84032 0
M  V30 11939 O 1143.58 1.8887 -1.2861 0
M  V30 11940 C 1143.79 -1.03478 -3.33307 0
M  V30 11941 C 1145.13 -1.09577 -4.10217 0
M  V30 11942 O 1146.16 -0.984463 -3.42326 0
M  V30 11943 O 1145.02 -1.2673 -5.31603 0
M  V30 11944 H 1142.11 -0.157018 -0.811957 0
M  V30 11945 H 1144.66 -1.02027 -1.35605 0
M  V30 11946 H 1143.43 -2.07861 -3.31526 0
M  V30 11947 H 1143.05 -0.483967 -3.94644 0
M  V30 11948 N 1144.05 1.41491 -0.694123 0
M  V30 11949 C 1144.98 2.33462 -0.0422169 0
M  V30 11950 C 1145.96 1.51739 0.76872 0
M  V30 11951 O 1147.15 1.8028 0.721985 0
M  V30 11952 C 1144.28 3.35545 0.895925 0
M  V30 11953 C 1143.23 4.27568 0.192188 0
M  V30 11954 C 1142.56 5.20014 1.24459 0
M  V30 11955 C 1143.86 5.1376 -0.940626 0
M  V30 11956 H 1145.55 2.88225 -0.810363 0
M  V30 11957 H 1143.1 1.38586 -0.39114 0
M  V30 11958 H 1145.05 3.9881 1.36121 0
M  V30 11959 H 1143.77 2.79129 1.69572 0
M  V30 11960 H 1142.43 3.65726 -0.25305 0
M  V30 11961 H 1142.08 4.59913 2.03687 0
M  V30 11962 H 1141.78 5.82417 0.778734 0
M  V30 11963 H 1143.3 5.86155 1.71041 0
M  V30 11964 H 1144.72 5.70601 -0.555692 0
M  V30 11965 H 1143.11 5.85097 -1.33349 0
M  V30 11966 H 1144.18 4.51011 -1.78093 0
M  V30 11967 N 1145.53 0.438773 1.51369 0
M  V30 11968 C 1146.49 -0.36032 2.2635 0
M  V30 11969 C 1147.49 -0.948465 1.29849 0
M  V30 11970 O 1148.68 -0.822692 1.53549 0
M  V30 11971 C 1145.81 -1.50994 3.05636 0
M  V30 11972 H 1147.01 0.296826 2.98427 0
M  V30 11973 H 1144.56 0.191978 1.55117 0
M  V30 11974 H 1145.29 -2.2031 2.37979 0
M  V30 11975 H 1145.08 -1.09437 3.76518 0
M  V30 11976 H 1146.57 -2.07447 3.6243 0
M  V30 11977 N 1147.01 -1.56678 0.170181 0
M  V30 11978 C 1147.94 -2.20916 -0.756213 0
M  V30 11979 C 1148.92 -1.16442 -1.23997 0
M  V30 11980 O 1150.1 -1.44867 -1.29333 0
M  V30 11981 C 1147.23 -2.84901 -1.98617 0
M  V30 11982 C 1146.19 -3.95403 -1.63831 0
M  V30 11983 C 1145.51 -4.46432 -2.94282 0
M  V30 11984 C 1146.81 -5.15051 -0.867195 0
M  V30 11985 H 1148.51 -2.98585 -0.220776 0
M  V30 11986 H 1146.05 -1.43619 -0.104748 0
M  V30 11987 H 1148 -3.28514 -2.63926 0
M  V30 11988 H 1146.73 -2.04598 -2.54572 0
M  V30 11989 H 1145.39 -3.52444 -1.00891 0
M  V30 11990 H 1145.04 -3.62923 -3.48276 0
M  V30 11991 H 1144.74 -5.20979 -2.71762 0
M  V30 11992 H 1146.26 -4.92731 -3.60622 0
M  V30 11993 H 1147.67 -5.55363 -1.42285 0
M  V30 11994 H 1146.07 -5.95507 -0.741065 0
M  V30 11995 H 1147.14 -4.84707 0.136693 0
M  V30 11996 N 1148.48 0.103547 -1.57259 0
M  V30 11997 C 1149.41 1.12714 -2.04494 0
M  V30 11998 C 1150.39 1.42278 -0.932255 0
M  V30 11999 O 1151.58 1.52453 -1.20298 0
M  V30 12000 C 1148.71 2.44927 -2.46228 0
M  V30 12001 C 1147.66 2.2979 -3.61082 0
M  V30 12002 C 1146.99 3.67105 -3.88765 0
M  V30 12003 C 1148.29 1.7455 -4.9227 0
M  V30 12004 H 1149.98 0.734198 -2.90258 0
M  V30 12005 H 1147.53 0.351725 -1.39638 0
M  V30 12006 H 1149.48 3.16798 -2.77879 0
M  V30 12007 H 1148.21 2.8614 -1.57453 0
M  V30 12008 H 1146.87 1.60366 -3.29664 0
M  V30 12009 H 1146.51 4.05831 -2.97171 0
M  V30 12010 H 1146.21 3.57825 -4.66084 0
M  V30 12011 H 1147.74 4.40456 -4.22884 0
M  V30 12012 H 1149.15 2.36253 -5.22358 0
M  V30 12013 H 1147.55 1.76051 -5.73695 0
M  V30 12014 H 1148.62 0.704242 -4.79759 0
M  V30 12015 N 1149.96 1.53094 0.37415 0
M  V30 12016 C 1150.89 1.75199 1.47776 0
M  V30 12017 C 1151.91 0.632627 1.50006 0
M  V30 12018 O 1153.1 0.908688 1.5364 0
M  V30 12019 C 1150.2 1.80909 2.86575 0
M  V30 12020 C 1149.37 3.10432 3.08141 0
M  V30 12021 C 1148.43 3.07495 4.27005 0
M  V30 12022 O 1147.45 3.81319 4.22592 0
M  V30 12023 N 1148.66 2.27715 5.33972 0
M  V30 12024 H 1151.42 2.70423 1.29196 0
M  V30 12025 H 1148.98 1.51766 0.563802 0
M  V30 12026 H 1150.97 1.76432 3.64217 0
M  V30 12027 H 1149.54 0.930074 2.98443 0
M  V30 12028 H 1148.76 3.2828 2.18233 0
M  V30 12029 H 1150.05 3.96047 3.19413 0
M  V30 12030 H 1149.45 1.67231 5.40417 0
M  V30 12031 H 1148.01 2.29065 6.10223 0
M  V30 12032 N 1151.44 -0.633461 1.44309 0
M  V30 12033 C 1152.69 -1.39306 1.46969 0
M  V30 12034 C 1153.01 -1.94235 0.101403 0
M  V30 12035 O 1152.27 -1.73959 -0.896475 0
M  V30 12036 C 1152.57 -2.57783 2.47554 0
M  V30 12037 C 1152.23 -2.21156 3.92939 0
M  V30 12038 C 1150.9 -2.1088 4.32531 0
M  V30 12039 C 1153.25 -1.9218 4.84475 0
M  V30 12040 C 1150.58 -1.69812 5.61588 0
M  V30 12041 C 1152.93 -1.52605 6.13917 0
M  V30 12042 C 1151.59 -1.40868 6.52466 0
M  V30 12043 H 1150.86 -0.509758 0.537799 0
M  V30 12044 H 1153.51 -0.718552 1.77508 0
M  V30 12045 H 1151.81 -3.30456 2.1049 0
M  V30 12046 H 1153.51 -3.16009 2.46859 0
M  V30 12047 H 1150.1 -2.30072 3.61614 0
M  V30 12048 H 1154.29 -1.9903 4.54644 0
M  V30 12049 H 1149.54 -1.59327 5.90275 0
M  V30 12050 H 1153.72 -1.29221 6.84306 0
M  V30 12051 H 1151.34 -1.08818 7.52371 0
M  V30 12052 N 1152.92 -1.31168 -0.873655 0
M  V30 12053 C 1153.85 -1.21094 -1.99646 0
M  V30 12054 C 1154.83 -0.0989684 -1.69812 0
M  V30 12055 O 1156.01 -0.282939 -1.92128 0
M  V30 12056 C 1153.14 -0.913684 -3.35066 0
M  V30 12057 C 1152.1 -1.98482 -3.79195 0
M  V30 12058 C 1151.42 -1.54033 -5.12033 0
M  V30 12059 C 1152.72 -3.39745 -3.96699 0
M  V30 12060 H 1154.42 -2.1503 -2.08333 0
M  V30 12061 H 1151.96 -1.03521 -1.00097 0
M  V30 12062 H 1153.92 -0.829821 -4.13149 0
M  V30 12063 H 1152.64 0.0613471 -3.26542 0
M  V30 12064 H 1151.3 -2.05851 -3.03349 0
M  V30 12065 H 1150.95 -0.553261 -4.99948 0
M  V30 12066 H 1150.65 -2.25688 -5.4253 0
M  V30 12067 H 1152.17 -1.47047 -5.92629 0
M  V30 12068 H 1153.59 -3.35071 -4.65188 0
M  V30 12069 H 1151.98 -4.09585 -4.38589 0
M  V30 12070 H 1153.05 -3.80802 -3.00196 0
M  V30 12071 N 1154.4 1.08748 -1.14068 0
M  V30 12072 C 1155.64 1.80707 -0.904947 0
M  V30 12073 C 1155.97 1.86478 0.570167 0
M  V30 12074 O 1155.24 1.35536 1.41445 0
M  V30 12075 H 1153.82 0.669261 -0.331811 0
M  V30 12076 H 1156.48 1.31494 -1.43859 0
M  V30 12077 H 1155.57 2.83653 -1.30182 0
M  V30 12078 N 1155.87 0.935264 1.26849 0
M  V30 12079 C 1157.15 0.497797 1.8916 0
M  V30 12080 C 1157.53 -1.02441 1.84578 0
M  V30 12081 O 1156.88 -1.88185 1.29609 0
M  V30 12082 C 1157.09 1.05244 3.32753 0
M  V30 12083 C 1158.44 1.11751 4.0963 0
M  V30 12084 O 1159.46 1.0026 3.41799 0
M  V30 12085 O 1158.32 1.29548 5.30923 0
M  V30 12086 H 1155.41 0.161322 0.811113 0
M  V30 12087 H 1157.96 1.02744 1.35062 0
M  V30 12088 H 1156.73 2.09617 3.30419 0
M  V30 12089 H 1156.36 0.504889 3.94381 0
M  V30 12090 N 1157.35 -1.41121 0.701616 0
M  V30 12091 C 1158.6 -2.00733 0.234682 0
M  V30 12092 C 1158.92 -1.55869 -1.17174 0
M  V30 12093 O 1158.19 -0.791965 -1.79178 0
M  V30 12094 H 1156.77 -0.742288 0.0837745 0
M  V30 12095 H 1159.43 -1.7266 0.904127 0
M  V30 12096 H 1158.53 -3.11041 0.256831 0
M  V30 12097 N 1158.83 -0.446794 -1.51134 0
M  V30 12098 C 1159.74 0.36579 -2.31731 0
M  V30 12099 C 1160.76 1.01886 -1.41051 0
M  V30 12100 O 1161.93 1.01216 -1.74119 0
M  V30 12101 C 1159 1.44705 -3.15058 0
M  V30 12102 C 1158.06 0.813129 -4.21529 0
M  V30 12103 C 1157.29 1.84287 -5.00873 0
M  V30 12104 O 1157.51 3.06633 -4.8097 0
M  V30 12105 O 1156.45 1.42816 -5.84711 0
M  V30 12106 H 1160.27 -0.292436 -3.02289 0
M  V30 12107 H 1157.86 -0.209129 -1.47929 0
M  V30 12108 H 1159.74 2.07393 -3.66833 0
M  V30 12109 H 1158.42 2.08919 -2.47254 0
M  V30 12110 H 1157.32 0.147953 -3.73807 0
M  V30 12111 H 1158.66 0.214331 -4.91733 0
M  V30 12112 N 1160.31 1.56586 -0.178487 0
M  V30 12113 C 1161.54 2.01475 0.470684 0
M  V30 12114 C 1161.95 1.0587 1.56323 0
M  V30 12115 O 1161.31 0.060749 1.82399 0
M  V30 12116 C 1161.36 3.46145 1.04238 0
M  V30 12117 O 1161.08 4.381 -0.0065582 0
M  V30 12118 C 1162.58 4.06471 1.76908 0
M  V30 12119 H 1159.8 0.660219 0.119801 0
M  V30 12120 H 1162.35 2.02542 -0.282322 0
M  V30 12121 H 1160.5 3.45831 1.74585 0
M  V30 12122 H 1160.91 5.22843 0.416554 0
M  V30 12123 H 1162.39 5.096 2.12161 0
M  V30 12124 H 1162.87 3.48974 2.66672 0
M  V30 12125 H 1163.47 4.10509 1.11186 0
M  V30 12126 N 1161.79 -0.095206 1.57312 0
M  V30 12127 C 1162.72 -1.14173 1.98739 0
M  V30 12128 C 1163.73 -1.36323 0.889934 0
M  V30 12129 O 1164.92 -1.34977 1.16805 0
M  V30 12130 C 1162.02 -2.49729 2.29104 0
M  V30 12131 C 1161.19 -2.47857 3.60396 0
M  V30 12132 C 1160.25 -3.65341 3.78699 0
M  V30 12133 O 1159.28 -3.47837 4.50553 0
M  V30 12134 N 1160.48 -4.84818 3.19268 0
M  V30 12135 H 1163.25 -0.789126 2.89124 0
M  V30 12136 H 1160.81 -0.284187 1.59386 0
M  V30 12137 H 1162.8 -3.26925 2.38541 0
M  V30 12138 H 1161.37 -2.7708 1.44726 0
M  V30 12139 H 1160.59 -1.56208 3.61929 0
M  V30 12140 H 1161.88 -2.43685 4.46649 0
M  V30 12141 H 1161.27 -5.01943 2.60902 0
M  V30 12142 H 1159.83 -5.59607 3.34191 0
M  V30 12143 N 1163.26 -1.53291 -0.366026 0
M  V30 12144 C 1164.21 -1.79697 -1.44836 0
M  V30 12145 C 1165.18 -0.641321 -1.5322 0
M  V30 12146 O 1166.37 -0.883453 -1.69115 0
M  V30 12147 C 1163.51 -1.99223 -2.81788 0
M  V30 12148 C 1162.62 -3.26938 -2.82375 0
M  V30 12149 C 1161.75 -3.36654 -4.10898 0
M  V30 12150 C 1160.79 -4.58404 -4.05626 0
M  V30 12151 N 1159.93 -4.65275 -5.25798 0
M  V30 12152 H 1164.77 -2.72053 -1.21619 0
M  V30 12153 H 1162.31 -1.34768 -0.589577 0
M  V30 12154 H 1164.27 -2.0853 -3.61346 0
M  V30 12155 H 1162.9 -1.10204 -3.03406 0
M  V30 12156 H 1161.95 -3.26587 -1.95052 0
M  V30 12157 H 1163.26 -4.16573 -2.74351 0
M  V30 12158 H 1162.41 -3.4527 -4.98872 0
M  V30 12159 H 1161.15 -2.45035 -4.21674 0
M  V30 12160 H 1160.16 -4.49888 -3.16039 0
M  V30 12161 H 1161.38 -5.51364 -3.96453 0
M  V30 12162 H 1159.33 -3.76557 -5.3716 0
M  V30 12163 H 1159.25 -5.48814 -5.19942 0
M  V30 12164 H 1160.51 -4.78175 -6.15605 0
M  V30 12165 N 1164.74 0.6258 -1.44643 0
M  V30 12166 C 1165.67 1.74858 -1.54748 0
M  V30 12167 C 1166.65 1.65327 -0.400138 0
M  V30 12168 O 1167.84 1.84005 -0.620948 0
M  V30 12169 C 1164.97 3.13408 -1.49643 0
M  V30 12170 C 1163.92 3.37733 -2.62908 0
M  V30 12171 C 1163.25 4.76367 -2.42855 0
M  V30 12172 C 1164.55 3.29771 -4.05029 0
M  V30 12173 H 1166.24 1.66658 -2.48728 0
M  V30 12174 H 1163.79 0.800363 -1.19709 0
M  V30 12175 H 1165.74 3.91735 -1.55312 0
M  V30 12176 H 1164.47 3.22404 -0.521824 0
M  V30 12177 H 1163.12 2.61788 -2.56637 0
M  V30 12178 H 1162.77 4.82074 -1.43575 0
M  V30 12179 H 1162.47 4.936 -3.18799 0
M  V30 12180 H 1164 5.56917 -2.50351 0
M  V30 12181 H 1165.41 3.97996 -4.12641 0
M  V30 12182 H 1163.81 3.58538 -4.81218 0
M  V30 12183 H 1164.88 2.27493 -4.28223 0
M  V30 12184 N 1166.22 1.31629 0.866686 0
M  V30 12185 C 1167.13 1.21524 2.00671 0
M  V30 12186 C 1168.15 0.131277 1.73504 0
M  V30 12187 O 1169.32 0.349699 1.98341 0
M  V30 12188 C 1166.39 0.926491 3.34091 0
M  V30 12189 C 1165.45 2.09769 3.7456 0
M  V30 12190 C 1164.68 1.82262 5.01614 0
M  V30 12191 O 1164.9 0.759329 5.65323 0
M  V30 12192 O 1163.84 2.68031 5.38928 0
M  V30 12193 H 1167.66 2.17335 2.1213 0
M  V30 12194 H 1165.25 1.11401 0.995499 0
M  V30 12195 H 1167.13 0.78144 4.14091 0
M  V30 12196 H 1165.81 -0.00155829 3.237 0
M  V30 12197 H 1164.71 2.29816 2.95187 0
M  V30 12198 H 1166.05 3.0081 3.89582 0
M  V30 12199 N 1167.7 -1.08142 1.14644 0
M  V30 12200 C 1168.93 -1.84318 0.939926 0
M  V30 12201 C 1169.34 -1.81735 -0.511636 0
M  V30 12202 O 1168.7 -1.22297 -1.35461 0
M  V30 12203 C 1168.75 -3.31744 1.43625 0
M  V30 12204 O 1168.47 -3.3435 2.83094 0
M  V30 12205 C 1169.97 -4.24717 1.27007 0
M  V30 12206 H 1167.19 -0.581781 0.334323 0
M  V30 12207 H 1169.74 -1.36561 1.52221 0
M  V30 12208 H 1167.89 -3.7688 0.896664 0
M  V30 12209 H 1168.31 -4.26399 3.05425 0
M  V30 12210 H 1169.78 -5.26262 1.66591 0
M  V30 12211 H 1170.26 -4.38682 0.213257 0
M  V30 12212 H 1170.86 -3.85409 1.79833 0
M  V30 12213 N 1169.18 -0.941978 -1.26351 0
M  V30 12214 C 1170.42 -0.590845 -1.94002 0
M  V30 12215 C 1170.76 0.868004 -1.73722 0
M  V30 12216 O 1170.03 1.62111 -1.07472 0
M  V30 12217 C 1170.31 -0.934901 -3.47752 0
M  V30 12218 C 1170.17 -2.44855 -3.77314 0
M  V30 12219 C 1171.49 -0.450888 -4.37784 0
M  V30 12220 H 1168.61 -0.21613 -0.704597 0
M  V30 12221 H 1171.25 -1.17634 -1.49205 0
M  V30 12222 H 1169.4 -0.436648 -3.86038 0
M  V30 12223 H 1171.07 -3.01959 -3.48738 0
M  V30 12224 H 1169.31 -2.89169 -3.23363 0
M  V30 12225 H 1169.98 -2.6398 -4.84787 0
M  V30 12226 H 1172.46 -0.878107 -4.06729 0
M  V30 12227 H 1171.34 -0.720439 -5.44152 0
M  V30 12228 H 1171.6 0.649162 -4.37308 0
M  V30 12229 N 1170.66 1.40747 -0.709091 0
M  V30 12230 C 1171.9 2.01796 -0.254976 0
M  V30 12231 C 1172.26 1.55202 1.13711 0
M  V30 12232 O 1171.55 0.759312 1.75912 0
M  V30 12233 C 1171.74 3.56404 -0.266685 0
M  V30 12234 C 1171.57 4.18005 -1.65837 0
M  V30 12235 C 1170.34 4.51719 -2.26447 0
M  V30 12236 C 1172.54 4.43302 -2.60744 0
M  V30 12237 N 1170.52 4.9868 -3.58039 0
M  V30 12238 C 1171.89 4.92185 -3.77033 0
M  V30 12239 C 1173.95 4.25332 -2.58839 0
M  V30 12240 C 1172.65 5.24984 -4.91715 0
M  V30 12241 C 1174.68 4.59228 -3.72644 0
M  V30 12242 C 1174.04 5.08294 -4.87664 0
M  V30 12243 H 1170.14 0.769549 -0.138991 0
M  V30 12244 H 1172.72 1.71081 -0.929488 0
M  V30 12245 H 1170.89 3.86562 0.377365 0
M  V30 12246 H 1172.63 4.04188 0.203528 0
M  V30 12247 H 1169.38 4.38631 -1.78605 0
M  V30 12248 H 1169.8 5.2655 -4.25528 0
M  V30 12249 H 1174.45 3.86623 -1.71121 0
M  V30 12250 H 1172.16 5.6261 -5.80082 0
M  V30 12251 H 1175.75 4.4697 -3.72437 0
M  V30 12252 H 1174.63 5.3403 -5.74267 0
M  V30 12253 N 1172.13 0.454803 1.50895 0
M  V30 12254 C 1173.06 -0.337982 2.31041 0
M  V30 12255 C 1174.04 -1.00523 1.37219 0
M  V30 12256 O 1175.23 -1.00553 1.66141 0
M  V30 12257 C 1172.36 -1.42964 3.1651 0
M  V30 12258 C 1171.31 -0.884907 4.18752 0
M  V30 12259 C 1170.64 -2.07363 4.92854 0
M  V30 12260 C 1171.94 0.0926716 5.22218 0
M  V30 12261 H 1173.63 0.33089 2.97566 0
M  V30 12262 H 1171.18 0.160577 1.43102 0
M  V30 12263 H 1173.13 -1.9916 3.71367 0
M  V30 12264 H 1171.86 -2.12705 2.47839 0
M  V30 12265 H 1170.52 -0.345031 3.64973 0
M  V30 12266 H 1170.16 -2.75764 4.2067 0
M  V30 12267 H 1169.86 -1.71545 5.62002 0
M  V30 12268 H 1171.39 -2.6408 5.5054 0
M  V30 12269 H 1172.8 -0.379568 5.72042 0
M  V30 12270 H 1171.2 0.3643 5.98993 0
M  V30 12271 H 1172.27 1.02383 4.73968 0
M  V30 12272 N 1173.61 -1.56489 0.186789 0
M  V30 12273 C 1174.84 -2.02163 -0.463126 0
M  V30 12274 C 1175.26 -1.06612 -1.54969 0
M  V30 12275 O 1174.62 -0.0482139 -1.81236 0
M  V30 12276 C 1174.67 -3.46337 -1.00416 0
M  V30 12277 O 1173.77 -3.53889 -2.11747 0
M  V30 12278 H 1173.11 -0.65496 -0.109194 0
M  V30 12279 H 1175.64 -2.02459 0.295227 0
M  V30 12280 H 1175.65 -3.85959 -1.32287 0
M  V30 12281 H 1174.33 -4.15376 -0.208693 0
M  V30 12282 H 1172.9 -3.26136 -1.80803 0
M  V30 12283 N 1175.09 0.086862 -1.5736 0
M  V30 12284 C 1176.34 0.787281 -1.86135 0
M  V30 12285 C 1176.66 1.78866 -0.776667 0
M  V30 12286 O 1175.93 1.94915 0.19625 0
M  V30 12287 H 1174.51 0.293744 -0.686821 0
M  V30 12288 H 1177.17 0.0665326 -1.94786 0
M  V30 12289 H 1176.27 1.3128 -2.83147 0
M  V30 12290 N 1176.57 1.53483 0.357892 0
M  V30 12291 C 1177.82 1.69256 1.09706 0
M  V30 12292 C 1178.13 0.454888 1.90237 0
M  V30 12293 O 1179.34 0.4933 2.66981 0
M  V30 12294 C 1177.79 2.99238 1.99961 0
M  V30 12295 C 1177.4 4.30293 1.24706 0
M  V30 12296 C 1179.14 3.24378 2.73823 0
M  V30 12297 C 1177.05 5.5136 2.13907 0
M  V30 12298 H 1175.98 0.630657 0.413265 0
M  V30 12299 H 1178.63 1.79983 0.357518 0
M  V30 12300 H 1177.01 2.82332 2.77677 0
M  V30 12301 H 1178.19 4.57857 0.519995 0
M  V30 12302 H 1176.5 4.11656 0.626736 0
M  V30 12303 H 1179.1 4.12015 3.40805 0
M  V30 12304 H 1179.44 2.40769 3.39612 0
M  V30 12305 H 1179.98 3.41994 2.03187 0
M  V30 12306 H 1176.71 6.3747 1.52684 0
M  V30 12307 H 1176.23 5.28065 2.84442 0
M  V30 12308 H 1177.91 5.86448 2.7329 0
M  V30 12309 N 1178.05 -0.61812 1.44973 0
M  V30 12310 C 1179.29 -1.38882 1.4997 0
M  V30 12311 C 1179.65 -1.91533 0.133841 0
M  V30 12312 O 1180.85 -2.68736 0.0585012 0
M  V30 12313 C 1179.12 -2.5136 2.54073 0
M  V30 12314 S 1180.68 -3.39324 2.78216 0
M  V30 12315 H 1177.5 -0.473631 0.530278 0
M  V30 12316 H 1180.1 -0.714299 1.81984 0
M  V30 12317 H 1178.8 -2.11012 3.51997 0
M  V30 12318 H 1178.34 -3.23625 2.23675 0
M  V30 12319 H 1180.35 -4.49198 2.10797 0
M  V30 12320 N 1179.52 -1.32087 -0.859693 0
M  V30 12321 C 1180.46 -1.16426 -1.97428 0
M  V30 12322 C 1181.47 -0.100582 -1.62489 0
M  V30 12323 O 1182.66 -0.349063 -1.75054 0
M  V30 12324 C 1179.76 -0.758822 -3.30295 0
M  V30 12325 C 1178.93 -1.90971 -3.93508 0
M  V30 12326 C 1177.99 -1.48865 -5.04704 0
M  V30 12327 O 1177.02 -2.1999 -5.2497 0
M  V30 12328 N 1178.22 -0.38182 -5.79243 0
M  V30 12329 H 1180.98 -2.12433 -2.11406 0
M  V30 12330 H 1178.54 -1.24558 -1.03426 0
M  V30 12331 H 1180.54 -0.459643 -4.02081 0
M  V30 12332 H 1179.11 0.109944 -3.12407 0
M  V30 12333 H 1178.33 -2.37566 -3.14573 0
M  V30 12334 H 1179.61 -2.68032 -4.32477 0
M  V30 12335 H 1179.01 0.210268 -5.65309 0
M  V30 12336 H 1177.57 -0.142224 -6.51645 0
M  V30 12337 N 1181 1.07532 -1.15215 0
M  V30 12338 C 1181.95 2.16785 -0.843022 0
M  V30 12339 C 1182.94 1.68411 0.182802 0
M  V30 12340 O 1184.15 1.7996 0.0380164 0
M  V30 12341 H 1180.52 0.707465 -0.254945 0
M  V30 12342 H 1182.5 2.40078 -1.77215 0
M  V30 12343 C 1181.24 3.45967 -0.346699 0
M  V30 12344 H 1180.57 3.83574 -1.12744 0
M  V30 12345 H 1182.01 4.23663 -0.169039 0
M  V30 12346 C 1180.47 3.23768 0.931437 0
M  V30 12347 O 1181 3.48179 2.00336 0
M  V30 12348 N 1179.2 2.77264 0.870217 0
M  V30 12349 H 1178.75 2.576 -0.00226223 0
M  V30 12350 H 1178.71 2.6279 1.72594 0
M  V30 12351 N 1182.48 0.948665 1.2585 0
M  V30 12352 C 1183.39 0.470525 2.29833 0
M  V30 12353 C 1184.41 -0.45919 1.67832 0
M  V30 12354 O 1185.58 -0.336893 1.98562 0
M  V30 12355 C 1182.65 -0.249635 3.458 0
M  V30 12356 C 1181.71 0.717559 4.23261 0
M  V30 12357 C 1180.94 0.0316724 5.33691 0
M  V30 12358 O 1181.16 -1.18384 5.5798 0
M  V30 12359 O 1180.1 0.71418 5.97648 0
M  V30 12360 H 1183.92 1.33447 2.72811 0
M  V30 12361 H 1181.51 0.714864 1.31187 0
M  V30 12362 H 1183.39 -0.654993 4.16279 0
M  V30 12363 H 1182.07 -1.08885 3.04837 0
M  V30 12364 H 1180.97 1.17301 3.55234 0
M  V30 12365 H 1182.31 1.52461 4.67992 0
M  V30 12366 N 1183.96 -1.40369 0.716545 0
M  V30 12367 C 1184.91 -2.3071 0.0645944 0
M  V30 12368 C 1185.88 -1.48239 -0.749294 0
M  V30 12369 O 1187.06 -1.76975 -0.713045 0
M  V30 12370 C 1184.2 -3.34456 -0.850478 0
M  V30 12371 C 1183.31 -4.31992 -0.0259594 0
M  V30 12372 C 1182.45 -5.22806 -0.940599 0
M  V30 12373 C 1181.49 -6.12001 -0.110228 0
M  V30 12374 N 1180.62 -6.9523 -0.979796 0
M  V30 12375 H 1185.46 -2.85896 0.840682 0
M  V30 12376 H 1183 -1.40789 0.426258 0
M  V30 12377 H 1184.96 -3.93177 -1.39528 0
M  V30 12378 H 1183.59 -2.8077 -1.59274 0
M  V30 12379 H 1182.64 -3.75045 0.636036 0
M  V30 12380 H 1183.95 -4.94971 0.616883 0
M  V30 12381 H 1183.11 -5.86463 -1.5539 0
M  V30 12382 H 1181.85 -4.60104 -1.61726 0
M  V30 12383 H 1180.85 -5.47373 0.516001 0
M  V30 12384 H 1182.08 -6.76763 0.562944 0
M  V30 12385 H 1180.02 -6.35115 -1.64209 0
M  V30 12386 H 1179.94 -7.54978 -0.393012 0
M  V30 12387 H 1181.21 -7.63335 -1.57924 0
M  V30 12388 N 1185.44 -0.462799 -1.50652 0
M  V30 12389 C 1186.38 0.349784 -2.29955 0
M  V30 12390 C 1187.38 0.997947 -1.36885 0
M  V30 12391 O 1188.58 0.93 -1.54114 0
M  V30 12392 H 1184.96 0.131635 -0.740389 0
M  V30 12393 H 1186.93 -0.33958 -2.96461 0
M  V30 12394 C 1185.68 1.42398 -3.17204 0
M  V30 12395 H 1185 0.934611 -3.88722 0
M  V30 12396 H 1186.44 1.96528 -3.75703 0
M  V30 12397 C 1184.9 2.42135 -2.34248 0
M  V30 12398 O 1185.43 3.47229 -2.01978 0
M  V30 12399 N 1183.64 2.13647 -1.96985 0
M  V30 12400 H 1183.18 1.28209 -2.23428 0
M  V30 12401 H 1183.14 2.80615 -1.41783 0
M  V30 12402 N 1186.91 1.56388 -0.195085 0
M  V30 12403 C 1187.82 2.22698 0.737743 0
M  V30 12404 C 1188.84 1.22605 1.23466 0
M  V30 12405 O 1190.02 1.55342 1.28183 0
M  V30 12406 C 1187.08 2.87333 1.94011 0
M  V30 12407 C 1186.14 4.02696 1.48776 0
M  V30 12408 C 1185.38 4.64239 2.63282 0
M  V30 12409 O 1185.6 4.24706 3.80763 0
M  V30 12410 O 1184.53 5.53705 2.35996 0
M  V30 12411 H 1188.36 3.03021 0.203013 0
M  V30 12412 H 1185.94 1.49361 0.0342044 0
M  V30 12413 H 1187.83 3.28226 2.64284 0
M  V30 12414 H 1186.5 2.0999 2.46345 0
M  V30 12415 H 1185.41 3.66426 0.753839 0
M  V30 12416 H 1186.74 4.81703 1.01109 0
M  V30 12417 N 1188.39 -0.0785156 1.57404 0
M  V30 12418 C 1189.64 -0.780092 1.87196 0
M  V30 12419 C 1189.97 -1.77562 0.78647 0
M  V30 12420 O 1189.25 -1.93428 -0.203935 0
M  V30 12421 C 1189.53 -1.49408 3.27642 0
M  V30 12422 C 1189.38 -0.515416 4.46837 0
M  V30 12423 C 1190.7 -2.44064 3.66225 0
M  V30 12424 H 1187.82 -0.282134 0.680859 0
M  V30 12425 H 1190.46 -0.0433926 1.8995 0
M  V30 12426 H 1188.61 -2.12205 3.25425 0
M  V30 12427 H 1190.28 0.106827 4.61176 0
M  V30 12428 H 1188.53 0.169832 4.33467 0
M  V30 12429 H 1189.2 -1.05247 5.41874 0
M  V30 12430 H 1191.67 -1.91349 3.69493 0
M  V30 12431 H 1190.55 -2.91029 4.65396 0
M  V30 12432 H 1190.81 -3.28569 2.95796 0
M  V30 12433 N 1189.87 -1.5367 -0.349747 0
M  V30 12434 C 1190.8 -1.7603 -1.4522 0
M  V30 12435 C 1191.78 -0.609171 -1.50758 0
M  V30 12436 O 1192.97 -0.843613 -1.68569 0
M  V30 12437 C 1190.09 -1.85336 -2.83493 0
M  V30 12438 C 1189.14 -3.07438 -2.95608 0
M  V30 12439 S 1189.97 -4.66625 -2.62719 0
M  V30 12440 C 1191.13 -4.78802 -4.03112 0
M  V30 12441 H 1191.36 -2.69263 -1.26035 0
M  V30 12442 H 1188.89 -1.4446 -0.545044 0
M  V30 12443 H 1190.85 -1.91383 -3.63157 0
M  V30 12444 H 1189.51 -0.931267 -2.99977 0
M  V30 12445 H 1188.71 -3.10606 -3.96913 0
M  V30 12446 H 1188.31 -2.99585 -2.23886 0
M  V30 12447 H 1190.6 -4.5983 -4.97557 0
M  V30 12448 H 1191.54 -5.80886 -4.04941 0
M  V30 12449 H 1191.95 -4.07305 -3.90849 0
M  V30 12450 N 1191.35 0.610423 -1.45298 0
M  V30 12451 C 1192.57 1.40112 -1.52917 0
M  V30 12452 C 1193 1.87404 -0.161696 0
M  V30 12453 O 1192.36 1.59973 0.853135 0
M  V30 12454 C 1192.4 2.58359 -2.51561 0
M  V30 12455 O 1191.51 3.58895 -2.03146 0
M  V30 12456 H 1190.85 0.41841 -0.515586 0
M  V30 12457 H 1193.38 0.743159 -1.90626 0
M  V30 12458 H 1193.39 3.0564 -2.70275 0
M  V30 12459 H 1192.06 2.23286 -3.50879 0
M  V30 12460 H 1190.64 3.18282 -1.94296 0
M  V30 12461 N 1192.83 1.32541 0.852676 0
M  V30 12462 C 1194.05 1.2636 1.64462 0
M  V30 12463 C 1194.48 -0.16508 1.87374 0
M  V30 12464 O 1193.83 -1.11712 1.42794 0
M  V30 12465 C 1193.88 2.03052 2.97997 0
M  V30 12466 O 1192.99 1.37967 3.88637 0
M  V30 12467 H 1192.33 0.435393 0.501327 0
M  V30 12468 H 1194.86 1.74888 1.06186 0
M  V30 12469 H 1194.87 2.133 3.47803 0
M  V30 12470 H 1193.54 3.06941 2.80642 0
M  V30 12471 H 1192.12 1.36279 3.47106 0
M  V30 12472 N 1194.3 -1.0692 1.15784 0
M  V30 12473 C 1195.25 -2.14235 0.858616 0
M  V30 12474 C 1196.22 -1.65006 -0.190295 0
M  V30 12475 O 1197.41 -1.90715 -0.0568853 0
M  V30 12476 C 1194.55 -3.43229 0.35888 0
M  V30 12477 C 1193.66 -4.06225 1.46987 0
M  V30 12478 C 1192.79 -5.2307 0.925812 0
M  V30 12479 C 1191.83 -5.78037 2.01345 0
M  V30 12480 N 1190.97 -6.86206 1.48544 0
M  V30 12481 H 1195.81 -2.3917 1.77769 0
M  V30 12482 H 1193.35 -1.17354 0.886925 0
M  V30 12483 H 1195.31 -4.17169 0.0508198 0
M  V30 12484 H 1193.94 -3.18531 -0.523259 0
M  V30 12485 H 1192.99 -3.29895 1.89403 0
M  V30 12486 H 1194.3 -4.43081 2.29088 0
M  V30 12487 H 1193.45 -6.04011 0.570555 0
M  V30 12488 H 1192.19 -4.87644 0.0740371 0
M  V30 12489 H 1191.2 -4.95738 2.37748 0
M  V30 12490 H 1192.42 -6.15517 2.86907 0
M  V30 12491 H 1190.37 -6.52711 0.656092 0
M  V30 12492 H 1190.29 -7.2197 2.24266 0
M  V30 12493 H 1191.55 -7.70842 1.15856 0
M  V30 12494 N 1195.78 -0.955326 -1.25345 0
M  V30 12495 C 1196.71 -0.494145 -2.28211 0
M  V30 12496 C 1197.69 0.459875 -1.63766 0
M  V30 12497 O 1198.88 0.358679 -1.90859 0
M  V30 12498 C 1196.01 0.228228 -3.46549 0
M  V30 12499 C 1194.96 -0.640601 -4.23179 0
M  V30 12500 C 1194.29 0.212553 -5.34277 0
M  V30 12501 C 1195.59 -1.91906 -4.85767 0
M  V30 12502 H 1197.28 -1.35391 -2.67039 0
M  V30 12503 H 1194.83 -0.652462 -1.2837 0
M  V30 12504 H 1196.78 0.561995 -4.17636 0
M  V30 12505 H 1195.51 1.12224 -3.06714 0
M  V30 12506 H 1194.16 -0.957462 -3.53876 0
M  V30 12507 H 1193.81 1.10634 -4.90682 0
M  V30 12508 H 1193.51 -0.365473 -5.86462 0
M  V30 12509 H 1195.04 0.541271 -6.08196 0
M  V30 12510 H 1196.45 -1.65165 -5.48993 0
M  V30 12511 H 1194.85 -2.44279 -5.48131 0
M  V30 12512 H 1195.92 -2.62173 -4.07914 0
M  V30 12513 N 1197.26 1.39987 -0.723979 0
M  V30 12514 C 1198.54 1.94637 -0.1939 0
M  V30 12515 C 1198.92 1.66156 1.30212 0
M  V30 12516 O 1198.27 0.983783 2.06238 0
M  V30 12517 C 1198.48 3.4517 -0.515652 0
M  V30 12518 C 1199.82 4.22113 -0.458919 0
M  V30 12519 O 1200.85 3.53318 -0.452198 0
M  V30 12520 O 1199.71 5.44695 -0.443783 0
M  V30 12521 H 1196.8 0.826394 -0.0316615 0
M  V30 12522 H 1199.35 1.49548 -0.802085 0
M  V30 12523 H 1198.12 3.5929 -1.55004 0
M  V30 12524 H 1197.74 3.97413 0.122067 0
M  V30 12525 N 1198.74 0.470782 1.50404 0
M  V30 12526 C 1199.99 -0.0859981 2.01517 0
M  V30 12527 C 1200.3 -1.40811 1.35763 0
M  V30 12528 O 1201.51 -2.04982 1.7803 0
M  V30 12529 C 1199.96 -0.203773 3.59323 0
M  V30 12530 C 1199.57 1.10989 4.34034 0
M  V30 12531 C 1201.32 -0.712528 4.18477 0
M  V30 12532 C 1199.22 0.955928 5.83623 0
M  V30 12533 H 1198.15 -0.0359142 0.753144 0
M  V30 12534 H 1200.8 0.605631 1.73218 0
M  V30 12535 H 1199.19 -0.959177 3.84208 0
M  V30 12536 H 1200.36 1.87623 4.20873 0
M  V30 12537 H 1198.67 1.54973 3.86487 0
M  V30 12538 H 1201.27 -0.844745 5.27985 0
M  V30 12539 H 1201.61 -1.70377 3.79838 0
M  V30 12540 H 1202.15 -0.0145179 3.97797 0
M  V30 12541 H 1198.89 1.92054 6.26734 0
M  V30 12542 H 1198.41 0.22997 5.99359 0
M  V30 12543 H 1200.09 0.622423 6.43999 0
M  V30 12544 N 1200.22 -1.56282 0.203376 0
M  V30 12545 C 1201.49 -1.89587 -0.481256 0
M  V30 12546 C 1201.87 -1.11812 -1.79057 0
M  V30 12547 O 1201.22 -0.221759 -2.27421 0
M  V30 12548 C 1201.43 -3.42071 -0.691965 0
M  V30 12549 C 1202.78 -4.12471 -1.00761 0
M  V30 12550 O 1203.8 -3.47568 -0.779396 0
M  V30 12551 O 1202.66 -5.27194 -1.43974 0
M  V30 12552 H 1199.76 -0.787682 -0.251963 0
M  V30 12553 H 1202.3 -1.67934 0.244207 0
M  V30 12554 H 1201.08 -3.9061 0.232322 0
M  V30 12555 H 1200.7 -3.69444 -1.46958 0
M  V30 12556 N 1201.7 0.070167 -1.57444 0
M  V30 12557 C 1202.64 1.10193 -2.04842 0
M  V30 12558 C 1203.64 1.39978 -0.954069 0
M  V30 12559 O 1204.84 1.39366 -1.13917 0
M  V30 12560 H 1201.22 0.372699 -0.653146 0
M  V30 12561 H 1203.19 0.676033 -2.90641 0
M  V30 12562 C 1201.94 2.40679 -2.50936 0
M  V30 12563 H 1201.26 2.1861 -3.34738 0
M  V30 12564 H 1202.7 3.11315 -2.87852 0
M  V30 12565 C 1201.16 3.06754 -1.39297 0
M  V30 12566 O 1201.69 3.949 -0.735989 0
M  V30 12567 N 1199.9 2.67404 -1.13769 0
M  V30 12568 H 1199.44 1.95813 -1.67376 0
M  V30 12569 H 1199.4 3.11937 -0.392787 0
M  V30 12570 N 1203.17 1.53854 0.341593 0
M  V30 12571 C 1204.11 1.76797 1.44284 0
M  V30 12572 C 1205.08 0.617157 1.50432 0
M  V30 12573 O 1206.27 0.85254 1.68119 0
M  V30 12574 C 1203.4 1.86837 2.82506 0
M  V30 12575 C 1202.44 3.09001 2.93974 0
M  V30 12576 S 1203.27 4.68012 2.60241 0
M  V30 12577 C 1204.43 4.80933 4.00567 0
M  V30 12578 H 1204.66 2.69927 1.24606 0
M  V30 12579 H 1202.2 1.44747 0.537375 0
M  V30 12580 H 1204.15 1.93306 3.62137 0
M  V30 12581 H 1202.82 0.947162 2.99479 0
M  V30 12582 H 1202.01 3.12707 3.9526 0
M  V30 12583 H 1201.61 3.00768 2.22294 0
M  V30 12584 H 1203.9 4.62462 4.95111 0
M  V30 12585 H 1204.85 5.83025 4.01855 0
M  V30 12586 H 1205.25 4.09372 3.88684 0
M  V30 12587 N 1204.65 -0.602709 1.4562 0
M  V30 12588 C 1205.61 -1.69508 1.54271 0
M  V30 12589 C 1206.61 -1.55171 0.421727 0
M  V30 12590 O 1207.8 -1.60151 0.685375 0
M  V30 12591 C 1204.94 -3.0881 1.44392 0
M  V30 12592 H 1206.13 -1.63203 2.51605 0
M  V30 12593 H 1203.68 -0.818857 1.33133 0
M  V30 12594 H 1204.42 -3.20689 0.482614 0
M  V30 12595 H 1204.2 -3.20625 2.25704 0
M  V30 12596 H 1205.69 -3.8837 1.53488 0
M  V30 12597 N 1206.13 -1.32992 -0.845635 0
M  V30 12598 C 1207.38 -1.2382 -1.59728 0
M  V30 12599 C 1207.7 0.197724 -1.93995 0
M  V30 12600 O 1206.97 1.12477 -1.60392 0
M  V30 12601 H 1205.55 -0.455296 -0.592212 0
M  V30 12602 H 1208.21 -1.66627 -1.01101 0
M  V30 12603 H 1207.31 -1.82717 -2.53023 0
M  V30 12604 N 1207.61 1.06304 -1.1635 0
M  V30 12605 C 1208.85 1.79366 -0.94634 0
M  V30 12606 C 1209.19 1.86981 0.524569 0
M  V30 12607 O 1208.46 1.36134 1.38917 0
M  V30 12608 C 1208.74 3.23861 -1.57436 0
M  V30 12609 C 1208.6 3.24327 -3.1166 0
M  V30 12610 C 1209.92 4.21409 -1.26895 0
M  V30 12611 H 1207.04 0.65115 -0.345215 0
M  V30 12612 H 1209.68 1.24325 -1.43678 0
M  V30 12613 H 1207.83 3.70862 -1.15731 0
M  V30 12614 H 1209.5 2.85488 -3.62346 0
M  V30 12615 H 1207.74 2.62983 -3.44997 0
M  V30 12616 H 1208.41 4.2626 -3.50723 0
M  V30 12617 H 1210.89 3.8285 -1.62989 0
M  V30 12618 H 1209.77 5.20778 -1.73439 0
M  V30 12619 H 1210.03 4.41701 -0.187768 0
M  V30 12620 N 1209.09 0.96196 1.24836 0
M  V30 12621 C 1210.33 0.620715 1.92752 0
M  V30 12622 C 1210.66 -0.843308 1.75267 0
M  V30 12623 O 1209.92 -1.62141 1.09584 0
M  V30 12624 C 1210.21 0.934481 3.44967 0
M  V30 12625 C 1209.88 2.38572 3.82615 0
M  V30 12626 C 1208.54 2.78238 3.92603 0
M  V30 12627 C 1210.89 3.32784 4.01129 0
M  V30 12628 C 1208.22 4.11169 4.18518 0
M  V30 12629 C 1210.57 4.65336 4.28539 0
M  V30 12630 C 1209.24 5.04788 4.36745 0
M  V30 12631 H 1208.51 0.227136 0.70533 0
M  V30 12632 H 1211.16 1.21237 1.48236 0
M  V30 12633 H 1209.46 0.260516 3.90933 0
M  V30 12634 H 1211.16 0.648923 3.95715 0
M  V30 12635 H 1207.75 2.06812 3.75402 0
M  V30 12636 H 1211.93 3.03325 3.9282 0
M  V30 12637 H 1207.19 4.41368 4.23089 0
M  V30 12638 H 1211.36 5.3831 4.41809 0
M  V30 12639 H 1208.99 6.07816 4.56579 0
M  V30 12640 N 1210.56 -1.39601 0.731392 0
M  V30 12641 C 1211.79 -2.0459 0.287472 0
M  V30 12642 C 1212.2 -1.5525 -1.08139 0
M  V30 12643 O 1211.54 -0.710949 -1.69385 0
M  V30 12644 C 1211.61 -3.58904 0.206948 0
M  V30 12645 C 1211.27 -4.31204 1.51368 0
M  V30 12646 C 1212.27 -4.58088 2.45869 0
M  V30 12647 C 1209.95 -4.69818 1.77698 0
M  V30 12648 C 1211.95 -5.22591 3.64935 0
M  V30 12649 C 1209.63 -5.34049 2.97043 0
M  V30 12650 C 1210.63 -5.60368 3.90483 0
M  V30 12651 O 1210.32 -6.23268 5.07732 0
M  V30 12652 H 1210.05 -0.664515 0.12408 0
M  V30 12653 H 1212.61 -1.79701 0.994814 0
M  V30 12654 H 1210.84 -3.82675 -0.556466 0
M  V30 12655 H 1212.52 -4.05385 -0.204498 0
M  V30 12656 H 1213.29 -4.28706 2.26796 0
M  V30 12657 H 1209.17 -4.48692 1.05815 0
M  V30 12658 H 1212.71 -5.43049 4.37885 0
M  V30 12659 H 1208.61 -5.62852 3.16018 0
M  V30 12660 H 1209.38 -6.41763 5.08019 0
M  V30 12661 N 1212.04 -0.478751 -1.50152 0
M  V30 12662 C 1212.98 0.357584 -2.25381 0
M  V30 12663 C 1213.95 0.98965 -1.29014 0
M  V30 12664 O 1215.14 1.02409 -1.58255 0
M  V30 12665 C 1212.26 1.50167 -3.03591 0
M  V30 12666 C 1211.31 0.986215 -4.14941 0
M  V30 12667 S 1212.14 -0.105239 -5.35397 0
M  V30 12668 C 1213.3 1.04254 -6.17156 0
M  V30 12669 H 1213.53 -0.280985 -2.95969 0
M  V30 12670 H 1211.07 -0.263734 -1.52131 0
M  V30 12671 H 1213.02 2.15733 -3.49241 0
M  V30 12672 H 1211.68 2.11178 -2.32514 0
M  V30 12673 H 1210.88 1.84295 -4.69096 0
M  V30 12674 H 1210.48 0.408141 -3.71766 0
M  V30 12675 H 1212.77 1.95255 -6.48754 0
M  V30 12676 H 1213.71 0.540083 -7.06037 0
M  V30 12677 H 1214.12 1.29983 -5.49331 0
M  V30 12678 N 1213.52 1.56172 -0.211661 0
M  V30 12679 C 1214.45 2.22843 0.697375 0
M  V30 12680 C 1215.43 1.19689 1.20866 0
M  V30 12681 O 1216.62 1.48245 1.25447 0
M  V30 12682 C 1213.75 2.90067 1.90993 0
M  V30 12683 C 1212.7 3.99608 1.5329 0
M  V30 12684 C 1212.03 4.54078 2.82343 0
M  V30 12685 C 1213.33 5.17169 0.730333 0
M  V30 12686 H 1215.02 2.99065 0.141533 0
M  V30 12687 H 1212.57 1.43846 0.0666337 0
M  V30 12688 H 1214.52 3.35396 2.55123 0
M  V30 12689 H 1213.24 2.11276 2.49058 0
M  V30 12690 H 1211.9 3.54995 0.915115 0
M  V30 12691 H 1211.55 3.72029 3.38531 0
M  V30 12692 H 1211.25 5.28001 2.57853 0
M  V30 12693 H 1212.77 5.02119 3.47432 0
M  V30 12694 H 1214.19 5.5894 1.2751 0
M  V30 12695 H 1212.59 5.97262 0.582916 0
M  V30 12696 H 1213.66 4.84174 -0.265157 0
M  V30 12697 N 1215 -0.0618163 1.57479 0
M  V30 12698 C 1215.93 -1.07252 2.07411 0
M  V30 12699 C 1216.91 -1.39756 0.969649 0
M  V30 12700 O 1218.09 -1.4921 1.24298 0
M  V30 12701 C 1215.22 -2.38313 2.52635 0
M  V30 12702 C 1214.18 -2.20136 3.67048 0
M  V30 12703 C 1213.5 -3.56668 3.98361 0
M  V30 12704 C 1214.8 -1.61437 4.96725 0
M  V30 12705 H 1216.5 -0.656983 2.92103 0
M  V30 12706 H 1214.04 -0.314579 1.40522 0
M  V30 12707 H 1216 -3.09319 2.86181 0
M  V30 12708 H 1214.72 -2.81865 1.64984 0
M  V30 12709 H 1213.38 -1.51569 3.338 0
M  V30 12710 H 1213.03 -3.97809 3.07826 0
M  V30 12711 H 1212.73 -3.45342 4.75408 0
M  V30 12712 H 1214.25 -4.2909 4.34413 0
M  V30 12713 H 1215.67 -2.2232 5.28438 0
M  V30 12714 H 1214.06 -1.60779 5.78161 0
M  V30 12715 H 1215.13 -0.576795 4.81457 0
M  V30 12716 N 1216.48 -1.54033 -0.333429 0
M  V30 12717 C 1217.72 -1.72019 -1.07411 0
M  V30 12718 C 1218.06 -0.487265 -1.87988 0
M  V30 12719 O 1217.33 0.515757 -1.87537 0
M  V30 12720 C 1217.61 -2.98986 -2.00698 0
M  V30 12721 C 1217.47 -4.32509 -1.23517 0
M  V30 12722 C 1218.79 -3.21663 -3.00368 0
M  V30 12723 H 1215.9 -0.625919 -0.389094 0
M  V30 12724 H 1218.55 -1.86717 -0.351697 0
M  V30 12725 H 1216.7 -2.86586 -2.62298 0
M  V30 12726 H 1218.37 -4.56775 -0.644522 0
M  V30 12727 H 1216.61 -4.3046 -0.537298 0
M  V30 12728 H 1217.28 -5.17547 -1.91962 0
M  V30 12729 H 1219.76 -3.33459 -2.48886 0
M  V30 12730 H 1218.63 -4.11877 -3.62834 0
M  V30 12731 H 1218.9 -2.3843 -3.72295 0
M  V30 12732 N 1217.95 0.594978 -1.45938 0
M  V30 12733 C 1218.92 1.68688 -1.55168 0
M  V30 12734 C 1219.92 1.54945 -0.429951 0
M  V30 12735 O 1221.11 1.59785 -0.693859 0
M  V30 12736 C 1218.24 3.0804 -1.46027 0
M  V30 12737 H 1219.43 1.61866 -2.52467 0
M  V30 12738 H 1216.99 0.811785 -1.33565 0
M  V30 12739 H 1217.72 3.20428 -0.499614 0
M  V30 12740 H 1217.51 3.19423 -2.27401 0
M  V30 12741 H 1219 3.8755 -1.55546 0
M  V30 12742 N 1219.43 1.33438 0.838571 0
M  V30 12743 C 1220.37 1.18055 1.9529 0
M  V30 12744 C 1221.34 0.075958 1.62422 0
M  V30 12745 O 1222.53 0.23825 1.86988 0
M  V30 12746 C 1219.65 0.810795 3.28852 0
M  V30 12747 C 1218.7 1.92293 3.80691 0
M  V30 12748 S 1219.53 3.53395 4.02334 0
M  V30 12749 C 1220.69 3.18426 5.38846 0
M  V30 12750 H 1220.92 2.12384 2.08039 0
M  V30 12751 H 1218.46 1.18284 0.992385 0
M  V30 12752 H 1220.41 0.604235 4.06029 0
M  V30 12753 H 1219.07 -0.113894 3.13893 0
M  V30 12754 H 1218.27 1.61758 4.77337 0
M  V30 12755 H 1217.87 2.08617 3.10411 0
M  V30 12756 H 1220.16 2.6927 6.21691 0
M  V30 12757 H 1221.1 4.14153 5.74354 0
M  V30 12758 H 1221.51 2.55016 5.03614 0
M  V30 12759 N 1220.91 -1.05686 1.16912 0
M  V30 12760 C 1222.16 -1.78244 0.95254 0
M  V30 12761 C 1222.48 -1.87924 -0.520525 0
M  V30 12762 O 1221.75 -1.39239 -1.37802 0
M  V30 12763 H 1220.33 -0.660228 0.349439 0
M  V30 12764 H 1222.99 -1.27634 1.47294 0
M  V30 12765 H 1222.09 -2.80102 1.37657 0
M  V30 12766 N 1222.39 -0.968567 -1.24324 0
M  V30 12767 C 1223.32 -0.518323 -2.27674 0
M  V30 12768 C 1224.3 0.442479 -1.64244 0
M  V30 12769 O 1225.48 0.338416 -1.91229 0
M  V30 12770 C 1222.61 0.191459 -3.46772 0
M  V30 12771 C 1221.57 -0.685449 -4.22476 0
M  V30 12772 C 1220.89 0.155873 -5.34473 0
M  V30 12773 C 1222.19 -1.97047 -4.83704 0
M  V30 12774 H 1223.89 -1.38215 -2.65588 0
M  V30 12775 H 1221.43 -0.66604 -1.27671 0
M  V30 12776 H 1223.39 0.517667 -4.18208 0
M  V30 12777 H 1222.11 1.08965 -3.07887 0
M  V30 12778 H 1220.77 -0.994942 -3.52841 0
M  V30 12779 H 1220.42 1.05424 -4.91828 0
M  V30 12780 H 1220.12 -0.427655 -5.86042 0
M  V30 12781 H 1221.64 0.476733 -6.08736 0
M  V30 12782 H 1223.06 -1.70979 -5.4721 0
M  V30 12783 H 1221.45 -2.50079 -5.45509 0
M  V30 12784 H 1222.52 -2.66484 -4.0511 0
M  V30 12785 N 1223.87 1.39211 -0.738786 0
M  V30 12786 C 1224.83 2.28937 -0.109746 0
M  V30 12787 C 1225.83 1.46488 0.663157 0
M  V30 12788 O 1227.02 1.67119 0.491614 0
M  V30 12789 C 1224.15 3.30039 0.853633 0
M  V30 12790 H 1225.34 2.86068 -0.900295 0
M  V30 12791 H 1222.9 1.47922 -0.504853 0
M  V30 12792 H 1223.63 2.77971 1.6704 0
M  V30 12793 H 1223.42 3.90935 0.302007 0
M  V30 12794 H 1224.91 3.97169 1.29022 0
M  V30 12795 N 1225.34 0.486708 1.49896 0
M  V30 12796 C 1226.27 -0.288898 2.31706 0
M  V30 12797 C 1227.26 -0.975901 1.3932 0
M  V30 12798 O 1228.44 -0.970065 1.68236 0
M  V30 12799 C 1225.57 -1.36218 3.19471 0
M  V30 12800 C 1224.52 -0.795884 4.20535 0
M  V30 12801 C 1223.85 -1.96862 4.97141 0
M  V30 12802 C 1225.15 0.203421 5.21904 0
M  V30 12803 H 1226.84 0.393934 2.96797 0
M  V30 12804 H 1224.39 0.190894 1.42729 0
M  V30 12805 H 1226.34 -1.91238 3.75508 0
M  V30 12806 H 1225.07 -2.074 2.52295 0
M  V30 12807 H 1223.73 -0.267538 3.65622 0
M  V30 12808 H 1223.37 -2.66779 4.26425 0
M  V30 12809 H 1223.07 -1.59585 5.65514 0
M  V30 12810 H 1224.6 -2.52343 5.56017 0
M  V30 12811 H 1226.01 -0.258144 5.72719 0
M  V30 12812 H 1224.41 0.491273 5.98086 0
M  V30 12813 H 1225.48 1.12414 4.7169 0
M  V30 12814 N 1226.82 -1.56058 0.219941 0
M  V30 12815 C 1227.75 -2.2321 -0.685547 0
M  V30 12816 C 1228.73 -1.20328 -1.20229 0
M  V30 12817 O 1229.92 -1.48909 -1.24659 0
M  V30 12818 C 1227.05 -2.91076 -1.89452 0
M  V30 12819 C 1226 -4.00415 -1.51169 0
M  V30 12820 C 1225.33 -4.55569 -2.79931 0
M  V30 12821 C 1226.63 -5.17549 -0.702896 0
M  V30 12822 H 1228.32 -2.99136 -0.125671 0
M  V30 12823 H 1225.87 -1.43879 -0.0590043 0
M  V30 12824 H 1227.82 -3.36744 -2.53341 0
M  V30 12825 H 1226.55 -2.12594 -2.47934 0
M  V30 12826 H 1225.21 -3.55475 -0.896275 0
M  V30 12827 H 1224.85 -3.73819 -3.36553 0
M  V30 12828 H 1224.55 -5.29361 -2.55049 0
M  V30 12829 H 1226.08 -5.03955 -3.44764 0
M  V30 12830 H 1227.49 -5.59608 -1.24544 0
M  V30 12831 H 1225.89 -5.97563 -0.551234 0
M  V30 12832 H 1226.96 -4.84027 0.29083 0
M  V30 12833 N 1228.3 0.053464 -1.57509 0
M  V30 12834 C 1229.55 0.750212 -1.88414 0
M  V30 12835 C 1229.88 1.76288 -0.814619 0
M  V30 12836 O 1229.16 1.93728 0.173136 0
M  V30 12837 C 1229.44 1.44176 -3.29978 0
M  V30 12838 C 1229.29 0.444263 -4.47601 0
M  V30 12839 C 1230.61 2.38207 -3.70061 0
M  V30 12840 H 1227.73 0.271266 -0.685262 0
M  V30 12841 H 1230.37 0.0131676 -1.89995 0
M  V30 12842 H 1228.52 2.07001 -3.2876 0
M  V30 12843 H 1230.19 -0.180182 -4.60948 0
M  V30 12844 H 1228.44 -0.238771 -4.33142 0
M  V30 12845 H 1229.11 0.966134 -5.43479 0
M  V30 12846 H 1231.58 1.85446 -3.7249 0
M  V30 12847 H 1230.46 2.83588 -4.69967 0
M  V30 12848 H 1230.72 3.23821 -3.00985 0
M  V30 12849 N 1229.78 1.54207 0.325255 0
M  V30 12850 C 1231.03 1.72331 1.0634 0
M  V30 12851 C 1231.35 0.496115 1.88066 0
M  V30 12852 O 1230.61 -0.52214 1.88606 0
M  V30 12853 C 1230.91 2.95 2.01766 0
M  V30 12854 C 1230.57 4.29835 1.36208 0
M  V30 12855 C 1229.24 4.66493 1.18059 0
M  V30 12856 C 1231.59 5.13521 0.891404 0
M  V30 12857 C 1228.92 5.84436 0.514894 0
M  V30 12858 C 1231.27 6.32146 0.239534 0
M  V30 12859 C 1229.93 6.67484 0.0458839 0
M  V30 12860 H 1229.2 0.630605 0.389125 0
M  V30 12861 H 1231.85 1.88445 0.34072 0
M  V30 12862 H 1230.15 2.73567 2.80479 0
M  V30 12863 H 1231.85 3.06217 2.58906 0
M  V30 12864 H 1228.44 4.00993 1.51335 0
M  V30 12865 H 1232.63 4.85718 1.01941 0
M  V30 12866 H 1227.88 6.10376 0.353644 0
M  V30 12867 H 1232.06 6.96273 -0.133185 0
M  V30 12868 H 1229.68 7.58733 -0.471978 0
M  V30 12869 N 1231.26 -0.58723 1.46251 0
M  V30 12870 C 1232.22 -1.67863 1.5606 0
M  V30 12871 C 1233.22 -1.54715 0.438162 0
M  V30 12872 O 1234.41 -1.59415 0.702323 0
M  V30 12873 C 1231.54 -3.07262 1.47659 0
M  V30 12874 H 1232.74 -1.60525 2.53321 0
M  V30 12875 H 1230.29 -0.804691 1.33994 0
M  V30 12876 H 1231.02 -3.20159 0.5166 0
M  V30 12877 H 1230.81 -3.18213 2.29092 0
M  V30 12878 H 1232.3 -3.8672 1.57599 0
M  V30 12879 N 1232.74 -1.33881 -0.831482 0
M  V30 12880 C 1233.98 -1.26951 -1.58918 0
M  V30 12881 C 1234.34 0.161359 -1.91722 0
M  V30 12882 O 1233.63 1.1054 -1.56498 0
M  V30 12883 C 1233.82 -2.08544 -2.90249 0
M  V30 12884 C 1233.65 -3.5942 -2.70273 0
M  V30 12885 C 1232.42 -4.28718 -2.67449 0
M  V30 12886 C 1234.62 -4.53599 -2.42388 0
M  V30 12887 N 1232.6 -5.65496 -2.38929 0
M  V30 12888 C 1233.97 -5.7832 -2.23485 0
M  V30 12889 C 1236.03 -4.42605 -2.28046 0
M  V30 12890 C 1234.73 -6.93286 -1.91695 0
M  V30 12891 C 1236.76 -5.57395 -1.97649 0
M  V30 12892 C 1236.12 -6.81129 -1.79563 0
M  V30 12893 H 1232.22 -0.519762 -0.58427 0
M  V30 12894 H 1234.8 -1.68502 -0.97546 0
M  V30 12895 H 1232.97 -1.69302 -3.49559 0
M  V30 12896 H 1234.71 -1.93325 -3.55538 0
M  V30 12897 H 1231.46 -3.81068 -2.81219 0
M  V30 12898 H 1231.88 -6.37619 -2.27532 0
M  V30 12899 H 1236.53 -3.47571 -2.40737 0
M  V30 12900 H 1234.24 -7.88311 -1.7774 0
M  V30 12901 H 1237.83 -5.50828 -1.87296 0
M  V30 12902 H 1236.71 -7.68449 -1.56382 0
M  V30 12903 N 1234.21 1.05064 -1.1747 0
M  V30 12904 C 1235.12 2.16346 -0.907286 0
M  V30 12905 C 1236.14 1.7355 0.125013 0
M  V30 12906 O 1237.32 2.01326 -0.0545551 0
M  V30 12907 C 1234.38 3.44077 -0.425681 0
M  V30 12908 C 1233.44 4.01311 -1.52473 0
M  V30 12909 C 1232.67 5.22946 -1.06601 0
M  V30 12910 O 1232.9 5.70345 0.0793329 0
M  V30 12911 O 1231.83 5.72454 -1.85958 0
M  V30 12912 H 1235.66 2.41754 -1.83817 0
M  V30 12913 H 1233.24 1.14834 -0.955693 0
M  V30 12914 H 1235.12 4.21078 -0.164689 0
M  V30 12915 H 1233.8 3.20166 0.477037 0
M  V30 12916 H 1232.71 3.25744 -1.83961 0
M  V30 12917 H 1234.04 4.29543 -2.4032 0
M  V30 12918 N 1235.69 0.975146 1.23809 0
M  V30 12919 C 1236.64 0.482305 2.2284 0
M  V30 12920 C 1237.63 -0.439787 1.54773 0
M  V30 12921 O 1238.82 -0.269496 1.74936 0
M  V30 12922 C 1235.95 -0.219056 3.426 0
M  V30 12923 C 1235.03 0.722299 4.17904 0
M  V30 12924 N 1235.42 1.86271 4.70252 0
M  V30 12925 C 1233.72 0.53457 4.42785 0
M  V30 12926 C 1234.42 2.45212 5.2749 0
M  V30 12927 N 1233.4 1.73652 5.15117 0
M  V30 12928 H 1237.2 1.35234 2.60939 0
M  V30 12929 H 1234.71 0.835162 1.3928 0
M  V30 12930 H 1236.71 -0.589401 4.12713 0
M  V30 12931 H 1235.37 -1.08544 3.0602 0
M  V30 12932 H 1236.38 2.24404 4.66758 0
M  V30 12933 H 1233.06 -0.287232 4.16511 0
M  V30 12934 H 1234.45 3.41491 5.78648 0
M  V30 12935 N 1237.17 -1.38817 0.746158 0
M  V30 12936 C 1238.1 -2.33144 0.128836 0
M  V30 12937 C 1239.08 -1.54487 -0.711873 0
M  V30 12938 O 1240.27 -1.82836 -0.654577 0
M  V30 12939 C 1237.4 -3.38639 -0.770772 0
M  V30 12940 C 1236.35 -4.27987 -0.0333669 0
M  V30 12941 C 1235.68 -5.24274 -1.05073 0
M  V30 12942 C 1236.98 -5.09915 1.13066 0
M  V30 12943 H 1238.67 -2.85019 0.916778 0
M  V30 12944 H 1236.22 -1.37039 0.442306 0
M  V30 12945 H 1238.17 -4.03587 -1.21225 0
M  V30 12946 H 1236.89 -2.8523 -1.59095 0
M  V30 12947 H 1235.55 -3.64534 0.388612 0
M  V30 12948 H 1235.2 -4.67156 -1.86478 0
M  V30 12949 H 1234.9 -5.84906 -0.562037 0
M  V30 12950 H 1236.42 -5.92099 -1.49169 0
M  V30 12951 H 1237.84 -5.68145 0.767084 0
M  V30 12952 H 1236.23 -5.79744 1.54972 0
M  V30 12953 H 1237.3 -4.4409 1.94709 0
M  V30 12954 N 1238.65 -0.49465 -1.49636 0
M  V30 12955 C 1239.89 0.0521945 -2.02733 0
M  V30 12956 C 1240.23 1.3723 -1.37411 0
M  V30 12957 O 1239.5 1.87758 -0.507642 0
M  V30 12958 C 1239.78 0.2114 -3.59479 0
M  V30 12959 C 1239.64 -1.13138 -4.35339 0
M  V30 12960 C 1240.96 0.955015 -4.29613 0
M  V30 12961 H 1238.08 0.0174946 -0.736792 0
M  V30 12962 H 1240.72 -0.644827 -1.78723 0
M  V30 12963 H 1238.87 0.805078 -3.80067 0
M  V30 12964 H 1240.54 -1.76345 -4.26263 0
M  V30 12965 H 1238.78 -1.72224 -3.98147 0
M  V30 12966 H 1239.45 -0.97336 -5.4335 0
M  V30 12967 H 1241.93 0.451575 -4.13642 0
M  V30 12968 H 1240.81 1.03524 -5.39049 0
M  V30 12969 H 1241.07 1.99724 -3.94414 0
M  V30 12970 N 1240.13 1.55939 -0.228214 0
M  V30 12971 C 1241.36 2.02576 0.405759 0
M  V30 12972 C 1241.76 1.10718 1.53422 0
M  V30 12973 O 1241.11 0.110361 1.83368 0
M  V30 12974 C 1241.17 3.45531 0.992405 0
M  V30 12975 C 1240.83 4.57 -0.00144674 0
M  V30 12976 C 1241.83 5.13642 -0.804248 0
M  V30 12977 C 1239.51 5.02152 -0.12213 0
M  V30 12978 C 1241.51 6.13912 -1.71437 0
M  V30 12979 C 1239.2 6.02258 -1.03578 0
M  V30 12980 C 1240.19 6.58015 -1.83044 0
M  V30 12981 O 1239.88 7.56172 -2.72872 0
M  V30 12982 H 1239.61 0.668136 0.102813 0
M  V30 12983 H 1242.17 2.02497 -0.344092 0
M  V30 12984 H 1240.4 3.427 1.79147 0
M  V30 12985 H 1242.09 3.75777 1.53448 0
M  V30 12986 H 1242.85 4.79603 -0.721497 0
M  V30 12987 H 1238.73 4.58428 0.486294 0
M  V30 12988 H 1242.28 6.57359 -2.33506 0
M  V30 12989 H 1238.17 6.35718 -1.11952 0
M  V30 12990 H 1238.94 7.73719 -2.67022 0
M  V30 12991 N 1241.6 -0.0451101 1.57535 0
M  V30 12992 C 1242.85 -0.734819 1.89663 0
M  V30 12993 C 1243.21 -1.73814 0.82502 0
M  V30 12994 O 1242.5 -1.90861 -0.168067 0
M  V30 12995 C 1242.69 -1.45938 3.26247 0
M  V30 12996 C 1242.52 -0.52775 4.46593 0
M  V30 12997 C 1241.29 -0.154735 5.05063 0
M  V30 12998 C 1243.49 0.187025 5.1396 0
M  V30 12999 N 1241.47 0.77983 6.08927 0
M  V30 13000 C 1242.84 0.977812 6.12241 0
M  V30 13001 C 1244.9 0.255673 4.97243 0
M  V30 13002 C 1243.6 1.83091 6.95608 0
M  V30 13003 C 1245.63 1.09584 5.81159 0
M  V30 13004 C 1244.99 1.8746 6.78998 0
M  V30 13005 H 1241.09 -0.243486 0.743128 0
M  V30 13006 H 1243.67 0.00462003 1.94699 0
M  V30 13007 H 1241.84 -2.16938 3.22169 0
M  V30 13008 H 1243.57 -2.10021 3.45938 0
M  V30 13009 H 1240.33 -0.513447 4.70809 0
M  V30 13010 H 1240.75 1.24114 6.65526 0
M  V30 13011 H 1245.4 -0.332093 4.21494 0
M  V30 13012 H 1243.11 2.42954 7.70713 0
M  V30 13013 H 1246.7 1.15228 5.70275 0
M  V30 13014 H 1245.58 2.51422 7.42803 0
M  V30 13015 N 1243.08 -1.54377 -0.317073 0
M  V30 13016 C 1244.03 -1.84214 -1.39046 0
M  V30 13017 C 1245 -0.689742 -1.51102 0
M  V30 13018 O 1246.18 -0.936809 -1.66218 0
M  V30 13019 C 1243.32 -2.08087 -2.75307 0
M  V30 13020 C 1242.44 -3.35756 -2.7183 0
M  V30 13021 C 1241.57 -3.49556 -3.9998 0
M  V30 13022 C 1240.61 -4.71076 -3.90837 0
M  V30 13023 N 1239.75 -4.81767 -5.10729 0
M  V30 13024 H 1244.59 -2.75785 -1.12902 0
M  V30 13025 H 1242.13 -1.36575 -0.546404 0
M  V30 13026 H 1244.08 -2.19921 -3.54529 0
M  V30 13027 H 1242.71 -1.19801 -2.99746 0
M  V30 13028 H 1241.77 -3.32627 -1.84563 0
M  V30 13029 H 1243.08 -4.2509 -2.60959 0
M  V30 13030 H 1242.23 -3.60967 -4.87635 0
M  V30 13031 H 1240.97 -2.58326 -4.13665 0
M  V30 13032 H 1239.98 -4.59715 -3.01566 0
M  V30 13033 H 1241.2 -5.63698 -3.78711 0
M  V30 13034 H 1239.15 -3.93455 -5.24908 0
M  V30 13035 H 1239.06 -5.65077 -5.02219 0
M  V30 13036 H 1240.33 -4.97517 -6.00081 0
M  V30 13037 N 1244.56 0.579466 -1.4656 0
M  V30 13038 C 1245.49 1.69846 -1.60233 0
M  V30 13039 C 1246.47 1.6397 -0.452533 0
M  V30 13040 O 1247.66 1.81936 -0.679174 0
M  V30 13041 C 1244.79 3.08488 -1.59538 0
M  V30 13042 C 1243.74 3.29197 -2.7352 0
M  V30 13043 C 1243.07 4.684 -2.57887 0
M  V30 13044 C 1244.37 3.16718 -4.15315 0
M  V30 13045 H 1246.06 1.5866 -2.53904 0
M  V30 13046 H 1243.61 0.761873 -1.22194 0
M  V30 13047 H 1245.56 3.86595 -1.67696 0
M  V30 13048 H 1244.28 3.20581 -0.62413 0
M  V30 13049 H 1242.94 2.53491 -2.64836 0
M  V30 13050 H 1242.59 4.77262 -1.58839 0
M  V30 13051 H 1242.29 4.83208 -3.34341 0
M  V30 13052 H 1243.81 5.48671 -2.67942 0
M  V30 13053 H 1245.23 3.84666 -4.25094 0
M  V30 13054 H 1243.63 3.43047 -4.92381 0
M  V30 13055 H 1244.7 2.13755 -4.35244 0
M  V30 13056 N 1246.04 1.3432 0.824371 0
M  V30 13057 C 1247.45 1.1397 1.11727 0
M  V30 13058 C 1247.65 -0.0597597 2.01411 0
M  V30 13059 O 1246.71 -0.735717 2.41544 0
M  V30 13060 C 1248.02 2.43423 1.76538 0
M  V30 13061 C 1249.57 2.49466 1.89039 0
M  V30 13062 C 1250.05 3.78917 2.57266 0
M  V30 13063 N 1251.54 3.8007 2.64767 0
M  V30 13064 C 1252.27 4.76953 3.18282 0
M  V30 13065 N 1251.77 5.84217 3.72373 0
M  V30 13066 N 1253.56 4.6441 3.1667 0
M  V30 13067 H 1245.71 2.11175 0.227802 0
M  V30 13068 H 1247.98 0.933774 0.163615 0
M  V30 13069 H 1247.68 3.31278 1.18102 0
M  V30 13070 H 1247.56 2.56655 2.7642 0
M  V30 13071 H 1249.94 1.62052 2.46623 0
M  V30 13072 H 1250.02 2.40163 0.880635 0
M  V30 13073 H 1249.67 4.6672 2.00336 0
M  V30 13074 H 1249.6 3.85502 3.58742 0
M  V30 13075 H 1252.09 3.02556 2.26425 0
M  V30 13076 H 1252.4 6.54159 4.11455 0
M  V30 13077 H 1250.75 5.87933 3.70621 0
M  V30 13078 H 1253.94 3.7976 2.73678 0
M  V30 13079 H 1254.11 5.40081 3.58073 0
M  V30 13080 N 1247.52 -1.0444 1.18026 0
M  V30 13081 C 1248.47 -2.10671 0.871877 0
M  V30 13082 C 1249.45 -1.60134 -0.156798 0
M  V30 13083 O 1250.64 -1.76938 0.0467129 0
M  V30 13084 C 1247.77 -3.41017 0.395271 0
M  V30 13085 C 1246.86 -3.98331 1.4558 0
M  V30 13086 N 1247.25 -4.29508 2.67127 0
M  V30 13087 C 1245.55 -4.2616 1.31544 0
M  V30 13088 C 1246.25 -4.7532 3.35329 0
M  V30 13089 N 1245.22 -4.75904 2.6271 0
M  V30 13090 H 1249.03 -2.32647 1.79589 0
M  V30 13091 H 1246.54 -1.22158 1.0701 0
M  V30 13092 H 1248.54 -4.16609 0.155861 0
M  V30 13093 H 1247.2 -3.20469 -0.522452 0
M  V30 13094 H 1248.21 -4.19271 3.04027 0
M  V30 13095 H 1244.88 -4.14959 0.459962 0
M  V30 13096 H 1246.27 -5.08493 4.39186 0
M  V30 13097 N 1248.99 -0.981699 -1.2329 0
M  V30 13098 C 1250.22 -0.669025 -1.96313 0
M  V30 13099 C 1250.64 0.757624 -1.72168 0
M  V30 13100 O 1250 1.51626 -0.993942 0
M  V30 13101 C 1250.05 -0.966875 -3.47396 0
M  V30 13102 O 1249.15 -0.0595933 -4.12357 0
M  V30 13103 H 1248.5 -0.251493 -0.61453 0
M  V30 13104 H 1251.03 -1.31564 -1.56691 0
M  V30 13105 H 1251.04 -0.904112 -3.97857 0
M  V30 13106 H 1249.71 -2.00651 -3.64296 0
M  V30 13107 H 1248.29 -0.176878 -3.7248 0
M  V30 13108 N 1250.47 1.3842 -0.753509 0
M  V30 13109 C 1251.72 2.00415 -0.310091 0
M  V30 13110 C 1252.05 1.59675 1.10532 0
M  V30 13111 O 1251.33 0.834261 1.757 0
M  V30 13112 C 1251.61 3.57488 -0.432897 0
M  V30 13113 C 1251.46 4.08193 -1.88941 0
M  V30 13114 C 1252.78 4.39757 0.173763 0
M  V30 13115 H 1249.9 0.728107 -0.114147 0
M  V30 13116 H 1252.54 1.64363 -0.953138 0
M  V30 13117 H 1250.69 3.88331 0.114563 0
M  V30 13118 H 1252.36 3.87993 -2.49517 0
M  V30 13119 H 1250.61 3.61063 -2.4045 0
M  V30 13120 H 1251.28 5.17291 -1.9265 0
M  V30 13121 H 1253.75 4.15066 -0.293137 0
M  V30 13122 H 1252.63 5.4887 0.057594 0
M  V30 13123 H 1252.89 4.23704 1.26205 0
M  V30 13124 N 1251.95 0.502579 1.49372 0
M  V30 13125 C 1253.36 0.055187 1.86618 0
M  V30 13126 C 1253.71 -1.35938 1.41476 0
M  V30 13127 O 1252.84 -2.01333 0.793338 0
M  V30 13128 C 1253.43 0.0933734 3.38671 0
M  V30 13129 C 1251.99 -0.298685 3.75213 0
M  V30 13130 C 1251.14 0.465216 2.7337 0
M  V30 13131 H 1254.09 0.715281 1.41667 0
M  V30 13132 H 1254.11 -0.701549 3.73977 0
M  V30 13133 H 1253.62 1.12303 3.71497 0
M  V30 13134 H 1251.72 -1.33151 3.47996 0
M  V30 13135 H 1251.84 0.0218637 4.79095 0
M  V30 13136 H 1250.2 -0.0851469 2.54558 0
M  V30 13137 H 1250.98 1.49498 3.09039 0
M  V30 13138 N 1253.43 -1.55816 0.23648 0
M  V30 13139 C 1254.38 -2.22322 -0.68378 0
M  V30 13140 C 1255.37 -1.2074 -1.1882 0
M  V30 13141 O 1256.58 -1.38781 -1.14629 0
M  V30 13142 H 1252.95 -0.713021 -0.238966 0
M  V30 13143 H 1254.92 -2.98234 -0.0995879 0
M  V30 13144 C 1253.67 -2.92845 -1.87449 0
M  V30 13145 H 1252.99 -3.70777 -1.49548 0
M  V30 13146 H 1254.43 -3.42758 -2.49585 0
M  V30 13147 C 1252.89 -1.96139 -2.73918 0
M  V30 13148 O 1253.42 -1.48781 -3.73132 0
M  V30 13149 N 1251.63 -1.63465 -2.40266 0
M  V30 13150 H 1251.18 -2.02171 -1.59639 0
M  V30 13151 H 1251.13 -0.990239 -2.98398 0
M  V30 13152 N 1254.91 0.036755 -1.57557 0
M  V30 13153 C 1256.13 0.744813 -1.93565 0
M  V30 13154 C 1256.56 1.68508 -0.835863 0
M  V30 13155 O 1255.91 1.80091 0.208986 0
M  V30 13156 C 1255.96 1.48461 -3.28621 0
M  V30 13157 O 1255.07 2.59739 -3.20327 0
M  V30 13158 H 1254.41 0.200866 -0.632889 0
M  V30 13159 H 1256.94 -0.00547543 -2.04599 0
M  V30 13160 H 1256.95 1.85622 -3.63329 0
M  V30 13161 H 1255.62 0.794953 -4.08232 0
M  V30 13162 H 1254.2 2.25176 -2.97237 0
M  V30 13163 N 1256.39 1.54543 0.308881 0
M  V30 13164 C 1257.61 1.77753 1.06857 0
M  V30 13165 C 1258.04 0.531616 1.80431 0
M  V30 13166 O 1257.39 -0.517513 1.73757 0
M  V30 13167 C 1257.44 2.97968 2.03094 0
M  V30 13168 O 1256.55 2.70541 3.11257 0
M  V30 13169 H 1255.89 0.588576 0.307368 0
M  V30 13170 H 1258.42 2.01607 0.348703 0
M  V30 13171 H 1258.43 3.25722 2.45702 0
M  V30 13172 H 1257.1 3.88314 1.48948 0
M  V30 13173 H 1255.68 2.53781 2.7322 0
M  V30 13174 N 1257.86 -0.571685 1.46866 0
M  V30 13175 C 1258.8 -1.69475 1.54307 0
M  V30 13176 C 1259.81 -1.57006 0.430449 0
M  V30 13177 O 1261 -1.64229 0.69936 0
M  V30 13178 C 1258.1 -3.07824 1.41766 0
M  V30 13179 C 1257.27 -3.46189 2.67342 0
M  V30 13180 C 1256.33 -4.63642 2.48843 0
M  V30 13181 O 1255.36 -4.68949 3.22608 0
M  V30 13182 N 1256.56 -5.59223 1.55724 0
M  V30 13183 H 1259.32 -1.63543 2.51145 0
M  V30 13184 H 1256.88 -0.757957 1.43062 0
M  V30 13185 H 1258.88 -3.84208 1.27146 0
M  V30 13186 H 1257.45 -3.08063 0.530667 0
M  V30 13187 H 1256.67 -2.59399 2.96826 0
M  V30 13188 H 1257.95 -3.68591 3.50739 0
M  V30 13189 H 1257.35 -5.5768 0.949175 0
M  V30 13190 H 1255.91 -6.34993 1.47063 0
M  V30 13191 N 1259.34 -1.34755 -0.817236 0
M  V30 13192 C 1260.27 -1.29452 -1.94331 0
M  V30 13193 C 1261.25 -0.170902 -1.69239 0
M  V30 13194 O 1262.44 -0.364173 -1.90755 0
M  V30 13195 C 1259.57 -1.05497 -3.30889 0
M  V30 13196 C 1258.52 -2.14386 -3.70436 0
M  V30 13197 C 1257.85 -1.75612 -5.05039 0
M  V30 13198 C 1259.15 -3.56265 -3.81933 0
M  V30 13199 H 1260.84 -2.23672 -1.99025 0
M  V30 13200 H 1258.39 -1.07674 -0.956159 0
M  V30 13201 H 1260.34 -1.0043 -4.09257 0
M  V30 13202 H 1259.06 -0.0772059 -3.26509 0
M  V30 13203 H 1257.72 -2.18532 -2.94345 0
M  V30 13204 H 1257.37 -0.764809 -4.97152 0
M  V30 13205 H 1257.07 -2.48495 -5.3247 0
M  V30 13206 H 1258.6 -1.72051 -5.85859 0
M  V30 13207 H 1260.01 -3.545 -4.50558 0
M  V30 13208 H 1258.41 -4.27818 -4.20822 0
M  V30 13209 H 1259.48 -3.93192 -2.83775 0
M  V30 13210 N 1260.82 1.03812 -1.18578 0
M  V30 13211 C 1262.1 1.74062 -0.892288 0
M  V30 13212 C 1262.48 2.02267 0.604256 0
M  V30 13213 O 1261.82 1.66988 1.55972 0
M  V30 13214 C 1262.03 3.024 -1.74228 0
M  V30 13215 C 1263.38 3.76088 -1.97087 0
M  V30 13216 O 1264.41 3.12305 -1.71302 0
M  V30 13217 O 1263.27 4.90732 -2.40509 0
M  V30 13218 H 1260.36 0.757567 -0.331695 0
M  V30 13219 H 1262.91 1.09855 -1.29345 0
M  V30 13220 H 1261.68 2.77713 -2.75665 0
M  V30 13221 H 1261.3 3.74346 -1.3398 0
M  V30 13222 N 1262.3 0.988223 1.22768 0
M  V30 13223 C 1263.54 0.661461 1.91392 0
M  V30 13224 C 1263.87 -0.805942 1.77016 0
M  V30 13225 O 1263.13 -1.5978 1.12999 0
M  V30 13226 C 1263.43 1.00744 3.42907 0
M  V30 13227 C 1263.09 2.46634 3.77469 0
M  V30 13228 C 1261.75 2.86503 3.86613 0
M  V30 13229 C 1264.11 3.41217 3.9398 0
M  V30 13230 C 1261.43 4.19954 4.09702 0
M  V30 13231 C 1263.79 4.74321 4.18572 0
M  V30 13232 C 1262.45 5.13938 4.25939 0
M  V30 13233 H 1261.72 0.242046 0.700353 0
M  V30 13234 H 1264.37 1.24354 1.45631 0
M  V30 13235 H 1262.67 0.34338 3.90292 0
M  V30 13236 H 1264.37 0.732714 3.94249 0
M  V30 13237 H 1260.96 2.14729 3.70931 0
M  V30 13238 H 1265.14 3.11589 3.86298 0
M  V30 13239 H 1260.4 4.50243 4.13631 0
M  V30 13240 H 1264.57 5.47561 4.30291 0
M  V30 13241 H 1262.2 6.17364 4.43583 0
M  V30 13242 N 1263.78 -1.38018 0.760839 0
M  V30 13243 C 1264.71 -2.32995 0.153557 0
M  V30 13244 C 1265.69 -1.55234 -0.695448 0
M  V30 13245 O 1266.87 -1.8352 -0.635148 0
M  V30 13246 C 1264 -3.39437 -0.734811 0
M  V30 13247 C 1262.96 -4.27998 0.0120287 0
M  V30 13248 C 1262.28 -5.25359 -0.995067 0
M  V30 13249 C 1263.58 -5.08687 1.18468 0
M  V30 13250 H 1265.28 -2.8403 0.946956 0
M  V30 13251 H 1262.82 -1.36562 0.456816 0
M  V30 13252 H 1264.77 -4.0485 -1.16938 0
M  V30 13253 H 1263.5 -2.86901 -1.56061 0
M  V30 13254 H 1262.16 -3.64102 0.427254 0
M  V30 13255 H 1261.81 -4.69108 -1.81512 0
M  V30 13256 H 1261.51 -5.85469 -0.499969 0
M  V30 13257 H 1263.03 -5.93648 -1.4288 0
M  V30 13258 H 1264.44 -5.67299 0.8273 0
M  V30 13259 H 1262.84 -5.78068 1.61112 0
M  V30 13260 H 1263.91 -4.42 1.99409 0
M  V30 13261 N 1265.25 -0.510493 -1.49103 0
M  V30 13262 C 1266.18 0.251999 -2.32136 0
M  V30 13263 C 1267.16 0.953613 -1.40855 0
M  V30 13264 O 1268.35 0.943178 -1.69758 0
M  V30 13265 C 1265.48 1.31118 -3.21598 0
M  V30 13266 C 1264.43 0.72888 -4.21748 0
M  V30 13267 C 1263.76 1.88928 -5.0021 0
M  V30 13268 C 1265.06 -0.286425 -5.21514 0
M  V30 13269 H 1266.75 -0.441102 -2.96133 0
M  V30 13270 H 1264.3 -0.213577 -1.42407 0
M  V30 13271 H 1266.25 1.8524 -3.78503 0
M  V30 13272 H 1264.98 2.0336 -2.55563 0
M  V30 13273 H 1263.64 0.209336 -3.66002 0
M  V30 13274 H 1263.28 2.59961 -4.30615 0
M  V30 13275 H 1262.98 1.50568 -5.67981 0
M  V30 13276 H 1264.51 2.43465 -5.59962 0
M  V30 13277 H 1265.92 0.166997 -5.73057 0
M  V30 13278 H 1264.32 -0.586361 -5.97228 0
M  V30 13279 H 1265.39 -1.19904 -4.69842 0
M  V30 13280 N 1266.73 1.55688 -0.24474 0
M  V30 13281 C 1267.69 2.20014 0.642382 0
M  V30 13282 C 1268.69 1.16877 1.10437 0
M  V30 13283 O 1269.88 1.41972 1.00943 0
M  V30 13284 C 1267.02 2.84198 1.88267 0
M  V30 13285 H 1268.21 2.9979 0.0811937 0
M  V30 13286 H 1265.76 1.56299 0.00480917 0
M  V30 13287 H 1266.5 2.08354 2.48514 0
M  V30 13288 H 1266.28 3.59747 1.55963 0
M  V30 13289 H 1267.77 3.33434 2.5142 0
M  V30 13290 N 1268.21 -0.0283989 1.57574 0
M  V30 13291 C 1269.46 -0.719077 1.89303 0
M  V30 13292 C 1269.78 -1.75325 0.84211 0
M  V30 13293 O 1269.04 -1.95071 -0.15683 0
M  V30 13294 C 1269.34 -1.4247 3.27776 0
M  V30 13295 C 1269 -0.526442 4.47816 0
M  V30 13296 C 1267.67 -0.279038 4.8039 0
M  V30 13297 C 1270.02 0.0937038 5.21116 0
M  V30 13298 C 1267.35 0.597277 5.83652 0
M  V30 13299 C 1269.7 0.957725 6.25308 0
M  V30 13300 C 1268.36 1.21458 6.56357 0
M  V30 13301 H 1267.63 -0.263129 0.692708 0
M  V30 13302 H 1270.28 0.0210252 1.91488 0
M  V30 13303 H 1268.58 -2.23813 3.21582 0
M  V30 13304 H 1270.28 -1.96466 3.49574 0
M  V30 13305 H 1266.87 -0.729426 4.22347 0
M  V30 13306 H 1271.06 -0.084469 4.96228 0
M  V30 13307 H 1266.31 0.804582 6.06083 0
M  V30 13308 H 1270.49 1.44476 6.81249 0
M  V30 13309 H 1268.11 1.89534 7.36193 0
M  V30 13310 N 1269.69 -1.54705 -0.300681 0
M  V30 13311 C 1270.91 -1.78318 -1.05913 0
M  V30 13312 C 1271.34 -0.541177 -1.80147 0
M  V30 13313 O 1270.7 0.508291 -1.74029 0
M  V30 13314 C 1270.74 -2.99041 -2.01511 0
M  V30 13315 O 1269.85 -2.72188 -3.09818 0
M  V30 13316 H 1269.19 -0.590197 -0.304242 0
M  V30 13317 H 1271.72 -2.01789 -0.338006 0
M  V30 13318 H 1271.73 -3.2702 -2.43971 0
M  V30 13319 H 1270.4 -3.89098 -1.46886 0
M  V30 13320 H 1268.98 -2.55227 -2.71871 0
M  V30 13321 N 1271.17 0.563888 -1.47167 0
M  V30 13322 C 1272.58 0.889156 -1.32537 0
M  V30 13323 C 1272.78 1.99088 -0.310854 0
M  V30 13324 O 1271.84 2.50943 0.27998 0
M  V30 13325 C 1273.15 1.28871 -2.71685 0
M  V30 13326 C 1274.7 1.40051 -2.79919 0
M  V30 13327 C 1275.17 1.83364 -4.19692 0
M  V30 13328 N 1276.67 1.90526 -4.22201 0
M  V30 13329 C 1277.4 2.25355 -5.2726 0
M  V30 13330 N 1276.9 2.58844 -6.42629 0
M  V30 13331 N 1278.69 2.26071 -5.14634 0
M  V30 13332 H 1270.84 -0.163581 -2.11769 0
M  V30 13333 H 1273.1 -0.0105151 -0.947942 0
M  V30 13334 H 1272.81 0.553057 -3.47324 0
M  V30 13335 H 1272.68 2.24629 -3.03021 0
M  V30 13336 H 1275.07 2.12698 -2.04557 0
M  V30 13337 H 1275.15 0.424971 -2.52245 0
M  V30 13338 H 1274.8 1.11289 -4.95557 0
M  V30 13339 H 1274.73 2.81909 -4.44786 0
M  V30 13340 H 1277.22 1.67059 -3.38968 0
M  V30 13341 H 1277.53 2.84427 -7.18555 0
M  V30 13342 H 1275.87 2.56439 -6.4596 0
M  V30 13343 H 1279.07 1.99343 -4.23533 0
M  V30 13344 H 1279.24 2.52885 -5.96618 0
M  V30 13345 N 1272.64 1.35187 0.810078 0
M  V30 13346 C 1273.89 1.28011 1.56389 0
M  V30 13347 C 1274.21 -0.14622 1.94451 0
M  V30 13348 O 1273.48 -1.08185 1.63318 0
M  V30 13349 H 1272.06 0.470837 0.579932 0
M  V30 13350 H 1274.73 1.69249 0.966476 0
M  V30 13351 H 1273.82 1.89362 2.4809 0
M  V30 13352 N 1274.12 -1.03182 1.19127 0
M  V30 13353 C 1275.37 -1.75934 0.986415 0
M  V30 13354 C 1275.68 -1.89519 -0.48392 0
M  V30 13355 O 1276.89 -2.59213 -0.80752 0
M  V30 13356 C 1275.35 -3.16358 1.71597 0
M  V30 13357 C 1274.95 -3.10836 3.22622 0
M  V30 13358 C 1276.7 -3.93426 1.59425 0
M  V30 13359 C 1274.61 -4.46174 3.88179 0
M  V30 13360 H 1273.54 -0.659516 0.365451 0
M  V30 13361 H 1276.19 -1.15497 1.42593 0
M  V30 13362 H 1274.57 -3.77245 1.20426 0
M  V30 13363 H 1275.74 -2.59348 3.80887 0
M  V30 13364 H 1274.06 -2.47266 3.35035 0
M  V30 13365 H 1276.65 -4.93526 2.05757 0
M  V30 13366 H 1277 -4.12678 0.547926 0
M  V30 13367 H 1277.53 -3.39134 2.07925 0
M  V30 13368 H 1274.27 -4.32126 4.92897 0
M  V30 13369 H 1273.79 -4.97729 3.34702 0
M  V30 13370 H 1275.47 -5.15066 3.91556 0
M  V30 13371 N 1275.6 -0.99472 -1.22242 0
M  V30 13372 C 1276.83 -0.689096 -1.94769 0
M  V30 13373 C 1277.24 0.750597 -1.73674 0
M  V30 13374 O 1276.58 1.51836 -1.03399 0
M  V30 13375 C 1276.64 -0.917454 -3.47596 0
M  V30 13376 C 1276.31 -2.34198 -3.92429 0
M  V30 13377 C 1277.3 -3.3216 -3.99957 0
M  V30 13378 C 1274.99 -2.6769 -4.25026 0
M  V30 13379 C 1276.98 -4.61686 -4.3946 0
M  V30 13380 C 1274.67 -3.97435 -4.64208 0
M  V30 13381 C 1275.67 -4.94244 -4.71394 0
M  V30 13382 O 1275.36 -6.2167 -5.09688 0
M  V30 13383 H 1275.09 -0.253914 -0.626501 0
M  V30 13384 H 1277.64 -1.33271 -1.56294 0
M  V30 13385 H 1275.87 -0.21666 -3.86093 0
M  V30 13386 H 1277.56 -0.6068 -4.01339 0
M  V30 13387 H 1278.33 -3.07619 -3.74961 0
M  V30 13388 H 1274.21 -1.93039 -4.18637 0
M  V30 13389 H 1277.75 -5.37248 -4.44983 0
M  V30 13390 H 1273.65 -4.21765 -4.88656 0
M  V30 13391 H 1274.42 -6.25634 -5.27755 0
M  V30 13392 N 1277.08 1.37613 -0.768148 0
M  V30 13393 C 1278.3 2.04579 -0.340892 0
M  V30 13394 C 1278.73 1.57556 1.02751 0
M  V30 13395 O 1278.09 0.734151 1.65771 0
M  V30 13396 C 1278.13 3.58495 -0.389099 0
M  V30 13397 O 1277.24 4.07838 0.611741 0
M  V30 13398 H 1276.58 0.647246 -0.148216 0
M  V30 13399 H 1279.11 1.75999 -1.04333 0
M  V30 13400 H 1279.12 4.07263 -0.245116 0
M  V30 13401 H 1277.79 3.92076 -1.38742 0
M  V30 13402 H 1276.37 3.70399 0.431173 0
M  V30 13403 N 1278.56 0.518393 1.4883 0
M  V30 13404 C 1279.8 -0.0180482 2.04392 0
M  V30 13405 C 1280.16 -1.32666 1.38794 0
M  V30 13406 O 1281.36 -1.94842 1.85176 0
M  V30 13407 C 1279.63 -0.149457 3.57087 0
M  V30 13408 S 1281.19 -0.637636 4.34142 0
M  V30 13409 H 1278.01 0.00651981 0.71097 0
M  V30 13410 H 1280.61 0.69632 1.82679 0
M  V30 13411 H 1279.32 0.807977 4.02368 0
M  V30 13412 H 1278.85 -0.888549 3.83234 0
M  V30 13413 H 1280.86 -1.90406 4.58214 0
M  V30 13414 N 1280.03 -1.55556 0.252993 0
M  V30 13415 C 1281.28 -1.9909 -0.37005 0
M  V30 13416 C 1281.61 -1.1412 -1.57502 0
M  V30 13417 O 1280.86 -0.193471 -1.94741 0
M  V30 13418 C 1281.16 -3.47925 -0.817484 0
M  V30 13419 C 1280.83 -4.50027 0.280398 0
M  V30 13420 C 1279.49 -4.77669 0.581914 0
M  V30 13421 C 1281.84 -5.11096 1.02129 0
M  V30 13422 C 1279.17 -5.63652 1.62829 0
M  V30 13423 C 1281.52 -5.98215 2.05723 0
M  V30 13424 C 1280.19 -6.24186 2.36533 0
M  V30 13425 H 1279.46 -0.728522 -0.135411 0
M  V30 13426 H 1282.1 -1.88046 0.36209 0
M  V30 13427 H 1280.41 -3.56333 -1.62893 0
M  V30 13428 H 1282.11 -3.79001 -1.30993 0
M  V30 13429 H 1278.7 -4.28585 0.0352579 0
M  V30 13430 H 1282.88 -4.89784 0.801603 0
M  V30 13431 H 1278.14 -5.82028 1.87227 0
M  V30 13432 H 1282.31 -6.44575 2.6362 0
M  V30 13433 H 1279.94 -6.90607 3.17752 0
M  V30 13434 N 1281.51 0.0200419 -1.57587 0
M  V30 13435 C 1282.74 0.724241 -1.94344 0
M  V30 13436 C 1283.16 1.67612 -0.853688 0
M  V30 13437 O 1282.52 1.80303 0.189873 0
M  V30 13438 C 1282.57 1.44967 -3.30177 0
M  V30 13439 O 1281.67 2.56326 -3.23064 0
M  V30 13440 H 1281.01 0.194142 -0.634984 0
M  V30 13441 H 1283.54 -0.0271756 -2.04582 0
M  V30 13442 H 1283.55 1.81758 -3.65278 0
M  V30 13443 H 1282.23 0.75161 -4.09052 0
M  V30 13444 H 1280.81 2.22011 -2.99609 0
M  V30 13445 N 1282.99 1.54862 0.292472 0
M  V30 13446 C 1284.24 1.74203 1.02458 0
M  V30 13447 C 1284.56 0.535398 1.87506 0
M  V30 13448 O 1283.83 -0.450164 1.90658 0
M  V30 13449 H 1282.41 0.642369 0.381276 0
M  V30 13450 H 1285.07 1.92232 0.321398 0
M  V30 13451 H 1284.17 2.63486 1.67277 0
M  V30 13452 N 1284.47 -0.556076 1.47464 0
M  V30 13453 C 1285.71 -1.31515 1.54375 0
M  V30 13454 C 1286.05 -1.93106 0.205837 0
M  V30 13455 O 1285.32 -1.77927 -0.785643 0
M  V30 13456 C 1285.61 -2.4244 2.66261 0
M  V30 13457 C 1285.46 -1.8571 4.09673 0
M  V30 13458 C 1286.78 -3.4436 2.74051 0
M  V30 13459 H 1283.9 -0.476817 0.561974 0
M  V30 13460 H 1286.54 -0.622157 1.79525 0
M  V30 13461 H 1284.69 -3.01551 2.44948 0
M  V30 13462 H 1286.36 -1.30851 4.42353 0
M  V30 13463 H 1284.6 -1.16379 4.17898 0
M  V30 13464 H 1285.27 -2.65904 4.83735 0
M  V30 13465 H 1287.75 -2.95169 2.93282 0
M  V30 13466 H 1286.63 -4.194 3.54111 0
M  V30 13467 H 1286.89 -4.03281 1.81155 0
M  V30 13468 N 1285.95 -1.35615 -0.802897 0
M  V30 13469 C 1286.88 -1.24695 -1.92312 0
M  V30 13470 C 1287.89 -0.169409 -1.61916 0
M  V30 13471 O 1289.08 -0.422995 -1.73416 0
M  V30 13472 C 1286.18 -0.898229 -3.2678 0
M  V30 13473 C 1285.35 -2.07489 -3.85054 0
M  V30 13474 C 1284.41 -1.70137 -4.97936 0
M  V30 13475 O 1283.44 -2.42057 -5.15167 0
M  V30 13476 N 1284.64 -0.627153 -5.77102 0
M  V30 13477 H 1287.41 -2.21208 -2.02205 0
M  V30 13478 H 1284.97 -1.28832 -0.980503 0
M  V30 13479 H 1286.96 -0.629766 -3.9977 0
M  V30 13480 H 1285.53 -0.0226571 -3.12592 0
M  V30 13481 H 1284.75 -2.50694 -3.04214 0
M  V30 13482 H 1286.04 -2.86133 -4.2072 0
M  V30 13483 H 1285.44 -0.0296879 -5.65692 0
M  V30 13484 H 1283.99 -0.41848 -6.50455 0
M  V30 13485 N 1287.43 1.02549 -1.19673 0
M  V30 13486 C 1288.65 1.8016 -1.02748 0
M  V30 13487 C 1289.08 1.83372 0.419105 0
M  V30 13488 O 1288.43 1.26222 1.30144 0
M  V30 13489 C 1288.48 3.22907 -1.60509 0
M  V30 13490 O 1287.59 4.03823 -0.836702 0
M  V30 13491 H 1286.93 0.556027 -0.362946 0
M  V30 13492 H 1289.46 1.29047 -1.5877 0
M  V30 13493 H 1289.47 3.73646 -1.63868 0
M  V30 13494 H 1288.14 3.19885 -2.65794 0
M  V30 13495 H 1286.72 3.6245 -0.876626 0
M  V30 13496 N 1288.9 1.00119 1.21713 0
M  V30 13497 C 1289.83 0.578504 2.2622 0
M  V30 13498 C 1290.81 -0.398777 1.6536 0
M  V30 13499 O 1292 -0.287596 1.92059 0
M  V30 13500 C 1289.13 -0.0994508 3.47158 0
M  V30 13501 C 1288.08 0.79722 4.2051 0
M  V30 13502 C 1287.41 -0.0141125 5.34698 0
M  V30 13503 C 1288.71 2.09802 4.7831 0
M  V30 13504 H 1290.4 1.45208 2.6183 0
M  V30 13505 H 1287.95 0.699656 1.2586 0
M  V30 13506 H 1289.9 -0.406605 4.19434 0
M  V30 13507 H 1288.63 -1.00763 3.10667 0
M  V30 13508 H 1287.29 1.08814 3.50079 0
M  V30 13509 H 1286.93 -0.923468 4.9445 0
M  V30 13510 H 1286.63 0.582883 5.84702 0
M  V30 13511 H 1288.16 -0.31517 6.09786 0
M  V30 13512 H 1289.57 1.85427 5.42485 0
M  V30 13513 H 1287.97 2.64455 5.38687 0
M  V30 13514 H 1289.04 2.77132 3.97902 0
M  V30 13515 N 1290.38 -1.37203 0.775435 0
M  V30 13516 C 1291.34 -2.28566 0.170406 0
M  V30 13517 C 1292.34 -1.48195 -0.624085 0
M  V30 13518 O 1293.53 -1.68364 -0.447132 0
M  V30 13519 C 1290.67 -3.32186 -0.765829 0
M  V30 13520 H 1291.86 -2.8358 0.975824 0
M  V30 13521 H 1289.41 -1.46531 0.543895 0
M  V30 13522 H 1290.15 -2.82303 -1.59611 0
M  V30 13523 H 1289.93 -3.91598 -0.198251 0
M  V30 13524 H 1291.42 -4.0045 -1.18446 0
M  V30 13525 N 1291.86 -0.526279 -1.48553 0
M  V30 13526 C 1293.08 0.00731432 -2.07399 0
M  V30 13527 C 1293.51 1.27737 -1.38075 0
M  V30 13528 O 1292.87 1.75741 -0.445503 0
M  V30 13529 C 1292.92 0.218126 -3.5994 0
M  V30 13530 O 1292.02 1.28759 -3.91784 0
M  V30 13531 H 1291.36 -0.0374784 -0.662941 0
M  V30 13532 H 1293.89 -0.733133 -1.91014 0
M  V30 13533 H 1293.9 0.44192 -4.056 0
M  V30 13534 H 1292.58 -0.709668 -4.09801 0
M  V30 13535 H 1291.15 1.04674 -3.57907 0
M  V30 13536 N 1293.34 1.5542 -0.261239 0
M  V30 13537 C 1294.75 1.85161 0.239195 0
M  V30 13538 C 1295.1 1.18319 1.56509 0
M  V30 13539 O 1294.22 0.4666 2.1131 0
M  V30 13540 C 1294.82 3.3592 0.440781 0
M  V30 13541 C 1293.38 3.65837 0.885461 0
M  V30 13542 C 1292.53 2.77285 -0.0291982 0
M  V30 13543 H 1295.48 1.51158 -0.483417 0
M  V30 13544 H 1295.5 3.58276 1.28136 0
M  V30 13545 H 1295.01 3.84541 -0.524382 0
M  V30 13546 H 1293.11 3.22705 1.86259 0
M  V30 13547 H 1293.22 4.73469 0.732394 0
M  V30 13548 H 1291.59 2.50045 0.484701 0
M  V30 13549 H 1292.37 3.28716 -0.989992 0
M  V30 13550 N 1294.82 -0.0116844 1.57596 0
M  V30 13551 C 1296.23 -0.55604 1.78228 0
M  V30 13552 C 1296.58 -1.74624 0.894474 0
M  V30 13553 O 1295.7 -2.16196 0.0938498 0
M  V30 13554 C 1296.3 -1.0155 3.23223 0
M  V30 13555 C 1294.86 -1.50525 3.44992 0
M  V30 13556 C 1294 -0.451133 2.73606 0
M  V30 13557 H 1296.95 0.214516 1.57243 0
M  V30 13558 H 1296.98 -1.88208 3.30693 0
M  V30 13559 H 1296.49 -0.149048 3.87814 0
M  V30 13560 H 1294.59 -2.39298 2.856 0
M  V30 13561 H 1294.7 -1.54076 4.53649 0
M  V30 13562 H 1293.07 -0.910135 2.37884 0
M  V30 13563 H 1293.85 0.406152 3.40889 0
M  V30 13564 N 1296.29 -1.55015 -0.284256 0
M  V30 13565 C 1297.71 -1.46603 -0.630845 0
M  V30 13566 C 1297.91 -0.67091 -1.90003 0
M  V30 13567 O 1296.97 -0.185266 -2.51819 0
M  V30 13568 C 1298.28 -2.9072 -0.768268 0
M  V30 13569 C 1299.83 -3.00866 -0.863061 0
M  V30 13570 C 1300.3 -4.46214 -1.03235 0
M  V30 13571 N 1301.79 -4.49994 -1.09815 0
M  V30 13572 C 1302.53 -5.5966 -1.24773 0
M  V30 13573 N 1302.02 -6.79215 -1.36523 0
M  V30 13574 N 1303.82 -5.4738 -1.27795 0
M  V30 13575 H 1295.97 -2.05171 0.549409 0
M  V30 13576 H 1298.23 -0.929915 0.184288 0
M  V30 13577 H 1297.94 -3.51575 0.0936899 0
M  V30 13578 H 1297.81 -3.39096 -1.65209 0
M  V30 13579 H 1300.2 -2.40114 -1.71549 0
M  V30 13580 H 1300.28 -2.5576 0.0451267 0
M  V30 13581 H 1299.92 -5.07564 -0.18462 0
M  V30 13582 H 1299.85 -4.88965 -1.95502 0
M  V30 13583 H 1302.34 -3.63869 -1.0202 0
M  V30 13584 H 1302.66 -7.58547 -1.47739 0
M  V30 13585 H 1301 -6.82048 -1.33548 0
M  V30 13586 H 1304.19 -4.52921 -1.18238 0
M  V30 13587 H 1304.37 -6.32892 -1.39109 0
M  V30 13588 N 1297.77 0.548248 -1.47757 0
M  V30 13589 C 1298.7 1.66999 -1.56984 0
M  V30 13590 C 1299.72 1.56302 -0.455372 0
M  V30 13591 O 1300.91 1.63096 -0.725399 0
M  V30 13592 C 1298.01 3.0553 -1.46645 0
M  V30 13593 C 1297.18 3.41892 -2.72816 0
M  V30 13594 C 1296.24 4.59624 -2.56187 0
M  V30 13595 O 1295.26 4.63757 -3.30028 0
M  V30 13596 N 1296.47 5.56675 -1.64601 0
M  V30 13597 H 1299.23 1.59527 -2.53715 0
M  V30 13598 H 1296.79 0.735101 -1.44249 0
M  V30 13599 H 1298.78 3.82137 -1.33242 0
M  V30 13600 H 1297.35 3.0718 -0.57961 0
M  V30 13601 H 1296.57 2.54644 -3.00916 0
M  V30 13602 H 1297.86 3.62965 -3.56559 0
M  V30 13603 H 1297.26 5.561 -1.03778 0
M  V30 13604 H 1295.82 6.32573 -1.57146 0
M  V30 13605 N 1299.25 1.36039 0.795694 0
M  V30 13606 C 1300.21 1.29709 1.88966 0
M  V30 13607 C 1301.21 0.206142 1.59473 0
M  V30 13608 O 1302.4 0.460534 1.68002 0
M  V30 13609 C 1299.53 1.00922 3.25619 0
M  V30 13610 H 1300.73 2.26993 1.95995 0
M  V30 13611 H 1298.28 1.2072 0.992791 0
M  V30 13612 H 1299.02 0.0407027 3.24274 0
M  V30 13613 H 1298.8 1.79863 3.48413 0
M  V30 13614 H 1300.29 0.990826 4.05675 0
M  V30 13615 N 1300.73 -1.01913 1.20215 0
M  V30 13616 C 1301.95 -1.79613 1.03702 0
M  V30 13617 C 1302.38 -1.83591 -0.409374 0
M  V30 13618 O 1301.74 -1.26911 -1.29473 0
M  V30 13619 C 1301.78 -3.22052 1.62219 0
M  V30 13620 O 1300.89 -4.03374 0.858106 0
M  V30 13621 H 1300.23 -0.554095 0.365889 0
M  V30 13622 H 1302.76 -1.28203 1.59452 0
M  V30 13623 H 1302.77 -3.72772 1.65847 0
M  V30 13624 H 1301.44 -3.18471 2.67487 0
M  V30 13625 H 1300.02 -3.6198 0.895835 0
M  V30 13626 N 1302.21 -1.00763 -1.2118 0
M  V30 13627 C 1303.62 -0.724746 -1.72059 0
M  V30 13628 C 1303.97 0.757413 -1.80991 0
M  V30 13629 O 1303.09 1.59152 -1.46627 0
M  V30 13630 C 1303.69 -1.30893 -3.12494 0
M  V30 13631 C 1302.25 -1.07511 -3.60719 0
M  V30 13632 C 1301.39 -1.42014 -2.38175 0
M  V30 13633 H 1304.35 -1.17821 -1.0632 0
M  V30 13634 H 1304.37 -0.694919 -3.741 0
M  V30 13635 H 1303.88 -2.38767 -3.05961 0
M  V30 13636 H 1301.98 -0.0136518 -3.72597 0
M  V30 13637 H 1302.09 -1.74885 -4.4604 0
M  V30 13638 H 1300.46 -0.838972 -2.40486 0
M  V30 13639 H 1301.24 -2.50924 -2.34291 0
M  V30 13640 N 1303.68 1.3679 -0.7827 0
M  V30 13641 C 1304.96 1.93639 -0.276278 0
M  V30 13642 C 1305.34 1.7153 1.23048 0
M  V30 13643 O 1304.69 1.07037 2.01879 0
M  V30 13644 C 1304.9 3.42672 -0.661586 0
M  V30 13645 C 1306.25 4.19786 -0.637538 0
M  V30 13646 O 1307.27 3.51082 -0.601645 0
M  V30 13647 O 1306.13 5.42323 -0.674408 0
M  V30 13648 H 1303.22 0.824307 -0.0666832 0
M  V30 13649 H 1305.77 1.46012 -0.864792 0
M  V30 13650 H 1304.54 3.52393 -1.70103 0
M  V30 13651 H 1304.17 3.97573 -0.0465987 0
M  V30 13652 N 1305.16 0.53415 1.48272 0
M  V30 13653 C 1306.09 -0.215037 2.32508 0
M  V30 13654 C 1307.07 -0.931083 1.42355 0
M  V30 13655 O 1308.26 -0.916051 1.71237 0
M  V30 13656 C 1305.39 -1.25985 3.23643 0
M  V30 13657 C 1304.34 -0.661692 4.22854 0
M  V30 13658 C 1303.67 -1.80946 5.03153 0
M  V30 13659 C 1304.97 0.369358 5.20992 0
M  V30 13660 H 1306.66 0.488158 2.95394 0
M  V30 13661 H 1304.21 0.236206 1.4205 0
M  V30 13662 H 1306.16 -1.79195 3.81402 0
M  V30 13663 H 1304.89 -1.99268 2.58766 0
M  V30 13664 H 1303.54 -0.151082 3.66289 0
M  V30 13665 H 1303.19 -2.53077 4.34696 0
M  V30 13666 H 1302.89 -1.41513 5.70305 0
M  V30 13667 H 1304.42 -2.34526 5.63764 0
M  V30 13668 H 1305.83 -0.0758076 5.7325 0
M  V30 13669 H 1304.23 0.681301 5.9622 0
M  V30 13670 H 1305.3 1.27363 4.67875 0
M  V30 13671 N 1306.64 -1.55279 0.269478 0
M  V30 13672 C 1307.87 -2.03876 -0.352418 0
M  V30 13673 C 1308.28 -1.14804 -1.49885 0
M  V30 13674 O 1307.64 -0.166989 -1.81734 0
M  V30 13675 C 1307.69 -3.51634 -0.838799 0
M  V30 13676 O 1307.41 -4.37316 0.261972 0
M  V30 13677 C 1308.91 -4.16094 -1.52909 0
M  V30 13678 H 1306.13 -0.66608 -0.0811043 0
M  V30 13679 H 1308.68 -2.00551 0.399929 0
M  V30 13680 H 1306.83 -3.55421 -1.54125 0
M  V30 13681 H 1307.25 -5.24383 -0.111013 0
M  V30 13682 H 1308.72 -5.21102 -1.82089 0
M  V30 13683 H 1309.2 -3.63928 -2.45872 0
M  V30 13684 H 1309.8 -4.16293 -0.87063 0
M  V30 13685 N 1308.12 0.00332656 -1.576 0
M  V30 13686 C 1309.08 0.980628 -2.07163 0
M  V30 13687 C 1310.08 1.27455 -0.980402 0
M  V30 13688 O 1311.27 1.22029 -1.24317 0
M  V30 13689 C 1308.4 2.30647 -2.51028 0
M  V30 13690 H 1309.6 0.551982 -2.94776 0
M  V30 13691 H 1307.15 0.250728 -1.54276 0
M  V30 13692 H 1307.88 2.78207 -1.66647 0
M  V30 13693 H 1307.67 2.10635 -3.30719 0
M  V30 13694 H 1309.16 3.00761 -2.89711 0
M  V30 13695 N 1309.6 1.55164 0.276031 0
M  V30 13696 C 1310.82 1.7998 1.03063 0
M  V30 13697 C 1311.25 0.569769 1.79263 0
M  V30 13698 O 1310.6 -0.48054 1.74816 0
M  V30 13699 C 1310.65 3.02209 1.96728 0
M  V30 13700 O 1309.76 2.77083 3.05449 0
M  V30 13701 H 1309.1 0.594963 0.294814 0
M  V30 13702 H 1311.63 2.02301 0.305861 0
M  V30 13703 H 1311.64 3.3086 2.38738 0
M  V30 13704 H 1310.31 3.91386 1.40677 0
M  V30 13705 H 1308.89 2.5952 2.67776 0
M  V30 13706 N 1311.07 -0.540404 1.48045 0
M  V30 13707 C 1312.3 -1.32656 1.59427 0
M  V30 13708 C 1312.72 -1.86419 0.250924 0
M  V30 13709 O 1312.08 -1.63861 -0.775838 0
M  V30 13710 C 1312.13 -2.46062 2.63602 0
M  V30 13711 O 1311.23 -3.48794 2.20038 0
M  V30 13712 H 1310.58 -0.393334 0.534962 0
M  V30 13713 H 1313.11 -0.651363 1.93955 0
M  V30 13714 H 1313.12 -2.92396 2.84549 0
M  V30 13715 H 1311.79 -2.06291 3.61133 0
M  V30 13716 H 1310.37 -3.0865 2.0926 0
M  V30 13717 N 1312.55 -1.36459 -0.788468 0
M  V30 13718 C 1313.52 -1.3071 -1.88275 0
M  V30 13719 C 1314.52 -0.214596 -1.59362 0
M  V30 13720 O 1315.71 -0.469437 -1.67756 0
M  V30 13721 C 1312.84 -1.02648 -3.25079 0
M  V30 13722 H 1314.03 -2.28029 -1.94788 0
M  V30 13723 H 1311.58 -1.21245 -0.986375 0
M  V30 13724 H 1312.32 -0.0578992 -3.24248 0
M  V30 13725 H 1312.1 -1.81708 -3.47454 0
M  V30 13726 H 1313.59 -1.01233 -4.05144 0
M  V30 13727 N 1314.03 1.01274 -1.20754 0
M  V30 13728 C 1314.96 2.10029 -0.917628 0
M  V30 13729 C 1315.98 1.62516 0.0961411 0
M  V30 13730 O 1317.16 1.77986 -0.135371 0
M  V30 13731 C 1314.26 3.37037 -0.354891 0
M  V30 13732 C 1313.44 4.1367 -1.42113 0
M  V30 13733 C 1312.5 5.18974 -0.869023 0
M  V30 13734 O 1311.52 5.47671 -1.55063 0
M  V30 13735 N 1312.72 5.79619 0.319631 0
M  V30 13736 H 1315.49 2.35485 -1.85383 0
M  V30 13737 H 1313.05 1.17695 -1.11173 0
M  V30 13738 H 1315.04 4.0469 0.0286895 0
M  V30 13739 H 1313.61 3.088 0.485956 0
M  V30 13740 H 1312.83 3.40931 -1.97889 0
M  V30 13741 H 1314.12 4.61649 -2.13911 0
M  V30 13742 H 1313.52 5.58646 0.89059 0
M  V30 13743 H 1312.08 6.48603 0.644807 0
M  V30 13744 N 1315.51 1.01404 1.20644 0
M  V30 13745 C 1316.47 0.586941 2.21557 0
M  V30 13746 C 1317.47 -0.341543 1.57131 0
M  V30 13747 O 1318.66 -0.130585 1.7371 0
M  V30 13748 C 1315.79 -0.143248 3.40599 0
M  V30 13749 H 1316.99 1.47964 2.60858 0
M  V30 13750 H 1314.54 0.803551 1.34063 0
M  V30 13751 H 1315.28 -1.05097 3.06798 0
M  V30 13752 H 1315.06 0.523716 3.88587 0
M  V30 13753 H 1316.55 -0.429504 4.15385 0
M  V30 13754 N 1316.99 -1.36373 0.789944 0
M  V30 13755 C 1318.21 -2.04011 0.373396 0
M  V30 13756 C 1318.64 -1.59171 -1.00231 0
M  V30 13757 O 1318 -0.760431 -1.64582 0
M  V30 13758 C 1318.04 -3.5783 0.446083 0
M  V30 13759 O 1317.15 -4.08759 -0.54678 0
M  V30 13760 H 1316.49 -0.644807 0.158495 0
M  V30 13761 H 1319.02 -1.74317 1.0712 0
M  V30 13762 H 1319.03 -4.06822 0.309877 0
M  V30 13763 H 1317.7 -3.89819 1.44962 0
M  V30 13764 H 1316.28 -3.71038 -0.372192 0
M  V30 13765 N 1318.47 -0.542005 -1.47987 0
M  V30 13766 C 1319.71 -0.0123299 -2.02796 0
M  V30 13767 C 1320.04 1.32789 -1.41707 0
M  V30 13768 O 1319.32 1.86048 -0.567119 0
M  V30 13769 C 1319.6 0.0969277 -3.5997 0
M  V30 13770 C 1319.46 -1.26931 -4.31519 0
M  V30 13771 C 1320.77 0.817854 -4.32434 0
M  V30 13772 H 1317.89 -0.00595479 -0.736976 0
M  V30 13773 H 1320.54 -0.70136 -1.76581 0
M  V30 13774 H 1318.69 0.683755 -3.82436 0
M  V30 13775 H 1320.36 -1.89817 -4.20437 0
M  V30 13776 H 1318.6 -1.84804 -3.92467 0
M  V30 13777 H 1319.27 -1.14573 -5.39979 0
M  V30 13778 H 1321.75 0.319749 -4.1487 0
M  V30 13779 H 1320.62 0.863225 -5.4207 0
M  V30 13780 H 1320.88 1.87075 -4.00569 0
M  V30 13781 N 1319.94 1.55134 -0.277709 0
M  V30 13782 C 1320.87 2.256 0.602232 0
M  V30 13783 C 1321.85 1.24708 1.15681 0
M  V30 13784 O 1323.04 1.53433 1.19046 0
M  V30 13785 C 1320.17 2.97907 1.78519 0
M  V30 13786 C 1319.12 4.0575 1.36203 0
M  V30 13787 C 1318.45 4.65644 2.62829 0
M  V30 13788 C 1319.75 5.19801 0.510327 0
M  V30 13789 H 1321.44 2.99396 0.0145622 0
M  V30 13790 H 1318.99 1.43999 0.00556389 0
M  V30 13791 H 1320.94 3.45915 2.40668 0
M  V30 13792 H 1319.67 2.21649 2.39873 0
M  V30 13793 H 1318.33 3.58557 0.763726 0
M  V30 13794 H 1317.97 3.86053 3.22447 0
M  V30 13795 H 1317.67 5.38463 2.35227 0
M  V30 13796 H 1319.2 5.16403 3.25823 0
M  V30 13797 H 1320.61 5.63845 1.03689 0
M  V30 13798 H 1319.01 5.99197 0.329073 0
M  V30 13799 H 1320.08 4.82614 -0.470273 0
M  V30 13800 N 1321.42 0.00503138 1.57599 0
M  V30 13801 C 1322.37 -0.984754 2.08737 0
M  V30 13802 C 1323.34 -1.33822 0.983915 0
M  V30 13803 O 1324.52 -1.43572 1.25665 0
M  V30 13804 C 1321.66 -2.26984 2.59946 0
M  V30 13805 C 1320.78 -1.97496 3.84212 0
M  V30 13806 C 1319.91 -3.20123 4.23904 0
M  V30 13807 C 1318.95 -2.86344 5.40993 0
M  V30 13808 N 1318.09 -4.01524 5.75954 0
M  V30 13809 H 1322.93 -0.541737 2.93034 0
M  V30 13810 H 1320.46 -0.255834 1.44858 0
M  V30 13811 H 1322.42 -3.02117 2.87717 0
M  V30 13812 H 1321.05 -2.68946 1.78516 0
M  V30 13813 H 1320.1 -1.12709 3.63319 0
M  V30 13814 H 1321.42 -1.68602 4.69441 0
M  V30 13815 H 1320.57 -4.03598 4.52983 0
M  V30 13816 H 1319.31 -3.5216 3.37394 0
M  V30 13817 H 1318.31 -2.01278 5.11632 0
M  V30 13818 H 1319.54 -2.5555 6.29183 0
M  V30 13819 H 1317.49 -4.33447 4.92402 0
M  V30 13820 H 1317.4 -3.76171 6.55768 0
M  V30 13821 H 1318.67 -4.85772 6.09628 0
M  V30 13822 N 1322.9 -1.55308 -0.267798 0
M  V30 13823 C 1323.83 -1.8348 -1.35685 0
M  V30 13824 C 1324.81 -0.688228 -1.47317 0
M  V30 13825 O 1325.99 -0.931781 -1.6386 0
M  V30 13826 C 1323.12 -2.00103 -2.7327 0
M  V30 13827 C 1322.17 -3.22675 -2.78896 0
M  V30 13828 S 1323 -4.79895 -2.37615 0
M  V30 13829 C 1324.16 -4.99497 -3.77165 0
M  V30 13830 H 1324.39 -2.75565 -1.11585 0
M  V30 13831 H 1321.92 -1.47146 -0.467703 0
M  V30 13832 H 1323.88 -2.10364 -3.52501 0
M  V30 13833 H 1322.54 -1.08897 -2.94619 0
M  V30 13834 H 1321.73 -3.31209 -3.7989 0
M  V30 13835 H 1321.34 -3.11031 -2.07691 0
M  V30 13836 H 1323.63 -4.85558 -4.72483 0
M  V30 13837 H 1324.57 -6.01534 -3.73581 0
M  V30 13838 H 1324.98 -4.2745 -3.68709 0
M  V30 13839 N 1324.38 0.532545 -1.4833 0
M  V30 13840 C 1325.31 1.64662 -1.65555 0
M  V30 13841 C 1326.29 1.62447 -0.50447 0
M  V30 13842 O 1327.47 1.79684 -0.736712 0
M  V30 13843 C 1324.6 3.03256 -1.69272 0
M  V30 13844 C 1323.56 3.20329 -2.83854 0
M  V30 13845 C 1322.88 4.59958 -2.72659 0
M  V30 13846 C 1324.18 3.03345 -4.25181 0
M  V30 13847 H 1325.88 1.50502 -2.58823 0
M  V30 13848 H 1323.42 0.722612 -1.24556 0
M  V30 13849 H 1325.38 3.81064 -1.79911 0
M  V30 13850 H 1324.1 3.18433 -0.725805 0
M  V30 13851 H 1322.76 2.44937 -2.72766 0
M  V30 13852 H 1322.41 4.71967 -1.73942 0
M  V30 13853 H 1322.11 4.72327 -3.49544 0
M  V30 13854 H 1323.63 5.39869 -2.85262 0
M  V30 13855 H 1325.05 3.70948 -4.37116 0
M  V30 13856 H 1323.44 3.27208 -5.03045 0
M  V30 13857 H 1324.51 1.998 -4.41824 0
M  V30 13858 N 1325.86 1.36875 0.78122 0
M  V30 13859 C 1326.79 1.27738 1.90304 0
M  V30 13860 C 1327.8 0.195147 1.61626 0
M  V30 13861 O 1328.99 0.450531 1.72721 0
M  V30 13862 C 1326.09 0.950103 3.25309 0
M  V30 13863 C 1325.26 2.13589 3.81705 0
M  V30 13864 C 1324.32 1.78037 4.95166 0
M  V30 13865 O 1323.35 2.50223 5.11251 0
M  V30 13866 N 1324.55 0.718886 5.76031 0
M  V30 13867 H 1327.31 2.24397 1.98661 0
M  V30 13868 H 1324.88 1.30376 0.959883 0
M  V30 13869 H 1326.87 0.693286 3.98717 0
M  V30 13870 H 1325.44 0.0723849 3.12516 0
M  V30 13871 H 1324.66 2.55502 3.00187 0
M  V30 13872 H 1325.95 2.9279 4.16114 0
M  V30 13873 H 1325.34 0.119681 5.65573 0
M  V30 13874 H 1323.9 0.521909 6.49707 0
M  V30 13875 N 1327.33 -1.00632 1.21289 0
M  V30 13876 C 1328.3 -2.07543 0.972548 0
M  V30 13877 C 1329.3 -1.60703 -0.0559244 0
M  V30 13878 O 1330.49 -1.73255 0.181213 0
M  V30 13879 C 1327.62 -3.37696 0.466297 0
M  V30 13880 H 1328.81 -2.30298 1.92101 0
M  V30 13881 H 1326.36 -1.17588 1.02969 0
M  V30 13882 H 1327.1 -3.2062 -0.487148 0
M  V30 13883 H 1326.88 -3.73024 1.20813 0
M  V30 13884 H 1328.37 -4.16388 0.317962 0
M  V30 13885 N 1328.81 -1.02043 -1.20104 0
M  V30 13886 C 1329.77 -0.598682 -2.21243 0
M  V30 13887 C 1330.77 0.333205 -1.5731 0
M  V30 13888 O 1331.96 0.12137 -1.73777 0
M  V30 13889 C 1329.1 0.125183 -3.4067 0
M  V30 13890 H 1330.29 -1.49345 -2.60069 0
M  V30 13891 H 1327.84 -0.810649 -1.33634 0
M  V30 13892 H 1328.58 1.03469 -3.07351 0
M  V30 13893 H 1328.36 -0.544316 -3.88304 0
M  V30 13894 H 1329.85 0.407469 -4.15607 0
M  V30 13895 N 1330.29 1.35952 -0.797165 0
M  V30 13896 C 1331.71 1.52218 -0.479765 0
M  V30 13897 C 1331.91 1.74898 1.00064 0
M  V30 13898 O 1330.96 1.78495 1.78594 0
M  V30 13899 C 1332.28 2.70328 -1.31694 0
M  V30 13900 C 1333.82 2.84202 -1.31142 0
M  V30 13901 C 1334.3 4.05325 -2.13251 0
M  V30 13902 N 1335.79 4.12485 -2.10737 0
M  V30 13903 C 1336.52 5.053 -2.71033 0
M  V30 13904 N 1336.02 6.03509 -3.40219 0
M  V30 13905 N 1337.81 4.97975 -2.60725 0
M  V30 13906 H 1329.96 1.19486 -1.75604 0
M  V30 13907 H 1332.23 0.58383 -0.746892 0
M  V30 13908 H 1331.93 2.60116 -2.36712 0
M  V30 13909 H 1331.81 3.64684 -0.963607 0
M  V30 13910 H 1334.19 2.9387 -0.269131 0
M  V30 13911 H 1334.28 1.9073 -1.70457 0
M  V30 13912 H 1333.92 3.96417 -3.17515 0
M  V30 13913 H 1333.85 4.97959 -1.71302 0
M  V30 13914 H 1336.34 3.42174 -1.6039 0
M  V30 13915 H 1336.65 6.70909 -3.83537 0
M  V30 13916 H 1335 6.03711 -3.44322 0
M  V30 13917 H 1338.19 4.20203 -2.0627 0
M  V30 13918 H 1338.36 5.70119 -3.08007 0
M  V30 13919 N 1331.77 0.549846 1.47697 0
M  V30 13920 C 1333.05 -0.0422793 1.95554 0
M  V30 13921 C 1333.43 -1.49303 1.49238 0
M  V30 13922 O 1332.77 -2.16598 0.727844 0
M  V30 13923 C 1332.98 0.0955552 3.48869 0
M  V30 13924 C 1334.33 -0.0535698 4.24566 0
M  V30 13925 O 1335.36 0.0227365 3.56193 0
M  V30 13926 O 1334.21 -0.21645 5.46071 0
M  V30 13927 H 1331.31 -0.0682465 0.824179 0
M  V30 13928 H 1333.85 0.615849 1.58131 0
M  V30 13929 H 1332.63 1.10536 3.75363 0
M  V30 13930 H 1332.25 -0.600522 3.93039 0
M  V30 13931 N 1333.25 -1.54984 0.285932 0
M  V30 13932 C 1334.18 -2.19087 -0.638448 0
M  V30 13933 C 1335.16 -1.1553 -1.14418 0
M  V30 13934 O 1336.34 -1.44105 -1.21516 0
M  V30 13935 C 1333.47 -2.82273 -1.87188 0
M  V30 13936 C 1332.51 -3.99226 -1.5007 0
M  V30 13937 S 1333.35 -5.32463 -0.569552 0
M  V30 13938 C 1334.5 -5.99124 -1.81112 0
M  V30 13939 H 1334.74 -2.97152 -0.0938139 0
M  V30 13940 H 1332.27 -1.54241 0.0701344 0
M  V30 13941 H 1334.23 -3.19307 -2.57979 0
M  V30 13942 H 1332.89 -2.04082 -2.38767 0
M  V30 13943 H 1332.08 -4.42166 -2.41878 0
M  V30 13944 H 1331.68 -3.63671 -0.872871 0
M  V30 13945 H 1333.98 -6.19015 -2.75367 0
M  V30 13946 H 1334.92 -6.93623 -1.42454 0
M  V30 13947 H 1335.33 -5.28599 -1.98098 0
M  V30 13948 N 1334.72 -0.0133892 -1.57594 0
M  V30 13949 C 1335.97 0.669624 -1.91426 0
M  V30 13950 C 1336.3 1.72675 -0.888656 0
M  V30 13951 O 1335.58 1.94288 0.0908138 0
M  V30 13952 C 1335.86 1.30051 -3.35796 0
M  V30 13953 C 1335.71 0.254021 -4.49082 0
M  V30 13954 C 1337.03 2.22297 -3.79832 0
M  V30 13955 H 1334.15 0.241958 -0.69615 0
M  V30 13956 H 1336.79 -0.0674278 -1.8988 0
M  V30 13957 H 1334.94 1.92871 -3.37243 0
M  V30 13958 H 1336.62 -0.375524 -4.59769 0
M  V30 13959 H 1334.86 -0.422267 -4.3174 0
M  V30 13960 H 1335.53 0.734756 -5.47088 0
M  V30 13961 H 1338.01 1.69481 -3.8002 0
M  V30 13962 H 1336.88 2.634 -4.81572 0
M  V30 13963 H 1337.14 3.10764 -3.14449 0
M  V30 13964 N 1336.2 1.55448 0.259558 0
M  V30 13965 C 1337.43 1.80727 1.00723 0
M  V30 13966 C 1337.85 0.587354 1.79431 0
M  V30 13967 O 1337.2 -0.443819 1.77021 0
M  V30 13968 C 1337.25 3.04064 1.95517 0
M  V30 13969 O 1336.97 4.21346 1.19996 0
M  V30 13970 C 1338.48 3.42049 2.81988 0
M  V30 13971 H 1335.7 0.601713 0.296956 0
M  V30 13972 H 1338.24 2.02486 0.286273 0
M  V30 13973 H 1336.39 2.84392 2.63058 0
M  V30 13974 H 1336.81 4.91164 1.84006 0
M  V30 13975 H 1338.28 4.31485 3.44274 0
M  V30 13976 H 1338.76 2.62059 3.52451 0
M  V30 13977 H 1339.37 3.64027 2.19918 0
M  V30 13978 N 1337.68 -0.524672 1.4861 0
M  V30 13979 C 1338.91 -1.30482 1.60568 0
M  V30 13980 C 1339.32 -1.86889 0.267952 0
M  V30 13981 O 1338.68 -1.66669 -0.743488 0
M  V30 13982 C 1338.73 -2.45191 2.65638 0
M  V30 13983 O 1338.45 -1.91107 3.9422 0
M  V30 13984 C 1339.95 -3.36931 2.88084 0
M  V30 13985 H 1337.17 -0.396612 0.541239 0
M  V30 13986 H 1339.72 -0.632392 1.94476 0
M  V30 13987 H 1337.87 -3.08308 2.34574 0
M  V30 13988 H 1338.29 -2.66234 4.51907 0
M  V30 13989 H 1339.76 -4.13755 3.65391 0
M  V30 13990 H 1340.24 -3.92487 1.97106 0
M  V30 13991 H 1340.84 -2.79601 3.20473 0
M  V30 13992 N 1339.16 -1.37287 -0.77395 0
M  V30 13993 C 1340.12 -1.32699 -1.86878 0
M  V30 13994 C 1341.12 -0.231486 -1.59125 0
M  V30 13995 O 1342.31 -0.487203 -1.67248 0
M  V30 13996 C 1339.44 -1.0609 -3.23972 0
M  V30 13997 H 1340.64 -2.30083 -1.92359 0
M  V30 13998 H 1338.19 -1.22284 -0.973459 0
M  V30 13999 H 1338.92 -0.0922868 -3.24169 0
M  V30 14000 H 1338.71 -1.85383 -3.45508 0
M  V30 14001 H 1340.2 -1.05524 -4.04048 0
M  V30 14002 N 1340.64 0.999871 -1.21821 0
M  V30 14003 C 1341.88 1.73497 -1.0365 0
M  V30 14004 C 1342.21 1.90194 0.430271 0
M  V30 14005 O 1341.48 1.45655 1.31002 0
M  V30 14006 H 1340.06 0.642804 -0.380541 0
M  V30 14007 H 1342.72 1.20461 -1.53216 0
M  V30 14008 H 1341.81 2.73215 -1.50864 0
M  V30 14009 N 1342.11 1.02678 1.19562 0
M  V30 14010 C 1343.36 0.723086 1.89471 0
M  V30 14011 C 1343.69 -0.746269 1.79289 0
M  V30 14012 O 1342.97 -1.54322 1.18384 0
M  V30 14013 C 1343.25 1.17224 3.40486 0
M  V30 14014 C 1343.1 2.70266 3.5955 0
M  V30 14015 C 1344.42 0.751397 4.33638 0
M  V30 14016 H 1341.54 0.264155 0.688034 0
M  V30 14017 H 1344.18 1.27633 1.40747 0
M  V30 14018 H 1342.33 0.701544 3.82113 0
M  V30 14019 H 1344.01 3.25266 3.27108 0
M  V30 14020 H 1342.25 3.10758 3.02675 0
M  V30 14021 H 1342.92 2.96748 4.65451 0
M  V30 14022 H 1345.4 1.15621 3.99714 0
M  V30 14023 H 1344.27 1.09358 5.37896 0
M  V30 14024 H 1344.53 -0.346367 4.40741 0
M  V30 14025 N 1343.59 -1.35528 0.804364 0
M  V30 14026 C 1344.82 -2.03604 0.395013 0
M  V30 14027 C 1345.24 -1.60225 -0.985371 0
M  V30 14028 O 1344.6 -0.777844 -1.63766 0
M  V30 14029 C 1344.65 -3.57337 0.484011 0
M  V30 14030 O 1343.75 -4.09316 -0.503395 0
M  V30 14031 H 1343.09 -0.643089 0.165325 0
M  V30 14032 H 1345.62 -1.73171 1.08963 0
M  V30 14033 H 1345.63 -4.0647 0.353009 0
M  V30 14034 H 1344.31 -3.8826 1.49088 0
M  V30 14035 H 1342.89 -3.71412 -0.332817 0
M  V30 14036 N 1345.07 -0.557671 -1.47404 0
M  V30 14037 C 1346.3 -0.0366797 -2.07368 0
M  V30 14038 C 1346.72 1.2478 -1.40754 0
M  V30 14039 O 1346.08 1.74757 -0.48268 0
M  V30 14040 C 1346.13 0.141728 -3.60321 0
M  V30 14041 O 1345.23 1.20419 -3.94427 0
M  V30 14042 H 1344.57 -0.0515319 -0.661997 0
M  V30 14043 H 1347.1 -0.773485 -1.89416 0
M  V30 14044 H 1347.11 0.355787 -4.06446 0
M  V30 14045 H 1345.79 -0.796433 -4.08203 0
M  V30 14046 H 1344.36 0.970589 -3.60047 0
M  V30 14047 N 1346.55 1.54831 -0.294147 0
M  V30 14048 C 1347.77 2.04873 0.32276 0
M  V30 14049 C 1348.2 1.17034 1.47257 0
M  V30 14050 O 1347.56 0.172949 1.80473 0
M  V30 14051 C 1347.61 3.52431 0.76319 0
M  V30 14052 O 1346.71 3.67635 1.86865 0
M  V30 14053 H 1346.05 0.660926 0.0638162 0
M  V30 14054 H 1348.58 1.99944 -0.433995 0
M  V30 14055 H 1348.59 3.94155 1.05385 0
M  V30 14056 H 1347.27 4.15827 -0.0779464 0
M  V30 14057 H 1345.84 3.37816 1.57907 0
M  V30 14058 N 1348.03 0.0217466 1.57585 0
M  V30 14059 C 1348.96 -0.961069 2.12804 0
M  V30 14060 C 1349.94 -1.3442 1.04237 0
M  V30 14061 O 1351.12 -1.42412 1.32032 0
M  V30 14062 C 1348.25 -2.24586 2.64912 0
M  V30 14063 C 1347.21 -2.0037 3.78201 0
M  V30 14064 C 1346.53 -3.35051 4.16708 0
M  V30 14065 C 1347.83 -1.34879 5.04584 0
M  V30 14066 H 1349.53 -0.501222 2.95175 0
M  V30 14067 H 1347.07 -0.239649 1.41992 0
M  V30 14068 H 1349.03 -2.93715 3.02175 0
M  V30 14069 H 1347.75 -2.72723 1.79693 0
M  V30 14070 H 1346.41 -1.33662 3.41365 0
M  V30 14071 H 1346.06 -3.80932 3.28481 0
M  V30 14072 H 1345.76 -3.19656 4.93045 0
M  V30 14073 H 1347.28 -4.05459 4.56547 0
M  V30 14074 H 1348.7 -1.93997 5.3948 0
M  V30 14075 H 1347.09 -1.29906 5.85871 0
M  V30 14076 H 1348.16 -0.320774 4.83838 0
M  V30 14077 N 1349.51 -1.55583 -0.251311 0
M  V30 14078 C 1350.78 -1.67954 -1.00254 0
M  V30 14079 C 1351.16 -0.560326 -2.03528 0
M  V30 14080 O 1350.51 0.436811 -2.24286 0
M  V30 14081 C 1350.72 -3.08075 -1.63985 0
M  V30 14082 C 1352.07 -3.66531 -2.14336 0
M  V30 14083 O 1353.09 -3.10846 -1.73934 0
M  V30 14084 O 1351.95 -4.64141 -2.88506 0
M  V30 14085 H 1349.05 -0.682952 -0.466375 0
M  V30 14086 H 1351.59 -1.67916 -0.245447 0
M  V30 14087 H 1350.36 -3.80983 -0.892627 0
M  V30 14088 H 1349.99 -3.12105 -2.46325 0
M  V30 14089 N 1350.98 0.516783 -1.48886 0
M  V30 14090 C 1352.4 0.84654 -1.35299 0
M  V30 14091 C 1352.6 1.97998 -0.374035 0
M  V30 14092 O 1351.66 2.51707 0.200003 0
M  V30 14093 C 1352.97 1.20162 -2.75648 0
M  V30 14094 C 1354.52 1.31074 -2.84233 0
M  V30 14095 C 1354.99 1.69919 -4.25313 0
M  V30 14096 N 1356.48 1.76998 -4.28049 0
M  V30 14097 C 1357.22 2.08466 -5.34162 0
M  V30 14098 N 1356.71 2.38268 -6.50538 0
M  V30 14099 N 1358.51 2.09584 -5.21566 0
M  V30 14100 H 1350.66 -0.230871 -2.11142 0
M  V30 14101 H 1352.92 -0.0406678 -0.947127 0
M  V30 14102 H 1352.63 0.442278 -3.48908 0
M  V30 14103 H 1352.5 2.14875 -3.10014 0
M  V30 14104 H 1354.89 2.06083 -2.1122 0
M  V30 14105 H 1354.97 0.344506 -2.5347 0
M  V30 14106 H 1354.61 0.954667 -4.98847 0
M  V30 14107 H 1354.54 2.67616 -4.5353 0
M  V30 14108 H 1357.03 1.56191 -3.44112 0
M  V30 14109 H 1357.35 2.61423 -7.2724 0
M  V30 14110 H 1355.69 2.35758 -6.53791 0
M  V30 14111 H 1358.88 1.85768 -4.2966 0
M  V30 14112 H 1359.06 2.33776 -6.04362 0
M  V30 14113 N 1352.46 1.37696 0.766659 0
M  V30 14114 C 1353.42 1.33688 1.86172 0
M  V30 14115 C 1354.42 0.239922 1.59 0
M  V30 14116 O 1355.61 0.496066 1.66988 0
M  V30 14117 C 1352.75 1.07807 3.23405 0
M  V30 14118 H 1353.94 2.311 1.91136 0
M  V30 14119 H 1351.49 1.22799 0.966961 0
M  V30 14120 H 1352.23 0.109477 3.24115 0
M  V30 14121 H 1352.01 1.87213 3.4452 0
M  V30 14122 H 1353.5 1.07665 4.03482 0
M  V30 14123 N 1353.94 -0.993397 1.22349 0
M  V30 14124 C 1355.17 -1.76838 1.07406 0
M  V30 14125 C 1355.58 -1.8503 -0.37542 0
M  V30 14126 O 1354.94 -1.32008 -1.26016 0
M  V30 14127 C 1354.99 -3.20177 1.67837 0
M  V30 14128 O 1354.71 -3.12429 3.07115 0
M  V30 14129 C 1356.21 -4.14125 1.58161 0
M  V30 14130 H 1353.43 -0.555379 0.376557 0
M  V30 14131 H 1355.98 -1.24893 1.61932 0
M  V30 14132 H 1354.13 -3.69191 1.17375 0
M  V30 14133 H 1354.55 -4.02568 3.36213 0
M  V30 14134 H 1356.02 -5.12455 2.05169 0
M  V30 14135 H 1356.5 -4.35892 0.538073 0
M  V30 14136 H 1357.1 -3.71008 2.07926 0
M  V30 14137 N 1355.42 -1.03311 -1.19015 0
M  V30 14138 C 1356.83 -0.750946 -1.4083 0
M  V30 14139 C 1357.03 0.662704 -1.90291 0
M  V30 14140 O 1356.09 1.42806 -2.08237 0
M  V30 14141 C 1357.4 -1.79064 -2.41571 0
M  V30 14142 C 1358.95 -1.81068 -2.55311 0
M  V30 14143 C 1359.43 -2.84008 -3.59309 0
M  V30 14144 N 1360.92 -2.82852 -3.6681 0
M  V30 14145 C 1361.65 -3.59156 -4.46984 0
M  V30 14146 N 1361.15 -4.45188 -5.30829 0
M  V30 14147 N 1362.94 -3.47679 -4.41674 0
M  V30 14148 H 1355.09 -1.94548 -0.852329 0
M  V30 14149 H 1357.35 -0.841344 -0.436858 0
M  V30 14150 H 1357.06 -2.80425 -2.12261 0
M  V30 14151 H 1356.93 -1.61646 -3.40809 0
M  V30 14152 H 1359.32 -0.803825 -2.83941 0
M  V30 14153 H 1359.4 -2.02562 -1.56212 0
M  V30 14154 H 1359.05 -3.84867 -3.3142 0
M  V30 14155 H 1358.98 -2.59771 -4.58069 0
M  V30 14156 H 1361.47 -2.20457 -3.06932 0
M  V30 14157 H 1361.78 -5.00139 -5.89135 0
M  V30 14158 H 1360.13 -4.49259 -5.30275 0
M  V30 14159 H 1363.32 -2.79876 -3.75216 0
M  V30 14160 H 1363.49 -4.07396 -5.03917 0
M  V30 14161 N 1356.9 1.35099 -0.81154 0
M  V30 14162 C 1358.12 2.0286 -0.406855 0
M  V30 14163 C 1358.54 1.61147 0.98372 0
M  V30 14164 O 1357.9 0.811398 1.6347 0
M  V30 14165 C 1357.95 3.58214 -0.486305 0
M  V30 14166 O 1357.67 3.98412 -1.82206 0
M  V30 14167 C 1359.17 4.43236 -0.0750619 0
M  V30 14168 H 1356.39 0.650482 -0.164664 0
M  V30 14169 H 1358.93 1.72616 -1.09654 0
M  V30 14170 H 1357.09 3.87089 0.155177 0
M  V30 14171 H 1357.5 4.93072 -1.78831 0
M  V30 14172 H 1358.98 5.51701 -0.181759 0
M  V30 14173 H 1359.45 4.28123 0.980169 0
M  V30 14174 H 1360.06 4.19667 -0.689894 0
M  V30 14175 N 1358.37 0.56548 1.47106 0
M  V30 14176 C 1359.62 0.042333 2.01656 0
M  V30 14177 C 1359.94 -1.31892 1.44443 0
M  V30 14178 O 1361.14 -1.93245 1.90706 0
M  V30 14179 C 1359.6 0.0251556 3.59891 0
M  V30 14180 C 1359.21 1.38367 4.26097 0
M  V30 14181 C 1360.95 -0.44495 4.22162 0
M  V30 14182 C 1358.86 1.32516 5.76362 0
M  V30 14183 H 1357.79 0.0120557 0.753904 0
M  V30 14184 H 1360.44 0.714565 1.69015 0
M  V30 14185 H 1358.82 -0.712893 3.8953 0
M  V30 14186 H 1359.99 2.14009 4.08089 0
M  V30 14187 H 1358.31 1.79239 3.75849 0
M  V30 14188 H 1360.91 -0.507256 5.32288 0
M  V30 14189 H 1361.25 -1.45876 3.89905 0
M  V30 14190 H 1361.78 0.238496 3.97084 0
M  V30 14191 H 1358.52 2.31523 6.13252 0
M  V30 14192 H 1358.04 0.610674 5.96683 0
M  V30 14193 H 1359.72 1.03072 6.38737 0
M  V30 14194 N 1359.85 -1.54672 0.302354 0
M  V30 14195 C 1360.76 -2.27251 -0.582578 0
M  V30 14196 C 1361.78 -1.30819 -1.14727 0
M  V30 14197 O 1362.95 -1.63803 -1.17177 0
M  V30 14198 C 1360.02 -3.00016 -1.73757 0
M  V30 14199 C 1359.08 -4.11988 -1.20682 0
M  V30 14200 C 1358.31 -4.81273 -2.30676 0
M  V30 14201 O 1358.54 -4.49927 -3.50602 0
M  V30 14202 O 1357.47 -5.68647 -1.97291 0
M  V30 14203 H 1361.3 -3.03699 0.00621365 0
M  V30 14204 H 1358.88 -1.49242 0.0687684 0
M  V30 14205 H 1360.76 -3.45652 -2.41045 0
M  V30 14206 H 1359.44 -2.26462 -2.31294 0
M  V30 14207 H 1358.35 -3.70749 -0.499625 0
M  V30 14208 H 1359.68 -4.87524 -0.676858 0
M  V30 14209 N 1361.33 -0.0301034 -1.57571 0
M  V30 14210 C 1362.28 0.969425 -2.11435 0
M  V30 14211 C 1363.27 1.33627 -1.04116 0
M  V30 14212 O 1364.48 1.31839 -1.2255 0
M  V30 14213 H 1360.85 0.330407 -0.675526 0
M  V30 14214 H 1362.82 0.489828 -2.94352 0
M  V30 14215 C 1361.57 2.24233 -2.65734 0
M  V30 14216 H 1360.9 1.9688 -3.47963 0
M  V30 14217 H 1362.34 2.92378 -3.07068 0
M  V30 14218 C 1360.8 2.97274 -1.58524 0
M  V30 14219 O 1361.33 3.8942 -0.985641 0
M  V30 14220 N 1359.53 2.59627 -1.30545 0
M  V30 14221 H 1359.08 1.84773 -1.79491 0
M  V30 14222 H 1359.04 3.08807 -0.590372 0
M  V30 14223 N 1362.81 1.55714 0.243056 0
M  V30 14224 C 1364.05 1.78904 0.96772 0
M  V30 14225 C 1364.41 0.599662 1.82816 0
M  V30 14226 O 1363.7 -0.406986 1.87228 0
M  V30 14227 C 1363.9 3.05281 1.85845 0
M  V30 14228 C 1363.73 4.36397 1.08572 0
M  V30 14229 C 1362.5 4.99098 0.789274 0
M  V30 14230 C 1364.69 5.12226 0.461433 0
M  V30 14231 N 1362.68 6.139 -0.00711288 0
M  V30 14232 C 1364.05 6.19679 -0.199349 0
M  V30 14233 C 1366.1 4.96506 0.372287 0
M  V30 14234 C 1364.8 7.13122 -0.940722 0
M  V30 14235 C 1366.83 5.9033 -0.355564 0
M  V30 14236 C 1366.19 6.97194 -1.00497 0
M  V30 14237 H 1362.29 0.706567 0.335094 0
M  V30 14238 H 1364.88 1.93209 0.240503 0
M  V30 14239 H 1363.05 2.92298 2.55767 0
M  V30 14240 H 1364.78 3.16749 2.51897 0
M  V30 14241 H 1361.53 4.606 1.10201 0
M  V30 14242 H 1361.96 6.75855 -0.393512 0
M  V30 14243 H 1366.6 4.13961 0.860025 0
M  V30 14244 H 1364.32 7.95166 -1.44005 0
M  V30 14245 H 1367.9 5.80244 -0.425257 0
M  V30 14246 H 1366.78 7.68543 -1.55918 0
M  V30 14247 N 1364.29 -0.50888 1.49158 0
M  V30 14248 C 1365.53 -1.261 1.57934 0
M  V30 14249 C 1365.86 -1.93199 0.264405 0
M  V30 14250 O 1365.13 -1.82359 -0.715684 0
M  V30 14251 H 1363.71 -0.468421 0.581886 0
M  V30 14252 H 1366.37 -0.590447 1.85741 0
M  V30 14253 H 1365.46 -2.02913 2.37135 0
M  V30 14254 N 1365.76 -1.381 -0.759346 0
M  V30 14255 C 1367.01 -1.33727 -1.5153 0
M  V30 14256 C 1367.33 0.0739504 -1.9486 0
M  V30 14257 O 1366.6 1.02049 -1.67221 0
M  V30 14258 H 1365.18 -0.492037 -0.562058 0
M  V30 14259 H 1367.85 -1.72719 -0.902995 0
M  V30 14260 H 1366.94 -1.98439 -2.40891 0
M  V30 14261 N 1367.24 0.986894 -1.22875 0
M  V30 14262 C 1368.49 1.72388 -1.05484 0
M  V30 14263 C 1368.81 1.90639 0.410074 0
M  V30 14264 O 1368.08 1.47036 1.2945 0
M  V30 14265 H 1366.66 0.638732 -0.387337 0
M  V30 14266 H 1369.32 1.18829 -1.54485 0
M  V30 14267 H 1368.42 2.71599 -1.53754 0
M  V30 14268 N 1368.72 1.0394 1.18466 0
M  V30 14269 C 1370.14 0.758404 1.40429 0
M  V30 14270 C 1370.34 -0.652603 1.90639 0
M  V30 14271 O 1369.39 -1.417 2.08991 0
M  V30 14272 C 1370.71 1.80343 2.40618 0
M  V30 14273 C 1372.25 1.82419 2.54347 0
M  V30 14274 C 1372.73 2.8591 3.57798 0
M  V30 14275 N 1374.22 2.84793 3.65304 0
M  V30 14276 C 1374.95 3.61521 4.45073 0
M  V30 14277 N 1374.45 4.47997 5.28461 0
M  V30 14278 N 1376.24 3.50016 4.39824 0
M  V30 14279 H 1368.39 1.94998 0.842 0
M  V30 14280 H 1370.66 0.843649 0.43239 0
M  V30 14281 H 1370.36 2.81547 2.10771 0
M  V30 14282 H 1370.24 1.63451 3.39947 0
M  V30 14283 H 1372.62 0.818872 2.83511 0
M  V30 14284 H 1372.71 2.03388 1.55136 0
M  V30 14285 H 1372.35 3.8662 3.29375 0
M  V30 14286 H 1372.28 2.62196 4.56684 0
M  V30 14287 H 1374.77 2.22082 3.05758 0
M  V30 14288 H 1375.08 5.03257 5.86475 0
M  V30 14289 H 1373.43 4.52065 5.27885 0
M  V30 14290 H 1376.62 2.81862 3.73726 0
M  V30 14291 H 1376.79 4.10063 5.0175 0
M  V30 14292 N 1370.2 -1.34667 0.818693 0
M  V30 14293 C 1371.61 -1.51436 0.503921 0
M  V30 14294 C 1371.81 -1.76468 -0.972691 0
M  V30 14295 O 1370.87 -1.81314 -1.75731 0
M  V30 14296 C 1372.18 -2.68198 1.35978 0
M  V30 14297 C 1373.73 -2.8208 1.35647 0
M  V30 14298 C 1374.21 -4.01881 2.19672 0
M  V30 14299 N 1375.7 -4.0908 2.17273 0
M  V30 14300 C 1376.43 -5.00925 2.79038 0
M  V30 14301 N 1375.93 -5.9802 3.49777 0
M  V30 14302 N 1377.72 -4.93764 2.68615 0
M  V30 14303 H 1369.87 -1.16677 1.77483 0
M  V30 14304 H 1372.14 -0.571873 0.756085 0
M  V30 14305 H 1371.84 -2.56317 2.4082 0
M  V30 14306 H 1371.72 -3.63105 1.0215 0
M  V30 14307 H 1374.1 -2.93405 0.315849 0
M  V30 14308 H 1374.18 -1.87994 1.7347 0
M  V30 14309 H 1373.83 -3.91316 3.23781 0
M  V30 14310 H 1373.76 -4.95171 1.79202 0
M  V30 14311 H 1376.25 -3.3958 1.65814 0
M  V30 14312 H 1376.56 -6.64722 3.94162 0
M  V30 14313 H 1374.91 -5.98157 3.53883 0
M  V30 14314 H 1378.1 -4.16868 2.12929 0
M  V30 14315 H 1378.27 -5.65147 3.17038 0
M  V30 14316 N 1371.68 -0.573274 -1.46804 0
M  V30 14317 C 1372.64 0.155066 -2.28675 0
M  V30 14318 C 1373.64 0.827706 -1.37861 0
M  V30 14319 O 1374.83 0.681105 -1.60333 0
M  V30 14320 C 1371.96 1.22864 -3.1799 0
M  V30 14321 H 1373.15 -0.564305 -2.94543 0
M  V30 14322 H 1370.71 -0.330855 -1.52758 0
M  V30 14323 H 1371.44 1.97989 -2.56848 0
M  V30 14324 H 1371.23 0.750936 -3.84842 0
M  V30 14325 H 1372.72 1.73974 -3.79635 0
M  V30 14326 N 1373.15 1.5451 -0.310553 0
M  V30 14327 C 1374.57 1.85829 0.180166 0
M  V30 14328 C 1374.92 1.23239 1.52665 0
M  V30 14329 O 1374.04 0.53359 2.09718 0
M  V30 14330 C 1374.64 3.37153 0.333687 0
M  V30 14331 C 1373.2 3.68469 0.768625 0
M  V30 14332 C 1372.34 2.77051 -0.117399 0
M  V30 14333 H 1375.29 1.49544 -0.531262 0
M  V30 14334 H 1375.31 3.62171 1.16673 0
M  V30 14335 H 1374.83 3.82678 -0.646455 0
M  V30 14336 H 1372.93 3.28467 1.75898 0
M  V30 14337 H 1373.04 4.75559 0.581392 0
M  V30 14338 H 1371.4 2.51461 0.404905 0
M  V30 14339 H 1372.19 3.254 -1.09407 0
M  V30 14340 N 1374.63 0.0384594 1.57553 0
M  V30 14341 C 1376.04 -0.499057 1.79906 0
M  V30 14342 C 1376.4 -1.7169 0.949577 0
M  V30 14343 O 1375.52 -2.15788 0.162584 0
M  V30 14344 C 1376.12 -0.912155 3.2629 0
M  V30 14345 C 1374.67 -1.39473 3.49606 0
M  V30 14346 C 1373.82 -0.363859 2.74902 0
M  V30 14347 H 1376.77 0.264433 1.56481 0
M  V30 14348 H 1376.79 -1.77592 3.36513 0
M  V30 14349 H 1376.31 -0.0255928 3.88092 0
M  V30 14350 H 1374.41 -2.3009 2.93068 0
M  V30 14351 H 1374.52 -1.39566 4.58321 0
M  V30 14352 H 1372.88 -0.833993 2.40659 0
M  V30 14353 H 1373.67 0.514398 3.39424 0
M  V30 14354 N 1376.11 -1.55841 -0.234795 0
M  V30 14355 C 1377.52 -1.68555 -0.802886 0
M  V30 14356 C 1377.87 -0.638107 -1.85533 0
M  V30 14357 O 1377 0.21333 -2.15346 0
M  V30 14358 C 1377.59 -3.0558 -1.46309 0
M  V30 14359 C 1376.15 -3.20192 -1.97874 0
M  V30 14360 C 1375.3 -2.64457 -0.834136 0
M  V30 14361 H 1378.25 -1.58697 -0.0103759 0
M  V30 14362 H 1378.27 -3.007 -2.33152 0
M  V30 14363 H 1377.78 -3.81792 -0.696868 0
M  V30 14364 H 1375.88 -2.48825 -2.77339 0
M  V30 14365 H 1376 -4.27251 -2.1678 0
M  V30 14366 H 1374.36 -2.22593 -1.23791 0
M  V30 14367 H 1375.14 -3.43205 -0.0807988 0
M  V30 14368 N 1377.59 0.500963 -1.49426 0
M  V30 14369 C 1378.81 1.28383 -1.62888 0
M  V30 14370 C 1379.24 1.85688 -0.300262 0
M  V30 14371 O 1378.6 1.6586 0.73212 0
M  V30 14372 C 1378.65 2.38987 -2.70033 0
M  V30 14373 O 1377.75 3.42837 -2.29208 0
M  V30 14374 H 1377.09 0.379012 -0.545202 0
M  V30 14375 H 1379.62 0.59971 -1.95613 0
M  V30 14376 H 1379.63 2.84749 -2.92202 0
M  V30 14377 H 1378.31 1.96643 -3.66475 0
M  V30 14378 H 1376.88 3.02993 -2.1737 0
M  V30 14379 N 1379.07 1.38501 0.752011 0
M  V30 14380 C 1380.48 1.31086 1.32941 0
M  V30 14381 C 1380.83 -0.0326248 1.96173 0
M  V30 14382 O 1379.95 -0.934692 1.95173 0
M  V30 14383 C 1380.55 2.37395 2.41721 0
M  V30 14384 C 1379.11 2.33553 2.95177 0
M  V30 14385 C 1378.26 2.20178 1.68573 0
M  V30 14386 H 1381.21 1.48836 0.550771 0
M  V30 14387 H 1381.23 2.03202 3.21697 0
M  V30 14388 H 1380.74 3.35164 1.9567 0
M  V30 14389 H 1378.84 1.39371 3.45553 0
M  V30 14390 H 1378.95 3.27753 3.49449 0
M  V30 14391 H 1377.32 1.67057 1.9226 0
M  V30 14392 H 1378.1 3.19891 1.24599 0
M  V30 14393 N 1380.55 -0.980364 1.23396 0
M  V30 14394 C 1381.79 -1.73674 1.07781 0
M  V30 14395 C 1382.15 -1.88227 -0.378759 0
M  V30 14396 O 1383.35 -2.6067 -0.656092 0
M  V30 14397 C 1381.62 -3.09727 1.78337 0
M  V30 14398 S 1383.18 -4.00944 1.78295 0
M  V30 14399 H 1380 -0.597273 0.385728 0
M  V30 14400 H 1382.6 -1.17123 1.56533 0
M  V30 14401 H 1381.3 -2.96786 2.83455 0
M  V30 14402 H 1380.84 -3.71346 1.29868 0
M  V30 14403 H 1382.85 -4.89011 0.841572 0
M  V30 14404 N 1382.02 -1.04567 -1.17913 0
M  V30 14405 C 1383.43 -0.779118 -1.69666 0
M  V30 14406 C 1383.79 0.699448 -1.83309 0
M  V30 14407 O 1382.91 1.54407 -1.51616 0
M  V30 14408 C 1383.51 -1.40769 -3.08171 0
M  V30 14409 C 1382.06 -1.18933 -3.57116 0
M  V30 14410 C 1381.21 -1.49519 -2.33536 0
M  V30 14411 H 1384.16 -1.21144 -1.02518 0
M  V30 14412 H 1384.18 -0.813584 -3.717 0
M  V30 14413 H 1383.7 -2.4838 -2.9821 0
M  V30 14414 H 1381.8 -0.132184 -3.72365 0
M  V30 14415 H 1381.91 -1.88987 -4.40251 0
M  V30 14416 H 1380.27 -0.915056 -2.37695 0
M  V30 14417 H 1381.06 -2.5825 -2.26189 0
M  V30 14418 N 1383.5 1.34231 -0.825823 0
M  V30 14419 C 1384.73 2.02417 -0.428348 0
M  V30 14420 C 1385.14 1.62181 0.966573 0
M  V30 14421 O 1384.5 0.828691 1.62601 0
M  V30 14422 C 1384.55 3.57678 -0.524271 0
M  V30 14423 O 1384.27 3.96458 -1.86422 0
M  V30 14424 C 1385.77 4.43132 -0.122069 0
M  V30 14425 H 1382.99 0.648699 -0.171554 0
M  V30 14426 H 1385.54 1.71443 -1.11478 0
M  V30 14427 H 1383.69 3.87232 0.114112 0
M  V30 14428 H 1384.11 4.91147 -1.84051 0
M  V30 14429 H 1385.58 5.51477 -0.240264 0
M  V30 14430 H 1386.06 4.29139 0.934705 0
M  V30 14431 H 1386.66 4.18912 -0.734366 0
M  V30 14432 N 1384.98 0.581051 1.46498 0
M  V30 14433 C 1386.39 0.154032 1.86064 0
M  V30 14434 C 1386.74 -1.28247 1.48483 0
M  V30 14435 O 1385.87 -1.96845 0.898945 0
M  V30 14436 C 1386.46 0.272764 3.377 0
M  V30 14437 C 1385.02 -0.0993724 3.76269 0
M  V30 14438 C 1384.17 0.60947 2.70519 0
M  V30 14439 H 1387.12 0.78937 1.37676 0
M  V30 14440 H 1387.14 -0.502326 3.7717 0
M  V30 14441 H 1386.65 1.31837 3.65021 0
M  V30 14442 H 1384.75 -1.14517 3.54565 0
M  V30 14443 H 1384.87 0.275791 4.78306 0
M  V30 14444 H 1383.23 0.0499083 2.54651 0
M  V30 14445 H 1384.01 1.65669 3.0068 0
M  V30 14446 N 1386.46 -1.54343 0.318742 0
M  V30 14447 C 1387.87 -1.59564 -0.034068 0
M  V30 14448 C 1388.07 -1.33539 -1.50896 0
M  V30 14449 O 1387.13 -1.11746 -2.26427 0
M  V30 14450 C 1388.44 -2.98291 0.379827 0
M  V30 14451 C 1389.99 -3.11255 0.330078 0
M  V30 14452 C 1390.47 -4.5232 0.719061 0
M  V30 14453 N 1391.96 -4.58295 0.67228 0
M  V30 14454 C 1392.69 -5.65551 0.945513 0
M  V30 14455 N 1392.19 -6.80767 1.28563 0
M  V30 14456 N 1393.98 -5.55305 0.871394 0
M  V30 14457 H 1386.13 -1.69518 1.27975 0
M  V30 14458 H 1388.39 -0.792627 0.520044 0
M  V30 14459 H 1388.1 -3.22319 1.40724 0
M  V30 14460 H 1387.97 -3.76319 -0.257606 0
M  V30 14461 H 1390.36 -2.86965 -0.688117 0
M  V30 14462 H 1390.44 -2.35342 1.00238 0
M  V30 14463 H 1390.09 -4.77342 1.73515 0
M  V30 14464 H 1390.02 -5.26594 0.0245001 0
M  V30 14465 H 1392.51 -3.75547 0.421059 0
M  V30 14466 H 1392.82 -7.58503 1.47963 0
M  V30 14467 H 1391.17 -6.82275 1.32385 0
M  V30 14468 H 1394.36 -4.64171 0.605205 0
M  V30 14469 H 1394.53 -6.38806 1.08769 0
M  V30 14470 N 1387.94 -0.0468143 -1.5753 0
M  V30 14471 C 1389.16 0.641161 -1.97241 0
M  V30 14472 C 1389.59 1.6384 -0.92401 0
M  V30 14473 O 1388.94 1.80946 0.113229 0
M  V30 14474 C 1388.99 1.30832 -3.36029 0
M  V30 14475 O 1388.1 2.42394 -3.33645 0
M  V30 14476 H 1387.44 0.167035 -0.642647 0
M  V30 14477 H 1389.97 -0.113921 -2.04283 0
M  V30 14478 H 1389.98 1.66102 -3.72658 0
M  V30 14479 H 1388.65 0.57744 -4.11872 0
M  V30 14480 H 1387.23 2.09104 -3.08756 0
M  V30 14481 N 1389.41 1.55964 0.226527 0
M  V30 14482 C 1390.66 1.78392 0.94977 0
M  V30 14483 C 1390.98 0.614444 1.85066 0
M  V30 14484 O 1390.25 -0.368894 1.92395 0
M  V30 14485 H 1388.83 0.657962 0.353688 0
M  V30 14486 H 1391.5 1.93422 0.239577 0
M  V30 14487 H 1390.59 2.70343 1.55952 0
M  V30 14488 N 1390.89 -0.493031 1.4969 0
M  V30 14489 C 1392.3 -1.0744 1.52688 0
M  V30 14490 C 1392.65 -1.93612 0.317652 0
M  V30 14491 O 1391.78 -2.0871 -0.571745 0
M  V30 14492 C 1392.37 -1.95523 2.76688 0
M  V30 14493 C 1390.93 -2.48808 2.82438 0
M  V30 14494 C 1390.08 -1.26617 2.46705 0
M  V30 14495 H 1393.03 -0.276589 1.56271 0
M  V30 14496 H 1393.05 -2.80315 2.57301 0
M  V30 14497 H 1392.56 -1.32779 3.6468 0
M  V30 14498 H 1390.67 -3.15168 1.98746 0
M  V30 14499 H 1390.78 -2.85416 3.84805 0
M  V30 14500 H 1389.14 -1.59396 1.98658 0
M  V30 14501 H 1389.93 -0.655695 3.3698 0
M  V30 14502 N 1392.37 -1.38898 -0.744656 0
M  V30 14503 C 1393.6 -1.3903 -1.53901 0
M  V30 14504 C 1394.02 0.0156607 -1.88093 0
M  V30 14505 O 1393.38 1.00012 -1.51219 0
M  V30 14506 C 1393.43 -2.2609 -2.80919 0
M  V30 14507 O 1392.53 -1.68414 -3.76444 0
M  V30 14508 H 1391.87 -0.473854 -0.465144 0
M  V30 14509 H 1394.4 -1.82773 -0.919525 0
M  V30 14510 H 1394.41 -2.40264 -3.29754 0
M  V30 14511 H 1393.09 -3.28271 -2.55364 0
M  V30 14512 H 1391.66 -1.63431 -3.35179 0
M  V30 14513 N 1393.85 0.973806 -1.23914 0
M  V30 14514 C 1395.26 1.53057 -1.06913 0
M  V30 14515 C 1395.61 1.92842 0.361423 0
M  V30 14516 O 1394.74 1.76716 1.24901 0
M  V30 14517 C 1395.33 2.78137 -1.93457 0
M  V30 14518 C 1393.89 3.3019 -1.80697 0
M  V30 14519 C 1393.04 2.03137 -1.88761 0
M  V30 14520 H 1395.99 0.792767 -1.37481 0
M  V30 14521 H 1396.01 3.5124 -1.46325 0
M  V30 14522 H 1395.52 2.49149 -2.97568 0
M  V30 14523 H 1393.62 3.64043 -0.793951 0
M  V30 14524 H 1393.73 3.99503 -2.64451 0
M  V30 14525 H 1392.1 2.17572 -1.32418 0
M  V30 14526 H 1392.88 1.76522 -2.9444 0
M  V30 14527 N 1395.33 1.05191 1.17357 0
M  V30 14528 C 1396.57 0.771027 1.893 0
M  V30 14529 C 1396.93 -0.68931 1.792 0
M  V30 14530 O 1398.13 -1.0843 2.4596 0
M  V30 14531 C 1396.4 1.23822 3.35265 0
M  V30 14532 S 1397.96 1.0847 4.25182 0
M  V30 14533 H 1394.78 0.280008 0.653542 0
M  V30 14534 H 1397.38 1.34654 1.41734 0
M  V30 14535 H 1396.09 2.2962 3.40151 0
M  V30 14536 H 1395.62 0.656981 3.87875 0
M  V30 14537 H 1397.63 0.00886614 4.96199 0
M  V30 14538 N 1396.8 -1.33791 0.83293 0
M  V30 14539 C 1397.73 -2.31853 0.276846 0
M  V30 14540 C 1398.72 -1.58702 -0.612184 0
M  V30 14541 O 1399.9 -1.86629 -0.536975 0
M  V30 14542 C 1397.03 -3.42855 -0.55385 0
M  V30 14543 C 1395.98 -4.27333 0.238884 0
M  V30 14544 C 1395.31 -5.29895 -0.715187 0
M  V30 14545 C 1396.61 -5.01692 1.45265 0
M  V30 14546 H 1398.3 -2.78611 1.09618 0
M  V30 14547 H 1395.85 -1.33949 0.528562 0
M  V30 14548 H 1397.8 -4.10479 -0.953133 0
M  V30 14549 H 1396.53 -2.94771 -1.40634 0
M  V30 14550 H 1395.19 -3.61325 0.619656 0
M  V30 14551 H 1394.83 -4.7807 -1.56391 0
M  V30 14552 H 1394.53 -5.87296 -0.188921 0
M  V30 14553 H 1396.06 -6.00387 -1.11211 0
M  V30 14554 H 1397.47 -5.62117 1.12685 0
M  V30 14555 H 1395.87 -5.68715 1.91528 0
M  V30 14556 H 1396.94 -4.30809 2.22558 0
M  V30 14557 N 1398.28 -0.588812 -1.46187 0
M  V30 14558 C 1399.69 -0.163897 -1.85979 0
M  V30 14559 C 1400.04 1.27458 -1.49161 0
M  V30 14560 O 1399.17 1.96365 -0.909372 0
M  V30 14561 C 1399.76 -0.29067 -3.37551 0
M  V30 14562 C 1398.32 0.0794165 -3.76316 0
M  V30 14563 C 1397.47 -0.623807 -2.70192 0
M  V30 14564 H 1400.42 -0.79666 -1.37255 0
M  V30 14565 H 1400.44 0.482316 -3.77431 0
M  V30 14566 H 1399.95 -1.33771 -3.64317 0
M  V30 14567 H 1398.06 1.12636 -3.55168 0
M  V30 14568 H 1398.17 -0.301153 -4.78153 0
M  V30 14569 H 1396.53 -0.0634124 -2.54621 0
M  V30 14570 H 1397.32 -1.67261 -2.99797 0
M  V30 14571 N 1399.76 1.54172 -0.326923 0
M  V30 14572 C 1400.99 2.05044 0.276508 0
M  V30 14573 C 1401.4 1.20288 1.45521 0
M  V30 14574 O 1400.76 0.234324 1.80989 0
M  V30 14575 C 1400.81 3.54505 0.707714 0
M  V30 14576 O 1400.53 4.36042 -0.424098 0
M  V30 14577 C 1402.03 4.21482 1.3736 0
M  V30 14578 H 1399.25 0.668632 0.0563273 0
M  V30 14579 H 1401.8 1.98929 -0.474087 0
M  V30 14580 H 1399.95 3.60896 1.40828 0
M  V30 14581 H 1400.37 5.24433 -0.0836846 0
M  V30 14582 H 1401.84 5.27501 1.62623 0
M  V30 14583 H 1402.32 3.72802 2.32196 0
M  V30 14584 H 1402.92 4.19238 0.715526 0
M  V30 14585 N 1401.24 0.0551678 1.57503 0
M  V30 14586 C 1402.65 -0.479948 1.80426 0
M  V30 14587 C 1403 -1.70673 0.967733 0
M  V30 14588 O 1402.13 -2.15604 0.185462 0
M  V30 14589 C 1402.72 -0.877496 3.27239 0
M  V30 14590 C 1401.28 -1.35757 3.51066 0
M  V30 14591 C 1400.43 -0.334681 2.75273 0
M  V30 14592 H 1403.38 0.281016 1.56192 0
M  V30 14593 H 1403.4 -1.74013 3.38378 0
M  V30 14594 H 1402.91 0.015571 3.88097 0
M  V30 14595 H 1401.01 -2.26969 2.95492 0
M  V30 14596 H 1401.12 -1.34697 4.59776 0
M  V30 14597 H 1399.49 -0.808421 2.4153 0
M  V30 14598 H 1400.27 0.550369 3.3886 0
M  V30 14599 N 1402.72 -1.56081 -0.218252 0
M  V30 14600 C 1403.99 -1.70043 -0.966684 0
M  V30 14601 C 1404.37 -0.603372 -2.02293 0
M  V30 14602 O 1403.72 0.389138 -2.25162 0
M  V30 14603 C 1403.93 -3.11484 -1.57413 0
M  V30 14604 C 1405.28 -3.70995 -2.06513 0
M  V30 14605 O 1406.3 -3.14466 -1.67301 0
M  V30 14606 O 1405.16 -4.70156 -2.78596 0
M  V30 14607 H 1402.26 -0.692691 -0.451784 0
M  V30 14608 H 1404.8 -1.68398 -0.209774 0
M  V30 14609 H 1403.57 -3.8279 -0.811614 0
M  V30 14610 H 1403.2 -3.1726 -2.3965 0
M  V30 14611 N 1404.2 0.485086 -1.49949 0
M  V30 14612 C 1405.61 1.06629 -1.53255 0
M  V30 14613 C 1405.96 1.9344 -0.327915 0
M  V30 14614 O 1405.08 2.09011 0.560669 0
M  V30 14615 C 1405.68 1.94053 -2.77721 0
M  V30 14616 C 1404.24 2.47307 -2.83754 0
M  V30 14617 C 1403.38 1.25307 -2.47373 0
M  V30 14618 H 1406.33 0.268297 -1.56416 0
M  V30 14619 H 1406.36 2.78946 -2.58784 0
M  V30 14620 H 1405.87 1.30843 -3.65379 0
M  V30 14621 H 1403.97 3.1411 -2.00414 0
M  V30 14622 H 1404.08 2.83371 -3.86313 0
M  V30 14623 H 1402.45 1.5834 -1.99501 0
M  V30 14624 H 1403.23 0.637815 -3.37323 0
M  V30 14625 N 1405.67 1.39291 0.737279 0
M  V30 14626 C 1407.08 1.32489 1.31543 0
M  V30 14627 C 1407.44 -0.0118162 1.96196 0
M  V30 14628 O 1406.56 -0.913938 1.96153 0
M  V30 14629 C 1407.16 2.39946 2.39189 0
M  V30 14630 C 1405.71 2.36671 2.92684 0
M  V30 14631 C 1404.86 2.21953 1.66229 0
M  V30 14632 H 1407.81 1.49412 0.534954 0
M  V30 14633 H 1407.83 2.06603 3.19524 0
M  V30 14634 H 1407.35 3.3722 1.92104 0
M  V30 14635 H 1405.45 1.43028 3.44055 0
M  V30 14636 H 1405.56 3.31441 3.45953 0
M  V30 14637 H 1403.92 1.69087 1.90478 0
M  V30 14638 H 1404.71 3.21194 1.21199 0
M  V30 14639 N 1407.15 -0.967221 1.24429 0
M  V30 14640 C 1408.56 -1.52488 1.07723 0
M  V30 14641 C 1408.91 -1.93031 -0.351191 0
M  V30 14642 O 1408.04 -1.77376 -1.23963 0
M  V30 14643 C 1408.63 -2.77107 1.94929 0
M  V30 14644 C 1407.19 -3.29227 1.82446 0
M  V30 14645 C 1406.34 -2.02133 1.89835 0
M  V30 14646 H 1409.29 -0.785465 1.37899 0
M  V30 14647 H 1409.31 -3.50459 1.48186 0
M  V30 14648 H 1408.82 -2.47567 2.98885 0
M  V30 14649 H 1406.92 -3.63617 0.813246 0
M  V30 14650 H 1407.04 -3.98095 2.66566 0
M  V30 14651 H 1405.4 -2.16867 1.3357 0
M  V30 14652 H 1406.18 -1.74958 2.95372 0
M  V30 14653 N 1408.63 -1.05812 -1.16797 0
M  V30 14654 C 1409.54 -0.675541 -2.24663 0
M  V30 14655 C 1410.56 0.30622 -1.71284 0
M  V30 14656 O 1411.73 0.156752 -2.00789 0
M  V30 14657 C 1408.8 -0.0627149 -3.46643 0
M  V30 14658 C 1407.86 -1.09572 -4.15081 0
M  V30 14659 C 1407.09 -0.512044 -5.31238 0
M  V30 14660 O 1407.31 0.676665 -5.66372 0
M  V30 14661 O 1406.25 -1.24936 -5.88791 0
M  V30 14662 H 1410.07 -1.57467 -2.59688 0
M  V30 14663 H 1407.66 -0.830073 -1.24218 0
M  V30 14664 H 1409.54 0.277543 -4.20485 0
M  V30 14665 H 1408.22 0.80997 -3.13403 0
M  V30 14666 H 1407.12 -1.48807 -3.4323 0
M  V30 14667 H 1408.46 -1.93977 -4.52365 0
M  V30 14668 N 1410.11 1.33347 -0.840014 0
M  V30 14669 C 1411.52 1.80077 -0.492851 0
M  V30 14670 C 1411.87 1.69495 0.988221 0
M  V30 14671 O 1410.99 1.2449 1.77006 0
M  V30 14672 C 1411.59 3.2696 -0.887827 0
M  V30 14673 C 1410.15 3.71703 -0.592785 0
M  V30 14674 C 1409.3 2.54742 -1.09554 0
M  V30 14675 H 1412.25 1.20853 -1.02861 0
M  V30 14676 H 1412.27 3.79983 -0.198327 0
M  V30 14677 H 1411.78 3.3463 -1.96581 0
M  V30 14678 H 1409.88 3.69559 0.475086 0
M  V30 14679 H 1409.99 4.65123 -1.14882 0
M  V30 14680 H 1408.36 2.49411 -0.516357 0
M  V30 14681 H 1409.14 2.65173 -2.18032 0
M  V30 14682 N 1411.59 0.596556 1.45873 0
M  V30 14683 C 1412.81 0.0916466 2.07197 0
M  V30 14684 C 1413.24 -1.21004 1.44012 0
M  V30 14685 O 1412.59 -1.73415 0.528844 0
M  V30 14686 C 1412.64 -0.0461457 3.6057 0
M  V30 14687 O 1411.75 -1.09919 3.97481 0
M  V30 14688 H 1411.09 0.0690655 0.660398 0
M  V30 14689 H 1413.62 0.823434 1.87299 0
M  V30 14690 H 1413.63 -0.2479 4.07246 0
M  V30 14691 H 1412.3 0.904381 4.05948 0
M  V30 14692 H 1410.88 -0.874788 3.62494 0
M  V30 14693 N 1413.06 -1.53996 0.335095 0
M  V30 14694 C 1414.47 -1.86092 -0.15058 0
M  V30 14695 C 1414.83 -1.25652 -1.50685 0
M  V30 14696 O 1413.95 -0.566887 -2.08843 0
M  V30 14697 C 1414.55 -3.37641 -0.280007 0
M  V30 14698 C 1413.1 -3.69645 -0.709907 0
M  V30 14699 C 1412.25 -2.7683 0.161461 0
M  V30 14700 H 1415.2 -1.4868 0.554986 0
M  V30 14701 H 1415.22 -3.63981 -1.10896 0
M  V30 14702 H 1414.74 -3.81601 0.707254 0
M  V30 14703 H 1412.84 -3.31224 -1.7065 0
M  V30 14704 H 1412.95 -4.76424 -0.505661 0
M  V30 14705 H 1411.31 -2.52073 -0.364849 0
M  V30 14706 H 1412.1 -3.23618 1.1457 0
M  V30 14707 N 1414.54 -0.0635198 -1.57472 0
M  V30 14708 C 1415.77 0.616735 -1.97494 0
M  V30 14709 C 1416.18 1.63646 -0.941568 0
M  V30 14710 O 1415.54 1.82355 0.0727768 0
M  V30 14711 C 1415.59 1.29268 -3.37597 0
M  V30 14712 O 1415.31 0.313781 -4.36975 0
M  V30 14713 C 1416.81 2.06154 -3.92448 0
M  V30 14714 H 1414.03 0.167753 -0.649692 0
M  V30 14715 H 1416.58 -0.133475 -2.04064 0
M  V30 14716 H 1414.73 1.99404 -3.3214 0
M  V30 14717 H 1415.15 0.797723 -5.18398 0
M  V30 14718 H 1416.62 2.48853 -4.92723 0
M  V30 14719 H 1417.1 2.91474 -3.28541 0
M  V30 14720 H 1417.7 1.40903 -4.01281 0
M  V30 14721 N 1416.02 1.56195 0.209972 0
M  V30 14722 C 1417.27 1.7939 0.930796 0
M  V30 14723 C 1417.59 0.634038 1.84404 0
M  V30 14724 O 1416.86 -0.348467 1.92776 0
M  V30 14725 H 1415.44 0.661676 0.346689 0
M  V30 14726 H 1418.1 1.93665 0.219049 0
M  V30 14727 H 1417.2 2.71982 1.53075 0
M  V30 14728 N 1417.5 -0.477127 1.50204 0
M  V30 14729 C 1418.74 -1.22864 1.62099 0
M  V30 14730 C 1419.1 -1.89811 0.314549 0
M  V30 14731 O 1418.39 -1.78856 -0.687092 0
M  V30 14732 C 1418.59 -2.30126 2.73453 0
M  V30 14733 C 1418.41 -1.73701 4.14799 0
M  V30 14734 C 1417.18 -1.5394 4.8128 0
M  V30 14735 C 1419.38 -1.23535 4.99243 0
M  V30 14736 N 1417.36 -0.926941 6.06862 0
M  V30 14737 C 1418.74 -0.745736 6.15499 0
M  V30 14738 C 1420.79 -1.12333 4.85063 0
M  V30 14739 C 1419.49 -0.155155 7.19133 0
M  V30 14740 C 1421.52 -0.546689 5.88868 0
M  V30 14741 C 1420.88 -0.0674239 7.04368 0
M  V30 14742 H 1416.98 -0.438688 0.647361 0
M  V30 14743 H 1419.56 -0.531647 1.87301 0
M  V30 14744 H 1417.74 -2.97259 2.49984 0
M  V30 14745 H 1419.47 -2.97154 2.74739 0
M  V30 14746 H 1416.22 -1.78993 4.38473 0
M  V30 14747 H 1416.65 -0.639298 6.73975 0
M  V30 14748 H 1421.29 -1.4798 3.96058 0
M  V30 14749 H 1419.01 0.21354 8.07818 0
M  V30 14750 H 1422.59 -0.462461 5.79959 0
M  V30 14751 H 1421.47 0.371791 7.83318 0
M  V30 14752 N 1418.98 -1.3968 -0.729882 0
M  V30 14753 C 1420.22 -1.36911 -1.4866 0
M  V30 14754 C 1420.55 0.0326011 -1.94973 0
M  V30 14755 O 1419.82 0.984789 -1.69348 0
M  V30 14756 H 1418.4 -0.503848 -0.551495 0
M  V30 14757 H 1421.06 -1.74596 -0.866155 0
M  V30 14758 H 1420.15 -2.03504 -2.36628 0
M  V30 14759 N 1420.45 0.960609 -1.2494 0
M  V30 14760 C 1421.87 1.51915 -1.0853 0
M  V30 14761 C 1422.22 1.93215 0.340949 0
M  V30 14762 O 1421.34 1.78031 1.2302 0
M  V30 14763 C 1421.94 2.76069 -1.96396 0
M  V30 14764 C 1420.5 3.28255 -1.84189 0
M  V30 14765 C 1419.64 2.01124 -1.90905 0
M  V30 14766 H 1422.59 0.778141 -1.38314 0
M  V30 14767 H 1422.61 3.49668 -1.50042 0
M  V30 14768 H 1422.13 2.45979 -3.00193 0
M  V30 14769 H 1420.23 3.6318 -0.832518 0
M  V30 14770 H 1420.34 3.96675 -2.68673 0
M  V30 14771 H 1418.7 2.16155 -1.34718 0
M  V30 14772 H 1419.49 1.73389 -2.96295 0
M  V30 14773 N 1421.93 1.0643 1.16234 0
M  V30 14774 C 1423.34 0.806012 1.68405 0
M  V30 14775 C 1423.69 -0.670197 1.84398 0
M  V30 14776 O 1422.82 -1.51975 1.54054 0
M  V30 14777 C 1423.41 1.45654 3.05893 0
M  V30 14778 C 1421.97 1.24599 3.55179 0
M  V30 14779 C 1421.12 1.53216 2.31128 0
M  V30 14780 H 1424.07 1.22759 1.00578 0
M  V30 14781 H 1424.09 0.872616 3.70359 0
M  V30 14782 H 1423.6 2.53092 2.94221 0
M  V30 14783 H 1421.71 0.191407 3.72108 0
M  V30 14784 H 1421.82 1.95967 4.37188 0
M  V30 14785 H 1420.18 0.952755 2.36209 0
M  V30 14786 H 1420.97 2.61816 2.22052 0
M  V30 14787 N 1423.41 -1.329 0.847073 0
M  V30 14788 C 1424.69 -1.921 0.368351 0
M  V30 14789 C 1425.07 -1.77205 -1.14724 0
M  V30 14790 O 1424.42 -1.16547 -1.96543 0
M  V30 14791 C 1424.63 -3.39125 0.824326 0
M  V30 14792 C 1425.97 -4.16267 0.837097 0
M  V30 14793 O 1427 -3.47812 0.768466 0
M  V30 14794 O 1425.86 -5.38487 0.932389 0
M  V30 14795 H 1422.95 -0.820187 0.105936 0
M  V30 14796 H 1425.5 -1.41719 0.933471 0
M  V30 14797 H 1424.27 -3.43875 1.86723 0
M  V30 14798 H 1423.89 -3.96898 0.236233 0
M  V30 14799 N 1424.89 -0.604284 -1.45555 0
M  V30 14800 C 1426.14 -0.0979922 -2.01862 0
M  V30 14801 C 1426.46 1.27476 -1.47563 0
M  V30 14802 O 1425.73 1.84137 -0.668612 0
M  V30 14803 H 1424.31 -0.033235 -0.74626 0
M  V30 14804 H 1426.97 -0.784936 -1.78395 0
M  V30 14805 H 1426.07 -0.0452716 -3.12067 0
M  V30 14806 N 1426.37 1.53816 -0.343257 0
M  V30 14807 C 1427.61 2.00512 0.252845 0
M  V30 14808 C 1427.94 1.23274 1.51091 0
M  V30 14809 O 1427.21 0.339841 1.9293 0
M  V30 14810 H 1425.79 0.740751 0.0964202 0
M  V30 14811 H 1428.45 1.89288 -0.464347 0
M  V30 14812 H 1427.54 3.08142 0.495499 0
M  V30 14813 N 1427.84 0.0718701 1.57436 0
M  V30 14814 C 1429.26 -0.28476 1.57039 0
M  V30 14815 C 1429.46 -1.70032 1.08127 0
M  V30 14816 O 1428.52 -2.41191 0.747189 0
M  V30 14817 C 1429.83 -0.0943482 3.00552 0
M  V30 14818 C 1431.38 -0.163879 3.12571 0
M  V30 14819 C 1431.85 -0.00174658 4.58 0
M  V30 14820 N 1433.34 -0.0573489 4.63164 0
M  V30 14821 C 1434.08 0.0436849 5.73383 0
M  V30 14822 N 1433.57 0.198243 6.92516 0
M  V30 14823 N 1435.37 -0.0133856 5.62098 0
M  V30 14824 H 1427.52 0.99702 1.87545 0
M  V30 14825 H 1429.78 0.388822 0.864593 0
M  V30 14826 H 1429.49 0.882445 3.40449 0
M  V30 14827 H 1429.36 -0.846636 3.67576 0
M  V30 14828 H 1431.75 -1.13116 2.7256 0
M  V30 14829 H 1431.83 0.619513 2.48185 0
M  V30 14830 H 1431.47 0.9623 4.98701 0
M  V30 14831 H 1431.4 -0.804543 5.20418 0
M  V30 14832 H 1433.89 -0.175212 3.77494 0
M  V30 14833 H 1434.21 0.267479 7.72337 0
M  V30 14834 H 1432.55 0.233606 6.94607 0
M  V30 14835 H 1435.74 -0.132835 4.67911 0
M  V30 14836 H 1435.92 0.0688076 6.47963 0
M  V30 14837 N 1429.32 -1.56304 -0.201686 0
M  V30 14838 C 1430.29 -1.93171 -1.2336 0
M  V30 14839 C 1431.29 -0.812164 -1.38782 0
M  V30 14840 O 1432.48 -1.07967 -1.36707 0
M  V30 14841 C 1429.61 -2.19997 -2.60411 0
M  V30 14842 H 1430.8 -2.85483 -0.918654 0
M  V30 14843 H 1428.35 -1.49893 -0.442935 0
M  V30 14844 H 1429.09 -1.30301 -2.96972 0
M  V30 14845 H 1428.87 -3.01574 -2.5059 0
M  V30 14846 H 1430.36 -2.49547 -3.34838 0
M  V30 14847 N 1430.8 0.469154 -1.50455 0
M  V30 14848 C 1431.76 1.5493 -1.68906 0
M  V30 14849 C 1432.76 1.50744 -0.559721 0
M  V30 14850 O 1433.95 1.5333 -0.826781 0
M  V30 14851 C 1431.09 2.94556 -1.71609 0
M  V30 14852 H 1432.28 1.39887 -2.65276 0
M  V30 14853 H 1429.83 0.695667 -1.39965 0
M  V30 14854 H 1430.57 3.15041 -0.769382 0
M  V30 14855 H 1430.35 2.99002 -2.53654 0
M  V30 14856 H 1431.84 3.72973 -1.87831 0
M  V30 14857 N 1432.28 1.40065 0.722464 0
M  V30 14858 C 1433.21 1.42532 1.84951 0
M  V30 14859 C 1434.19 0.287082 1.6766 0
M  V30 14860 O 1435.37 0.494715 1.87793 0
M  V30 14861 C 1432.5 1.28041 3.22836 0
M  V30 14862 C 1431.46 2.39396 3.54787 0
M  V30 14863 C 1430.78 2.09986 4.91742 0
M  V30 14864 C 1432.08 3.81729 3.56483 0
M  V30 14865 H 1433.78 2.36851 1.83144 0
M  V30 14866 H 1431.32 1.14005 0.879714 0
M  V30 14867 H 1433.28 1.28385 4.01367 0
M  V30 14868 H 1432 0.301947 3.25201 0
M  V30 14869 H 1430.66 2.3829 2.78592 0
M  V30 14870 H 1430.31 1.10547 4.90702 0
M  V30 14871 H 1430.01 2.84586 5.14086 0
M  V30 14872 H 1431.53 2.12 5.72615 0
M  V30 14873 H 1432.95 3.84696 4.25067 0
M  V30 14874 H 1431.34 4.55791 3.90351 0
M  V30 14875 H 1432.41 4.11807 2.56014 0
M  V30 14876 N 1433.76 -0.95397 1.25448 0
M  V30 14877 C 1435 -1.70118 1.10399 0
M  V30 14878 C 1435.34 -1.90945 -0.354093 0
M  V30 14879 O 1434.61 -1.48088 -1.26096 0
M  V30 14880 C 1434.89 -3.08371 1.85955 0
M  V30 14881 C 1434.75 -2.9495 3.39595 0
M  V30 14882 C 1436.07 -4.08273 1.64321 0
M  V30 14883 H 1433.19 -0.617424 0.402438 0
M  V30 14884 H 1435.83 -1.10884 1.54288 0
M  V30 14885 H 1433.98 -3.58936 1.48651 0
M  V30 14886 H 1435.65 -2.51705 3.86578 0
M  V30 14887 H 1433.89 -2.30853 3.67273 0
M  V30 14888 H 1434.56 -3.92952 3.87676 0
M  V30 14889 H 1437.04 -3.6662 1.96796 0
M  V30 14890 H 1435.92 -5.03048 2.19622 0
M  V30 14891 H 1436.18 -4.38217 0.584685 0
M  V30 14892 N 1435.24 -1.07045 -1.15668 0
M  V30 14893 C 1436.65 -0.795369 -1.38369 0
M  V30 14894 C 1436.85 0.601829 -1.92303 0
M  V30 14895 O 1435.91 1.36109 -2.12675 0
M  V30 14896 C 1437.22 -1.86659 -2.35752 0
M  V30 14897 C 1438.77 -1.89098 -2.49421 0
M  V30 14898 C 1439.24 -2.95296 -3.50092 0
M  V30 14899 N 1440.73 -2.94378 -3.57625 0
M  V30 14900 C 1441.47 -3.73194 -4.35331 0
M  V30 14901 N 1440.97 -4.61851 -5.16397 0
M  V30 14902 N 1442.76 -3.61554 -4.30389 0
M  V30 14903 H 1434.91 -1.97162 -0.790004 0
M  V30 14904 H 1437.17 -0.854816 -0.40987 0
M  V30 14905 H 1436.88 -2.87036 -2.03232 0
M  V30 14906 H 1436.75 -1.72406 -3.35494 0
M  V30 14907 H 1439.14 -0.893752 -2.8124 0
M  V30 14908 H 1439.22 -2.07429 -1.49689 0
M  V30 14909 H 1438.86 -3.95217 -3.19008 0
M  V30 14910 H 1438.79 -2.74212 -4.49572 0
M  V30 14911 H 1441.29 -2.3011 -2.99763 0
M  V30 14912 H 1441.6 -5.18629 -5.72926 0
M  V30 14913 H 1439.94 -4.65902 -5.15714 0
M  V30 14914 H 1443.13 -2.91672 -3.66122 0
M  V30 14915 H 1443.31 -4.23221 -4.90701 0
M  V30 14916 N 1436.71 1.32449 -0.85411 0
M  V30 14917 C 1438.13 1.50046 -0.543895 0
M  V30 14918 C 1438.33 1.78985 0.925561 0
M  V30 14919 O 1437.39 1.85909 1.70862 0
M  V30 14920 C 1438.7 2.64499 -1.43041 0
M  V30 14921 C 1440.25 2.78384 -1.43078 0
M  V30 14922 C 1440.72 3.95915 -2.3025 0
M  V30 14923 N 1442.21 4.03176 -2.28043 0
M  V30 14924 C 1442.95 4.9335 -2.92221 0
M  V30 14925 N 1442.44 5.88536 -3.6551 0
M  V30 14926 N 1444.24 4.86468 -2.81612 0
M  V30 14927 H 1436.39 1.11931 -1.80514 0
M  V30 14928 H 1438.65 0.551626 -0.770982 0
M  V30 14929 H 1438.36 2.49842 -2.47532 0
M  V30 14930 H 1438.23 3.60269 -1.11742 0
M  V30 14931 H 1440.62 2.92464 -0.393529 0
M  V30 14932 H 1440.7 1.83329 -1.78393 0
M  V30 14933 H 1440.34 3.82594 -3.34043 0
M  V30 14934 H 1440.27 4.90245 -1.92268 0
M  V30 14935 H 1442.76 3.35064 -1.74759 0
M  V30 14936 H 1443.08 6.54038 -4.11648 0
M  V30 14937 H 1441.42 5.88564 -3.69618 0
M  V30 14938 H 1444.61 4.11076 -2.23907 0
M  V30 14939 H 1444.79 5.56542 -3.3191 0
M  V30 14940 N 1438.19 0.611994 1.45232 0
M  V30 14941 C 1439.15 -0.0943825 2.29006 0
M  V30 14942 C 1440.15 -0.790863 1.40007 0
M  V30 14943 O 1441.34 -0.638356 1.62082 0
M  V30 14944 C 1438.48 -1.1439 3.21135 0
M  V30 14945 H 1439.67 0.6422 2.92943 0
M  V30 14946 H 1437.22 0.37124 1.51827 0
M  V30 14947 H 1437.96 -1.9111 2.62007 0
M  V30 14948 H 1437.74 -0.648638 3.86698 0
M  V30 14949 H 1439.23 -1.63848 3.84114 0
M  V30 14950 N 1439.67 -1.53632 0.351409 0
M  V30 14951 C 1441.08 -1.86241 -0.130834 0
M  V30 14952 C 1441.43 -1.27243 -1.49344 0
M  V30 14953 O 1440.56 -0.589006 -2.0823 0
M  V30 14954 C 1441.15 -3.37919 -0.244179 0
M  V30 14955 C 1439.71 -3.70377 -0.670662 0
M  V30 14956 C 1438.86 -2.76643 0.190813 0
M  V30 14957 H 1441.81 -1.48083 0.570724 0
M  V30 14958 H 1441.83 -3.65137 -1.07029 0
M  V30 14959 H 1441.34 -3.8083 0.747688 0
M  V30 14960 H 1439.44 -3.33015 -1.67127 0
M  V30 14961 H 1439.56 -4.76934 -0.455102 0
M  V30 14962 H 1437.92 -2.52446 -0.338092 0
M  V30 14963 H 1438.7 -3.22385 1.17996 0
M  V30 14964 N 1441.15 -0.0802183 -1.57396 0
M  V30 14965 C 1442.08 0.913777 -2.10197 0
M  V30 14966 C 1443.09 1.25588 -1.03593 0
M  V30 14967 O 1444.28 1.21159 -1.31083 0
M  V30 14968 C 1441.38 2.2272 -2.55439 0
M  V30 14969 C 1440.55 2.06268 -3.8571 0
M  V30 14970 C 1439.61 3.20989 -4.16956 0
M  V30 14971 O 1438.64 2.95608 -4.8642 0
M  V30 14972 N 1439.84 4.46331 -3.71172 0
M  V30 14973 H 1442.61 0.462908 -2.96103 0
M  V30 14974 H 1440.17 0.105287 -1.61557 0
M  V30 14975 H 1442.16 2.98389 -2.73397 0
M  V30 14976 H 1440.73 2.59278 -1.74624 0
M  V30 14977 H 1439.95 1.15016 -3.77048 0
M  V30 14978 H 1441.24 1.92535 -4.70965 0
M  V30 14979 H 1440.64 4.69837 -3.15071 0
M  V30 14980 H 1439.19 5.18999 -3.94314 0
M  V30 14981 N 1442.63 1.56409 0.193394 0
M  V30 14982 C 1444.04 1.70624 0.757915 0
M  V30 14983 C 1444.39 0.687074 1.83776 0
M  V30 14984 O 1443.51 -0.15616 2.15836 0
M  V30 14985 C 1444.11 3.09352 1.38156 0
M  V30 14986 C 1442.67 3.25326 1.89315 0
M  V30 14987 C 1441.81 2.66576 0.763727 0
M  V30 14988 H 1444.76 1.58668 -0.0317034 0
M  V30 14989 H 1444.79 3.06776 2.25098 0
M  V30 14990 H 1444.3 3.83506 0.595398 0
M  V30 14991 H 1442.4 2.5609 2.70644 0
M  V30 14992 H 1442.51 4.32848 2.05376 0
M  V30 14993 H 1440.88 2.25797 1.17846 0
M  V30 14994 H 1441.66 3.43298 -0.0102243 0
M  V30 14995 N 1444.1 -0.461169 1.50702 0
M  V30 14996 C 1445.51 -1.04177 1.54932 0
M  V30 14997 C 1445.87 -1.92894 0.358648 0
M  V30 14998 O 1444.99 -2.09876 -0.527346 0
M  V30 14999 C 1445.59 -1.8961 2.80773 0
M  V30 15000 C 1444.14 -2.42761 2.87652 0
M  V30 15001 C 1443.29 -1.21356 2.49335 0
M  V30 15002 H 1446.24 -0.243379 1.56823 0
M  V30 15003 H 1446.26 -2.74794 2.63189 0
M  V30 15004 H 1445.78 -1.25014 3.67414 0
M  V30 15005 H 1443.88 -3.10881 2.05386 0
M  V30 15006 H 1443.99 -2.77189 3.90772 0
M  V30 15007 H 1442.35 -1.55146 2.01995 0
M  V30 15008 H 1443.14 -0.584069 3.38295 0
M  V30 15009 N 1445.58 -1.40446 -0.715026 0
M  V30 15010 C 1446.83 -1.3848 -1.47199 0
M  V30 15011 C 1447.15 0.0119198 -1.94996 0
M  V30 15012 O 1446.42 0.966772 -1.70383 0
M  V30 15013 H 1445 -0.509669 -0.54612 0
M  V30 15014 H 1447.66 -1.75505 -0.847588 0
M  V30 15015 H 1446.76 -2.06002 -2.34456 0
M  V30 15016 N 1447.06 0.947303 -1.25952 0
M  V30 15017 C 1448.48 1.21972 -1.02932 0
M  V30 15018 C 1448.68 1.99951 0.249333 0
M  V30 15019 O 1447.73 2.33534 0.960108 0
M  V30 15020 C 1449.04 1.98695 -2.257 0
M  V30 15021 C 1450.59 2.11711 -2.30538 0
M  V30 15022 C 1451.07 2.91835 -3.52982 0
M  V30 15023 N 1452.56 2.99411 -3.53422 0
M  V30 15024 C 1453.29 3.6182 -4.4483 0
M  V30 15025 N 1452.79 4.25781 -5.46519 0
M  V30 15026 N 1454.58 3.59033 -4.32495 0
M  V30 15027 H 1446.73 0.42583 -2.08088 0
M  V30 15028 H 1449 0.250899 -0.914196 0
M  V30 15029 H 1448.7 1.48801 -3.18671 0
M  V30 15030 H 1448.58 2.9938 -2.29459 0
M  V30 15031 H 1450.96 2.608 -1.38085 0
M  V30 15032 H 1451.04 1.10308 -2.30794 0
M  V30 15033 H 1450.69 2.43435 -4.4576 0
M  V30 15034 H 1450.62 3.9348 -3.49973 0
M  V30 15035 H 1453.11 2.53934 -2.79868 0
M  V30 15036 H 1453.42 4.71281 -6.12466 0
M  V30 15037 H 1451.77 4.24386 -5.50383 0
M  V30 15038 H 1454.96 3.08254 -3.52274 0
M  V30 15039 H 1455.13 4.07384 -5.03927 0
M  V30 15040 N 1448.54 1.07657 1.15099 0
M  V30 15041 C 1449.95 0.823828 1.67541 0
M  V30 15042 C 1450.3 -0.650601 1.85099 0
M  V30 15043 O 1449.43 -1.50333 1.55657 0
M  V30 15044 C 1450.02 1.4889 3.04331 0
M  V30 15045 C 1448.58 1.28359 3.53837 0
M  V30 15046 C 1447.73 1.55659 2.2949 0
M  V30 15047 H 1450.68 1.23819 0.992699 0
M  V30 15048 H 1450.7 0.911848 3.69412 0
M  V30 15049 H 1450.21 2.56199 2.9152 0
M  V30 15050 H 1448.31 0.230864 3.71884 0
M  V30 15051 H 1448.42 2.00593 4.35085 0
M  V30 15052 H 1446.79 0.977755 2.35185 0
M  V30 15053 H 1447.57 2.64157 2.19263 0
M  V30 15054 N 1450.02 -1.31994 0.861122 0
M  V30 15055 C 1451.43 -1.79271 0.521437 0
M  V30 15056 C 1451.78 -1.71046 -0.96113 0
M  V30 15057 O 1450.9 -1.2729 -1.75003 0
M  V30 15058 C 1451.5 -3.25507 0.939731 0
M  V30 15059 C 1450.06 -3.70713 0.651845 0
M  V30 15060 C 1449.2 -2.52967 1.13592 0
M  V30 15061 H 1452.16 -1.19201 1.0477 0
M  V30 15062 H 1452.18 -3.79619 0.258754 0
M  V30 15063 H 1451.69 -3.3146 2.0188 0
M  V30 15064 H 1449.79 -3.70268 -0.416232 0
M  V30 15065 H 1449.9 -4.63236 1.22267 0
M  V30 15066 H 1448.27 -2.48558 0.555971 0
M  V30 15067 H 1449.05 -2.61671 2.22223 0
M  V30 15068 N 1451.49 -0.619688 -1.44906 0
M  V30 15069 C 1452.72 -0.126363 -2.06514 0
M  V30 15070 C 1453.14 1.19432 -1.46224 0
M  V30 15071 O 1452.49 1.7301 -0.580851 0
M  V30 15072 C 1452.55 0.00682319 -3.61499 0
M  V30 15073 O 1452.27 -1.26162 -4.19541 0
M  V30 15074 C 1453.77 0.530189 -4.40118 0
M  V30 15075 H 1450.99 -0.0744032 -0.666862 0
M  V30 15076 H 1453.53 -0.850851 -1.85959 0
M  V30 15077 H 1451.69 0.681694 -3.81355 0
M  V30 15078 H 1452.1 -1.09908 -5.12855 0
M  V30 15079 H 1453.57 0.572428 -5.49024 0
M  V30 15080 H 1454.05 1.55494 -4.10753 0
M  V30 15081 H 1454.66 -0.111044 -4.25155 0
M  V30 15082 N 1452.97 1.53444 -0.359552 0
M  V30 15083 C 1454.38 1.86308 0.120955 0
M  V30 15084 C 1454.73 1.28033 1.48667 0
M  V30 15085 O 1453.86 0.600041 2.07915 0
M  V30 15086 C 1454.45 3.38044 0.226255 0
M  V30 15087 C 1453.01 3.70727 0.65101 0
M  V30 15088 C 1452.16 2.76538 -0.205482 0
M  V30 15089 H 1455.11 1.47778 -0.578569 0
M  V30 15090 H 1455.13 3.65699 1.05092 0
M  V30 15091 H 1454.64 3.80428 -0.767874 0
M  V30 15092 H 1452.75 3.33897 1.65359 0
M  V30 15093 H 1452.86 4.77168 0.429802 0
M  V30 15094 H 1451.22 2.52622 0.3247 0
M  V30 15095 H 1452.01 3.21754 -1.19704 0
M  V30 15096 N 1454.45 0.0885642 1.57351 0
M  V30 15097 C 1455.7 -0.575536 1.93732 0
M  V30 15098 C 1456.02 -1.69126 0.970644 0
M  V30 15099 O 1455.29 -1.95888 0.0215907 0
M  V30 15100 H 1453.87 -0.215592 0.715213 0
M  V30 15101 H 1456.53 0.150362 1.94319 0
M  V30 15102 H 1455.63 -0.989979 2.95983 0
M  V30 15103 N 1455.93 -1.56509 -0.185096 0
M  V30 15104 C 1457.34 -1.71024 -0.748856 0
M  V30 15105 C 1457.69 -0.69681 -1.83409 0
M  V30 15106 O 1456.82 0.144711 -2.15916 0
M  V30 15107 C 1457.41 -3.1008 -1.36513 0
M  V30 15108 C 1455.97 -3.26325 -1.87587 0
M  V30 15109 C 1455.12 -2.66977 -0.749579 0
M  V30 15110 H 1458.07 -1.58649 0.0401175 0
M  V30 15111 H 1458.09 -3.07965 -2.23468 0
M  V30 15112 H 1457.6 -3.83816 -0.575051 0
M  V30 15113 H 1455.7 -2.57522 -2.69283 0
M  V30 15114 H 1455.81 -4.33931 -2.03078 0
M  V30 15115 H 1454.18 -2.26419 -1.16647 0
M  V30 15116 H 1454.96 -3.43288 0.0284301 0
M  V30 15117 N 1457.41 0.45317 -1.50944 0
M  V30 15118 C 1458.82 1.03354 -1.55482 0
M  V30 15119 C 1459.17 1.92701 -0.368873 0
M  V30 15120 O 1458.29 2.10153 0.516208 0
M  V30 15121 C 1458.89 1.88118 -2.81775 0
M  V30 15122 C 1457.45 2.41232 -2.88936 0
M  V30 15123 C 1456.59 1.20032 -2.49975 0
M  V30 15124 H 1459.55 0.235059 -1.5695 0
M  V30 15125 H 1459.57 2.73394 -2.64643 0
M  V30 15126 H 1459.08 1.23064 -3.68072 0
M  V30 15127 H 1457.18 3.09788 -2.07032 0
M  V30 15128 H 1457.29 2.75113 -3.92237 0
M  V30 15129 H 1455.66 1.54072 -2.02815 0
M  V30 15130 H 1456.44 0.56612 -3.386 0
M  V30 15131 N 1458.88 1.40823 0.707568 0
M  V30 15132 C 1459.81 1.44485 1.83429 0
M  V30 15133 C 1460.8 0.304848 1.67346 0
M  V30 15134 O 1461.98 0.514605 1.87258 0
M  V30 15135 C 1459.11 1.31458 3.21459 0
M  V30 15136 C 1458.06 2.43145 3.52228 0
M  V30 15137 C 1457.39 2.15189 4.89487 0
M  V30 15138 C 1458.69 3.85489 3.52414 0
M  V30 15139 H 1460.38 2.38781 1.80622 0
M  V30 15140 H 1457.93 1.14931 0.867572 0
M  V30 15141 H 1459.88 1.32635 3.99983 0
M  V30 15142 H 1458.61 0.336422 3.24863 0
M  V30 15143 H 1457.27 2.41231 2.76049 0
M  V30 15144 H 1456.91 1.15745 4.89502 0
M  V30 15145 H 1456.61 2.90022 5.11039 0
M  V30 15146 H 1458.14 2.18062 5.70334 0
M  V30 15147 H 1459.55 3.89183 4.20963 0
M  V30 15148 H 1457.95 4.59906 3.85495 0
M  V30 15149 H 1459.02 4.14499 2.51632 0
M  V30 15150 N 1460.36 -0.94061 1.26453 0
M  V30 15151 C 1461.59 -1.72654 1.14914 0
M  V30 15152 C 1462.01 -1.85823 -0.291789 0
M  V30 15153 O 1461.37 -1.34888 -1.2114 0
M  V30 15154 C 1461.42 -3.11083 1.82372 0
M  V30 15155 O 1460.52 -3.971 1.1129 0
M  V30 15156 H 1459.86 -0.529704 0.400387 0
M  V30 15157 H 1462.39 -1.17803 1.67283 0
M  V30 15158 H 1462.4 -3.6147 1.89219 0
M  V30 15159 H 1461.08 -3.00815 2.87199 0
M  V30 15160 H 1459.66 -3.5555 1.12423 0
M  V30 15161 N 1461.84 -1.08266 -1.14527 0
M  V30 15162 C 1463.12 -0.724254 -1.81697 0
M  V30 15163 C 1463.5 0.792212 -1.95671 0
M  V30 15164 O 1462.85 1.71017 -1.51543 0
M  V30 15165 C 1463.06 -1.44949 -3.17475 0
M  V30 15166 C 1464.4 -1.60761 -3.9299 0
M  V30 15167 O 1465.43 -1.41103 -3.2706 0
M  V30 15168 O 1464.29 -1.93184 -5.11216 0
M  V30 15169 H 1461.38 -0.258814 -0.785458 0
M  V30 15170 H 1463.93 -1.18414 -1.21557 0
M  V30 15171 H 1462.7 -2.48262 -3.02459 0
M  V30 15172 H 1462.32 -0.980993 -3.85308 0
M  V30 15173 N 1463.32 1.31536 -0.86811 0
M  V30 15174 C 1464.57 1.97066 -0.478829 0
M  V30 15175 C 1464.9 1.68469 0.966021 0
M  V30 15176 O 1464.17 0.980166 1.67997 0
M  V30 15177 C 1464.46 3.52533 -0.734313 0
M  V30 15178 C 1464.31 3.90711 -2.22856 0
M  V30 15179 C 1465.63 4.39647 -0.199559 0
M  V30 15180 H 1462.75 0.715813 -0.175444 0
M  V30 15181 H 1465.39 1.55694 -1.08901 0
M  V30 15182 H 1463.54 3.87905 -0.214962 0
M  V30 15183 H 1465.21 3.65451 -2.81502 0
M  V30 15184 H 1463.45 3.39385 -2.70185 0
M  V30 15185 H 1464.13 4.99103 -2.35797 0
M  V30 15186 H 1466.6 4.11088 -0.643853 0
M  V30 15187 H 1465.48 5.47383 -0.407783 0
M  V30 15188 H 1465.74 4.32875 0.898414 0
M  V30 15189 N 1464.8 0.627364 1.44575 0
M  V30 15190 C 1466.02 0.135576 2.06956 0
M  V30 15191 C 1466.45 -1.17922 1.46547 0
M  V30 15192 O 1465.81 -1.72255 0.565509 0
M  V30 15193 C 1465.85 0.030347 3.60587 0
M  V30 15194 O 1464.96 -1.01464 3.99724 0
M  V30 15195 H 1464.3 0.083058 0.658785 0
M  V30 15196 H 1466.83 0.862977 1.8551 0
M  V30 15197 H 1466.84 -0.161461 4.0768 0
M  V30 15198 H 1465.51 0.990285 4.03938 0
M  V30 15199 H 1464.09 -0.797701 3.64268 0
M  V30 15200 N 1466.28 -1.53251 0.367684 0
M  V30 15201 C 1467.69 -1.59591 0.0167132 0
M  V30 15202 C 1467.89 -1.38272 -1.46571 0
M  V30 15203 O 1466.95 -1.18893 -2.22757 0
M  V30 15204 C 1468.26 -2.96932 0.474534 0
M  V30 15205 C 1469.81 -3.10047 0.428934 0
M  V30 15206 C 1470.28 -4.49804 0.862599 0
M  V30 15207 N 1471.77 -4.55925 0.817742 0
M  V30 15208 C 1472.51 -5.62256 1.12496 0
M  V30 15209 N 1472.01 -6.76332 1.50156 0
M  V30 15210 N 1473.8 -5.52251 1.04762 0
M  V30 15211 H 1465.95 -1.6536 1.33303 0
M  V30 15212 H 1468.21 -0.775681 0.544998 0
M  V30 15213 H 1467.92 -3.17679 1.50907 0
M  V30 15214 H 1467.79 -3.76948 -0.137752 0
M  V30 15215 H 1470.18 -2.89009 -0.596473 0
M  V30 15216 H 1470.26 -2.32034 1.07674 0
M  V30 15217 H 1469.9 -4.7158 1.88613 0
M  V30 15218 H 1469.83 -5.2625 0.19202 0
M  V30 15219 H 1472.33 -3.74017 0.540323 0
M  V30 15220 H 1472.64 -7.53412 1.72019 0
M  V30 15221 H 1470.98 -6.77718 1.54024 0
M  V30 15222 H 1474.17 -4.62011 0.752571 0
M  V30 15223 H 1474.35 -6.35022 1.29038 0
M  V30 15224 N 1467.75 -0.0969077 -1.57302 0
M  V30 15225 C 1469 0.567212 -1.94706 0
M  V30 15226 C 1469.33 1.67721 -0.978937 0
M  V30 15227 O 1468.61 1.94496 -0.0123016 0
M  V30 15228 C 1468.89 1.12069 -3.42217 0
M  V30 15229 C 1468.74 0.015615 -4.49797 0
M  V30 15230 C 1470.06 2.0185 -3.91081 0
M  V30 15231 H 1467.18 0.204716 -0.707997 0
M  V30 15232 H 1469.82 -0.167984 -1.89256 0
M  V30 15233 H 1467.97 1.74723 -3.46993 0
M  V30 15234 H 1469.65 -0.61871 -4.57132 0
M  V30 15235 H 1467.89 -0.650529 -4.28895 0
M  V30 15236 H 1468.56 0.443724 -5.50214 0
M  V30 15237 H 1471.04 1.49098 -3.8847 0
M  V30 15238 H 1469.91 2.37502 -4.94858 0
M  V30 15239 H 1470.17 2.93659 -3.3048 0
M  V30 15240 N 1469.23 1.56605 0.176793 0
M  V30 15241 C 1470.46 1.8617 0.91408 0
M  V30 15242 C 1470.88 0.68262 1.75277 0
M  V30 15243 O 1470.24 -0.368391 1.77518 0
M  V30 15244 C 1470.29 3.14109 1.7711 0
M  V30 15245 O 1469.39 2.95947 2.87209 0
M  V30 15246 H 1468.73 0.612507 0.25638 0
M  V30 15247 H 1471.26 2.03837 0.176586 0
M  V30 15248 H 1471.27 3.45373 2.17213 0
M  V30 15249 H 1469.95 3.9954 1.15502 0
M  V30 15250 H 1468.52 2.76024 2.50729 0
M  V30 15251 N 1470.71 -0.445159 1.51182 0
M  V30 15252 C 1472.13 -0.781023 1.39184 0
M  V30 15253 C 1472.33 -1.95988 0.468076 0
M  V30 15254 O 1471.38 -2.52374 -0.0796822 0
M  V30 15255 C 1472.69 -1.06874 2.81067 0
M  V30 15256 C 1474.24 -1.17364 2.90163 0
M  V30 15257 C 1474.72 -1.49433 4.32936 0
M  V30 15258 N 1476.21 -1.56373 4.36006 0
M  V30 15259 C 1476.94 -1.82743 5.435 0
M  V30 15260 N 1476.44 -2.06958 6.61166 0
M  V30 15261 N 1478.23 -1.84461 5.30971 0
M  V30 15262 H 1470.38 0.331347 2.098 0
M  V30 15263 H 1472.65 0.0858102 0.944108 0
M  V30 15264 H 1472.35 -0.275306 3.50621 0
M  V30 15265 H 1472.23 -1.99839 3.19913 0
M  V30 15266 H 1474.61 -1.95771 2.20812 0
M  V30 15267 H 1474.69 -0.22318 2.54825 0
M  V30 15268 H 1474.34 -0.715573 5.02834 0
M  V30 15269 H 1474.27 -2.45673 4.65782 0
M  V30 15270 H 1476.76 -1.39595 3.51172 0
M  V30 15271 H 1477.07 -2.26427 7.38885 0
M  V30 15272 H 1475.42 -2.04297 6.64295 0
M  V30 15273 H 1478.61 -1.65057 4.38034 0
M  V30 15274 H 1478.78 -2.04675 6.14827 0
M  V30 15275 N 1472.19 -1.41197 -0.700089 0
M  V30 15276 C 1473.6 -1.23567 -1.01012 0
M  V30 15277 C 1473.8 -0.121821 -2.01131 0
M  V30 15278 O 1472.86 0.515258 -2.47187 0
M  V30 15279 C 1474.17 -2.58329 -1.53904 0
M  V30 15280 C 1475.72 -2.65473 -1.65811 0
M  V30 15281 C 1476.2 -4.00541 -2.22106 0
M  V30 15282 N 1477.69 -4.02364 -2.29472 0
M  V30 15283 C 1478.42 -5.03672 -2.74048 0
M  V30 15284 N 1477.92 -6.15371 -3.18262 0
M  V30 15285 N 1479.71 -4.91035 -2.73571 0
M  V30 15286 H 1471.86 -2.12368 -0.0367488 0
M  V30 15287 H 1474.12 -0.944713 -0.0788795 0
M  V30 15288 H 1473.83 -3.40565 -0.877964 0
M  V30 15289 H 1473.7 -2.805 -2.5219 0
M  V30 15290 H 1476.09 -1.83598 -2.31032 0
M  V30 15291 H 1476.17 -2.47117 -0.660831 0
M  V30 15292 H 1475.82 -4.82862 -1.57502 0
M  V30 15293 H 1475.75 -4.16235 -3.22577 0
M  V30 15294 H 1478.24 -3.21713 -1.98265 0
M  V30 15295 H 1478.55 -6.88548 -3.50888 0
M  V30 15296 H 1476.9 -6.18914 -3.16182 0
M  V30 15297 H 1480.09 -4.02858 -2.38376 0
M  V30 15298 H 1480.26 -5.70127 -3.07993 0
M  V30 15299 N 1473.67 0.933891 -1.2695 0
M  V30 15300 C 1475.08 1.49578 -1.11728 0
M  V30 15301 C 1475.43 1.93895 0.299889 0
M  V30 15302 O 1474.55 1.806 1.19216 0
M  V30 15303 C 1475.15 2.71841 -2.02208 0
M  V30 15304 C 1473.71 3.24274 -1.9111 0
M  V30 15305 C 1472.85 1.97029 -1.95128 0
M  V30 15306 H 1475.8 0.748628 -1.39933 0
M  V30 15307 H 1475.83 3.46407 -1.57425 0
M  V30 15308 H 1475.34 2.39556 -3.05343 0
M  V30 15309 H 1473.44 3.61333 -0.909367 0
M  V30 15310 H 1473.55 3.90887 -2.77027 0
M  V30 15311 H 1471.92 2.13249 -1.39273 0
M  V30 15312 H 1472.7 1.67066 -2.99907 0
M  V30 15313 N 1475.14 1.08871 1.13951 0
M  V30 15314 C 1476.11 0.726655 2.17376 0
M  V30 15315 C 1477.11 -0.240922 1.58985 0
M  V30 15316 O 1478.3 -0.0198472 1.74189 0
M  V30 15317 C 1475.43 0.0736505 3.4082 0
M  V30 15318 H 1476.62 1.64254 2.5092 0
M  V30 15319 H 1474.17 0.887183 1.28681 0
M  V30 15320 H 1474.91 -0.853733 3.12861 0
M  V30 15321 H 1474.69 0.769782 3.84469 0
M  V30 15322 H 1476.18 -0.164465 4.17276 0
M  V30 15323 N 1476.62 -1.31073 0.875073 0
M  V30 15324 C 1477.87 -1.97194 0.498612 0
M  V30 15325 C 1478.22 -1.67884 -0.939819 0
M  V30 15326 O 1477.52 -0.967708 -1.65366 0
M  V30 15327 C 1477.71 -3.50511 0.698351 0
M  V30 15328 C 1477.54 -3.94722 2.15465 0
M  V30 15329 C 1476.31 -4.2081 2.79726 0
M  V30 15330 C 1478.51 -4.08283 3.12745 0
M  V30 15331 N 1476.49 -4.51411 4.16055 0
M  V30 15332 C 1477.86 -4.42653 4.34117 0
M  V30 15333 C 1479.91 -3.90678 3.08667 0
M  V30 15334 C 1478.62 -4.61255 5.51939 0
M  V30 15335 C 1480.64 -4.10476 4.25751 0
M  V30 15336 C 1480.01 -4.45182 5.45887 0
M  V30 15337 H 1476.1 -0.74692 0.231592 0
M  V30 15338 H 1478.69 -1.585 1.13074 0
M  V30 15339 H 1476.86 -3.88282 0.0957804 0
M  V30 15340 H 1478.59 -4.03661 0.289771 0
M  V30 15341 H 1475.35 -4.13641 2.30648 0
M  V30 15342 H 1475.77 -4.70862 4.86434 0
M  V30 15343 H 1480.41 -3.6293 2.16892 0
M  V30 15344 H 1478.13 -4.8785 6.44227 0
M  V30 15345 H 1481.72 -3.98334 4.24054 0
M  V30 15346 H 1480.6 -4.60189 6.34977 0
M  V30 15347 N 1478.1 -0.635022 -1.4424 0
M  V30 15348 C 1479.01 0.0686832 -2.34499 0
M  V30 15349 C 1480.03 0.831574 -1.52843 0
M  V30 15350 O 1481.2 0.782954 -1.85558 0
M  V30 15351 C 1478.27 1.03543 -3.30877 0
M  V30 15352 C 1477.33 0.271484 -4.28441 0
M  V30 15353 C 1476.56 1.19218 -5.20214 0
M  V30 15354 O 1476.78 2.43101 -5.16002 0
M  V30 15355 O 1475.72 0.6744 -5.9811 0
M  V30 15356 H 1479.54 -0.673781 -2.96132 0
M  V30 15357 H 1477.13 -0.395211 -1.44078 0
M  V30 15358 H 1479.01 1.59151 -3.90191 0
M  V30 15359 H 1477.69 1.75844 -2.71773 0
M  V30 15360 H 1476.59 -0.327736 -3.72662 0
M  V30 15361 H 1477.93 -0.411584 -4.90476 0
M  V30 15362 N 1479.58 1.53054 -0.375806 0
M  V30 15363 C 1480.54 2.24666 0.453608 0
M  V30 15364 C 1481.54 1.25816 1.00135 0
M  V30 15365 O 1482.73 1.50016 0.885481 0
M  V30 15366 C 1479.86 2.99131 1.63503 0
M  V30 15367 H 1481.06 2.994 -0.173172 0
M  V30 15368 H 1478.61 1.55778 -0.127673 0
M  V30 15369 H 1479.34 2.28666 2.29962 0
M  V30 15370 H 1479.13 3.71671 1.24913 0
M  V30 15371 H 1480.62 3.53542 2.22256 0
M  V30 15372 N 1481.06 0.105248 1.57248 0
M  V30 15373 C 1482.47 -0.251385 1.57608 0
M  V30 15374 C 1482.67 -1.677 1.11709 0
M  V30 15375 O 1481.73 -2.39552 0.798182 0
M  V30 15376 C 1483.04 -0.0305755 3.00684 0
M  V30 15377 C 1484.59 -0.0975409 3.12848 0
M  V30 15378 C 1485.06 0.0954024 4.57901 0
M  V30 15379 N 1486.56 0.040908 4.63182 0
M  V30 15380 C 1487.29 0.165298 5.73162 0
M  V30 15381 N 1486.79 0.345091 6.9194 0
M  V30 15382 N 1488.58 0.105847 5.62 0
M  V30 15383 H 1480.73 1.03658 1.85388 0
M  V30 15384 H 1482.99 0.407074 0.856151 0
M  V30 15385 H 1482.7 0.954461 3.38501 0
M  V30 15386 H 1482.57 -0.768477 3.69289 0
M  V30 15387 H 1484.96 -1.07309 2.74898 0
M  V30 15388 H 1485.04 0.672017 2.46815 0
M  V30 15389 H 1484.69 1.06786 4.96547 0
M  V30 15390 H 1484.62 -0.693974 5.22007 0
M  V30 15391 H 1487.11 -0.0951009 3.7778 0
M  V30 15392 H 1487.42 0.431243 7.71596 0
M  V30 15393 H 1485.76 0.38089 6.93955 0
M  V30 15394 H 1488.96 -0.0335544 4.68088 0
M  V30 15395 H 1489.13 0.206235 6.47672 0
M  V30 15396 N 1482.53 -1.56697 -0.168486 0
M  V30 15397 C 1483.78 -1.83318 -0.88126 0
M  V30 15398 C 1484.14 -0.686203 -1.79747 0
M  V30 15399 O 1483.43 0.317194 -1.88956 0
M  V30 15400 C 1483.62 -3.138 -1.71068 0
M  V30 15401 C 1483.45 -4.4108 -0.876273 0
M  V30 15402 C 1482.22 -5.02295 -0.550249 0
M  V30 15403 C 1484.42 -5.13844 -0.216518 0
M  V30 15404 N 1482.4 -6.13167 0.300004 0
M  V30 15405 C 1483.77 -6.18023 0.494779 0
M  V30 15406 C 1485.83 -4.97717 -0.134974 0
M  V30 15407 C 1484.53 -7.07822 1.27989 0
M  V30 15408 C 1486.56 -5.87961 0.636813 0
M  V30 15409 C 1485.92 -6.91605 1.33646 0
M  V30 15410 H 1482.02 -0.72175 -0.301001 0
M  V30 15411 H 1484.6 -1.94136 -0.148047 0
M  V30 15412 H 1482.77 -3.04168 -2.41529 0
M  V30 15413 H 1484.5 -3.28407 -2.36497 0
M  V30 15414 H 1481.26 -4.65334 -0.881 0
M  V30 15415 H 1481.68 -6.73208 0.715523 0
M  V30 15416 H 1486.33 -4.17592 -0.66154 0
M  V30 15417 H 1484.04 -7.87389 1.81779 0
M  V30 15418 H 1487.63 -5.77554 0.701615 0
M  V30 15419 H 1486.51 -7.60229 1.92409 0
M  V30 15420 N 1484.01 0.437135 -1.51416 0
M  V30 15421 C 1485.42 1.01699 -1.5657 0
M  V30 15422 C 1485.77 1.92299 -0.389291 0
M  V30 15423 O 1484.9 2.10689 0.49389 0
M  V30 15424 C 1485.49 1.85119 -2.83754 0
M  V30 15425 C 1484.05 2.38154 -2.91478 0
M  V30 15426 C 1483.2 1.17374 -2.51234 0
M  V30 15427 H 1486.15 0.218399 -1.5719 0
M  V30 15428 H 1486.17 2.70572 -2.67528 0
M  V30 15429 H 1485.68 1.19153 -3.69357 0
M  V30 15430 H 1483.79 3.07575 -2.10306 0
M  V30 15431 H 1483.9 2.70937 -3.95133 0
M  V30 15432 H 1482.26 1.51913 -2.04437 0
M  V30 15433 H 1483.05 0.530176 -3.39181 0
M  V30 15434 N 1485.49 1.41566 0.692592 0
M  V30 15435 C 1486.74 1.41292 1.4548 0
M  V30 15436 C 1487.07 0.0229093 1.94186 0
M  V30 15437 O 1486.34 -0.949849 1.6973 0
M  V30 15438 C 1486.63 2.42225 2.66457 0
M  V30 15439 C 1486.48 3.90345 2.23496 0
M  V30 15440 C 1487.8 2.40374 3.68658 0
M  V30 15441 H 1484.92 0.51453 0.527663 0
M  V30 15442 H 1487.56 1.72862 0.788598 0
M  V30 15443 H 1485.71 2.15435 3.23296 0
M  V30 15444 H 1487.38 4.2805 1.71962 0
M  V30 15445 H 1485.63 4.05068 1.55249 0
M  V30 15446 H 1486.3 4.56518 3.10314 0
M  V30 15447 H 1488.77 2.64156 3.21498 0
M  V30 15448 H 1487.65 3.13004 4.5091 0
M  V30 15449 H 1487.91 1.42338 4.1856 0
M  V30 15450 N 1486.97 -0.927146 1.27443 0
M  V30 15451 C 1488.38 -1.20319 1.0486 0
M  V30 15452 C 1488.58 -2.00323 -0.217491 0
M  V30 15453 O 1487.64 -2.35032 -0.922833 0
M  V30 15454 C 1488.95 -1.9508 2.28833 0
M  V30 15455 C 1490.5 -2.08016 2.33877 0
M  V30 15456 C 1490.98 -2.86183 3.5758 0
M  V30 15457 N 1492.47 -2.93751 3.58141 0
M  V30 15458 C 1493.2 -3.54698 4.5053 0
M  V30 15459 N 1492.7 -4.17032 5.53223 0
M  V30 15460 N 1494.49 -3.52107 4.38152 0
M  V30 15461 H 1486.64 -0.392671 2.08739 0
M  V30 15462 H 1488.91 -0.236323 0.918072 0
M  V30 15463 H 1488.61 -1.43712 3.20998 0
M  V30 15464 H 1488.49 -2.95692 2.34193 0
M  V30 15465 H 1490.87 -2.5857 1.42217 0
M  V30 15466 H 1490.95 -1.06622 2.3252 0
M  V30 15467 H 1490.6 -2.36312 4.49576 0
M  V30 15468 H 1490.53 -3.87863 3.56188 0
M  V30 15469 H 1493.02 -2.49449 2.83872 0
M  V30 15470 H 1493.33 -4.61477 6.19886 0
M  V30 15471 H 1491.68 -4.15576 5.57065 0
M  V30 15472 H 1494.87 -3.02611 3.57134 0
M  V30 15473 H 1495.04 -3.99315 5.10344 0
M  V30 15474 N 1488.45 -1.09474 -1.13372 0
M  V30 15475 C 1489.67 -0.852921 -1.88502 0
M  V30 15476 C 1490.09 0.595855 -1.79151 0
M  V30 15477 O 1489.45 1.41019 -1.15845 0
M  V30 15478 C 1489.5 -1.27993 -3.38083 0
M  V30 15479 O 1489.22 -2.67189 -3.47191 0
M  V30 15480 C 1490.72 -1.07056 -4.30179 0
M  V30 15481 H 1487.94 -0.30682 -0.596743 0
M  V30 15482 H 1490.48 -1.45685 -1.43513 0
M  V30 15483 H 1488.64 -0.719879 -3.80653 0
M  V30 15484 H 1489.05 -2.85202 -4.40182 0
M  V30 15485 H 1490.53 -1.4186 -5.3346 0
M  V30 15486 H 1491 -0.00838732 -4.39199 0
M  V30 15487 H 1491.61 -1.61659 -3.93378 0
M  V30 15488 N 1489.92 1.30607 -0.882012 0
M  V30 15489 C 1491.17 1.95869 -0.497978 0
M  V30 15490 C 1491.49 1.69991 0.955405 0
M  V30 15491 O 1490.76 1.02188 1.67136 0
M  V30 15492 H 1489.34 0.724699 -0.181165 0
M  V30 15493 H 1492.01 1.59193 -1.12444 0
M  V30 15494 H 1491.1 3.04917 -0.665754 0
M  V30 15495 N 1491.4 0.642663 1.43901 0
M  V30 15496 C 1492.35 -0.0774542 2.27868 0
M  V30 15497 C 1493.34 -0.805028 1.39313 0
M  V30 15498 O 1494.53 -0.689234 1.63029 0
M  V30 15499 C 1491.66 -1.05046 3.26834 0
M  V30 15500 C 1490.74 -0.321911 4.22877 0
M  V30 15501 N 1491.13 0.655802 5.01531 0
M  V30 15502 C 1489.43 -0.5648 4.42409 0
M  V30 15503 C 1490.13 1.08729 5.71448 0
M  V30 15504 N 1489.11 0.423699 5.41946 0
M  V30 15505 H 1492.91 0.672951 2.86092 0
M  V30 15506 H 1490.43 0.469088 1.55478 0
M  V30 15507 H 1492.42 -1.58106 3.85756 0
M  V30 15508 H 1491.08 -1.80104 2.70171 0
M  V30 15509 H 1492.09 1.0341 5.07471 0
M  V30 15510 H 1488.77 -1.29736 3.96831 0
M  V30 15511 H 1490.16 1.89569 6.44603 0
M  V30 15512 N 1492.88 -1.52852 0.383918 0
M  V30 15513 C 1494.12 -2.03421 -0.199832 0
M  V30 15514 C 1494.49 -1.26439 -1.44489 0
M  V30 15515 O 1495.69 -1.67105 -2.10545 0
M  V30 15516 C 1493.96 -3.54341 -0.466577 0
M  V30 15517 S 1495.52 -4.26747 -1.02138 0
M  V30 15518 H 1492.33 -0.70873 -0.0567636 0
M  V30 15519 H 1494.94 -1.8815 0.531022 0
M  V30 15520 H 1493.64 -4.07961 0.446772 0
M  V30 15521 H 1493.17 -3.73808 -1.226 0
M  V30 15522 H 1495.19 -4.39456 -2.3042 0
M  V30 15523 N 1494.36 -0.113586 -1.5719 0
M  V30 15524 C 1495.61 0.544642 -1.94623 0
M  V30 15525 C 1495.93 1.6756 -0.997428 0
M  V30 15526 O 1495.2 1.95829 -0.0527521 0
M  V30 15527 H 1493.78 0.204186 -0.718552 0
M  V30 15528 H 1496.44 -0.181258 -1.94055 0
M  V30 15529 H 1495.54 0.942765 -2.9752 0
M  V30 15530 N 1495.84 1.56784 0.160173 0
M  V30 15531 C 1497.25 1.51153 0.512352 0
M  V30 15532 C 1497.45 0.819774 1.84071 0
M  V30 15533 O 1496.51 0.384789 2.49551 0
M  V30 15534 C 1497.82 2.95906 0.534817 0
M  V30 15535 C 1499.37 3.06773 0.621248 0
M  V30 15536 C 1499.85 4.53006 0.674501 0
M  V30 15537 N 1501.34 4.57298 0.737087 0
M  V30 15538 C 1502.07 5.67805 0.799054 0
M  V30 15539 N 1501.57 6.87916 0.821171 0
M  V30 15540 N 1503.36 5.55804 0.838928 0
M  V30 15541 H 1495.51 2.00157 -0.710712 0
M  V30 15542 H 1497.77 0.91233 -0.257601 0
M  V30 15543 H 1497.48 3.49719 -0.372773 0
M  V30 15544 H 1497.35 3.51152 1.3774 0
M  V30 15545 H 1499.74 2.52987 1.51926 0
M  V30 15546 H 1499.82 2.54593 -0.248224 0
M  V30 15547 H 1499.47 5.07426 -0.219301 0
M  V30 15548 H 1499.4 5.02954 1.56028 0
M  V30 15549 H 1501.89 3.70825 0.727827 0
M  V30 15550 H 1502.2 7.67888 0.869938 0
M  V30 15551 H 1500.55 6.90504 0.789264 0
M  V30 15552 H 1503.74 4.60884 0.818728 0
M  V30 15553 H 1503.91 6.41945 0.883757 0
M  V30 15554 N 1497.32 -0.429099 1.51646 0
M  V30 15555 C 1498.27 -1.52004 1.69937 0
M  V30 15556 C 1499.25 -1.51087 0.5533 0
M  V30 15557 O 1500.44 -1.57401 0.809558 0
M  V30 15558 C 1497.57 -2.90123 1.83531 0
M  V30 15559 C 1496.66 -2.95764 3.03948 0
M  V30 15560 N 1497.05 -2.71135 4.26989 0
M  V30 15561 C 1495.35 -3.26927 3.03372 0
M  V30 15562 C 1496.05 -2.82831 5.08312 0
M  V30 15563 N 1495.02 -3.14856 4.43133 0
M  V30 15564 H 1498.82 -1.31726 2.62727 0
M  V30 15565 H 1496.34 -0.63653 1.49406 0
M  V30 15566 H 1498.34 -3.68618 1.94747 0
M  V30 15567 H 1497 -3.11415 0.919285 0
M  V30 15568 H 1498.01 -2.45906 4.55797 0
M  V30 15569 H 1494.68 -3.53941 2.21432 0
M  V30 15570 H 1496.07 -2.67673 6.1628 0
M  V30 15571 N 1498.79 -1.41931 -0.685074 0
M  V30 15572 C 1499.72 -1.47385 -1.81107 0
M  V30 15573 C 1500.7 -0.331433 -1.6684 0
M  V30 15574 O 1501.89 -0.544331 -1.86415 0
M  V30 15575 C 1499.02 -1.36555 -3.19327 0
M  V30 15576 C 1497.97 -2.48718 -3.48315 0
M  V30 15577 C 1497.3 -2.2295 -4.86002 0
M  V30 15578 C 1498.6 -3.91047 -3.46237 0
M  V30 15579 H 1500.29 -2.41624 -1.768 0
M  V30 15580 H 1497.84 -1.16297 -0.849178 0
M  V30 15581 H 1499.79 -1.38981 -3.97822 0
M  V30 15582 H 1498.52 -0.388063 -3.24286 0
M  V30 15583 H 1497.18 -2.45592 -2.72176 0
M  V30 15584 H 1496.82 -1.23518 -4.87598 0
M  V30 15585 H 1496.52 -2.98116 -5.0636 0
M  V30 15586 H 1498.05 -2.27108 -5.66793 0
M  V30 15587 H 1499.46 -3.95831 -4.14718 0
M  V30 15588 H 1497.86 -4.65981 -3.7813 0
M  V30 15589 H 1498.93 -4.1845 -2.45006 0
M  V30 15590 N 1500.27 0.920374 -1.27933 0
M  V30 15591 C 1501.5 1.70804 -1.17647 0
M  V30 15592 C 1501.92 1.86264 0.262189 0
M  V30 15593 O 1501.28 1.36798 1.18979 0
M  V30 15594 C 1501.33 3.08142 -1.87298 0
M  V30 15595 O 1500.43 3.95279 -1.17593 0
M  V30 15596 H 1499.77 0.523267 -0.408763 0
M  V30 15597 H 1502.3 1.15127 -1.69136 0
M  V30 15598 H 1502.31 3.58414 -1.94945 0
M  V30 15599 H 1500.99 2.96208 -2.91948 0
M  V30 15600 H 1499.56 3.53716 -1.18065 0
M  V30 15601 N 1501.75 1.10074 1.1279 0
M  V30 15602 C 1502.71 0.74967 2.16593 0
M  V30 15603 C 1503.71 -0.224046 1.59232 0
M  V30 15604 O 1504.9 -0.00137104 1.742 0
M  V30 15605 C 1502.03 0.109795 3.40723 0
M  V30 15606 H 1503.23 1.66906 2.49164 0
M  V30 15607 H 1500.78 0.900781 1.27733 0
M  V30 15608 H 1501.52 -0.820501 3.13749 0
M  V30 15609 H 1501.3 0.810517 3.83631 0
M  V30 15610 H 1502.79 -0.120198 4.17427 0
M  V30 15611 N 1503.23 -1.30138 0.888926 0
M  V30 15612 C 1504.45 -2.00679 0.523697 0
M  V30 15613 C 1504.88 -1.66167 -0.881479 0
M  V30 15614 O 1504.24 -0.880418 -1.58488 0
M  V30 15615 C 1504.28 -3.53535 0.710284 0
M  V30 15616 O 1503.39 -4.11689 -0.242066 0
M  V30 15617 H 1502.73 -0.631273 0.205888 0
M  V30 15618 H 1505.26 -1.65891 1.19756 0
M  V30 15619 H 1505.27 -4.03402 0.610794 0
M  V30 15620 H 1503.94 -3.77992 1.73478 0
M  V30 15621 H 1502.52 -3.72777 -0.0959393 0
M  V30 15622 N 1504.71 -0.650285 -1.43559 0
M  V30 15623 C 1505.62 0.0438076 -2.34559 0
M  V30 15624 C 1506.63 0.815316 -1.53716 0
M  V30 15625 O 1507.81 0.76323 -1.86378 0
M  V30 15626 C 1504.87 1.00028 -3.31957 0
M  V30 15627 C 1503.93 0.226027 -4.28705 0
M  V30 15628 C 1503.17 1.13694 -5.21449 0
M  V30 15629 O 1503.39 2.37614 -5.18551 0
M  V30 15630 O 1502.32 0.610924 -5.98792 0
M  V30 15631 H 1506.15 -0.705152 -2.954 0
M  V30 15632 H 1503.73 -0.410471 -1.43651 0
M  V30 15633 H 1505.62 1.55004 -3.91857 0
M  V30 15634 H 1504.29 1.72952 -2.73623 0
M  V30 15635 H 1503.2 -0.367244 -3.72293 0
M  V30 15636 H 1504.53 -0.463582 -4.90012 0
M  V30 15637 N 1506.18 1.52647 -0.392018 0
M  V30 15638 C 1507.6 1.59544 -0.0421007 0
M  V30 15639 C 1507.8 1.40586 1.44353 0
M  V30 15640 O 1506.86 1.22422 2.20837 0
M  V30 15641 C 1508.17 2.9614 -0.521713 0
M  V30 15642 C 1509.72 3.09325 -0.478205 0
M  V30 15643 C 1510.19 4.48374 -0.93405 0
M  V30 15644 N 1511.68 4.54566 -0.890173 0
M  V30 15645 C 1512.42 5.60395 -1.21427 0
M  V30 15646 N 1511.91 6.73858 -1.60897 0
M  V30 15647 N 1513.71 5.50515 -1.13534 0
M  V30 15648 H 1505.86 1.63219 -1.35917 0
M  V30 15649 H 1508.12 0.766913 -0.557269 0
M  V30 15650 H 1507.83 3.15238 -1.55942 0
M  V30 15651 H 1507.7 3.7712 0.0777658 0
M  V30 15652 H 1510.09 2.89921 0.550418 0
M  V30 15653 H 1510.17 2.30292 -1.11352 0
M  V30 15654 H 1509.81 4.68519 -1.96092 0
M  V30 15655 H 1509.74 5.25878 -0.275717 0
M  V30 15656 H 1512.23 3.7311 -0.599758 0
M  V30 15657 H 1512.55 7.5058 -1.83983 0
M  V30 15658 H 1510.89 6.75182 -1.64786 0
M  V30 15659 H 1514.08 4.60755 -0.825977 0
M  V30 15660 H 1514.26 6.32889 -1.39124 0
M  V30 15661 N 1507.66 0.121921 1.57128 0
M  V30 15662 C 1509.07 -0.402991 1.82299 0
M  V30 15663 C 1509.42 -1.66415 1.03925 0
M  V30 15664 O 1508.55 -2.14623 0.27674 0
M  V30 15665 C 1509.14 -0.737913 3.30666 0
M  V30 15666 C 1507.7 -1.20745 3.56508 0
M  V30 15667 C 1506.85 -0.217628 2.76445 0
M  V30 15668 H 1509.8 0.347009 1.5486 0
M  V30 15669 H 1509.82 -1.59505 3.45454 0
M  V30 15670 H 1509.33 0.180162 3.87682 0
M  V30 15671 H 1507.44 -2.14232 3.04853 0
M  V30 15672 H 1507.55 -1.15075 4.65075 0
M  V30 15673 H 1505.91 -0.705253 2.44741 0
M  V30 15674 H 1506.7 0.693596 3.3622 0
M  V30 15675 N 1509.14 -1.56867 -0.151857 0
M  V30 15676 C 1510.07 -2.00932 -1.18949 0
M  V30 15677 C 1511.05 -0.888062 -1.45077 0
M  V30 15678 O 1512.24 -1.15553 -1.56081 0
M  V30 15679 C 1509.37 -2.3858 -2.52383 0
M  V30 15680 C 1508.32 -3.53845 -2.40785 0
M  V30 15681 C 1507.65 -3.77292 -3.78886 0
M  V30 15682 C 1508.95 -4.8667 -1.89605 0
M  V30 15683 H 1510.64 -2.87863 -0.823107 0
M  V30 15684 H 1508.19 -1.38491 -0.394499 0
M  V30 15685 H 1510.14 -2.68006 -3.25193 0
M  V30 15686 H 1508.86 -1.48579 -2.90847 0
M  V30 15687 H 1507.52 -3.24577 -1.70427 0
M  V30 15688 H 1507.17 -2.84551 -4.14777 0
M  V30 15689 H 1506.87 -4.54861 -3.71989 0
M  V30 15690 H 1508.39 -4.09139 -4.53252 0
M  V30 15691 H 1509.81 -5.14846 -2.52204 0
M  V30 15692 H 1508.21 -5.6801 -1.93609 0
M  V30 15693 H 1509.28 -4.77366 -0.851438 0
M  V30 15694 N 1510.62 0.421051 -1.51871 0
M  V30 15695 C 1511.84 1.19568 -1.69465 0
M  V30 15696 C 1512.27 1.83835 -0.398269 0
M  V30 15697 O 1511.63 1.69508 0.643172 0
M  V30 15698 C 1511.67 2.24337 -2.82321 0
M  V30 15699 O 1510.78 3.30205 -2.47059 0
M  V30 15700 H 1510.12 0.349579 -0.564527 0
M  V30 15701 H 1512.65 0.495177 -1.98517 0
M  V30 15702 H 1512.66 2.6886 -3.06885 0
M  V30 15703 H 1511.33 1.76941 -3.76384 0
M  V30 15704 H 1509.91 2.91045 -2.33125 0
M  V30 15705 N 1512.1 1.42293 0.677538 0
M  V30 15706 C 1513.51 1.37948 1.25806 0
M  V30 15707 C 1513.86 0.071408 1.9607 0
M  V30 15708 O 1512.98 -0.829921 1.99853 0
M  V30 15709 C 1513.58 2.49875 2.28797 0
M  V30 15710 C 1512.14 2.48872 2.82382 0
M  V30 15711 C 1511.28 2.28804 1.56665 0
M  V30 15712 H 1514.24 1.51546 0.471102 0
M  V30 15713 H 1514.26 2.19969 3.10474 0
M  V30 15714 H 1513.77 3.45065 1.77629 0
M  V30 15715 H 1511.87 1.57492 3.37679 0
M  V30 15716 H 1511.98 3.45816 3.31585 0
M  V30 15717 H 1510.35 1.77014 1.83135 0
M  V30 15718 H 1511.13 3.26046 1.07467 0
M  V30 15719 N 1513.57 -0.913576 1.28419 0
M  V30 15720 C 1514.54 -1.99757 1.12382 0
M  V30 15721 C 1515.54 -1.60675 0.063435 0
M  V30 15722 O 1516.73 -1.71433 0.30923 0
M  V30 15723 C 1513.86 -3.33307 0.715506 0
M  V30 15724 H 1515.05 -2.15414 2.08655 0
M  V30 15725 H 1512.61 -1.09626 1.11408 0
M  V30 15726 H 1513.34 -3.23351 -0.247977 0
M  V30 15727 H 1513.13 -3.63034 1.4815 0
M  V30 15728 H 1514.62 -4.12882 0.625953 0
M  V30 15729 N 1515.05 -1.1067 -1.12204 0
M  V30 15730 C 1516.47 -0.838988 -1.35769 0
M  V30 15731 C 1516.67 0.540345 -1.9412 0
M  V30 15732 O 1515.72 1.29274 -2.16897 0
M  V30 15733 C 1517.04 -1.94065 -2.29694 0
M  V30 15734 C 1518.59 -1.96938 -2.43279 0
M  V30 15735 C 1519.06 -3.06284 -3.4052 0
M  V30 15736 N 1520.55 -3.05607 -3.48079 0
M  V30 15737 C 1521.29 -3.86855 -4.23238 0
M  V30 15738 N 1520.78 -4.78046 -5.01442 0
M  V30 15739 N 1522.58 -3.75064 -4.18669 0
M  V30 15740 H 1514.73 -1.99575 -0.726878 0
M  V30 15741 H 1516.99 -0.867423 -0.382467 0
M  V30 15742 H 1516.7 -2.93356 -1.93997 0
M  V30 15743 H 1516.57 -1.82992 -3.29839 0
M  V30 15744 H 1518.96 -0.982774 -2.78254 0
M  V30 15745 H 1519.04 -2.12087 -1.43014 0
M  V30 15746 H 1518.68 -4.05165 -3.06273 0
M  V30 15747 H 1518.61 -2.88376 -4.40621 0
M  V30 15748 H 1521.1 -2.39531 -2.9229 0
M  V30 15749 H 1521.42 -5.36594 -5.56136 0
M  V30 15750 H 1519.76 -4.82073 -5.0063 0
M  V30 15751 H 1522.95 -3.03172 -3.56657 0
M  V30 15752 H 1523.12 -4.38618 -4.76988 0
M  V30 15753 N 1516.53 1.29665 -0.895815 0
M  V30 15754 C 1517.77 1.975 -0.526604 0
M  V30 15755 C 1518.13 1.69097 0.909403 0
M  V30 15756 O 1519.34 2.30355 1.38529 0
M  V30 15757 C 1517.61 3.48185 -0.806342 0
M  V30 15758 S 1519.17 4.35454 -0.540857 0
M  V30 15759 H 1515.98 0.68359 -0.195513 0
M  V30 15760 H 1518.59 1.57557 -1.15741 0
M  V30 15761 H 1517.29 3.6635 -1.84976 0
M  V30 15762 H 1516.82 3.9306 -0.163499 0
M  V30 15763 H 1518.84 4.92364 0.615817 0
M  V30 15764 N 1518.01 0.657889 1.43212 0
M  V30 15765 C 1518.96 -0.0532813 2.27938 0
M  V30 15766 C 1519.94 -0.790207 1.40159 0
M  V30 15767 O 1521.13 -0.671904 1.63751 0
M  V30 15768 C 1518.26 -1.01574 3.27929 0
M  V30 15769 C 1517.35 -0.277042 4.23194 0
M  V30 15770 N 1517.74 0.708959 5.00807 0
M  V30 15771 C 1516.04 -0.517845 4.42983 0
M  V30 15772 C 1516.74 1.14784 5.70263 0
M  V30 15773 N 1515.72 0.481156 5.41466 0
M  V30 15774 H 1519.52 0.703257 2.85362 0
M  V30 15775 H 1517.03 0.485552 1.54971 0
M  V30 15776 H 1519.03 -1.54006 3.87412 0
M  V30 15777 H 1517.69 -1.77229 2.72066 0
M  V30 15778 H 1518.7 1.08786 5.06346 0
M  V30 15779 H 1515.38 -1.2552 3.98185 0
M  V30 15780 H 1516.77 1.96395 6.42556 0
M  V30 15781 N 1519.49 -1.52437 0.400108 0
M  V30 15782 C 1520.72 -2.05831 -0.178105 0
M  V30 15783 C 1521.12 -1.27083 -1.40166 0
M  V30 15784 O 1520.47 -0.31347 -1.81006 0
M  V30 15785 C 1520.53 -3.5442 -0.602239 0
M  V30 15786 C 1520.19 -4.54153 0.509341 0
M  V30 15787 C 1521.19 -5.01521 1.37012 0
M  V30 15788 C 1518.88 -4.97683 0.679457 0
M  V30 15789 C 1520.87 -5.91056 2.38604 0
M  V30 15790 C 1518.56 -5.87016 1.6987 0
M  V30 15791 C 1519.55 -6.33595 2.55041 0
M  V30 15792 O 1519.24 -7.21161 3.55221 0
M  V30 15793 H 1518.97 -0.675423 -0.0279209 0
M  V30 15794 H 1521.53 -1.97419 0.567013 0
M  V30 15795 H 1519.76 -3.60487 -1.3995 0
M  V30 15796 H 1521.45 -3.90503 -1.10734 0
M  V30 15797 H 1522.21 -4.68614 1.25005 0
M  V30 15798 H 1518.09 -4.60993 0.0262086 0
M  V30 15799 H 1521.64 -6.27335 3.05118 0
M  V30 15800 H 1517.53 -6.19337 1.81912 0
M  V30 15801 H 1518.3 -7.39249 3.51358 0
M  V30 15802 N 1520.96 -0.130252 -1.57061 0
M  V30 15803 C 1522.19 0.535707 -2.00362 0
M  V30 15804 C 1522.61 1.58712 -1.00956 0
M  V30 15805 O 1521.97 1.81292 0.0171546 0
M  V30 15806 C 1522.02 1.12836 -3.42491 0
M  V30 15807 O 1521.12 2.24367 -3.46025 0
M  V30 15808 H 1520.47 0.132735 -0.650598 0
M  V30 15809 H 1523 -0.222047 -2.03392 0
M  V30 15810 H 1523.01 1.46115 -3.80939 0
M  V30 15811 H 1521.68 0.358304 -4.14354 0
M  V30 15812 H 1520.26 1.92443 -3.19406 0
M  V30 15813 N 1522.44 1.56945 0.143535 0
M  V30 15814 C 1523.67 1.88067 0.874385 0
M  V30 15815 C 1524.09 0.719645 1.73789 0
M  V30 15816 O 1523.45 -0.330654 1.78259 0
M  V30 15817 C 1523.5 3.17795 1.70408 0
M  V30 15818 O 1522.6 3.01973 2.80867 0
M  V30 15819 H 1521.94 0.617808 0.24333 0
M  V30 15820 H 1524.47 2.04165 0.133309 0
M  V30 15821 H 1524.48 3.49903 2.09838 0
M  V30 15822 H 1523.16 4.019 1.07001 0
M  V30 15823 H 1521.74 2.8128 2.44818 0
M  V30 15824 N 1523.92 -0.412991 1.52093 0
M  V30 15825 C 1525.17 -1.1603 1.65962 0
M  V30 15826 C 1525.5 -1.90598 0.387652 0
M  V30 15827 O 1524.75 -1.85308 -0.629243 0
M  V30 15828 C 1525.05 -2.18321 2.82968 0
M  V30 15829 C 1524.72 -1.60589 4.21334 0
M  V30 15830 C 1523.38 -1.44568 4.5897 0
M  V30 15831 C 1525.73 -1.18388 5.07576 0
M  V30 15832 C 1523.06 -0.848584 5.80531 0
M  V30 15833 C 1525.41 -0.600985 6.29739 0
M  V30 15834 C 1524.07 -0.42788 6.66127 0
M  V30 15835 H 1523.34 -0.424583 0.607297 0
M  V30 15836 H 1525.99 -0.448028 1.86185 0
M  V30 15837 H 1524.3 -2.95678 2.57063 0
M  V30 15838 H 1525.99 -2.76009 2.90895 0
M  V30 15839 H 1522.58 -1.7404 3.91673 0
M  V30 15840 H 1526.77 -1.29576 4.79086 0
M  V30 15841 H 1522.02 -0.702447 6.07351 0
M  V30 15842 H 1526.2 -0.265583 6.95893 0
M  V30 15843 H 1523.82 0.0369013 7.60191 0
M  V30 15844 N 1525.4 -1.4265 -0.669982 0
M  V30 15845 C 1526.81 -1.38614 -1.25072 0
M  V30 15846 C 1527.16 -0.0818051 -1.96029 0
M  V30 15847 O 1526.29 0.81931 -2.0029 0
M  V30 15848 C 1526.88 -2.51085 -2.27469 0
M  V30 15849 C 1525.44 -2.50366 -2.81059 0
M  V30 15850 C 1524.59 -2.29632 -1.5545 0
M  V30 15851 H 1527.54 -1.51794 -0.463058 0
M  V30 15852 H 1527.56 -2.21612 -3.09303 0
M  V30 15853 H 1527.07 -3.46002 -1.75796 0
M  V30 15854 H 1525.17 -1.5928 -3.36839 0
M  V30 15855 H 1525.29 -3.47569 -3.29746 0
M  V30 15856 H 1523.65 -1.77982 -1.82193 0
M  V30 15857 H 1524.43 -3.26611 -1.05736 0
M  V30 15858 N 1526.88 0.906753 -1.28902 0
M  V30 15859 C 1528.29 1.18635 -1.06761 0
M  V30 15860 C 1528.49 2.00643 0.185594 0
M  V30 15861 O 1527.55 2.3647 0.885324 0
M  V30 15862 C 1528.86 1.91414 -2.31907 0
M  V30 15863 C 1530.41 2.04269 -2.37156 0
M  V30 15864 C 1530.89 2.80458 -3.62088 0
M  V30 15865 N 1532.38 2.88016 -3.62769 0
M  V30 15866 C 1533.11 3.47485 -4.56116 0
M  V30 15867 N 1532.61 4.08178 -5.59788 0
M  V30 15868 N 1534.4 3.45092 -4.43698 0
M  V30 15869 H 1526.55 0.359413 -2.09337 0
M  V30 15870 H 1528.81 0.221688 -0.921715 0
M  V30 15871 H 1528.52 1.38587 -3.23244 0
M  V30 15872 H 1528.39 2.91929 -2.38867 0
M  V30 15873 H 1530.78 2.56275 -1.46312 0
M  V30 15874 H 1530.86 1.0291 -2.34186 0
M  V30 15875 H 1530.51 2.2913 -4.53279 0
M  V30 15876 H 1530.44 3.82147 -3.62314 0
M  V30 15877 H 1532.93 2.44902 -2.87805 0
M  V30 15878 H 1533.24 4.51557 -6.27149 0
M  V30 15879 H 1531.59 4.06661 -5.63606 0
M  V30 15880 H 1534.78 2.96891 -3.61903 0
M  V30 15881 H 1534.95 3.91145 -5.16633 0
M  V30 15882 N 1528.36 1.11264 1.11616 0
M  V30 15883 C 1529.32 0.7726 2.15786 0
M  V30 15884 C 1530.32 -0.207145 1.5946 0
M  V30 15885 O 1531.51 0.0171053 1.74192 0
M  V30 15886 C 1528.64 0.145927 3.40588 0
M  V30 15887 H 1529.83 1.69539 2.47379 0
M  V30 15888 H 1527.39 0.914278 1.2677 0
M  V30 15889 H 1528.12 -0.787178 3.14601 0
M  V30 15890 H 1527.91 0.851161 3.8275 0
M  V30 15891 H 1529.4 -0.0759176 4.17531 0
M  V30 15892 N 1529.83 -1.29188 0.902679 0
M  V30 15893 C 1531.11 -1.90365 0.449496 0
M  V30 15894 C 1531.49 -1.81911 -1.07105 0
M  V30 15895 O 1530.84 -1.24778 -1.91423 0
M  V30 15896 C 1531.05 -3.35324 0.967418 0
M  V30 15897 C 1532.4 -4.12342 1.0129 0
M  V30 15898 O 1533.42 -3.44239 0.915293 0
M  V30 15899 O 1532.28 -5.34048 1.15994 0
M  V30 15900 H 1529.37 -0.814956 0.140628 0
M  V30 15901 H 1531.92 -1.37633 0.992739 0
M  V30 15902 H 1530.69 -3.35646 2.0114 0
M  V30 15903 H 1530.31 -3.95539 0.404358 0
M  V30 15904 N 1531.31 -0.665475 -1.42861 0
M  V30 15905 C 1532.73 -0.334157 -1.56063 0
M  V30 15906 C 1532.93 1.16104 -1.64688 0
M  V30 15907 O 1531.98 1.94622 -1.60867 0
M  V30 15908 C 1533.3 -1.05628 -2.81537 0
M  V30 15909 C 1534.84 -1.03771 -2.95297 0
M  V30 15910 C 1535.32 -1.74098 -4.2362 0
M  V30 15911 N 1536.81 -1.7092 -4.30512 0
M  V30 15912 C 1537.55 -2.222 -5.28597 0
M  V30 15913 N 1537.04 -2.81821 -6.32889 0
M  V30 15914 N 1538.83 -2.12628 -5.20332 0
M  V30 15915 H 1530.99 -1.6356 -1.35506 0
M  V30 15916 H 1533.25 -0.688538 -0.651628 0
M  V30 15917 H 1532.95 -2.11141 -2.81269 0
M  V30 15918 H 1532.83 -0.615586 -3.72143 0
M  V30 15919 H 1535.22 0.00905324 -2.95099 0
M  V30 15920 H 1535.3 -1.51721 -2.05948 0
M  V30 15921 H 1534.94 -2.78737 -4.2458 0
M  V30 15922 H 1534.87 -1.23604 -5.11888 0
M  V30 15923 H 1537.36 -1.27425 -3.55769 0
M  V30 15924 H 1537.67 -3.18594 -7.04072 0
M  V30 15925 H 1536.02 -2.85887 -6.33478 0
M  V30 15926 H 1539.21 -1.65746 -4.37774 0
M  V30 15927 H 1539.38 -2.52899 -5.96612 0
M  V30 15928 N 1532.79 1.52222 -0.408187 0
M  V30 15929 C 1534.01 2.06703 0.169901 0
M  V30 15930 C 1534.44 1.27635 1.3817 0
M  V30 15931 O 1533.8 0.306343 1.78693 0
M  V30 15932 C 1533.85 3.57121 0.499663 0
M  V30 15933 O 1532.95 3.80483 1.5908 0
M  V30 15934 H 1532.29 0.663839 0.0146145 0
M  V30 15935 H 1534.82 1.96174 -0.581113 0
M  V30 15936 H 1534.83 4.00886 0.758567 0
M  V30 15937 H 1533.51 4.14103 -0.386182 0
M  V30 15938 H 1532.08 3.48599 1.32413 0
M  V30 15939 N 1534.27 0.138579 1.5699 0
M  V30 15940 C 1535.52 -0.513611 1.95465 0
M  V30 15941 C 1535.84 -1.65952 1.02396 0
M  V30 15942 O 1535.11 -1.9572 0.0839001 0
M  V30 15943 H 1533.69 -0.192729 0.72171 0
M  V30 15944 H 1536.35 0.212107 1.93742 0
M  V30 15945 H 1535.44 -0.895313 2.98983 0
M  V30 15946 N 1535.75 -1.57019 -0.13521 0
M  V30 15947 C 1537.16 -1.51949 -0.48824 0
M  V30 15948 C 1537.36 -0.848955 -1.82743 0
M  V30 15949 O 1536.42 -0.424441 -2.48907 0
M  V30 15950 C 1537.73 -2.96719 -0.487673 0
M  V30 15951 C 1539.28 -3.07722 -0.572365 0
M  V30 15952 C 1539.75 -4.54022 -0.602347 0
M  V30 15953 N 1541.24 -4.58413 -0.664242 0
M  V30 15954 C 1541.98 -5.69005 -0.70862 0
M  V30 15955 N 1541.48 -6.89135 -0.711626 0
M  V30 15956 N 1543.27 -5.57069 -0.750399 0
M  V30 15957 H 1535.42 -1.99001 0.742465 0
M  V30 15958 H 1537.68 -0.908116 0.272083 0
M  V30 15959 H 1537.39 -3.49082 0.428363 0
M  V30 15960 H 1537.26 -3.53299 -1.32136 0
M  V30 15961 H 1539.65 -2.55372 -1.47882 0
M  V30 15962 H 1539.73 -2.54166 0.288696 0
M  V30 15963 H 1539.37 -5.07013 0.3 0
M  V30 15964 H 1539.3 -5.05373 -1.48006 0
M  V30 15965 H 1541.8 -3.71936 -0.668739 0
M  V30 15966 H 1542.11 -7.69175 -0.747663 0
M  V30 15967 H 1540.45 -6.91672 -0.679311 0
M  V30 15968 H 1543.64 -4.62129 -0.745301 0
M  V30 15969 H 1543.82 -6.4327 -0.781518 0
M  V30 15970 N 1537.22 0.404919 -1.52309 0
M  V30 15971 C 1538.64 0.983553 -1.58692 0
M  V30 15972 C 1538.99 1.9143 -0.429993 0
M  V30 15973 O 1538.11 2.11689 0.449088 0
M  V30 15974 C 1538.71 1.79059 -2.87617 0
M  V30 15975 C 1537.27 2.31918 -2.96464 0
M  V30 15976 C 1536.41 1.12018 -2.53667 0
M  V30 15977 H 1539.36 0.185007 -1.57618 0
M  V30 15978 H 1539.38 2.64836 -2.73207 0
M  V30 15979 H 1538.9 1.11291 -3.71801 0
M  V30 15980 H 1537 3.03044 -2.16783 0
M  V30 15981 H 1537.11 2.62495 -4.00791 0
M  V30 15982 H 1535.47 1.47542 -2.07614 0
M  V30 15983 H 1536.26 0.458111 -3.4023 0
M  V30 15984 N 1538.7 1.43003 0.662408 0
M  V30 15985 C 1539.95 1.44133 1.42239 0
M  V30 15986 C 1540.28 0.062249 1.944 0
M  V30 15987 O 1539.53 -0.931341 1.72118 0
M  V30 15988 C 1539.83 2.4231 2.62718 0
M  V30 15989 C 1539.5 3.88403 2.29028 0
M  V30 15990 C 1538.16 4.28194 2.19552 0
M  V30 15991 C 1540.51 4.80505 2.01902 0
M  V30 15992 C 1537.84 5.58052 1.81092 0
M  V30 15993 C 1540.19 6.10718 1.64943 0
M  V30 15994 C 1538.86 6.49496 1.53985 0
M  V30 15995 H 1538.13 0.527419 0.52049 0
M  V30 15996 H 1540.77 1.76024 0.75417 0
M  V30 15997 H 1539.08 2.03789 3.3463 0
M  V30 15998 H 1540.77 2.40442 3.20918 0
M  V30 15999 H 1537.36 3.56906 2.37311 0
M  V30 16000 H 1541.55 4.50542 2.08149 0
M  V30 16001 H 1536.8 5.86945 1.71187 0
M  V30 16002 H 1540.98 6.81564 1.42982 0
M  V30 16003 H 1538.61 7.50026 1.23954 0
M  V30 16004 N 1540.18 -0.899904 1.29381 0
M  V30 16005 C 1541.11 -2.02045 1.17047 0
M  V30 16006 C 1542.09 -1.69977 0.0647354 0
M  V30 16007 O 1543.28 -1.92659 0.244173 0
M  V30 16008 C 1540.41 -3.36839 0.845991 0
M  V30 16009 C 1539.36 -3.83117 1.90802 0
M  V30 16010 C 1538.69 -5.15032 1.43686 0
M  V30 16011 C 1539.99 -4.03464 3.31684 0
M  V30 16012 H 1541.68 -2.12623 2.10789 0
M  V30 16013 H 1539.23 -1.02162 1.01484 0
M  V30 16014 H 1541.18 -4.14737 0.746413 0
M  V30 16015 H 1539.9 -3.26352 -0.127125 0
M  V30 16016 H 1538.56 -3.07435 1.99698 0
M  V30 16017 H 1538.21 -5.00961 0.452422 0
M  V30 16018 H 1537.91 -5.46967 2.14711 0
M  V30 16019 H 1539.43 -5.95472 1.35078 0
M  V30 16020 H 1540.85 -4.71845 3.25631 0
M  V30 16021 H 1539.25 -4.46752 4.00665 0
M  V30 16022 H 1540.32 -3.07807 3.74677 0
M  V30 16023 N 1541.66 -1.11854 -1.11024 0
M  V30 16024 C 1543.07 -0.885443 -1.64368 0
M  V30 16025 C 1543.42 0.581455 -1.87386 0
M  V30 16026 O 1542.55 1.44452 -1.61129 0
M  V30 16027 C 1543.14 -1.60082 -2.98595 0
M  V30 16028 C 1541.7 -1.41403 -3.4883 0
M  V30 16029 C 1540.85 -1.64069 -2.23555 0
M  V30 16030 H 1543.8 -1.27418 -0.94606 0
M  V30 16031 H 1543.82 -1.04832 -3.65774 0
M  V30 16032 H 1543.33 -2.66842 -2.8181 0
M  V30 16033 H 1541.43 -0.368727 -3.70771 0
M  V30 16034 H 1541.54 -2.16603 -4.27341 0
M  V30 16035 H 1539.91 -1.06437 -2.31394 0
M  V30 16036 H 1540.69 -2.72112 -2.09308 0
M  V30 16037 N 1543.14 1.28707 -0.909517 0
M  V30 16038 C 1544.07 2.29845 -0.411552 0
M  V30 16039 C 1545.05 1.62001 0.518615 0
M  V30 16040 O 1546.23 1.89442 0.427252 0
M  V30 16041 C 1543.36 3.45501 0.353013 0
M  V30 16042 C 1542.32 4.25213 -0.487625 0
M  V30 16043 C 1541.64 5.33164 0.405026 0
M  V30 16044 C 1542.94 4.9237 -1.74268 0
M  V30 16045 H 1544.64 2.71746 -1.25676 0
M  V30 16046 H 1542.18 1.30639 -0.605759 0
M  V30 16047 H 1544.14 4.15338 0.712191 0
M  V30 16048 H 1542.86 3.02469 1.23209 0
M  V30 16049 H 1541.52 3.57098 -0.829265 0
M  V30 16050 H 1541.17 4.86375 1.28252 0
M  V30 16051 H 1540.87 5.87399 -0.153811 0
M  V30 16052 H 1542.39 6.0585 0.760179 0
M  V30 16053 H 1543.8 5.5459 -1.45266 0
M  V30 16054 H 1542.2 5.56581 -2.2436 0
M  V30 16055 H 1543.27 4.171 -2.47297 0
M  V30 16056 N 1544.61 0.673042 1.42506 0
M  V30 16057 C 1545.86 0.194576 2.01563 0
M  V30 16058 C 1546.19 -1.19829 1.53203 0
M  V30 16059 O 1545.44 -1.8181 0.724131 0
M  V30 16060 C 1545.74 0.175896 3.56967 0
M  V30 16061 C 1545.41 1.51319 4.24751 0
M  V30 16062 C 1544.07 1.87936 4.42983 0
M  V30 16063 C 1546.42 2.394 4.62965 0
M  V30 16064 C 1543.75 3.12261 4.96699 0
M  V30 16065 C 1546.1 3.63036 5.18061 0
M  V30 16066 C 1544.77 3.99824 5.34506 0
M  V30 16067 H 1544.04 0.0712004 0.737571 0
M  V30 16068 H 1546.68 0.867679 1.70715 0
M  V30 16069 H 1544.99 -0.580712 3.87473 0
M  V30 16070 H 1546.69 -0.211488 4.00442 0
M  V30 16071 H 1543.28 1.21834 4.10919 0
M  V30 16072 H 1547.46 2.12397 4.48555 0
M  V30 16073 H 1542.72 3.40787 5.07617 0
M  V30 16074 H 1546.89 4.31491 5.46616 0
M  V30 16075 H 1544.52 4.96236 5.75894 0
M  V30 16076 N 1546.09 -1.52004 0.416254 0
M  V30 16077 C 1547.5 -1.86628 -0.0517247 0
M  V30 16078 C 1547.85 -1.33463 -1.43813 0
M  V30 16079 O 1546.98 -0.676793 -2.05544 0
M  V30 16080 C 1547.57 -3.38651 -0.100637 0
M  V30 16081 C 1546.13 -3.72888 -0.512969 0
M  V30 16082 C 1545.28 -2.75584 0.307975 0
M  V30 16083 H 1548.23 -1.45529 0.633018 0
M  V30 16084 H 1548.25 -3.69348 -0.914465 0
M  V30 16085 H 1547.76 -3.77316 0.908538 0
M  V30 16086 H 1545.87 -3.39804 -1.52852 0
M  V30 16087 H 1545.98 -4.78435 -0.252408 0
M  V30 16088 H 1544.34 -2.53653 -0.230717 0
M  V30 16089 H 1545.13 -3.1709 1.31563 0
M  V30 16090 N 1547.57 -0.146903 -1.56914 0
M  V30 16091 C 1548.48 0.805875 -2.20324 0
M  V30 16092 C 1549.5 1.27178 -1.18751 0
M  V30 16093 O 1550.67 1.32899 -1.51327 0
M  V30 16094 C 1547.74 2.02755 -2.81232 0
M  V30 16095 C 1546.8 1.61089 -3.97931 0
M  V30 16096 C 1546.03 2.77433 -4.55924 0
M  V30 16097 O 1546.25 3.93643 -4.12797 0
M  V30 16098 O 1545.19 2.52911 -5.46187 0
M  V30 16099 H 1549.01 0.296098 -3.02253 0
M  V30 16100 H 1546.6 0.0801175 -1.49185 0
M  V30 16101 H 1548.48 2.74252 -3.19944 0
M  V30 16102 H 1547.16 2.52686 -2.02316 0
M  V30 16103 H 1546.06 0.86616 -3.63935 0
M  V30 16104 H 1547.4 1.15874 -4.78366 0
M  V30 16105 N 1549.05 1.57088 0.126881 0
M  V30 16106 C 1549.98 2.02799 1.15737 0
M  V30 16107 C 1550.96 0.911031 1.43646 0
M  V30 16108 O 1552.14 1.18021 1.54223 0
M  V30 16109 C 1549.27 2.42565 2.48555 0
M  V30 16110 C 1548.23 3.57631 2.35125 0
M  V30 16111 C 1547.55 3.83272 3.72836 0
M  V30 16112 C 1548.85 4.89625 1.81838 0
M  V30 16113 H 1550.55 2.89136 0.777207 0
M  V30 16114 H 1548.09 1.39101 0.372416 0
M  V30 16115 H 1550.05 2.73146 3.20888 0
M  V30 16116 H 1548.77 1.53188 2.88446 0
M  V30 16117 H 1547.43 3.27247 1.65242 0
M  V30 16118 H 1547.08 2.91114 4.10197 0
M  V30 16119 H 1546.78 4.60721 3.64705 0
M  V30 16120 H 1548.3 4.16298 4.46686 0
M  V30 16121 H 1549.72 5.18793 2.43981 0
M  V30 16122 H 1548.11 5.71018 1.84548 0
M  V30 16123 H 1549.18 4.7866 0.775385 0
M  V30 16124 N 1550.53 -0.396836 1.52522 0
M  V30 16125 C 1551.44 -1.50871 1.79653 0
M  V30 16126 C 1552.45 -1.60043 0.682804 0
M  V30 16127 O 1553.63 -1.76527 0.96955 0
M  V30 16128 C 1550.69 -2.86485 1.95263 0
M  V30 16129 C 1549.75 -2.87099 3.19175 0
M  V30 16130 C 1548.99 -4.16244 3.34031 0
M  V30 16131 O 1549.21 -5.1079 2.5387 0
M  V30 16132 O 1548.14 -4.23962 4.27247 0
M  V30 16133 H 1551.97 -1.30878 2.74052 0
M  V30 16134 H 1549.56 -0.583908 1.37517 0
M  V30 16135 H 1551.44 -3.66895 2.07282 0
M  V30 16136 H 1550.11 -3.0652 1.04052 0
M  V30 16137 H 1549.02 -2.05497 3.12605 0
M  V30 16138 H 1550.35 -2.72014 4.10206 0
M  V30 16139 N 1552.01 -1.43353 -0.654814 0
M  V30 16140 C 1553.28 -1.35363 -1.41195 0
M  V30 16141 C 1553.66 -0.000661523 -2.111 0
M  V30 16142 O 1553.01 1.01583 -2.04678 0
M  V30 16143 C 1553.22 -2.53572 -2.39796 0
M  V30 16144 C 1554.57 -2.96587 -3.03844 0
M  V30 16145 O 1555.59 -2.53607 -2.50124 0
M  V30 16146 O 1554.45 -3.71039 -4.01239 0
M  V30 16147 H 1551.55 -0.534861 -0.630756 0
M  V30 16148 H 1554.09 -1.55399 -0.681857 0
M  V30 16149 H 1552.86 -3.43682 -1.87078 0
M  V30 16150 H 1552.49 -2.35628 -3.20258 0
M  V30 16151 N 1553.48 0.89303 -1.29857 0
M  V30 16152 C 1554.41 2.01422 -1.18117 0
M  V30 16153 C 1555.39 1.6994 -0.0737487 0
M  V30 16154 O 1556.58 1.92527 -0.254387 0
M  V30 16155 C 1553.71 3.36385 -0.863842 0
M  V30 16156 C 1552.66 3.821 -1.92831 0
M  V30 16157 C 1551.99 5.14263 -1.46415 0
M  V30 16158 C 1553.29 4.01699 -3.33819 0
M  V30 16159 H 1554.98 2.11502 -2.11913 0
M  V30 16160 H 1552.53 1.01622 -1.02024 0
M  V30 16161 H 1554.48 4.14335 -0.768397 0
M  V30 16162 H 1553.21 3.26415 0.109816 0
M  V30 16163 H 1551.87 3.06372 -2.01325 0
M  V30 16164 H 1551.51 5.00714 -0.478983 0
M  V30 16165 H 1551.21 5.45821 -2.17609 0
M  V30 16166 H 1552.74 5.94747 -1.38234 0
M  V30 16167 H 1554.15 4.70111 -3.28129 0
M  V30 16168 H 1552.55 4.44621 -4.03029 0
M  V30 16169 H 1553.62 3.05816 -3.76304 0
M  V30 16170 N 1554.96 1.12442 1.10429 0
M  V30 16171 C 1556.37 0.894147 1.63896 0
M  V30 16172 C 1556.72 -0.571509 1.87692 0
M  V30 16173 O 1555.85 -1.43595 1.61893 0
M  V30 16174 C 1556.44 1.61664 2.97742 0
M  V30 16175 C 1555 1.43251 3.48075 0
M  V30 16176 C 1554.15 1.65252 2.22682 0
M  V30 16177 H 1557.1 1.27918 0.939289 0
M  V30 16178 H 1557.12 1.06771 3.65213 0
M  V30 16179 H 1556.63 2.68333 2.80391 0
M  V30 16180 H 1554.73 0.388385 3.7057 0
M  V30 16181 H 1554.85 2.18866 4.26186 0
M  V30 16182 H 1553.21 1.07663 2.30827 0
M  V30 16183 H 1553.99 2.73219 2.07862 0
M  V30 16184 N 1556.44 -1.28223 0.91633 0
M  V30 16185 C 1557.37 -2.29623 0.423735 0
M  V30 16186 C 1558.35 -1.62274 -0.510016 0
M  V30 16187 O 1559.54 -1.89666 -0.4172 0
M  V30 16188 C 1556.67 -3.45684 -0.334686 0
M  V30 16189 C 1555.62 -4.24949 0.510169 0
M  V30 16190 C 1554.95 -5.33371 -0.376745 0
M  V30 16191 C 1556.25 -4.91438 1.76877 0
M  V30 16192 H 1557.94 -2.71076 1.27115 0
M  V30 16193 H 1555.49 -1.30316 0.612678 0
M  V30 16194 H 1557.44 -4.1571 -0.690154 0
M  V30 16195 H 1556.16 -3.03118 -1.21603 0
M  V30 16196 H 1554.82 -3.56653 0.848191 0
M  V30 16197 H 1554.47 -4.87048 -1.25671 0
M  V30 16198 H 1554.17 -5.87309 0.18496 0
M  V30 16199 H 1555.69 -6.06244 -0.728039 0
M  V30 16200 H 1557.11 -5.53812 1.48205 0
M  V30 16201 H 1555.5 -5.55384 2.27308 0
M  V30 16202 H 1556.57 -4.15783 2.49505 0
M  V30 16203 N 1557.92 -0.68059 -1.42147 0
M  V30 16204 C 1558.85 -0.0199376 -2.33491 0
M  V30 16205 C 1559.83 0.783164 -1.50999 0
M  V30 16206 O 1561.01 0.739154 -1.79583 0
M  V30 16207 C 1558.14 0.927902 -3.34675 0
M  V30 16208 C 1557.1 0.232979 -4.27365 0
M  V30 16209 C 1556.42 1.29415 -5.18802 0
M  V30 16210 C 1557.72 -0.891559 -5.14634 0
M  V30 16211 H 1559.42 -0.782823 -2.88985 0
M  V30 16212 H 1556.96 -0.377898 -1.38953 0
M  V30 16213 H 1558.92 1.3992 -3.97493 0
M  V30 16214 H 1557.64 1.72228 -2.77498 0
M  V30 16215 H 1556.3 -0.21814 -3.6595 0
M  V30 16216 H 1555.95 2.08067 -4.57949 0
M  V30 16217 H 1555.65 0.834274 -5.81647 0
M  V30 16218 H 1557.17 1.76627 -5.84496 0
M  V30 16219 H 1558.59 -0.501219 -5.71105 0
M  V30 16220 H 1556.98 -1.27759 -5.86343 0
M  V30 16221 H 1558.05 -1.73781 -4.5269 0
M  V30 16222 N 1559.4 1.51781 -0.424309 0
M  V30 16223 C 1560.64 2.0157 0.146203 0
M  V30 16224 C 1560.96 1.3111 1.44344 0
M  V30 16225 O 1560.23 0.441631 1.90857 0
M  V30 16226 H 1558.81 0.744821 0.057019 0
M  V30 16227 H 1561.48 1.8656 -0.564031 0
M  V30 16228 H 1560.57 3.10335 0.331464 0
M  V30 16229 N 1560.87 0.155222 1.56834 0
M  V30 16230 C 1562.28 -0.364232 1.83113 0
M  V30 16231 C 1562.64 -1.64173 1.07432 0
M  V30 16232 O 1561.76 -2.13988 0.322202 0
M  V30 16233 C 1562.36 -0.667608 3.32157 0
M  V30 16234 C 1560.91 -1.13156 3.58989 0
M  V30 16235 C 1560.06 -0.158941 2.76844 0
M  V30 16236 H 1563.01 0.379779 1.54089 0
M  V30 16237 H 1563.03 -1.52141 3.4876 0
M  V30 16238 H 1562.55 0.262355 3.87212 0
M  V30 16239 H 1560.65 -2.07717 3.09329 0
M  V30 16240 H 1560.76 -1.05184 4.67411 0
M  V30 16241 H 1559.12 -0.653181 2.46182 0
M  V30 16242 H 1559.91 0.764757 3.34674 0
M  V30 16243 N 1562.35 -1.57153 -0.118549 0
M  V30 16244 C 1563.26 -2.03673 -1.16424 0
M  V30 16245 C 1564.28 -0.957203 -1.45305 0
M  V30 16246 O 1565.45 -1.26874 -1.56413 0
M  V30 16247 C 1562.52 -2.43211 -2.47082 0
M  V30 16248 C 1561.58 -3.65248 -2.25593 0
M  V30 16249 C 1560.81 -4.02891 -3.50021 0
M  V30 16250 O 1561.04 -3.40871 -4.57344 0
M  V30 16251 O 1559.97 -4.95989 -3.40996 0
M  V30 16252 H 1563.8 -2.92996 -0.799206 0
M  V30 16253 H 1561.38 -1.45724 -0.329376 0
M  V30 16254 H 1563.26 -2.69374 -3.24061 0
M  V30 16255 H 1561.94 -1.57034 -2.83058 0
M  V30 16256 H 1560.84 -3.44234 -1.46471 0
M  V30 16257 H 1562.18 -4.52131 -1.94521 0
M  V30 16258 N 1563.83 0.388742 -1.5273 0
M  V30 16259 C 1564.76 1.49441 -1.73781 0
M  V30 16260 C 1565.77 1.50602 -0.618285 0
M  V30 16261 O 1566.96 1.545 -0.893986 0
M  V30 16262 C 1564.06 2.88288 -1.78166 0
M  V30 16263 C 1563.24 3.11089 -3.07478 0
M  V30 16264 C 1562.3 4.2992 -3.03407 0
M  V30 16265 O 1561.32 4.26212 -3.77269 0
M  V30 16266 N 1562.52 5.36121 -2.2261 0
M  V30 16267 H 1565.29 1.3177 -2.69178 0
M  V30 16268 H 1562.85 0.578258 -1.51221 0
M  V30 16269 H 1564.84 3.65884 -1.72949 0
M  V30 16270 H 1563.41 2.99317 -0.901553 0
M  V30 16271 H 1562.63 2.21356 -3.26183 0
M  V30 16272 H 1563.92 3.23177 -3.92981 0
M  V30 16273 H 1563.32 5.41988 -1.62067 0
M  V30 16274 H 1561.87 6.12381 -2.23232 0
M  V30 16275 N 1565.31 1.43698 0.647203 0
M  V30 16276 C 1566.24 1.52135 1.77136 0
M  V30 16277 C 1567.22 0.375551 1.65902 0
M  V30 16278 O 1568.4 0.593564 1.84907 0
M  V30 16279 C 1565.53 1.44974 3.15594 0
M  V30 16280 C 1564.49 2.57866 3.41598 0
M  V30 16281 C 1563.81 2.35757 4.7992 0
M  V30 16282 C 1565.11 4.00089 3.35747 0
M  V30 16283 H 1566.81 2.46227 1.70332 0
M  V30 16284 H 1564.35 1.18507 0.818046 0
M  V30 16285 H 1566.31 1.4948 3.93997 0
M  V30 16286 H 1565.03 0.473905 3.23143 0
M  V30 16287 H 1563.69 2.52722 2.65569 0
M  V30 16288 H 1563.34 1.36403 4.84152 0
M  V30 16289 H 1563.04 3.11436 4.98278 0
M  V30 16290 H 1564.56 2.42055 5.60572 0
M  V30 16291 H 1565.98 4.06687 4.04078 0
M  V30 16292 H 1564.37 4.75842 3.65642 0
M  V30 16293 H 1565.44 4.24798 2.33825 0
M  V30 16294 N 1566.79 -0.886131 1.30328 0
M  V30 16295 C 1567.75 -1.97328 1.16594 0
M  V30 16296 C 1568.75 -1.60504 0.0975023 0
M  V30 16297 O 1569.94 -1.70739 0.345524 0
M  V30 16298 C 1567.07 -3.31714 0.786045 0
M  V30 16299 H 1568.26 -2.1094 2.13177 0
M  V30 16300 H 1565.82 -1.07238 1.13708 0
M  V30 16301 H 1566.55 -3.23804 -0.179334 0
M  V30 16302 H 1566.34 -3.5981 1.55817 0
M  V30 16303 H 1567.83 -4.11461 0.71339 0
M  V30 16304 N 1568.26 -1.13026 -1.09832 0
M  V30 16305 C 1569.68 -0.867598 -1.33959 0
M  V30 16306 C 1569.88 0.499047 -1.95222 0
M  V30 16307 O 1568.94 1.24644 -2.19591 0
M  V30 16308 C 1570.25 -1.98893 -2.25526 0
M  V30 16309 C 1571.8 -2.02054 -2.39047 0
M  V30 16310 C 1572.27 -3.13438 -3.33947 0
M  V30 16311 N 1573.76 -3.12921 -3.41518 0
M  V30 16312 C 1574.5 -3.95746 -4.14937 0
M  V30 16313 N 1573.99 -4.88574 -4.91189 0
M  V30 16314 N 1575.79 -3.8386 -4.10619 0
M  V30 16315 H 1567.94 -2.01072 -0.684382 0
M  V30 16316 H 1570.2 -0.875341 -0.363982 0
M  V30 16317 H 1569.91 -2.97405 -1.87731 0
M  V30 16318 H 1569.78 -1.89948 -3.25883 0
M  V30 16319 H 1572.17 -1.04158 -2.76107 0
M  V30 16320 H 1572.25 -2.15072 -1.38483 0
M  V30 16321 H 1571.89 -4.11571 -2.9761 0
M  V30 16322 H 1571.82 -2.97658 -4.34405 0
M  V30 16323 H 1574.31 -2.45677 -2.87144 0
M  V30 16324 H 1574.63 -5.48269 -5.44629 0
M  V30 16325 H 1572.97 -4.92583 -4.90292 0
M  V30 16326 H 1576.16 -3.10669 -3.50146 0
M  V30 16327 H 1576.34 -4.48637 -4.67577 0
M  V30 16328 N 1569.74 1.27735 -0.923117 0
M  V30 16329 C 1571.16 1.46952 -0.622666 0
M  V30 16330 C 1571.36 1.8364 0.829384 0
M  V30 16331 O 1570.41 1.94705 1.60767 0
M  V30 16332 C 1571.73 2.56545 -1.56861 0
M  V30 16333 C 1573.28 2.70408 -1.57634 0
M  V30 16334 C 1573.75 3.83154 -2.50913 0
M  V30 16335 N 1575.24 3.90521 -2.49093 0
M  V30 16336 C 1575.98 4.77167 -3.17962 0
M  V30 16337 N 1575.47 5.68334 -3.96193 0
M  V30 16338 N 1577.27 4.70857 -3.07002 0
M  V30 16339 H 1569.42 1.02205 -1.86193 0
M  V30 16340 H 1571.68 0.509982 -0.799138 0
M  V30 16341 H 1571.39 2.3637 -2.60427 0
M  V30 16342 H 1571.26 3.53839 -1.30681 0
M  V30 16343 H 1573.65 2.89967 -0.548005 0
M  V30 16344 H 1573.73 1.73615 -1.8786 0
M  V30 16345 H 1573.37 3.64349 -3.53853 0
M  V30 16346 H 1573.3 4.79365 -2.17984 0
M  V30 16347 H 1575.79 3.25329 -1.92274 0
M  V30 16348 H 1576.11 6.31298 -4.45738 0
M  V30 16349 H 1574.45 5.68144 -4.00297 0
M  V30 16350 H 1577.64 3.98629 -2.45382 0
M  V30 16351 H 1577.81 5.38166 -3.60945 0
M  V30 16352 N 1571.22 0.688118 1.41784 0
M  V30 16353 C 1572.13 0.018397 2.34593 0
M  V30 16354 C 1573.15 -0.774275 1.55824 0
M  V30 16355 O 1574.32 -0.713546 1.88336 0
M  V30 16356 C 1571.39 -0.911914 3.34492 0
M  V30 16357 C 1570.45 -0.112284 4.29153 0
M  V30 16358 C 1569.68 -0.998285 5.2428 0
M  V30 16359 O 1569.9 -2.23782 5.24669 0
M  V30 16360 O 1568.84 -0.451951 6.00201 0
M  V30 16361 H 1572.66 0.783224 2.93427 0
M  V30 16362 H 1570.25 0.448413 1.42512 0
M  V30 16363 H 1572.13 -1.4456 3.95829 0
M  V30 16364 H 1570.81 -1.65636 2.78112 0
M  V30 16365 H 1569.71 0.465822 3.71189 0
M  V30 16366 H 1571.05 0.593338 4.88611 0
M  V30 16367 N 1572.7 -1.51554 0.432352 0
M  V30 16368 C 1573.66 -2.26195 -0.369912 0
M  V30 16369 C 1574.66 -1.29446 -0.953961 0
M  V30 16370 O 1575.85 -1.53199 -0.829193 0
M  V30 16371 C 1572.98 -3.04993 -1.52289 0
M  V30 16372 H 1574.18 -2.98551 0.284173 0
M  V30 16373 H 1571.73 -1.55197 0.1854 0
M  V30 16374 H 1572.46 -2.37043 -2.21317 0
M  V30 16375 H 1572.25 -3.76051 -1.11032 0
M  V30 16376 H 1573.74 -3.61547 -2.08982 0
M  V30 16377 N 1574.18 -0.163538 -1.56749 0
M  V30 16378 C 1575.11 0.765571 -2.20593 0
M  V30 16379 C 1576.09 1.24489 -1.15916 0
M  V30 16380 O 1577.27 1.29946 -1.44318 0
M  V30 16381 C 1574.4 1.99823 -2.84057 0
M  V30 16382 C 1573.36 1.65506 -3.94705 0
M  V30 16383 C 1572.68 2.96172 -4.45181 0
M  V30 16384 C 1573.98 0.88902 -5.14678 0
M  V30 16385 H 1575.68 0.233431 -2.98489 0
M  V30 16386 H 1573.22 0.110836 -1.43573 0
M  V30 16387 H 1575.18 2.65316 -3.27392 0
M  V30 16388 H 1573.9 2.55437 -2.03517 0
M  V30 16389 H 1572.56 1.02384 -3.52013 0
M  V30 16390 H 1572.21 3.49811 -3.61443 0
M  V30 16391 H 1571.91 2.73968 -5.19823 0
M  V30 16392 H 1573.43 3.62708 -4.91198 0
M  V30 16393 H 1574.84 1.44637 -5.54755 0
M  V30 16394 H 1573.24 0.766302 -5.95187 0
M  V30 16395 H 1574.31 -0.116145 -4.84761 0
M  V30 16396 N 1575.65 1.57214 0.110213 0
M  V30 16397 C 1576.58 2.04015 1.13579 0
M  V30 16398 C 1577.57 0.926215 1.42672 0
M  V30 16399 O 1578.75 1.19651 1.52962 0
M  V30 16400 C 1575.88 2.45187 2.45969 0
M  V30 16401 C 1574.83 3.60105 2.31319 0
M  V30 16402 C 1574.16 3.87205 3.68749 0
M  V30 16403 C 1575.46 4.91526 1.76635 0
M  V30 16404 H 1577.15 2.89944 0.746496 0
M  V30 16405 H 1574.7 1.39488 0.357642 0
M  V30 16406 H 1576.65 2.76534 3.17973 0
M  V30 16407 H 1575.38 1.56238 2.86805 0
M  V30 16408 H 1574.04 3.28981 1.61762 0
M  V30 16409 H 1573.68 2.95448 4.07087 0
M  V30 16410 H 1573.38 4.64563 3.59798 0
M  V30 16411 H 1574.91 4.21013 4.42245 0
M  V30 16412 H 1576.32 5.21351 2.38465 0
M  V30 16413 H 1574.72 5.72944 1.78482 0
M  V30 16414 H 1575.79 4.79456 0.724573 0
M  V30 16415 N 1577.13 -0.380637 1.52934 0
M  V30 16416 C 1578.08 -1.46521 1.74687 0
M  V30 16417 C 1579.07 -1.49251 0.601087 0
M  V30 16418 O 1580.26 -1.54746 0.859224 0
M  V30 16419 C 1577.39 -2.84137 1.92668 0
M  V30 16420 C 1576.47 -2.85944 3.13204 0
M  V30 16421 N 1576.86 -2.57413 4.35399 0
M  V30 16422 C 1575.16 -3.1711 3.13619 0
M  V30 16423 C 1575.86 -2.66516 5.17053 0
M  V30 16424 N 1574.84 -3.00598 4.52926 0
M  V30 16425 H 1578.64 -1.23301 2.66785 0
M  V30 16426 H 1576.16 -0.588675 1.51355 0
M  V30 16427 H 1578.15 -3.62236 2.06376 0
M  V30 16428 H 1576.81 -3.08333 1.01789 0
M  V30 16429 H 1577.82 -2.31281 4.63389 0
M  V30 16430 H 1574.5 -3.46717 2.3258 0
M  V30 16431 H 1575.89 -2.47931 6.24484 0
M  V30 16432 N 1578.61 -1.44039 -0.639573 0
M  V30 16433 C 1579.57 -1.49907 -1.7338 0
M  V30 16434 C 1580.57 -0.382101 -1.56194 0
M  V30 16435 O 1581.76 -0.644396 -1.61843 0
M  V30 16436 C 1578.9 -1.36486 -3.12385 0
M  V30 16437 H 1580.09 -2.4737 -1.69553 0
M  V30 16438 H 1577.64 -1.31006 -0.852474 0
M  V30 16439 H 1578.38 -0.400845 -3.21813 0
M  V30 16440 H 1578.16 -2.17471 -3.26265 0
M  V30 16441 H 1579.65 -1.43555 -3.9215 0
M  V30 16442 N 1580.09 0.879207 -1.30796 0
M  V30 16443 C 1581.05 1.96707 -1.17639 0
M  V30 16444 C 1582.05 1.6045 -0.106013 0
M  V30 16445 O 1583.24 1.70553 -0.354573 0
M  V30 16446 C 1580.37 3.31292 -0.803625 0
M  V30 16447 H 1581.57 2.09806 -2.14293 0
M  V30 16448 H 1579.12 1.06634 -1.14276 0
M  V30 16449 H 1579.85 3.23894 0.162159 0
M  V30 16450 H 1579.64 3.58979 -1.57723 0
M  V30 16451 H 1581.13 4.11077 -0.735201 0
M  V30 16452 N 1581.57 1.13606 1.09231 0
M  V30 16453 C 1582.81 0.910333 1.81891 0
M  V30 16454 C 1583.17 -0.557482 1.84146 0
M  V30 16455 O 1582.46 -1.40735 1.30016 0
M  V30 16456 C 1582.66 1.43456 3.27345 0
M  V30 16457 C 1582.48 2.95182 3.39261 0
M  V30 16458 C 1581.25 3.63546 3.50945 0
M  V30 16459 C 1583.45 3.93105 3.31621 0
M  V30 16460 N 1581.43 5.03265 3.51564 0
M  V30 16461 C 1582.81 5.19026 3.39133 0
M  V30 16462 C 1584.86 3.85343 3.15302 0
M  V30 16463 C 1583.56 6.38094 3.32007 0
M  V30 16464 C 1585.59 5.03947 3.09502 0
M  V30 16465 C 1584.95 6.28733 3.17608 0
M  V30 16466 H 1581.05 0.386545 0.679785 0
M  V30 16467 H 1583.63 1.44465 1.30529 0
M  V30 16468 H 1581.81 0.927132 3.77172 0
M  V30 16469 H 1583.54 1.14962 3.88028 0
M  V30 16470 H 1580.29 3.14072 3.54479 0
M  V30 16471 H 1580.72 5.76179 3.55453 0
M  V30 16472 H 1585.36 2.8975 3.07904 0
M  V30 16473 H 1583.08 7.3394 3.38168 0
M  V30 16474 H 1586.66 4.99683 2.98008 0
M  V30 16475 H 1585.54 7.18967 3.13139 0
M  V30 16476 N 1583.05 -1.27244 0.929878 0
M  V30 16477 C 1584.01 -2.25028 0.435315 0
M  V30 16478 C 1585.01 -1.54453 -0.447332 0
M  V30 16479 O 1586.2 -1.72424 -0.248105 0
M  V30 16480 C 1583.33 -3.38843 -0.373933 0
M  V30 16481 H 1584.52 -2.70293 1.2993 0
M  V30 16482 H 1582.08 -1.39204 0.710771 0
M  V30 16483 H 1582.81 -2.98963 -1.25664 0
M  V30 16484 H 1582.6 -3.91244 0.258946 0
M  V30 16485 H 1584.09 -4.11516 -0.710255 0
M  V30 16486 N 1584.52 -0.695628 -1.41417 0
M  V30 16487 C 1585.94 -0.367185 -1.55319 0
M  V30 16488 C 1586.14 1.12584 -1.67114 0
M  V30 16489 O 1585.2 1.91166 -1.64959 0
M  V30 16490 C 1586.51 -1.11576 -2.79233 0
M  V30 16491 C 1588.06 -1.10011 -2.9303 0
M  V30 16492 C 1588.53 -1.83044 -4.19832 0
M  V30 16493 N 1590.02 -1.80014 -4.26789 0
M  V30 16494 C 1590.76 -2.33362 -5.23765 0
M  V30 16495 N 1590.25 -2.95182 -6.26769 0
M  V30 16496 N 1592.05 -2.23618 -5.15705 0
M  V30 16497 H 1584.2 -1.66398 -1.32006 0
M  V30 16498 H 1586.46 -0.702205 -0.636877 0
M  V30 16499 H 1586.17 -2.1706 -2.76727 0
M  V30 16500 H 1586.04 -0.694385 -3.70753 0
M  V30 16501 H 1588.43 -0.0535436 -2.95051 0
M  V30 16502 H 1588.51 -1.56055 -2.02683 0
M  V30 16503 H 1588.15 -2.8768 -4.18572 0
M  V30 16504 H 1588.08 -1.34434 -5.09151 0
M  V30 16505 H 1590.57 -1.34942 -3.52986 0
M  V30 16506 H 1590.89 -3.33456 -6.97156 0
M  V30 16507 H 1589.23 -2.99259 -6.27271 0
M  V30 16508 H 1592.42 -1.74994 -4.3416 0
M  V30 16509 H 1592.6 -2.65497 -5.91113 0
M  V30 16510 N 1586 1.51322 -0.440383 0
M  V30 16511 C 1587.25 2.01714 0.124815 0
M  V30 16512 C 1587.57 1.32634 1.42945 0
M  V30 16513 O 1586.84 0.461849 1.90378 0
M  V30 16514 H 1585.42 0.745384 0.049116 0
M  V30 16515 H 1588.08 1.85951 -0.583787 0
M  V30 16516 H 1587.18 3.10669 0.29853 0
M  V30 16517 N 1587.48 0.171848 1.5666 0
M  V30 16518 C 1588.7 -0.482396 2.01712 0
M  V30 16519 C 1589.13 -1.5598 1.05128 0
M  V30 16520 O 1588.49 -1.81274 0.0309178 0
M  V30 16521 C 1588.54 -1.03716 3.45363 0
M  V30 16522 O 1587.64 -2.15114 3.51852 0
M  V30 16523 H 1586.98 -0.115439 0.653888 0
M  V30 16524 H 1589.51 0.275895 2.02731 0
M  V30 16525 H 1589.52 -1.35964 3.84679 0
M  V30 16526 H 1588.2 -0.24832 4.15158 0
M  V30 16527 H 1586.77 -1.83907 3.24396 0
M  V30 16528 N 1588.96 -1.5727 -0.101874 0
M  V30 16529 C 1590.37 -1.5295 -0.455899 0
M  V30 16530 C 1590.57 -0.887526 -1.80901 0
M  V30 16531 O 1589.63 -0.477143 -2.47951 0
M  V30 16532 C 1590.94 -2.97687 -0.424625 0
M  V30 16533 C 1592.49 -3.08867 -0.506963 0
M  V30 16534 C 1592.97 -4.55197 -0.505907 0
M  V30 16535 N 1594.46 -4.59718 -0.566856 0
M  V30 16536 C 1595.19 -5.7038 -0.587766 0
M  V30 16537 N 1594.69 -6.9049 -0.56529 0
M  V30 16538 N 1596.48 -5.58535 -0.632067 0
M  V30 16539 H 1588.63 -1.97381 0.784509 0
M  V30 16540 H 1590.89 -0.902141 0.291284 0
M  V30 16541 H 1590.6 -3.48094 0.502312 0
M  V30 16542 H 1590.47 -3.56022 -1.24612 0
M  V30 16543 H 1592.86 -2.58451 -1.42432 0
M  V30 16544 H 1592.94 -2.53496 0.342544 0
M  V30 16545 H 1592.59 -5.06263 0.407477 0
M  V30 16546 H 1592.52 -5.08399 -1.37253 0
M  V30 16547 H 1595.01 -3.73271 -0.589696 0
M  V30 16548 H 1595.32 -7.70588 -0.584342 0
M  V30 16549 H 1593.67 -6.92957 -0.532444 0
M  V30 16550 H 1596.86 -4.63606 -0.647109 0
M  V30 16551 H 1597.03 -6.44783 -0.644895 0
M  V30 16552 N 1590.44 0.372521 -1.53134 0
M  V30 16553 C 1591.85 0.949671 -1.60742 0
M  V30 16554 C 1592.2 1.90475 -0.470501 0
M  V30 16555 O 1591.32 2.12594 0.404085 0
M  V30 16556 C 1591.92 1.72918 -2.9135 0
M  V30 16557 C 1590.48 2.25577 -3.01317 0
M  V30 16558 C 1589.62 1.06612 -2.55986 0
M  V30 16559 H 1592.57 0.151533 -1.57975 0
M  V30 16560 H 1592.6 2.58982 -2.78763 0
M  V30 16561 H 1592.11 1.0338 -3.74078 0
M  V30 16562 H 1590.21 2.98378 -2.23162 0
M  V30 16563 H 1590.32 2.53935 -4.06268 0
M  V30 16564 H 1588.69 1.43105 -2.10697 0
M  V30 16565 H 1589.47 0.38584 -3.41125 0
M  V30 16566 N 1591.91 1.44376 0.631925 0
M  V30 16567 C 1593.33 1.28245 0.950014 0
M  V30 16568 C 1593.53 0.217644 2.00321 0
M  V30 16569 O 1592.59 -0.396736 2.49364 0
M  V30 16570 C 1593.9 2.65378 1.41404 0
M  V30 16571 C 1595.45 2.73081 1.52956 0
M  V30 16572 C 1595.92 4.10682 2.02742 0
M  V30 16573 N 1597.41 4.12854 2.10014 0
M  V30 16574 C 1598.15 5.16173 2.49705 0
M  V30 16575 N 1597.64 6.29855 2.88539 0
M  V30 16576 N 1599.44 5.03528 2.49832 0
M  V30 16577 H 1591.59 2.12302 -0.0646167 0
M  V30 16578 H 1593.85 0.9474 0.0337162 0
M  V30 16579 H 1593.56 3.44366 0.714476 0
M  V30 16580 H 1593.43 2.92213 2.3852 0
M  V30 16581 H 1595.82 1.94412 2.22009 0
M  V30 16582 H 1595.9 2.49988 0.542176 0
M  V30 16583 H 1595.54 4.89827 1.34285 0
M  V30 16584 H 1595.47 4.31152 3.02351 0
M  V30 16585 H 1597.96 3.30806 1.8269 0
M  V30 16586 H 1598.28 7.04505 3.17637 0
M  V30 16587 H 1596.62 6.33294 2.86293 0
M  V30 16588 H 1599.81 4.13773 2.18883 0
M  V30 16589 H 1599.99 5.84172 2.80441 0
M  V30 16590 N 1593.39 -0.872258 1.31261 0
M  V30 16591 C 1594.34 -1.96688 1.15317 0
M  V30 16592 C 1595.33 -1.60769 0.0647922 0
M  V30 16593 O 1596.52 -1.74617 0.289469 0
M  V30 16594 C 1593.65 -3.32347 0.860242 0
M  V30 16595 C 1592.73 -3.7454 1.98948 0
M  V30 16596 N 1593.12 -3.88715 3.23627 0
M  V30 16597 C 1591.42 -4.04035 1.88871 0
M  V30 16598 C 1592.12 -4.24718 3.97478 0
M  V30 16599 N 1591.1 -4.35278 3.25629 0
M  V30 16600 H 1594.9 -2.05755 2.09862 0
M  V30 16601 H 1592.41 -1.0629 1.22785 0
M  V30 16602 H 1594.41 -4.10512 0.727004 0
M  V30 16603 H 1593.07 -3.24609 -0.0770132 0
M  V30 16604 H 1594.08 -3.73504 3.58769 0
M  V30 16605 H 1590.76 -4.04698 1.02595 0
M  V30 16606 H 1592.15 -4.43302 5.04909 0
M  V30 16607 N 1594.87 -1.14184 -1.08627 0
M  V30 16608 C 1595.83 -0.82954 -2.13662 0
M  V30 16609 C 1596.83 0.164794 -1.59953 0
M  V30 16610 O 1598.02 -0.0632831 -1.74085 0
M  V30 16611 C 1595.15 -0.236176 -3.40081 0
M  V30 16612 H 1596.35 -1.76038 -2.42797 0
M  V30 16613 H 1593.9 -0.947568 -1.24301 0
M  V30 16614 H 1594.64 0.70349 -3.16578 0
M  V30 16615 H 1594.42 -0.952341 -3.80359 0
M  V30 16616 H 1595.91 -0.03481 -4.17585 0
M  V30 16617 N 1596.35 1.26749 -0.936613 0
M  V30 16618 C 1597.57 1.98597 -0.597817 0
M  V30 16619 C 1598 1.69324 0.8192 0
M  V30 16620 O 1597.36 0.938634 1.55111 0
M  V30 16621 C 1597.4 3.50656 -0.841007 0
M  V30 16622 O 1596.51 4.12304 0.0891038 0
M  V30 16623 H 1595.85 0.623197 -0.229176 0
M  V30 16624 H 1598.38 1.61332 -1.2583 0
M  V30 16625 H 1598.39 4.00857 -0.760093 0
M  V30 16626 H 1597.06 3.71293 -1.87388 0
M  V30 16627 H 1595.64 3.72876 -0.0424804 0
M  V30 16628 N 1597.83 0.703118 1.41046 0
M  V30 16629 C 1598.76 0.0570815 2.3343 0
M  V30 16630 C 1599.74 -0.759042 1.52225 0
M  V30 16631 O 1600.92 -0.710491 1.80736 0
M  V30 16632 C 1598.05 -0.874541 3.36109 0
M  V30 16633 C 1597.01 -0.16496 4.27682 0
M  V30 16634 C 1596.33 -1.21145 5.20795 0
M  V30 16635 C 1597.63 0.97332 5.13151 0
M  V30 16636 H 1599.33 0.828699 2.87703 0
M  V30 16637 H 1596.87 0.399956 1.38334 0
M  V30 16638 H 1598.83 -1.33579 3.99668 0
M  V30 16639 H 1597.55 -1.67791 2.80203 0
M  V30 16640 H 1596.21 0.276332 3.65557 0
M  V30 16641 H 1595.86 -2.00755 4.61201 0
M  V30 16642 H 1595.56 -0.741633 5.82901 0
M  V30 16643 H 1597.08 -1.67305 5.87232 0
M  V30 16644 H 1598.49 0.592013 5.70235 0
M  V30 16645 H 1596.89 1.37071 5.84236 0
M  V30 16646 H 1597.96 1.80961 4.49868 0
M  V30 16647 N 1599.3 -1.51086 0.448402 0
M  V30 16648 C 1600.72 -1.86696 -0.0121264 0
M  V30 16649 C 1601.07 -1.36483 -1.40949 0
M  V30 16650 O 1600.19 -0.72024 -2.04062 0
M  V30 16651 C 1600.79 -3.38788 -0.0287814 0
M  V30 16652 C 1599.35 -3.73892 -0.433758 0
M  V30 16653 C 1598.49 -2.74869 0.366362 0
M  V30 16654 H 1601.44 -1.44153 0.663744 0
M  V30 16655 H 1601.46 -3.71204 -0.835915 0
M  V30 16656 H 1600.98 -3.75304 0.988368 0
M  V30 16657 H 1599.08 -3.4297 -1.4561 0
M  V30 16658 H 1599.19 -4.78862 -0.150869 0
M  V30 16659 H 1597.55 -2.54085 -0.176862 0
M  V30 16660 H 1598.34 -3.14228 1.3826 0
M  V30 16661 N 1600.78 -0.180154 -1.56567 0
M  V30 16662 C 1602.01 0.471692 -2.01965 0
M  V30 16663 C 1602.43 1.5542 -1.05954 0
M  V30 16664 O 1601.79 1.81255 -0.0405307 0
M  V30 16665 C 1601.84 1.01883 -3.45908 0
M  V30 16666 O 1600.94 2.13245 -3.52988 0
M  V30 16667 H 1600.28 0.11197 -0.654491 0
M  V30 16668 H 1602.81 -0.286642 -2.02582 0
M  V30 16669 H 1602.82 1.33922 -3.85395 0
M  V30 16670 H 1601.5 0.226299 -4.15284 0
M  V30 16671 H 1600.08 1.82184 -3.25367 0
M  V30 16672 N 1602.26 1.57322 0.0935319 0
M  V30 16673 C 1603.49 1.90754 0.814111 0
M  V30 16674 C 1603.91 0.774571 1.71412 0
M  V30 16675 O 1603.27 -0.273775 1.79221 0
M  V30 16676 C 1603.32 3.23055 1.60211 0
M  V30 16677 O 1602.42 3.10755 2.71118 0
M  V30 16678 H 1601.76 0.625237 0.223552 0
M  V30 16679 H 1604.29 2.04486 0.068288 0
M  V30 16680 H 1604.3 3.56401 1.986 0
M  V30 16681 H 1602.98 4.05101 0.941607 0
M  V30 16682 H 1601.55 2.88926 2.35745 0
M  V30 16683 N 1603.74 -0.364395 1.53329 0
M  V30 16684 C 1604.98 -1.10855 1.6982 0
M  V30 16685 C 1605.32 -1.88931 0.449291 0
M  V30 16686 O 1604.59 -1.8646 -0.553437 0
M  V30 16687 C 1604.88 -2.06681 2.94881 0
M  V30 16688 C 1604.73 -1.32206 4.29932 0
M  V30 16689 C 1606.05 -3.06788 3.15546 0
M  V30 16690 H 1603.17 -0.401626 0.617953 0
M  V30 16691 H 1605.81 -0.389244 1.8597 0
M  V30 16692 H 1603.96 -2.68019 2.81244 0
M  V30 16693 H 1605.63 -0.73642 4.55384 0
M  V30 16694 H 1603.87 -0.623916 4.2929 0
M  V30 16695 H 1604.54 -2.0235 5.13574 0
M  V30 16696 H 1607.02 -2.55554 3.28377 0
M  V30 16697 H 1605.9 -3.71059 4.04483 0
M  V30 16698 H 1606.16 -3.77023 2.3088 0
M  V30 16699 N 1605.22 -1.44709 -0.62426 0
M  V30 16700 C 1606.18 -1.51738 -1.7178 0
M  V30 16701 C 1607.18 -0.398646 -1.5578 0
M  V30 16702 O 1608.37 -0.661525 -1.61151 0
M  V30 16703 C 1605.5 -1.39792 -3.1092 0
M  V30 16704 H 1606.69 -2.49154 -1.6692 0
M  V30 16705 H 1604.25 -1.31903 -0.838531 0
M  V30 16706 H 1604.98 -0.434955 -3.2137 0
M  V30 16707 H 1604.77 -2.20919 -3.2394 0
M  V30 16708 H 1606.26 -1.47706 -3.90606 0
M  V30 16709 N 1606.69 0.865285 -1.31722 0
M  V30 16710 C 1607.6 2.00542 -1.21738 0
M  V30 16711 C 1608.62 1.7349 -0.133124 0
M  V30 16712 O 1609.8 1.98303 -0.351809 0
M  V30 16713 C 1606.86 3.33993 -0.930045 0
M  V30 16714 C 1605.92 3.74337 -2.10167 0
M  V30 16715 C 1605.16 5.0142 -1.82795 0
M  V30 16716 O 1605.38 5.65242 -0.765345 0
M  V30 16717 O 1604.31 5.38642 -2.68604 0
M  V30 16718 H 1608.14 2.11898 -2.17561 0
M  V30 16719 H 1605.72 0.994313 -1.11507 0
M  V30 16720 H 1607.61 4.14008 -0.785846 0
M  V30 16721 H 1606.28 3.237 -0.00188642 0
M  V30 16722 H 1605.19 2.94943 -2.3013 0
M  V30 16723 H 1606.52 3.89261 -3.01225 0
M  V30 16724 N 1608.17 1.14759 1.0802 0
M  V30 16725 C 1609.14 0.840859 2.13219 0
M  V30 16726 C 1610.14 -0.156309 1.60038 0
M  V30 16727 O 1611.33 0.0725143 1.74049 0
M  V30 16728 C 1608.46 0.254208 3.39951 0
M  V30 16729 H 1609.65 1.77323 2.4186 0
M  V30 16730 H 1607.2 0.954146 1.23797 0
M  V30 16731 H 1607.94 -0.686692 3.16946 0
M  V30 16732 H 1607.72 0.972499 3.79848 0
M  V30 16733 H 1609.21 0.0569551 4.17561 0
M  V30 16734 N 1609.65 -1.26251 0.943322 0
M  V30 16735 C 1610.9 -1.93652 0.592032 0
M  V30 16736 C 1611.23 -1.73996 -0.869234 0
M  V30 16737 O 1610.48 -1.07165 -1.6375 0
M  V30 16738 C 1610.78 -3.46316 0.883167 0
M  V30 16739 C 1610.45 -3.86115 2.32866 0
M  V30 16740 C 1609.11 -3.9669 2.72379 0
M  V30 16741 C 1611.46 -4.06025 3.26792 0
M  V30 16742 C 1608.79 -4.24575 4.04911 0
M  V30 16743 C 1611.14 -4.35399 4.58923 0
M  V30 16744 C 1609.8 -4.4419 4.98248 0
M  V30 16745 H 1609.07 -0.708624 0.21664 0
M  V30 16746 H 1611.72 -1.50019 1.19023 0
M  V30 16747 H 1610.03 -3.91277 0.202452 0
M  V30 16748 H 1611.72 -3.96634 0.590108 0
M  V30 16749 H 1608.31 -3.78431 2.01217 0
M  V30 16750 H 1612.5 -3.9728 2.9746 0
M  V30 16751 H 1607.75 -4.29594 4.35039 0
M  V30 16752 H 1611.93 -4.49751 5.31692 0
M  V30 16753 H 1609.55 -4.65551 6.00971 0
M  V30 16754 N 1611.13 -0.710588 -1.40671 0
M  V30 16755 C 1612.09 -0.0635988 -2.29112 0
M  V30 16756 C 1613.09 0.692537 -1.45123 0
M  V30 16757 O 1614.28 0.525184 -1.66095 0
M  V30 16758 C 1611.41 0.919955 -3.28252 0
M  V30 16759 H 1612.61 -0.842477 -2.87823 0
M  V30 16760 H 1610.16 -0.474948 -1.48909 0
M  V30 16761 H 1610.9 1.72607 -2.7455 0
M  V30 16762 H 1610.68 0.38071 -3.90247 0
M  V30 16763 H 1612.17 1.36997 -3.94489 0
M  V30 16764 N 1612.61 1.50847 -0.456408 0
M  V30 16765 C 1614.02 1.59222 -0.109731 0
M  V30 16766 C 1614.22 1.46582 1.3826 0
M  V30 16767 O 1613.28 1.31678 2.15446 0
M  V30 16768 C 1614.59 2.9366 -0.646846 0
M  V30 16769 C 1616.14 3.07019 -0.60897 0
M  V30 16770 C 1616.62 4.44009 -1.12338 0
M  V30 16771 N 1618.11 4.50381 -1.08217 0
M  V30 16772 C 1618.84 5.54741 -1.45086 0
M  V30 16773 N 1618.34 6.66427 -1.89333 0
M  V30 16774 N 1620.13 5.45204 -1.36782 0
M  V30 16775 H 1612.28 1.57307 -1.42717 0
M  V30 16776 H 1614.54 0.742587 -0.589295 0
M  V30 16777 H 1614.25 3.0834 -1.69172 0
M  V30 16778 H 1614.12 3.7711 -0.0822535 0
M  V30 16779 H 1616.51 2.91995 0.426958 0
M  V30 16780 H 1616.59 2.25362 -1.21019 0
M  V30 16781 H 1616.24 4.59781 -2.15787 0
M  V30 16782 H 1616.17 5.24235 -0.498512 0
M  V30 16783 H 1618.66 3.70231 -0.757467 0
M  V30 16784 H 1618.97 7.42101 -2.15652 0
M  V30 16785 H 1617.32 6.67585 -1.93275 0
M  V30 16786 H 1620.51 4.56837 -1.02066 0
M  V30 16787 H 1620.68 6.26419 -1.65842 0
M  V30 16788 N 1614.09 0.188454 1.56469 0
M  V30 16789 C 1615.5 -0.325309 1.83844 0
M  V30 16790 C 1615.85 -1.61858 1.1089 0
M  V30 16791 O 1614.97 -2.13256 0.36752 0
M  V30 16792 C 1615.57 -0.597002 3.33499 0
M  V30 16793 C 1614.13 -1.05515 3.61308 0
M  V30 16794 C 1613.27 -0.100182 2.77119 0
M  V30 16795 H 1616.22 0.412378 1.53249 0
M  V30 16796 H 1616.25 -1.44709 3.51908 0
M  V30 16797 H 1615.76 0.344429 3.86569 0
M  V30 16798 H 1613.86 -2.01109 3.13665 0
M  V30 16799 H 1613.97 -0.952461 4.69537 0
M  V30 16800 H 1612.34 -0.600815 2.47512 0
M  V30 16801 H 1613.12 0.835574 3.32976 0
M  V30 16802 N 1615.56 -1.5737 -0.0851874 0
M  V30 16803 C 1616.79 -1.91183 -0.803983 0
M  V30 16804 C 1617.21 -0.78365 -1.70999 0
M  V30 16805 O 1616.57 0.264266 -1.79364 0
M  V30 16806 C 1616.62 -3.239 -1.58496 0
M  V30 16807 O 1615.72 -3.12189 -2.69466 0
M  V30 16808 H 1615.06 -0.626413 -0.220233 0
M  V30 16809 H 1617.59 -2.04519 -0.0574426 0
M  V30 16810 H 1617.6 -3.5745 -1.96707 0
M  V30 16811 H 1616.28 -4.05594 -0.920111 0
M  V30 16812 H 1614.86 -2.90173 -2.3421 0
M  V30 16813 N 1617.04 0.356258 -1.53521 0
M  V30 16814 C 1618.27 1.12273 -1.74383 0
M  V30 16815 C 1618.69 1.81981 -0.475881 0
M  V30 16816 O 1618.05 1.72083 0.570699 0
M  V30 16817 C 1618.1 2.12161 -2.91582 0
M  V30 16818 O 1617.2 3.1943 -2.60842 0
M  V30 16819 H 1616.54 0.325321 -0.578845 0
M  V30 16820 H 1619.07 0.410533 -2.00439 0
M  V30 16821 H 1619.08 2.55602 -3.18012 0
M  V30 16822 H 1617.76 1.60818 -3.8355 0
M  V30 16823 H 1616.33 2.80895 -2.4526 0
M  V30 16824 N 1618.52 1.45038 0.616577 0
M  V30 16825 C 1619.45 1.55858 1.73869 0
M  V30 16826 C 1620.43 0.410657 1.65069 0
M  V30 16827 O 1621.62 0.632652 1.83606 0
M  V30 16828 C 1618.75 1.51635 3.12448 0
M  V30 16829 C 1617.7 2.65053 3.36052 0
M  V30 16830 C 1617.03 2.45883 4.74811 0
M  V30 16831 C 1618.33 4.07121 3.27185 0
M  V30 16832 H 1620.02 2.49784 1.6507 0
M  V30 16833 H 1617.57 1.20216 0.792724 0
M  V30 16834 H 1619.52 1.57803 3.90738 0
M  V30 16835 H 1618.24 0.542342 3.22066 0
M  V30 16836 H 1616.9 2.58299 2.60149 0
M  V30 16837 H 1616.55 1.46641 4.8115 0
M  V30 16838 H 1616.25 3.21935 4.9156 0
M  V30 16839 H 1617.77 2.53892 5.55312 0
M  V30 16840 H 1619.19 4.15167 3.9536 0
M  V30 16841 H 1617.58 4.83491 3.55466 0
M  V30 16842 H 1618.65 4.29663 2.24762 0
M  V30 16843 N 1620 -0.858287 1.32179 0
M  V30 16844 C 1621.41 -1.4281 1.20259 0
M  V30 16845 C 1621.76 -1.95313 -0.186332 0
M  V30 16846 O 1620.88 -1.87244 -1.08484 0
M  V30 16847 C 1621.48 -2.59589 2.17713 0
M  V30 16848 C 1620.04 -3.1258 2.09691 0
M  V30 16849 C 1619.19 -1.85317 2.06283 0
M  V30 16850 H 1622.14 -0.665769 1.4406 0
M  V30 16851 H 1622.16 -3.36639 1.77354 0
M  V30 16852 H 1621.67 -2.21346 3.18791 0
M  V30 16853 H 1619.77 -3.55416 1.11849 0
M  V30 16854 H 1619.88 -3.74071 2.99346 0
M  V30 16855 H 1618.25 -2.04766 1.51469 0
M  V30 16856 H 1619.03 -1.49296 3.09137 0
M  V30 16857 N 1621.48 -1.1533 -1.07409 0
M  V30 16858 C 1622.44 -0.852155 -2.1277 0
M  V30 16859 C 1623.44 0.14782 -1.60119 0
M  V30 16860 O 1624.63 -0.0817436 -1.74008 0
M  V30 16861 C 1621.76 -0.272233 -3.39811 0
M  V30 16862 H 1622.95 -1.78604 -2.40917 0
M  V30 16863 H 1620.51 -0.960698 -1.23289 0
M  V30 16864 H 1621.24 0.669873 -3.17306 0
M  V30 16865 H 1621.03 -0.992629 -3.79327 0
M  V30 16866 H 1622.52 -0.0790986 -4.17525 0
M  V30 16867 N 1622.95 1.25748 -0.950004 0
M  V30 16868 C 1624.2 1.92954 -0.601104 0
M  V30 16869 C 1624.52 1.74817 0.863953 0
M  V30 16870 O 1623.79 1.10904 1.61484 0
M  V30 16871 H 1622.37 0.714077 -0.219325 0
M  V30 16872 H 1625.03 1.53009 -1.20724 0
M  V30 16873 H 1624.13 3.00959 -0.826447 0
M  V30 16874 N 1624.43 0.718038 1.40292 0
M  V30 16875 C 1625.67 0.263057 2.027 0
M  V30 16876 C 1626.04 -1.1233 1.55711 0
M  V30 16877 O 1627.24 -1.67541 2.10199 0
M  V30 16878 C 1625.51 0.342773 3.55752 0
M  V30 16879 S 1627.07 -0.0348622 4.38786 0
M  V30 16880 H 1623.88 0.10418 0.703326 0
M  V30 16881 H 1626.49 0.940801 1.71374 0
M  V30 16882 H 1625.19 1.35336 3.87443 0
M  V30 16883 H 1624.72 -0.353367 3.9181 0
M  V30 16884 H 1626.74 -1.25618 4.80036 0
M  V30 16885 N 1625.91 -1.50602 0.464402 0
M  V30 16886 C 1627.14 -2.06701 -0.0907765 0
M  V30 16887 C 1627.55 -1.32901 -1.341 0
M  V30 16888 O 1626.91 -0.396323 -1.78145 0
M  V30 16889 C 1626.96 -3.59437 -0.385667 0
M  V30 16890 O 1626.68 -4.30453 0.81496 0
M  V30 16891 C 1628.18 -4.32137 -0.988549 0
M  V30 16892 H 1625.4 -0.670987 0.00410069 0
M  V30 16893 H 1627.95 -1.93853 0.651264 0
M  V30 16894 H 1626.1 -3.7211 -1.07763 0
M  V30 16895 H 1626.52 -5.2155 0.55551 0
M  V30 16896 H 1627.99 -5.40001 -1.1447 0
M  V30 16897 H 1628.47 -3.92194 -1.97688 0
M  V30 16898 H 1629.07 -4.23977 -0.335166 0
M  V30 16899 N 1627.39 -0.19675 -1.56367 0
M  V30 16900 C 1628.64 0.440711 -1.97236 0
M  V30 16901 C 1628.96 1.62037 -1.08485 0
M  V30 16902 O 1628.23 1.95274 -0.156483 0
M  V30 16903 H 1626.81 0.16581 -0.728365 0
M  V30 16904 H 1629.47 -0.283867 -1.92822 0
M  V30 16905 H 1628.57 0.783731 -3.02099 0
M  V30 16906 N 1628.87 1.57413 0.0768405 0
M  V30 16907 C 1630.28 1.75776 0.629262 0
M  V30 16908 C 1630.63 0.821502 1.78173 0
M  V30 16909 O 1629.75 0.00437198 2.164 0
M  V30 16910 C 1630.35 3.18747 1.14828 0
M  V30 16911 C 1628.91 3.38472 1.64661 0
M  V30 16912 C 1628.05 2.71506 0.563884 0
M  V30 16913 H 1631.01 1.57996 -0.149312 0
M  V30 16914 H 1631.03 3.22628 2.01722 0
M  V30 16915 H 1630.54 3.86866 0.309282 0
M  V30 16916 H 1628.64 2.75461 2.50903 0
M  V30 16917 H 1628.75 4.4689 1.72703 0
M  V30 16918 H 1627.12 2.33917 1.00772 0
M  V30 16919 H 1627.9 3.42277 -0.264847 0
M  V30 16920 N 1630.34 -0.348112 1.53707 0
M  V30 16921 C 1631.31 -1.41018 1.80683 0
M  V30 16922 C 1632.31 -1.4582 0.67774 0
M  V30 16923 O 1633.5 -1.46275 0.94601 0
M  V30 16924 C 1630.63 -2.79988 1.94473 0
M  V30 16925 H 1631.82 -1.18365 2.75554 0
M  V30 16926 H 1629.38 -0.582244 1.4505 0
M  V30 16927 H 1630.11 -3.07931 1.0173 0
M  V30 16928 H 1629.9 -2.77899 2.76612 0
M  V30 16929 H 1631.39 -3.56868 2.16876 0
M  V30 16930 N 1631.82 -1.45363 -0.608876 0
M  V30 16931 C 1633.06 -1.50852 -1.37925 0
M  V30 16932 C 1633.43 -0.146034 -1.91444 0
M  V30 16933 O 1634.63 -0.0756115 -2.68694 0
M  V30 16934 C 1632.9 -2.55668 -2.49737 0
M  V30 16935 S 1634.46 -2.80371 -3.37546 0
M  V30 16936 H 1631.28 -0.533283 -0.470244 0
M  V30 16937 H 1633.88 -1.82435 -0.702697 0
M  V30 16938 H 1632.58 -3.53334 -2.08767 0
M  V30 16939 H 1632.11 -2.25731 -3.22194 0
M  V30 16940 H 1634.13 -2.13653 -4.47847 0
M  V30 16941 N 1633.3 0.851265 -1.32632 0
M  V30 16942 C 1634.26 1.94168 -1.21785 0
M  V30 16943 C 1635.26 1.60189 -0.140023 0
M  V30 16944 O 1636.45 1.69763 -0.390671 0
M  V30 16945 C 1633.59 3.29513 -0.873717 0
M  V30 16946 H 1634.78 2.05214 -2.18695 0
M  V30 16947 H 1632.33 1.04186 -1.16512 0
M  V30 16948 H 1633.07 3.24165 0.0934202 0
M  V30 16949 H 1632.85 3.55552 -1.65302 0
M  V30 16950 H 1634.34 4.09425 -0.822231 0
M  V30 16951 N 1634.78 1.15898 1.06796 0
M  V30 16952 C 1636.19 0.902809 1.31611 0
M  V30 16953 C 1636.39 -0.447112 1.96477 0
M  V30 16954 O 1635.45 -1.18778 2.22818 0
M  V30 16955 C 1636.76 2.04803 2.20173 0
M  V30 16956 C 1638.31 2.08321 2.33605 0
M  V30 16957 C 1638.79 3.22182 3.25519 0
M  V30 16958 N 1640.28 3.21866 3.33101 0
M  V30 16959 C 1641.01 4.06608 4.04299 0
M  V30 16960 N 1640.51 5.01426 4.78063 0
M  V30 16961 N 1642.3 3.94612 4.00297 0
M  V30 16962 H 1634.45 2.02816 0.630831 0
M  V30 16963 H 1636.72 0.884683 0.340646 0
M  V30 16964 H 1636.42 3.02278 1.7978 0
M  V30 16965 H 1636.3 1.98521 3.20732 0
M  V30 16966 H 1638.68 1.11441 2.73249 0
M  V30 16967 H 1638.76 2.18668 1.32732 0
M  V30 16968 H 1638.41 4.19317 2.86594 0
M  V30 16969 H 1638.34 3.0907 4.2636 0
M  V30 16970 H 1640.83 2.53203 2.80529 0
M  V30 16971 H 1641.14 5.62517 5.29901 0
M  V30 16972 H 1639.49 5.0541 4.7706 0
M  V30 16973 H 1642.68 3.19843 3.41786 0
M  V30 16974 H 1642.85 4.60877 4.55518 0
M  V30 16975 N 1636.26 -1.25243 0.956659 0
M  V30 16976 C 1637.67 -1.74909 0.652979 0
M  V30 16977 C 1638.02 -1.77704 -0.831605 0
M  V30 16978 O 1637.14 -1.39921 -1.65079 0
M  V30 16979 C 1637.74 -3.17639 1.1786 0
M  V30 16980 C 1636.3 -3.64856 0.925034 0
M  V30 16981 C 1635.44 -2.43844 1.32044 0
M  V30 16982 H 1638.4 -1.11101 1.13324 0
M  V30 16983 H 1638.42 -3.76654 0.539633 0
M  V30 16984 H 1637.93 -3.15572 2.25911 0
M  V30 16985 H 1636.03 -3.72335 -0.14043 0
M  V30 16986 H 1636.14 -4.5289 1.56292 0
M  V30 16987 H 1634.51 -2.43749 0.738813 0
M  V30 16988 H 1635.29 -2.44466 2.41021 0
M  V30 16989 N 1637.73 -0.725468 -1.3991 0
M  V30 16990 C 1639.01 -0.195971 -1.94616 0
M  V30 16991 C 1639.39 1.30035 -1.66295 0
M  V30 16992 O 1638.74 2.06133 -0.985977 0
M  V30 16993 C 1638.95 -0.519325 -3.45115 0
M  V30 16994 C 1640.3 -0.46341 -4.22064 0
M  V30 16995 O 1641.32 -0.455958 -3.5327 0
M  V30 16996 O 1640.18 -0.449579 -5.44648 0
M  V30 16997 H 1637.27 -0.0325409 -0.82636 0
M  V30 16998 H 1639.82 -0.803676 -1.49463 0
M  V30 16999 H 1638.59 -1.55386 -3.59125 0
M  V30 17000 H 1638.22 0.117838 -3.97425 0
M  V30 17001 N 1639.21 1.50354 -0.472382 0
M  V30 17002 C 1640.46 2.01934 0.0820006 0
M  V30 17003 C 1640.78 1.35636 1.401 0
M  V30 17004 O 1640.05 0.502127 1.89355 0
M  V30 17005 H 1638.63 0.746258 0.0332943 0
M  V30 17006 H 1641.29 1.84671 -0.623099 0
M  V30 17007 H 1640.39 3.11232 0.232565 0
M  V30 17008 N 1640.69 0.205039 1.56261 0
M  V30 17009 C 1641.64 -0.724845 2.16171 0
M  V30 17010 C 1642.63 -1.16929 1.10528 0
M  V30 17011 O 1643.82 -1.12603 1.36564 0
M  V30 17012 C 1640.95 -1.93992 2.83235 0
M  V30 17013 C 1640.03 -1.51592 3.96082 0
M  V30 17014 N 1640.42 -0.80348 4.99377 0
M  V30 17015 C 1638.72 -1.80447 4.07866 0
M  V30 17016 C 1639.42 -0.58958 5.78704 0
M  V30 17017 N 1638.4 -1.14132 5.31484 0
M  V30 17018 H 1642.2 -0.171919 2.93397 0
M  V30 17019 H 1639.71 0.00563679 1.62399 0
M  V30 17020 H 1641.71 -2.61667 3.24555 0
M  V30 17021 H 1640.37 -2.49747 2.07501 0
M  V30 17022 H 1641.38 -0.457893 5.15872 0
M  V30 17023 H 1638.06 -2.3764 3.43269 0
M  V30 17024 H 1639.45 -0.0237117 6.71896 0
M  V30 17025 N 1642.17 -1.57451 -0.0684915 0
M  V30 17026 C 1643.39 -1.92025 -0.78366 0
M  V30 17027 C 1643.82 -0.801743 -1.70158 0
M  V30 17028 O 1643.18 0.245227 -1.79634 0
M  V30 17029 C 1643.23 -3.25563 -1.55051 0
M  V30 17030 O 1642.33 -3.15029 -2.6614 0
M  V30 17031 H 1641.67 -0.628714 -0.213576 0
M  V30 17032 H 1644.2 -2.04569 -0.0357474 0
M  V30 17033 H 1644.21 -3.59516 -1.92905 0
M  V30 17034 H 1642.89 -4.06547 -0.87704 0
M  V30 17035 H 1641.46 -2.9264 -2.31119 0
M  V30 17036 N 1643.65 0.339955 -1.5389 0
M  V30 17037 C 1644.61 1.40058 -1.81429 0
M  V30 17038 C 1645.61 1.45458 -0.685463 0
M  V30 17039 O 1646.8 1.45771 -0.953754 0
M  V30 17040 C 1643.93 2.78952 -1.95955 0
M  V30 17041 H 1645.13 1.16902 -2.76178 0
M  V30 17042 H 1642.68 0.574543 -1.45357 0
M  V30 17043 H 1643.41 3.07387 -1.03361 0
M  V30 17044 H 1643.2 2.76429 -2.78082 0
M  V30 17045 H 1644.69 3.55713 -2.18765 0
M  V30 17046 N 1645.13 1.45684 0.601159 0
M  V30 17047 C 1646.37 1.51581 1.37123 0
M  V30 17048 C 1646.73 0.156185 1.91364 0
M  V30 17049 O 1647.93 0.0898599 2.6865 0
M  V30 17050 C 1646.2 2.56989 2.48378 0
M  V30 17051 S 1647.76 2.82158 3.36054 0
M  V30 17052 H 1644.58 0.53577 0.46741 0
M  V30 17053 H 1647.18 1.82805 0.693012 0
M  V30 17054 H 1645.88 3.54436 2.0689 0
M  V30 17055 H 1645.42 2.27437 3.20992 0
M  V30 17056 H 1647.43 2.16025 4.46708 0
M  V30 17057 N 1646.6 -0.84422 1.33082 0
M  V30 17058 C 1648.02 -1.13406 1.12299 0
M  V30 17059 C 1648.22 -2.013 -0.0896529 0
M  V30 17060 O 1647.28 -2.40425 -0.771493 0
M  V30 17061 C 1648.59 -1.80132 2.40776 0
M  V30 17062 C 1650.14 -1.92721 2.46632 0
M  V30 17063 C 1650.61 -2.62863 3.75056 0
M  V30 17064 N 1652.1 -2.70379 3.76097 0
M  V30 17065 C 1652.84 -3.25328 4.72175 0
M  V30 17066 N 1652.33 -3.81005 5.78625 0
M  V30 17067 N 1654.13 -3.23529 4.59658 0
M  V30 17068 H 1646.28 -0.259126 2.10813 0
M  V30 17069 H 1648.54 -0.177459 0.931242 0
M  V30 17070 H 1648.25 -1.23007 3.29488 0
M  V30 17071 H 1648.12 -2.802 2.52523 0
M  V30 17072 H 1650.51 -2.49002 1.58373 0
M  V30 17073 H 1650.59 -0.916191 2.3883 0
M  V30 17074 H 1650.23 -2.07242 4.63695 0
M  V30 17075 H 1650.16 -3.64425 3.80134 0
M  V30 17076 H 1652.65 -2.30891 2.99162 0
M  V30 17077 H 1652.97 -4.21121 6.47979 0
M  V30 17078 H 1651.31 -3.79308 5.82366 0
M  V30 17079 H 1654.5 -2.79286 3.75656 0
M  V30 17080 H 1654.68 -3.66051 5.34706 0
M  V30 17081 N 1648.08 -1.16463 -1.0618 0
M  V30 17082 C 1649.5 -0.909776 -1.31131 0
M  V30 17083 C 1649.7 0.436686 -1.96711 0
M  V30 17084 O 1648.75 1.17595 -2.23445 0
M  V30 17085 C 1650.07 -2.05967 -2.19084 0
M  V30 17086 C 1651.61 -2.09557 -2.32497 0
M  V30 17087 C 1652.09 -3.23904 -3.23806 0
M  V30 17088 N 1653.58 -3.23628 -3.3139 0
M  V30 17089 C 1654.32 -4.08746 -4.02137 0
M  V30 17090 N 1653.81 -5.03954 -4.75397 0
M  V30 17091 N 1655.6 -3.96729 -3.98199 0
M  V30 17092 H 1647.76 -2.03148 -0.620066 0
M  V30 17093 H 1650.02 -0.886477 -0.335949 0
M  V30 17094 H 1649.72 -3.03227 -1.78174 0
M  V30 17095 H 1649.6 -2.00219 -3.19675 0
M  V30 17096 H 1651.99 -1.12889 -2.72654 0
M  V30 17097 H 1652.07 -2.19369 -1.3157 0
M  V30 17098 H 1651.71 -4.20831 -2.84366 0
M  V30 17099 H 1651.64 -3.11327 -4.24715 0
M  V30 17100 H 1654.13 -2.54687 -2.79182 0
M  V30 17101 H 1654.44 -5.65319 -5.2691 0
M  V30 17102 H 1652.79 -5.07932 -4.74373 0
M  V30 17103 H 1655.98 -3.21652 -3.40085 0
M  V30 17104 H 1656.15 -4.63286 -4.53067 0
M  V30 17105 N 1649.56 1.24734 -0.963288 0
M  V30 17106 C 1650.49 2.27892 -0.508667 0
M  V30 17107 C 1651.47 1.64055 0.449438 0
M  V30 17108 O 1652.66 1.91083 0.346519 0
M  V30 17109 C 1649.79 3.46688 0.206157 0
M  V30 17110 C 1648.74 4.22762 -0.667534 0
M  V30 17111 C 1648.07 5.34402 0.178529 0
M  V30 17112 C 1649.37 4.84535 -1.94995 0
M  V30 17113 H 1651.06 2.66171 -1.37088 0
M  V30 17114 H 1648.61 1.27952 -0.660622 0
M  V30 17115 H 1650.56 4.17985 0.535391 0
M  V30 17116 H 1649.28 3.07422 1.10269 0
M  V30 17117 H 1647.94 3.53259 -0.979976 0
M  V30 17118 H 1647.59 4.91377 1.07508 0
M  V30 17119 H 1647.29 5.86218 -0.402808 0
M  V30 17120 H 1648.81 6.08529 0.502533 0
M  V30 17121 H 1650.23 5.4793 -1.68658 0
M  V30 17122 H 1648.62 5.46564 -2.47765 0
M  V30 17123 H 1649.69 4.06236 -2.64765 0
M  V30 17124 N 1651.04 0.732878 1.39523 0
M  V30 17125 C 1652 0.10004 2.28982 0
M  V30 17126 C 1653 -0.669361 1.46206 0
M  V30 17127 O 1654.19 -0.498694 1.66909 0
M  V30 17128 C 1651.32 -0.867616 3.29674 0
M  V30 17129 H 1652.52 0.88816 2.86447 0
M  V30 17130 H 1650.07 0.498578 1.48135 0
M  V30 17131 H 1650.8 -1.68217 2.77261 0
M  V30 17132 H 1650.59 -0.318577 3.90804 0
M  V30 17133 H 1652.08 -1.30704 3.96618 0
M  V30 17134 N 1652.52 -1.50101 0.480349 0
M  V30 17135 C 1653.45 -2.26582 -0.345418 0
M  V30 17136 C 1654.46 -1.32283 -0.948947 0
M  V30 17137 O 1655.65 -1.57724 -0.835784 0
M  V30 17138 C 1652.75 -3.0393 -1.49932 0
M  V30 17139 C 1651.92 -4.25653 -1.00689 0
M  V30 17140 C 1650.98 -4.85217 -2.03594 0
M  V30 17141 O 1650.01 -5.45873 -1.61281 0
M  V30 17142 N 1651.21 -4.73035 -3.36479 0
M  V30 17143 H 1653.97 -2.98089 0.310285 0
M  V30 17144 H 1651.54 -1.58872 0.311671 0
M  V30 17145 H 1653.53 -3.40656 -2.18485 0
M  V30 17146 H 1652.1 -2.35162 -2.05955 0
M  V30 17147 H 1651.32 -3.93926 -0.146932 0
M  V30 17148 H 1652.61 -5.04554 -0.655957 0
M  V30 17149 H 1652 -4.24818 -3.73559 0
M  V30 17150 H 1650.56 -5.14004 -4.00804 0
M  V30 17151 N 1653.99 -0.213323 -1.5615 0
M  V30 17152 C 1654.96 0.686579 -2.18675 0
M  V30 17153 C 1655.96 1.1277 -1.14628 0
M  V30 17154 O 1657.15 1.03783 -1.39909 0
M  V30 17155 C 1654.28 1.93954 -2.80347 0
M  V30 17156 H 1655.47 0.141578 -2.99566 0
M  V30 17157 H 1653.02 0.0362987 -1.56258 0
M  V30 17158 H 1653.76 2.52661 -2.03304 0
M  V30 17159 H 1653.54 1.63179 -3.56532 0
M  V30 17160 H 1655.03 2.58087 -3.283 0
M  V30 17161 N 1655.47 1.57485 0.0601405 0
M  V30 17162 C 1656.4 2.01233 1.09717 0
M  V30 17163 C 1657.42 0.92008 1.34307 0
M  V30 17164 O 1658.61 1.19783 1.32342 0
M  V30 17165 C 1655.71 2.3461 2.44564 0
M  V30 17166 C 1654.88 3.65828 2.39768 0
M  V30 17167 C 1653.94 3.86743 3.56814 0
M  V30 17168 O 1652.96 4.5819 3.37714 0
M  V30 17169 N 1654.17 3.29988 4.77586 0
M  V30 17170 H 1656.93 2.9081 0.724526 0
M  V30 17171 H 1654.49 1.5998 0.248613 0
M  V30 17172 H 1656.48 2.45764 3.21531 0
M  V30 17173 H 1655.05 1.50862 2.73787 0
M  V30 17174 H 1654.27 3.65319 1.48107 0
M  V30 17175 H 1655.56 4.51966 2.33675 0
M  V30 17176 H 1654.96 2.72018 4.96007 0
M  V30 17177 H 1653.52 3.46573 5.52024 0
M  V30 17178 N 1656.95 -0.331789 1.54068 0
M  V30 17179 C 1658.18 -1.09484 1.76148 0
M  V30 17180 C 1658.6 -1.81201 0.504772 0
M  V30 17181 O 1657.96 -1.7297 -0.54325 0
M  V30 17182 C 1658.01 -2.07495 2.94921 0
M  V30 17183 O 1657.11 -3.15239 2.65891 0
M  V30 17184 H 1656.45 -0.316071 0.583948 0
M  V30 17185 H 1658.98 -0.378593 2.01067 0
M  V30 17186 H 1658.99 -2.5051 3.22038 0
M  V30 17187 H 1657.67 -1.54696 3.8606 0
M  V30 17188 H 1656.24 -2.76958 2.49697 0
M  V30 17189 N 1658.43 -1.46001 -0.593424 0
M  V30 17190 C 1659.36 -1.50255 -1.71752 0
M  V30 17191 C 1660.34 -0.357601 -1.58619 0
M  V30 17192 O 1661.52 -0.560187 -1.79984 0
M  V30 17193 C 1658.65 -1.37099 -3.09712 0
M  V30 17194 C 1657.7 -2.5564 -3.41395 0
M  V30 17195 S 1658.53 -4.1805 -3.34656 0
M  V30 17196 C 1659.69 -4.07384 -4.75173 0
M  V30 17197 H 1659.92 -2.45363 -1.67882 0
M  V30 17198 H 1657.45 -1.33756 -0.771275 0
M  V30 17199 H 1659.41 -1.30197 -3.89306 0
M  V30 17200 H 1658.07 -0.434384 -3.11082 0
M  V30 17201 H 1657.26 -2.42399 -4.41881 0
M  V30 17202 H 1656.87 -2.59478 -2.69346 0
M  V30 17203 H 1659.16 -3.73403 -5.65311 0
M  V30 17204 H 1660.1 -5.07831 -4.9347 0
M  V30 17205 H 1660.51 -3.38808 -4.51519 0
M  V30 17206 N 1659.91 0.83715 -1.33527 0
M  V30 17207 C 1661.15 1.60619 -1.26416 0
M  V30 17208 C 1661.51 1.9127 0.16722 0
M  V30 17209 O 1662.71 2.66347 0.362323 0
M  V30 17210 C 1660.98 2.87988 -2.11655 0
M  V30 17211 S 1662.54 3.78645 -2.21751 0
M  V30 17212 H 1659.36 0.550704 -0.449718 0
M  V30 17213 H 1661.96 0.990005 -1.6858 0
M  V30 17214 H 1660.67 2.63444 -3.14683 0
M  V30 17215 H 1660.2 3.54612 -1.70334 0
M  V30 17216 H 1662.21 4.76629 -1.37984 0
M  V30 17217 N 1661.38 1.17024 1.05561 0
M  V30 17218 C 1662.31 0.906823 2.15172 0
M  V30 17219 C 1663.3 -0.149745 1.6944 0
M  V30 17220 O 1664.48 -0.000287092 1.942 0
M  V30 17221 C 1661.61 0.415251 3.44809 0
M  V30 17222 C 1660.56 1.41058 4.04088 0
M  V30 17223 C 1659.89 0.777109 5.29023 0
M  V30 17224 C 1661.19 2.78258 4.42007 0
M  V30 17225 H 1662.88 1.82347 2.37466 0
M  V30 17226 H 1660.43 0.878162 1.14124 0
M  V30 17227 H 1662.38 0.218407 4.20834 0
M  V30 17228 H 1661.11 -0.536924 3.22156 0
M  V30 17229 H 1659.77 1.5941 3.30127 0
M  V30 17230 H 1659.41 -0.181784 5.02671 0
M  V30 17231 H 1659.11 1.44151 5.69644 0
M  V30 17232 H 1660.64 0.590455 6.07738 0
M  V30 17233 H 1662.05 2.63645 5.09082 0
M  V30 17234 H 1660.45 3.41241 4.93634 0
M  V30 17235 H 1661.52 3.3295 3.52523 0
M  V30 17236 N 1662.86 -1.24221 0.969889 0
M  V30 17237 C 1664.27 -1.74206 0.671494 0
M  V30 17238 C 1664.62 -1.78576 -0.81271 0
M  V30 17239 O 1663.75 -1.41664 -1.63586 0
M  V30 17240 C 1664.34 -3.16371 1.21222 0
M  V30 17241 C 1662.9 -3.63855 0.96368 0
M  V30 17242 C 1662.05 -2.42429 1.34623 0
M  V30 17243 H 1665 -1.09893 1.14496 0
M  V30 17244 H 1665.02 -3.7606 0.579552 0
M  V30 17245 H 1664.53 -3.13159 2.29245 0
M  V30 17246 H 1662.64 -3.72463 -0.100931 0
M  V30 17247 H 1662.75 -4.51207 1.61087 0
M  V30 17248 H 1661.11 -2.42952 0.764624 0
M  V30 17249 H 1661.9 -2.41896 2.436 0
M  V30 17250 N 1664.34 -0.740267 -1.39132 0
M  V30 17251 C 1665.59 -0.287379 -1.99642 0
M  V30 17252 C 1665.9 1.13337 -1.59418 0
M  V30 17253 O 1667.11 1.68605 -2.12802 0
M  V30 17254 C 1665.56 -0.462859 -3.56911 0
M  V30 17255 C 1665.17 -1.89184 -4.06095 0
M  V30 17256 C 1666.92 -0.0720122 -4.24439 0
M  V30 17257 C 1664.82 -2.01659 -5.55957 0
M  V30 17258 H 1663.75 -0.103696 -0.746835 0
M  V30 17259 H 1666.4 -0.914902 -1.59065 0
M  V30 17260 H 1664.79 0.233644 -3.9531 0
M  V30 17261 H 1665.96 -2.62072 -3.79018 0
M  V30 17262 H 1664.28 -2.23638 -3.51248 0
M  V30 17263 H 1666.87 -0.144163 -5.34506 0
M  V30 17264 H 1667.22 0.973516 -4.04757 0
M  V30 17265 H 1667.75 -0.719868 -3.91232 0
M  V30 17266 H 1664.49 -3.04419 -5.80525 0
M  V30 17267 H 1664.01 -1.33214 -5.8482 0
M  V30 17268 H 1665.69 -1.80023 -6.2145 0
M  V30 17269 N 1665.82 1.49844 -0.488302 0
M  V30 17270 C 1667.05 2.06519 0.0577968 0
M  V30 17271 C 1667.46 1.35039 1.32519 0
M  V30 17272 O 1666.8 0.418468 1.7887 0
M  V30 17273 C 1666.86 3.57328 0.394577 0
M  V30 17274 C 1666.53 4.50411 -0.773259 0
M  V30 17275 C 1667.52 4.9268 -1.66019 0
M  V30 17276 C 1665.21 4.92875 -0.968465 0
M  V30 17277 C 1667.2 5.76139 -2.72659 0
M  V30 17278 C 1664.89 5.76113 -2.03806 0
M  V30 17279 C 1665.89 6.17648 -2.91548 0
M  V30 17280 O 1665.57 6.99224 -3.96663 0
M  V30 17281 H 1665.31 0.675902 -0.0115057 0
M  V30 17282 H 1667.86 1.93777 -0.681149 0
M  V30 17283 H 1666.09 3.68033 1.18695 0
M  V30 17284 H 1667.78 3.96295 0.877786 0
M  V30 17285 H 1668.55 4.60528 -1.52114 0
M  V30 17286 H 1664.42 4.60056 -0.294936 0
M  V30 17287 H 1667.97 6.08478 -3.41174 0
M  V30 17288 H 1663.87 6.07678 -2.17711 0
M  V30 17289 H 1664.63 7.17507 -3.93861 0
M  V30 17290 N 1667.3 0.221601 1.56034 0
M  V30 17291 C 1668.71 -0.133783 1.59038 0
M  V30 17292 C 1668.91 -1.58952 1.23841 0
M  V30 17293 O 1667.97 -2.32972 0.973677 0
M  V30 17294 C 1669.28 0.192549 3.00083 0
M  V30 17295 C 1670.83 0.134791 3.1271 0
M  V30 17296 C 1671.3 0.434799 4.55931 0
M  V30 17297 N 1672.8 0.384372 4.61602 0
M  V30 17298 C 1673.53 0.59 5.70357 0
M  V30 17299 N 1673.03 0.857405 6.87474 0
M  V30 17300 N 1674.82 0.522433 5.59667 0
M  V30 17301 H 1666.97 1.17124 1.77189 0
M  V30 17302 H 1669.23 0.46946 0.823597 0
M  V30 17303 H 1668.94 1.20292 3.30488 0
M  V30 17304 H 1668.81 -0.49243 3.73972 0
M  V30 17305 H 1671.2 -0.866221 2.821 0
M  V30 17306 H 1671.28 0.853247 2.4115 0
M  V30 17307 H 1670.93 1.43325 4.87258 0
M  V30 17308 H 1670.86 -0.304849 5.25717 0
M  V30 17309 H 1673.35 0.185389 3.77445 0
M  V30 17310 H 1673.66 1.00241 7.66271 0
M  V30 17311 H 1672 0.894599 6.89218 0
M  V30 17312 H 1675.2 0.313754 4.67047 0
M  V30 17313 H 1675.37 0.686094 6.44358 0
M  V30 17314 N 1668.77 -1.57515 -0.0517878 0
M  V30 17315 C 1669.68 -2.08427 -1.07681 0
M  V30 17316 C 1670.7 -1.01797 -1.41115 0
M  V30 17317 O 1671.88 -1.33394 -1.50891 0
M  V30 17318 C 1668.94 -2.53472 -2.36544 0
M  V30 17319 C 1668 -3.74488 -2.09899 0
M  V30 17320 C 1667.24 -4.17374 -3.32618 0
M  V30 17321 O 1667.46 -3.59962 -4.42475 0
M  V30 17322 O 1666.39 -5.10006 -3.19653 0
M  V30 17323 H 1670.22 -2.96122 -0.674217 0
M  V30 17324 H 1667.8 -1.4699 -0.267274 0
M  V30 17325 H 1669.69 -2.82876 -3.12345 0
M  V30 17326 H 1668.36 -1.68899 -2.76143 0
M  V30 17327 H 1667.27 -3.50137 -1.31739 0
M  V30 17328 H 1668.6 -4.59975 -1.75169 0
M  V30 17329 N 1670.25 0.323614 -1.54242 0
M  V30 17330 C 1671.22 1.38126 -1.82904 0
M  V30 17331 C 1672.22 1.44723 -0.700853 0
M  V30 17332 O 1673.41 1.44751 -0.969161 0
M  V30 17333 C 1670.54 2.76858 -1.98903 0
M  V30 17334 H 1671.73 1.13966 -2.77402 0
M  V30 17335 H 1669.28 0.559094 -1.45958 0
M  V30 17336 H 1670.02 3.06274 -1.06616 0
M  V30 17337 H 1669.8 2.73464 -2.80998 0
M  V30 17338 H 1671.29 3.53372 -2.22526 0
M  V30 17339 N 1671.73 1.46313 0.585673 0
M  V30 17340 C 1672.97 1.53027 1.35507 0
M  V30 17341 C 1673.34 0.176473 1.91187 0
M  V30 17342 O 1674.54 0.118349 2.68539 0
M  V30 17343 C 1672.81 2.59609 2.45638 0
M  V30 17344 S 1674.37 2.85706 3.33043 0
M  V30 17345 H 1671.18 0.540697 0.461701 0
M  V30 17346 H 1673.79 1.8353 0.673585 0
M  V30 17347 H 1672.49 3.5661 2.03119 0
M  V30 17348 H 1672.02 2.30829 3.18562 0
M  V30 17349 H 1674.04 2.20751 4.44391 0
M  V30 17350 N 1673.21 -0.830057 1.33969 0
M  V30 17351 C 1674.14 -1.94785 1.20795 0
M  V30 17352 C 1675.15 -1.62225 0.136752 0
M  V30 17353 O 1676.34 -1.74233 0.38797 0
M  V30 17354 C 1673.44 -3.28523 0.832209 0
M  V30 17355 C 1672.62 -3.89157 1.99689 0
M  V30 17356 C 1671.68 -5.01262 1.6007 0
M  V30 17357 O 1670.7 -5.19939 2.31629 0
M  V30 17358 N 1671.9 -5.78249 0.510754 0
M  V30 17359 H 1674.67 -2.06621 2.17089 0
M  V30 17360 H 1672.23 -1.00626 1.26831 0
M  V30 17361 H 1674.22 -4.00958 0.549094 0
M  V30 17362 H 1672.79 -3.12574 -0.0403271 0
M  V30 17363 H 1672.01 -3.09203 2.44514 0
M  V30 17364 H 1673.3 -4.26399 2.77599 0
M  V30 17365 H 1672.7 -5.65637 -0.0842912 0
M  V30 17366 H 1671.25 -6.51166 0.287345 0
M  V30 17367 N 1674.69 -1.17582 -1.04939 0
M  V30 17368 C 1675.6 -0.909588 -2.16249 0
M  V30 17369 C 1676.61 0.123166 -1.73564 0
M  V30 17370 O 1677.79 -0.0566976 -2.0132 0
M  V30 17371 C 1674.85 -0.429342 -3.44031 0
M  V30 17372 C 1673.92 -1.529 -4.01149 0
M  V30 17373 C 1673.15 -1.07157 -5.22832 0
M  V30 17374 O 1673.37 0.0732634 -5.70353 0
M  V30 17375 O 1672.31 -1.86567 -5.72255 0
M  V30 17376 H 1676.13 -1.84074 -2.41558 0
M  V30 17377 H 1673.72 -0.956914 -1.14732 0
M  V30 17378 H 1675.6 -0.16917 -4.2106 0
M  V30 17379 H 1674.27 0.473629 -3.20216 0
M  V30 17380 H 1673.18 -1.84308 -3.25548 0
M  V30 17381 H 1674.51 -2.40777 -4.29287 0
M  V30 17382 N 1676.17 1.23705 -0.976463 0
M  V30 17383 C 1677.41 1.91635 -0.641897 0
M  V30 17384 C 1677.73 1.7661 0.826678 0
M  V30 17385 O 1677 1.14304 1.59096 0
M  V30 17386 H 1675.58 0.709264 -0.234422 0
M  V30 17387 H 1678.25 1.50414 -1.23943 0
M  V30 17388 H 1677.34 2.99138 -0.890099 0
M  V30 17389 N 1677.64 0.747635 1.38738 0
M  V30 17390 C 1678.55 0.117879 2.34304 0
M  V30 17391 C 1679.57 -0.707488 1.58967 0
M  V30 17392 O 1680.75 -0.633025 1.91193 0
M  V30 17393 C 1677.81 -0.769223 3.38059 0
M  V30 17394 C 1676.87 0.0698358 4.29243 0
M  V30 17395 C 1676.1 -0.775021 5.28043 0
M  V30 17396 O 1676.33 -2.01328 5.33688 0
M  V30 17397 O 1675.26 -0.196978 6.01578 0
M  V30 17398 H 1679.09 0.906972 2.89841 0
M  V30 17399 H 1676.67 0.508453 1.40482 0
M  V30 17400 H 1678.55 -1.27641 4.01604 0
M  V30 17401 H 1677.23 -1.53691 2.84887 0
M  V30 17402 H 1676.14 0.622836 3.68879 0
M  V30 17403 H 1677.47 0.80004 4.85654 0
M  V30 17404 N 1679.12 -1.49583 0.496242 0
M  V30 17405 C 1680.05 -2.26936 -0.321366 0
M  V30 17406 C 1681.07 -1.33282 -0.934863 0
M  V30 17407 O 1682.26 -1.58602 -0.819008 0
M  V30 17408 C 1679.36 -3.05503 -1.467 0
M  V30 17409 C 1678.53 -4.26697 -0.961687 0
M  V30 17410 C 1677.59 -4.8735 -1.98436 0
M  V30 17411 O 1676.61 -5.47553 -1.55482 0
M  V30 17412 N 1677.82 -4.76577 -3.31443 0
M  V30 17413 H 1680.58 -2.97744 0.341884 0
M  V30 17414 H 1678.14 -1.58532 0.328504 0
M  V30 17415 H 1680.13 -3.42954 -2.1486 0
M  V30 17416 H 1678.7 -2.37334 -2.03449 0
M  V30 17417 H 1677.92 -3.9406 -0.105143 0
M  V30 17418 H 1679.21 -5.05221 -0.602405 0
M  V30 17419 H 1678.61 -4.28756 -3.69032 0
M  V30 17420 H 1677.17 -5.18226 -3.95329 0
M  V30 17421 N 1680.6 -0.229873 -1.55915 0
M  V30 17422 C 1681.56 0.663347 -2.19391 0
M  V30 17423 C 1682.56 1.11548 -1.15818 0
M  V30 17424 O 1683.75 1.02294 -1.41002 0
M  V30 17425 C 1680.88 1.9097 -2.82389 0
M  V30 17426 H 1682.08 0.109797 -2.99699 0
M  V30 17427 H 1679.63 0.0197234 -1.56288 0
M  V30 17428 H 1680.37 2.50491 -2.05973 0
M  V30 17429 H 1680.15 1.59388 -3.58243 0
M  V30 17430 H 1681.64 2.5459 -3.31019 0
M  V30 17431 N 1682.08 1.5754 0.0434337 0
M  V30 17432 C 1683.33 1.88235 0.735652 0
M  V30 17433 C 1683.65 0.825698 1.76656 0
M  V30 17434 O 1682.92 -0.142424 1.95382 0
M  V30 17435 H 1681.5 0.694661 0.274692 0
M  V30 17436 H 1684.16 1.94896 0.0127911 0
M  V30 17437 H 1683.25 2.86659 1.23421 0
M  V30 17438 N 1683.56 -0.31543 1.54411 0
M  V30 17439 C 1684.52 -1.37154 1.83634 0
M  V30 17440 C 1685.52 -1.44349 0.708518 0
M  V30 17441 O 1686.71 -1.44235 0.976824 0
M  V30 17442 C 1683.84 -2.758 2.00368 0
M  V30 17443 H 1685.03 -1.12493 2.78002 0
M  V30 17444 H 1682.59 -0.551346 1.46253 0
M  V30 17445 H 1683.32 -3.05704 1.08238 0
M  V30 17446 H 1683.11 -2.7197 2.82445 0
M  V30 17447 H 1684.6 -3.52187 2.24397 0
M  V30 17448 N 1685.03 -1.46622 -0.577906 0
M  V30 17449 C 1686.45 -1.46287 -1.16004 0
M  V30 17450 C 1686.8 -0.206307 -1.95112 0
M  V30 17451 O 1685.92 0.690275 -2.05096 0
M  V30 17452 C 1686.52 -2.65042 -2.1104 0
M  V30 17453 C 1685.08 -2.67733 -2.64567 0
M  V30 17454 C 1684.22 -2.39053 -1.40531 0
M  V30 17455 H 1687.17 -1.54432 -0.365585 0
M  V30 17456 H 1687.19 -2.40834 -2.94583 0
M  V30 17457 H 1686.71 -3.56481 -1.53436 0
M  V30 17458 H 1684.81 -1.80379 -3.26028 0
M  V30 17459 H 1684.92 -3.67836 -3.06974 0
M  V30 17460 H 1683.28 -1.89209 -1.70506 0
M  V30 17461 H 1684.07 -3.32674 -0.847509 0
M  V30 17462 N 1686.51 0.822941 -1.34408 0
M  V30 17463 C 1687.48 1.91541 -1.25876 0
M  V30 17464 C 1688.48 1.59856 -0.17397 0
M  V30 17465 O 1689.67 1.68896 -0.426592 0
M  V30 17466 C 1686.8 3.27586 -0.943415 0
M  V30 17467 H 1687.99 2.00529 -2.22998 0
M  V30 17468 H 1685.54 1.01691 -1.18695 0
M  V30 17469 H 1686.28 3.24291 0.0246389 0
M  V30 17470 H 1686.06 3.51966 -1.72807 0
M  V30 17471 H 1687.55 4.07589 -0.908891 0
M  V30 17472 N 1687.99 1.18137 1.04314 0
M  V30 17473 C 1689.24 0.98666 1.77867 0
M  V30 17474 C 1689.59 -0.478878 1.86345 0
M  V30 17475 O 1688.88 -1.35094 1.35868 0
M  V30 17476 C 1689.08 1.57211 3.20966 0
M  V30 17477 C 1688.91 3.09305 3.26436 0
M  V30 17478 C 1687.68 3.78104 3.3521 0
M  V30 17479 C 1689.88 4.06817 3.1465 0
M  V30 17480 N 1687.86 5.17723 3.29903 0
M  V30 17481 C 1689.23 5.32943 3.16815 0
M  V30 17482 C 1691.28 3.98369 2.98675 0
M  V30 17483 C 1689.99 6.51601 3.04645 0
M  V30 17484 C 1692.01 5.1662 2.8785 0
M  V30 17485 C 1691.37 6.41638 2.90655 0
M  V30 17486 H 1687.47 0.415029 0.662778 0
M  V30 17487 H 1690.06 1.49871 1.24284 0
M  V30 17488 H 1688.23 1.08627 3.729 0
M  V30 17489 H 1689.96 1.31316 3.82803 0
M  V30 17490 H 1686.72 3.28825 3.40839 0
M  V30 17491 H 1687.14 5.90736 3.30695 0
M  V30 17492 H 1691.78 3.02549 2.95337 0
M  V30 17493 H 1689.5 7.47622 3.06735 0
M  V30 17494 H 1693.09 5.11872 2.76546 0
M  V30 17495 H 1691.97 7.31602 2.82363 0
M  V30 17496 N 1689.47 -1.23186 0.98301 0
M  V30 17497 C 1690.4 -2.24044 0.483426 0
M  V30 17498 C 1691.41 -1.57392 -0.416143 0
M  V30 17499 O 1692.6 -1.77141 -0.219861 0
M  V30 17500 C 1689.7 -3.37388 -0.319733 0
M  V30 17501 C 1688.88 -4.33623 0.57359 0
M  V30 17502 C 1687.93 -5.25905 -0.176165 0
M  V30 17503 O 1686.96 -5.67535 0.435099 0
M  V30 17504 N 1688.16 -5.61804 -1.46139 0
M  V30 17505 H 1690.93 -2.67539 1.35066 0
M  V30 17506 H 1688.49 -1.37384 0.856579 0
M  V30 17507 H 1690.48 -3.96103 -0.829719 0
M  V30 17508 H 1689.05 -2.93056 -1.08799 0
M  V30 17509 H 1688.27 -3.73373 1.26437 0
M  V30 17510 H 1689.56 -4.94873 1.18231 0
M  V30 17511 H 1688.96 -5.29936 -1.97949 0
M  V30 17512 H 1687.51 -6.22979 -1.91676 0
M  V30 17513 N 1690.95 -0.754982 -1.38339 0
M  V30 17514 C 1691.9 -0.103867 -2.27763 0
M  V30 17515 C 1692.88 0.691777 -1.4527 0
M  V30 17516 O 1694.07 0.557503 -1.67991 0
M  V30 17517 C 1691.2 0.787421 -3.34148 0
M  V30 17518 C 1690.29 -0.0151461 -4.24097 0
M  V30 17519 N 1690.68 -1.05227 -4.94733 0
M  V30 17520 C 1688.98 0.211452 -4.45498 0
M  V30 17521 C 1689.68 -1.53796 -5.61001 0
M  V30 17522 N 1688.65 -0.853018 -5.36866 0
M  V30 17523 H 1692.46 -0.898166 -2.7984 0
M  V30 17524 H 1689.97 -0.591155 -1.51258 0
M  V30 17525 H 1691.97 1.26952 -3.971 0
M  V30 17526 H 1690.63 1.58066 -2.83629 0
M  V30 17527 H 1691.64 -1.43409 -4.97649 0
M  V30 17528 H 1688.31 0.977919 -4.05885 0
M  V30 17529 H 1689.7 -2.40193 -6.27501 0
M  V30 17530 N 1692.42 1.49318 -0.504168 0
M  V30 17531 C 1693.84 1.58793 -0.160331 0
M  V30 17532 C 1694.04 1.50906 1.33527 0
M  V30 17533 O 1693.1 1.38466 2.11148 0
M  V30 17534 C 1694.41 2.91454 -0.739945 0
M  V30 17535 C 1695.96 3.04926 -0.706338 0
M  V30 17536 C 1696.43 4.4021 -1.26407 0
M  V30 17537 N 1697.92 4.46711 -1.22491 0
M  V30 17538 C 1698.66 5.49844 -1.62661 0
M  V30 17539 N 1698.15 6.60066 -2.10439 0
M  V30 17540 N 1699.95 5.40576 -1.54058 0
M  V30 17541 H 1692.1 1.52687 -1.4765 0
M  V30 17542 H 1694.36 0.723463 -0.612622 0
M  V30 17543 H 1694.07 3.02802 -1.78896 0
M  V30 17544 H 1693.94 3.76658 -0.202187 0
M  V30 17545 H 1696.33 2.93206 0.333845 0
M  V30 17546 H 1696.41 2.21398 -1.28128 0
M  V30 17547 H 1696.05 4.52683 -2.30305 0
M  V30 17548 H 1695.98 5.22384 -0.665041 0
M  V30 17549 H 1698.47 3.67634 -0.874869 0
M  V30 17550 H 1698.79 7.34865 -2.39153 0
M  V30 17551 H 1697.13 6.61098 -2.14415 0
M  V30 17552 H 1700.32 4.53359 -1.16548 0
M  V30 17553 H 1700.5 6.20826 -1.85687 0
M  V30 17554 N 1693.9 0.238138 1.5579 0
M  V30 17555 C 1694.83 -0.697701 2.18323 0
M  V30 17556 C 1695.85 -1.1453 1.15701 0
M  V30 17557 O 1697.04 -1.07359 1.42605 0
M  V30 17558 C 1694.14 -1.95895 2.76547 0
M  V30 17559 C 1693.31 -1.66422 4.04503 0
M  V30 17560 C 1692.37 -2.77419 4.4713 0
M  V30 17561 O 1691.39 -2.45179 5.13689 0
M  V30 17562 N 1692.6 -4.06731 4.14187 0
M  V30 17563 H 1695.36 -0.162705 2.99258 0
M  V30 17564 H 1692.92 0.0577602 1.61797 0
M  V30 17565 H 1694.91 -2.69374 3.02026 0
M  V30 17566 H 1693.48 -2.40398 1.99819 0
M  V30 17567 H 1692.7 -0.76505 3.86705 0
M  V30 17568 H 1693.99 -1.44183 4.87943 0
M  V30 17569 H 1693.39 -4.3576 3.60735 0
M  V30 17570 H 1691.95 -4.76701 4.44521 0
M  V30 17571 N 1695.38 -1.57561 -0.0350783 0
M  V30 17572 C 1696.33 -2.02627 -1.04528 0
M  V30 17573 C 1697.31 -0.914525 -1.32383 0
M  V30 17574 O 1698.51 -1.17843 -1.32068 0
M  V30 17575 C 1695.64 -2.50425 -2.34824 0
M  V30 17576 C 1694.72 -3.68408 -2.10086 0
M  V30 17577 N 1695.11 -4.8134 -1.55387 0
M  V30 17578 C 1693.41 -3.75666 -2.40398 0
M  V30 17579 C 1694.11 -5.62998 -1.46314 0
M  V30 17580 N 1693.09 -5.07933 -1.93662 0
M  V30 17581 H 1696.89 -2.87366 -0.616284 0
M  V30 17582 H 1694.4 -1.60594 -0.241499 0
M  V30 17583 H 1696.4 -2.80968 -3.07998 0
M  V30 17584 H 1695.06 -1.67089 -2.78408 0
M  V30 17585 H 1696.07 -5.029 -1.2374 0
M  V30 17586 H 1692.75 -3.03119 -2.87098 0
M  V30 17587 H 1694.14 -6.63714 -1.04564 0
M  V30 17588 N 1696.86 0.307236 -1.54576 0
M  V30 17589 C 1698.1 1.04476 -1.73818 0
M  V30 17590 C 1698.44 1.87134 -0.519102 0
M  V30 17591 O 1697.71 1.88386 0.483852 0
M  V30 17592 C 1698 1.95594 -3.02349 0
M  V30 17593 C 1697.85 1.16158 -4.34543 0
M  V30 17594 C 1699.17 2.94865 -3.26715 0
M  V30 17595 H 1696.29 0.378415 -0.632433 0
M  V30 17596 H 1698.93 0.319955 -1.87287 0
M  V30 17597 H 1697.08 2.57396 -2.90997 0
M  V30 17598 H 1698.75 0.5669 -4.57803 0
M  V30 17599 H 1696.99 0.464158 -4.3131 0
M  V30 17600 H 1697.66 1.8315 -5.2073 0
M  V30 17601 H 1700.14 2.4319 -3.37636 0
M  V30 17602 H 1699.02 3.55791 -4.17976 0
M  V30 17603 H 1699.28 3.68195 -2.44714 0
M  V30 17604 N 1698.34 1.46926 0.570122 0
M  V30 17605 C 1699.58 1.54455 1.33876 0
M  V30 17606 C 1699.94 0.196741 1.90989 0
M  V30 17607 O 1701.14 0.146824 2.68399 0
M  V30 17608 C 1699.41 2.622 2.42871 0
M  V30 17609 S 1700.97 2.89222 3.29994 0
M  V30 17610 H 1697.79 0.545564 0.45594 0
M  V30 17611 H 1700.39 1.84234 0.654081 0
M  V30 17612 H 1699.1 3.58744 1.99325 0
M  V30 17613 H 1698.63 2.34194 3.16096 0
M  V30 17614 H 1700.64 2.25452 4.42025 0
M  V30 17615 N 1699.82 -0.815801 1.34842 0
M  V30 17616 C 1700.75 -1.94193 1.29659 0
M  V30 17617 C 1701.73 -1.69221 0.172703 0
M  V30 17618 O 1702.91 -1.90716 0.366203 0
M  V30 17619 C 1700.04 -3.30777 1.0585 0
M  V30 17620 C 1699 -3.70207 2.1478 0
M  V30 17621 C 1698.32 -5.04852 1.76149 0
M  V30 17622 C 1699.62 -3.81553 3.56671 0
M  V30 17623 H 1701.32 -1.98787 2.23884 0
M  V30 17624 H 1698.86 -0.955013 1.07775 0
M  V30 17625 H 1700.81 -4.0915 1.00866 0
M  V30 17626 H 1699.54 -3.265 0.0806804 0
M  V30 17627 H 1698.2 -2.94113 2.18845 0
M  V30 17628 H 1697.85 -4.9707 0.770099 0
M  V30 17629 H 1697.55 -5.32205 2.49062 0
M  V30 17630 H 1699.07 -5.85676 1.72674 0
M  V30 17631 H 1700.48 -4.50181 3.54979 0
M  V30 17632 H 1698.88 -4.20367 4.28266 0
M  V30 17633 H 1699.95 -2.83356 3.93494 0
M  V30 17634 N 1701.29 -1.18689 -1.03686 0
M  V30 17635 C 1702.24 -0.885273 -2.10112 0
M  V30 17636 C 1703.23 0.146598 -1.60231 0
M  V30 17637 O 1704.42 -0.0579783 -1.76905 0
M  V30 17638 C 1701.55 -0.416977 -3.40758 0
M  V30 17639 C 1700.63 -1.48114 -3.97396 0
M  V30 17640 N 1701.03 -2.69857 -4.27798 0
M  V30 17641 C 1699.32 -1.34255 -4.25314 0
M  V30 17642 C 1700.02 -3.38349 -4.73175 0
M  V30 17643 N 1699 -2.65735 -4.74222 0
M  V30 17644 H 1702.8 -1.81067 -2.31499 0
M  V30 17645 H 1700.32 -1.07786 -1.21474 0
M  V30 17646 H 1702.31 -0.182385 -4.16501 0
M  V30 17647 H 1700.97 0.502036 -3.20795 0
M  V30 17648 H 1701.98 -3.0669 -4.17327 0
M  V30 17649 H 1698.66 -0.486374 -4.14657 0
M  V30 17650 H 1700.05 -4.42415 -5.05686 0
M  V30 17651 N 1702.77 1.22662 -0.989529 0
M  V30 17652 C 1703.73 2.22695 -0.542183 0
M  V30 17653 C 1704.73 1.56411 0.373132 0
M  V30 17654 O 1705.92 1.73412 0.165556 0
M  V30 17655 C 1703.06 3.40241 0.211841 0
M  V30 17656 H 1704.25 2.63786 -1.42678 0
M  V30 17657 H 1701.8 1.35654 -0.776377 0
M  V30 17658 H 1702.54 3.04618 1.11257 0
M  V30 17659 H 1702.32 3.89563 -0.445319 0
M  V30 17660 H 1703.81 4.14436 0.513107 0
M  V30 17661 N 1704.25 0.762308 1.37937 0
M  V30 17662 C 1705.2 0.115944 2.27705 0
M  V30 17663 C 1706.18 -0.684063 1.45634 0
M  V30 17664 O 1707.38 -0.548586 1.68284 0
M  V30 17665 C 1704.5 -0.76969 3.3456 0
M  V30 17666 C 1703.59 0.0376368 4.24083 0
M  V30 17667 N 1703.98 1.07849 4.94168 0
M  V30 17668 C 1702.28 -0.187824 4.45604 0
M  V30 17669 C 1702.98 1.56769 5.60177 0
M  V30 17670 N 1701.96 0.881477 5.36406 0
M  V30 17671 H 1705.76 0.912994 2.79359 0
M  V30 17672 H 1703.27 0.599168 1.50943 0
M  V30 17673 H 1705.27 -1.24844 3.97768 0
M  V30 17674 H 1703.93 -1.56559 2.84463 0
M  V30 17675 H 1704.94 1.46046 4.96881 0
M  V30 17676 H 1701.62 -0.95638 4.06398 0
M  V30 17677 H 1703.01 2.43517 6.26218 0
M  V30 17678 N 1705.73 -1.49049 0.51208 0
M  V30 17679 C 1706.69 -2.27838 -0.249491 0
M  V30 17680 C 1707.69 -1.34321 -0.884004 0
M  V30 17681 O 1708.88 -1.57379 -0.74682 0
M  V30 17682 C 1706.01 -3.12637 -1.35908 0
M  V30 17683 H 1707.21 -2.96625 0.442029 0
M  V30 17684 H 1704.76 -1.53996 0.267406 0
M  V30 17685 H 1705.49 -2.48441 -2.0844 0
M  V30 17686 H 1705.28 -3.81408 -0.909427 0
M  V30 17687 H 1706.77 -3.72117 -1.89523 0
M  V30 17688 N 1707.21 -0.246397 -1.55662 0
M  V30 17689 C 1708.16 0.667276 -2.18017 0
M  V30 17690 C 1709.14 1.13957 -1.1359 0
M  V30 17691 O 1710.33 1.08942 -1.39501 0
M  V30 17692 C 1707.46 1.86414 -2.88279 0
M  V30 17693 C 1706.55 1.41037 -3.99962 0
M  V30 17694 N 1706.94 0.670796 -5.01332 0
M  V30 17695 C 1705.24 1.69569 -4.12507 0
M  V30 17696 C 1705.94 0.43594 -5.80064 0
M  V30 17697 N 1704.91 1 -5.34323 0
M  V30 17698 H 1708.71 0.0940693 -2.93749 0
M  V30 17699 H 1706.23 -0.048692 -1.62327 0
M  V30 17700 H 1708.23 2.5297 -3.31379 0
M  V30 17701 H 1706.89 2.44158 -2.14049 0
M  V30 17702 H 1707.9 0.320958 -5.16905 0
M  V30 17703 H 1704.57 2.28455 -3.49449 0
M  V30 17704 H 1705.96 -0.154438 -6.71722 0
M  V30 17705 N 1708.68 1.57577 0.026722 0
M  V30 17706 C 1709.61 2.09748 1.02605 0
M  V30 17707 C 1710.59 1.00054 1.37562 0
M  V30 17708 O 1711.78 1.2759 1.46405 0
M  V30 17709 C 1708.91 2.57881 2.32626 0
M  V30 17710 C 1707.86 3.7186 2.11905 0
M  V30 17711 C 1707.19 4.06208 3.47706 0
M  V30 17712 C 1708.49 5.00198 1.50332 0
M  V30 17713 H 1710.18 2.93494 0.591753 0
M  V30 17714 H 1707.73 1.41188 0.283199 0
M  V30 17715 H 1709.68 2.93 3.02868 0
M  V30 17716 H 1708.41 1.71222 2.7812 0
M  V30 17717 H 1707.07 3.37094 1.44096 0
M  V30 17718 H 1706.71 3.16611 3.90853 0
M  V30 17719 H 1706.41 4.82982 3.34667 0
M  V30 17720 H 1707.94 4.43863 4.19306 0
M  V30 17721 H 1709.35 5.33259 2.10494 0
M  V30 17722 H 1707.75 5.81599 1.4786 0
M  V30 17723 H 1708.82 4.82623 0.469405 0
M  V30 17724 N 1710.16 -0.299034 1.54737 0
M  V30 17725 C 1711.57 -0.871897 1.6509 0
M  V30 17726 C 1711.92 -1.88013 0.560843 0
M  V30 17727 O 1711.05 -2.1428 -0.302194 0
M  V30 17728 C 1711.64 -1.5882 2.99269 0
M  V30 17729 C 1710.2 -2.10944 3.11736 0
M  V30 17730 C 1709.35 -0.942776 2.60782 0
M  V30 17731 H 1712.3 -0.0759883 1.58518 0
M  V30 17732 H 1712.32 -2.45387 2.90802 0
M  V30 17733 H 1711.83 -0.854144 3.78584 0
M  V30 17734 H 1709.93 -2.87391 2.37144 0
M  V30 17735 H 1710.05 -2.34262 4.17921 0
M  V30 17736 H 1708.41 -1.3289 2.17284 0
M  V30 17737 H 1709.19 -0.222646 3.42577 0
M  V30 17738 N 1711.64 -1.47227 -0.562322 0
M  V30 17739 C 1712.89 -1.53589 -1.31972 0
M  V30 17740 C 1713.21 -0.196019 -1.9351 0
M  V30 17741 O 1712.47 0.81056 -1.78125 0
M  V30 17742 C 1712.77 -2.59832 -2.45402 0
M  V30 17743 C 1712.43 -4.03258 -2.01728 0
M  V30 17744 C 1711.1 -4.42302 -1.89533 0
M  V30 17745 C 1713.45 -4.93272 -1.68321 0
M  V30 17746 C 1710.78 -5.69202 -1.42219 0
M  V30 17747 C 1713.13 -6.2063 -1.2248 0
M  V30 17748 C 1711.79 -6.58561 -1.08877 0
M  V30 17749 H 1711.06 -0.562022 -0.482921 0
M  V30 17750 H 1713.71 -1.80801 -0.631119 0
M  V30 17751 H 1712.01 -2.26357 -3.19796 0
M  V30 17752 H 1713.71 -2.61979 -3.03592 0
M  V30 17753 H 1710.3 -3.72406 -2.1216 0
M  V30 17754 H 1714.49 -4.6381 -1.76618 0
M  V30 17755 H 1709.74 -5.97344 -1.30347 0
M  V30 17756 H 1713.92 -6.89794 -0.956907 0
M  V30 17757 H 1711.54 -7.56783 -0.719922 0
M  V30 17758 N 1713.12 0.808639 -1.35273 0
M  V30 17759 C 1714.36 1.57901 -1.29794 0
M  V30 17760 C 1714.72 1.91582 0.126611 0
M  V30 17761 O 1715.92 2.67056 0.305745 0
M  V30 17762 C 1714.19 2.83433 -2.17716 0
M  V30 17763 S 1715.75 3.73856 -2.29732 0
M  V30 17764 H 1712.57 0.541041 -0.461298 0
M  V30 17765 H 1715.17 0.954024 -1.70642 0
M  V30 17766 H 1713.88 2.5671 -3.202 0
M  V30 17767 H 1713.41 3.50919 -1.77818 0
M  V30 17768 H 1715.42 4.73595 -1.48063 0
M  V30 17769 N 1714.6 1.19237 1.03055 0
M  V30 17770 C 1715.84 1.00547 1.7681 0
M  V30 17771 C 1716.2 -0.459087 1.86843 0
M  V30 17772 O 1715.49 -1.33645 1.37293 0
M  V30 17773 C 1715.68 1.60607 3.19281 0
M  V30 17774 C 1715.51 3.1275 3.23137 0
M  V30 17775 C 1714.28 3.81638 3.31181 0
M  V30 17776 C 1716.48 4.10131 3.10318 0
M  V30 17777 N 1714.46 5.21193 3.24393 0
M  V30 17778 C 1715.83 5.36274 3.11144 0
M  V30 17779 C 1717.89 4.01514 2.94433 0
M  V30 17780 C 1716.59 6.54796 2.97716 0
M  V30 17781 C 1718.62 5.19644 2.82354 0
M  V30 17782 C 1717.98 6.44684 2.83834 0
M  V30 17783 H 1714.08 0.422035 0.658339 0
M  V30 17784 H 1716.66 1.51181 1.22688 0
M  V30 17785 H 1714.83 1.12576 3.71727 0
M  V30 17786 H 1716.57 1.35369 3.81389 0
M  V30 17787 H 1713.32 3.32421 3.37332 0
M  V30 17788 H 1713.75 5.94211 3.24411 0
M  V30 17789 H 1718.39 3.05664 2.92112 0
M  V30 17790 H 1716.11 7.50834 2.98788 0
M  V30 17791 H 1719.69 5.14777 2.71102 0
M  V30 17792 H 1718.57 7.34555 2.74588 0
M  V30 17793 N 1716.07 -1.22136 0.99602 0
M  V30 17794 C 1717.32 -1.9059 0.672303 0
M  V30 17795 C 1717.64 -1.77903 -0.798476 0
M  V30 17796 O 1716.91 -1.1682 -1.57257 0
M  V30 17797 H 1715.49 -0.705445 0.245676 0
M  V30 17798 H 1718.16 -1.48423 1.2632 0
M  V30 17799 H 1717.25 -2.97684 0.937577 0
M  V30 17800 N 1717.55 -0.769612 -1.37531 0
M  V30 17801 C 1718.52 -0.160716 -2.28636 0
M  V30 17802 C 1719.52 0.630362 -1.47929 0
M  V30 17803 O 1720.71 0.454265 -1.68173 0
M  V30 17804 C 1717.84 0.779904 -3.31859 0
M  V30 17805 H 1719.03 -0.963794 -2.83991 0
M  V30 17806 H 1716.58 -0.537678 -1.46761 0
M  V30 17807 H 1717.32 1.60807 -2.81623 0
M  V30 17808 H 1717.1 0.21485 -3.91511 0
M  V30 17809 H 1718.59 1.20143 -3.99944 0
M  V30 17810 N 1719.03 1.48775 -0.519977 0
M  V30 17811 C 1720.28 2.02792 0.0177768 0
M  V30 17812 C 1720.61 1.3972 1.34878 0
M  V30 17813 O 1719.88 0.539438 1.8687 0
M  V30 17814 C 1720.17 3.59786 0.150355 0
M  V30 17815 C 1720.02 4.33356 -1.20511 0
M  V30 17816 C 1721.34 4.31172 0.881959 0
M  V30 17817 H 1718.46 0.736983 0.00498634 0
M  V30 17818 H 1721.1 1.77603 -0.675069 0
M  V30 17819 H 1719.25 3.81378 0.740452 0
M  V30 17820 H 1720.92 4.23209 -1.83554 0
M  V30 17821 H 1719.17 3.95167 -1.78957 0
M  V30 17822 H 1719.84 5.4162 -1.06544 0
M  V30 17823 H 1722.31 4.14349 0.381302 0
M  V30 17824 H 1721.19 5.40729 0.943601 0
M  V30 17825 H 1721.45 3.97747 1.93001 0
M  V30 17826 N 1720.51 0.254649 1.55529 0
M  V30 17827 C 1721.75 -0.369374 2.01035 0
M  V30 17828 C 1722.11 -1.54564 1.13904 0
M  V30 17829 O 1723.31 -2.23792 1.48899 0
M  V30 17830 C 1721.58 -0.761489 3.49194 0
M  V30 17831 S 1723.14 -1.37494 4.16702 0
M  V30 17832 H 1719.96 -0.115878 0.701494 0
M  V30 17833 H 1722.56 0.371696 1.91934 0
M  V30 17834 H 1721.27 0.103781 4.10269 0
M  V30 17835 H 1720.8 -1.53454 3.62237 0
M  V30 17836 H 1722.81 -2.66389 4.1863 0
M  V30 17837 N 1721.99 -1.57589 -0.0183649 0
M  V30 17838 C 1723.4 -1.7799 -0.563591 0
M  V30 17839 C 1723.75 -0.887064 -1.75002 0
M  V30 17840 O 1722.87 -0.0846843 -2.16234 0
M  V30 17841 C 1723.47 -3.2279 -1.02919 0
M  V30 17842 C 1722.03 -3.44351 -1.51986 0
M  V30 17843 C 1721.17 -2.73412 -0.462727 0
M  V30 17844 H 1724.13 -1.57333 0.207849 0
M  V30 17845 H 1724.15 -3.29892 -1.89609 0
M  V30 17846 H 1723.66 -3.87747 -0.165487 0
M  V30 17847 H 1721.76 -2.84583 -2.40506 0
M  V30 17848 H 1721.87 -4.52992 -1.55998 0
M  V30 17849 H 1720.24 -2.37496 -0.920211 0
M  V30 17850 H 1721.02 -3.41058 0.391698 0
M  V30 17851 N 1723.46 0.290824 -1.54893 0
M  V30 17852 C 1724.41 1.36087 -1.82933 0
M  V30 17853 C 1725.4 1.45492 -0.687082 0
M  V30 17854 O 1726.59 1.49473 -0.947984 0
M  V30 17855 C 1723.72 2.72421 -2.08906 0
M  V30 17856 C 1722.81 2.67197 -3.29342 0
M  V30 17857 N 1723.2 2.3159 -4.49666 0
M  V30 17858 C 1721.49 2.98286 -3.31574 0
M  V30 17859 C 1722.2 2.35917 -5.31712 0
M  V30 17860 N 1721.17 2.7368 -4.69681 0
M  V30 17861 H 1724.97 1.07537 -2.7352 0
M  V30 17862 H 1722.49 0.49943 -1.5453 0
M  V30 17863 H 1724.48 3.49587 -2.27144 0
M  V30 17864 H 1723.14 3.01874 -1.19593 0
M  V30 17865 H 1724.16 2.0387 -4.76085 0
M  V30 17866 H 1720.83 3.32567 -2.52399 0
M  V30 17867 H 1722.22 2.111 -6.37876 0
M  V30 17868 N 1724.94 1.47523 0.554506 0
M  V30 17869 C 1725.87 1.63093 1.67102 0
M  V30 17870 C 1726.85 0.480298 1.63178 0
M  V30 17871 O 1728.04 0.709956 1.80757 0
M  V30 17872 C 1725.17 1.64751 3.05736 0
M  V30 17873 C 1724.12 2.79068 3.24507 0
M  V30 17874 C 1723.45 2.65801 4.63955 0
M  V30 17875 C 1724.75 4.20631 3.09623 0
M  V30 17876 H 1726.44 2.56561 1.54328 0
M  V30 17877 H 1723.99 1.2347 0.741023 0
M  V30 17878 H 1725.94 1.74234 3.83693 0
M  V30 17879 H 1724.67 0.678453 3.19475 0
M  V30 17880 H 1723.32 2.691 2.48959 0
M  V30 17881 H 1722.97 1.66917 4.74497 0
M  V30 17882 H 1722.67 3.42494 4.77464 0
M  V30 17883 H 1724.2 2.77216 5.44044 0
M  V30 17884 H 1725.61 4.31562 3.77396 0
M  V30 17885 H 1724.01 4.98133 3.3464 0
M  V30 17886 H 1725.08 4.38809 2.06336 0
M  V30 17887 N 1726.42 -0.801453 1.357 0
M  V30 17888 C 1727.83 -1.37581 1.26208 0
M  V30 17889 C 1728.18 -1.95928 -0.103326 0
M  V30 17890 O 1727.31 -1.91676 -1.00445 0
M  V30 17891 C 1727.9 -2.50122 2.28527 0
M  V30 17892 C 1726.46 -3.03405 2.2276 0
M  V30 17893 C 1725.61 -1.76401 2.13958 0
M  V30 17894 H 1728.56 -0.60407 1.46754 0
M  V30 17895 H 1728.58 -3.28814 1.91472 0
M  V30 17896 H 1728.09 -2.07626 3.27892 0
M  V30 17897 H 1726.19 -3.50352 1.26822 0
M  V30 17898 H 1726.31 -3.61038 3.14942 0
M  V30 17899 H 1724.67 -1.98158 1.60017 0
M  V30 17900 H 1725.45 -1.3605 3.15191 0
M  V30 17901 N 1727.9 -1.19782 -1.02421 0
M  V30 17902 C 1729.31 -1.00493 -1.57347 0
M  V30 17903 C 1729.66 0.440854 -1.91183 0
M  V30 17904 O 1728.79 1.32102 -1.714 0
M  V30 17905 C 1729.38 -1.8179 -2.85898 0
M  V30 17906 C 1727.94 -1.66889 -3.3738 0
M  V30 17907 C 1727.09 -1.80199 -2.10769 0
M  V30 17908 H 1730.04 -1.34085 -0.848938 0
M  V30 17909 H 1730.06 -1.31676 -3.5699 0
M  V30 17910 H 1729.57 -2.87011 -2.6124 0
M  V30 17911 H 1727.67 -0.64274 -3.67014 0
M  V30 17912 H 1727.78 -2.47705 -4.10096 0
M  V30 17913 H 1726.15 -1.23308 -2.22862 0
M  V30 17914 H 1726.93 -2.86889 -1.88546 0
M  V30 17915 N 1729.38 1.21606 -1.00248 0
M  V30 17916 C 1730.62 1.92326 -0.692091 0
M  V30 17917 C 1730.98 1.76196 0.76282 0
M  V30 17918 O 1732.18 2.41266 1.18508 0
M  V30 17919 C 1730.45 3.40099 -1.09853 0
M  V30 17920 S 1732.01 4.29304 -0.907961 0
M  V30 17921 H 1728.83 0.664561 -0.252744 0
M  V30 17922 H 1731.43 1.47181 -1.28678 0
M  V30 17923 H 1730.14 3.49355 -2.15359 0
M  V30 17924 H 1729.67 3.9026 -0.496031 0
M  V30 17925 H 1731.68 4.95811 0.196321 0
M  V30 17926 N 1730.86 0.776895 1.37121 0
M  V30 17927 C 1731.82 0.172839 2.28547 0
M  V30 17928 C 1732.82 -0.622508 1.48262 0
M  V30 17929 O 1734.01 -0.44534 1.68411 0
M  V30 17930 C 1731.14 -0.762294 3.32268 0
M  V30 17931 H 1732.33 0.978842 2.83476 0
M  V30 17932 H 1729.89 0.545454 1.46474 0
M  V30 17933 H 1730.62 -1.59311 2.82472 0
M  V30 17934 H 1730.41 -0.194084 3.91619 0
M  V30 17935 H 1731.9 -1.1802 4.00576 0
M  V30 17936 N 1732.33 -1.48497 0.527859 0
M  V30 17937 C 1733.56 -2.07399 -0.00510725 0
M  V30 17938 C 1733.98 -1.38211 -1.2759 0
M  V30 17939 O 1733.34 -0.447373 -1.75694 0
M  V30 17940 C 1733.39 -3.59963 -0.214295 0
M  V30 17941 O 1732.49 -3.91921 -1.28342 0
M  V30 17942 H 1731.83 -0.662901 0.0381838 0
M  V30 17943 H 1734.36 -1.90936 0.735166 0
M  V30 17944 H 1734.37 -4.05646 -0.437604 0
M  V30 17945 H 1733.05 -4.09725 0.714028 0
M  V30 17946 H 1731.63 -3.58019 -1.04293 0
M  V30 17947 N 1733.81 -0.262893 -1.55392 0
M  V30 17948 C 1734.76 0.644115 -2.18712 0
M  V30 17949 C 1735.75 1.12746 -1.14792 0
M  V30 17950 O 1736.94 1.07457 -1.40649 0
M  V30 17951 C 1734.07 1.83346 -2.9024 0
M  V30 17952 C 1733.15 1.36787 -4.01435 0
M  V30 17953 N 1733.54 0.617586 -5.02015 0
M  V30 17954 C 1731.84 1.65185 -4.14283 0
M  V30 17955 C 1732.54 0.374392 -5.80494 0
M  V30 17956 N 1731.52 0.943273 -5.35353 0
M  V30 17957 H 1735.32 0.062908 -2.93833 0
M  V30 17958 H 1732.83 -0.0659062 -1.62266 0
M  V30 17959 H 1734.83 2.49441 -3.34043 0
M  V30 17960 H 1733.49 2.41874 -2.16627 0
M  V30 17961 H 1734.5 0.266115 -5.17216 0
M  V30 17962 H 1731.18 2.24736 -3.51852 0
M  V30 17963 H 1732.57 -0.225674 -6.71521 0
M  V30 17964 N 1735.29 1.57597 0.0100073 0
M  V30 17965 C 1736.54 1.89754 0.695559 0
M  V30 17966 C 1736.86 0.862983 1.74865 0
M  V30 17967 O 1736.13 -0.100949 1.9564 0
M  V30 17968 H 1734.71 0.700331 0.259895 0
M  V30 17969 H 1737.37 1.94879 -0.0285521 0
M  V30 17970 H 1736.47 2.89213 1.17313 0
M  V30 17971 N 1736.77 -0.282606 1.55045 0
M  V30 17972 C 1737.99 -1.03825 1.79542 0
M  V30 17973 C 1738.42 -1.79503 0.562165 0
M  V30 17974 O 1737.78 -1.7461 -0.487946 0
M  V30 17975 C 1737.82 -1.98007 3.01373 0
M  V30 17976 O 1736.93 -3.06621 2.75785 0
M  V30 17977 H 1736.27 -0.297333 0.593708 0
M  V30 17978 H 1738.8 -0.314434 2.02169 0
M  V30 17979 H 1738.81 -2.40138 3.29845 0
M  V30 17980 H 1737.48 -1.42335 3.90786 0
M  V30 17981 H 1736.06 -2.68874 2.58382 0
M  V30 17982 N 1738.25 -1.47815 -0.546675 0
M  V30 17983 C 1739.49 -1.56191 -1.30291 0
M  V30 17984 C 1739.85 -0.225663 -1.91072 0
M  V30 17985 O 1739.14 0.769777 -1.75457 0
M  V30 17986 C 1739.33 -2.6242 -2.42632 0
M  V30 17987 C 1739.16 -4.06245 -1.92861 0
M  V30 17988 C 1737.93 -4.73575 -1.76223 0
M  V30 17989 C 1740.13 -4.92937 -1.46689 0
M  V30 17990 N 1738.11 -6.01877 -1.20902 0
M  V30 17991 C 1739.48 -6.1135 -1.03204 0
M  V30 17992 C 1741.54 -4.79294 -1.34838 0
M  V30 17993 C 1740.24 -7.17626 -0.490449 0
M  V30 17994 C 1742.27 -5.85677 -0.820791 0
M  V30 17995 C 1741.63 -7.03286 -0.395926 0
M  V30 17996 H 1737.73 -0.626193 -0.468409 0
M  V30 17997 H 1740.31 -1.84617 -0.618441 0
M  V30 17998 H 1738.48 -2.35845 -3.08596 0
M  V30 17999 H 1740.22 -2.60578 -3.09647 0
M  V30 18000 H 1736.97 -4.29646 -1.99252 0
M  V30 18001 H 1737.39 -6.70259 -0.953 0
M  V30 18002 H 1742.04 -3.88723 -1.66295 0
M  V30 18003 H 1739.75 -8.07935 -0.163526 0
M  V30 18004 H 1743.34 -5.7717 -0.732499 0
M  V30 18005 H 1742.22 -7.842 0.00598183 0
M  V30 18006 N 1739.72 0.794246 -1.36123 0
M  V30 18007 C 1740.65 1.92105 -1.32732 0
M  V30 18008 C 1741.63 1.68925 -0.199603 0
M  V30 18009 O 1742.82 1.90109 -0.396498 0
M  V30 18010 C 1739.95 3.29051 -1.11098 0
M  V30 18011 C 1738.9 3.66743 -2.20643 0
M  V30 18012 C 1738.23 5.01986 -1.84159 0
M  V30 18013 C 1739.53 3.75831 -3.62696 0
M  V30 18014 H 1741.22 1.952 -2.27018 0
M  V30 18015 H 1738.77 0.937746 -1.09281 0
M  V30 18016 H 1740.72 4.07494 -1.07362 0
M  V30 18017 H 1739.45 3.26331 -0.132614 0
M  V30 18018 H 1738.11 2.90594 -2.23497 0
M  V30 18019 H 1737.75 4.95782 -0.849081 0
M  V30 18020 H 1737.45 5.28175 -2.57497 0
M  V30 18021 H 1738.98 5.82855 -1.8197 0
M  V30 18022 H 1740.39 4.44476 -3.62096 0
M  V30 18023 H 1738.79 4.135 -4.34899 0
M  V30 18024 H 1739.86 2.7706 -3.97952 0
M  V30 18025 N 1741.2 1.20323 1.01785 0
M  V30 18026 C 1742.43 1.03893 1.79502 0
M  V30 18027 C 1742.85 -0.407421 1.83635 0
M  V30 18028 O 1742.21 -1.29338 1.27049 0
M  V30 18029 C 1742.26 1.62562 3.21879 0
M  V30 18030 O 1741.36 0.862398 4.03282 0
M  V30 18031 H 1740.7 0.366479 0.553705 0
M  V30 18032 H 1743.23 1.59589 1.28034 0
M  V30 18033 H 1743.24 1.66244 3.72595 0
M  V30 18034 H 1741.92 2.67826 3.18186 0
M  V30 18035 H 1740.49 0.899687 3.61884 0
M  V30 18036 N 1742.68 -1.21073 1.00892 0
M  V30 18037 C 1743.93 -1.89866 0.69248 0
M  V30 18038 C 1744.25 -1.7874 -0.779562 0
M  V30 18039 O 1743.52 -1.18482 -1.56009 0
M  V30 18040 H 1742.1 -0.702799 0.253145 0
M  V30 18041 H 1744.76 -1.47075 1.27887 0
M  V30 18042 H 1743.86 -2.96673 0.969098 0
M  V30 18043 N 1744.16 -0.784156 -1.36707 0
M  V30 18044 C 1745.12 -0.184957 -2.28453 0
M  V30 18045 C 1746.12 0.614637 -1.4859 0
M  V30 18046 O 1747.31 0.436403 -1.68645 0
M  V30 18047 C 1744.44 0.744662 -3.32667 0
M  V30 18048 H 1745.64 -0.993861 -2.82953 0
M  V30 18049 H 1743.19 -0.553214 -1.46182 0
M  V30 18050 H 1743.92 1.57811 -2.83313 0
M  V30 18051 H 1743.71 0.173313 -3.91717 0
M  V30 18052 H 1745.2 1.15894 -4.01196 0
M  V30 18053 N 1745.64 1.48215 -0.535727 0
M  V30 18054 C 1746.88 2.03397 -0.01188 0
M  V30 18055 C 1747.24 1.40493 1.31451 0
M  V30 18056 O 1746.53 0.543545 1.83728 0
M  V30 18057 C 1746.72 3.57036 0.161344 0
M  V30 18058 C 1746.55 4.34834 -1.1467 0
M  V30 18059 C 1745.32 4.75553 -1.70815 0
M  V30 18060 C 1747.52 4.71297 -2.05873 0
M  V30 18061 N 1745.5 5.3791 -2.95849 0
M  V30 18062 C 1746.87 5.33733 -3.15483 0
M  V30 18063 C 1748.93 4.53228 -2.06129 0
M  V30 18064 C 1747.63 5.80008 -4.25421 0
M  V30 18065 C 1749.66 5.00488 -3.15065 0
M  V30 18066 C 1749.02 5.62953 -4.23395 0
M  V30 18067 H 1745.12 0.780647 -0.0459869 0
M  V30 18068 H 1747.7 1.80967 -0.718276 0
M  V30 18069 H 1745.87 3.79278 0.836833 0
M  V30 18070 H 1747.61 3.98855 0.685316 0
M  V30 18071 H 1744.36 4.56839 -1.24881 0
M  V30 18072 H 1744.79 5.73649 -3.59522 0
M  V30 18073 H 1749.43 4.04309 -1.23669 0
M  V30 18074 H 1747.15 6.27929 -5.08656 0
M  V30 18075 H 1750.73 4.88292 -3.16325 0
M  V30 18076 H 1749.61 5.98858 -5.06299 0
M  V30 18077 N 1747.11 0.27113 1.5525 0
M  V30 18078 C 1748.36 -0.346106 1.99114 0
M  V30 18079 C 1748.68 -1.56677 1.16092 0
M  V30 18080 O 1747.95 -1.94305 0.249472 0
M  V30 18081 H 1746.53 -0.13087 0.735447 0
M  V30 18082 H 1749.2 0.375542 1.91248 0
M  V30 18083 H 1748.29 -0.638703 3.05495 0
M  V30 18084 N 1748.59 -1.576 -0.00164943 0
M  V30 18085 C 1750 -1.78578 -0.544681 0
M  V30 18086 C 1750.35 -0.905575 -1.74051 0
M  V30 18087 O 1749.48 -0.107614 -2.16132 0
M  V30 18088 C 1750.07 -3.23863 -0.994898 0
M  V30 18089 C 1748.63 -3.45943 -1.48325 0
M  V30 18090 C 1747.78 -2.73887 -0.433702 0
M  V30 18091 H 1750.73 -1.57104 0.224524 0
M  V30 18092 H 1750.75 -3.31885 -1.86099 0
M  V30 18093 H 1750.26 -3.87901 -0.124352 0
M  V30 18094 H 1748.37 -2.87118 -2.37474 0
M  V30 18095 H 1748.48 -4.54621 -1.51185 0
M  V30 18096 H 1746.84 -2.38458 -0.894969 0
M  V30 18097 H 1747.63 -3.40623 0.42785 0
M  V30 18098 N 1750.07 0.274379 -1.55193 0
M  V30 18099 C 1751 1.34336 -1.90987 0
M  V30 18100 C 1751.98 1.51594 -0.771582 0
M  V30 18101 O 1753.17 1.6466 -1.0296 0
M  V30 18102 C 1750.3 2.70312 -2.18057 0
M  V30 18103 C 1749.25 2.67787 -3.33878 0
M  V30 18104 C 1748.58 4.07301 -3.46425 0
M  V30 18105 C 1749.88 2.27178 -4.70306 0
M  V30 18106 H 1751.57 1.04627 -2.80524 0
M  V30 18107 H 1749.12 0.501867 -1.34971 0
M  V30 18108 H 1751.07 3.45205 -2.41685 0
M  V30 18109 H 1749.79 3.01601 -1.25318 0
M  V30 18110 H 1748.45 1.95351 -3.10216 0
M  V30 18111 H 1748.1 4.3581 -2.51155 0
M  V30 18112 H 1747.8 4.06507 -4.24295 0
M  V30 18113 H 1749.32 4.83935 -3.72343 0
M  V30 18114 H 1750.74 2.91794 -4.93487 0
M  V30 18115 H 1749.14 2.37548 -5.51082 0
M  V30 18116 H 1750.21 1.22309 -4.69221 0
M  V30 18117 N 1751.55 1.48103 0.538828 0
M  V30 18118 C 1752.8 1.55362 1.29256 0
M  V30 18119 C 1753.12 0.225427 1.93693 0
M  V30 18120 O 1752.39 -0.75228 1.8088 0
M  V30 18121 H 1750.97 0.57233 0.480049 0
M  V30 18122 H 1753.63 1.84514 0.627749 0
M  V30 18123 H 1752.73 2.32998 2.07649 0
M  V30 18124 N 1753.03 -0.787016 1.36542 0
M  V30 18125 C 1753.98 -1.88956 1.27592 0
M  V30 18126 C 1754.96 -1.60032 0.166904 0
M  V30 18127 O 1756.15 -1.72423 0.399932 0
M  V30 18128 C 1753.28 -3.26204 1.06986 0
M  V30 18129 C 1752.37 -3.6113 2.22365 0
M  V30 18130 N 1752.76 -3.67346 3.47693 0
M  V30 18131 C 1751.06 -3.91205 2.14183 0
M  V30 18132 C 1751.76 -3.98581 4.23684 0
M  V30 18133 N 1750.73 -4.13688 3.52651 0
M  V30 18134 H 1754.54 -1.91992 2.22522 0
M  V30 18135 H 1752.05 -0.982664 1.29296 0
M  V30 18136 H 1754.05 -4.05058 0.986603 0
M  V30 18137 H 1752.71 -3.24441 0.129582 0
M  V30 18138 H 1753.72 -3.49931 3.81797 0
M  V30 18139 H 1750.39 -3.97354 1.28125 0
M  V30 18140 H 1751.78 -4.10294 5.32079 0
M  V30 18141 N 1754.5 -1.20861 -1.01145 0
M  V30 18142 C 1755.92 -0.964575 -1.27154 0
M  V30 18143 C 1756.12 0.352861 -1.98386 0
M  V30 18144 O 1755.18 1.08012 -2.28232 0
M  V30 18145 C 1756.49 -2.15074 -2.10151 0
M  V30 18146 C 1758.04 -2.19229 -2.234 0
M  V30 18147 C 1758.51 -3.37346 -3.09777 0
M  V30 18148 N 1760 -3.37392 -3.17365 0
M  V30 18149 C 1760.74 -4.25434 -3.84439 0
M  V30 18150 N 1760.23 -5.23664 -4.53595 0
M  V30 18151 N 1762.03 -4.13261 -3.81014 0
M  V30 18152 H 1754.18 -2.05595 -0.533346 0
M  V30 18153 H 1756.44 -0.899928 -0.298048 0
M  V30 18154 H 1756.15 -3.10511 -1.65153 0
M  V30 18155 H 1756.02 -2.13598 -3.10895 0
M  V30 18156 H 1758.41 -1.24352 -2.6762 0
M  V30 18157 H 1758.49 -2.24752 -1.22148 0
M  V30 18158 H 1758.13 -4.32513 -2.66261 0
M  V30 18159 H 1758.06 -3.29061 -4.11128 0
M  V30 18160 H 1760.55 -2.66299 -2.68129 0
M  V30 18161 H 1760.87 -5.87158 -5.02459 0
M  V30 18162 H 1759.21 -5.27595 -4.52403 0
M  V30 18163 H 1762.4 -3.35786 -3.26137 0
M  V30 18164 H 1762.58 -4.82085 -4.3301 0
M  V30 18165 N 1755.98 1.20536 -1.01532 0
M  V30 18166 C 1757.23 1.89496 -0.70254 0
M  V30 18167 C 1757.55 1.7915 0.770072 0
M  V30 18168 O 1756.82 1.19308 1.55379 0
M  V30 18169 H 1755.4 0.701447 -0.256868 0
M  V30 18170 H 1758.06 1.46394 -1.28665 0
M  V30 18171 H 1757.16 2.96155 -0.984817 0
M  V30 18172 N 1757.46 0.791395 1.36289 0
M  V30 18173 C 1758.88 0.473308 1.5242 0
M  V30 18174 C 1759.08 -1.00805 1.74473 0
M  V30 18175 O 1758.13 -1.79349 1.77737 0
M  V30 18176 C 1759.45 1.30547 2.70884 0
M  V30 18177 C 1760.99 1.29936 2.84755 0
M  V30 18178 C 1761.47 2.1153 4.06225 0
M  V30 18179 N 1762.96 2.08987 4.13375 0
M  V30 18180 C 1763.69 2.68889 5.06445 0
M  V30 18181 N 1763.19 3.37657 6.04946 0
M  V30 18182 N 1764.98 2.58612 4.99075 0
M  V30 18183 H 1757.13 1.75096 1.20229 0
M  V30 18184 H 1759.4 0.74441 0.586991 0
M  V30 18185 H 1759.1 2.35607 2.61117 0
M  V30 18186 H 1758.98 0.948139 3.65089 0
M  V30 18187 H 1761.36 0.256671 2.93982 0
M  V30 18188 H 1761.45 1.69647 1.91451 0
M  V30 18189 H 1761.09 3.15832 3.9776 0
M  V30 18190 H 1761.02 1.69189 4.98681 0
M  V30 18191 H 1763.51 1.58938 3.42851 0
M  V30 18192 H 1763.82 3.8069 6.72529 0
M  V30 18193 H 1762.17 3.4176 6.05165 0
M  V30 18194 H 1765.36 2.04487 4.21073 0
M  V30 18195 H 1765.53 3.05587 5.7142 0
M  V30 18196 N 1758.94 -1.47929 0.54358 0
M  V30 18197 C 1760.17 -2.06891 0.0189187 0
M  V30 18198 C 1760.58 -1.39822 -1.26867 0
M  V30 18199 O 1759.94 -0.490197 -1.75793 0
M  V30 18200 C 1759.99 -3.60976 -0.194595 0
M  V30 18201 O 1759.71 -4.25528 1.04199 0
M  V30 18202 C 1761.21 -4.3677 -0.758093 0
M  V30 18203 H 1758.43 -0.669827 0.0396625 0
M  V30 18204 H 1760.98 -1.90128 0.753105 0
M  V30 18205 H 1759.13 -3.77299 -0.878869 0
M  V30 18206 H 1759.55 -5.17872 0.831191 0
M  V30 18207 H 1761.02 -5.45309 -0.856846 0
M  V30 18208 H 1761.5 -4.02121 -1.76621 0
M  V30 18209 H 1762.1 -4.25158 -0.109953 0
M  V30 18210 N 1760.42 -0.27936 -1.55104 0
M  V30 18211 C 1761.35 0.599831 -2.25664 0
M  V30 18212 C 1762.33 1.15548 -1.24831 0
M  V30 18213 O 1763.51 1.18883 -1.53559 0
M  V30 18214 C 1760.64 1.78202 -2.98096 0
M  V30 18215 C 1759.6 1.35771 -4.05894 0
M  V30 18216 C 1758.92 2.62334 -4.65924 0
M  V30 18217 C 1760.22 0.504795 -5.19855 0
M  V30 18218 H 1761.92 0.0113761 -2.99398 0
M  V30 18219 H 1759.46 0.00403149 -1.43999 0
M  V30 18220 H 1761.42 2.403 -3.4617 0
M  V30 18221 H 1760.14 2.39637 -2.21905 0
M  V30 18222 H 1758.8 0.75991 -3.58638 0
M  V30 18223 H 1758.45 3.22036 -3.86396 0
M  V30 18224 H 1758.15 2.34654 -5.38713 0
M  V30 18225 H 1759.67 3.25273 -5.16749 0
M  V30 18226 H 1761.09 1.03089 -5.63955 0
M  V30 18227 H 1759.48 0.322696 -5.99232 0
M  V30 18228 H 1760.55 -0.475409 -4.82564 0
M  V30 18229 N 1761.9 1.57599 -0.0067085 0
M  V30 18230 C 1763.14 1.90481 0.675393 0
M  V30 18231 C 1763.46 0.881481 1.73939 0
M  V30 18232 O 1762.73 -0.0801928 1.95736 0
M  V30 18233 H 1761.31 0.703048 0.252452 0
M  V30 18234 H 1763.98 1.94838 -0.04922 0
M  V30 18235 H 1763.07 2.90441 1.14239 0
M  V30 18236 N 1763.37 -0.266145 1.55336 0
M  V30 18237 C 1764.3 -1.33322 1.91697 0
M  V30 18238 C 1765.28 -1.51182 0.77961 0
M  V30 18239 O 1766.47 -1.64112 1.03832 0
M  V30 18240 C 1763.6 -2.69151 2.19488 0
M  V30 18241 C 1762.55 -2.66012 3.35293 0
M  V30 18242 C 1761.88 -4.05458 3.4858 0
M  V30 18243 C 1763.18 -2.24681 4.71504 0
M  V30 18244 H 1764.87 -1.03138 2.81075 0
M  V30 18245 H 1762.42 -0.494702 1.35236 0
M  V30 18246 H 1764.37 -3.43918 2.43512 0
M  V30 18247 H 1763.1 -3.00932 1.26916 0
M  V30 18248 H 1761.76 -1.93703 3.11247 0
M  V30 18249 H 1761.4 -4.34472 2.53462 0
M  V30 18250 H 1761.1 -4.04251 4.26445 0
M  V30 18251 H 1762.63 -4.81954 3.74904 0
M  V30 18252 H 1764.04 -2.89173 4.95027 0
M  V30 18253 H 1762.44 -2.34622 5.52334 0
M  V30 18254 H 1763.51 -1.19819 4.69863 0
M  V30 18255 N 1764.85 -1.48386 -0.530967 0
M  V30 18256 C 1766.1 -1.56045 -1.28431 0
M  V30 18257 C 1766.42 -0.235695 -1.9357 0
M  V30 18258 O 1765.69 0.742677 -1.81276 0
M  V30 18259 H 1764.27 -0.574868 -0.477007 0
M  V30 18260 H 1766.93 -1.84844 -0.617955 0
M  V30 18261 H 1766.03 -2.34096 -2.0641 0
M  V30 18262 N 1766.33 0.779763 -1.36958 0
M  V30 18263 C 1767.56 1.56875 -1.34899 0
M  V30 18264 C 1767.97 1.88679 0.0675345 0
M  V30 18265 O 1767.33 1.50852 1.02712 0
M  V30 18266 C 1767.38 2.88391 -2.17975 0
M  V30 18267 O 1767.1 2.57954 -3.54107 0
M  V30 18268 C 1768.6 3.82657 -2.23805 0
M  V30 18269 H 1765.82 0.486262 -0.462374 0
M  V30 18270 H 1768.37 0.967072 -1.80189 0
M  V30 18271 H 1766.52 3.45003 -1.76215 0
M  V30 18272 H 1766.94 3.42115 -3.97564 0
M  V30 18273 H 1768.41 4.71967 -2.86272 0
M  V30 18274 H 1768.89 4.21208 -1.24421 0
M  V30 18275 H 1769.49 3.31976 -2.65843 0
M  V30 18276 N 1767.81 1.21396 1.00503 0
M  V30 18277 C 1769.06 1.02913 1.73935 0
M  V30 18278 C 1769.38 -0.438329 1.9001 0
M  V30 18279 O 1768.65 -1.31618 1.45098 0
M  V30 18280 H 1767.23 0.377813 0.644412 0
M  V30 18281 H 1769.89 1.52704 1.21109 0
M  V30 18282 H 1768.98 1.49705 2.73852 0
M  V30 18283 N 1769.29 -1.19996 1.0217 0
M  V30 18284 C 1770.52 -1.93186 0.732311 0
M  V30 18285 C 1770.92 -1.75303 -0.711724 0
M  V30 18286 O 1770.27 -1.06756 -1.49495 0
M  V30 18287 C 1770.33 -3.45466 0.994655 0
M  V30 18288 C 1769.99 -3.87114 2.42882 0
M  V30 18289 C 1770.99 -3.92459 3.40987 0
M  V30 18290 C 1768.67 -4.18958 2.77091 0
M  V30 18291 C 1770.67 -4.29067 4.7136 0
M  V30 18292 C 1768.36 -4.5524 4.07676 0
M  V30 18293 C 1769.35 -4.60267 5.04622 0
M  V30 18294 O 1769.04 -4.95713 6.32869 0
M  V30 18295 H 1768.77 -0.62069 0.267806 0
M  V30 18296 H 1771.33 -1.53287 1.3672 0
M  V30 18297 H 1769.56 -3.85514 0.30261 0
M  V30 18298 H 1771.25 -3.99887 0.696049 0
M  V30 18299 H 1772.01 -3.68016 3.15895 0
M  V30 18300 H 1767.89 -4.14233 2.02317 0
M  V30 18301 H 1771.44 -4.32905 5.47027 0
M  V30 18302 H 1767.33 -4.7914 4.32545 0
M  V30 18303 H 1768.1 -5.13687 6.37234 0
M  V30 18304 N 1770.76 -0.798611 -1.35867 0
M  V30 18305 C 1772.18 -0.481385 -1.52167 0
M  V30 18306 C 1772.38 0.99878 -1.75005 0
M  V30 18307 O 1771.44 1.78404 -1.78685 0
M  V30 18308 C 1772.75 -1.31982 -2.70188 0
M  V30 18309 C 1774.3 -1.31445 -2.84062 0
M  V30 18310 C 1774.77 -2.13682 -4.05098 0
M  V30 18311 N 1776.26 -2.11176 -4.12261 0
M  V30 18312 C 1777 -2.71571 -5.05012 0
M  V30 18313 N 1776.49 -3.40861 -6.03147 0
M  V30 18314 N 1778.29 -2.61255 -4.97697 0
M  V30 18315 H 1770.44 -1.75731 -1.19299 0
M  V30 18316 H 1772.7 -0.747512 -0.583034 0
M  V30 18317 H 1772.41 -2.36989 -2.59864 0
M  V30 18318 H 1772.28 -0.967488 -3.64581 0
M  V30 18319 H 1774.67 -0.272258 -2.93841 0
M  V30 18320 H 1774.75 -1.7066 -1.90549 0
M  V30 18321 H 1774.39 -3.17937 -3.96079 0
M  V30 18322 H 1774.32 -1.71832 -4.97776 0
M  V30 18323 H 1776.81 -1.60754 -3.42004 0
M  V30 18324 H 1777.13 -3.84251 -6.705 0
M  V30 18325 H 1775.47 -3.44964 -6.03345 0
M  V30 18326 H 1778.66 -2.06717 -4.19983 0
M  V30 18327 H 1778.84 -3.08613 -5.69791 0
M  V30 18328 N 1772.24 1.47639 -0.551417 0
M  V30 18329 C 1773.52 1.95559 0.0401983 0
M  V30 18330 C 1773.9 1.49396 1.49144 0
M  V30 18331 O 1773.25 0.730148 2.1652 0
M  V30 18332 C 1773.46 3.48859 -0.0992677 0
M  V30 18333 C 1774.8 4.24572 0.0490517 0
M  V30 18334 O 1775.83 3.5619 -0.026527 0
M  V30 18335 O 1774.69 5.46094 0.210638 0
M  V30 18336 H 1771.78 0.824251 0.0673694 0
M  V30 18337 H 1774.33 1.58065 -0.617532 0
M  V30 18338 H 1773.1 3.75245 -1.10936 0
M  V30 18339 H 1772.72 3.93102 0.596339 0
M  V30 18340 N 1773.72 0.287581 1.54954 0
M  V30 18341 C 1774.95 -0.331442 2.04735 0
M  V30 18342 C 1775.37 -1.47752 1.16409 0
M  V30 18343 O 1774.73 -1.80545 0.165297 0
M  V30 18344 C 1774.78 -0.778123 3.52105 0
M  V30 18345 O 1773.88 -1.88422 3.66839 0
M  V30 18346 H 1773.22 -0.0666173 0.66065 0
M  V30 18347 H 1775.75 0.425516 2.00126 0
M  V30 18348 H 1775.76 -1.07054 3.93705 0
M  V30 18349 H 1774.44 0.0603184 4.15856 0
M  V30 18350 H 1773.01 -1.59338 3.37144 0
M  V30 18351 N 1775.2 -1.57593 0.0150662 0
M  V30 18352 C 1776.45 -1.90836 -0.665282 0
M  V30 18353 C 1776.77 -0.890693 -1.73469 0
M  V30 18354 O 1776.04 0.0698113 -1.95776 0
M  V30 18355 H 1774.62 -0.704377 -0.24872 0
M  V30 18356 H 1777.28 -1.94809 0.0595521 0
M  V30 18357 H 1776.38 -2.91043 -1.12697 0
M  V30 18358 N 1776.68 0.257904 -1.55475 0
M  V30 18359 C 1777.92 0.985519 -1.76442 0
M  V30 18360 C 1778.25 1.86267 -0.577033 0
M  V30 18361 O 1777.52 1.91613 0.407582 0
M  V30 18362 H 1776.1 0.366872 -0.650702 0
M  V30 18363 H 1778.76 0.278498 -1.929 0
M  V30 18364 H 1777.85 1.61367 -2.67146 0
M  V30 18365 N 1778.15 1.48666 0.52309 0
M  V30 18366 C 1779.08 1.666 1.63605 0
M  V30 18367 C 1780.07 0.514803 1.62123 0
M  V30 18368 O 1781.25 0.748138 1.79211 0
M  V30 18369 C 1778.38 1.71199 3.02172 0
M  V30 18370 C 1777.33 2.85888 3.18515 0
M  V30 18371 C 1776.66 2.75582 4.58213 0
M  V30 18372 C 1777.96 4.27104 3.00631 0
M  V30 18373 H 1779.65 2.59776 1.48851 0
M  V30 18374 H 1777.2 1.25014 0.714667 0
M  V30 18375 H 1779.15 1.82333 3.79911 0
M  V30 18376 H 1777.88 0.746066 3.17964 0
M  V30 18377 H 1776.54 2.7432 2.43195 0
M  V30 18378 H 1776.18 1.76944 4.7085 0
M  V30 18379 H 1775.88 3.52545 4.70091 0
M  V30 18380 H 1777.41 2.88693 5.38041 0
M  V30 18381 H 1778.82 4.3947 3.68157 0
M  V30 18382 H 1777.22 5.05119 3.23999 0
M  V30 18383 H 1778.29 4.43087 1.96982 0
M  V30 18384 N 1779.63 -0.772489 1.37369 0
M  V30 18385 C 1780.91 -1.52029 1.23072 0
M  V30 18386 C 1781.29 -2.10365 -0.176011 0
M  V30 18387 O 1780.64 -1.95459 -1.18356 0
M  V30 18388 C 1780.85 -2.60176 2.32614 0
M  V30 18389 C 1782.2 -3.27599 2.70118 0
M  V30 18390 O 1783.22 -2.70471 2.31785 0
M  V30 18391 O 1782.08 -4.30883 3.36158 0
M  V30 18392 H 1779.17 -0.673306 0.480196 0
M  V30 18393 H 1781.72 -0.809518 1.49147 0
M  V30 18394 H 1780.49 -2.15185 3.2682 0
M  V30 18395 H 1780.11 -3.38855 2.07998 0
M  V30 18396 N 1781.11 -1.21927 -0.998575 0
M  V30 18397 C 1782.02 -1.00049 -2.12197 0
M  V30 18398 C 1783.04 0.0494414 -1.7393 0
M  V30 18399 O 1784.21 -0.142033 -2.00899 0
M  V30 18400 C 1781.28 -0.574871 -3.41901 0
M  V30 18401 C 1780.34 -1.69776 -3.94303 0
M  V30 18402 C 1779.57 -1.29236 -5.17816 0
M  V30 18403 O 1779.79 -0.168709 -5.7015 0
M  V30 18404 O 1778.73 -2.10671 -5.63827 0
M  V30 18405 H 1782.55 -1.94154 -2.33534 0
M  V30 18406 H 1780.14 -1.00472 -1.10571 0
M  V30 18407 H 1782.02 -0.347603 -4.19964 0
M  V30 18408 H 1780.7 0.337389 -3.21937 0
M  V30 18409 H 1779.6 -1.9795 -3.17438 0
M  V30 18410 H 1780.94 -2.58768 -4.18688 0
M  V30 18411 N 1782.59 1.19452 -1.02805 0
M  V30 18412 C 1783.84 1.88439 -0.719284 0
M  V30 18413 C 1784.15 1.80435 0.755143 0
M  V30 18414 O 1785.36 2.44664 1.17693 0
M  V30 18415 C 1783.81 3.38001 -1.23625 0
M  V30 18416 C 1783.42 3.54564 -2.7384 0
M  V30 18417 C 1785.16 4.1247 -1.00343 0
M  V30 18418 C 1783.07 4.98016 -3.18958 0
M  V30 18419 H 1782 0.705762 -0.265359 0
M  V30 18420 H 1784.65 1.35058 -1.24224 0
M  V30 18421 H 1783.03 3.90774 -0.641211 0
M  V30 18422 H 1784.21 3.12124 -3.38991 0
M  V30 18423 H 1782.52 2.93484 -2.95392 0
M  V30 18424 H 1785.12 5.18257 -1.31581 0
M  V30 18425 H 1785.46 4.16257 0.0597873 0
M  V30 18426 H 1786 3.65832 -1.56243 0
M  V30 18427 H 1782.74 4.9939 -4.24605 0
M  V30 18428 H 1782.26 5.41221 -2.58534 0
M  V30 18429 H 1783.93 5.66664 -3.12252 0
M  V30 18430 N 1784.07 0.805805 1.35442 0
M  V30 18431 C 1785.29 0.397179 2.03561 0
M  V30 18432 C 1785.72 -0.983665 1.6033 0
M  V30 18433 O 1785.07 -1.63683 0.779586 0
M  V30 18434 C 1785.12 0.487813 3.57285 0
M  V30 18435 O 1784.23 -0.499039 4.09369 0
M  V30 18436 H 1783.57 0.166009 0.642913 0
M  V30 18437 H 1786.1 1.09147 1.73055 0
M  V30 18438 H 1786.11 0.357334 4.06432 0
M  V30 18439 H 1784.78 1.49501 3.88101 0
M  V30 18440 H 1783.36 -0.328864 3.71447 0
M  V30 18441 N 1785.54 -1.47344 0.559239 0
M  V30 18442 C 1786.96 -1.58088 0.219155 0
M  V30 18443 C 1787.16 -1.55758 -1.27834 0
M  V30 18444 O 1786.22 -1.46207 -2.05864 0
M  V30 18445 C 1787.53 -2.88507 0.847606 0
M  V30 18446 C 1789.08 -3.02094 0.819022 0
M  V30 18447 C 1789.55 -4.35216 1.42658 0
M  V30 18448 N 1791.04 -4.41857 1.38986 0
M  V30 18449 C 1791.78 -5.43429 1.82956 0
M  V30 18450 N 1791.27 -6.51801 2.34792 0
M  V30 18451 N 1793.07 -5.34486 1.74015 0
M  V30 18452 H 1785.22 -1.47102 1.53215 0
M  V30 18453 H 1787.48 -0.700228 0.63905 0
M  V30 18454 H 1787.19 -2.95954 1.90011 0
M  V30 18455 H 1787.06 -3.75648 0.341841 0
M  V30 18456 H 1789.45 -2.94243 -0.224794 0
M  V30 18457 H 1789.53 -2.1649 1.36257 0
M  V30 18458 H 1789.17 -4.43824 2.46947 0
M  V30 18459 H 1789.1 -5.19556 0.858462 0
M  V30 18460 H 1791.59 -3.64133 1.01071 0
M  V30 18461 H 1791.91 -7.25482 2.66262 0
M  V30 18462 H 1790.25 -6.52685 2.38804 0
M  V30 18463 H 1793.44 -4.48721 1.33294 0
M  V30 18464 H 1793.62 -6.13506 2.086 0
M  V30 18465 N 1787.02 -0.295795 -1.54799 0
M  V30 18466 C 1788.27 0.315473 -2.00331 0
M  V30 18467 C 1788.6 1.53939 -1.18392 0
M  V30 18468 O 1787.88 1.92767 -0.259086 0
M  V30 18469 C 1788.16 0.677227 -3.53674 0
M  V30 18470 C 1788.01 -0.555462 -4.46357 0
M  V30 18471 C 1789.33 1.50576 -4.1354 0
M  V30 18472 H 1786.45 0.113191 -0.728256 0
M  V30 18473 H 1789.09 -0.406858 -1.85593 0
M  V30 18474 H 1787.24 1.29264 -3.66365 0
M  V30 18475 H 1788.91 -1.19397 -4.45581 0
M  V30 18476 H 1787.16 -1.18968 -4.17168 0
M  V30 18477 H 1787.83 -0.25828 -5.51395 0
M  V30 18478 H 1790.3 0.985819 -4.04253 0
M  V30 18479 H 1789.18 1.72766 -5.21002 0
M  V30 18480 H 1789.44 2.49334 -3.65082 0
M  V30 18481 N 1788.5 1.57583 -0.0234236 0
M  V30 18482 C 1789.46 2.08797 0.945325 0
M  V30 18483 C 1790.46 1.00189 1.25773 0
M  V30 18484 O 1791.65 1.2637 1.19901 0
M  V30 18485 C 1788.79 2.54906 2.26353 0
M  V30 18486 H 1789.98 2.95671 0.50187 0
M  V30 18487 H 1787.53 1.54679 0.224507 0
M  V30 18488 H 1788.27 1.71345 2.75339 0
M  V30 18489 H 1788.05 3.34247 2.04991 0
M  V30 18490 H 1789.54 2.94774 2.95801 0
M  V30 18491 N 1789.98 -0.249655 1.5561 0
M  V30 18492 C 1791.4 -0.598032 1.47972 0
M  V30 18493 C 1791.6 -1.88461 0.713067 0
M  V30 18494 O 1790.65 -2.51344 0.241314 0
M  V30 18495 C 1791.96 -0.703318 2.92359 0
M  V30 18496 C 1793.51 -0.795828 3.02714 0
M  V30 18497 C 1793.99 -0.932698 4.48402 0
M  V30 18498 N 1795.48 -0.997638 4.52329 0
M  V30 18499 C 1796.21 -1.12276 5.623 0
M  V30 18500 N 1795.71 -1.21359 6.82088 0
M  V30 18501 N 1797.5 -1.1557 5.50091 0
M  V30 18502 H 1789.65 0.594976 2.03897 0
M  V30 18503 H 1791.92 0.204956 0.925579 0
M  V30 18504 H 1791.62 0.171981 3.51279 0
M  V30 18505 H 1791.5 -1.57614 3.42692 0
M  V30 18506 H 1793.88 -1.66158 2.43876 0
M  V30 18507 H 1793.96 0.102087 2.55596 0
M  V30 18508 H 1793.61 -0.0715123 5.0785 0
M  V30 18509 H 1793.54 -1.84561 4.93198 0
M  V30 18510 H 1796.03 -0.938895 3.66051 0
M  V30 18511 H 1796.34 -1.30805 7.61649 0
M  V30 18512 H 1794.69 -1.18322 6.84854 0
M  V30 18513 H 1797.88 -1.0812 4.55442 0
M  V30 18514 H 1798.05 -1.24976 6.35834 0
M  V30 18515 N 1791.46 -1.48941 -0.515198 0
M  V30 18516 C 1792.71 -1.57398 -1.26768 0
M  V30 18517 C 1793.03 -0.256213 -1.93309 0
M  V30 18518 O 1792.3 0.723408 -1.82054 0
M  V30 18519 H 1790.88 -0.579895 -0.470883 0
M  V30 18520 H 1793.54 -1.85489 -0.598315 0
M  V30 18521 H 1792.63 -2.36272 -2.03916 0
M  V30 18522 N 1792.94 0.765193 -1.37777 0
M  V30 18523 C 1794.16 1.55436 -1.36556 0
M  V30 18524 C 1794.58 1.8874 0.0475187 0
M  V30 18525 O 1793.94 1.51933 1.01107 0
M  V30 18526 C 1793.99 2.86063 -2.21021 0
M  V30 18527 O 1793.71 2.54183 -3.56823 0
M  V30 18528 C 1795.21 3.80261 -2.27851 0
M  V30 18529 H 1792.43 0.481331 -0.467506 0
M  V30 18530 H 1794.97 0.947906 -1.81204 0
M  V30 18531 H 1793.13 3.43114 -1.79864 0
M  V30 18532 H 1793.54 3.37879 -4.01171 0
M  V30 18533 H 1795.02 4.68904 -2.91261 0
M  V30 18534 H 1795.49 4.19865 -1.28881 0
M  V30 18535 H 1796.1 3.29137 -2.69349 0
M  V30 18536 N 1794.41 1.22455 0.992094 0
M  V30 18537 C 1795.35 0.953144 2.08441 0
M  V30 18538 C 1796.36 -0.0685432 1.62656 0
M  V30 18539 O 1797.55 0.165561 1.77731 0
M  V30 18540 C 1794.65 0.412046 3.36386 0
M  V30 18541 C 1793.82 1.49114 4.11198 0
M  V30 18542 C 1792.88 0.956984 5.17425 0
M  V30 18543 O 1791.91 1.64337 5.44961 0
M  V30 18544 N 1793.11 -0.221205 5.80078 0
M  V30 18545 H 1795.87 1.89353 2.32305 0
M  V30 18546 H 1793.43 1.13155 1.15791 0
M  V30 18547 H 1795.43 0.0400033 4.0468 0
M  V30 18548 H 1794 -0.433473 3.0958 0
M  V30 18549 H 1793.22 2.03647 3.37523 0
M  V30 18550 H 1794.5 2.21716 4.57951 0
M  V30 18551 H 1793.9 -0.795642 5.60077 0
M  V30 18552 H 1792.46 -0.534625 6.49604 0
M  V30 18553 N 1795.89 -1.18905 1.03437 0
M  V30 18554 C 1797.14 -1.88354 0.732598 0
M  V30 18555 C 1797.46 -1.80353 -0.741474 0
M  V30 18556 O 1796.73 -1.21764 -1.53461 0
M  V30 18557 H 1795.31 -0.697272 0.267995 0
M  V30 18558 H 1797.97 -1.44329 1.30978 0
M  V30 18559 H 1797.07 -2.94551 1.03181 0
M  V30 18560 N 1797.37 -0.812977 -1.35013 0
M  V30 18561 C 1798.62 -0.396345 -1.98583 0
M  V30 18562 C 1798.94 1.0381 -1.6448 0
M  V30 18563 O 1798.2 1.73604 -0.903344 0
M  V30 18564 C 1798.5 -0.534083 -3.53387 0
M  V30 18565 C 1798.16 -1.93278 -4.07375 0
M  V30 18566 C 1796.83 -2.31543 -4.21831 0
M  V30 18567 C 1799.18 -2.84756 -4.36535 0
M  V30 18568 C 1796.51 -3.60641 -4.62769 0
M  V30 18569 C 1798.86 -4.13308 -4.78915 0
M  V30 18570 C 1797.52 -4.51563 -4.91576 0
M  V30 18571 H 1796.79 -0.145033 -0.726668 0
M  V30 18572 H 1799.44 -1.035 -1.61121 0
M  V30 18573 H 1797.74 0.188002 -3.91349 0
M  V30 18574 H 1799.44 -0.192396 -4.00538 0
M  V30 18575 H 1796.03 -1.62551 -3.96579 0
M  V30 18576 H 1800.22 -2.56441 -4.24914 0
M  V30 18577 H 1795.47 -3.9012 -4.70761 0
M  V30 18578 H 1799.65 -4.84287 -5.00439 0
M  V30 18579 H 1797.27 -5.51649 -5.23056 0
M  V30 18580 N 1798.85 1.47045 -0.567045 0
M  V30 18581 C 1800.26 1.86202 -0.13627 0
M  V30 18582 C 1800.61 1.47252 1.29658 0
M  V30 18583 O 1799.73 0.880121 1.97694 0
M  V30 18584 C 1800.33 3.37945 -0.240528 0
M  V30 18585 C 1798.89 3.76157 0.135272 0
M  V30 18586 C 1798.04 2.71089 -0.583628 0
M  V30 18587 H 1800.99 1.38423 -0.776196 0
M  V30 18588 H 1801.01 3.76673 0.538293 0
M  V30 18589 H 1800.52 3.66263 -1.28348 0
M  V30 18590 H 1798.62 3.53456 1.17896 0
M  V30 18591 H 1798.73 4.78547 -0.230137 0
M  V30 18592 H 1797.1 2.54687 -0.0256067 0
M  V30 18593 H 1797.88 3.02247 -1.62792 0
M  V30 18594 N 1800.33 0.304 1.5464 0
M  V30 18595 C 1801.57 -0.303793 1.99804 0
M  V30 18596 C 1801.89 -1.54179 1.19389 0
M  V30 18597 O 1801.16 -1.93732 0.290631 0
M  V30 18598 H 1799.74 -0.115241 0.738057 0
M  V30 18599 H 1802.41 0.416024 1.90408 0
M  V30 18600 H 1801.5 -0.573759 3.06781 0
M  V30 18601 N 1801.8 -1.57568 0.0317802 0
M  V30 18602 C 1803.21 -1.79693 -0.506679 0
M  V30 18603 C 1803.57 -0.94229 -1.72091 0
M  V30 18604 O 1802.69 -0.153435 -2.15855 0
M  V30 18605 C 1803.29 -3.259 -0.925978 0
M  V30 18606 C 1801.84 -3.49012 -1.40953 0
M  V30 18607 C 1800.99 -2.74746 -0.375509 0
M  V30 18608 H 1803.94 -1.56592 0.257798 0
M  V30 18609 H 1803.96 -3.35757 -1.79017 0
M  V30 18610 H 1803.48 -3.88077 -0.0420441 0
M  V30 18611 H 1801.58 -2.9209 -2.31331 0
M  V30 18612 H 1801.69 -4.57725 -1.41508 0
M  V30 18613 H 1800.05 -2.40303 -0.844187 0
M  V30 18614 H 1800.84 -3.39639 0.500005 0
M  V30 18615 N 1803.28 0.241399 -1.5574 0
M  V30 18616 C 1804.52 0.975956 -1.79595 0
M  V30 18617 C 1804.89 1.82312 -0.60218 0
M  V30 18618 O 1806.09 2.58988 -0.719614 0
M  V30 18619 C 1804.36 1.80917 -3.08227 0
M  V30 18620 S 1805.92 2.60208 -3.53323 0
M  V30 18621 H 1802.74 0.328184 -0.630727 0
M  V30 18622 H 1805.34 0.243307 -1.9398 0
M  V30 18623 H 1804.04 1.1766 -3.93172 0
M  V30 18624 H 1803.57 2.58447 -2.96595 0
M  V30 18625 H 1805.59 3.83317 -3.15091 0
M  V30 18626 N 1804.76 1.49212 0.507292 0
M  V30 18627 C 1805.99 1.6208 1.28599 0
M  V30 18628 C 1806.4 0.289745 1.86563 0
M  V30 18629 O 1805.76 -0.723987 1.67525 0
M  V30 18630 C 1805.81 2.68482 2.42074 0
M  V30 18631 O 1805.53 3.96424 1.86493 0
M  V30 18632 C 1807.03 2.91997 3.33546 0
M  V30 18633 H 1804.25 0.545831 0.390268 0
M  V30 18634 H 1806.8 1.95201 0.609652 0
M  V30 18635 H 1804.95 2.38156 3.05549 0
M  V30 18636 H 1805.37 4.54983 2.60942 0
M  V30 18637 H 1806.84 3.70195 4.09463 0
M  V30 18638 H 1807.32 2.01673 3.9016 0
M  V30 18639 H 1807.92 3.23715 2.75842 0
M  V30 18640 N 1806.24 -0.757876 1.38181 0
M  V30 18641 C 1807.48 -1.51822 1.35358 0
M  V30 18642 C 1807.84 -1.92314 -0.0574579 0
M  V30 18643 O 1807.13 -1.62246 -1.01916 0
M  V30 18644 C 1807.33 -2.78548 2.23933 0
M  V30 18645 C 1807.16 -2.50444 3.73508 0
M  V30 18646 C 1805.93 -2.43877 4.42552 0
M  V30 18647 C 1808.12 -2.17507 4.66042 0
M  V30 18648 N 1806.11 -2.08003 5.77588 0
M  V30 18649 C 1807.48 -1.91888 5.89558 0
M  V30 18650 C 1809.53 -2.0378 4.54288 0
M  V30 18651 C 1808.23 -1.53928 7.02637 0
M  V30 18652 C 1810.26 -1.67221 5.67266 0
M  V30 18653 C 1809.62 -1.42472 6.89841 0
M  V30 18654 H 1805.72 -0.555312 0.550593 0
M  V30 18655 H 1808.31 -0.882923 1.7353 0
M  V30 18656 H 1806.48 -3.39893 1.87956 0
M  V30 18657 H 1808.21 -3.44565 2.12267 0
M  V30 18658 H 1804.96 -2.60203 3.95716 0
M  V30 18659 H 1805.39 -1.92723 6.48989 0
M  V30 18660 H 1810.03 -2.21592 3.60079 0
M  V30 18661 H 1807.75 -1.34856 7.96768 0
M  V30 18662 H 1811.33 -1.57238 5.60149 0
M  V30 18663 H 1810.21 -1.14602 7.75781 0
M  V30 18664 N 1807.72 -1.22979 -0.985586 0
M  V30 18665 C 1809.13 -0.991329 -1.25079 0
M  V30 18666 C 1809.33 0.310701 -1.9909 0
M  V30 18667 O 1808.39 1.03147 -2.30471 0
M  V30 18668 C 1809.7 -2.19483 -2.05542 0
M  V30 18669 C 1811.25 -2.23918 -2.187 0
M  V30 18670 C 1811.72 -3.43841 -3.02552 0
M  V30 18671 N 1813.22 -3.44048 -3.10137 0
M  V30 18672 C 1813.95 -4.33493 -3.75328 0
M  V30 18673 N 1813.45 -5.33167 -4.42385 0
M  V30 18674 N 1815.24 -4.2125 -3.72163 0
M  V30 18675 H 1807.39 -2.0668 -0.489617 0
M  V30 18676 H 1809.65 -0.906048 -0.278892 0
M  V30 18677 H 1809.36 -3.13945 -1.5853 0
M  V30 18678 H 1809.23 -2.20144 -3.06295 0
M  V30 18679 H 1811.62 -1.3 -2.64923 0
M  V30 18680 H 1811.7 -2.27293 -1.17353 0
M  V30 18681 H 1811.35 -4.38063 -2.57027 0
M  V30 18682 H 1811.28 -3.37707 -4.04056 0
M  V30 18683 H 1813.77 -2.71927 -2.6242 0
M  V30 18684 H 1814.08 -5.97684 -4.89892 0
M  V30 18685 H 1812.42 -5.37073 -4.4111 0
M  V30 18686 H 1815.62 -3.42629 -3.18941 0
M  V30 18687 H 1815.79 -4.91162 -4.22687 0
M  V30 18688 N 1809.19 1.18355 -1.04066 0
M  V30 18689 C 1810.61 1.40349 -0.759898 0
M  V30 18690 C 1810.81 1.90709 0.650574 0
M  V30 18691 O 1809.87 2.09142 1.41477 0
M  V30 18692 C 1811.18 2.40426 -1.80599 0
M  V30 18693 C 1812.73 2.54153 -1.8269 0
M  V30 18694 C 1813.2 3.57494 -2.8629 0
M  V30 18695 N 1814.69 3.65001 -2.85181 0
M  V30 18696 C 1815.43 4.44688 -3.61995 0
M  V30 18697 N 1814.92 5.27984 -4.48559 0
M  V30 18698 N 1816.72 4.39451 -3.50484 0
M  V30 18699 H 1808.87 0.839924 -1.95087 0
M  V30 18700 H 1811.13 0.431492 -0.844108 0
M  V30 18701 H 1810.84 2.10471 -2.81771 0
M  V30 18702 H 1810.71 3.39773 -1.63812 0
M  V30 18703 H 1813.1 2.83424 -0.821889 0
M  V30 18704 H 1813.18 1.54919 -2.03553 0
M  V30 18705 H 1812.82 3.28963 -3.8697 0
M  V30 18706 H 1812.75 4.56405 -2.62682 0
M  V30 18707 H 1815.24 3.05522 -2.22407 0
M  V30 18708 H 1815.56 5.85939 -5.0388 0
M  V30 18709 H 1813.9 5.27404 -4.52626 0
M  V30 18710 H 1817.09 3.73426 -2.8226 0
M  V30 18711 H 1817.27 5.01313 -4.10596 0
M  V30 18712 N 1810.67 0.820125 1.3458 0
M  V30 18713 C 1811.92 0.403287 1.97627 0
M  V30 18714 C 1812.23 -1.0385 1.65754 0
M  V30 18715 O 1813.44 -1.55911 2.2227 0
M  V30 18716 C 1811.9 0.670161 3.53606 0
M  V30 18717 C 1811.5 2.12538 3.94375 0
M  V30 18718 C 1813.25 0.31935 4.23297 0
M  V30 18719 C 1811.16 2.3373 5.43254 0
M  V30 18720 H 1810.09 0.147062 0.739519 0
M  V30 18721 H 1812.74 1.00609 1.53461 0
M  V30 18722 H 1811.12 -0.00276896 3.96 0
M  V30 18723 H 1812.29 2.83724 3.63094 0
M  V30 18724 H 1810.61 2.43736 3.37612 0
M  V30 18725 H 1813.2 0.45555 5.32756 0
M  V30 18726 H 1813.55 -0.735875 4.09745 0
M  V30 18727 H 1814.08 0.946743 3.8637 0
M  V30 18728 H 1810.82 3.37747 5.61789 0
M  V30 18729 H 1810.34 1.67084 5.76058 0
M  V30 18730 H 1812.02 2.1595 6.09897 0
M  V30 18731 N 1812.15 -1.46743 0.574835 0
M  V30 18732 C 1813.38 -2.07311 0.0608779 0
M  V30 18733 C 1813.8 -1.422 -1.23129 0
M  V30 18734 O 1813.16 -0.503042 -1.74181 0
M  V30 18735 C 1813.21 -3.60462 -0.0996676 0
M  V30 18736 O 1812.31 -3.95806 -1.15808 0
M  V30 18737 H 1811.65 -0.661351 0.0592542 0
M  V30 18738 H 1814.18 -1.885 0.795538 0
M  V30 18739 H 1814.19 -4.06833 -0.308329 0
M  V30 18740 H 1812.87 -4.07246 0.844018 0
M  V30 18741 H 1811.44 -3.61155 -0.928504 0
M  V30 18742 N 1813.63 -0.312197 -1.54477 0
M  V30 18743 C 1814.85 0.298829 -2.05236 0
M  V30 18744 C 1815.28 1.45881 -1.18745 0
M  V30 18745 O 1814.64 1.80259 -0.193999 0
M  V30 18746 C 1814.68 0.722008 -3.53298 0
M  V30 18747 O 1813.79 1.82562 -3.6979 0
M  V30 18748 H 1813.13 0.0560985 -0.661626 0
M  V30 18749 H 1815.66 -0.4573 -1.99424 0
M  V30 18750 H 1815.67 1.00777 -3.95358 0
M  V30 18751 H 1814.34 -0.12647 -4.15708 0
M  V30 18752 H 1812.92 1.53954 -3.39636 0
M  V30 18753 N 1815.11 1.57549 -0.040136 0
M  V30 18754 C 1816.04 2.13912 0.936168 0
M  V30 18755 C 1817.02 1.05798 1.33194 0
M  V30 18756 O 1818.2 1.33685 1.40861 0
M  V30 18757 C 1815.33 2.67515 2.21479 0
M  V30 18758 C 1814.29 3.80513 1.95943 0
M  V30 18759 C 1813.61 4.20589 3.30165 0
M  V30 18760 C 1814.91 5.06124 1.28981 0
M  V30 18761 H 1816.61 2.9574 0.46674 0
M  V30 18762 H 1814.15 1.42262 0.223062 0
M  V30 18763 H 1816.11 3.05582 2.90168 0
M  V30 18764 H 1814.83 1.82864 2.70608 0
M  V30 18765 H 1813.49 3.42902 1.29669 0
M  V30 18766 H 1813.14 3.32904 3.77073 0
M  V30 18767 H 1812.84 4.96742 3.13881 0
M  V30 18768 H 1814.36 4.61248 4.00103 0
M  V30 18769 H 1815.77 5.41707 1.87687 0
M  V30 18770 H 1814.17 5.87347 1.2306 0
M  V30 18771 H 1815.24 4.84179 0.264286 0
M  V30 18772 N 1816.58 -0.233136 1.55866 0
M  V30 18773 C 1817.49 -1.31004 1.94615 0
M  V30 18774 C 1818.51 -1.51915 0.848399 0
M  V30 18775 O 1819.69 -1.6527 1.15098 0
M  V30 18776 C 1816.75 -2.64203 2.24494 0
M  V30 18777 C 1815.81 -2.51695 3.47776 0
M  V30 18778 C 1815.05 -3.78542 3.7622 0
M  V30 18779 O 1815.27 -4.81043 3.06519 0
M  V30 18780 O 1814.2 -3.76348 4.69729 0
M  V30 18781 H 1818.03 -1.01129 2.86368 0
M  V30 18782 H 1815.61 -0.435043 1.42926 0
M  V30 18783 H 1817.5 -3.42889 2.44959 0
M  V30 18784 H 1816.17 -2.93782 1.35918 0
M  V30 18785 H 1815.08 -1.71248 3.32603 0
M  V30 18786 H 1816.41 -2.27058 4.36698 0
M  V30 18787 N 1818.06 -1.49479 -0.499372 0
M  V30 18788 C 1819.29 -1.63025 -1.28209 0
M  V30 18789 C 1819.71 -0.302238 -1.85656 0
M  V30 18790 O 1819.07 0.730355 -1.65938 0
M  V30 18791 C 1819.12 -2.70287 -2.38699 0
M  V30 18792 O 1818.22 -2.29573 -3.42593 0
M  V30 18793 H 1817.56 -0.545605 -0.378432 0
M  V30 18794 H 1820.09 -1.95677 -0.597628 0
M  V30 18795 H 1820.1 -2.92505 -2.84438 0
M  V30 18796 H 1818.78 -3.66684 -1.96253 0
M  V30 18797 H 1817.36 -2.17692 -3.02761 0
M  V30 18798 N 1819.54 0.750537 -1.38581 0
M  V30 18799 C 1820.45 1.89503 -1.38296 0
M  V30 18800 C 1821.47 1.71738 -0.279678 0
M  V30 18801 O 1822.64 1.94608 -0.518607 0
M  V30 18802 C 1819.71 3.24909 -1.20976 0
M  V30 18803 C 1818.77 3.55178 -2.41136 0
M  V30 18804 C 1818 4.84124 -2.24633 0
M  V30 18805 O 1818.23 5.56722 -1.24164 0
M  V30 18806 O 1817.16 5.1394 -3.13288 0
M  V30 18807 H 1820.99 1.92698 -2.34737 0
M  V30 18808 H 1818.57 0.896233 -1.19533 0
M  V30 18809 H 1820.45 4.05858 -1.13389 0
M  V30 18810 H 1819.13 3.22519 -0.276217 0
M  V30 18811 H 1818.03 2.74378 -2.54298 0
M  V30 18812 H 1819.37 3.62332 -3.33131 0
M  V30 18813 N 1821.02 1.235 0.979051 0
M  V30 18814 C 1822.27 1.06949 1.72307 0
M  V30 18815 C 1822.6 -0.392491 1.90192 0
M  V30 18816 O 1821.87 -1.29054 1.45518 0
M  V30 18817 C 1822.16 1.79705 3.12055 0
M  V30 18818 C 1822.01 3.33583 3.01732 0
M  V30 18819 C 1823.33 1.56062 4.11501 0
M  V30 18820 H 1820.45 0.389917 0.625407 0
M  V30 18821 H 1823.09 1.52022 1.1397 0
M  V30 18822 H 1821.24 1.4139 3.61858 0
M  V30 18823 H 1822.91 3.81428 2.59443 0
M  V30 18824 H 1821.15 3.62547 2.38206 0
M  V30 18825 H 1821.83 3.79681 4.00683 0
M  V30 18826 H 1824.3 1.8937 3.70511 0
M  V30 18827 H 1823.18 2.09442 5.07371 0
M  V30 18828 H 1823.44 0.496276 4.39306 0
M  V30 18829 O 1822.54 -1.11086 1.17227 0
M  V30 18830 H 1823.23 -1.71064 0.908675 0
M  V30 END ATOM
M  V30 BEGIN BOND
M  V30 END BOND
M  V30 END CTAB
M  END
$$$$
