drugbank_target|Q00740 1-aminocyclopropane-1-carboxylate deaminase (DB01735; DB01804; DB02085; DB03053; DB04212; DB04553)
 OpenBabel12092119533D

  0  0  0     0  0            999 V3000
M  V30 BEGIN CTAB
M  V30 COUNTS 5128 5178 0 0 0
M  V30 BEGIN ATOM
M  V30 1 H -0.908 1.98254 -0.117106 0
M  V30 2 N 0 1.576 0 0
M  V30 3 C 0.933 2.03868 1.02534 0
M  V30 4 C 1.911 0.928543 1.3348 0
M  V30 5 O 3.095 1.19667 1.45644 0
M  V30 6 C 0.222 2.43627 2.35294 0
M  V30 7 C -0.732 3.65373 2.2001 0
M  V30 8 S 0.101 5.13292 1.52614 0
M  V30 9 C 1.257 5.56322 2.86805 0
M  V30 10 H 1.49 2.90518 0.631377 0
M  V30 11 H -0.977 1.52953 0.210867 0
M  V30 12 H 0.981 2.67203 3.11629 0
M  V30 13 H -0.358 1.57376 2.7183 0
M  V30 14 H -1.165 3.90944 3.18086 0
M  V30 15 H -1.563 3.418 1.51819 0
M  V30 16 H 0.729 5.58782 3.83104 0
M  V30 17 H 1.672 6.56266 2.65933 0
M  V30 18 H 2.08 4.83886 2.90714 0
M  V30 19 N 1.4781 -0.272755 1.55222 0
M  V30 20 C 2.4261 -1.35705 1.88909 0
M  V30 21 C 3.4201 -1.5112 0.765456 0
M  V30 22 O 4.6261 -1.52901 0.949802 0
M  V30 23 H 1.0011 -0.453868 0.59959 0
M  V30 24 H 2.9721 -1.04544 2.79487 0
M  V30 25 C 1.7211 -2.71049 2.17779 0
M  V30 26 H 1.0441 -2.59979 3.03728 0
M  V30 27 H 2.4841 -3.45858 2.45272 0
M  V30 28 C 0.9431 -3.22165 0.985473 0
M  V30 29 O 1.4731 -4.01096 0.220233 0
M  V30 30 N -0.3209 -2.7985 0.783108 0
M  V30 31 H -0.7739 -2.15775 1.40708 0
M  V30 32 H -0.8159 -3.14397 -0.0130392 0
M  V30 33 N 2.9562 -1.48159 -0.537278 0
M  V30 34 C 3.8862 -1.65029 -1.6519 0
M  V30 35 C 4.8672 -0.499281 -1.62607 0
M  V30 36 O 6.0522 -0.730972 -1.79918 0
M  V30 37 C 3.1822 -1.68303 -3.03795 0
M  V30 38 C 2.1362 -2.8283 -3.21234 0
M  V30 39 C 1.4622 -2.71189 -4.60826 0
M  V30 40 C 2.7622 -4.24211 -3.04701 0
M  V30 41 H 4.4562 -2.58341 -1.51328 0
M  V30 42 H 2.0022 -1.24325 -0.726585 0
M  V30 43 H 3.9552 -1.78693 -3.81637 0
M  V30 44 H 2.6792 -0.715635 -3.18663 0
M  V30 45 H 1.3382 -2.71983 -2.45807 0
M  V30 46 H 0.9862 -1.72435 -4.7252 0
M  V30 47 H 0.6862 -3.48035 -4.7344 0
M  V30 48 H 2.2102 -2.83537 -5.40777 0
M  V30 49 H 3.6242 -4.3593 -3.72341 0
M  V30 50 H 2.0212 -5.01998 -3.28813 0
M  V30 51 H 3.0912 -4.41184 -2.01209 0
M  V30 52 N 4.4343 0.785586 -1.36625 0
M  V30 53 C 5.3663 1.90711 -1.2713 0
M  V30 54 C 6.3793 1.61688 -0.189986 0
M  V30 55 O 7.5683 1.72864 -0.445014 0
M  V30 56 C 4.6683 3.25611 -0.939713 0
M  V30 57 C 3.8413 3.82385 -2.12369 0
M  V30 58 C 2.9003 4.95732 -1.76456 0
M  V30 59 O 1.9263 5.12047 -2.48589 0
M  V30 60 N 3.1283 5.76258 -0.700492 0
M  V30 61 H 5.8933 1.99376 -2.23762 0
M  V30 62 H 3.4543 0.964041 -1.30069 0
M  V30 63 H 5.4463 3.98937 -0.680554 0
M  V30 64 H 4.0163 3.12538 -0.0624074 0
M  V30 65 H 3.2363 3.01001 -2.54543 0
M  V30 66 H 4.5243 4.17047 -2.9146 0
M  V30 67 H 3.9223 5.65609 -0.101624 0
M  V30 68 H 2.4793 6.4987 -0.501165 0
M  V30 69 N 5.9124 1.20967 1.01018 0
M  V30 70 C 7.3284 0.965905 1.27053 0
M  V30 71 C 7.5284 -0.350785 1.98423 0
M  V30 72 O 6.5844 -1.07773 2.28344 0
M  V30 73 C 7.8974 2.15294 2.09926 0
M  V30 74 C 9.4454 2.19463 2.23171 0
M  V30 75 C 9.9204 3.3767 3.09424 0
M  V30 76 N 11.4114 3.37724 3.17012 0
M  V30 77 C 12.1464 4.25837 3.83993 0
M  V30 78 N 11.6424 5.24138 4.53047 0
M  V30 79 N 13.4354 4.1366 3.80581 0
M  V30 80 H 5.5864 2.0565 0.531194 0
M  V30 81 H 7.8494 0.90024 0.297106 0
M  V30 82 H 7.5554 3.10684 1.64828 0
M  V30 83 H 7.4294 2.13923 3.10672 0
M  V30 84 H 9.8164 1.24632 2.6749 0
M  V30 85 H 9.8974 2.2488 1.21912 0
M  V30 86 H 9.5414 4.32791 2.65808 0
M  V30 87 H 9.4714 3.29491 4.10784 0
M  V30 88 H 11.9624 2.6658 2.6785 0
M  V30 89 H 12.2754 5.87684 5.01844 0
M  V30 90 H 10.6204 5.28068 4.5185 0
M  V30 91 H 13.8114 3.36127 3.25785 0
M  V30 92 H 13.9844 4.82538 4.32505 0
M  V30 93 N 7.3905 -1.2043 1.01659 0
M  V30 94 C 8.6375 -1.89797 0.705917 0
M  V30 95 C 8.9655 -1.78848 -0.764439 0
M  V30 96 O 8.2205 -1.16694 -1.57102 0
M  V30 97 C 8.5195 -3.40464 1.08714 0
M  V30 98 C 8.1855 -3.71614 2.5537 0
M  V30 99 C 6.8475 -3.79826 2.95441 0
M  V30 100 C 9.1995 -3.85915 3.50313 0
M  V30 101 C 6.5275 -3.99797 4.29394 0
M  V30 102 C 8.8795 -4.07396 4.83954 0
M  V30 103 C 7.5435 -4.13837 5.23732 0
M  V30 104 H 6.8135 -0.694518 0.258313 0
M  V30 105 H 9.4605 -1.42691 1.27717 0
M  V30 106 H 7.7655 -3.89385 0.434309 0
M  V30 107 H 9.4625 -3.92433 0.824461 0
M  V30 108 H 6.0525 -3.65822 2.23321 0
M  V30 109 H 10.2365 -3.78926 3.20513 0
M  V30 110 H 5.4925 -4.03018 4.59768 0
M  V30 111 H 9.6665 -4.17404 5.57447 0
M  V30 112 H 7.2935 -4.29064 6.27541 0
M  V30 113 N 8.8686 -0.792821 -1.36206 0
M  V30 114 C 10.2796 -0.429513 -1.81692 0
M  V30 115 C 10.6306 1.04695 -1.65932 0
M  V30 116 O 9.7556 1.81256 -1.18218 0
M  V30 117 C 10.3506 -0.772831 -3.29868 0
M  V30 118 C 8.9096 -0.462307 -3.7355 0
M  V30 119 C 8.0566 -1.00569 -2.5842 0
M  V30 120 H 11.0076 -0.985672 -1.24379 0
M  V30 121 H 11.0286 -0.0651928 -3.80444 0
M  V30 122 H 10.5406 -1.84747 -3.41307 0
M  V30 123 H 8.6416 0.604158 -3.67669 0
M  V30 124 H 8.7546 -0.985299 -4.68859 0
M  V30 125 H 7.1186 -0.428734 -2.51066 0
M  V30 126 H 7.9016 -2.08616 -2.72643 0
M  V30 127 N 10.3467 1.47872 -0.545128 0
M  V30 128 C 11.7627 1.5829 -0.204032 0
M  V30 129 C 11.9627 1.54529 1.29317 0
M  V30 130 O 11.0187 1.44232 2.07252 0
M  V30 131 C 12.3317 2.89304 -0.819987 0
M  V30 132 C 13.8797 3.02864 -0.790105 0
M  V30 133 C 14.3547 4.3656 -1.38491 0
M  V30 134 N 15.8457 4.43165 -1.34755 0
M  V30 135 C 16.5807 5.45153 -1.77753 0
M  V30 136 N 16.0767 6.54016 -2.2855 0
M  V30 137 N 17.8697 5.36125 -1.68897 0
M  V30 138 H 10.0207 1.4856 -1.51802 0
M  V30 139 H 12.2837 0.706305 -0.632327 0
M  V30 140 H 11.9897 2.97757 -1.87173 0
M  V30 141 H 11.8637 3.75957 -0.305915 0
M  V30 142 H 14.2507 2.94014 0.252913 0
M  V30 143 H 14.3317 2.17782 -1.34181 0
M  V30 144 H 13.9757 4.46164 -2.42693 0
M  V30 145 H 13.9057 5.20353 -0.808754 0
M  V30 146 H 16.3967 3.65083 -0.975855 0
M  V30 147 H 16.7097 7.27994 -2.59314 0
M  V30 148 H 15.0547 6.54938 -2.32553 0
M  V30 149 H 18.2457 4.49975 -1.28998 0
M  V30 150 H 18.4187 6.15472 -2.02726 0
M  V30 151 N 11.8248 0.280983 1.55075 0
M  V30 152 C 13.0548 -0.336804 2.03836 0
M  V30 153 C 13.4628 -1.49577 1.15859 0
M  V30 154 O 12.8058 -1.82888 0.172503 0
M  V30 155 C 12.8678 -0.874616 3.48699 0
M  V30 156 C 12.5318 0.156478 4.56732 0
M  V30 157 C 13.5288 0.978032 5.10618 0
M  V30 158 C 11.2138 0.292409 5.01448 0
M  V30 159 C 13.2078 1.92165 6.07743 0
M  V30 160 C 10.8948 1.23949 5.98398 0
M  V30 161 C 11.8928 2.05261 6.51427 0
M  V30 162 O 11.5808 2.98367 7.4648 0
M  V30 163 H 11.3128 -0.0800885 0.671239 0
M  V30 164 H 13.8668 0.412589 2.01213 0
M  V30 165 H 12.0968 -1.67418 3.4858 0
M  V30 166 H 13.7858 -1.40612 3.80766 0
M  V30 167 H 14.5518 0.883782 4.7688 0
M  V30 168 H 10.4308 -0.330498 4.59814 0
M  V30 169 H 13.9748 2.55672 6.49059 0
M  V30 170 H 9.8718 1.33454 6.31554 0
M  V30 171 H 10.6398 2.93116 7.64215 0
M  V30 172 N 13.3029 -1.57598 0.00835791 0
M  V30 173 C 14.7139 -1.7892 -0.53333 0
M  V30 174 C 15.0649 -0.916609 -1.73473 0
M  V30 175 O 14.1899 -0.121336 -2.1606 0
M  V30 176 C 14.7849 -3.24488 -0.974313 0
M  V30 177 C 13.3439 -3.46878 -1.46125 0
M  V30 178 C 12.4909 -2.74157 -0.416302 0
M  V30 179 H 15.4419 -1.56958 0.234495 0
M  V30 180 H 15.4629 -3.3306 -1.83988 0
M  V30 181 H 14.9749 -3.87972 -0.099718 0
M  V30 182 H 13.0759 -2.8862 -2.35646 0
M  V30 183 H 13.1889 -4.55572 -1.48295 0
M  V30 184 H 11.5529 -2.39022 -0.87981 0
M  V30 185 H 12.3359 -3.40345 0.44947 0
M  V30 186 N 14.781 0.264519 -1.55364 0
M  V30 187 C 15.711 1.33121 -1.91836 0
M  V30 188 C 16.692 1.51101 -0.781192 0
M  V30 189 O 17.877 1.64003 -1.04003 0
M  V30 190 C 15.007 2.68921 -2.19769 0
M  V30 191 C 13.961 2.65661 -3.35571 0
M  V30 192 C 13.287 4.05093 -3.49004 0
M  V30 193 C 14.587 2.24187 -4.71739 0
M  V30 194 H 16.281 1.02844 -2.81182 0
M  V30 195 H 13.827 0.493286 -1.35287 0
M  V30 196 H 15.78 3.43663 -2.43872 0
M  V30 197 H 14.504 3.00799 -1.27231 0
M  V30 198 H 13.163 1.93377 -3.1145 0
M  V30 199 H 12.811 4.34206 -2.53917 0
M  V30 200 H 12.511 4.03804 -4.26868 0
M  V30 201 H 14.035 4.81561 -3.75408 0
M  V30 202 H 15.449 2.88654 -4.9533 0
M  V30 203 H 13.846 2.34044 -5.52579 0
M  V30 204 H 14.916 1.19327 -4.69988 0
M  V30 205 N 16.2591 1.48442 0.529413 0
M  V30 206 C 17.4871 1.60151 1.30994 0
M  V30 207 C 17.9021 0.261985 1.86973 0
M  V30 208 O 17.2591 -0.748805 1.66431 0
M  V30 209 C 17.3101 2.64854 2.46038 0
M  V30 210 O 17.0311 3.93608 1.92365 0
M  V30 211 C 18.5321 2.87007 3.37849 0
M  V30 212 H 15.7521 0.539971 0.398338 0
M  V30 213 H 18.2961 1.94273 0.638597 0
M  V30 214 H 16.4511 2.33589 3.09055 0
M  V30 215 H 16.8651 4.51055 2.67675 0
M  V30 216 H 18.3391 3.64068 4.14919 0
M  V30 217 H 18.8161 1.95852 3.93114 0
M  V30 218 H 19.4221 3.19579 2.80623 0
M  V30 219 N 17.7372 -0.778329 1.37039 0
M  V30 220 C 18.9842 -1.53665 1.31884 0
M  V30 221 C 19.3122 -1.9425 -0.0986303 0
M  V30 222 O 18.5672 -1.63832 -1.07041 0
M  V30 223 C 18.8662 -2.81845 2.19768 0
M  V30 224 C 18.5322 -2.60345 3.68146 0
M  V30 225 C 17.1942 -2.5419 4.08584 0
M  V30 226 C 19.5462 -2.40923 4.62175 0
M  V30 227 C 16.8742 -2.26594 5.41177 0
M  V30 228 C 19.2262 -2.14852 5.94997 0
M  V30 229 C 17.8902 -2.07137 6.34547 0
M  V30 230 H 17.1602 -0.562299 0.482598 0
M  V30 231 H 19.8072 -0.897069 1.69189 0
M  V30 232 H 18.1122 -3.50328 1.75436 0
M  V30 233 H 19.8092 -3.39692 2.13097 0
M  V30 234 H 16.3992 -2.65996 3.36072 0
M  V30 235 H 20.5832 -2.44673 4.31797 0
M  V30 236 H 15.8392 -2.19111 5.70789 0
M  V30 237 H 20.0132 -1.98822 6.67415 0
M  V30 238 H 17.6402 -1.85518 7.37216 0
M  V30 239 N 19.2153 -1.21501 -1.00376 0
M  V30 240 C 20.4633 -1.03095 -1.73827 0
M  V30 241 C 20.7843 0.436341 -1.90055 0
M  V30 242 O 20.0543 1.31466 -1.45236 0
M  V30 243 H 18.6343 -0.378487 -0.644016 0
M  V30 244 H 21.2963 -1.52831 -1.20949 0
M  V30 245 H 20.3923 -1.49991 -2.73695 0
M  V30 246 N 20.6934 1.19889 -1.02296 0
M  V30 247 C 22.1044 1.71124 -0.746568 0
M  V30 248 C 22.4554 1.81939 0.734335 0
M  V30 249 O 21.5804 1.48639 1.57275 0
M  V30 250 C 22.1754 3.10804 -1.34857 0
M  V30 251 C 20.7344 3.59323 -1.1209 0
M  V30 252 C 19.8814 2.3635 -1.45031 0
M  V30 253 H 22.8324 1.04813 -1.19163 0
M  V30 254 H 22.8534 3.73186 -0.742437 0
M  V30 255 H 22.3654 3.029 -2.42638 0
M  V30 256 H 20.4664 3.7255 -0.0610337 0
M  V30 257 H 20.5794 4.4378 -1.80544 0
M  V30 258 H 18.9434 2.39399 -0.869487 0
M  V30 259 H 19.7264 2.31081 -2.53883 0
M  V30 260 N 22.1715 0.800033 1.35784 0
M  V30 261 C 23.3995 0.389606 2.03199 0
M  V30 262 C 23.8145 -0.997375 1.60306 0
M  V30 263 O 23.1715 -1.64154 0.797481 0
M  V30 264 C 23.2225 0.455855 3.58614 0
M  V30 265 O 22.9435 1.78815 3.99946 0
M  V30 266 C 24.4445 0.0374032 4.43284 0
M  V30 267 H 21.6645 0.159132 0.651857 0
M  V30 268 H 24.2085 1.08183 1.73541 0
M  V30 269 H 22.3635 -0.188057 3.86943 0
M  V30 270 H 22.7775 1.74636 4.94573 0
M  V30 271 H 24.2515 0.134882 5.51835 0
M  V30 272 H 24.7285 -1.01651 4.27275 0
M  V30 273 H 25.3345 0.654215 4.20238 0
M  V30 274 N 23.6496 -1.47581 0.552962 0
M  V30 275 C 25.0606 -1.86324 0.118463 0
M  V30 276 C 25.4116 -1.46006 -1.3106 0
M  V30 277 O 24.5366 -0.861182 -1.98526 0
M  V30 278 C 25.1316 -3.3816 0.20821 0
M  V30 279 C 23.6906 -3.7601 -0.171226 0
M  V30 280 C 22.8376 -2.71634 0.557686 0
M  V30 281 H 25.7886 -1.39159 0.762928 0
M  V30 282 H 25.8096 -3.76141 -0.574278 0
M  V30 283 H 25.3216 -3.67473 1.24841 0
M  V30 284 H 23.4226 -3.52313 -1.21269 0
M  V30 285 H 23.5356 -4.78745 0.184379 0
M  V30 286 H 21.8996 -2.547 0.00125792 0
M  V30 287 H 22.6826 -3.0379 1.59896 0
M  V30 288 N 25.1277 -0.289203 -1.54924 0
M  V30 289 C 26.3767 0.324231 -1.99077 0
M  V30 290 C 26.6897 1.5591 -1.18117 0
M  V30 291 O 27.8957 2.24637 -1.52481 0
M  V30 292 C 26.3517 0.628209 -3.54375 0
M  V30 293 C 25.9597 -0.587647 -4.44129 0
M  V30 294 C 27.7037 1.20349 -4.07083 0
M  V30 295 C 25.6107 -0.257475 -5.90839 0
M  V30 296 H 24.5407 0.124924 -0.743579 0
M  V30 297 H 27.1917 -0.396063 -1.79175 0
M  V30 298 H 25.5737 1.40778 -3.70132 0
M  V30 299 H 26.7477 -1.36418 -4.40144 0
M  V30 300 H 25.0627 -1.08074 -4.0213 0
M  V30 301 H 27.6597 1.46456 -5.14252 0
M  V30 302 H 28.0027 2.14195 -3.56968 0
M  V30 303 H 28.5357 0.485889 -3.94821 0
M  V30 304 H 25.2747 -1.16419 -6.45079 0
M  V30 305 H 24.7947 0.482018 -5.9786 0
M  V30 306 H 26.4737 0.145238 -6.46837 0
M  V30 307 N 26.6058 1.57591 -0.0167156 0
M  V30 308 C 27.5378 2.06343 0.997753 0
M  V30 309 C 28.5508 0.984469 1.29661 0
M  V30 310 O 29.7398 1.26093 1.26344 0
M  V30 311 C 26.8398 2.46255 2.32834 0
M  V30 312 C 26.0128 3.77083 2.21646 0
M  V30 313 C 25.0718 4.0368 3.37534 0
M  V30 314 O 24.0978 4.7411 3.14973 0
M  V30 315 N 25.2998 3.52881 4.60929 0
M  V30 316 H 28.0648 2.93997 0.581875 0
M  V30 317 H 25.6258 1.61002 0.170316 0
M  V30 318 H 27.6178 2.61149 3.09166 0
M  V30 319 H 26.1878 1.64032 2.66106 0
M  V30 320 H 25.4078 3.72106 1.30119 0
M  V30 321 H 26.6958 4.62822 2.11361 0
M  V30 322 H 26.0938 2.95878 4.82154 0
M  V30 323 H 24.6508 3.73076 5.34469 0
M  V30 324 N 28.0839 -0.256276 1.55502 0
M  V30 325 C 29.4949 -0.826068 1.67431 0
M  V30 326 C 29.8459 -1.86396 0.612446 0
M  V30 327 O 28.9709 -2.15031 -0.243025 0
M  V30 328 C 29.5659 -1.50512 3.03532 0
M  V30 329 C 28.1249 -2.02273 3.17431 0
M  V30 330 C 27.2719 -0.870548 2.63281 0
M  V30 331 H 30.2229 -0.0322728 1.58667 0
M  V30 332 H 30.2439 -2.37279 2.97454 0
M  V30 333 H 29.7559 -0.749484 3.80794 0
M  V30 334 H 27.8569 -2.80746 2.44974 0
M  V30 335 H 27.9699 -2.22655 4.24219 0
M  V30 336 H 26.3339 -1.26851 2.20864 0
M  V30 337 H 27.1169 -0.128149 3.43061 0
M  V30 338 N 29.562 -1.4872 -0.521534 0
M  V30 339 C 30.492 -1.66771 -1.63431 0
M  V30 340 C 31.473 -0.516499 -1.62069 0
M  V30 341 O 32.658 -0.750013 -1.79132 0
M  V30 342 C 29.788 -1.71515 -3.01993 0
M  V30 343 C 28.742 -2.86222 -3.18216 0
M  V30 344 C 28.068 -2.76061 -4.57924 0
M  V30 345 C 29.368 -4.27419 -3.00184 0
M  V30 346 H 31.062 -2.59932 -1.48579 0
M  V30 347 H 28.608 -1.25089 -0.713358 0
M  V30 348 H 30.561 -1.82731 -3.7972 0
M  V30 349 H 29.285 -0.749393 -3.17886 0
M  V30 350 H 27.944 -2.74575 -2.42908 0
M  V30 351 H 27.592 -1.77437 -4.70665 0
M  V30 352 H 27.292 -3.53037 -4.69722 0
M  V30 353 H 28.816 -2.89256 -5.37739 0
M  V30 354 H 30.23 -4.39855 -3.67697 0
M  V30 355 H 28.627 -5.05458 -3.2347 0
M  V30 356 H 29.697 -4.43293 -1.96518 0
M  V30 357 N 31.0401 0.771051 -1.3745 0
M  V30 358 C 32.0031 1.86598 -1.33093 0
M  V30 359 C 33.0031 1.59076 -0.234845 0
M  V30 360 O 34.1931 1.67145 -0.490732 0
M  V30 361 C 31.3251 3.23747 -1.06773 0
M  V30 362 H 32.5181 1.91873 -2.30488 0
M  V30 363 H 30.0711 0.970876 -1.2249 0
M  V30 364 H 30.8061 3.24148 -0.099129 0
M  V30 365 H 30.5911 3.45115 -1.86112 0
M  V30 366 H 32.0811 4.03824 -1.06377 0
M  V30 367 N 32.5182 1.22032 0.997298 0
M  V30 368 C 33.9342 0.979326 1.26021 0
M  V30 369 C 34.1342 -0.32972 1.98784 0
M  V30 370 O 33.1902 -1.05345 2.29475 0
M  V30 371 C 34.5032 2.17509 2.07631 0
M  V30 372 C 36.0512 2.21817 2.2083 0
M  V30 373 C 36.5262 3.40933 3.05825 0
M  V30 374 N 38.0172 3.41067 3.13412 0
M  V30 375 C 38.7522 4.29885 3.79455 0
M  V30 376 N 38.2482 5.28914 4.47462 0
M  V30 377 N 40.0412 4.17673 3.76173 0
M  V30 378 H 32.1922 2.06202 0.509352 0
M  V30 379 H 34.4552 0.90334 0.287541 0
M  V30 380 H 34.1612 3.12415 1.61524 0
M  V30 381 H 34.0352 2.17206 3.08385 0
M  V30 382 H 36.4222 1.27462 2.66153 0
M  V30 383 H 36.5032 2.2616 1.1952 0
M  V30 384 H 36.1472 4.35586 2.61203 0
M  V30 385 H 36.0772 3.33829 4.07266 0
M  V30 386 H 38.5682 2.69406 2.65007 0
M  V30 387 H 38.8812 5.92973 4.95583 0
M  V30 388 H 37.2262 5.32831 4.46224 0
M  V30 389 H 40.4172 3.39564 3.22202 0
M  V30 390 H 40.5902 4.87098 4.27363 0
M  V30 391 N 33.9963 -1.19345 1.0293 0
M  V30 392 C 34.9263 -2.2481 0.631105 0
M  V30 393 C 35.9073 -1.66245 -0.360104 0
M  V30 394 O 37.0923 -1.92677 -0.242726 0
M  V30 395 C 34.2223 -3.47295 -0.0184607 0
M  V30 396 C 33.1763 -4.18536 0.895073 0
M  V30 397 C 32.5023 -5.34586 0.110592 0
M  V30 398 C 33.8023 -4.73287 2.209 0
M  V30 399 H 35.4963 -2.58372 1.51275 0
M  V30 400 H 33.0423 -1.24194 0.728818 0
M  V30 401 H 34.9953 -4.20268 -0.308675 0
M  V30 402 H 33.7193 -3.12933 -0.934907 0
M  V30 403 H 32.3783 -3.47446 1.16949 0
M  V30 404 H 32.0263 -4.96469 -0.807902 0
M  V30 405 H 31.7263 -5.83183 0.719087 0
M  V30 406 H 33.2503 -6.10355 -0.172871 0
M  V30 407 H 34.6643 -5.38013 1.98028 0
M  V30 408 H 33.0613 -5.32373 2.76946 0
M  V30 409 H 34.1313 -3.91331 2.86336 0
M  V30 410 N 35.4744 -0.807222 -1.35358 0
M  V30 411 C 36.6994 -0.399309 -2.0352 0
M  V30 412 C 37.1244 0.981986 -1.60433 0
M  V30 413 O 36.4824 1.63601 -0.781299 0
M  V30 414 C 36.5304 -0.491552 -3.57234 0
M  V30 415 O 35.6344 0.494754 -4.09421 0
M  V30 416 H 34.9754 -0.166682 -0.642739 0
M  V30 417 H 37.5054 -1.09328 -1.72941 0
M  V30 418 H 37.5154 -0.361588 -4.06395 0
M  V30 419 H 36.1904 -1.49907 -3.87944 0
M  V30 420 H 34.7674 0.324977 -3.71481 0
M  V30 421 N 36.9525 1.47285 -0.560781 0
M  V30 422 C 37.8995 2.30058 0.18491 0
M  V30 423 C 38.8695 1.39281 0.904986 0
M  V30 424 O 40.0545 1.68241 0.899979 0
M  V30 425 C 37.1945 3.23317 1.20666 0
M  V30 426 C 36.3075 4.29186 0.492285 0
M  V30 427 C 35.4425 5.09592 1.49964 0
M  V30 428 C 34.4815 6.07232 0.770439 0
M  V30 429 N 33.6185 6.80584 1.72479 0
M  V30 430 H 38.4585 2.93302 -0.527048 0
M  V30 431 H 35.9955 1.44568 -0.271738 0
M  V30 432 H 37.9535 3.75811 1.81168 0
M  V30 433 H 36.5835 2.61929 1.88661 0
M  V30 434 H 35.6355 3.7972 -0.227333 0
M  V30 435 H 36.9475 4.98738 -0.0787929 0
M  V30 436 H 36.1015 5.66254 2.17809 0
M  V30 437 H 34.8405 4.3995 2.10464 0
M  V30 438 H 33.8455 5.49745 0.0780846 0
M  V30 439 H 35.0705 6.78884 0.171134 0
M  V30 440 H 33.0165 6.1367 2.3183 0
M  V30 441 H 32.9335 7.46319 1.20596 0
M  V30 442 H 34.2015 7.41818 2.39428 0
M  V30 443 N 38.4306 0.297415 1.54768 0
M  V30 444 C 39.3806 -0.595275 2.20092 0
M  V30 445 C 40.3646 -1.10163 1.17273 0
M  V30 446 O 41.5566 -1.043 1.43006 0
M  V30 447 C 38.6856 -1.7684 2.94249 0
M  V30 448 C 37.7716 -1.27818 4.0438 0
M  V30 449 N 38.1626 -0.505695 5.03266 0
M  V30 450 C 36.4606 -1.55923 4.17857 0
M  V30 451 C 37.1616 -0.245094 5.81183 0
M  V30 452 N 36.1376 -0.823881 5.3732 0
M  V30 453 H 39.9396 0.00250837 2.939 0
M  V30 454 H 37.4536 0.102007 1.62079 0
M  V30 455 H 39.4506 -2.41944 3.39513 0
M  V30 456 H 38.1106 -2.36992 2.21957 0
M  V30 457 H 39.1216 -0.150928 5.1768 0
M  V30 458 H 35.7986 -2.16849 3.56767 0
M  V30 459 H 37.1886 0.375084 6.70852 0
M  V30 460 N 39.9087 -1.5758 0.0250728 0
M  V30 461 C 40.8387 -2.13007 -0.956575 0
M  V30 462 C 41.8197 -1.0452 -1.342 0
M  V30 463 O 43.0047 -1.32332 -1.42133 0
M  V30 464 C 40.1347 -2.65386 -2.24026 0
M  V30 465 C 39.0887 -3.78623 -1.99571 0
M  V30 466 C 38.4147 -4.17414 -3.3417 0
M  V30 467 C 39.7147 -5.04867 -1.33814 0
M  V30 468 H 41.4087 -2.9528 -0.494991 0
M  V30 469 H 38.9547 -1.42042 -0.236651 0
M  V30 470 H 40.9077 -3.02794 -2.93076 0
M  V30 471 H 39.6317 -1.80268 -2.72343 0
M  V30 472 H 38.2907 -3.41646 -1.32941 0
M  V30 473 H 37.9387 -3.29284 -3.80238 0
M  V30 474 H 37.6387 -4.93719 -3.18615 0
M  V30 475 H 39.1627 -4.57402 -4.04495 0
M  V30 476 H 40.5767 -5.39888 -1.92857 0
M  V30 477 H 38.9737 -5.86144 -1.28669 0
M  V30 478 H 40.0437 -4.83904 -0.310561 0
M  V30 479 N 41.3868 0.248026 -1.55636 0
M  V30 480 C 42.6348 0.974295 -1.77065 0
M  V30 481 C 42.9558 1.85897 -0.588849 0
M  V30 482 O 42.2258 1.91868 0.395407 0
M  V30 483 H 40.8058 0.362733 -0.653019 0
M  V30 484 H 43.4678 0.266244 -1.93073 0
M  V30 485 H 42.5638 1.59667 -2.68166 0
M  V30 486 N 42.8649 1.48995 0.513639 0
M  V30 487 C 44.1129 1.57531 1.26604 0
M  V30 488 C 44.4339 0.258236 1.93283 0
M  V30 489 O 43.7039 -0.721502 1.8213 0
M  V30 490 H 42.2839 0.580387 0.470276 0
M  V30 491 H 44.9459 1.85552 0.596373 0
M  V30 492 H 44.0419 2.36486 2.03669 0
M  V30 493 N 44.343 -0.763751 1.37857 0
M  V30 494 C 45.29 -1.87726 1.34267 0
M  V30 495 C 46.26 -1.64807 0.206879 0
M  V30 496 O 47.445 -1.86613 0.397508 0
M  V30 497 C 44.585 -3.24896 1.16346 0
M  V30 498 C 43.698 -3.59716 2.39225 0
M  V30 499 C 42.833 -4.86137 2.14114 0
M  V30 500 C 41.872 -5.13711 3.32817 0
M  V30 501 N 41.009 -6.31323 3.07206 0
M  V30 502 H 45.849 -1.90129 2.29466 0
M  V30 503 H 43.386 -0.929433 1.14017 0
M  V30 504 H 45.344 -4.04036 1.03975 0
M  V30 505 H 43.974 -3.21847 0.247909 0
M  V30 506 H 43.026 -2.75498 2.62307 0
M  V30 507 H 44.338 -3.76027 3.27728 0
M  V30 508 H 43.492 -5.73198 1.9882 0
M  V30 509 H 42.231 -4.71945 1.22961 0
M  V30 510 H 41.236 -4.25123 3.48641 0
M  V30 511 H 42.461 -5.29807 4.24832 0
M  V30 512 H 40.407 -6.18474 2.1869 0
M  V30 513 H 40.324 -6.48087 3.89254 0
M  V30 514 H 41.592 -7.213 2.95546 0
M  V30 515 N 45.8211 -1.22559 -0.990812 0
M  V30 516 C 47.0671 -1.05297 -1.73322 0
M  V30 517 C 47.4001 0.410655 -1.89808 0
M  V30 518 O 46.6751 1.30439 -1.44277 0
M  V30 519 C 46.9581 -1.76713 -3.13759 0
M  V30 520 C 46.8111 -3.30684 -3.04907 0
M  V30 521 C 48.1301 -1.52121 -4.12974 0
M  V30 522 H 45.2491 -0.38392 -0.629106 0
M  V30 523 H 47.8911 -1.50926 -1.15418 0
M  V30 524 H 46.0411 -1.37924 -3.63193 0
M  V30 525 H 47.7131 -3.7893 -2.63077 0
M  V30 526 H 45.9561 -3.60253 -2.41661 0
M  V30 527 H 46.6271 -3.75833 -4.04294 0
M  V30 528 H 49.1031 -1.85819 -3.72304 0
M  V30 529 H 47.9791 -2.04582 -5.0935 0
M  V30 530 H 48.2401 -0.454257 -4.3976 0
M  V30 531 N 47.2992 1.18797 -1.03562 0
M  V30 532 C 48.2492 2.20161 -0.592724 0
M  V30 533 C 49.2332 1.56772 0.362133 0
M  V30 534 O 50.4252 1.76062 0.182009 0
M  V30 535 C 47.5542 3.43266 0.0481024 0
M  V30 536 C 46.6402 4.13786 -0.9296 0
M  V30 537 N 47.0312 4.60388 -2.09467 0
M  V30 538 C 45.3292 4.39572 -0.754499 0
M  V30 539 C 46.0302 5.14619 -2.71187 0
M  V30 540 N 45.0062 5.05826 -1.991 0
M  V30 541 H 48.8082 2.53877 -1.48066 0
M  V30 542 H 46.3222 1.34946 -0.903514 0
M  V30 543 H 48.3192 4.15136 0.383058 0
M  V30 544 H 46.9792 3.11048 0.931636 0
M  V30 545 H 47.9902 4.54999 -2.47379 0
M  V30 546 H 44.6672 4.17425 0.0793713 0
M  V30 547 H 46.0572 5.60917 -3.69895 0
M  V30 548 N 48.7773 0.814389 1.34928 0
M  V30 549 C 49.7073 0.244827 2.32213 0
M  V30 550 C 50.6883 -0.634024 1.57842 0
M  V30 551 O 51.8733 -0.562676 1.8587 0
M  V30 552 C 49.0033 -0.601106 3.42058 0
M  V30 553 C 47.9573 0.179896 4.27622 0
M  V30 554 C 47.2833 -0.788237 5.28858 0
M  V30 555 C 48.5833 1.38329 5.03649 0
M  V30 556 H 50.2773 1.05763 2.80097 0
M  V30 557 H 47.8233 0.510029 1.34665 0
M  V30 558 H 49.7763 -1.00968 4.09125 0
M  V30 559 H 48.5003 -1.44688 2.92802 0
M  V30 560 H 47.1593 0.569739 3.62146 0
M  V30 561 H 46.8073 -1.62973 4.75866 0
M  V30 562 H 46.5073 -0.269942 5.8698 0
M  V30 563 H 48.0313 -1.19485 5.98795 0
M  V30 564 H 49.4453 1.04918 5.63618 0
M  V30 565 H 47.8423 1.83662 5.71304 0
M  V30 566 H 48.9123 2.16592 4.33839 0
M  V30 567 N 50.2554 -1.46986 0.568584 0
M  V30 568 C 51.4854 -2.0653 0.0539173 0
M  V30 569 C 51.8934 -1.42004 -1.25026 0
M  V30 570 O 51.2364 -0.514541 -1.76347 0
M  V30 571 C 51.2984 -3.58938 -0.200854 0
M  V30 572 C 50.9624 -4.45572 1.01559 0
M  V30 573 C 51.9594 -4.82986 1.92407 0
M  V30 574 C 49.6444 -4.8692 1.23346 0
M  V30 575 C 51.6384 -5.60559 3.03402 0
M  V30 576 C 49.3254 -5.64255 2.34649 0
M  V30 577 C 50.3234 -6.00986 3.24507 0
M  V30 578 O 50.0114 -6.76761 4.33878 0
M  V30 579 H 49.7434 -0.674292 0.0480234 0
M  V30 580 H 52.2974 -1.89812 0.784896 0
M  V30 581 H 50.5274 -3.73911 -0.986279 0
M  V30 582 H 52.2164 -4.0046 -0.662294 0
M  V30 583 H 52.9824 -4.51633 1.76785 0
M  V30 584 H 48.8614 -4.57789 0.543178 0
M  V30 585 H 52.4054 -5.89147 3.73565 0
M  V30 586 H 48.3024 -5.95021 2.5024 0
M  V30 587 H 49.0704 -6.95168 4.32068 0
M  V30 588 N 51.7335 -0.305618 -1.54608 0
M  V30 589 C 52.6965 0.555591 -2.22364 0
M  V30 590 C 53.6965 1.05768 -1.21119 0
M  V30 591 O 54.8865 0.952972 -1.45822 0
M  V30 592 C 52.0185 1.76974 -2.91364 0
M  V30 593 H 53.2115 -0.0364572 -2.99878 0
M  V30 594 H 50.7645 -0.0565007 -1.56198 0
M  V30 595 H 51.4995 2.40151 -2.17941 0
M  V30 596 H 51.2845 1.41732 -3.65588 0
M  V30 597 H 52.7745 2.38148 -3.43038 0
M  V30 598 N 53.2116 1.57565 -0.0334293 0
M  V30 599 C 54.1586 2.10478 0.946981 0
M  V30 600 C 55.1286 1.00787 1.32027 0
M  V30 601 O 56.3136 1.28232 1.41284 0
M  V30 602 C 53.4536 2.63994 2.22263 0
M  V30 603 C 52.5666 3.87709 1.90541 0
M  V30 604 C 51.7016 4.29604 3.12433 0
M  V30 605 C 50.7406 5.46065 2.76549 0
M  V30 606 N 49.8776 5.83096 3.9108 0
M  V30 607 H 54.7176 2.93963 0.488846 0
M  V30 608 H 52.2546 1.45296 0.22969 0
M  V30 609 H 54.2126 2.93114 2.96884 0
M  V30 610 H 52.8426 1.83333 2.65685 0
M  V30 611 H 51.8946 3.65291 1.06144 0
M  V30 612 H 53.2066 4.72403 1.60116 0
M  V30 613 H 52.3606 4.60182 3.9537 0
M  V30 614 H 51.0996 3.43685 3.46023 0
M  V30 615 H 50.1046 5.15176 1.92026 0
M  V30 616 H 51.3296 6.33685 2.44171 0
M  V30 617 H 49.2756 5.00132 4.24504 0
M  V30 618 H 49.1926 6.6244 3.64293 0
M  V30 619 H 50.4606 6.18282 4.74708 0
M  V30 620 N 54.6897 -0.239769 1.55765 0
M  V30 621 C 56.1057 -0.588624 1.48349 0
M  V30 622 C 56.3057 -1.88005 0.72502 0
M  V30 623 O 55.3617 -2.51186 0.257269 0
M  V30 624 C 56.6747 -0.68474 2.928 0
M  V30 625 C 58.2227 -0.77659 3.03213 0
M  V30 626 C 58.6977 -0.904207 4.48986 0
M  V30 627 N 60.1887 -0.968896 4.52953 0
M  V30 628 C 60.9237 -1.08703 5.63002 0
M  V30 629 N 60.4197 -1.17026 6.82845 0
M  V30 630 N 62.2127 -1.12074 5.50814 0
M  V30 631 H 54.3637 0.607911 2.03515 0
M  V30 632 H 56.6267 0.21083 0.924259 0
M  V30 633 H 56.3327 0.194284 3.51163 0
M  V30 634 H 56.2067 -1.55435 3.43686 0
M  V30 635 H 58.5937 -1.64606 2.44926 0
M  V30 636 H 58.6747 0.118315 2.55526 0
M  V30 637 H 58.3187 -0.0392633 5.07885 0
M  V30 638 H 58.2487 -1.81426 4.9436 0
M  V30 639 H 60.7397 -0.915633 3.6664 0
M  V30 640 H 61.0527 -1.25966 7.62465 0
M  V30 641 H 59.3977 -1.13971 6.85591 0
M  V30 642 H 62.5887 -1.05226 4.5612 0
M  V30 643 H 62.7617 -1.20936 6.36615 0
M  V30 644 N 56.1678 -1.49265 -0.50573 0
M  V30 645 C 57.0778 -1.68312 -1.63427 0
M  V30 646 C 58.0938 -0.565682 -1.64548 0
M  V30 647 O 59.2698 -0.839801 -1.83055 0
M  V30 648 C 56.3348 -1.74107 -2.99813 0
M  V30 649 C 55.3958 -2.97653 -3.09356 0
M  V30 650 C 54.6288 -3.03163 -4.39236 0
M  V30 651 O 54.8518 -2.16396 -5.27758 0
M  V30 652 O 53.7858 -3.9558 -4.53652 0
M  V30 653 H 57.6118 -2.63907 -1.50289 0
M  V30 654 H 55.1968 -1.32951 -0.681502 0
M  V30 655 H 57.0788 -1.803 -3.80881 0
M  V30 656 H 55.7538 -0.816901 -3.13223 0
M  V30 657 H 54.6608 -2.96981 -2.27493 0
M  V30 658 H 55.9938 -3.89535 -3.00871 0
M  V30 659 N 57.6459 0.756429 -1.3826 0
M  V30 660 C 58.9229 1.50584 -1.24835 0
M  V30 661 C 59.3029 2.10556 0.151485 0
M  V30 662 O 58.6509 1.96825 1.1607 0
M  V30 663 C 58.8609 2.57448 -2.3563 0
M  V30 664 C 60.2089 3.24429 -2.73917 0
M  V30 665 O 61.2329 2.67751 -2.34921 0
M  V30 666 O 60.0919 4.26937 -3.41156 0
M  V30 667 H 57.1859 0.667664 -0.48801 0
M  V30 668 H 59.7319 0.792083 -1.5008 0
M  V30 669 H 58.5039 2.11362 -3.29305 0
M  V30 670 H 58.1269 3.36408 -2.11933 0
M  V30 671 N 59.124 1.23083 0.984299 0
M  V30 672 C 60.364 1.07226 1.74017 0
M  V30 673 C 60.728 -0.384766 1.88105 0
M  V30 674 O 61.929 -0.664411 2.60459 0
M  V30 675 C 60.2 1.77348 3.10294 0
M  V30 676 S 61.759 1.77014 4.01512 0
M  V30 677 H 58.577 0.383819 0.598502 0
M  V30 678 H 61.179 1.56158 1.17622 0
M  V30 679 H 59.883 2.82506 2.97689 0
M  V30 680 H 59.414 1.28682 3.71759 0
M  V30 681 H 61.429 0.825956 4.89277 0
M  V30 682 N 60.6021 -1.18246 1.0419 0
M  V30 683 C 61.5501 -2.23968 0.627792 0
M  V30 684 C 62.5441 -1.65828 -0.346019 0
M  V30 685 O 63.7501 -1.78733 -0.213175 0
M  V30 686 H 60.1251 -0.728939 0.184802 0
M  V30 687 H 62.0961 -2.56202 1.52981 0
M  V30 688 C 60.8451 -3.47699 0.00796591 0
M  V30 689 H 60.1681 -3.92734 0.748347 0
M  V30 690 H 61.6081 -4.23294 -0.24455 0
M  V30 691 C 60.0671 -3.13153 -1.24246 0
M  V30 692 O 60.5971 -3.27003 -2.33307 0
M  V30 693 N 58.8031 -2.67467 -1.13622 0
M  V30 694 H 58.3501 -2.56396 -0.248734 0
M  V30 695 H 58.3081 -2.44724 -1.97377 0
M  V30 696 N 62.0802 -0.821533 -1.34494 0
M  V30 697 C 63.3052 -0.420873 -2.03085 0
M  V30 698 C 63.7302 0.964915 -1.61465 0
M  V30 699 O 63.0882 1.62763 -0.798607 0
M  V30 700 C 63.1362 -0.529414 -3.56693 0
M  V30 701 O 62.2402 0.451302 -4.09923 0
M  V30 702 H 61.5812 -0.173489 -0.640935 0
M  V30 703 H 64.1112 -1.11157 -1.71771 0
M  V30 704 H 64.1212 -0.404671 -4.05988 0
M  V30 705 H 62.7962 -1.54014 -3.86332 0
M  V30 706 H 61.3732 0.285558 -3.71805 0
M  V30 707 N 63.5583 1.46682 -0.576371 0
M  V30 708 C 64.8063 2.02013 -0.0594163 0
M  V30 709 C 65.1273 1.45101 1.30271 0
M  V30 710 O 64.3973 0.633317 1.8538 0
M  V30 711 H 62.9773 0.746759 -0.0189745 0
M  V30 712 H 65.6393 1.79862 -0.750717 0
M  V30 713 H 64.7353 3.12097 0.014345 0
M  V30 714 N 65.0364 0.313813 1.54444 0
M  V30 715 C 65.9664 -0.549454 2.26943 0
M  V30 716 C 66.9474 -1.12741 1.27372 0
M  V30 717 O 68.1324 -1.15436 1.56167 0
M  V30 718 C 65.2624 -1.71523 3.01989 0
M  V30 719 C 64.2164 -1.26703 4.08816 0
M  V30 720 C 63.5424 -2.51898 4.71647 0
M  V30 721 C 64.8424 -0.388962 5.2085 0
M  V30 722 H 66.5364 0.0552661 2.99349 0
M  V30 723 H 64.0824 0.0280207 1.43973 0
M  V30 724 H 66.0354 -2.32535 3.51433 0
M  V30 725 H 64.7594 -2.34639 2.27183 0
M  V30 726 H 63.4184 -0.679896 3.6024 0
M  V30 727 H 63.0664 -3.13356 3.93468 0
M  V30 728 H 62.7664 -2.22605 5.43802 0
M  V30 729 H 64.2904 -3.1369 5.23861 0
M  V30 730 H 65.7044 -0.905107 5.6611 0
M  V30 731 H 64.1014 -0.18924 5.99802 0
M  V30 732 H 65.1714 0.582699 4.81386 0
M  V30 733 N 66.5145 -1.57545 0.0417849 0
M  V30 734 C 67.4775 -2.09885 -0.92093 0
M  V30 735 C 68.4775 -1.01648 -1.24596 0
M  V30 736 O 69.6675 -1.27759 -1.1842 0
M  V30 737 C 66.7995 -2.57527 -2.23367 0
M  V30 738 H 67.9925 -2.96236 -0.467382 0
M  V30 739 H 65.5455 -1.5493 -0.206467 0
M  V30 740 H 66.2805 -1.74542 -2.73323 0
M  V30 741 H 66.0655 -3.36613 -2.01083 0
M  V30 742 H 67.5555 -2.98201 -2.92346 0
M  V30 743 N 67.9926 0.231505 -1.5589 0
M  V30 744 C 69.2396 0.957352 -1.78441 0
M  V30 745 C 69.5676 1.84726 -0.60882 0
M  V30 746 O 68.8226 1.91416 0.40725 0
M  V30 747 C 69.1216 1.83577 -3.0665 0
M  V30 748 C 68.7876 1.09993 -4.37278 0
M  V30 749 C 67.4496 0.896629 -4.72773 0
M  V30 750 C 69.8016 0.579558 -5.17968 0
M  V30 751 C 67.1296 0.160896 -5.86479 0
M  V30 752 C 69.4816 -0.142783 -6.32439 0
M  V30 753 C 68.1456 -0.357427 -6.66542 0
M  V30 754 H 67.4156 0.35032 -0.65296 0
M  V30 755 H 70.0626 0.226259 -1.90159 0
M  V30 756 H 68.3676 2.63441 -2.90011 0
M  V30 757 H 70.0646 2.39934 -3.21298 0
M  V30 758 H 66.6546 1.26835 -4.09403 0
M  V30 759 H 70.8386 0.724125 -4.90989 0
M  V30 760 H 66.0946 -0.0157293 -6.11398 0
M  V30 761 H 70.2686 -0.553559 -6.94196 0
M  V30 762 H 67.8956 -0.929466 -7.54497 0
M  V30 763 N 69.4707 1.49531 0.497807 0
M  V30 764 C 70.7187 1.58865 1.24926 0
M  V30 765 C 71.0397 0.278721 1.92998 0
M  V30 766 O 70.3097 -0.702144 1.82885 0
M  V30 767 H 68.8897 0.585343 0.464094 0
M  V30 768 H 71.5517 1.86174 0.57666 0
M  V30 769 H 70.6477 2.38633 2.01149 0
M  V30 770 N 70.9488 -0.749086 1.3866 0
M  V30 771 C 72.1968 -1.50535 1.34847 0
M  V30 772 C 72.5178 -1.94909 -0.0595016 0
M  V30 773 O 71.7878 -1.67973 -1.00806 0
M  V30 774 H 70.3678 -0.558395 0.49619 0
M  V30 775 H 73.0298 -0.890165 1.73384 0
M  V30 776 H 72.1258 -2.39413 2.00219 0
M  V30 777 N 72.4269 -1.23603 -0.977757 0
M  V30 778 C 73.3749 -1.01704 -2.09187 0
M  V30 779 C 74.3689 0.0448214 -1.69341 0
M  V30 780 O 75.5749 -0.108902 -1.7967 0
M  V30 781 H 71.9499 -0.311803 -0.684312 0
M  V30 782 H 73.9209 -1.96207 -2.24823 0
M  V30 783 C 72.6699 -0.627746 -3.41986 0
M  V30 784 H 71.9929 -1.43656 -3.73099 0
M  V30 785 H 73.4329 -0.514053 -4.20872 0
M  V30 786 C 71.8919 0.664238 -3.30287 0
M  V30 787 O 72.4219 1.71268 -3.6336 0
M  V30 788 N 70.6279 0.641156 -2.83439 0
M  V30 789 H 70.1749 -0.212376 -2.56723 0
M  V30 790 H 70.1329 1.50583 -2.75993 0
M  V30 791 N 73.905 1.17692 -1.04816 0
M  V30 792 C 74.852 2.21581 -0.645797 0
M  V30 793 C 75.822 1.62367 0.350159 0
M  V30 794 O 77.007 1.89254 0.242433 0
M  V30 795 C 74.147 3.45092 -0.0227568 0
M  V30 796 C 73.26 4.18613 -1.06709 0
M  V30 797 C 72.395 5.29602 -0.411767 0
M  V30 798 C 71.434 5.94904 -1.44067 0
M  V30 799 N 70.571 6.97414 -0.809781 0
M  V30 800 H 75.411 2.55353 -1.5362 0
M  V30 801 H 72.948 1.25438 -0.768364 0
M  V30 802 H 74.906 4.15679 0.35588 0
M  V30 803 H 73.536 3.11917 0.831122 0
M  V30 804 H 72.588 3.46779 -1.5636 0
M  V30 805 H 73.9 4.63293 -1.84827 0
M  V30 806 H 73.054 6.06696 0.0206623 0
M  V30 807 H 71.793 4.86045 0.401438 0
M  V30 808 H 70.798 5.16544 -1.88316 0
M  V30 809 H 72.023 6.40542 -2.25571 0
M  V30 810 H 69.969 6.55998 -0.0170186 0
M  V30 811 H 69.886 7.40386 -1.52856 0
M  V30 812 H 71.154 7.78463 -0.401999 0
M  V30 813 N 75.3831 0.828654 1.34056 0
M  V30 814 C 76.6111 0.43262 2.02326 0
M  V30 815 C 77.0261 -0.963147 1.62385 0
M  V30 816 O 76.3831 -1.62425 0.832121 0
M  V30 817 C 76.4341 0.53182 3.57567 0
M  V30 818 O 76.1551 1.87258 3.96063 0
M  V30 819 C 77.6561 0.131422 4.43105 0
M  V30 820 H 74.8761 0.172923 0.648335 0
M  V30 821 H 77.4201 1.1184 1.71208 0
M  V30 822 H 75.5751 -0.105938 3.87255 0
M  V30 823 H 75.9891 1.85087 4.90758 0
M  V30 824 H 77.4631 0.251904 5.51425 0
M  V30 825 H 77.9401 -0.925645 4.29335 0
M  V30 826 H 78.5461 0.743207 4.18756 0
M  V30 827 N 76.8612 -1.46375 0.584142 0
M  V30 828 C 78.2772 -1.57694 0.245929 0
M  V30 829 C 78.4772 -1.57903 -1.25175 0
M  V30 830 O 77.5332 -1.49676 -2.03355 0
M  V30 831 C 78.8462 -2.87028 0.896402 0
M  V30 832 C 80.3942 -3.00662 0.870127 0
M  V30 833 C 80.8692 -4.32734 1.50017 0
M  V30 834 N 82.3602 -4.39436 1.46458 0
M  V30 835 C 83.0952 -5.40248 1.92144 0
M  V30 836 N 82.5912 -6.47726 2.4581 0
M  V30 837 N 84.3842 -5.31459 1.83052 0
M  V30 838 H 76.5352 -1.44483 1.55687 0
M  V30 839 H 78.7982 -0.689291 0.650831 0
M  V30 840 H 78.5042 -2.9269 1.95002 0
M  V30 841 H 78.3782 -3.75014 0.405486 0
M  V30 842 H 80.7652 -2.94581 -0.174871 0
M  V30 843 H 80.8462 -2.14148 1.39908 0
M  V30 844 H 80.4902 -4.39573 2.54437 0
M  V30 845 H 80.4202 -5.18025 0.946432 0
M  V30 846 H 82.9112 -3.62367 1.07231 0
M  V30 847 H 83.2242 -7.20863 2.78525 0
M  V30 848 H 81.5692 -6.48542 2.49836 0
M  V30 849 H 84.7602 -4.46396 1.40883 0
M  V30 850 H 84.9332 -6.09881 2.18973 0
M  V30 851 N 78.3393 -0.321999 -1.54275 0
M  V30 852 C 79.2863 0.544664 -2.24281 0
M  V30 853 C 80.2563 1.1129 -1.23303 0
M  V30 854 O 81.4413 1.15354 -1.51981 0
M  V30 855 C 78.5813 1.70045 -3.00298 0
M  V30 856 C 77.6943 1.16159 -4.1609 0
M  V30 857 C 76.8293 2.28293 -4.79641 0
M  V30 858 C 75.8683 1.71648 -5.8754 0
M  V30 859 N 75.0053 2.77438 -6.44959 0
M  V30 860 H 79.8453 -0.0588907 -2.97942 0
M  V30 861 H 77.3823 -0.0408345 -1.47043 0
M  V30 862 H 79.3403 2.38054 -3.42616 0
M  V30 863 H 77.9703 2.27531 -2.28975 0
M  V30 864 H 77.0223 0.373092 -3.78566 0
M  V30 865 H 78.3343 0.707087 -4.93763 0
M  V30 866 H 77.4883 3.0421 -5.2492 0
M  V30 867 H 76.2273 2.77079 -4.01346 0
M  V30 868 H 75.2323 0.942282 -5.41665 0
M  V30 869 H 76.4573 1.23741 -6.67731 0
M  V30 870 H 74.4033 3.25519 -5.69538 0
M  V30 871 H 74.3203 2.36547 -7.1804 0
M  V30 872 H 75.5883 3.53189 -6.94894 0
M  V30 873 N 79.8174 1.5752 -0.0501392 0
M  V30 874 C 80.7474 2.14502 0.922566 0
M  V30 875 C 81.7284 1.06642 1.3252 0
M  V30 876 O 82.9134 1.34577 1.4001 0
M  V30 877 C 80.0434 2.68916 2.19776 0
M  V30 878 C 78.9974 3.8175 1.93523 0
M  V30 879 C 78.3234 4.22677 3.27487 0
M  V30 880 C 79.6234 5.06932 1.25765 0
M  V30 881 H 81.3174 2.9603 0.447952 0
M  V30 882 H 78.8634 1.42401 0.214024 0
M  V30 883 H 80.8164 3.07419 2.88222 0
M  V30 884 H 79.5404 1.84578 2.69441 0
M  V30 885 H 78.1994 3.43718 1.27489 0
M  V30 886 H 77.8474 3.35291 3.74952 0
M  V30 887 H 77.5474 4.98725 3.1072 0
M  V30 888 H 79.0714 4.63779 3.97166 0
M  V30 889 H 80.4854 5.42888 1.84244 0
M  V30 890 H 78.8824 5.88116 1.19328 0
M  V30 891 H 79.9524 4.84337 0.233536 0
M  V30 892 N 81.2955 -0.223234 1.56011 0
M  V30 893 C 82.2055 -1.29766 1.95443 0
M  V30 894 C 83.2215 -1.51373 0.858028 0
M  V30 895 O 84.3975 -1.64536 1.16146 0
M  V30 896 C 81.4625 -2.62772 2.26167 0
M  V30 897 C 80.5235 -2.49482 3.49367 0
M  V30 898 C 79.7565 -3.76145 3.78616 0
M  V30 899 O 79.9795 -4.79087 3.09568 0
M  V30 900 O 78.9135 -3.73358 4.72109 0
M  V30 901 H 82.7395 -0.99309 2.87004 0
M  V30 902 H 80.3245 -0.425958 1.43199 0
M  V30 903 H 82.2065 -3.41327 2.47131 0
M  V30 904 H 80.8815 -2.92913 1.37781 0
M  V30 905 H 79.7885 -1.69133 3.33684 0
M  V30 906 H 81.1215 -2.2428 4.38131 0
M  V30 907 N 82.7736 -1.49793 -0.48987 0
M  V30 908 C 84.0036 -1.6333 -1.26518 0
M  V30 909 C 84.4116 -0.308392 -1.8667 0
M  V30 910 O 83.7546 0.717512 -1.69108 0
M  V30 911 C 83.8166 -2.6522 -2.4269 0
M  V30 912 C 83.4806 -4.09279 -2.03321 0
M  V30 913 C 84.4776 -4.95738 -1.56652 0
M  V30 914 C 82.1626 -4.55082 -2.12616 0
M  V30 915 C 84.1566 -6.26041 -1.19795 0
M  V30 916 C 81.8436 -5.85396 -1.75371 0
M  V30 917 C 82.8416 -6.707 -1.29036 0
M  V30 918 O 82.5296 -7.98584 -0.92299 0
M  V30 919 H 82.2616 -0.552502 -0.389509 0
M  V30 920 H 84.8156 -1.96642 -0.593381 0
M  V30 921 H 83.0456 -2.27112 -3.12981 0
M  V30 922 H 84.7346 -2.68171 -3.04695 0
M  V30 923 H 85.5006 -4.61575 -1.48908 0
M  V30 924 H 81.3796 -3.88844 -2.47631 0
M  V30 925 H 84.9236 -6.92578 -0.835582 0
M  V30 926 H 80.8206 -6.19085 -1.82768 0
M  V30 927 H 81.5886 -8.11692 -1.05349 0
M  V30 928 N 84.2517 0.741722 -1.39055 0
M  V30 929 C 85.1817 1.869 -1.39966 0
M  V30 930 C 86.1627 1.6804 -0.26392 0
M  V30 931 O 87.3477 1.88458 -0.468755 0
M  V30 932 C 84.4777 3.24572 -1.23574 0
M  V30 933 C 83.4317 3.58056 -2.34477 0
M  V30 934 C 82.7577 4.94593 -2.0318 0
M  V30 935 C 84.0577 3.61716 -3.76774 0
M  V30 936 H 85.7517 1.86395 -2.34302 0
M  V30 937 H 83.2977 0.895361 -1.1278 0
M  V30 938 H 85.2507 4.031 -1.22834 0
M  V30 939 H 83.9747 3.25587 -0.257045 0
M  V30 940 H 82.6337 2.81854 -2.34423 0
M  V30 941 H 82.2817 4.92181 -1.03765 0
M  V30 942 H 81.9817 5.17964 -2.77465 0
M  V30 943 H 83.5057 5.75486 -2.04079 0
M  V30 944 H 84.9197 4.30335 -3.78794 0
M  V30 945 H 83.3167 3.96603 -4.50362 0
M  V30 946 H 84.3867 2.61672 -4.08235 0
M  V30 947 N 85.7298 1.2412 0.971189 0
M  V30 948 C 86.9788 1.07284 1.70801 0
M  V30 949 C 87.2918 -0.388902 1.91695 0
M  V30 950 O 88.4978 -0.677379 2.62914 0
M  V30 951 C 86.9538 1.87145 3.07416 0
M  V30 952 C 86.5618 3.37707 2.94377 0
M  V30 953 C 88.3058 1.78828 3.84995 0
M  V30 954 C 86.2128 4.09925 4.26281 0
M  V30 955 H 85.1428 0.397854 0.64049 0
M  V30 956 H 87.7938 1.4817 1.0825 0
M  V30 957 H 86.1758 1.39071 3.70777 0
M  V30 958 H 87.3498 3.93335 2.4005 0
M  V30 959 H 85.6648 3.46938 2.30267 0
M  V30 960 H 88.2618 2.30089 4.82662 0
M  V30 961 H 88.6048 0.75284 4.09436 0
M  V30 962 H 89.1378 2.24563 3.28354 0
M  V30 963 H 85.8768 5.13813 4.07033 0
M  V30 964 H 85.3968 3.59083 4.80437 0
M  V30 965 H 87.0758 4.1673 4.94919 0
M  V30 966 N 87.2079 -1.17134 1.05439 0
M  V30 967 C 88.6189 -1.69084 0.791676 0
M  V30 968 C 88.9699 -1.83822 -0.685839 0
M  V30 969 O 88.0949 -1.52757 -1.53278 0
M  V30 970 C 88.6899 -3.07119 1.4305 0
M  V30 971 C 87.2489 -3.56225 1.21577 0
M  V30 972 C 86.3959 -2.32421 1.51247 0
M  V30 973 H 89.3469 -1.01617 1.219 0
M  V30 974 H 89.3679 -3.71087 0.84112 0
M  V30 975 H 88.8799 -2.9636 2.50584 0
M  V30 976 H 86.9809 -3.72257 0.159787 0
M  V30 977 H 87.0939 -4.38837 1.92246 0
M  V30 978 H 85.4579 -2.3701 0.932653 0
M  V30 979 H 86.2409 -2.24268 2.5992 0
M  V30 980 N 88.686 -0.835752 -1.33615 0
M  V30 981 C 89.596 -0.269088 -2.33052 0
M  V30 982 C 90.612 0.603251 -1.63208 0
M  V30 983 O 91.788 0.508112 -1.94885 0
M  V30 984 C 88.853 0.549091 -3.42324 0
M  V30 985 C 87.914 -0.347156 -4.27894 0
M  V30 986 C 87.147 0.43207 -5.31948 0
M  V30 987 O 87.37 1.66409 -5.45586 0
M  V30 988 O 86.304 -0.192298 -6.01593 0
M  V30 989 H 90.13 -1.09243 -2.83372 0
M  V30 990 H 87.715 -0.598198 -1.36901 0
M  V30 991 H 89.597 1.01414 -4.09015 0
M  V30 992 H 88.272 1.34955 -2.94226 0
M  V30 993 H 87.179 -0.859979 -3.64081 0
M  V30 994 H 88.512 -1.1123 -4.79467 0
M  V30 995 N 90.1641 1.46063 -0.591896 0
M  V30 996 C 91.1271 2.28854 0.125973 0
M  V30 997 C 92.1271 1.38903 0.810107 0
M  V30 998 O 93.3171 1.61186 0.66066 0
M  V30 999 C 90.4491 3.19526 1.1881 0
M  V30 1000 H 91.6421 2.93802 -0.601717 0
M  V30 1001 H 89.1951 1.52325 -0.350254 0
M  V30 1002 H 89.9301 2.59345 1.94707 0
M  V30 1003 H 89.7151 3.85766 0.701936 0
M  V30 1004 H 91.2051 3.81817 1.69132 0
M  V30 1005 N 91.6422 0.330177 1.54103 0
M  V30 1006 C 92.5722 -0.525353 2.27513 0
M  V30 1007 C 93.5532 -1.11383 1.2856 0
M  V30 1008 O 94.7382 -1.13773 1.57383 0
M  V30 1009 C 91.8682 -1.6831 3.03791 0
M  V30 1010 C 90.8222 -1.2236 4.10137 0
M  V30 1011 C 90.1482 -2.46882 4.74293 0
M  V30 1012 C 91.4482 -0.333697 5.21233 0
M  V30 1013 H 93.1422 0.087013 2.99274 0
M  V30 1014 H 90.6882 0.0432893 1.43935 0
M  V30 1015 H 92.6412 -2.28795 3.5388 0
M  V30 1016 H 91.3652 -2.32216 2.29659 0
M  V30 1017 H 90.0242 -0.64165 3.60941 0
M  V30 1018 H 89.6722 -3.09165 3.96769 0
M  V30 1019 H 89.3722 -2.16825 5.46133 0
M  V30 1020 H 90.8962 -3.08117 5.27159 0
M  V30 1021 H 92.3102 -0.845013 5.67038 0
M  V30 1022 H 90.7072 -0.125612 5.99969 0
M  V30 1023 H 91.7772 0.633724 4.80741 0
M  V30 1024 N 93.1203 -1.57491 0.0584922 0
M  V30 1025 C 94.0833 -2.1085 -0.898617 0
M  V30 1026 C 95.0833 -1.02964 -1.23511 0
M  V30 1027 O 96.2733 -1.29007 -1.17059 0
M  V30 1028 C 93.4053 -2.59881 -2.20623 0
M  V30 1029 H 94.5983 -2.96715 -0.435936 0
M  V30 1030 H 92.1513 -1.55141 -0.190023 0
M  V30 1031 H 92.8863 -1.77431 -2.71457 0
M  V30 1032 H 92.6713 -3.38727 -1.97501 0
M  V30 1033 H 94.1613 -3.01285 -2.89166 0
M  V30 1034 N 94.5984 0.214957 -1.56127 0
M  V30 1035 C 95.5304 1.29004 -1.89448 0
M  V30 1036 C 96.5434 1.42716 -0.783326 0
M  V30 1037 O 97.7324 1.43496 -1.06166 0
M  V30 1038 C 94.8324 2.66482 -2.09381 0
M  V30 1039 C 94.0054 2.74633 -3.40434 0
M  V30 1040 C 93.0644 3.9317 -3.49719 0
M  V30 1041 O 92.0904 3.812 -4.227 0
M  V30 1042 N 93.2924 5.07765 -2.81346 0
M  V30 1043 H 96.0574 1.00743 -2.82261 0
M  V30 1044 H 93.6184 0.40497 -1.56753 0
M  V30 1045 H 95.6104 3.44173 -2.12901 0
M  V30 1046 H 94.1804 2.87314 -1.23163 0
M  V30 1047 H 93.4004 1.83368 -3.48955 0
M  V30 1048 H 94.6884 2.77054 -4.26754 0
M  V30 1049 H 94.0864 5.20386 -2.21843 0
M  V30 1050 H 92.6434 5.83474 -2.90519 0
M  V30 1051 N 96.0765 1.50051 0.48192 0
M  V30 1052 C 97.3245 1.60181 1.23234 0
M  V30 1053 C 97.6455 0.299176 1.92691 0
M  V30 1054 O 96.9155 -0.682708 1.83619 0
M  V30 1055 H 95.4955 0.590232 0.457859 0
M  V30 1056 H 98.1575 1.86775 0.556881 0
M  V30 1057 H 97.2535 2.40753 1.98607 0
M  V30 1058 N 97.5546 -0.734337 1.39446 0
M  V30 1059 C 98.7946 -1.50655 1.38139 0
M  V30 1060 C 99.1586 -1.91986 -0.0228701 0
M  V30 1061 O 100.36 -2.68318 -0.160947 0
M  V30 1062 C 98.6306 -2.71251 2.32718 0
M  V30 1063 S 100.19 -3.60892 2.49605 0
M  V30 1064 H 97.0076 -0.515315 0.489869 0
M  V30 1065 H 99.6096 -0.860392 1.75549 0
M  V30 1066 H 98.3136 -2.39027 3.33608 0
M  V30 1067 H 97.8446 -3.40795 1.96526 0
M  V30 1068 H 99.8596 -4.64899 1.73446 0
M  V30 1069 N 99.0327 -1.24633 -0.964593 0
M  V30 1070 C 100.31 -0.995809 -1.68354 0
M  V30 1071 C 100.69 0.480964 -2.05548 0
M  V30 1072 O 100.038 1.45599 -1.76105 0
M  V30 1073 C 100.248 -1.92177 -2.91323 0
M  V30 1074 C 101.596 -2.19446 -3.63495 0
M  V30 1075 O 102.62 -1.89855 -3.01386 0
M  V30 1076 O 101.479 -2.69714 -4.75307 0
M  V30 1077 H 98.5727 -0.376854 -0.736146 0
M  V30 1078 H 101.119 -1.35745 -1.0184 0
M  V30 1079 H 99.8907 -2.91938 -2.60553 0
M  V30 1080 H 99.5137 -1.56349 -3.65569 0
M  V30 1081 N 100.511 1.16574 -1.06058 0
M  V30 1082 C 101.739 1.90952 -0.796552 0
M  V30 1083 C 102.154 1.77302 0.648808 0
M  V30 1084 O 101.511 1.11605 1.44397 0
M  V30 1085 C 101.562 3.41736 -1.17894 0
M  V30 1086 O 101.283 3.54975 -2.56758 0
M  V30 1087 C 102.784 4.33169 -0.942308 0
M  V30 1088 H 100.004 0.605594 -0.288959 0
M  V30 1089 H 102.548 1.47777 -1.41358 0
M  V30 1090 H 100.703 3.82623 -0.606491 0
M  V30 1091 H 101.117 4.4846 -2.72 0
M  V30 1092 H 102.591 5.37439 -1.25952 0
M  V30 1093 H 103.068 4.3903 0.122078 0
M  V30 1094 H 103.674 3.98007 -1.49902 0
M  V30 1095 N 101.989 0.842826 1.3317 0
M  V30 1096 C 102.919 0.294028 2.31641 0
M  V30 1097 C 103.9 -0.600401 1.59151 0
M  V30 1098 O 105.085 -0.523124 1.87022 0
M  V30 1099 C 102.215 -0.528416 3.43257 0
M  V30 1100 C 101.169 0.27056 4.27144 0
M  V30 1101 C 100.495 -0.675881 5.30411 0
M  V30 1102 C 101.795 1.48981 5.00602 0
M  V30 1103 H 103.489 1.11681 2.77791 0
M  V30 1104 H 101.035 0.538478 1.33553 0
M  V30 1105 H 102.988 -0.922674 4.11175 0
M  V30 1106 H 101.712 -1.38445 2.95805 0
M  V30 1107 H 100.371 0.646427 3.60856 0
M  V30 1108 H 100.019 -1.52842 4.79216 0
M  V30 1109 H 99.7189 -0.145374 5.8742 0
M  V30 1110 H 101.243 -1.06757 6.01195 0
M  V30 1111 H 102.657 1.16849 5.61266 0
M  V30 1112 H 101.054 1.95739 5.6728 0
M  V30 1113 H 102.124 2.25746 4.29147 0
M  V30 1114 N 103.467 -1.45747 0.599634 0
M  V30 1115 C 104.713 -2.02592 0.0918643 0
M  V30 1116 C 105.046 -1.46806 -1.27128 0
M  V30 1117 O 104.321 -0.639658 -1.83681 0
M  V30 1118 C 104.604 -3.60073 0.0443398 0
M  V30 1119 C 104.457 -4.26208 1.43759 0
M  V30 1120 C 105.776 -4.35309 -0.647608 0
M  V30 1121 H 102.895 -0.736175 0.034857 0
M  V30 1122 H 105.537 -1.73694 0.770081 0
M  V30 1123 H 103.687 -3.84823 -0.533224 0
M  V30 1124 H 105.359 -4.12668 2.06162 0
M  V30 1125 H 103.602 -3.84916 2.00056 0
M  V30 1126 H 104.273 -5.35069 1.35665 0
M  V30 1127 H 106.749 -4.15805 -0.156776 0
M  V30 1128 H 105.625 -5.45038 -0.649942 0
M  V30 1129 H 105.886 -4.07598 -1.71219 0
M  V30 1130 N 104.945 -0.338344 -1.53925 0
M  V30 1131 C 106.17 0.263987 -2.05713 0
M  V30 1132 C 106.595 1.43847 -1.21201 0
M  V30 1133 O 105.953 1.79904 -0.224535 0
M  V30 1134 C 106.001 0.662 -3.54471 0
M  V30 1135 O 105.105 1.76265 -3.72833 0
M  V30 1136 H 104.446 0.0448722 -0.662482 0
M  V30 1137 H 106.976 -0.491048 -1.9862 0
M  V30 1138 H 106.986 0.940594 -3.9701 0
M  V30 1139 H 105.661 -0.196937 -4.15433 0
M  V30 1140 H 104.238 1.48173 -3.42198 0
M  V30 1141 N 106.423 1.57458 -0.0668435 0
M  V30 1142 C 107.672 1.92477 0.602947 0
M  V30 1143 C 107.985 0.948419 1.71068 0
M  V30 1144 O 109.191 1.19124 2.43971 0
M  V30 1145 C 107.647 3.41903 1.12383 0
M  V30 1146 C 107.255 4.47975 0.04737 0
M  V30 1147 C 108.999 3.85931 1.76797 0
M  V30 1148 C 106.906 5.88529 0.582022 0
M  V30 1149 H 105.836 0.718387 0.22899 0
M  V30 1150 H 108.487 1.82978 -0.138276 0
M  V30 1151 H 106.869 3.46459 1.91787 0
M  V30 1152 H 108.043 4.55029 -0.726978 0
M  V30 1153 H 106.358 4.13384 -0.500243 0
M  V30 1154 H 108.955 4.88322 2.17821 0
M  V30 1155 H 109.298 3.23029 2.62599 0
M  V30 1156 H 109.831 3.83958 1.04024 0
M  V30 1157 H 106.57 6.55065 -0.238721 0
M  V30 1158 H 106.09 5.85004 1.324 0
M  V30 1159 H 107.769 6.38258 1.05999 0
M  V30 1160 N 107.901 -0.206675 1.56239 0
M  V30 1161 C 109.149 -0.927007 1.79586 0
M  V30 1162 C 109.47 -1.8427 0.637929 0
M  V30 1163 O 108.74 -1.92849 -0.344398 0
M  V30 1164 H 107.32 -0.345292 0.662407 0
M  V30 1165 H 109.982 -0.21496 1.93711 0
M  V30 1166 H 109.078 -1.52501 2.72305 0
M  V30 1167 N 109.379 -1.50304 -0.473955 0
M  V30 1168 C 110.627 -1.60832 -1.22382 0
M  V30 1169 C 110.948 -0.30939 -1.9253 0
M  V30 1170 O 110.218 0.67296 -1.83978 0
M  V30 1171 H 108.798 -0.592652 -0.454723 0
M  V30 1172 H 111.46 -1.87068 -0.546968 0
M  V30 1173 H 110.556 -2.41803 -1.97327 0
M  V30 1174 N 110.857 0.726932 -1.39834 0
M  V30 1175 C 112.106 1.48214 -1.36805 0
M  V30 1176 C 112.419 1.95576 0.0305291 0
M  V30 1177 O 113.625 2.7088 0.183417 0
M  V30 1178 C 112.081 2.67854 -2.40379 0
M  V30 1179 C 111.689 2.27408 -3.85992 0
M  V30 1180 C 113.433 3.45641 -2.46439 0
M  V30 1181 C 111.34 3.43819 -4.81189 0
M  V30 1182 H 110.27 0.556606 -0.508631 0
M  V30 1183 H 112.921 0.792216 -1.65518 0
M  V30 1184 H 111.303 3.3896 -2.04749 0
M  V30 1185 H 112.477 1.63795 -4.30706 0
M  V30 1186 H 110.792 1.62692 -3.83302 0
M  V30 1187 H 113.389 4.32244 -3.14753 0
M  V30 1188 H 113.732 3.88669 -1.49139 0
M  V30 1189 H 114.265 2.8157 -2.81004 0
M  V30 1190 H 111.004 3.05834 -5.79781 0
M  V30 1191 H 110.524 4.06385 -4.41148 0
M  V30 1192 H 112.203 4.10043 -5.00474 0
M  V30 1193 N 112.336 1.25143 0.95797 0
M  V30 1194 C 113.268 1.01023 2.05735 0
M  V30 1195 C 114.281 -0.0236902 1.62783 0
M  V30 1196 O 115.47 0.21448 1.77207 0
M  V30 1197 C 112.57 0.504595 3.35122 0
M  V30 1198 C 111.743 1.6039 4.06932 0
M  V30 1199 C 110.802 1.09922 5.14591 0
M  V30 1200 O 109.828 1.79293 5.40225 0
M  V30 1201 N 111.03 -0.0612545 5.80468 0
M  V30 1202 H 113.795 1.95683 2.26998 0
M  V30 1203 H 111.356 1.16303 1.12629 0
M  V30 1204 H 113.348 0.151516 4.04416 0
M  V30 1205 H 111.918 -0.347989 3.10657 0
M  V30 1206 H 111.138 2.12872 3.31782 0
M  V30 1207 H 112.426 2.34252 4.51667 0
M  V30 1208 H 111.824 -0.640985 5.62057 0
M  V30 1209 H 110.381 -0.355395 6.5083 0
M  V30 1210 N 113.814 -1.1601 1.06675 0
M  V30 1211 C 115.039 -1.91068 0.806706 0
M  V30 1212 C 115.464 -1.77112 -0.633485 0
M  V30 1213 O 114.822 -1.09908 -1.44187 0
M  V30 1214 C 114.87 -3.39655 1.21106 0
M  V30 1215 O 113.974 -4.10893 0.352189 0
M  V30 1216 H 113.315 -0.595125 0.294486 0
M  V30 1217 H 115.845 -1.46955 1.42356 0
M  V30 1218 H 115.855 -3.90434 1.18428 0
M  V30 1219 H 114.53 -3.49132 2.26008 0
M  V30 1220 H 113.107 -3.70285 0.440868 0
M  V30 1221 N 115.292 -0.849877 -1.32721 0
M  V30 1222 C 116.24 -0.279745 -2.30912 0
M  V30 1223 C 117.234 0.594278 -1.58634 0
M  V30 1224 O 118.44 0.482613 -1.73409 0
M  V30 1225 H 114.815 -0.0717521 -0.748569 0
M  V30 1226 H 116.786 -1.12222 -2.76494 0
M  V30 1227 C 115.535 0.521108 -3.43773 0
M  V30 1228 H 114.858 -0.142141 -3.99547 0
M  V30 1229 H 116.298 0.885693 -4.14646 0
M  V30 1230 C 114.757 1.70442 -2.90605 0
M  V30 1231 O 115.287 2.8034 -2.87702 0
M  V30 1232 N 113.493 1.52991 -2.47067 0
M  V30 1233 H 113.04 0.635914 -2.49628 0
M  V30 1234 H 112.998 2.32311 -2.11847 0
M  V30 1235 N 116.77 1.45427 -0.607355 0
M  V30 1236 C 117.702 2.2871 0.149752 0
M  V30 1237 C 118.715 1.39937 0.831958 0
M  V30 1238 O 119.904 1.64313 0.697385 0
M  V30 1239 C 117.004 3.15673 1.23304 0
M  V30 1240 C 116.177 4.32722 0.637996 0
M  V30 1241 C 115.236 5.00895 1.61215 0
M  V30 1242 O 114.262 5.57697 1.13854 0
M  V30 1243 N 115.464 5.00159 2.94655 0
M  V30 1244 H 118.229 2.94328 -0.564882 0
M  V30 1245 H 115.79 1.55612 -0.446823 0
M  V30 1246 H 117.782 3.58144 1.88454 0
M  V30 1247 H 116.352 2.51965 1.8502 0
M  V30 1248 H 115.572 3.93734 -0.191572 0
M  V30 1249 H 116.86 5.08321 0.220665 0
M  V30 1250 H 116.258 4.553 3.35735 0
M  V30 1251 H 114.815 5.46495 3.55228 0
M  V30 1252 N 118.248 0.346503 1.53744 0
M  V30 1253 C 119.476 -0.25041 2.05379 0
M  V30 1254 C 119.891 -1.43979 1.22129 0
M  V30 1255 O 119.248 -1.80677 0.257321 0
M  V30 1256 C 119.299 -0.662575 3.55376 0
M  V30 1257 O 119.02 0.479515 4.35468 0
M  V30 1258 C 120.521 -1.31989 4.23195 0
M  V30 1259 H 117.741 -0.0478198 0.669294 0
M  V30 1260 H 120.285 0.499346 1.9831 0
M  V30 1261 H 118.44 -1.36227 3.62658 0
M  V30 1262 H 118.854 0.15037 5.24284 0
M  V30 1263 H 120.328 -1.55902 5.29527 0
M  V30 1264 H 120.805 -2.27436 3.75725 0
M  V30 1265 H 121.411 -0.662154 4.20114 0
M  V30 1266 N 119.726 -1.57421 0.075193 0
M  V30 1267 C 121.142 -1.57099 -0.281444 0
M  V30 1268 C 121.342 -1.08486 -1.69803 0
M  V30 1269 O 120.398 -0.752279 -2.41033 0
M  V30 1270 C 121.711 -3.00571 -0.0880041 0
M  V30 1271 C 123.259 -3.12605 -0.157281 0
M  V30 1272 C 123.734 -4.57999 0.0079207 0
M  V30 1273 N 125.225 -4.63176 -0.0475725 0
M  V30 1274 C 125.96 -5.73373 0.0557876 0
M  V30 1275 N 125.456 -6.92473 0.21286 0
M  V30 1276 N 127.249 -5.621 -0.00152098 0
M  V30 1277 H 119.4 -1.87335 1.00098 0
M  V30 1278 H 121.663 -0.86377 0.390646 0
M  V30 1279 H 121.369 -3.40262 0.889629 0
M  V30 1280 H 121.243 -3.67754 -0.838875 0
M  V30 1281 H 123.63 -2.72798 -1.1254 0
M  V30 1282 H 123.711 -2.48053 0.62475 0
M  V30 1283 H 123.355 -4.98496 0.972824 0
M  V30 1284 H 123.285 -5.20586 -0.793556 0
M  V30 1285 H 125.776 -3.7753 -0.167244 0
M  V30 1286 H 126.089 -7.72279 0.283781 0
M  V30 1287 H 124.434 -6.94556 0.248267 0
M  V30 1288 H 127.625 -4.67938 -0.122958 0
M  V30 1289 H 127.798 -6.47948 0.0824844 0
M  V30 1290 N 121.204 0.198386 -1.56346 0
M  V30 1291 C 122.136 1.26987 -1.90806 0
M  V30 1292 C 123.149 1.41877 -0.798419 0
M  V30 1293 O 124.338 1.42362 -1.07682 0
M  V30 1294 C 121.438 2.64246 -2.12196 0
M  V30 1295 C 120.611 2.71007 -3.43328 0
M  V30 1296 C 119.67 3.89439 -3.5387 0
M  V30 1297 O 118.696 3.76695 -4.26719 0
M  V30 1298 N 119.898 5.04752 -2.86715 0
M  V30 1299 H 122.663 0.977433 -2.83313 0
M  V30 1300 H 120.224 0.388322 -1.57174 0
M  V30 1301 H 122.216 3.41896 -2.1654 0
M  V30 1302 H 120.786 2.85992 -1.26204 0
M  V30 1303 H 120.006 1.79657 -3.50881 0
M  V30 1304 H 121.294 2.72512 -4.29668 0
M  V30 1305 H 120.692 5.18004 -2.2735 0
M  V30 1306 H 119.249 5.8036 -2.96691 0
M  V30 1307 N 122.682 1.50554 0.465978 0
M  V30 1308 C 123.928 1.62038 1.21949 0
M  V30 1309 C 124.261 0.322116 1.9151 0
M  V30 1310 O 123.536 -0.676723 1.82348 0
M  V30 1311 C 123.819 2.80421 2.25912 0
M  V30 1312 C 123.672 4.20144 1.60622 0
M  V30 1313 C 124.991 2.94354 3.27176 0
M  V30 1314 H 122.11 0.589752 0.441998 0
M  V30 1315 H 124.752 1.82956 0.51257 0
M  V30 1316 H 122.902 2.62717 2.86203 0
M  V30 1317 H 124.574 4.49449 1.03889 0
M  V30 1318 H 122.817 4.24165 0.909211 0
M  V30 1319 H 123.488 4.98914 2.36196 0
M  V30 1320 H 125.964 3.10578 2.76913 0
M  V30 1321 H 124.84 3.788 3.97242 0
M  V30 1322 H 125.101 2.05186 3.916 0
M  V30 1323 N 124.16 -0.719506 1.40217 0
M  V30 1324 C 125.123 -1.8153 1.39927 0
M  V30 1325 C 126.123 -1.58095 0.293723 0
M  V30 1326 O 127.313 -1.65209 0.552429 0
M  V30 1327 C 124.445 -3.19561 1.18716 0
M  V30 1328 H 125.638 -1.83186 2.37451 0
M  V30 1329 H 123.191 -0.924746 1.26008 0
M  V30 1330 H 123.926 -3.23557 0.219366 0
M  V30 1331 H 123.711 -3.3797 1.98793 0
M  V30 1332 H 125.201 -3.99598 1.21291 0
M  V30 1333 N 125.638 -1.25649 -0.95132 0
M  V30 1334 C 126.601 -1.06399 -2.03007 0
M  V30 1335 C 127.601 -0.0156794 -1.60792 0
M  V30 1336 O 128.791 -0.25817 -1.72276 0
M  V30 1337 C 125.923 -0.616184 -3.35285 0
M  V30 1338 H 127.116 -2.02164 -2.21517 0
M  V30 1339 H 124.669 -1.08103 -1.12887 0
M  V30 1340 H 125.404 0.343917 -3.22471 0
M  V30 1341 H 125.189 -1.37301 -3.67275 0
M  V30 1342 H 126.679 -0.503032 -4.14559 0
M  V30 1343 N 127.117 1.15442 -1.07289 0
M  V30 1344 C 128.363 1.86489 -0.796846 0
M  V30 1345 C 128.696 1.82078 0.675371 0
M  V30 1346 O 127.971 1.24346 1.4956 0
M  V30 1347 C 128.254 3.35626 -1.30489 0
M  V30 1348 C 128.107 3.48673 -2.84161 0
M  V30 1349 C 129.426 4.30357 -0.920907 0
M  V30 1350 H 126.545 0.677144 -0.290939 0
M  V30 1351 H 129.187 1.35633 -1.33056 0
M  V30 1352 H 127.337 3.79068 -0.850883 0
M  V30 1353 H 129.009 3.14099 -3.37846 0
M  V30 1354 H 127.252 2.90253 -3.22391 0
M  V30 1355 H 127.923 4.53453 -3.14777 0
M  V30 1356 H 130.399 3.94871 -1.3121 0
M  V30 1357 H 129.275 5.33193 -1.30372 0
M  V30 1358 H 129.536 4.4176 0.173226 0
M  V30 1359 N 128.595 0.856903 1.32268 0
M  V30 1360 C 129.558 0.308171 2.27119 0
M  V30 1361 C 130.558 -0.533421 1.51695 0
M  V30 1362 O 131.748 -0.344607 1.70757 0
M  V30 1363 C 128.88 -0.563757 3.36206 0
M  V30 1364 H 130.073 1.14535 2.77167 0
M  V30 1365 H 127.626 0.631421 1.42978 0
M  V30 1366 H 128.361 -1.42266 2.91429 0
M  V30 1367 H 128.146 0.0386749 3.92081 0
M  V30 1368 H 129.636 -0.940386 4.06874 0
M  V30 1369 N 130.073 -1.45103 0.615059 0
M  V30 1370 C 131.036 -2.29025 -0.0895485 0
M  V30 1371 C 132.036 -1.40174 -0.787906 0
M  V30 1372 O 133.226 -1.62217 -0.634933 0
M  V30 1373 C 130.358 -3.21376 -1.13711 0
M  V30 1374 H 131.551 -2.92807 0.648382 0
M  V30 1375 H 129.104 -1.51749 0.374444 0
M  V30 1376 H 129.839 -2.6241 -1.90556 0
M  V30 1377 H 129.624 -3.86834 -0.640475 0
M  V30 1378 H 131.114 -3.84459 -1.63036 0
M  V30 1379 N 131.551 -0.354651 -1.53558 0
M  V30 1380 C 132.501 0.513179 -2.2215 0
M  V30 1381 C 133.485 1.05734 -1.21281 0
M  V30 1382 O 134.677 0.989202 -1.46778 0
M  V30 1383 C 131.806 1.65798 -3.00609 0
M  V30 1384 C 130.892 1.12722 -4.08845 0
M  V30 1385 N 131.283 0.318563 -5.04796 0
M  V30 1386 C 129.581 1.40307 -4.23356 0
M  V30 1387 C 130.282 0.0292224 -5.81693 0
M  V30 1388 N 129.258 0.623891 -5.40008 0
M  V30 1389 H 133.06 -0.111586 -2.93688 0
M  V30 1390 H 130.574 -0.162091 -1.61589 0
M  V30 1391 H 132.571 2.29176 -3.48258 0
M  V30 1392 H 131.231 2.28591 -2.306 0
M  V30 1393 H 132.242 -0.0413091 -5.17884 0
M  V30 1394 H 128.919 2.03458 -3.6457 0
M  V30 1395 H 130.309 -0.623808 -6.68998 0
M  V30 1396 N 133.029 1.57378 -0.0835403 0
M  V30 1397 C 133.959 2.1641 0.87686 0
M  V30 1398 C 134.94 1.09429 1.30228 0
M  V30 1399 O 136.125 1.37516 1.37124 0
M  V30 1400 C 133.255 2.73517 2.14022 0
M  V30 1401 C 132.209 3.85769 1.85381 0
M  V30 1402 C 131.535 4.29529 3.18448 0
M  V30 1403 C 132.835 5.09486 1.14984 0
M  V30 1404 H 134.529 2.96914 0.385059 0
M  V30 1405 H 132.075 1.42823 0.18377 0
M  V30 1406 H 134.028 3.13463 2.81636 0
M  V30 1407 H 132.752 1.90252 2.65465 0
M  V30 1408 H 131.411 3.46345 1.20169 0
M  V30 1409 H 131.059 3.43169 3.67755 0
M  V30 1410 H 130.759 5.05204 3.00071 0
M  V30 1411 H 132.283 4.72099 3.8724 0
M  V30 1412 H 133.697 5.46674 1.72687 0
M  V30 1413 H 132.094 5.90515 1.06826 0
M  V30 1414 H 133.164 4.84724 0.130749 0
M  V30 1415 N 134.507 -0.190092 1.56449 0
M  V30 1416 C 135.755 -0.907908 1.80559 0
M  V30 1417 C 136.076 -1.83583 0.657438 0
M  V30 1418 O 135.346 -1.93203 -0.323924 0
M  V30 1419 H 133.926 -0.338247 0.666032 0
M  V30 1420 H 136.588 -0.194403 1.93928 0
M  V30 1421 H 135.684 -1.49604 2.73907 0
M  V30 1422 N 135.985 -1.50799 -0.457987 0
M  V30 1423 C 136.918 -1.65273 -1.57353 0
M  V30 1424 C 137.896 -0.500578 -1.54703 0
M  V30 1425 O 139.08 -0.721781 -1.74134 0
M  V30 1426 C 136.207 -1.64737 -2.95938 0
M  V30 1427 C 135.253 -2.8567 -3.16693 0
M  V30 1428 S 136.086 -4.46791 -2.95191 0
M  V30 1429 C 137.242 -4.48968 -4.36095 0
M  V30 1430 H 137.475 -2.59633 -1.44838 0
M  V30 1431 H 135.008 -1.40225 -0.64625 0
M  V30 1432 H 136.966 -1.65112 -3.7583 0
M  V30 1433 H 135.627 -0.715899 -3.05833 0
M  V30 1434 H 134.82 -2.81637 -4.17967 0
M  V30 1435 H 134.422 -2.8293 -2.44594 0
M  V30 1436 H 136.714 -4.23337 -5.28954 0
M  V30 1437 H 137.657 -5.50664 -4.45168 0
M  V30 1438 H 138.065 -3.78522 -4.18786 0
M  V30 1439 N 137.463 0.71206 -1.40597 0
M  V30 1440 C 138.41 1.82613 -1.41142 0
M  V30 1441 C 139.38 1.63925 -0.267903 0
M  V30 1442 O 140.565 1.85009 -0.466495 0
M  V30 1443 C 137.705 3.20354 -1.28324 0
M  V30 1444 C 136.818 3.50589 -2.52411 0
M  V30 1445 C 135.953 4.77855 -2.32009 0
M  V30 1446 C 134.992 5.01005 -3.51654 0
M  V30 1447 N 134.129 6.19487 -3.30425 0
M  V30 1448 H 138.969 1.81482 -2.36365 0
M  V30 1449 H 136.506 0.886475 -1.17388 0
M  V30 1450 H 138.464 3.99899 -1.18899 0
M  V30 1451 H 137.094 3.20705 -0.367189 0
M  V30 1452 H 136.146 2.65573 -2.72351 0
M  V30 1453 H 137.458 3.63604 -3.41458 0
M  V30 1454 H 136.612 5.65424 -2.19956 0
M  V30 1455 H 135.351 4.67056 -1.40392 0
M  V30 1456 H 134.356 4.1189 -3.64179 0
M  V30 1457 H 135.581 5.13674 -4.44202 0
M  V30 1458 H 133.527 6.09932 -2.41494 0
M  V30 1459 H 133.444 6.33194 -4.13039 0
M  V30 1460 H 134.712 7.09834 -3.22113 0
M  V30 1461 N 138.941 1.26152 0.944643 0
M  V30 1462 C 140.181 1.12708 1.70517 0
M  V30 1463 C 140.545 -0.324727 1.89234 0
M  V30 1464 O 141.746 -0.581211 2.62441 0
M  V30 1465 C 140.017 1.8713 3.04495 0
M  V30 1466 S 141.576 1.89698 3.95677 0
M  V30 1467 H 138.394 0.402665 0.585988 0
M  V30 1468 H 140.996 1.59821 1.12594 0
M  V30 1469 H 139.7 2.91833 2.88551 0
M  V30 1470 H 139.231 1.40444 3.67477 0
M  V30 1471 H 141.246 0.981198 4.86402 0
M  V30 1472 N 140.419 -1.14872 1.07899 0
M  V30 1473 C 141.665 -1.86064 0.806725 0
M  V30 1474 C 141.998 -1.82434 -0.665706 0
M  V30 1475 O 141.273 -1.25138 -1.48899 0
M  V30 1476 C 141.556 -3.34929 1.32267 0
M  V30 1477 C 141.409 -3.47161 2.86006 0
M  V30 1478 C 142.728 -4.29863 0.943717 0
M  V30 1479 H 139.847 -0.675591 0.294526 0
M  V30 1480 H 142.489 -1.34925 1.33773 0
M  V30 1481 H 140.639 -3.78611 0.870974 0
M  V30 1482 H 142.311 -3.12302 3.39507 0
M  V30 1483 H 140.554 -2.88539 3.23925 0
M  V30 1484 H 141.225 -4.51777 3.17177 0
M  V30 1485 H 143.701 -3.9417 1.33302 0
M  V30 1486 H 142.577 -5.32494 1.33198 0
M  V30 1487 H 142.838 -4.41846 -0.149796 0
M  V30 1488 N 141.898 -0.863906 -1.31812 0
M  V30 1489 C 142.828 -0.330843 -2.31144 0
M  V30 1490 C 143.809 0.575005 -1.60087 0
M  V30 1491 O 144.994 0.493304 -1.8783 0
M  V30 1492 C 142.124 0.47374 -3.44054 0
M  V30 1493 C 141.078 -0.338481 -4.26659 0
M  V30 1494 C 140.404 0.591412 -5.31419 0
M  V30 1495 C 141.704 -1.56926 -4.98168 0
M  V30 1496 H 143.398 -1.16086 -2.75979 0
M  V30 1497 H 140.944 -0.559657 -1.32679 0
M  V30 1498 H 142.897 0.857143 -4.12591 0
M  V30 1499 H 141.621 1.33721 -2.9797 0
M  V30 1500 H 140.28 -0.703754 -3.59782 0
M  V30 1501 H 139.928 1.45199 -4.81587 0
M  V30 1502 H 139.628 0.0519022 -5.87577 0
M  V30 1503 H 141.152 0.97179 -6.02817 0
M  V30 1504 H 142.566 -1.25764 -5.59336 0
M  V30 1505 H 140.963 -2.04739 -5.64094 0
M  V30 1506 H 142.033 -2.32544 -4.25501 0
M  V30 1507 N 143.376 1.44774 -0.622745 0
M  V30 1508 C 144.622 2.0242 -0.124083 0
M  V30 1509 C 144.955 1.4881 1.24777 0
M  V30 1510 O 144.23 0.668799 1.8264 0
M  V30 1511 C 144.513 3.59957 -0.101619 0
M  V30 1512 C 144.366 4.23867 -1.50521 0
M  V30 1513 C 145.685 4.36284 0.578272 0
M  V30 1514 H 142.804 0.735528 -0.0465645 0
M  V30 1515 H 145.446 1.72447 -0.797617 0
M  V30 1516 H 143.596 3.85623 0.471934 0
M  V30 1517 H 145.268 4.09336 -2.12701 0
M  V30 1518 H 143.511 3.81684 -2.06154 0
M  V30 1519 H 144.182 5.32843 -1.4416 0
M  V30 1520 H 146.658 4.16001 0.0906057 0
M  V30 1521 H 145.534 5.46004 0.563149 0
M  V30 1522 H 145.795 4.10271 1.64713 0
M  V30 1523 N 144.854 0.36279 1.53368 0
M  V30 1524 C 145.786 -0.519668 2.23231 0
M  V30 1525 C 146.799 -1.04844 1.24546 0
M  V30 1526 O 147.988 -0.955296 1.50786 0
M  V30 1527 C 145.088 -1.72995 2.9142 0
M  V30 1528 C 144.261 -1.33316 4.16588 0
M  V30 1529 C 143.32 -2.40521 4.68013 0
M  V30 1530 O 142.346 -2.03027 5.3176 0
M  V30 1531 N 143.548 -3.72065 4.45587 0
M  V30 1532 H 146.313 0.078751 2.99597 0
M  V30 1533 H 143.874 0.187833 1.60807 0
M  V30 1534 H 145.866 -2.44184 3.22733 0
M  V30 1535 H 144.436 -2.2353 2.18525 0
M  V30 1536 H 143.656 -0.451236 3.91609 0
M  V30 1537 H 144.944 -1.04432 4.97967 0
M  V30 1538 H 144.342 -4.05304 3.94646 0
M  V30 1539 H 142.899 -4.39366 4.81457 0
M  V30 1540 N 146.332 -1.57332 0.0918853 0
M  V30 1541 C 147.242 -2.17368 -0.882505 0
M  V30 1542 C 148.258 -1.14226 -1.31257 0
M  V30 1543 O 149.434 -1.46582 -1.38115 0
M  V30 1544 C 146.499 -2.73962 -2.12476 0
M  V30 1545 C 145.56 -3.92048 -1.7492 0
M  V30 1546 C 144.793 -4.45933 -2.93223 0
M  V30 1547 O 145.016 -3.98764 -4.07852 0
M  V30 1548 O 143.95 -5.36999 -2.71875 0
M  V30 1549 H 147.776 -3.01031 -0.40172 0
M  V30 1550 H 145.361 -1.48813 -0.132291 0
M  V30 1551 H 147.243 -3.10147 -2.85283 0
M  V30 1552 H 145.918 -1.93347 -2.59613 0
M  V30 1553 H 144.825 -3.6068 -0.993025 0
M  V30 1554 H 146.158 -4.74017 -1.32548 0
M  V30 1555 N 147.81 0.181792 -1.56548 0
M  V30 1556 C 148.758 1.24461 -1.965 0
M  V30 1557 C 149.752 1.464 -0.852261 0
M  V30 1558 O 150.958 1.47103 -1.03733 0
M  V30 1559 H 147.333 0.418138 -0.625031 0
M  V30 1560 H 149.304 0.880714 -2.85107 0
M  V30 1561 C 148.053 2.57891 -2.33212 0
M  V30 1562 H 147.376 2.41829 -3.18369 0
M  V30 1563 H 148.816 3.3097 -2.65019 0
M  V30 1564 C 147.275 3.15871 -1.17163 0
M  V30 1565 O 147.805 3.9913 -0.453708 0
M  V30 1566 N 146.011 2.74808 -0.944936 0
M  V30 1567 H 145.558 2.07205 -1.53049 0
M  V30 1568 H 145.516 3.13939 -0.170286 0
M  V30 1569 N 149.288 1.51039 0.449983 0
M  V30 1570 C 150.534 1.64287 1.19923 0
M  V30 1571 C 150.889 0.348701 1.89214 0
M  V30 1572 O 150.182 -0.654751 1.80065 0
M  V30 1573 C 150.376 2.77556 2.25161 0
M  V30 1574 C 150.205 4.17862 1.66198 0
M  V30 1575 C 148.975 4.83976 1.45243 0
M  V30 1576 C 151.173 5.01388 1.14519 0
M  V30 1577 N 149.155 6.08433 0.817437 0
M  V30 1578 C 150.526 6.16743 0.634705 0
M  V30 1579 C 152.581 4.87008 1.03574 0
M  V30 1580 C 151.284 7.19295 0.0255452 0
M  V30 1581 C 153.31 5.89757 0.440489 0
M  V30 1582 C 152.672 7.04375 -0.0595112 0
M  V30 1583 H 148.771 0.655161 0.426952 0
M  V30 1584 H 151.355 1.88228 0.49781 0
M  V30 1585 H 149.526 2.553 2.92706 0
M  V30 1586 H 151.258 2.80049 2.92155 0
M  V30 1587 H 148.013 4.41627 1.71063 0
M  V30 1588 H 148.437 6.75017 0.517747 0
M  V30 1589 H 153.079 3.9866 1.4082 0
M  V30 1590 H 150.797 8.07302 -0.359071 0
M  V30 1591 H 154.383 5.80698 0.35788 0
M  V30 1592 H 153.263 7.82521 -0.512882 0
M  V30 1593 N 150.766 -0.704594 1.40972 0
M  V30 1594 C 152.012 -1.46675 1.40051 0
M  V30 1595 C 152.345 -1.94199 0.00641102 0
M  V30 1596 O 151.62 -1.68916 -0.964235 0
M  V30 1597 C 151.903 -2.68505 2.39952 0
M  V30 1598 C 151.756 -2.26805 3.88432 0
M  V30 1599 C 153.075 -3.70686 2.37233 0
M  V30 1600 H 150.194 -0.532015 0.510028 0
M  V30 1601 H 152.836 -0.803255 1.72185 0
M  V30 1602 H 150.986 -3.25114 2.1268 0
M  V30 1603 H 152.658 -1.75592 4.26574 0
M  V30 1604 H 150.901 -1.58685 4.03734 0
M  V30 1605 H 151.572 -3.14181 4.53866 0
M  V30 1606 H 154.048 -3.23731 2.61415 0
M  V30 1607 H 152.924 -4.53553 3.09162 0
M  V30 1608 H 153.185 -4.19754 1.38777 0
M  V30 1609 N 152.244 -1.26651 -0.937939 0
M  V30 1610 C 153.192 -1.08308 -2.05845 0
M  V30 1611 C 154.186 -0.0090757 -1.69398 0
M  V30 1612 O 155.392 -0.166007 -1.79233 0
M  V30 1613 H 151.767 -0.333416 -0.674046 0
M  V30 1614 H 153.738 -2.03261 -2.18467 0
M  V30 1615 C 152.487 -0.736229 -3.39816 0
M  V30 1616 H 151.81 -1.55453 -3.6834 0
M  V30 1617 H 153.25 -0.64769 -4.19024 0
M  V30 1618 C 151.709 0.558824 -3.32233 0
M  V30 1619 O 152.239 1.59621 -3.68624 0
M  V30 1620 N 150.445 0.550657 -2.85335 0
M  V30 1621 H 149.992 -0.293943 -2.55917 0
M  V30 1622 H 149.95 1.41726 -2.80644 0
M  V30 1623 N 153.722 1.14298 -1.08507 0
M  V30 1624 C 154.952 1.88945 -0.835663 0
M  V30 1625 C 155.36 1.78894 0.615928 0
M  V30 1626 O 154.703 1.1468 1.43506 0
M  V30 1627 C 154.765 3.39585 -1.17994 0
M  V30 1628 C 154.429 3.7342 -2.63451 0
M  V30 1629 C 155.426 3.73454 -3.61702 0
M  V30 1630 C 153.111 4.03368 -2.99332 0
M  V30 1631 C 155.105 4.02961 -4.93864 0
M  V30 1632 C 152.792 4.32538 -4.31687 0
M  V30 1633 C 153.79 4.32318 -5.28763 0
M  V30 1634 O 153.478 4.6078 -6.58739 0
M  V30 1635 H 153.21 0.605307 -0.300965 0
M  V30 1636 H 155.764 1.45673 -1.44806 0
M  V30 1637 H 153.994 3.83315 -0.51055 0
M  V30 1638 H 155.683 3.9554 -0.911182 0
M  V30 1639 H 156.449 3.50403 -3.35325 0
M  V30 1640 H 152.328 4.02692 -2.24411 0
M  V30 1641 H 155.872 4.02704 -5.69627 0
M  V30 1642 H 151.769 4.55059 -4.57812 0
M  V30 1643 H 152.537 4.78492 -6.64069 0
M  V30 1644 N 155.201 0.870884 1.31352 0
M  V30 1645 C 156.426 0.495957 2.01383 0
M  V30 1646 C 156.851 -0.904324 1.64935 0
M  V30 1647 O 156.209 -1.59687 0.858466 0
M  V30 1648 C 156.257 0.661433 3.54482 0
M  V30 1649 O 155.361 -0.298851 4.11316 0
M  V30 1650 H 154.702 0.197158 0.634054 0
M  V30 1651 H 157.232 1.17455 1.67527 0
M  V30 1652 H 157.242 0.555072 4.04207 0
M  V30 1653 H 155.917 1.68246 3.8035 0
M  V30 1654 H 154.494 -0.147368 3.72609 0
M  V30 1655 N 156.679 -1.44442 0.630414 0
M  V30 1656 C 157.956 -1.9549 0.0655657 0
M  V30 1657 C 158.336 -1.5724 -1.40851 0
M  V30 1658 O 157.684 -0.846116 -2.12257 0
M  V30 1659 C 157.894 -3.47812 0.287691 0
M  V30 1660 C 159.242 -4.24216 0.180513 0
M  V30 1661 O 160.266 -3.55526 0.219019 0
M  V30 1662 O 159.125 -5.46434 0.0848493 0
M  V30 1663 H 156.219 -0.826688 -0.0227177 0
M  V30 1664 H 158.765 -1.54496 0.702068 0
M  V30 1665 H 157.537 -3.687 1.31056 0
M  V30 1666 H 157.16 -3.95751 -0.382984 0
M  V30 1667 N 158.157 -0.370918 -1.53173 0
M  V30 1668 C 159.12 0.460778 -2.24521 0
M  V30 1669 C 160.12 1.00536 -1.25496 0
M  V30 1670 O 161.31 0.890266 -1.49733 0
M  V30 1671 C 158.442 1.64457 -2.98608 0
M  V30 1672 H 159.635 -0.163613 -2.99453 0
M  V30 1673 H 157.188 -0.122699 -1.55818 0
M  V30 1674 H 157.923 2.30691 -2.2793 0
M  V30 1675 H 157.708 1.26099 -3.7127 0
M  V30 1676 H 159.198 2.23384 -3.5283 0
M  V30 1677 N 159.635 1.57281 -0.100228 0
M  V30 1678 C 160.881 1.94826 0.563101 0
M  V30 1679 C 161.214 0.982475 1.67514 0
M  V30 1680 O 160.489 0.0164069 1.94493 0
M  V30 1681 C 160.772 3.42453 1.11346 0
M  V30 1682 C 160.625 4.498 0.00612081 0
M  V30 1683 C 161.944 3.91506 2.01024 0
M  V30 1684 H 159.063 0.708428 0.203221 0
M  V30 1685 H 161.705 1.8922 -0.171979 0
M  V30 1686 H 159.855 3.47361 1.7399 0
M  V30 1687 H 161.527 4.57 -0.628357 0
M  V30 1688 H 159.77 4.28756 -0.659581 0
M  V30 1689 H 160.441 5.50306 0.432109 0
M  V30 1690 H 162.917 3.88784 1.48278 0
M  V30 1691 H 161.793 4.95358 2.36457 0
M  V30 1692 H 162.054 3.31099 2.92961 0
M  V30 1693 N 161.113 -0.173488 1.56642 0
M  V30 1694 C 162.343 -0.904781 1.85734 0
M  V30 1695 C 162.751 -1.76431 0.68328 0
M  V30 1696 O 162.094 -1.802 -0.356865 0
M  V30 1697 C 162.156 -1.83382 3.09211 0
M  V30 1698 C 161.82 -1.15411 4.42187 0
M  V30 1699 C 162.817 -0.520609 5.17287 0
M  V30 1700 C 160.502 -1.15151 4.88923 0
M  V30 1701 C 162.496 0.106412 6.37311 0
M  V30 1702 C 160.183 -0.520664 6.08878 0
M  V30 1703 C 161.181 0.107196 6.82916 0
M  V30 1704 O 160.869 0.728102 8.00596 0
M  V30 1705 H 160.601 -0.268408 0.62043 0
M  V30 1706 H 163.155 -0.179096 2.04618 0
M  V30 1707 H 161.385 -2.59976 2.86268 0
M  V30 1708 H 163.074 -2.43476 3.24768 0
M  V30 1709 H 163.84 -0.514606 4.82262 0
M  V30 1710 H 159.719 -1.62961 4.31236 0
M  V30 1711 H 163.263 0.597081 6.9504 0
M  V30 1712 H 159.16 -0.524242 6.43368 0
M  V30 1713 H 159.928 0.627138 8.16094 0
M  V30 1714 N 162.591 -1.51276 -0.441967 0
M  V30 1715 C 163.868 -1.54252 -1.20273 0
M  V30 1716 C 164.248 -0.30408 -2.08898 0
M  V30 1717 O 163.596 0.711084 -2.17154 0
M  V30 1718 C 163.806 -2.85406 -2.00859 0
M  V30 1719 C 165.154 -3.37181 -2.58059 0
M  V30 1720 O 166.178 -2.86925 -2.11074 0
M  V30 1721 O 165.037 -4.24858 -3.43741 0
M  V30 1722 H 162.131 -0.619969 -0.547328 0
M  V30 1723 H 164.677 -1.63586 -0.451413 0
M  V30 1724 H 163.449 -3.67003 -1.35736 0
M  V30 1725 H 163.072 -2.79213 -2.83065 0
M  V30 1726 N 164.069 0.697108 -1.41344 0
M  V30 1727 C 165.485 1.00751 -1.2378 0
M  V30 1728 C 165.685 2.01105 -0.126066 0
M  V30 1729 O 164.741 2.47295 0.51004 0
M  V30 1730 C 166.054 1.53359 -2.58653 0
M  V30 1731 C 167.602 1.6525 -2.65822 0
M  V30 1732 C 168.077 2.2126 -4.01009 0
M  V30 1733 N 169.568 2.28622 -4.02847 0
M  V30 1734 C 170.303 2.72984 -5.04249 0
M  V30 1735 N 169.799 3.16962 -6.16041 0
M  V30 1736 N 171.592 2.72534 -4.91611 0
M  V30 1737 H 163.743 0.0322662 -2.12375 0
M  V30 1738 H 166.006 0.0768853 -0.944877 0
M  V30 1739 H 165.712 0.870773 -3.4075 0
M  V30 1740 H 165.586 2.51597 -2.81032 0
M  V30 1741 H 167.973 2.30644 -1.84086 0
M  V30 1742 H 168.054 0.655614 -2.47256 0
M  V30 1743 H 167.698 1.56482 -4.83193 0
M  V30 1744 H 167.628 3.21698 -4.16915 0
M  V30 1745 H 170.119 1.97585 -3.22131 0
M  V30 1746 H 170.432 3.49434 -6.89287 0
M  V30 1747 H 168.777 3.14875 -6.1958 0
M  V30 1748 H 171.968 2.37525 -4.0336 0
M  V30 1749 H 172.141 3.06789 -5.70775 0
M  V30 1750 N 165.547 1.27147 0.931209 0
M  V30 1751 C 166.793 1.13446 1.68101 0
M  V30 1752 C 167.126 -0.319628 1.91552 0
M  V30 1753 O 166.401 -1.23407 1.50336 0
M  V30 1754 C 166.684 1.91482 3.0497 0
M  V30 1755 C 166.537 3.44855 2.88782 0
M  V30 1756 C 167.856 1.71651 4.05246 0
M  V30 1757 H 164.975 0.413498 0.610072 0
M  V30 1758 H 167.617 1.56261 1.08086 0
M  V30 1759 H 165.767 1.55095 3.56199 0
M  V30 1760 H 167.439 3.9105 2.44698 0
M  V30 1761 H 165.682 3.71373 2.24198 0
M  V30 1762 H 166.353 3.94694 3.85902 0
M  V30 1763 H 168.829 2.0337 3.63015 0
M  V30 1764 H 167.705 2.28651 4.99009 0
M  V30 1765 H 167.966 0.663555 4.37092 0
M  V30 1766 N 167.025 -1.13721 1.09112 0
M  V30 1767 C 168.273 -1.84559 0.823562 0
M  V30 1768 C 168.594 -1.83754 -0.652658 0
M  V30 1769 O 167.864 -1.29102 -1.47342 0
M  V30 1770 H 166.444 -0.683376 0.301673 0
M  V30 1771 H 169.106 -1.37771 1.37859 0
M  V30 1772 H 168.202 -2.8917 1.17419 0
M  V30 1773 N 168.503 -0.877838 -1.30888 0
M  V30 1774 C 169.451 -0.328662 -2.30266 0
M  V30 1775 C 170.445 0.560496 -1.59859 0
M  V30 1776 O 171.651 0.445722 -1.74394 0
M  V30 1777 H 168.026 -0.0876142 -0.746879 0
M  V30 1778 H 169.997 -1.18061 -2.74051 0
M  V30 1779 C 168.746 0.448071 -3.44801 0
M  V30 1780 H 168.069 -0.226859 -3.99156 0
M  V30 1781 H 169.509 0.797541 -4.16432 0
M  V30 1782 C 167.968 1.64239 -2.94155 0
M  V30 1783 O 168.498 2.74175 -2.93583 0
M  V30 1784 N 166.704 1.47716 -2.50256 0
M  V30 1785 H 166.251 0.582821 -2.5092 0
M  V30 1786 H 166.209 2.27765 -2.16727 0
M  V30 1787 N 169.982 1.44106 -0.638065 0
M  V30 1788 C 171.231 2.01194 -0.142744 0
M  V30 1789 C 171.544 1.50835 1.24532 0
M  V30 1790 O 172.75 2.00096 1.83504 0
M  V30 1791 C 171.206 3.59319 -0.20442 0
M  V30 1792 C 170.814 4.18674 -1.59423 0
M  V30 1793 C 172.558 4.23854 0.234079 0
M  V30 1794 C 170.465 5.69045 -1.61065 0
M  V30 1795 H 169.395 0.752367 -0.0495998 0
M  V30 1796 H 172.046 1.65246 -0.797881 0
M  V30 1797 H 170.428 3.92598 0.517946 0
M  V30 1798 H 171.602 3.96921 -2.34074 0
M  V30 1799 H 169.917 3.66453 -1.97741 0
M  V30 1800 H 172.514 5.34155 0.241443 0
M  V30 1801 H 172.857 3.96688 1.2627 0
M  V30 1802 H 173.39 3.95403 -0.436025 0
M  V30 1803 H 170.129 6.00956 -2.61787 0
M  V30 1804 H 169.649 5.929 -0.90718 0
M  V30 1805 H 171.328 6.32809 -1.34766 0
M  V30 1806 N 171.46 0.379036 1.52974 0
M  V30 1807 C 172.392 -0.495963 2.2377 0
M  V30 1808 C 173.405 -1.03517 1.25651 0
M  V30 1809 O 174.594 -0.939249 1.51791 0
M  V30 1810 C 171.694 -1.69894 2.93239 0
M  V30 1811 C 170.867 -1.2889 4.17979 0
M  V30 1812 C 169.926 -2.35543 4.70538 0
M  V30 1813 O 168.952 -1.97375 5.33883 0
M  V30 1814 N 170.154 -3.67318 4.49508 0
M  V30 1815 H 172.919 0.110523 2.99496 0
M  V30 1816 H 170.48 0.204878 1.60598 0
M  V30 1817 H 172.472 -2.40747 3.25304 0
M  V30 1818 H 171.042 -2.212 2.20883 0
M  V30 1819 H 170.262 -0.409676 3.92065 0
M  V30 1820 H 171.55 -0.991443 4.99047 0
M  V30 1821 H 170.948 -4.01095 3.98923 0
M  V30 1822 H 169.505 -4.34235 4.8609 0
M  V30 1823 N 172.938 -1.57226 0.108567 0
M  V30 1824 C 173.871 -2.10447 -0.882464 0
M  V30 1825 C 174.849 -1.01829 -1.26766 0
M  V30 1826 O 176.033 -1.29415 -1.37054 0
M  V30 1827 C 173.16 -2.59258 -2.17952 0
M  V30 1828 C 172.206 -3.79662 -1.94318 0
M  V30 1829 S 173.039 -5.22586 -1.16892 0
M  V30 1830 C 174.195 -5.74758 -2.47799 0
M  V30 1831 H 174.428 -2.94178 -0.429745 0
M  V30 1832 H 171.961 -1.54043 -0.105 0
M  V30 1833 H 173.919 -2.88036 -2.92482 0
M  V30 1834 H 172.58 -1.75728 -2.60343 0
M  V30 1835 H 171.773 -4.11928 -2.90399 0
M  V30 1836 H 171.375 -3.51446 -1.27913 0
M  V30 1837 H 173.667 -5.83846 -3.43701 0
M  V30 1838 H 174.61 -6.73027 -2.20093 0
M  V30 1839 H 175.018 -5.02763 -2.56689 0
M  V30 1840 N 174.416 0.165178 -1.56732 0
M  V30 1841 C 175.641 0.900253 -1.86843 0
M  V30 1842 C 176.066 1.74766 -0.695596 0
M  V30 1843 O 175.424 1.77786 0.35522 0
M  V30 1844 C 175.472 1.74777 -3.15413 0
M  V30 1845 O 174.576 2.85007 -2.98068 0
M  V30 1846 H 173.917 0.251832 -0.614391 0
M  V30 1847 H 176.447 0.161468 -2.03962 0
M  V30 1848 H 176.457 2.14646 -3.46974 0
M  V30 1849 H 175.132 1.12537 -4.00385 0
M  V30 1850 H 173.709 2.48676 -2.77875 0
M  V30 1851 N 175.894 1.51508 0.433938 0
M  V30 1852 C 177.31 1.39759 0.770682 0
M  V30 1853 C 177.51 0.482594 1.95636 0
M  V30 1854 O 176.566 -0.0609691 2.52426 0
M  V30 1855 C 177.879 2.81851 1.04787 0
M  V30 1856 C 179.427 2.91025 1.1521 0
M  V30 1857 C 179.902 4.34032 1.46219 0
M  V30 1858 N 181.393 4.37154 1.53136 0
M  V30 1859 C 182.128 5.4484 1.78709 0
M  V30 1860 N 181.624 6.62682 2.02051 0
M  V30 1861 N 183.417 5.32324 1.80519 0
M  V30 1862 H 175.568 2.09548 -0.346892 0
M  V30 1863 H 177.831 0.943446 -0.0928074 0
M  V30 1864 H 177.537 3.50815 0.249304 0
M  V30 1865 H 177.411 3.21386 1.97461 0
M  V30 1866 H 179.798 2.22257 1.94128 0
M  V30 1867 H 179.879 2.54983 0.204281 0
M  V30 1868 H 179.523 5.03351 0.678274 0
M  V30 1869 H 179.453 4.6759 2.42212 0
M  V30 1870 H 181.944 3.52197 1.36987 0
M  V30 1871 H 182.257 7.40543 2.20943 0
M  V30 1872 H 180.602 6.65791 1.99366 0
M  V30 1873 H 183.793 4.39246 1.61805 0
M  V30 1874 H 183.966 6.16328 2.00111 0
M  V30 1875 N 177.372 -0.689602 1.41712 0
M  V30 1876 C 178.621 -1.44534 1.40686 0
M  V30 1877 C 178.934 -1.95588 0.0213352 0
M  V30 1878 O 180.14 -2.71271 -0.111534 0
M  V30 1879 C 178.596 -2.61387 2.47396 0
M  V30 1880 C 178.204 -2.17094 3.91885 0
M  V30 1881 C 179.948 -3.38986 2.55517 0
M  V30 1882 C 177.855 -3.3094 4.90135 0
M  V30 1883 H 176.785 -0.542925 0.52321 0
M  V30 1884 H 179.436 -0.748054 1.6756 0
M  V30 1885 H 177.818 -3.33412 2.13664 0
M  V30 1886 H 178.992 -1.52318 4.34897 0
M  V30 1887 H 177.307 -1.52473 3.8748 0
M  V30 1888 H 179.904 -4.23747 3.26102 0
M  V30 1889 H 180.247 -3.84578 1.59391 0
M  V30 1890 H 180.78 -2.74021 2.8837 0
M  V30 1891 H 177.519 -2.90355 5.87685 0
M  V30 1892 H 177.039 -3.94546 4.51767 0
M  V30 1893 H 178.718 -3.9663 5.11169 0
M  V30 1894 N 178.85 -1.27639 -0.924453 0
M  V30 1895 C 179.78 -1.13166 -2.04244 0
M  V30 1896 C 180.761 -0.032256 -1.70069 0
M  V30 1897 O 181.946 -0.207328 -1.9309 0
M  V30 1898 C 179.076 -0.781496 -3.38393 0
M  V30 1899 C 178.03 -1.83449 -3.86692 0
M  V30 1900 C 177.356 -1.33822 -5.17683 0
M  V30 1901 C 178.656 -3.23917 -4.09726 0
M  V30 1902 H 180.35 -2.06689 -2.1661 0
M  V30 1903 H 177.896 -0.995136 -1.04082 0
M  V30 1904 H 179.849 -0.667057 -4.16087 0
M  V30 1905 H 178.573 0.189439 -3.2605 0
M  V30 1906 H 177.232 -1.93789 -3.11193 0
M  V30 1907 H 176.88 -0.35665 -5.01734 0
M  V30 1908 H 176.58 -2.04224 -5.50968 0
M  V30 1909 H 178.104 -1.23679 -5.97943 0
M  V30 1910 H 179.518 -3.16559 -4.77978 0
M  V30 1911 H 177.915 -3.92059 -4.54324 0
M  V30 1912 H 178.985 -3.68729 -3.14908 0
M  V30 1913 N 180.328 1.1314 -1.09713 0
M  V30 1914 C 181.576 1.84119 -0.833338 0
M  V30 1915 C 181.897 1.84097 0.642904 0
M  V30 1916 O 181.167 1.29881 1.46655 0
M  V30 1917 H 179.747 0.681766 -0.305293 0
M  V30 1918 H 182.409 1.37038 -1.38588 0
M  V30 1919 H 181.505 2.88543 -1.18951 0
M  V30 1920 N 181.806 0.884767 1.30421 0
M  V30 1921 C 182.769 0.356277 2.26414 0
M  V30 1922 C 183.769 -0.501124 1.52792 0
M  V30 1923 O 184.959 -0.30831 1.7145 0
M  V30 1924 C 182.091 -0.492316 3.37326 0
M  V30 1925 H 183.284 1.20389 2.74675 0
M  V30 1926 H 180.837 0.661607 1.41607 0
M  V30 1927 H 181.572 -1.36052 2.94381 0
M  V30 1928 H 181.357 0.121832 3.91911 0
M  V30 1929 H 182.847 -0.853871 4.08777 0
M  V30 1930 N 183.284 -1.43765 0.645699 0
M  V30 1931 C 184.561 -1.9541 0.0862963 0
M  V30 1932 C 184.941 -1.58725 -1.39175 0
M  V30 1933 O 184.289 -0.868581 -2.11348 0
M  V30 1934 C 184.499 -3.47488 0.324565 0
M  V30 1935 C 185.847 -4.24001 0.225497 0
M  V30 1936 O 186.871 -3.55274 0.256715 0
M  V30 1937 O 185.73 -5.46313 0.142801 0
M  V30 1938 H 182.824 -0.826882 -0.0139483 0
M  V30 1939 H 185.37 -1.53743 0.718415 0
M  V30 1940 H 184.142 -3.67289 1.3496 0
M  V30 1941 H 183.765 -3.96135 -0.340987 0
M  V30 1942 N 184.763 -0.387143 -1.52771 0
M  V30 1943 C 186.009 0.196025 -2.0185 0
M  V30 1944 C 186.342 1.46641 -1.27319 0
M  V30 1945 O 185.617 1.90889 -0.373032 0
M  V30 1946 C 185.9 0.466136 -3.5707 0
M  V30 1947 C 185.753 -0.819385 -4.42274 0
M  V30 1948 C 187.072 1.25768 -4.21747 0
M  V30 1949 H 184.191 0.0697708 -0.73369 0
M  V30 1950 H 186.833 -0.516286 -1.82851 0
M  V30 1951 H 184.983 1.07293 -3.7339 0
M  V30 1952 H 186.655 -1.4563 -4.37709 0
M  V30 1953 H 184.898 -1.43517 -4.09372 0
M  V30 1954 H 185.569 -0.585065 -5.48891 0
M  V30 1955 H 188.045 0.744167 -4.09391 0
M  V30 1956 H 186.921 1.41541 -5.30337 0
M  V30 1957 H 187.182 2.27228 -3.79236 0
M  V30 1958 N 186.241 1.57166 -0.116904 0
M  V30 1959 C 187.657 1.5779 0.239693 0
M  V30 1960 C 187.857 1.1295 1.66867 0
M  V30 1961 O 186.913 0.81592 2.38954 0
M  V30 1962 C 188.226 3.00699 0.00828202 0
M  V30 1963 C 189.774 3.12912 0.0743438 0
M  V30 1964 C 190.249 4.57817 -0.129348 0
M  V30 1965 N 191.74 4.63139 -0.075247 0
M  V30 1966 C 192.475 5.73023 -0.207788 0
M  V30 1967 N 191.971 6.91665 -0.396382 0
M  V30 1968 N 193.764 5.61906 -0.14751 0
M  V30 1969 H 185.915 1.84615 -1.05029 0
M  V30 1970 H 188.178 0.85311 -0.41341 0
M  V30 1971 H 187.884 3.37784 -0.979531 0
M  V30 1972 H 187.758 3.69848 0.741077 0
M  V30 1973 H 190.145 2.75686 1.05268 0
M  V30 1974 H 190.226 2.4631 -0.690297 0
M  V30 1975 H 189.87 4.95742 -1.10465 0
M  V30 1976 H 189.8 5.22507 0.655253 0
M  V30 1977 H 192.291 3.7784 0.0670898 0
M  V30 1978 H 192.604 7.71255 -0.488437 0
M  V30 1979 H 190.949 6.93654 -0.432329 0
M  V30 1980 H 194.14 4.681 -0.00115036 0
M  V30 1981 H 194.313 6.47501 -0.254247 0
M  V30 1982 N 187.719 -0.156864 1.56817 0
M  V30 1983 C 188.649 -1.19589 2.00551 0
M  V30 1984 C 189.63 -1.4536 0.883426 0
M  V30 1985 O 190.815 -1.56449 1.15054 0
M  V30 1986 C 187.945 -2.53143 2.37773 0
M  V30 1987 C 186.899 -2.41913 3.53075 0
M  V30 1988 C 186.225 -3.80088 3.76081 0
M  V30 1989 C 187.525 -1.91157 4.86062 0
M  V30 1990 H 189.219 -0.832293 2.87599 0
M  V30 1991 H 186.765 -0.398918 1.38364 0
M  V30 1992 H 188.718 -3.26047 2.66967 0
M  V30 1993 H 187.442 -2.91319 1.4765 0
M  V30 1994 H 186.101 -1.71462 3.24031 0
M  V30 1995 H 185.749 -4.15683 2.83225 0
M  V30 1996 H 185.449 -3.73439 4.53671 0
M  V30 1997 H 186.973 -4.54556 4.0769 0
M  V30 1998 H 188.387 -2.53846 5.14038 0
M  V30 1999 H 186.784 -1.95422 5.67389 0
M  V30 2000 H 187.854 -0.866673 4.77092 0
M  V30 2001 N 189.197 -1.51736 -0.425897 0
M  V30 2002 C 190.443 -1.65214 -1.1761 0
M  V30 2003 C 190.776 -0.372778 -1.90589 0
M  V30 2004 O 190.051 0.628139 -1.84078 0
M  V30 2005 C 190.334 -2.86312 -2.18398 0
M  V30 2006 C 190.187 -4.24254 -1.49426 0
M  V30 2007 C 191.506 -3.02925 -3.19256 0
M  V30 2008 H 188.625 -0.601263 -0.426206 0
M  V30 2009 H 191.267 -1.8425 -0.463882 0
M  V30 2010 H 189.417 -2.70213 -2.79137 0
M  V30 2011 H 191.089 -4.52046 -0.919362 0
M  V30 2012 H 189.332 -4.26426 -0.796432 0
M  V30 2013 H 190.003 -5.05001 -2.22885 0
M  V30 2014 H 192.479 -3.1781 -2.68581 0
M  V30 2015 H 191.355 -3.89199 -3.8706 0
M  V30 2016 H 191.616 -2.15497 -3.86023 0
M  V30 2017 N 190.675 0.682077 -1.42076 0
M  V30 2018 C 192.086 1.26246 -1.37546 0
M  V30 2019 C 192.437 1.96092 -0.0651481 0
M  V30 2020 O 191.562 1.99587 0.836297 0
M  V30 2021 C 192.157 2.29594 -2.49143 0
M  V30 2022 C 190.716 2.83175 -2.47969 0
M  V30 2023 C 189.863 1.57395 -2.28303 0
M  V30 2024 H 192.814 0.475937 -1.51395 0
M  V30 2025 H 192.835 3.11175 -2.18976 0
M  V30 2026 H 192.347 1.78729 -3.44496 0
M  V30 2027 H 190.448 3.3818 -1.56413 0
M  V30 2028 H 190.561 3.32687 -3.44755 0
M  V30 2029 H 188.925 1.83699 -1.76428 0
M  V30 2030 H 189.708 1.08507 -3.25701 0
M  V30 2031 N 192.153 1.28127 0.917671 0
M  V30 2032 C 193.43 1.05761 1.64542 0
M  V30 2033 C 193.81 -0.404344 2.07191 0
M  V30 2034 O 193.158 -1.38963 1.81388 0
M  V30 2035 C 193.368 2.02857 2.83989 0
M  V30 2036 C 194.716 2.32786 3.551 0
M  V30 2037 O 195.74 2.0091 2.94132 0
M  V30 2038 O 194.599 2.87169 4.64969 0
M  V30 2039 H 191.693 0.403916 0.721652 0
M  V30 2040 H 194.239 1.39431 0.967322 0
M  V30 2041 H 193.011 3.01407 2.49538 0
M  V30 2042 H 192.634 1.69809 3.59514 0
M  V30 2043 N 193.631 -1.12557 1.10312 0
M  V30 2044 C 194.879 -1.83675 0.843091 0
M  V30 2045 C 195.2 -1.84435 -0.633131 0
M  V30 2046 O 194.47 -1.30657 -1.45964 0
M  V30 2047 H 193.05 -0.680138 0.308904 0
M  V30 2048 H 195.712 -1.36301 1.39313 0
M  V30 2049 H 194.808 -2.87908 1.2048 0
M  V30 2050 N 195.109 -0.891671 -1.2995 0
M  V30 2051 C 196.356 -0.513501 -1.95881 0
M  V30 2052 C 196.684 0.938655 -1.70351 0
M  V30 2053 O 195.939 1.67936 -1.00478 0
M  V30 2054 C 196.238 -0.742868 -3.49594 0
M  V30 2055 C 195.904 -2.17114 -3.95186 0
M  V30 2056 C 194.566 -2.56169 -4.07346 0
M  V30 2057 C 196.918 -3.10162 -4.18866 0
M  V30 2058 C 194.246 -3.87469 -4.4055 0
M  V30 2059 C 196.598 -4.41001 -4.53542 0
M  V30 2060 C 195.262 -4.79941 -4.63911 0
M  V30 2061 H 194.532 -0.187903 -0.71678 0
M  V30 2062 H 197.179 -1.1288 -1.54694 0
M  V30 2063 H 195.484 -0.044586 -3.91775 0
M  V30 2064 H 197.181 -0.429767 -3.9869 0
M  V30 2065 H 193.771 -1.85801 -3.86233 0
M  V30 2066 H 197.955 -2.81206 -4.08946 0
M  V30 2067 H 193.211 -4.17371 -4.46779 0
M  V30 2068 H 197.385 -5.13133 -4.70815 0
M  V30 2069 H 195.012 -5.81719 -4.89395 0
M  V30 2070 N 196.587 1.43421 -0.653314 0
M  V30 2071 C 197.864 1.95361 -0.0966581 0
M  V30 2072 C 198.244 1.59461 1.38331 0
M  V30 2073 O 197.592 0.879777 2.10884 0
M  V30 2074 C 197.802 3.47311 -0.342988 0
M  V30 2075 C 199.15 4.23875 -0.24798 0
M  V30 2076 O 200.174 3.55133 -0.275553 0
M  V30 2077 O 199.033 5.4623 -0.171771 0
M  V30 2078 H 196.127 0.826945 0.00956291 0
M  V30 2079 H 198.673 1.5336 -0.726558 0
M  V30 2080 H 197.445 3.66569 -1.36906 0
M  V30 2081 H 197.068 3.9631 0.319975 0
M  V30 2082 N 198.065 0.39524 1.52563 0
M  V30 2083 C 199.314 -0.186321 2.00838 0
M  V30 2084 C 199.627 -1.47402 1.28577 0
M  V30 2085 O 200.833 -2.13599 1.67593 0
M  V30 2086 C 199.289 -0.382595 3.57861 0
M  V30 2087 C 198.897 0.892202 4.39026 0
M  V30 2088 C 200.641 -0.9202 4.14406 0
M  V30 2089 C 198.548 0.66388 5.87662 0
M  V30 2090 H 197.478 -0.0734041 0.750418 0
M  V30 2091 H 200.129 0.518552 1.76021 0
M  V30 2092 H 198.511 -1.14946 3.7895 0
M  V30 2093 H 199.685 1.66414 4.29701 0
M  V30 2094 H 198 1.35519 3.9373 0
M  V30 2095 H 200.597 -1.10683 5.23119 0
M  V30 2096 H 200.94 -1.89096 3.70875 0
M  V30 2097 H 201.473 -0.212751 3.97231 0
M  V30 2098 H 198.212 1.6058 6.35527 0
M  V30 2099 H 197.732 -0.0690193 5.9976 0
M  V30 2100 H 199.411 0.300699 6.46301 0
M  V30 2101 N 199.544 -1.57102 0.125237 0
M  V30 2102 C 200.792 -1.95021 -0.530198 0
M  V30 2103 C 201.113 -1.00982 -1.66816 0
M  V30 2104 O 200.383 -0.0672693 -1.95784 0
M  V30 2105 H 198.963 -0.720046 -0.198853 0
M  V30 2106 H 201.625 -1.93916 0.19564 0
M  V30 2107 H 200.721 -2.98211 -0.920681 0
M  V30 2108 N 201.022 0.148545 -1.56898 0
M  V30 2109 C 202.269 0.861418 -1.83264 0
M  V30 2110 C 202.597 1.81239 -0.705883 0
M  V30 2111 O 201.852 1.93305 0.305212 0
M  V30 2112 C 202.151 1.67064 -3.1595 0
M  V30 2113 C 201.817 0.866591 -4.42494 0
M  V30 2114 C 200.479 0.644762 -4.76861 0
M  V30 2115 C 202.831 0.30418 -5.20312 0
M  V30 2116 C 200.159 -0.15021 -5.86508 0
M  V30 2117 C 202.511 -0.477824 -6.30793 0
M  V30 2118 C 201.175 -0.710244 -6.63711 0
M  V30 2119 H 200.445 0.315215 -0.670612 0
M  V30 2120 H 203.092 0.125142 -1.91091 0
M  V30 2121 H 201.397 2.47698 -3.03567 0
M  V30 2122 H 203.094 2.22566 -3.33565 0
M  V30 2123 H 199.684 1.04955 -4.15551 0
M  V30 2124 H 203.868 0.462844 -4.94137 0
M  V30 2125 H 199.124 -0.339796 -6.10455 0
M  V30 2126 H 203.298 -0.92076 -6.90286 0
M  V30 2127 H 200.925 -1.3281 -7.48509 0
M  V30 2128 N 202.5 1.5196 0.417844 0
M  V30 2129 C 203.916 1.40569 0.755816 0
M  V30 2130 C 204.116 0.503316 1.95113 0
M  V30 2131 O 203.172 -0.0341925 2.52477 0
M  V30 2132 C 204.485 2.82947 1.01791 0
M  V30 2133 C 206.033 2.92231 1.12116 0
M  V30 2134 C 206.508 4.35559 1.41608 0
M  V30 2135 N 207.999 4.38753 1.48491 0
M  V30 2136 C 208.734 5.46705 1.7292 0
M  V30 2137 N 208.23 6.64788 1.95011 0
M  V30 2138 N 210.023 5.34209 1.74863 0
M  V30 2139 H 202.174 2.09168 -0.369098 0
M  V30 2140 H 204.437 0.942409 -0.102809 0
M  V30 2141 H 204.143 3.5106 0.212081 0
M  V30 2142 H 204.017 3.23462 1.94042 0
M  V30 2143 H 206.404 2.24304 1.9176 0
M  V30 2144 H 206.485 2.55185 0.177225 0
M  V30 2145 H 206.129 5.04042 0.624848 0
M  V30 2146 H 206.059 4.70133 2.37239 0
M  V30 2147 H 208.55 3.5363 1.33244 0
M  V30 2148 H 208.863 7.42845 2.13076 0
M  V30 2149 H 207.208 6.67869 1.92293 0
M  V30 2150 H 210.399 4.40937 1.57137 0
M  V30 2151 H 210.572 6.18415 1.93563 0
M  V30 2152 N 203.978 -0.674533 1.42435 0
M  V30 2153 C 205.394 -0.98769 1.25367 0
M  V30 2154 C 205.594 -2.00879 0.158044 0
M  V30 2155 O 204.65 -2.48075 -0.470633 0
M  V30 2156 C 205.963 -1.49224 2.6106 0
M  V30 2157 C 207.511 -1.61 2.68417 0
M  V30 2158 C 207.986 -2.14852 4.04478 0
M  V30 2159 N 209.477 -2.22185 4.06434 0
M  V30 2160 C 210.212 -2.64928 5.08528 0
M  V30 2161 N 209.708 -3.07121 6.21006 0
M  V30 2162 N 211.501 -2.64679 4.95885 0
M  V30 2163 H 203.652 0.00152503 2.124 0
M  V30 2164 H 205.915 -0.0618434 0.945981 0
M  V30 2165 H 205.621 -0.816453 3.42092 0
M  V30 2166 H 205.495 -2.47094 2.84999 0
M  V30 2167 H 207.882 -2.27686 1.87732 0
M  V30 2168 H 207.963 -0.616195 2.48267 0
M  V30 2169 H 207.607 -1.48775 4.85622 0
M  V30 2170 H 207.537 -3.15024 4.2198 0
M  V30 2171 H 210.028 -1.92435 3.25234 0
M  V30 2172 H 210.341 -3.38423 6.94759 0
M  V30 2173 H 208.686 -3.04978 6.24511 0
M  V30 2174 H 211.877 -2.31078 4.07088 0
M  V30 2175 H 212.05 -2.9767 5.75584 0
M  V30 2176 N 205.456 -1.28612 -0.910864 0
M  V30 2177 C 206.681 -1.1891 -1.69927 0
M  V30 2178 C 207.106 0.248372 -1.86453 0
M  V30 2179 O 206.464 1.17961 -1.37676 0
M  V30 2180 C 206.512 -1.89578 -3.06745 0
M  V30 2181 O 205.616 -1.20521 -3.94396 0
M  V30 2182 H 204.957 -0.412632 -0.520222 0
M  V30 2183 H 207.487 -1.69985 -1.1387 0
M  V30 2184 H 207.497 -1.97597 -3.56958 0
M  V30 2185 H 206.172 -2.94136 -2.94035 0
M  V30 2186 H 204.749 -1.20684 -3.52831 0
M  V30 2187 N 206.934 1.1197 -1.10907 0
M  V30 2188 C 208.18 1.84059 -0.865674 0
M  V30 2189 C 208.535 1.82731 0.602254 0
M  V30 2190 O 207.828 1.26543 1.43866 0
M  V30 2191 C 208.022 3.30749 -1.35425 0
M  V30 2192 C 207.851 3.46363 -2.86815 0
M  V30 2193 C 206.621 3.59712 -3.54874 0
M  V30 2194 C 208.819 3.41116 -3.84895 0
M  V30 2195 N 206.801 3.63741 -4.94536 0
M  V30 2196 C 208.172 3.51698 -5.10596 0
M  V30 2197 C 210.227 3.24612 -3.77533 0
M  V30 2198 C 208.93 3.4748 -6.29802 0
M  V30 2199 C 210.956 3.21708 -4.96244 0
M  V30 2200 C 210.318 3.32856 -6.20795 0
M  V30 2201 H 206.417 0.689015 -0.369841 0
M  V30 2202 H 209.001 1.34016 -1.41237 0
M  V30 2203 H 207.172 3.79322 -0.834814 0
M  V30 2204 H 208.904 3.90718 -1.05458 0
M  V30 2205 H 205.659 3.62038 -3.05329 0
M  V30 2206 H 206.083 3.69408 -5.67333 0
M  V30 2207 H 210.725 3.14883 -2.8215 0
M  V30 2208 H 208.443 3.55978 -7.25469 0
M  V30 2209 H 212.029 3.10113 -4.92261 0
M  V30 2210 H 210.909 3.3059 -7.11112 0
M  V30 2211 N 208.412 0.89855 1.29475 0
M  V30 2212 C 209.322 0.379974 2.31502 0
M  V30 2213 C 210.338 -0.524695 1.659 0
M  V30 2214 O 211.514 -0.414551 1.97087 0
M  V30 2215 C 208.579 -0.385138 3.44554 0
M  V30 2216 C 207.64 0.550914 4.2575 0
M  V30 2217 C 206.873 -0.177778 5.33404 0
M  V30 2218 O 207.096 -1.40189 5.52904 0
M  V30 2219 O 206.03 0.479106 5.9999 0
M  V30 2220 H 209.856 1.22639 2.77837 0
M  V30 2221 H 207.441 0.662834 1.33891 0
M  V30 2222 H 209.323 -0.817841 4.13388 0
M  V30 2223 H 207.998 -1.20763 3.0033 0
M  V30 2224 H 206.905 1.03271 3.59564 0
M  V30 2225 H 208.238 1.33979 4.73614 0
M  V30 2226 N 209.89 -1.43072 0.660911 0
M  V30 2227 C 211.167 -1.95307 0.107017 0
M  V30 2228 C 211.547 -1.60192 -1.37484 0
M  V30 2229 O 210.895 -0.890949 -2.10415 0
M  V30 2230 C 211.105 -3.47124 0.361402 0
M  V30 2231 C 212.453 -4.23738 0.270455 0
M  V30 2232 O 213.477 -3.54981 0.294382 0
M  V30 2233 O 212.336 -5.46131 0.200737 0
M  V30 2234 H 209.43 -0.826984 -0.00517729 0
M  V30 2235 H 211.976 -1.52972 0.734681 0
M  V30 2236 H 210.748 -3.65837 1.38848 0
M  V30 2237 H 210.371 -3.96475 -0.298953 0
M  V30 2238 N 211.368 -0.403325 -1.52352 0
M  V30 2239 C 212.331 0.413051 -2.25447 0
M  V30 2240 C 213.331 0.978513 -1.276 0
M  V30 2241 O 214.521 0.858305 -1.51587 0
M  V30 2242 C 211.653 1.58087 -3.02029 0
M  V30 2243 H 212.846 -0.227094 -2.99039 0
M  V30 2244 H 210.399 -0.155722 -1.55522 0
M  V30 2245 H 211.134 2.25804 -2.32772 0
M  V30 2246 H 210.919 1.18195 -3.73861 0
M  V30 2247 H 212.409 2.1585 -3.57489 0
M  V30 2248 N 212.846 1.57033 -0.133567 0
M  V30 2249 C 213.776 2.1909 0.807567 0
M  V30 2250 C 214.757 1.13517 1.26681 0
M  V30 2251 O 215.942 1.41809 1.32679 0
M  V30 2252 C 213.072 2.80188 2.05212 0
M  V30 2253 C 212.026 3.91471 1.73015 0
M  V30 2254 C 211.352 4.39443 3.04622 0
M  V30 2255 C 212.652 5.12886 0.987168 0
M  V30 2256 H 214.346 2.97988 0.290403 0
M  V30 2257 H 211.892 1.43335 0.138239 0
M  V30 2258 H 213.845 3.22264 2.71521 0
M  V30 2259 H 212.569 1.98601 2.59278 0
M  V30 2260 H 211.228 3.49993 1.0909 0
M  V30 2261 H 210.876 3.54695 3.56651 0
M  V30 2262 H 210.576 5.14495 2.83847 0
M  V30 2263 H 212.1 4.8418 3.72024 0
M  V30 2264 H 213.514 5.51891 1.55208 0
M  V30 2265 H 211.911 5.93615 0.87985 0
M  V30 2266 H 212.981 4.84894 -0.0235286 0
M  V30 2267 N 214.325 -0.140222 1.56975 0
M  V30 2268 C 215.235 -1.19223 2.02047 0
M  V30 2269 C 216.251 -1.46612 0.937062 0
M  V30 2270 O 217.427 -1.58148 1.24704 0
M  V30 2271 C 214.492 -2.50414 2.39778 0
M  V30 2272 C 213.553 -2.30612 3.621 0
M  V30 2273 C 212.786 -3.55547 3.98023 0
M  V30 2274 O 213.009 -4.62004 3.34528 0
M  V30 2275 O 211.943 -3.47808 4.91237 0
M  V30 2276 H 215.769 -0.839559 2.91865 0
M  V30 2277 H 213.354 -0.349453 1.45256 0
M  V30 2278 H 215.236 -3.27747 2.64877 0
M  V30 2279 H 213.911 -2.85198 1.53114 0
M  V30 2280 H 212.818 -1.51207 3.4218 0
M  V30 2281 H 214.151 -2.00741 4.49404 0
M  V30 2282 N 215.803 -1.52179 -0.40978 0
M  V30 2283 C 217.028 -1.70347 -1.18308 0
M  V30 2284 C 217.453 -0.411887 -1.83535 0
M  V30 2285 O 216.811 0.630587 -1.6998 0
M  V30 2286 C 216.859 -2.83977 -2.22238 0
M  V30 2287 O 215.963 -2.495 -3.28365 0
M  V30 2288 H 215.304 -0.567103 -0.345384 0
M  V30 2289 H 217.834 -1.98879 -0.480445 0
M  V30 2290 H 217.844 -3.0887 -2.66577 0
M  V30 2291 H 216.519 -3.77685 -1.74146 0
M  V30 2292 H 215.096 -2.35277 -2.89308 0
M  V30 2293 N 217.281 0.66697 -1.42791 0
M  V30 2294 C 218.527 1.4291 -1.43891 0
M  V30 2295 C 218.86 1.94114 -0.0578972 0
M  V30 2296 O 218.135 1.71414 0.91911 0
M  V30 2297 C 218.418 2.62049 -2.46987 0
M  V30 2298 C 218.271 2.16426 -3.94309 0
M  V30 2299 C 219.59 3.64266 -2.46978 0
M  V30 2300 H 216.709 0.518306 -0.523954 0
M  V30 2301 H 219.351 0.757321 -1.74255 0
M  V30 2302 H 217.501 3.19361 -2.21225 0
M  V30 2303 H 219.173 1.64221 -4.31079 0
M  V30 2304 H 217.416 1.47925 -4.078 0
M  V30 2305 H 218.087 3.02038 -4.62036 0
M  V30 2306 H 220.563 3.16686 -2.69906 0
M  V30 2307 H 219.439 4.45196 -3.21079 0
M  V30 2308 H 219.7 4.15927 -1.49857 0
M  V30 2309 N 218.759 1.29093 0.90403 0
M  V30 2310 C 220.175 1.07011 1.1841 0
M  V30 2311 C 220.375 -0.181358 2.00682 0
M  V30 2312 O 219.431 -0.880331 2.36657 0
M  V30 2313 C 220.744 2.32311 1.90924 0
M  V30 2314 C 222.292 2.37587 2.03768 0
M  V30 2315 C 222.767 3.62679 2.79693 0
M  V30 2316 N 224.258 3.63376 2.87249 0
M  V30 2317 C 224.993 4.56848 3.46522 0
M  V30 2318 N 224.489 5.60648 4.06996 0
M  V30 2319 N 226.282 4.44426 3.44154 0
M  V30 2320 H 218.433 2.09412 0.354993 0
M  V30 2321 H 220.696 0.922181 0.219742 0
M  V30 2322 H 220.402 3.23536 1.37905 0
M  V30 2323 H 220.276 2.39483 2.91424 0
M  V30 2324 H 222.663 1.46853 2.55965 0
M  V30 2325 H 222.744 2.34403 1.02415 0
M  V30 2326 H 222.388 4.53762 2.28173 0
M  V30 2327 H 222.318 3.63119 3.81381 0
M  V30 2328 H 224.809 2.88321 2.44293 0
M  V30 2329 H 225.122 6.28101 4.50232 0
M  V30 2330 H 223.467 5.64463 4.05471 0
M  V30 2331 H 226.658 3.62529 2.96126 0
M  V30 2332 H 226.831 5.17457 3.90054 0
M  V30 2333 N 220.237 -1.11381 1.11499 0
M  V30 2334 C 221.2 -2.15622 0.777153 0
M  V30 2335 C 222.2 -1.59504 -0.203779 0
M  V30 2336 O 223.39 -1.74188 0.020782 0
M  V30 2337 C 220.522 -3.40556 0.153116 0
M  V30 2338 H 221.715 -2.47021 1.70061 0
M  V30 2339 H 219.268 -1.26577 0.916952 0
M  V30 2340 H 220.003 -3.14767 -0.780536 0
M  V30 2341 H 219.788 -3.8257 0.859238 0
M  V30 2342 H 221.278 -4.17546 -0.0671044 0
M  V30 2343 N 221.715 -0.905404 -1.28997 0
M  V30 2344 C 222.678 -0.392253 -2.25819 0
M  V30 2345 C 223.678 0.476753 -1.5357 0
M  V30 2346 O 224.868 0.280994 -1.71919 0
M  V30 2347 C 222 0.438588 -3.38067 0
M  V30 2348 H 223.193 -1.24743 -2.72725 0
M  V30 2349 H 220.746 -0.684051 -1.40536 0
M  V30 2350 H 221.481 1.31352 -2.96508 0
M  V30 2351 H 221.266 -0.184167 -3.91667 0
M  V30 2352 H 222.756 0.78873 -4.10084 0
M  V30 2353 N 223.193 1.4272 -0.668489 0
M  V30 2354 C 224.441 2.01226 -0.187769 0
M  V30 2355 C 224.762 1.53092 1.2078 0
M  V30 2356 O 224.032 0.74993 1.80977 0
M  V30 2357 H 222.612 0.744041 -0.0664272 0
M  V30 2358 H 225.274 1.74723 -0.863583 0
M  V30 2359 H 224.37 3.11556 -0.184166 0
M  V30 2360 N 224.671 0.411399 1.52136 0
M  V30 2361 C 225.919 -0.163322 2.01439 0
M  V30 2362 C 226.24 -1.45453 1.29879 0
M  V30 2363 O 225.51 -1.91225 0.4254 0
M  V30 2364 H 224.09 -0.0633447 0.744309 0
M  V30 2365 H 226.752 0.548161 1.87033 0
M  V30 2366 H 225.848 -0.357817 3.10042 0
M  V30 2367 N 226.149 -1.5696 0.141893 0
M  V30 2368 C 227.096 -2.16501 -0.799737 0
M  V30 2369 C 228.066 -1.09643 -1.24771 0
M  V30 2370 O 229.251 -1.3766 -1.32115 0
M  V30 2371 C 226.391 -2.78679 -2.03549 0
M  V30 2372 C 225.504 -3.99914 -1.6338 0
M  V30 2373 C 224.639 -4.50106 -2.82096 0
M  V30 2374 C 223.678 -5.63819 -2.38275 0
M  V30 2375 N 222.815 -6.08651 -3.49983 0
M  V30 2376 H 227.655 -2.96632 -0.285179 0
M  V30 2377 H 225.192 -1.46533 -0.129053 0
M  V30 2378 H 227.15 -3.1287 -2.75986 0
M  V30 2379 H 225.78 -2.012 -2.52425 0
M  V30 2380 H 224.832 -3.71735 -0.807279 0
M  V30 2381 H 226.144 -4.82311 -1.27192 0
M  V30 2382 H 225.298 -4.86325 -3.62729 0
M  V30 2383 H 224.037 -3.66706 -3.21525 0
M  V30 2384 H 223.042 -5.2718 -1.56081 0
M  V30 2385 H 224.267 -6.49 -1.99938 0
M  V30 2386 H 222.213 -5.28188 -3.89042 0
M  V30 2387 H 222.13 -6.85961 -3.17794 0
M  V30 2388 H 223.398 -6.49515 -4.30988 0
M  V30 2389 N 227.627 0.131896 -1.57047 0
M  V30 2390 C 229.038 0.690407 -1.73465 0
M  V30 2391 C 229.389 1.8094 -0.758629 0
M  V30 2392 O 228.514 2.16282 0.0713813 0
M  V30 2393 C 229.109 1.25916 -3.14532 0
M  V30 2394 C 227.668 1.76409 -3.32501 0
M  V30 2395 C 226.815 0.658579 -2.69366 0
M  V30 2396 H 229.766 -0.0939144 -1.58422 0
M  V30 2397 H 229.787 2.12892 -3.15369 0
M  V30 2398 H 229.299 0.444515 -3.85546 0
M  V30 2399 H 227.4 2.60391 -2.66509 0
M  V30 2400 H 227.513 1.88241 -4.4057 0
M  V30 2401 H 225.877 1.08899 -2.30246 0
M  V30 2402 H 226.66 -0.14487 -3.42994 0
M  V30 2403 N 229.106 1.52395 0.401703 0
M  V30 2404 C 230.336 1.70429 1.1678 0
M  V30 2405 C 230.744 0.416702 1.84554 0
M  V30 2406 O 230.087 -0.617697 1.73003 0
M  V30 2407 C 230.149 2.78919 2.26814 0
M  V30 2408 C 229.813 4.20437 1.79113 0
M  V30 2409 C 230.81 5.04028 1.27482 0
M  V30 2410 C 228.495 4.66704 1.85722 0
M  V30 2411 C 230.489 6.31961 0.830913 0
M  V30 2412 C 228.176 5.94625 1.40942 0
M  V30 2413 C 229.174 6.77082 0.897128 0
M  V30 2414 O 228.862 8.02607 0.455822 0
M  V30 2415 H 228.594 0.574272 0.356634 0
M  V30 2416 H 231.148 1.99767 0.477724 0
M  V30 2417 H 229.378 2.44973 2.99207 0
M  V30 2418 H 231.067 2.8548 2.88541 0
M  V30 2419 H 231.833 4.69471 1.21744 0
M  V30 2420 H 227.712 4.0262 2.24539 0
M  V30 2421 H 231.256 6.96271 0.430368 0
M  V30 2422 H 227.153 6.28688 1.46362 0
M  V30 2423 H 227.921 8.16453 0.578457 0
M  V30 2424 N 230.584 -0.659388 1.43143 0
M  V30 2425 C 231.547 -1.75432 1.47501 0
M  V30 2426 C 232.547 -1.56707 0.360512 0
M  V30 2427 O 233.737 -1.62717 0.622002 0
M  V30 2428 C 230.869 -3.14239 1.32162 0
M  V30 2429 H 232.062 -1.7295 2.45006 0
M  V30 2430 H 229.615 -0.870469 1.29817 0
M  V30 2431 H 230.35 -3.22336 0.356401 0
M  V30 2432 H 230.135 -3.29235 2.12948 0
M  V30 2433 H 231.625 -3.94094 1.3813 0
M  V30 2434 N 232.062 -1.29571 -0.897171 0
M  V30 2435 C 233.311 -1.1706 -1.64256 0
M  V30 2436 C 233.624 0.276476 -1.93636 0
M  V30 2437 O 234.83 0.52294 -2.66416 0
M  V30 2438 C 233.286 -2.0475 -2.95982 0
M  V30 2439 C 232.894 -3.54295 -2.74187 0
M  V30 2440 C 234.638 -2.0097 -3.73914 0
M  V30 2441 C 232.545 -4.34081 -4.01656 0
M  V30 2442 H 231.475 -0.43452 -0.616205 0
M  V30 2443 H 234.126 -1.54229 -0.994268 0
M  V30 2444 H 232.508 -1.60452 -3.62038 0
M  V30 2445 H 233.682 -4.06662 -2.1671 0
M  V30 2446 H 231.997 -3.59773 -2.09648 0
M  V30 2447 H 234.594 -2.57838 -4.68427 0
M  V30 2448 H 234.937 -0.990273 -4.0435 0
M  V30 2449 H 235.47 -2.43325 -3.14703 0
M  V30 2450 H 232.209 -5.36671 -3.76384 0
M  V30 2451 H 231.729 -3.86483 -4.58684 0
M  V30 2452 H 233.408 -4.44877 -4.69781 0
M  V30 2453 N 233.54 1.10788 -1.12088 0
M  V30 2454 C 234.951 1.64181 -0.88891 0
M  V30 2455 C 235.302 1.87508 0.577498 0
M  V30 2456 O 234.427 1.61434 1.44112 0
M  V30 2457 C 235.022 2.98257 -1.60712 0
M  V30 2458 C 233.581 3.4853 -1.42139 0
M  V30 2459 C 232.728 2.23208 -1.6454 0
M  V30 2460 H 235.679 0.943368 -1.27618 0
M  V30 2461 H 235.7 3.65552 -1.05604 0
M  V30 2462 H 235.212 2.81246 -2.67436 0
M  V30 2463 H 233.313 3.70692 -0.376552 0
M  V30 2464 H 233.426 4.26882 -2.17505 0
M  V30 2465 H 231.79 2.31169 -1.06925 0
M  V30 2466 H 232.573 2.08733 -2.72554 0
M  V30 2467 N 235.018 0.912232 1.28515 0
M  V30 2468 C 235.981 0.404223 2.25607 0
M  V30 2469 C 236.981 -0.468602 1.53821 0
M  V30 2470 O 238.171 -0.271873 1.72065 0
M  V30 2471 C 235.303 -0.420653 3.38295 0
M  V30 2472 H 236.496 1.26188 2.7206 0
M  V30 2473 H 234.049 0.691495 1.40171 0
M  V30 2474 H 234.784 -1.29777 2.97201 0
M  V30 2475 H 234.569 0.204935 3.91564 0
M  V30 2476 H 236.059 -0.766971 4.10496 0
M  V30 2477 N 236.496 -1.42363 0.676048 0
M  V30 2478 C 237.744 -2.01123 0.198437 0
M  V30 2479 C 238.065 -1.53731 -1.19966 0
M  V30 2480 O 237.335 -0.759518 -1.80577 0
M  V30 2481 H 235.915 -0.743678 0.0703721 0
M  V30 2482 H 238.577 -1.74263 0.872837 0
M  V30 2483 H 237.673 -3.11454 0.200686 0
M  V30 2484 N 237.974 -0.419461 -1.51915 0
M  V30 2485 C 239.214 0.152336 -2.03832 0
M  V30 2486 C 239.578 1.41501 -1.29775 0
M  V30 2487 O 240.779 2.06591 -1.7197 0
M  V30 2488 C 239.05 0.383812 -3.55333 0
M  V30 2489 S 240.609 0.921577 -4.29013 0
M  V30 2490 H 237.427 0.0402193 -0.709862 0
M  V30 2491 H 240.029 -0.574758 -1.8686 0
M  V30 2492 H 238.733 -0.541794 -4.06808 0
M  V30 2493 H 238.264 1.13849 -3.76566 0
M  V30 2494 H 240.279 2.20108 -4.4471 0
M  V30 2495 N 239.452 1.56882 -0.150215 0
M  V30 2496 C 240.677 2.01027 0.510184 0
M  V30 2497 C 241.102 1.02966 1.57415 0
M  V30 2498 O 240.46 0.00590158 1.81299 0
M  V30 2499 C 240.508 3.43899 1.08472 0
M  V30 2500 O 239.612 3.4885 2.19948 0
M  V30 2501 H 238.953 0.652233 0.124451 0
M  V30 2502 H 241.483 2.03093 -0.247894 0
M  V30 2503 H 241.493 3.82766 1.41259 0
M  V30 2504 H 240.168 4.14776 0.305582 0
M  V30 2505 H 238.745 3.21827 1.88366 0
M  V30 2506 N 240.93 -0.123565 1.57115 0
M  V30 2507 C 242.207 -0.862196 1.75572 0
M  V30 2508 C 242.587 -1.98279 0.724475 0
M  V30 2509 O 241.935 -2.27102 -0.252407 0
M  V30 2510 C 242.145 -1.38309 3.20424 0
M  V30 2511 C 243.493 -1.83724 3.82793 0
M  V30 2512 O 244.517 -1.47999 3.23998 0
M  V30 2513 O 243.376 -2.49685 4.86127 0
M  V30 2514 H 240.47 -0.409113 0.718718 0
M  V30 2515 H 243.016 -0.107661 1.69358 0
M  V30 2516 H 241.788 -0.578889 3.86994 0
M  V30 2517 H 241.411 -2.20046 3.31158 0
M  V30 2518 N 242.408 -1.52605 -0.393616 0
M  V30 2519 C 243.358 -1.73436 -1.48 0
M  V30 2520 C 244.342 -0.588386 -1.49756 0
M  V30 2521 O 245.534 -0.846047 -1.5547 0
M  V30 2522 C 242.663 -1.90247 -2.85764 0
M  V30 2523 C 241.749 -3.10763 -2.88595 0
M  V30 2524 N 242.14 -4.33196 -2.61103 0
M  V30 2525 C 240.438 -3.10914 -3.19763 0
M  V30 2526 C 241.139 -5.1477 -2.70899 0
M  V30 2527 N 240.115 -4.50356 -3.04435 0
M  V30 2528 H 243.917 -2.65727 -1.25563 0
M  V30 2529 H 241.431 -1.5085 -0.601513 0
M  V30 2530 H 243.428 -2.03291 -3.63976 0
M  V30 2531 H 242.088 -0.991663 -3.09186 0
M  V30 2532 H 243.099 -4.61408 -2.35209 0
M  V30 2533 H 239.776 -2.29626 -3.4868 0
M  V30 2534 H 241.166 -6.22355 -2.53227 0
M  V30 2535 N 243.887 0.651787 -1.4349 0
M  V30 2536 C 245.298 1.233 -1.40193 0
M  V30 2537 C 245.649 1.9591 -0.106727 0
M  V30 2538 O 244.774 2.01316 0.793773 0
M  V30 2539 C 245.369 2.24257 -2.53957 0
M  V30 2540 C 243.928 2.77852 -2.5392 0
M  V30 2541 C 243.075 1.52517 -2.3159 0
M  V30 2542 H 246.026 0.443717 -1.52371 0
M  V30 2543 H 246.047 3.0646 -2.25528 0
M  V30 2544 H 245.559 1.71382 -3.4821 0
M  V30 2545 H 243.66 3.34786 -1.63551 0
M  V30 2546 H 243.773 3.25299 -3.51735 0
M  V30 2547 H 242.137 1.79915 -1.80285 0
M  V30 2548 H 242.92 1.01574 -3.27929 0
M  V30 2549 N 245.365 1.30045 0.890287 0
M  V30 2550 C 246.295 1.18541 2.01172 0
M  V30 2551 C 247.276 0.0773356 1.69924 0
M  V30 2552 O 248.461 0.25845 1.92473 0
M  V30 2553 C 245.591 0.870941 3.36202 0
M  V30 2554 C 244.545 1.93637 3.81692 0
M  V30 2555 C 243.871 1.475 5.13953 0
M  V30 2556 C 245.171 3.34666 4.00994 0
M  V30 2557 H 246.865 2.12359 2.11054 0
M  V30 2558 H 244.411 1.02238 1.01407 0
M  V30 2559 H 246.364 0.777141 4.14172 0
M  V30 2560 H 245.088 -0.102926 3.26438 0
M  V30 2561 H 243.747 2.01972 3.05946 0
M  V30 2562 H 243.395 0.489551 5.00612 0
M  V30 2563 H 243.095 2.1876 5.4536 0
M  V30 2564 H 244.619 1.39489 5.94454 0
M  V30 2565 H 246.033 3.2912 4.69417 0
M  V30 2566 H 244.43 4.03966 4.43769 0
M  V30 2567 H 245.5 3.76949 3.05021 0
M  V30 2568 N 246.843 -1.10192 1.12674 0
M  V30 2569 C 248.091 -1.81845 0.881861 0
M  V30 2570 C 248.412 -1.85737 -0.593867 0
M  V30 2571 O 247.682 -1.33724 -1.4316 0
M  V30 2572 H 246.262 -0.673432 0.323261 0
M  V30 2573 H 248.924 -1.33316 1.42172 0
M  V30 2574 H 248.02 -2.85288 1.2656 0
M  V30 2575 N 248.321 -0.919034 -1.28029 0
M  V30 2576 C 249.569 -0.553838 -1.94363 0
M  V30 2577 C 249.89 0.906357 -1.72656 0
M  V30 2578 O 249.16 1.64143 -1.0693 0
M  V30 2579 H 247.74 -0.201834 -0.719216 0
M  V30 2580 H 250.402 -1.16954 -1.55909 0
M  V30 2581 H 249.498 -0.752758 -3.02886 0
M  V30 2582 N 249.799 1.42003 -0.683588 0
M  V30 2583 C 250.729 2.33487 -0.024866 0
M  V30 2584 C 251.71 1.51163 0.779975 0
M  V30 2585 O 252.895 1.79739 0.735362 0
M  V30 2586 C 250.025 3.3487 0.920836 0
M  V30 2587 C 248.979 4.27414 0.223958 0
M  V30 2588 C 248.305 5.19074 1.2832 0
M  V30 2589 C 249.605 5.14445 -0.90242 0
M  V30 2590 H 251.299 2.88819 -0.788921 0
M  V30 2591 H 248.845 1.38873 -0.38083 0
M  V30 2592 H 250.798 3.97787 1.39081 0
M  V30 2593 H 249.522 2.77861 1.71642 0
M  V30 2594 H 248.181 3.65904 -0.225864 0
M  V30 2595 H 247.829 4.58387 2.071 0
M  V30 2596 H 247.529 5.81822 0.821995 0
M  V30 2597 H 249.053 5.84867 1.75392 0
M  V30 2598 H 250.467 5.70998 -0.513272 0
M  V30 2599 H 248.864 5.86072 -1.28997 0
M  V30 2600 H 249.934 4.52322 -1.74737 0
M  V30 2601 N 251.277 0.427512 1.51691 0
M  V30 2602 C 252.525 -0.141948 2.01601 0
M  V30 2603 C 252.846 -1.44067 1.31414 0
M  V30 2604 O 252.116 -1.90763 0.445658 0
M  V30 2605 H 250.696 -0.0554468 0.744939 0
M  V30 2606 H 253.358 0.567968 1.86441 0
M  V30 2607 H 252.454 -0.324913 3.10404 0
M  V30 2608 N 252.755 -1.56801 0.158532 0
M  V30 2609 C 254.002 -1.9649 -0.489679 0
M  V30 2610 C 254.33 -1.04394 -1.6411 0
M  V30 2611 O 253.585 -0.0754401 -1.95555 0
M  V30 2612 C 253.884 -3.4235 -1.02623 0
M  V30 2613 C 253.55 -4.50899 0.00794526 0
M  V30 2614 C 252.212 -4.80312 0.292207 0
M  V30 2615 C 254.564 -5.16333 0.710584 0
M  V30 2616 C 251.892 -5.72461 1.28472 0
M  V30 2617 C 254.244 -6.09553 1.69199 0
M  V30 2618 C 252.908 -6.37339 1.98383 0
M  V30 2619 H 252.178 -0.719009 -0.179186 0
M  V30 2620 H 254.825 -1.8989 0.247798 0
M  V30 2621 H 253.13 -3.45838 -1.84128 0
M  V30 2622 H 254.827 -3.70393 -1.53656 0
M  V30 2623 H 251.417 -4.28015 -0.22379 0
M  V30 2624 H 255.601 -4.93732 0.504174 0
M  V30 2625 H 250.857 -5.92278 1.51714 0
M  V30 2626 H 255.031 -6.59327 2.24189 0
M  V30 2627 H 252.658 -7.08546 2.7544 0
M  V30 2628 N 254.233 0.115231 -1.57178 0
M  V30 2629 C 255.479 0.82357 -1.85325 0
M  V30 2630 C 255.812 1.79349 -0.744814 0
M  V30 2631 O 255.087 1.92899 0.249024 0
M  V30 2632 C 255.37 1.57014 -3.24066 0
M  V30 2633 C 255.223 0.619565 -4.45513 0
M  V30 2634 C 256.542 2.52545 -3.60429 0
M  V30 2635 H 253.661 0.297948 -0.674089 0
M  V30 2636 H 256.303 0.0877138 -1.89797 0
M  V30 2637 H 254.453 2.19742 -3.20383 0
M  V30 2638 H 256.125 0.000837639 -4.613 0
M  V30 2639 H 254.368 -0.0686174 -4.33746 0
M  V30 2640 H 255.039 1.17866 -5.3927 0
M  V30 2641 H 257.515 1.9992 -3.64926 0
M  V30 2642 H 256.391 3.01811 -4.58477 0
M  V30 2643 H 256.652 3.35383 -2.88047 0
M  V30 2644 N 255.711 1.52812 0.385517 0
M  V30 2645 C 256.959 1.67694 1.12797 0
M  V30 2646 C 257.28 0.421115 1.90399 0
M  V30 2647 O 256.55 -0.564551 1.87589 0
M  V30 2648 H 255.13 0.618155 0.419396 0
M  V30 2649 H 257.792 1.89938 0.436972 0
M  V30 2650 H 256.888 2.52896 1.82894 0
M  V30 2651 N 257.189 -0.644168 1.43834 0
M  V30 2652 C 258.436 -1.40395 1.4593 0
M  V30 2653 C 258.764 -1.94305 0.0869658 0
M  V30 2654 O 258.019 -1.73288 -0.909378 0
M  V30 2655 C 258.318 -2.59615 2.45631 0
M  V30 2656 C 257.984 -2.2407 3.91284 0
M  V30 2657 C 256.646 -2.14089 4.30952 0
M  V30 2658 C 258.998 -1.95775 4.83034 0
M  V30 2659 C 256.326 -1.73981 5.6031 0
M  V30 2660 C 258.678 -1.57163 6.12766 0
M  V30 2661 C 257.342 -1.45713 6.51402 0
M  V30 2662 H 256.612 -0.513741 0.533995 0
M  V30 2663 H 259.259 -0.731724 1.76969 0
M  V30 2664 H 257.564 -3.32011 2.08028 0
M  V30 2665 H 259.261 -3.17834 2.44504 0
M  V30 2666 H 255.851 -2.32753 3.59895 0
M  V30 2667 H 260.035 -2.02403 4.53152 0
M  V30 2668 H 255.291 -1.63709 5.89075 0
M  V30 2669 H 259.465 -1.34303 6.83327 0
M  V30 2670 H 257.092 -1.14406 7.51542 0
M  V30 2671 N 258.668 -1.30515 -0.883378 0
M  V30 2672 C 259.631 -1.1701 -1.97082 0
M  V30 2673 C 260.631 -0.10089 -1.60483 0
M  V30 2674 O 261.821 -0.349127 -1.70666 0
M  V30 2675 C 258.953 -0.793045 -3.31547 0
M  V30 2676 H 260.146 -2.13622 -2.10489 0
M  V30 2677 H 257.699 -1.13935 -1.06998 0
M  V30 2678 H 258.434 0.172499 -3.23841 0
M  V30 2679 H 258.219 -1.56576 -3.5948 0
M  V30 2680 H 259.709 -0.722073 -4.1131 0
M  V30 2681 N 260.146 1.09593 -1.13257 0
M  V30 2682 C 261.056 2.19739 -0.821691 0
M  V30 2683 C 262.072 1.72926 0.19302 0
M  V30 2684 O 263.248 2.01385 0.0244895 0
M  V30 2685 C 260.313 3.45482 -0.290333 0
M  V30 2686 C 259.374 4.06985 -1.36607 0
M  V30 2687 C 258.607 5.26726 -0.859975 0
M  V30 2688 O 258.83 5.69594 0.303082 0
M  V30 2689 O 257.764 5.7931 -1.63351 0
M  V30 2690 H 261.59 2.48781 -1.74189 0
M  V30 2691 H 259.175 1.18496 -0.909894 0
M  V30 2692 H 261.057 4.214 0.000674022 0
M  V30 2693 H 259.732 3.18047 0.602306 0
M  V30 2694 H 258.639 3.32712 -1.71037 0
M  V30 2695 H 259.972 4.38643 -2.23279 0
M  V30 2696 N 261.624 0.925811 1.2754 0
M  V30 2697 C 262.534 0.428993 2.30644 0
M  V30 2698 C 263.55 -0.489387 1.66976 0
M  V30 2699 O 264.726 -0.372653 1.97922 0
M  V30 2700 C 261.791 -0.311967 3.45294 0
M  V30 2701 C 260.852 0.641098 4.24486 0
M  V30 2702 C 260.085 -0.0645955 5.33661 0
M  V30 2703 O 260.308 -1.28429 5.55754 0
M  V30 2704 O 259.242 0.606265 5.98839 0
M  V30 2705 H 263.068 1.28504 2.75173 0
M  V30 2706 H 260.653 0.691086 1.32455 0
M  V30 2707 H 262.535 -0.729972 4.15029 0
M  V30 2708 H 261.21 -1.14365 3.02824 0
M  V30 2709 H 260.117 1.10874 3.57292 0
M  V30 2710 H 261.45 1.43995 4.70666 0
M  V30 2711 N 263.102 -1.41638 0.69111 0
M  V30 2712 C 264.348 -2.01598 0.220519 0
M  V30 2713 C 264.681 -1.54594 -1.17535 0
M  V30 2714 O 263.956 -0.755177 -1.79241 0
M  V30 2715 C 264.239 -3.59062 0.273243 0
M  V30 2716 C 264.092 -4.16203 1.70573 0
M  V30 2717 C 265.411 -4.38546 -0.369457 0
M  V30 2718 H 262.53 -0.732468 0.0816045 0
M  V30 2719 H 265.172 -1.68445 0.878986 0
M  V30 2720 H 263.322 -3.87435 -0.287411 0
M  V30 2721 H 264.994 -3.98722 2.31989 0
M  V30 2722 H 263.237 -3.71414 2.2413 0
M  V30 2723 H 263.908 -5.25358 1.69419 0
M  V30 2724 H 266.384 -4.1596 0.107977 0
M  V30 2725 H 265.26 -5.48069 -0.302002 0
M  V30 2726 H 265.521 -4.17662 -1.44951 0
M  V30 2727 N 264.58 -0.43555 -1.51462 0
M  V30 2728 C 265.996 -0.0877501 -1.59359 0
M  V30 2729 C 266.196 1.4027 -1.4466 0
M  V30 2730 O 265.252 2.17243 -1.28693 0
M  V30 2731 C 266.565 -0.606264 -2.94525 0
M  V30 2732 C 268.113 -0.566548 -3.0783 0
M  V30 2733 C 268.588 -1.06201 -4.45517 0
M  V30 2734 N 270.079 -1.01992 -4.51832 0
M  V30 2735 C 270.814 -1.37417 -5.5669 0
M  V30 2736 N 270.31 -1.80119 -6.68976 0
M  V30 2737 N 272.103 -1.29245 -5.47039 0
M  V30 2738 H 264.254 -1.40533 -1.59261 0
M  V30 2739 H 266.517 -0.578992 -0.750648 0
M  V30 2740 H 266.223 -1.64901 -3.10645 0
M  V30 2741 H 266.097 -0.0302097 -3.77188 0
M  V30 2742 H 268.484 0.467208 -2.91378 0
M  V30 2743 H 268.565 -1.17898 -2.2701 0
M  V30 2744 H 268.209 -2.09422 -4.62715 0
M  V30 2745 H 268.139 -0.426127 -5.24873 0
M  V30 2746 H 270.63 -0.706308 -3.71241 0
M  V30 2747 H 270.943 -2.05392 -7.45006 0
M  V30 2748 H 269.288 -1.84044 -6.70189 0
M  V30 2749 H 272.479 -0.957522 -4.58202 0
M  V30 2750 H 272.652 -1.57182 -6.28648 0
M  V30 2751 N 266.058 1.56714 -0.166846 0
M  V30 2752 C 267.021 2.16539 0.751232 0
M  V30 2753 C 268.021 1.11228 1.16125 0
M  V30 2754 O 269.211 1.36765 1.07894 0
M  V30 2755 C 266.343 2.74462 2.02196 0
M  V30 2756 H 267.536 2.99013 0.230499 0
M  V30 2757 H 265.089 1.56081 0.0826982 0
M  V30 2758 H 265.824 1.95709 2.58589 0
M  V30 2759 H 265.609 3.51527 1.73698 0
M  V30 2760 H 267.099 3.20489 2.67725 0
M  V30 2761 N 267.536 -0.106894 1.57237 0
M  V30 2762 C 268.468 -1.15646 1.97885 0
M  V30 2763 C 269.481 -1.36981 0.879779 0
M  V30 2764 O 270.67 -1.35841 1.15799 0
M  V30 2765 C 267.77 -2.51425 2.27241 0
M  V30 2766 C 266.943 -2.50529 3.58545 0
M  V30 2767 C 266.002 -3.68145 3.75973 0
M  V30 2768 O 265.028 -3.51176 4.47956 0
M  V30 2769 N 266.23 -4.87177 3.15656 0
M  V30 2770 H 268.995 -0.81059 2.8853 0
M  V30 2771 H 266.556 -0.296024 1.59171 0
M  V30 2772 H 268.548 -3.28689 2.36105 0
M  V30 2773 H 267.118 -2.78147 1.42663 0
M  V30 2774 H 266.338 -1.58894 3.60758 0
M  V30 2775 H 267.626 -2.46997 4.44826 0
M  V30 2776 H 267.024 -5.03868 2.57165 0
M  V30 2777 H 265.581 -5.62075 3.30023 0
M  V30 2778 N 269.014 -1.53014 -0.377408 0
M  V30 2779 C 269.924 -1.81557 -1.48574 0
M  V30 2780 C 270.94 -0.703102 -1.59162 0
M  V30 2781 O 272.116 -0.99192 -1.75279 0
M  V30 2782 C 269.181 -1.9889 -2.83978 0
M  V30 2783 C 268.242 -3.22801 -2.83016 0
M  V30 2784 C 267.475 -3.39298 -4.11962 0
M  V30 2785 O 267.698 -2.60345 -5.0752 0
M  V30 2786 O 266.632 -4.32604 -4.18494 0
M  V30 2787 H 270.458 -2.75695 -1.27382 0
M  V30 2788 H 268.043 -1.38248 -0.566373 0
M  V30 2789 H 269.925 -2.11931 -3.6423 0
M  V30 2790 H 268.6 -1.07942 -3.05172 0
M  V30 2791 H 267.507 -3.15193 -2.01505 0
M  V30 2792 H 268.84 -4.13632 -2.66775 0
M  V30 2793 N 270.492 0.636531 -1.44174 0
M  V30 2794 C 271.455 1.73063 -1.50273 0
M  V30 2795 C 272.455 1.56113 -0.385397 0
M  V30 2796 O 273.645 1.61707 -0.64781 0
M  V30 2797 C 270.777 3.12096 -1.37145 0
M  V30 2798 H 271.97 1.69031 -2.47727 0
M  V30 2799 H 269.523 0.849706 -1.31186 0
M  V30 2800 H 270.258 3.21728 -0.407636 0
M  V30 2801 H 270.043 3.25805 -2.18159 0
M  V30 2802 H 271.533 3.91846 -1.44382 0
M  V30 2803 N 271.97 1.30982 0.876444 0
M  V30 2804 C 272.88 1.2003 2.01569 0
M  V30 2805 C 273.896 0.11838 1.73597 0
M  V30 2806 O 275.072 0.33495 1.98595 0
M  V30 2807 C 272.137 0.901637 3.34771 0
M  V30 2808 C 271.198 2.06979 3.76109 0
M  V30 2809 C 270.431 1.78529 5.02954 0
M  V30 2810 O 270.654 0.717296 5.65872 0
M  V30 2811 O 269.588 2.64019 5.40905 0
M  V30 2812 H 273.414 2.15753 2.13739 0
M  V30 2813 H 270.999 1.10658 1.00375 0
M  V30 2814 H 272.881 0.750645 4.1466 0
M  V30 2815 H 271.556 -0.0256141 3.2369 0
M  V30 2816 H 270.463 2.27616 2.96887 0
M  V30 2817 H 271.796 2.97907 3.91807 0
M  V30 2818 N 273.449 -1.08991 1.13837 0
M  V30 2819 C 274.379 -2.17771 0.842507 0
M  V30 2820 C 275.36 -1.6892 -0.20001 0
M  V30 2821 O 276.545 -1.94113 -0.0579731 0
M  V30 2822 C 273.675 -3.4589 0.312644 0
M  V30 2823 C 272.629 -4.08099 1.28992 0
M  V30 2824 C 271.955 -5.31098 0.619623 0
M  V30 2825 C 273.255 -4.50077 2.65005 0
M  V30 2826 H 274.949 -2.42777 1.75213 0
M  V30 2827 H 272.495 -1.16682 0.843875 0
M  V30 2828 H 274.448 -4.21297 0.0933043 0
M  V30 2829 H 273.172 -3.20419 -0.632382 0
M  V30 2830 H 271.831 -3.34717 1.49533 0
M  V30 2831 H 271.479 -5.0191 -0.33102 0
M  V30 2832 H 271.179 -5.73674 1.27167 0
M  V30 2833 H 272.703 -6.09224 0.409669 0
M  V30 2834 H 274.117 -5.16688 2.48407 0
M  V30 2835 H 272.514 -5.03553 3.26427 0
M  V30 2836 H 273.584 -3.62257 3.22332 0
M  V30 2837 N 274.927 -0.932562 -1.27047 0
M  V30 2838 C 276.175 -0.574422 -1.93765 0
M  V30 2839 C 276.496 0.887993 -1.73608 0
M  V30 2840 O 275.766 1.62999 -1.08665 0
M  V30 2841 H 274.346 -0.209451 -0.717035 0
M  V30 2842 H 277.008 -1.18601 -1.5466 0
M  V30 2843 H 276.104 -0.784841 -3.02071 0
M  V30 2844 N 276.405 1.4127 -0.698611 0
M  V30 2845 C 277.652 2.0118 -0.230865 0
M  V30 2846 C 277.98 1.55338 1.17049 0
M  V30 2847 O 277.235 0.756775 1.80475 0
M  V30 2848 C 277.534 3.56592 -0.240192 0
M  V30 2849 C 277.2 4.21955 -1.58948 0
M  V30 2850 C 275.862 4.39524 -1.95887 0
M  V30 2851 C 278.214 4.58576 -2.47704 0
M  V30 2852 C 275.542 4.90992 -3.2116 0
M  V30 2853 C 277.894 5.11435 -3.72313 0
M  V30 2854 C 276.558 5.27215 -4.0939 0
M  V30 2855 H 275.828 0.736169 -0.0844796 0
M  V30 2856 H 278.475 1.69124 -0.8983 0
M  V30 2857 H 276.78 3.88456 0.510797 0
M  V30 2858 H 278.477 4.00758 0.139296 0
M  V30 2859 H 275.067 4.08657 -1.29219 0
M  V30 2860 H 279.251 4.44654 -2.20445 0
M  V30 2861 H 274.507 5.01393 -3.49878 0
M  V30 2862 H 278.681 5.38752 -4.4127 0
M  V30 2863 H 276.308 5.66859 -5.06533 0
M  V30 2864 N 277.883 0.443576 1.51229 0
M  V30 2865 C 278.83 -0.364716 2.279 0
M  V30 2866 C 279.8 -1.0114 1.31757 0
M  V30 2867 O 280.985 -1.02912 1.60667 0
M  V30 2868 C 278.125 -1.45644 3.12861 0
M  V30 2869 C 277.238 -0.827269 4.24005 0
M  V30 2870 C 276.373 -1.89456 4.96266 0
M  V30 2871 C 275.412 -1.24416 5.99322 0
M  V30 2872 N 274.549 -2.25309 6.64966 0
M  V30 2873 H 279.389 0.295464 2.96532 0
M  V30 2874 H 276.926 0.157554 1.46254 0
M  V30 2875 H 278.884 -2.10076 3.6045 0
M  V30 2876 H 277.514 -2.08616 2.46331 0
M  V30 2877 H 276.566 -0.0710839 3.80334 0
M  V30 2878 H 277.878 -0.312481 4.9782 0
M  V30 2879 H 277.032 -2.61535 5.47434 0
M  V30 2880 H 275.771 -2.4431 4.22095 0
M  V30 2881 H 274.776 -0.508868 5.4744 0
M  V30 2882 H 276.001 -0.702882 6.75453 0
M  V30 2883 H 273.947 -2.79231 5.93604 0
M  V30 2884 H 273.864 -1.78739 7.34567 0
M  V30 2885 H 275.132 -2.96853 7.20763 0
M  V30 2886 N 279.361 -1.56624 0.175154 0
M  V30 2887 C 280.608 -1.96999 -0.468811 0
M  V30 2888 C 280.936 -1.06129 -1.62994 0
M  V30 2889 O 280.191 -0.0961771 -1.95464 0
M  V30 2890 C 280.49 -3.43419 -0.989864 0
M  V30 2891 C 280.156 -4.50866 0.0557687 0
M  V30 2892 C 278.818 -4.79975 0.343134 0
M  V30 2893 C 281.17 -5.15551 0.765308 0
M  V30 2894 C 278.498 -5.71066 1.34536 0
M  V30 2895 C 280.85 -6.07724 1.75654 0
M  V30 2896 C 279.514 -6.35199 2.05132 0
M  V30 2897 H 278.784 -0.720869 -0.17155 0
M  V30 2898 H 281.431 -1.89616 0.267924 0
M  V30 2899 H 279.736 -3.47772 -1.80449 0
M  V30 2900 H 281.433 -3.72002 -1.49719 0
M  V30 2901 H 278.023 -4.28229 -0.178381 0
M  V30 2902 H 282.207 -4.9317 0.556513 0
M  V30 2903 H 277.463 -5.90635 1.57988 0
M  V30 2904 H 281.637 -6.56912 2.31169 0
M  V30 2905 H 279.264 -7.05584 2.8294 0
M  V30 2906 N 280.839 0.0985539 -1.57292 0
M  V30 2907 C 282.116 0.834155 -1.76921 0
M  V30 2908 C 282.496 1.97101 -0.755928 0
M  V30 2909 O 281.844 2.27474 0.216245 0
M  V30 2910 C 282.054 1.33194 -3.22584 0
M  V30 2911 C 283.402 1.77611 -3.85668 0
M  V30 2912 O 284.426 1.42825 -3.26312 0
M  V30 2913 O 283.285 2.4192 -4.90038 0
M  V30 2914 H 280.379 0.397628 -0.725135 0
M  V30 2915 H 282.925 0.0807044 -1.69508 0
M  V30 2916 H 281.697 0.517248 -3.87866 0
M  V30 2917 H 281.32 2.1475 -3.34616 0
M  V30 2918 N 282.317 1.53212 0.369288 0
M  V30 2919 C 283.547 1.72868 1.13139 0
M  V30 2920 C 283.955 0.455754 1.83629 0
M  V30 2921 O 283.298 -0.580861 1.74275 0
M  V30 2922 C 283.36 2.83667 2.20847 0
M  V30 2923 C 283.024 4.24142 1.70155 0
M  V30 2924 C 284.021 5.06619 1.16763 0
M  V30 2925 C 281.706 4.70539 1.7578 0
M  V30 2926 C 283.7 6.33581 0.696678 0
M  V30 2927 C 281.387 5.97481 1.28297 0
M  V30 2928 C 282.385 6.78833 0.753307 0
M  V30 2929 O 282.073 8.03393 0.285475 0
M  V30 2930 H 281.805 0.581707 0.344373 0
M  V30 2931 H 284.359 2.00736 0.435243 0
M  V30 2932 H 282.589 2.51265 2.93944 0
M  V30 2933 H 284.278 2.91536 2.82421 0
M  V30 2934 H 285.044 4.71948 1.11758 0
M  V30 2935 H 280.923 4.07293 2.15949 0
M  V30 2936 H 284.467 6.97027 0.282581 0
M  V30 2937 H 280.364 6.31651 1.32994 0
M  V30 2938 H 281.132 8.17497 0.405145 0
M  V30 2939 N 283.795 -0.628877 1.44509 0
M  V30 2940 C 285.041 -1.39045 1.47629 0
M  V30 2941 C 285.374 -1.93892 0.109343 0
M  V30 2942 O 284.649 -1.7379 -0.87334 0
M  V30 2943 C 284.932 -2.55408 2.53848 0
M  V30 2944 C 284.785 -2.05896 3.99909 0
M  V30 2945 C 286.104 -3.5759 2.56549 0
M  V30 2946 H 283.223 -0.504232 0.537512 0
M  V30 2947 H 285.865 -0.710854 1.76201 0
M  V30 2948 H 284.015 -3.13384 2.29615 0
M  V30 2949 H 285.687 -1.52734 4.35282 0
M  V30 2950 H 283.93 -1.37061 4.11578 0
M  V30 2951 H 284.601 -2.89681 4.69882 0
M  V30 2952 H 287.077 -3.09419 2.78207 0
M  V30 2953 H 285.953 -4.36527 3.32769 0
M  V30 2954 H 286.214 -4.11808 1.60832 0
M  V30 2955 N 285.273 -1.31445 -0.869486 0
M  V30 2956 C 286.519 -1.21337 -1.62496 0
M  V30 2957 C 286.852 0.227872 -1.92858 0
M  V30 2958 O 286.127 1.16094 -1.56053 0
M  V30 2959 C 286.41 -2.05814 -2.95487 0
M  V30 2960 C 286.263 -3.5824 -2.72 0
M  V30 2961 C 287.582 -1.9079 -3.96594 0
M  V30 2962 H 284.701 -0.442135 -0.589649 0
M  V30 2963 H 287.343 -1.6124 -1.00507 0
M  V30 2964 H 285.493 -1.71913 -3.48394 0
M  V30 2965 H 287.165 -4.0228 -2.25762 0
M  V30 2966 H 285.408 -3.81647 -2.06224 0
M  V30 2967 H 286.079 -4.12657 -3.66631 0
M  V30 2968 H 288.555 -2.20459 -3.52898 0
M  V30 2969 H 287.431 -2.52199 -4.87531 0
M  V30 2970 H 287.692 -0.871341 -4.33428 0
M  V30 2971 N 286.751 1.08385 -1.14413 0
M  V30 2972 C 287.997 1.81044 -0.913834 0
M  V30 2973 C 288.33 1.86004 0.558209 0
M  V30 2974 O 287.605 1.33606 1.4135 0
M  V30 2975 C 287.888 3.26648 -1.51569 0
M  V30 2976 C 287.741 3.29895 -3.0576 0
M  V30 2977 C 289.06 4.23629 -1.19273 0
M  V30 2978 H 286.179 0.65727 -0.333414 0
M  V30 2979 H 288.821 1.26896 -1.41412 0
M  V30 2980 H 286.971 3.72889 -1.09023 0
M  V30 2981 H 288.643 2.91977 -3.57137 0
M  V30 2982 H 286.886 2.69163 -3.40197 0
M  V30 2983 H 287.557 4.32516 -3.42977 0
M  V30 2984 H 290.033 3.85727 -1.56057 0
M  V30 2985 H 288.909 5.23822 -1.64017 0
M  V30 2986 H 289.17 4.41968 -0.108068 0
M  V30 2987 N 288.23 0.939286 1.26551 0
M  V30 2988 C 289.47 0.5933 1.956 0
M  V30 2989 C 289.834 -0.851515 1.72085 0
M  V30 2990 O 291.035 -1.30634 2.34921 0
M  V30 2991 C 289.306 0.923996 3.45249 0
M  V30 2992 S 290.865 0.688269 4.33369 0
M  V30 2993 H 287.683 0.218591 0.676564 0
M  V30 2994 H 290.285 1.2102 1.5354 0
M  V30 2995 H 288.989 1.97297 3.59864 0
M  V30 2996 H 288.52 0.296746 3.92279 0
M  V30 2997 H 290.535 -0.448434 4.9417 0
M  V30 2998 N 289.708 -1.40897 0.706093 0
M  V30 2999 C 290.933 -2.05895 0.249435 0
M  V30 3000 C 291.358 -1.52823 -1.09666 0
M  V30 3001 O 290.716 -0.659589 -1.68876 0
M  V30 3002 C 290.764 -3.59872 0.22904 0
M  V30 3003 O 289.868 -4.04708 -0.792784 0
M  V30 3004 H 289.209 -0.653206 0.119241 0
M  V30 3005 H 291.739 -1.80471 0.96391 0
M  V30 3006 H 291.749 -4.07951 0.0634791 0
M  V30 3007 H 290.424 -3.97866 1.21141 0
M  V30 3008 H 289.001 -3.68111 -0.59572 0
M  V30 3009 N 291.186 -0.45159 -1.50991 0
M  V30 3010 C 292.432 0.110237 -2.025 0
M  V30 3011 C 292.765 1.41109 -1.33424 0
M  V30 3012 O 292.04 1.89135 -0.453659 0
M  V30 3013 C 292.323 0.314271 -3.58726 0
M  V30 3014 C 292.176 -1.00623 -4.38401 0
M  V30 3015 C 293.495 1.07767 -4.26702 0
M  V30 3016 H 290.614 0.0385897 -0.735989 0
M  V30 3017 H 293.256 -0.593374 -1.80497 0
M  V30 3018 H 291.406 0.913601 -3.77605 0
M  V30 3019 H 293.078 -1.64064 -4.31139 0
M  V30 3020 H 291.321 -1.6075 -4.02917 0
M  V30 3021 H 291.992 -0.817341 -5.45915 0
M  V30 3022 H 294.468 0.56986 -4.12179 0
M  V30 3023 H 293.344 1.18921 -5.35863 0
M  V30 3024 H 293.605 2.10939 -3.88532 0
M  V30 3025 N 292.664 1.56529 -0.183458 0
M  V30 3026 C 293.892 2.01623 0.464285 0
M  V30 3027 C 294.307 1.06366 1.55986 0
M  V30 3028 O 293.664 0.0665398 1.82379 0
M  V30 3029 C 293.715 3.46475 1.03139 0
M  V30 3030 O 293.436 4.38095 -0.0204675 0
M  V30 3031 C 294.937 4.0703 1.75617 0
M  V30 3032 H 292.157 0.660596 0.117704 0
M  V30 3033 H 294.701 2.02451 -0.288751 0
M  V30 3034 H 292.856 3.46383 1.73486 0
M  V30 3035 H 293.27 5.22973 0.399952 0
M  V30 3036 H 294.744 5.10271 2.10542 0
M  V30 3037 H 295.221 3.49819 2.65563 0
M  V30 3038 H 295.827 4.1086 1.09882 0
M  V30 3039 N 294.142 -0.090211 1.57342 0
M  V30 3040 C 295.39 -0.791241 1.85967 0
M  V30 3041 C 295.711 -1.7903 0.772859 0
M  V30 3042 O 294.981 -1.94872 -0.200398 0
M  V30 3043 H 293.561 -0.295205 0.686195 0
M  V30 3044 H 296.223 -0.0706782 1.94772 0
M  V30 3045 H 295.319 -1.31882 2.82867 0
M  V30 3046 N 295.62 -1.53406 -0.361157 0
M  V30 3047 C 296.845 -1.74024 -1.12829 0
M  V30 3048 C 297.27 -0.470069 -1.82132 0
M  V30 3049 O 296.628 0.57619 -1.719 0
M  V30 3050 C 296.676 -2.90903 -2.13091 0
M  V30 3051 O 295.78 -2.59821 -3.20261 0
M  V30 3052 H 295.121 -0.577804 -0.327168 0
M  V30 3053 H 297.651 -2.00307 -0.41693 0
M  V30 3054 H 297.661 -3.17194 -2.56616 0
M  V30 3055 H 296.336 -3.83034 -1.62042 0
M  V30 3056 H 294.913 -2.44362 -2.81677 0
M  V30 3057 N 297.098 0.621204 -1.44841 0
M  V30 3058 C 298.326 1.40752 -1.51646 0
M  V30 3059 C 298.741 1.88246 -0.144549 0
M  V30 3060 O 298.098 1.61422 0.851416 0
M  V30 3061 C 298.149 2.62119 -2.4895 0
M  V30 3062 O 297.87 2.16602 -3.80808 0
M  V30 3063 C 299.371 3.55135 -2.65319 0
M  V30 3064 H 296.591 0.431325 -0.514004 0
M  V30 3065 H 299.135 0.758835 -1.899 0
M  V30 3066 H 297.29 3.23058 -2.13805 0
M  V30 3067 H 297.704 2.95358 -4.33433 0
M  V30 3068 H 299.178 4.36874 -3.37409 0
M  V30 3069 H 299.655 4.04592 -1.70886 0
M  V30 3070 H 300.261 3.00058 -3.01405 0
M  V30 3071 N 298.576 1.31904 0.862503 0
M  V30 3072 C 299.508 1.16005 1.97675 0
M  V30 3073 C 300.521 0.0971234 1.6251 0
M  V30 3074 O 301.71 0.345337 1.75128 0
M  V30 3075 C 298.81 0.751791 3.30456 0
M  V30 3076 C 297.983 1.90133 3.93914 0
M  V30 3077 C 297.042 1.4779 5.05019 0
M  V30 3078 O 296.068 2.18872 5.25437 0
M  V30 3079 N 297.27 0.369491 5.79323 0
M  V30 3080 H 300.035 2.11982 2.11857 0
M  V30 3081 H 297.596 1.24337 1.03691 0
M  V30 3082 H 299.588 0.451084 4.02178 0
M  V30 3083 H 298.158 -0.116593 3.12382 0
M  V30 3084 H 297.378 2.36896 3.15078 0
M  V30 3085 H 298.666 2.67111 4.33047 0
M  V30 3086 H 298.064 -0.222299 5.65263 0
M  V30 3087 H 296.621 0.128354 6.51674 0
M  V30 3088 N 300.054 -1.07777 1.14986 0
M  V30 3089 C 301.017 -2.13041 0.845358 0
M  V30 3090 C 302.017 -1.60071 -0.152931 0
M  V30 3091 O 303.207 -1.74033 0.0761879 0
M  V30 3092 C 300.339 -3.39896 0.261383 0
M  V30 3093 H 301.532 -2.41485 1.77834 0
M  V30 3094 H 299.085 -1.23595 0.956757 0
M  V30 3095 H 299.82 -3.17091 -0.68 0
M  V30 3096 H 299.605 -3.79642 0.980514 0
M  V30 3097 H 301.095 -4.17548 0.0657687 0
M  V30 3098 N 301.532 -0.945985 -1.26051 0
M  V30 3099 C 302.78 -0.594941 -1.93145 0
M  V30 3100 C 303.101 0.86953 -1.7454 0
M  V30 3101 O 302.371 1.61838 -1.10387 0
M  V30 3102 H 300.951 -0.217044 -0.714773 0
M  V30 3103 H 303.613 -1.20235 -1.53393 0
M  V30 3104 H 302.709 -0.816835 -3.01221 0
M  V30 3105 N 303.011 1.40521 -0.713556 0
M  V30 3106 C 303.944 2.28198 -0.00881422 0
M  V30 3107 C 304.922 1.43227 0.769735 0
M  V30 3108 O 306.106 1.72641 0.756799 0
M  V30 3109 C 303.233 3.23758 0.994899 0
M  V30 3110 C 302.279 4.25391 0.3074 0
M  V30 3111 S 303.112 5.26765 -0.963247 0
M  V30 3112 C 304.268 6.25888 0.0384143 0
M  V30 3113 H 304.501 2.87622 -0.752407 0
M  V30 3114 H 302.034 1.45925 -0.504502 0
M  V30 3115 H 303.992 3.79341 1.56879 0
M  V30 3116 H 302.653 2.63396 1.71118 0
M  V30 3117 H 301.846 4.92596 1.0661 0
M  V30 3118 H 301.448 3.73497 -0.193879 0
M  V30 3119 H 303.74 6.71683 0.885912 0
M  V30 3120 H 304.683 7.05552 -0.60019 0
M  V30 3121 H 305.091 5.63072 0.401233 0
M  V30 3122 N 304.489 0.459591 1.5075 0
M  V30 3123 C 305.735 -0.0994966 2.02556 0
M  V30 3124 C 306.068 -1.40399 1.3417 0
M  V30 3125 O 305.343 -1.88892 0.463683 0
M  V30 3126 C 305.626 -0.295242 3.58888 0
M  V30 3127 C 305.479 1.02947 4.37861 0
M  V30 3128 C 306.798 -1.05502 4.27267 0
M  V30 3129 H 303.917 -0.034686 0.736183 0
M  V30 3130 H 306.559 0.602938 1.8018 0
M  V30 3131 H 304.709 -0.893563 3.78084 0
M  V30 3132 H 306.381 1.66348 4.30263 0
M  V30 3133 H 304.624 1.62885 4.02058 0
M  V30 3134 H 305.295 0.846281 5.45474 0
M  V30 3135 H 307.771 -0.547993 4.12476 0
M  V30 3136 H 306.647 -1.16077 5.36486 0
M  V30 3137 H 306.908 -2.08875 3.89645 0
M  V30 3138 N 305.967 -1.56429 0.191757 0
M  V30 3139 C 307.213 -1.97777 -0.448554 0
M  V30 3140 C 307.546 -1.07847 -1.61501 0
M  V30 3141 O 306.821 -0.129774 -1.94067 0
M  V30 3142 C 307.104 -3.48362 -0.911906 0
M  V30 3143 C 306.957 -4.4907 0.256136 0
M  V30 3144 C 308.276 -4.02561 -1.77857 0
M  V30 3145 H 305.395 -0.719071 -0.161572 0
M  V30 3146 H 308.037 -1.87896 0.282007 0
M  V30 3147 H 306.187 -3.56914 -1.53442 0
M  V30 3148 H 307.859 -4.5256 0.893733 0
M  V30 3149 H 306.102 -4.24181 0.908436 0
M  V30 3150 H 306.773 -5.51889 -0.11053 0
M  V30 3151 H 309.249 -3.96767 -1.25359 0
M  V30 3152 H 308.125 -5.08301 -2.07174 0
M  V30 3153 H 308.386 -3.47616 -2.73158 0
M  V30 3154 N 307.445 0.0818655 -1.57387 0
M  V30 3155 C 308.693 0.781368 -1.86384 0
M  V30 3156 C 309.014 1.78618 -0.782342 0
M  V30 3157 O 308.284 1.94976 0.190061 0
M  V30 3158 H 306.864 0.291562 -0.687751 0
M  V30 3159 H 309.526 0.060348 -1.94807 0
M  V30 3160 H 308.622 1.3038 -2.83562 0
M  V30 3161 N 308.923 1.53595 0.353017 0
M  V30 3162 C 310.17 1.70385 1.09431 0
M  V30 3163 C 310.498 0.462113 1.88931 0
M  V30 3164 O 309.753 -0.556074 1.87633 0
M  V30 3165 C 310.052 2.91313 2.07054 0
M  V30 3166 C 309.718 4.27308 1.43939 0
M  V30 3167 C 308.38 4.64287 1.26454 0
M  V30 3168 C 310.732 5.11829 0.983883 0
M  V30 3169 C 308.06 5.83412 0.620226 0
M  V30 3170 C 310.412 6.31611 0.353516 0
M  V30 3171 C 309.076 6.67293 0.166272 0
M  V30 3172 H 308.346 0.623484 0.400436 0
M  V30 3173 H 310.993 1.87799 0.374655 0
M  V30 3174 H 309.298 2.68463 2.85368 0
M  V30 3175 H 310.995 3.01497 2.64387 0
M  V30 3176 H 307.585 3.98198 1.58543 0
M  V30 3177 H 311.769 4.838 1.10685 0
M  V30 3178 H 307.025 6.09639 0.463681 0
M  V30 3179 H 311.199 6.964 -0.00757555 0
M  V30 3180 H 308.826 7.59461 -0.335047 0
M  V30 3181 N 310.401 -0.613514 1.45168 0
M  V30 3182 C 311.364 -1.7065 1.53007 0
M  V30 3183 C 312.364 -1.5548 0.410184 0
M  V30 3184 O 313.554 -1.60656 0.673455 0
M  V30 3185 C 310.686 -3.09875 1.42093 0
M  V30 3186 H 311.879 -1.65068 2.50385 0
M  V30 3187 H 309.432 -0.828728 1.32521 0
M  V30 3188 H 310.167 -3.21039 0.458769 0
M  V30 3189 H 309.952 -3.22293 2.23315 0
M  V30 3190 H 311.442 -3.895 1.50598 0
M  V30 3191 N 311.879 -1.3236 -0.855495 0
M  V30 3192 C 312.842 -1.21164 -1.94556 0
M  V30 3193 C 313.842 -0.134908 -1.60233 0
M  V30 3194 O 315.032 -0.385249 -1.69887 0
M  V30 3195 C 312.164 -0.863192 -3.29791 0
M  V30 3196 H 313.357 -2.18038 -2.05911 0
M  V30 3197 H 310.91 -1.16179 -1.04557 0
M  V30 3198 H 311.645 0.103769 -3.24134 0
M  V30 3199 H 311.43 -1.64166 -3.56078 0
M  V30 3200 H 312.92 -0.809156 -4.09686 0
M  V30 3201 N 313.357 1.07166 -1.15556 0
M  V30 3202 C 314.634 1.76546 -0.842069 0
M  V30 3203 C 315.014 2.00453 0.661939 0
M  V30 3204 O 314.362 1.62452 1.60691 0
M  V30 3205 C 314.572 3.07266 -1.65495 0
M  V30 3206 C 315.92 3.81578 -1.86234 0
M  V30 3207 O 316.944 3.17083 -1.62287 0
M  V30 3208 O 315.803 4.97419 -2.26355 0
M  V30 3209 H 312.897 0.766756 -0.309862 0
M  V30 3210 H 315.443 1.13514 -1.26145 0
M  V30 3211 H 314.215 2.85494 -2.67598 0
M  V30 3212 H 313.838 3.7803 -1.23203 0
M  V30 3213 N 314.835 0.952656 1.25548 0
M  V30 3214 C 316.083 0.605176 1.92826 0
M  V30 3215 C 316.404 -0.860261 1.74999 0
M  V30 3216 O 315.674 -1.6125 1.11244 0
M  V30 3217 H 314.254 0.220832 0.713612 0
M  V30 3218 H 316.916 1.21047 1.52754 0
M  V30 3219 H 316.012 0.832798 3.00784 0
M  V30 3220 N 316.313 -1.40141 0.720998 0
M  V30 3221 C 317.729 -1.54632 0.395113 0
M  V30 3222 C 317.929 -1.69115 -1.09555 0
M  V30 3223 O 316.985 -1.68377 -1.88163 0
M  V30 3224 C 318.298 -2.77177 1.1659 0
M  V30 3225 C 319.846 -2.91 1.15274 0
M  V30 3226 C 320.321 -4.16465 1.90579 0
M  V30 3227 N 321.812 -4.23476 1.87675 0
M  V30 3228 C 322.547 -5.19475 2.42762 0
M  V30 3229 N 322.043 -6.21348 3.06428 0
M  V30 3230 N 323.836 -5.11592 2.32874 0
M  V30 3231 H 315.987 -1.28986 1.68749 0
M  V30 3232 H 318.25 -0.62412 0.713567 0
M  V30 3233 H 317.956 -2.72771 2.22011 0
M  V30 3234 H 317.83 -3.69442 0.76108 0
M  V30 3235 H 320.217 -2.94907 0.106702 0
M  V30 3236 H 320.298 -1.99838 1.59682 0
M  V30 3237 H 319.942 -4.1332 2.95176 0
M  V30 3238 H 319.872 -5.06646 1.43587 0
M  V30 3239 H 322.363 -3.50497 1.41281 0
M  V30 3240 H 322.676 -6.91034 3.45965 0
M  V30 3241 H 321.021 -6.21777 3.10514 0
M  V30 3242 H 324.212 -4.30936 1.82789 0
M  V30 3243 H 324.385 -5.86233 2.76106 0
M  V30 3244 N 317.792 -0.46758 -1.50504 0
M  V30 3245 C 318.755 0.317059 -2.26996 0
M  V30 3246 C 319.755 0.923513 -1.31635 0
M  V30 3247 O 320.945 0.793239 -1.55091 0
M  V30 3248 C 318.077 1.45134 -3.08462 0
M  V30 3249 H 319.27 -0.353723 -2.97807 0
M  V30 3250 H 316.823 -0.221545 -1.54722 0
M  V30 3251 H 317.558 2.15728 -2.4214 0
M  V30 3252 H 317.343 1.02232 -3.78538 0
M  V30 3253 H 318.833 2.00493 -3.66323 0
M  V30 3254 N 319.27 1.56325 -0.20005 0
M  V30 3255 C 320.547 1.89484 0.48529 0
M  V30 3256 C 320.927 1.1143 1.79294 0
M  V30 3257 O 320.275 0.216919 2.27468 0
M  V30 3258 C 320.485 3.41923 0.699243 0
M  V30 3259 C 321.833 4.12256 1.01638 0
M  V30 3260 O 322.857 3.47402 0.786792 0
M  V30 3261 O 321.716 5.26887 1.45095 0
M  V30 3262 H 318.81 0.787144 0.253639 0
M  V30 3263 H 321.356 1.67985 -0.240633 0
M  V30 3264 H 320.128 3.90658 -0.224008 0
M  V30 3265 H 319.751 3.69131 1.47744 0
M  V30 3266 N 320.748 -0.0735177 1.57428 0
M  V30 3267 C 322.164 -0.428264 1.53747 0
M  V30 3268 C 322.364 -1.79272 0.91998 0
M  V30 3269 O 321.42 -2.47051 0.521745 0
M  V30 3270 C 322.733 -0.370914 2.98404 0
M  V30 3271 C 324.281 -0.451224 3.0973 0
M  V30 3272 C 324.756 -0.4238 4.56035 0
M  V30 3273 N 326.247 -0.483925 4.60665 0
M  V30 3274 C 326.982 -0.484891 5.71346 0
M  V30 3275 N 326.478 -0.440775 6.91396 0
M  V30 3276 N 328.271 -0.531319 5.59583 0
M  V30 3277 H 320.422 0.819949 1.95935 0
M  V30 3278 H 322.685 0.307493 0.896745 0
M  V30 3279 H 322.391 0.564956 3.47133 0
M  V30 3280 H 322.265 -1.18176 3.5821 0
M  V30 3281 H 324.652 -1.37752 2.60976 0
M  V30 3282 H 324.733 0.388167 2.52838 0
M  V30 3283 H 324.377 0.498638 5.05446 0
M  V30 3284 H 324.307 -1.2807 5.10789 0
M  V30 3285 H 326.798 -0.522338 3.74273 0
M  V30 3286 H 327.111 -0.44539 7.71515 0
M  V30 3287 H 325.456 -0.40749 6.93804 0
M  V30 3288 H 328.647 -0.563464 4.64696 0
M  V30 3289 H 328.82 -0.528603 6.4584 0
M  V30 3290 N 322.226 -1.5378 -0.344866 0
M  V30 3291 C 323.472 -1.71216 -1.08687 0
M  V30 3292 C 323.805 -0.473281 -1.88345 0
M  V30 3293 O 323.08 0.52968 -1.87149 0
M  V30 3294 C 323.363 -2.97486 -2.02914 0
M  V30 3295 C 323.216 -4.31579 -1.26727 0
M  V30 3296 C 324.535 -3.19422 -3.0275 0
M  V30 3297 H 321.654 -0.62301 -0.393735 0
M  V30 3298 H 324.296 -1.8645 -0.365563 0
M  V30 3299 H 322.446 -2.84629 -2.64421 0
M  V30 3300 H 324.118 -4.56284 -0.67845 0
M  V30 3301 H 322.361 -4.30049 -0.569273 0
M  V30 3302 H 323.032 -5.16106 -1.95803 0
M  V30 3303 H 325.508 -3.316 -2.51357 0
M  V30 3304 H 324.384 -4.09169 -3.65885 0
M  V30 3305 H 324.645 -2.35656 -3.74057 0
M  V30 3306 N 323.704 0.605807 -1.45491 0
M  V30 3307 C 324.953 1.36086 -1.48874 0
M  V30 3308 C 325.266 1.95131 -0.135333 0
M  V30 3309 O 326.472 2.7146 -0.0468144 0
M  V30 3310 C 324.928 2.46518 -2.62215 0
M  V30 3311 C 324.536 1.93877 -4.03876 0
M  V30 3312 C 326.28 3.23512 -2.74846 0
M  V30 3313 C 324.187 3.01801 -5.08596 0
M  V30 3314 H 323.117 0.511497 -0.553974 0
M  V30 3315 H 325.768 0.649089 -1.71636 0
M  V30 3316 H 324.15 3.20388 -2.32739 0
M  V30 3317 H 325.324 1.26704 -4.43038 0
M  V30 3318 H 323.639 1.29622 -3.95711 0
M  V30 3319 H 326.236 4.04013 -3.50253 0
M  V30 3320 H 326.579 3.74631 -1.81542 0
M  V30 3321 H 327.112 2.56742 -3.03856 0
M  V30 3322 H 323.851 2.55597 -6.03614 0
M  V30 3323 H 323.371 3.67535 -4.74002 0
M  V30 3324 H 325.05 3.66152 -5.33424 0
M  V30 3325 N 325.182 1.32811 0.848464 0
M  V30 3326 C 326.43 1.23479 1.59991 0
M  V30 3327 C 326.751 -0.201853 1.93952 0
M  V30 3328 O 326.021 -1.12818 1.60153 0
M  V30 3329 H 324.601 0.454034 0.593179 0
M  V30 3330 H 327.263 1.66412 1.01455 0
M  V30 3331 H 326.359 1.82178 2.53412 0
M  V30 3332 N 326.66 -1.06551 1.16123 0
M  V30 3333 C 327.906 -1.79567 0.94252 0
M  V30 3334 C 328.239 -1.86869 -0.528547 0
M  V30 3335 O 327.514 -1.35838 -1.39206 0
M  V30 3336 C 327.797 -3.24195 1.56747 0
M  V30 3337 C 327.65 -3.24989 3.10969 0
M  V30 3338 C 328.969 -4.21678 1.25998 0
M  V30 3339 H 326.088 -0.651883 0.343828 0
M  V30 3340 H 328.73 -1.2463 1.43413 0
M  V30 3341 H 326.88 -3.71107 1.14942 0
M  V30 3342 H 328.552 -2.86258 3.61737 0
M  V30 3343 H 326.795 -2.63716 3.44436 0
M  V30 3344 H 327.466 -4.27005 3.49815 0
M  V30 3345 H 329.942 -3.83196 1.62174 0
M  V30 3346 H 328.818 -5.21146 1.7233 0
M  V30 3347 H 329.079 -4.4174 0.178367 0
M  V30 3348 N 328.138 -0.959301 -1.25041 0
M  V30 3349 C 329.415 -0.533805 -1.88175 0
M  V30 3350 C 329.795 0.988994 -1.865 0
M  V30 3351 O 329.143 1.85677 -1.33177 0
M  V30 3352 C 329.353 -1.11575 -3.30684 0
M  V30 3353 C 330.701 -1.19548 -4.07423 0
M  V30 3354 O 331.725 -1.06765 -3.39823 0
M  V30 3355 O 330.584 -1.39656 -5.28354 0
M  V30 3356 H 327.678 -0.176772 -0.807887 0
M  V30 3357 H 330.224 -1.05303 -1.33076 0
M  V30 3358 H 328.996 -2.15884 -3.26358 0
M  V30 3359 H 328.619 -0.580059 -3.93346 0
M  V30 3360 N 329.616 1.39756 -0.72842 0
M  V30 3361 C 330.579 2.29012 -0.0927297 0
M  V30 3362 C 331.579 1.45992 0.674025 0
M  V30 3363 O 332.769 1.66749 0.50402 0
M  V30 3364 C 329.901 3.29396 0.878137 0
M  V30 3365 H 331.094 2.86729 -0.879011 0
M  V30 3366 H 328.647 1.48293 -0.493847 0
M  V30 3367 H 329.382 2.76722 1.69101 0
M  V30 3368 H 329.167 3.907 0.331051 0
M  V30 3369 H 330.657 3.96199 1.3197 0
M  V30 3370 N 331.094 0.475555 1.50254 0
M  V30 3371 C 332.319 -0.0777042 2.07254 0
M  V30 3372 C 332.744 -1.3235 1.3366 0
M  V30 3373 O 332.102 -1.77152 0.385597 0
M  V30 3374 C 332.15 -0.340169 3.58992 0
M  V30 3375 O 331.254 -1.41982 3.87188 0
M  V30 3376 H 330.595 0.0149556 0.663832 0
M  V30 3377 H 333.125 0.667878 1.93392 0
M  V30 3378 H 333.135 -0.579332 4.03866 0
M  V30 3379 H 331.81 0.570167 4.11973 0
M  V30 3380 H 330.387 -1.16762 3.54148 0
M  V30 3381 N 332.573 -1.56217 0.208337 0
M  V30 3382 C 333.536 -2.18455 -0.693557 0
M  V30 3383 C 334.536 -1.14268 -1.13135 0
M  V30 3384 O 335.726 -1.39577 -1.0423 0
M  V30 3385 C 332.858 -2.79727 -1.94848 0
M  V30 3386 H 334.051 -2.99519 -0.15114 0
M  V30 3387 H 331.604 -1.56245 -0.041287 0
M  V30 3388 H 332.339 -2.02497 -2.53309 0
M  V30 3389 H 332.124 -3.56009 -1.64316 0
M  V30 3390 H 333.614 -3.27475 -2.59133 0
M  V30 3391 N 334.051 0.0651679 -1.57465 0
M  V30 3392 C 334.998 1.07675 -2.04144 0
M  V30 3393 C 335.968 1.38071 -0.923335 0
M  V30 3394 O 337.153 1.49026 -1.19146 0
M  V30 3395 C 334.293 2.38337 -2.49579 0
M  V30 3396 C 333.406 2.14413 -3.75035 0
M  V30 3397 C 332.541 3.38686 -4.09225 0
M  V30 3398 C 331.58 3.10156 -5.27702 0
M  V30 3399 N 330.717 4.26778 -5.57499 0
M  V30 3400 H 335.557 0.671716 -2.90331 0
M  V30 3401 H 333.094 0.3201 -1.43575 0
M  V30 3402 H 335.052 3.14632 -2.73975 0
M  V30 3403 H 333.682 2.7663 -1.6636 0
M  V30 3404 H 332.734 1.2878 -3.57939 0
M  V30 3405 H 334.046 1.89344 -4.61466 0
M  V30 3406 H 333.2 4.23373 -4.34558 0
M  V30 3407 H 331.939 3.66837 -3.21374 0
M  V30 3408 H 330.944 2.23866 -5.02159 0
M  V30 3409 H 332.169 2.8332 -6.17176 0
M  V30 3410 H 330.115 4.54948 -4.72608 0
M  V30 3411 H 330.032 4.05005 -6.38362 0
M  V30 3412 H 331.3 5.12443 -5.87386 0
M  V30 3413 N 335.529 1.53961 0.336706 0
M  V30 3414 C 336.94 1.62914 0.911925 0
M  V30 3415 C 337.291 0.514795 1.89326 0
M  V30 3416 O 336.416 -0.354395 2.13478 0
M  V30 3417 C 337.011 2.95304 1.66076 0
M  V30 3418 C 335.57 3.06496 2.18489 0
M  V30 3419 C 334.717 2.58403 1.00613 0
M  V30 3420 H 337.668 1.58285 0.114649 0
M  V30 3421 H 337.689 2.84727 2.5241 0
M  V30 3422 H 337.201 3.76387 0.946276 0
M  V30 3423 H 335.302 2.3006 2.93092 0
M  V30 3424 H 335.415 4.1208 2.44391 0
M  V30 3425 H 333.779 2.13977 1.38152 0
M  V30 3426 H 334.562 3.41932 0.306179 0
M  V30 3427 N 337.007 -0.598083 1.45811 0
M  V30 3428 C 337.97 -1.69018 1.54808 0
M  V30 3429 C 338.97 -1.55037 0.426652 0
M  V30 3430 O 340.16 -1.59932 0.690456 0
M  V30 3431 C 337.292 -3.0835 1.45371 0
M  V30 3432 H 338.485 -1.62403 2.52121 0
M  V30 3433 H 336.038 -0.814626 1.33392 0
M  V30 3434 H 336.773 -3.20534 0.492793 0
M  V30 3435 H 336.558 -3.19907 2.26721 0
M  V30 3436 H 338.048 -3.8788 1.54721 0
M  V30 3437 N 338.485 -1.33259 -0.841409 0
M  V30 3438 C 339.417 -1.19136 -1.95804 0
M  V30 3439 C 340.43 -0.122965 -1.62335 0
M  V30 3440 O 341.619 -0.373154 -1.74556 0
M  V30 3441 C 338.719 -0.804268 -3.29218 0
M  V30 3442 C 337.892 -1.96376 -3.90839 0
M  V30 3443 C 336.951 -1.55806 -5.02604 0
M  V30 3444 O 335.977 -2.27203 -5.21888 0
M  V30 3445 N 337.179 -0.461609 -5.78662 0
M  V30 3446 H 339.944 -2.15326 -2.08458 0
M  V30 3447 H 337.505 -1.25971 -1.017 0
M  V30 3448 H 339.497 -0.51501 -4.0141 0
M  V30 3449 H 338.067 0.0668809 -3.12528 0
M  V30 3450 H 337.287 -2.41879 -3.11269 0
M  V30 3451 H 338.575 -2.73966 -4.28742 0
M  V30 3452 H 337.973 0.132343 -5.65545 0
M  V30 3453 H 336.53 -0.232013 -6.51387 0
M  V30 3454 N 339.963 1.05934 -1.16686 0
M  V30 3455 C 341.191 1.8249 -0.974929 0
M  V30 3456 C 341.606 1.82679 0.476861 0
M  V30 3457 O 340.963 1.2486 1.33103 0
M  V30 3458 C 341.014 3.28943 -1.49929 0
M  V30 3459 O 340.735 3.28886 -2.89423 0
M  V30 3460 C 342.236 4.22215 -1.35089 0
M  V30 3461 H 339.456 0.575295 -0.345365 0
M  V30 3462 H 342 1.33631 -1.548 0
M  V30 3463 H 340.155 3.751 -0.968423 0
M  V30 3464 H 340.569 4.20493 -3.13506 0
M  V30 3465 H 342.043 5.22987 -1.76603 0
M  V30 3466 H 342.52 4.38195 -0.296935 0
M  V30 3467 H 343.126 3.81907 -1.87155 0
M  V30 3468 N 341.441 0.965919 1.2453 0
M  V30 3469 C 342.857 0.67216 1.44756 0
M  V30 3470 C 343.057 -0.766609 1.86347 0
M  V30 3471 O 342.113 -1.5407 2.00047 0
M  V30 3472 C 343.426 1.65473 2.51076 0
M  V30 3473 C 344.974 1.66716 2.64905 0
M  V30 3474 C 345.449 2.63766 3.74421 0
M  V30 3475 N 346.94 2.62198 3.81846 0
M  V30 3476 C 347.675 3.33966 4.66106 0
M  V30 3477 N 347.171 4.15245 5.54566 0
M  V30 3478 N 348.964 3.22799 4.60171 0
M  V30 3479 H 341.115 1.89553 0.958293 0
M  V30 3480 H 343.378 0.815979 0.482579 0
M  V30 3481 H 343.084 2.68296 2.27399 0
M  V30 3482 H 342.958 1.4261 3.49202 0
M  V30 3483 H 345.345 0.646057 2.87941 0
M  V30 3484 H 345.426 1.93642 1.67142 0
M  V30 3485 H 345.07 3.6601 3.52135 0
M  V30 3486 H 345 2.34121 4.71694 0
M  V30 3487 H 347.491 2.032 3.18619 0
M  V30 3488 H 347.804 4.66898 6.15814 0
M  V30 3489 H 346.149 4.1934 5.54237 0
M  V30 3490 H 349.34 2.58764 3.90075 0
M  V30 3491 H 349.513 3.78994 5.25612 0
M  V30 3492 N 342.919 -1.39368 0.735821 0
M  V30 3493 C 343.829 -2.34395 0.0979693 0
M  V30 3494 C 344.845 -1.58361 -0.720968 0
M  V30 3495 O 346.021 -1.90648 -0.649245 0
M  V30 3496 C 343.086 -3.37393 -0.797916 0
M  V30 3497 C 342.147 -4.29287 0.0333662 0
M  V30 3498 C 341.38 -5.27365 -0.819854 0
M  V30 3499 O 341.603 -5.31959 -2.05855 0
M  V30 3500 O 340.537 -6.01389 -0.248079 0
M  V30 3501 H 344.363 -2.90601 0.882315 0
M  V30 3502 H 341.948 -1.40909 0.4965 0
M  V30 3503 H 343.83 -4.00505 -1.31048 0
M  V30 3504 H 342.505 -2.83571 -1.56106 0
M  V30 3505 H 341.412 -3.69395 0.591475 0
M  V30 3506 H 342.745 -4.86317 0.758752 0
M  V30 3507 N 344.397 -0.483516 -1.5 0
M  V30 3508 C 345.329 0.340634 -2.26655 0
M  V30 3509 C 346.342 0.946152 -1.32483 0
M  V30 3510 O 347.531 0.832453 -1.579 0
M  V30 3511 C 344.631 1.4929 -3.04246 0
M  V30 3512 C 343.804 0.997903 -4.25865 0
M  V30 3513 C 342.863 2.02569 -4.85646 0
M  V30 3514 O 341.889 1.60128 -5.46212 0
M  V30 3515 N 343.091 3.3548 -4.73744 0
M  V30 3516 H 345.856 -0.316577 -2.98023 0
M  V30 3517 H 343.417 -0.315024 -1.58806 0
M  V30 3518 H 345.409 2.17766 -3.41116 0
M  V30 3519 H 343.979 2.05458 -2.35597 0
M  V30 3520 H 343.199 0.138617 -3.93956 0
M  V30 3521 H 344.487 0.645305 -5.04691 0
M  V30 3522 H 343.885 3.72661 -4.25605 0
M  V30 3523 H 342.442 3.99718 -5.14848 0
M  V30 3524 N 345.875 1.56104 -0.216619 0
M  V30 3525 C 347.124 1.97348 0.416744 0
M  V30 3526 C 347.437 1.10715 1.6125 0
M  V30 3527 O 348.643 1.41836 2.31506 0
M  V30 3528 C 347.099 3.51059 0.792835 0
M  V30 3529 C 346.707 4.46387 -0.379828 0
M  V30 3530 C 348.451 4.01026 1.39208 0
M  V30 3531 C 346.358 5.91397 0.0184223 0
M  V30 3532 H 345.288 0.736942 0.159475 0
M  V30 3533 H 347.939 1.80827 -0.31205 0
M  V30 3534 H 346.321 3.63162 1.57891 0
M  V30 3535 H 347.495 4.46029 -1.15737 0
M  V30 3536 H 345.81 4.06734 -0.891979 0
M  V30 3537 H 348.407 5.0686 1.70286 0
M  V30 3538 H 348.75 3.46587 2.30614 0
M  V30 3539 H 349.283 3.92125 0.669537 0
M  V30 3540 H 346.022 6.49807 -0.862002 0
M  V30 3541 H 345.542 5.94961 0.760384 0
M  V30 3542 H 347.221 6.45455 0.446818 0
M  V30 3543 N 347.353 -0.0568162 1.57498 0
M  V30 3544 C 348.581 -0.765626 1.92213 0
M  V30 3545 C 348.996 -1.70353 0.813961 0
M  V30 3546 O 348.353 -1.81268 -0.211701 0
M  V30 3547 C 348.404 -1.5465 3.2675 0
M  V30 3548 O 348.125 -0.646278 4.33307 0
M  V30 3549 C 349.626 -2.35497 3.75574 0
M  V30 3550 H 346.846 -0.216835 0.634999 0
M  V30 3551 H 349.39 -0.0226146 2.04487 0
M  V30 3552 H 347.545 -2.24165 3.15957 0
M  V30 3553 H 347.959 -1.19093 5.108 0
M  V30 3554 H 349.433 -2.85722 4.72299 0
M  V30 3555 H 349.91 -3.15692 3.05344 0
M  V30 3556 H 350.516 -1.7111 3.8936 0
M  V30 3557 N 348.832 -1.54138 -0.328536 0
M  V30 3558 C 350.248 -1.44736 -0.672574 0
M  V30 3559 C 350.448 -0.616217 -1.91846 0
M  V30 3560 O 349.504 -0.113067 -2.52247 0
M  V30 3561 C 350.817 -2.884 -0.851217 0
M  V30 3562 C 352.365 -2.98271 -0.948877 0
M  V30 3563 C 352.84 -4.43074 -1.15973 0
M  V30 3564 N 354.331 -4.46665 -1.22658 0
M  V30 3565 C 355.066 -5.55857 -1.40751 0
M  V30 3566 N 354.562 -6.75026 -1.5592 0
M  V30 3567 N 356.355 -5.43495 -1.4342 0
M  V30 3568 H 348.506 -2.06661 0.490421 0
M  V30 3569 H 350.769 -0.934812 0.157579 0
M  V30 3570 H 350.475 -3.51699 -0.00704236 0
M  V30 3571 H 350.349 -3.34225 -1.74853 0
M  V30 3572 H 352.736 -2.35102 -1.78356 0
M  V30 3573 H 352.817 -2.55785 -0.0281435 0
M  V30 3574 H 352.461 -5.06827 -0.329915 0
M  V30 3575 H 352.391 -4.83165 -2.09426 0
M  V30 3576 H 354.882 -3.60797 -1.124 0
M  V30 3577 H 355.195 -7.54004 -1.69404 0
M  V30 3578 H 353.54 -6.77944 -1.53027 0
M  V30 3579 H 356.731 -4.49349 -1.31162 0
M  V30 3580 H 356.904 -6.28649 -1.57178 0
M  V30 3581 N 350.31 0.590341 -1.46126 0
M  V30 3582 C 351.559 1.34499 -1.50309 0
M  V30 3583 C 351.872 1.94977 -0.156021 0
M  V30 3584 O 353.078 2.71395 -0.0756037 0
M  V30 3585 C 351.534 2.43723 -2.64815 0
M  V30 3586 C 351.142 1.89582 -4.0591 0
M  V30 3587 C 352.886 3.20579 -2.78262 0
M  V30 3588 C 350.793 2.9639 -5.11769 0
M  V30 3589 H 349.723 0.505593 -0.559368 0
M  V30 3590 H 352.374 0.630848 -1.72315 0
M  V30 3591 H 350.756 3.17902 -2.36124 0
M  V30 3592 H 351.93 1.21997 -4.44357 0
M  V30 3593 H 350.245 1.25418 -3.97063 0
M  V30 3594 H 352.842 4.00276 -3.54519 0
M  V30 3595 H 353.185 3.72684 -1.85505 0
M  V30 3596 H 353.718 2.53505 -3.06562 0
M  V30 3597 H 350.457 2.49181 -6.06291 0
M  V30 3598 H 349.977 3.62487 -4.77873 0
M  V30 3599 H 351.656 3.60474 -5.37278 0
M  V30 3600 N 351.788 1.33704 0.83433 0
M  V30 3601 C 352.751 1.24244 1.92603 0
M  V30 3602 C 353.751 0.160383 1.59998 0
M  V30 3603 O 354.941 0.412228 1.69252 0
M  V30 3604 C 352.073 0.91555 3.28376 0
M  V30 3605 H 353.266 2.21287 2.02416 0
M  V30 3606 H 350.819 1.17827 1.02696 0
M  V30 3607 H 351.554 -0.0521886 3.24258 0
M  V30 3608 H 351.339 1.69811 3.53422 0
M  V30 3609 H 352.829 0.874231 4.08347 0
M  V30 3610 N 353.266 -1.05314 1.17247 0
M  V30 3611 C 354.682 -1.30452 0.919473 0
M  V30 3612 C 354.882 -1.9703 -0.42209 0
M  V30 3613 O 353.938 -2.24311 -1.15935 0
M  V30 3614 C 355.251 -2.17551 2.07586 0
M  V30 3615 C 356.799 -2.30937 2.11275 0
M  V30 3616 C 357.274 -3.21396 3.26296 0
M  V30 3617 N 358.765 -3.28981 3.26076 0
M  V30 3618 C 359.5 -3.99095 4.11716 0
M  V30 3619 N 358.996 -4.71648 5.07465 0
M  V30 3620 N 360.789 -3.95247 3.9967 0
M  V30 3621 H 352.94 -0.604988 2.03602 0
M  V30 3622 H 355.203 -0.329368 0.888944 0
M  V30 3623 H 354.909 -1.75921 3.0454 0
M  V30 3624 H 354.783 -3.18182 2.02584 0
M  V30 3625 H 357.17 -2.71809 1.14907 0
M  V30 3626 H 357.251 -1.2994 2.20339 0
M  V30 3627 H 356.895 -2.81238 4.22927 0
M  V30 3628 H 356.825 -4.22395 3.14467 0
M  V30 3629 H 359.316 -2.77286 2.5675 0
M  V30 3630 H 359.629 -5.22705 5.6921 0
M  V30 3631 H 357.974 -4.70594 5.11435 0
M  V30 3632 H 361.165 -3.37691 3.24164 0
M  V30 3633 H 361.338 -4.4962 4.66632 0
M  V30 3634 N 354.744 -0.972509 -1.24016 0
M  V30 3635 C 355.676 -0.464375 -2.24446 0
M  V30 3636 C 356.689 0.4295 -1.57032 0
M  V30 3637 O 357.878 0.234902 -1.76948 0
M  V30 3638 C 354.978 0.348385 -3.37105 0
M  V30 3639 C 354.151 -0.53673 -4.34094 0
M  V30 3640 C 353.21 0.220838 -5.25736 0
M  V30 3641 O 352.236 -0.386867 -5.67884 0
M  V30 3642 N 353.438 1.50907 -5.60542 0
M  V30 3643 H 356.203 -1.32788 -2.68677 0
M  V30 3644 H 353.764 -0.844877 -1.38107 0
M  V30 3645 H 355.756 0.863341 -3.95384 0
M  V30 3646 H 354.326 1.11285 -2.92121 0
M  V30 3647 H 353.546 -1.23261 -3.74433 0
M  V30 3648 H 354.834 -1.14022 -4.95859 0
M  V30 3649 H 354.232 2.02444 -5.28236 0
M  V30 3650 H 352.789 1.96962 -6.21329 0
M  V30 3651 N 356.222 1.38976 -0.743202 0
M  V30 3652 C 357.45 2.04636 -0.30525 0
M  V30 3653 C 357.865 1.56044 1.06281 0
M  V30 3654 O 357.222 0.728921 1.67311 0
M  V30 3655 C 357.273 3.60193 -0.307177 0
M  V30 3656 O 356.994 4.06998 -1.62124 0
M  V30 3657 C 358.495 4.4306 0.145928 0
M  V30 3658 H 355.715 0.65788 -0.132041 0
M  V30 3659 H 358.259 1.77866 -1.00915 0
M  V30 3660 H 356.414 3.85835 0.347898 0
M  V30 3661 H 356.828 5.01371 -1.54036 0
M  V30 3662 H 358.302 5.51921 0.0934183 0
M  V30 3663 H 358.779 4.22706 1.19231 0
M  V30 3664 H 359.385 4.22584 -0.479886 0
M  V30 3665 N 357.7 0.491464 1.49741 0
M  V30 3666 C 358.663 -0.280906 2.27472 0
M  V30 3667 C 359.663 -0.902454 1.33088 0
M  V30 3668 O 360.853 -0.768465 1.56334 0
M  V30 3669 C 357.985 -1.40209 3.10732 0
M  V30 3670 H 359.178 0.401056 2.97206 0
M  V30 3671 H 356.731 0.246131 1.5435 0
M  V30 3672 H 357.466 -2.11849 2.45541 0
M  V30 3673 H 357.251 -0.961969 3.80117 0
M  V30 3674 H 358.741 -1.9464 3.69466 0
M  V30 3675 N 359.178 -1.55987 0.224894 0
M  V30 3676 C 360.088 -2.24066 -0.69511 0
M  V30 3677 C 361.104 -1.24939 -1.21104 0
M  V30 3678 O 362.28 -1.5776 -1.25195 0
M  V30 3679 C 359.345 -2.90983 -1.88493 0
M  V30 3680 C 358.406 -4.05462 -1.41064 0
M  V30 3681 C 357.639 -4.69179 -2.54375 0
M  V30 3682 O 357.862 -4.31895 -3.72589 0
M  V30 3683 O 356.796 -5.58108 -2.25386 0
M  V30 3684 H 360.622 -3.03353 -0.145149 0
M  V30 3685 H 358.207 -1.49399 -0.00569476 0
M  V30 3686 H 360.089 -3.33209 -2.57972 0
M  V30 3687 H 358.764 -2.14653 -2.42293 0
M  V30 3688 H 357.671 -3.67798 -0.683774 0
M  V30 3689 H 359.004 -4.83545 -0.918985 0
M  V30 3690 N 360.656 0.0484629 -1.57525 0
M  V30 3691 C 361.603 1.05504 -2.05275 0
M  V30 3692 C 362.573 1.37084 -0.937927 0
M  V30 3693 O 363.758 1.47754 -1.2072 0
M  V30 3694 C 360.898 2.35676 -2.52093 0
M  V30 3695 C 360.011 2.10423 -3.77288 0
M  V30 3696 C 359.146 3.34327 -4.12794 0
M  V30 3697 C 358.185 3.04542 -5.30962 0
M  V30 3698 N 357.322 4.20841 -5.61994 0
M  V30 3699 H 362.162 0.640885 -2.91027 0
M  V30 3700 H 359.699 0.304854 -1.43906 0
M  V30 3701 H 361.657 3.11709 -2.77297 0
M  V30 3702 H 360.287 2.7485 -1.69285 0
M  V30 3703 H 359.339 1.24976 -3.59284 0
M  V30 3704 H 360.651 1.84438 -4.63448 0
M  V30 3705 H 359.805 4.1874 -4.39024 0
M  V30 3706 H 358.544 3.63408 -3.25247 0
M  V30 3707 H 357.549 2.18528 -5.04505 0
M  V30 3708 H 358.774 2.76758 -6.20146 0
M  V30 3709 H 356.72 4.4991 -4.77406 0
M  V30 3710 H 356.637 3.98212 -6.42622 0
M  V30 3711 H 357.905 5.06184 -5.92789 0
M  V30 3712 N 362.134 1.5431 0.320358 0
M  V30 3713 C 363.38 1.72924 1.05949 0
M  V30 3714 C 363.713 0.503185 1.87568 0
M  V30 3715 O 362.988 -0.499839 1.87968 0
M  V30 3716 C 363.271 3.00676 1.98156 0
M  V30 3717 C 363.124 4.3354 1.19845 0
M  V30 3718 C 364.443 3.24198 2.9763 0
M  V30 3719 H 361.562 0.629195 0.383774 0
M  V30 3720 H 364.204 1.87008 0.335854 0
M  V30 3721 H 362.354 2.888 2.59859 0
M  V30 3722 H 364.026 4.57305 0.605773 0
M  V30 3723 H 362.269 4.309 0.500784 0
M  V30 3724 H 362.94 5.19156 1.87567 0
M  V30 3725 H 365.416 3.35557 2.4605 0
M  V30 3726 H 364.292 4.14938 3.59329 0
M  V30 3727 H 364.553 2.41577 3.7026 0
M  V30 3728 N 363.613 -0.582584 1.46437 0
M  V30 3729 C 364.861 -1.33814 1.51453 0
M  V30 3730 C 365.182 -1.94277 0.167792 0
M  V30 3731 O 364.452 -1.78566 -0.805677 0
M  V30 3732 H 363.032 -0.496838 0.557818 0
M  V30 3733 H 365.694 -0.682281 1.82568 0
M  V30 3734 H 364.79 -2.14479 2.26728 0
M  V30 3735 N 365.091 -1.34144 -0.827227 0
M  V30 3736 C 366.021 -1.28005 -1.95287 0
M  V30 3737 C 367.002 -0.158321 -1.69362 0
M  V30 3738 O 368.187 -0.349987 -1.9102 0
M  V30 3739 C 365.317 -1.03036 -3.31664 0
M  V30 3740 C 364.271 -2.11628 -3.72019 0
M  V30 3741 C 363.597 -1.71854 -5.0633 0
M  V30 3742 C 364.897 -3.53417 -3.8457 0
M  V30 3743 H 366.591 -2.22187 -2.00682 0
M  V30 3744 H 364.137 -1.0696 -0.964135 0
M  V30 3745 H 366.09 -0.973863 -4.09993 0
M  V30 3746 H 364.814 -0.0529391 -3.26557 0
M  V30 3747 H 363.473 -2.16339 -2.95961 0
M  V30 3748 H 363.121 -0.727841 -4.97706 0
M  V30 3749 H 362.821 -2.44531 -5.34302 0
M  V30 3750 H 364.345 -1.67692 -5.87122 0
M  V30 3751 H 365.759 -3.51142 -4.5318 0
M  V30 3752 H 364.156 -4.24679 -4.2399 0
M  V30 3753 H 365.226 -3.91072 -2.86689 0
M  V30 3754 N 366.569 1.04691 -1.17803 0
M  V30 3755 C 367.479 2.16057 -0.914151 0
M  V30 3756 C 368.495 1.73589 0.119503 0
M  V30 3757 O 369.671 2.01308 -0.0609468 0
M  V30 3758 C 366.736 3.4394 -0.436603 0
M  V30 3759 C 365.797 4.00825 -1.53746 0
M  V30 3760 C 365.03 5.22604 -1.0826 0
M  V30 3761 O 365.253 5.70367 0.0612244 0
M  V30 3762 O 364.187 5.7186 -1.87775 0
M  V30 3763 H 368.013 2.41169 -1.84584 0
M  V30 3764 H 365.598 1.1453 -0.959334 0
M  V30 3765 H 367.48 4.21024 -0.178057 0
M  V30 3766 H 366.155 3.20316 0.466869 0
M  V30 3767 H 365.062 3.25158 -1.84995 0
M  V30 3768 H 366.395 4.28778 -2.41683 0
M  V30 3769 N 368.047 0.979072 1.23499 0
M  V30 3770 C 369.463 0.687475 1.44034 0
M  V30 3771 C 369.663 -0.746801 1.8715 0
M  V30 3772 O 368.719 -1.51939 2.0167 0
M  V30 3773 C 370.032 1.68127 2.49307 0
M  V30 3774 C 371.58 1.69516 2.63122 0
M  V30 3775 C 372.055 2.67723 3.71603 0
M  V30 3776 N 373.546 2.66233 3.79044 0
M  V30 3777 C 374.281 3.38891 4.62537 0
M  V30 3778 N 373.777 4.21103 5.50131 0
M  V30 3779 N 375.57 3.27661 4.56721 0
M  V30 3780 H 367.721 1.90559 0.938135 0
M  V30 3781 H 369.984 0.821051 0.473897 0
M  V30 3782 H 369.69 2.70693 2.2454 0
M  V30 3783 H 369.564 1.46306 3.4767 0
M  V30 3784 H 371.951 0.676561 2.8724 0
M  V30 3785 H 372.032 1.95404 1.65079 0
M  V30 3786 H 371.676 3.69724 3.48233 0
M  V30 3787 H 371.606 2.39111 4.69184 0
M  V30 3788 H 374.097 2.06568 3.16446 0
M  V30 3789 H 374.41 4.73403 6.10827 0
M  V30 3790 H 372.755 4.25195 5.49759 0
M  V30 3791 H 375.946 2.62887 3.87309 0
M  V30 3792 H 376.119 3.84547 5.21562 0
M  V30 3793 N 369.525 -1.3858 0.750561 0
M  V30 3794 C 370.802 -1.94231 0.231009 0
M  V30 3795 C 371.182 -1.68611 -1.27018 0
M  V30 3796 O 370.53 -1.02296 -2.04323 0
M  V30 3797 C 370.74 -3.44123 0.581428 0
M  V30 3798 C 372.088 -4.2116 0.539389 0
M  V30 3799 O 373.112 -3.52391 0.519541 0
M  V30 3800 O 371.971 -5.43749 0.54765 0
M  V30 3801 H 369.065 -0.825639 0.0474263 0
M  V30 3802 H 371.611 -1.4799 0.830478 0
M  V30 3803 H 370.383 -3.56267 1.61833 0
M  V30 3804 H 370.006 -3.97573 -0.0462047 0
M  V30 3805 N 371.003 -0.499398 -1.49478 0
M  V30 3806 C 372.252 0.0475259 -2.01644 0
M  V30 3807 C 372.565 1.38195 -1.38425 0
M  V30 3808 O 373.771 2.01547 -1.8191 0
M  V30 3809 C 372.227 0.135164 -3.59646 0
M  V30 3810 C 371.835 -1.19252 -4.31837 0
M  V30 3811 C 373.579 0.632538 -4.19761 0
M  V30 3812 C 371.486 -1.06713 -5.81693 0
M  V30 3813 H 370.416 0.0215349 -0.753692 0
M  V30 3814 H 373.067 -0.638577 -1.7203 0
M  V30 3815 H 371.449 0.885681 -3.85969 0
M  V30 3816 H 372.623 -1.9562 -4.17216 0
M  V30 3817 H 370.938 -1.62321 -3.83459 0
M  V30 3818 H 373.535 0.743833 -5.29501 0
M  V30 3819 H 373.878 1.63098 -3.83021 0
M  V30 3820 H 374.411 -0.0613987 -3.97753 0
M  V30 3821 H 371.15 -2.03979 -6.22955 0
M  V30 3822 H 370.67 -0.344307 -5.98811 0
M  V30 3823 H 372.349 -0.745208 -6.42694 0
M  V30 3824 N 372.481 1.55866 -0.233164 0
M  V30 3825 C 373.414 2.16794 0.712442 0
M  V30 3826 C 374.392 1.1158 1.18273 0
M  V30 3827 O 375.576 1.39897 1.26337 0
M  V30 3828 C 372.703 2.75757 1.96661 0
M  V30 3829 C 371.749 3.93902 1.63533 0
M  V30 3830 S 372.582 5.30223 0.74995 0
M  V30 3831 C 373.738 5.92631 2.01343 0
M  V30 3832 H 373.971 2.96662 0.194617 0
M  V30 3833 H 371.504 1.5439 -0.0177425 0
M  V30 3834 H 373.462 3.10367 2.68668 0
M  V30 3835 H 372.123 1.9586 2.45556 0
M  V30 3836 H 371.316 4.33702 2.56747 0
M  V30 3837 H 370.918 3.60499 0.995804 0
M  V30 3838 H 373.21 6.09312 2.96219 0
M  V30 3839 H 374.153 6.88388 1.65915 0
M  V30 3840 H 374.561 5.21571 2.15925 0
M  V30 3841 N 373.959 -0.0401083 1.57549 0
M  V30 3842 C 375.375 -0.395556 1.54621 0
M  V30 3843 C 375.575 -1.77281 0.957799 0
M  V30 3844 O 374.631 -2.45888 0.574031 0
M  V30 3845 C 375.944 -0.307535 2.99123 0
M  V30 3846 C 377.492 -0.385425 3.10618 0
M  V30 3847 C 377.967 -0.326973 4.56831 0
M  V30 3848 N 379.458 -0.386102 4.61588 0
M  V30 3849 C 380.193 -0.363591 5.72246 0
M  V30 3850 N 379.689 -0.29402 6.92176 0
M  V30 3851 N 381.482 -0.412503 5.60584 0
M  V30 3852 H 373.633 0.861325 1.94152 0
M  V30 3853 H 375.896 0.326445 0.890021 0
M  V30 3854 H 375.602 0.638461 3.45856 0
M  V30 3855 H 375.476 -1.10552 3.60636 0
M  V30 3856 H 377.863 -1.32185 2.63839 0
M  V30 3857 H 377.944 0.44171 2.51957 0
M  V30 3858 H 377.588 0.605738 5.04275 0
M  V30 3859 H 377.518 -1.17207 5.13391 0
M  V30 3860 H 380.009 -0.442832 3.75296 0
M  V30 3861 H 380.322 -0.28164 7.72287 0
M  V30 3862 H 378.667 -0.260232 6.94513 0
M  V30 3863 H 381.858 -0.464769 4.65787 0
M  V30 3864 H 382.031 -0.391492 6.46816 0
M  V30 3865 N 375.437 -1.54477 -0.31217 0
M  V30 3866 C 376.4 -1.83923 -1.36766 0
M  V30 3867 C 377.4 -0.711563 -1.44199 0
M  V30 3868 O 378.59 -0.979866 -1.44029 0
M  V30 3869 C 375.722 -2.0095 -2.75376 0
M  V30 3870 H 376.915 -2.78239 -1.11906 0
M  V30 3871 H 374.468 -1.46369 -0.548257 0
M  V30 3872 H 375.203 -1.08883 -3.05475 0
M  V30 3873 H 374.988 -2.83018 -2.71373 0
M  V30 3874 H 376.478 -2.2514 -3.51713 0
M  V30 3875 N 376.915 0.57481 -1.46744 0
M  V30 3876 C 378.192 1.3352 -1.4294 0
M  V30 3877 C 378.572 2.10775 -0.117009 0
M  V30 3878 O 377.92 2.09966 0.901474 0
M  V30 3879 C 378.13 2.25456 -2.66403 0
M  V30 3880 C 379.478 2.87035 -3.12883 0
M  V30 3881 O 380.502 2.35766 -2.67007 0
M  V30 3882 O 379.361 3.80179 -3.92589 0
M  V30 3883 H 376.455 0.600318 -0.568812 0
M  V30 3884 H 379.001 0.595171 -1.58921 0
M  V30 3885 H 377.773 1.67851 -3.53471 0
M  V30 3886 H 377.396 3.06785 -2.52921 0
M  V30 3887 N 378.394 1.34581 0.820102 0
M  V30 3888 C 379.64 1.27285 1.57881 0
M  V30 3889 C 379.973 -0.156137 1.93571 0
M  V30 3890 O 379.248 -1.10222 1.60254 0
M  V30 3891 C 379.531 2.16639 2.87645 0
M  V30 3892 C 379.384 3.68088 2.58517 0
M  V30 3893 C 380.703 2.05378 3.8924 0
M  V30 3894 H 377.822 0.463714 0.572833 0
M  V30 3895 H 380.464 1.64859 0.944539 0
M  V30 3896 H 378.614 1.84725 3.41773 0
M  V30 3897 H 380.286 4.10382 2.10676 0
M  V30 3898 H 378.529 3.89038 1.91917 0
M  V30 3899 H 379.2 4.2598 3.51063 0
M  V30 3900 H 381.676 2.33404 3.44473 0
M  V30 3901 H 380.552 2.7012 4.77835 0
M  V30 3902 H 380.813 1.0316 4.29896 0
M  V30 3903 N 379.872 -1.04064 1.18357 0
M  V30 3904 C 381.118 -1.77528 0.980397 0
M  V30 3905 C 381.451 -1.87948 -0.48879 0
M  V30 3906 O 380.726 -1.3876 -1.36293 0
M  V30 3907 C 381.009 -3.20797 1.63588 0
M  V30 3908 C 380.862 -3.1832 3.17793 0
M  V30 3909 C 382.181 -4.18911 1.34914 0
M  V30 3910 H 379.3 -0.644443 0.357578 0
M  V30 3911 H 381.942 -1.2156 1.46024 0
M  V30 3912 H 380.092 -3.68586 1.22788 0
M  V30 3913 H 381.764 -2.78521 3.67728 0
M  V30 3914 H 380.007 -2.56351 3.49952 0
M  V30 3915 H 380.678 -4.19489 3.58794 0
M  V30 3916 H 383.154 -3.7967 1.70265 0
M  V30 3917 H 382.03 -5.17374 1.83346 0
M  V30 3918 H 382.291 -4.41262 0.272027 0
M  V30 3919 N 381.35 -0.985608 -1.22978 0
M  V30 3920 C 382.28 -0.549649 -2.26939 0
M  V30 3921 C 383.261 0.419803 -1.64838 0
M  V30 3922 O 384.446 0.31203 -1.91677 0
M  V30 3923 C 381.576 0.143652 -3.47003 0
M  V30 3924 C 380.53 -0.743606 -4.21491 0
M  V30 3925 C 379.856 0.0822027 -5.34637 0
M  V30 3926 C 381.156 -2.03694 -4.80943 0
M  V30 3927 H 382.85 -1.41862 -2.63658 0
M  V30 3928 H 380.396 -0.683571 -1.26741 0
M  V30 3929 H 382.349 0.459985 -4.18882 0
M  V30 3930 H 381.073 1.04711 -3.09359 0
M  V30 3931 H 379.732 -1.04347 -3.51436 0
M  V30 3932 H 379.38 0.986359 -4.93234 0
M  V30 3933 H 379.08 -0.508377 -5.85397 0
M  V30 3934 H 380.604 0.392797 -6.09335 0
M  V30 3935 H 382.018 -1.78504 -5.44802 0
M  V30 3936 H 380.415 -2.57573 -5.42011 0
M  V30 3937 H 381.485 -2.72042 -4.01399 0
M  V30 3938 N 382.828 1.3818 -0.7579 0
M  V30 3939 C 384.105 1.94106 -0.241306 0
M  V30 3940 C 384.485 1.69282 1.26122 0
M  V30 3941 O 383.833 1.03378 2.03777 0
M  V30 3942 C 384.043 3.43809 -0.59967 0
M  V30 3943 C 385.391 4.20868 -0.561717 0
M  V30 3944 O 386.415 3.5211 -0.538222 0
M  V30 3945 O 385.274 5.43451 -0.576478 0
M  V30 3946 H 382.368 0.825376 -0.0518042 0
M  V30 3947 H 384.914 1.47548 -0.838315 0
M  V30 3948 H 383.686 3.55403 -1.6372 0
M  V30 3949 H 383.309 3.97592 0.0251197 0
M  V30 3950 N 384.306 0.507319 1.49211 0
M  V30 3951 C 385.216 -0.272136 2.33016 0
M  V30 3952 C 386.232 -0.961206 1.45041 0
M  V30 3953 O 387.408 -0.941191 1.78055 0
M  V30 3954 C 384.473 -1.31895 3.20631 0
M  V30 3955 C 383.534 -0.642648 4.24463 0
M  V30 3956 C 382.767 -1.63959 5.07891 0
M  V30 3957 O 382.99 -2.87007 4.92933 0
M  V30 3958 O 381.924 -1.19143 5.8999 0
M  V30 3959 H 385.75 0.413982 3.00865 0
M  V30 3960 H 383.335 0.268556 1.46966 0
M  V30 3961 H 385.217 -1.92446 3.7489 0
M  V30 3962 H 383.892 -1.98788 2.5547 0
M  V30 3963 H 382.799 0.00276252 3.741 0
M  V30 3964 H 384.132 -0.0160534 4.92197 0
M  V30 3965 N 385.784 -1.5574 0.241426 0
M  V30 3966 C 387.2 -1.59196 -0.113548 0
M  V30 3967 C 387.4 -1.25852 -1.57364 0
M  V30 3968 O 386.456 -1.00322 -2.31715 0
M  V30 3969 C 387.769 -2.99814 0.230695 0
M  V30 3970 C 389.317 -3.12513 0.174547 0
M  V30 3971 C 389.792 -4.55342 0.492744 0
M  V30 3972 N 391.283 -4.61076 0.443043 0
M  V30 3973 C 392.018 -5.6956 0.662484 0
M  V30 3974 N 391.514 -6.86328 0.944761 0
M  V30 3975 N 393.307 -5.58957 0.593564 0
M  V30 3976 H 385.458 -1.75685 1.19368 0
M  V30 3977 H 387.721 -0.81756 0.479896 0
M  V30 3978 H 387.427 -3.28932 1.24485 0
M  V30 3979 H 387.301 -3.74568 -0.444833 0
M  V30 3980 H 389.688 -2.83179 -0.830277 0
M  V30 3981 H 389.769 -2.40045 0.883845 0
M  V30 3982 H 389.413 -4.85396 1.4951 0
M  V30 3983 H 389.343 -5.26062 -0.23797 0
M  V30 3984 H 391.834 -3.77179 0.233374 0
M  V30 3985 H 392.147 -7.64935 1.09977 0
M  V30 3986 H 390.492 -6.88025 0.982175 0
M  V30 3987 H 393.683 -4.66611 0.373123 0
M  V30 3988 H 393.856 -6.43433 0.767981 0
M  V30 3989 N 387.262 0.0317525 -1.57568 0
M  V30 3990 C 388.509 0.723104 -1.89149 0
M  V30 3991 C 388.837 1.75504 -0.838377 0
M  V30 3992 O 388.092 1.95037 0.160982 0
M  V30 3993 C 388.391 1.43167 -3.27472 0
M  V30 3994 C 388.057 0.535972 -4.47703 0
M  V30 3995 C 386.719 0.289262 -4.8033 0
M  V30 3996 C 389.071 -0.0826125 -5.21135 0
M  V30 3997 C 386.399 -0.584853 -5.83778 0
M  V30 3998 C 388.751 -0.944414 -6.25511 0
M  V30 3999 C 387.415 -1.20061 -6.56614 0
M  V30 4000 H 386.685 0.264602 -0.692146 0
M  V30 4001 H 389.332 -0.0169496 -1.91492 0
M  V30 4002 H 387.637 2.24497 -3.21105 0
M  V30 4003 H 389.334 1.97209 -3.49155 0
M  V30 4004 H 385.924 0.738414 -4.22191 0
M  V30 4005 H 390.108 0.0950302 -4.96209 0
M  V30 4006 H 385.364 -0.79168 -6.06253 0
M  V30 4007 H 389.538 -1.43026 -6.81554 0
M  V30 4008 H 387.165 -1.87967 -7.36595 0
M  V30 4009 N 388.74 1.54641 0.303973 0
M  V30 4010 C 389.703 1.84646 1.35789 0
M  V30 4011 C 390.703 0.7192 1.4382 0
M  V30 4012 O 391.893 0.987491 1.43507 0
M  V30 4013 C 389.025 2.02407 2.74307 0
M  V30 4014 H 390.218 2.78829 1.10429 0
M  V30 4015 H 387.771 1.46658 0.540487 0
M  V30 4016 H 388.506 1.10502 3.04893 0
M  V30 4017 H 388.291 2.84453 2.69868 0
M  V30 4018 H 389.781 2.27002 3.50514 0
M  V30 4019 N 390.218 -0.567019 1.47046 0
M  V30 4020 C 391.466 -1.322 1.52864 0
M  V30 4021 C 391.787 -1.94088 0.188388 0
M  V30 4022 O 391.057 -1.7941 -0.786693 0
M  V30 4023 H 389.637 -0.490894 0.563056 0
M  V30 4024 H 392.299 -0.662879 1.83281 0
M  V30 4025 H 391.395 -2.12062 2.2899 0
M  V30 4026 N 391.696 -1.35014 -0.812953 0
M  V30 4027 C 393.107 -1.25035 -1.38648 0
M  V30 4028 C 393.458 0.119967 -1.95833 0
M  V30 4029 O 392.583 1.02069 -1.90816 0
M  V30 4030 C 393.178 -2.26394 -2.52054 0
M  V30 4031 C 391.737 -2.20175 -3.05287 0
M  V30 4032 C 390.884 -2.12451 -1.78213 0
M  V30 4033 H 393.835 -1.46235 -0.616516 0
M  V30 4034 H 393.856 -1.88672 -3.30429 0
M  V30 4035 H 393.368 -3.26116 -2.10404 0
M  V30 4036 H 391.469 -1.23841 -3.51417 0
M  V30 4037 H 391.582 -3.11863 -3.63701 0
M  V30 4038 H 389.946 -1.58328 -1.9951 0
M  V30 4039 H 390.729 -3.14024 -1.38723 0
M  V30 4040 N 393.175 1.03435 -1.18907 0
M  V30 4041 C 394.085 2.15075 -0.937015 0
M  V30 4042 C 395.101 1.73706 0.101085 0
M  V30 4043 O 396.277 2.01232 -0.0822948 0
M  V30 4044 C 393.342 3.43458 -0.473057 0
M  V30 4045 C 392.403 3.99172 -1.57989 0
M  V30 4046 C 391.636 5.21427 -1.13797 0
M  V30 4047 O 391.859 5.704 0.000725941 0
M  V30 4048 O 390.793 5.69837 -1.9383 0
M  V30 4049 H 394.619 2.39198 -1.87131 0
M  V30 4050 H 392.204 1.13506 -0.971427 0
M  V30 4051 H 394.086 4.20811 -0.222702 0
M  V30 4052 H 392.761 3.20793 0.432869 0
M  V30 4053 H 391.668 3.23178 -1.88433 0
M  V30 4054 H 393.001 4.2619 -2.46217 0
M  V30 4055 N 394.653 0.992116 1.22453 0
M  V30 4056 C 395.883 0.684949 1.94915 0
M  V30 4057 C 396.291 -0.754292 1.73514 0
M  V30 4058 O 395.634 -1.52056 1.03076 0
M  V30 4059 C 395.696 0.910054 3.47791 0
M  V30 4060 C 395.36 2.33363 3.92926 0
M  V30 4061 C 396.357 3.31308 4.00663 0
M  V30 4062 C 394.042 2.66785 4.25595 0
M  V30 4063 C 396.036 4.6075 4.40441 0
M  V30 4064 C 393.723 3.96446 4.65053 0
M  V30 4065 C 394.721 4.9324 4.72444 0
M  V30 4066 O 394.409 6.20584 5.1101 0
M  V30 4067 H 394.141 0.25258 0.62704 0
M  V30 4068 H 396.695 1.32939 1.56577 0
M  V30 4069 H 394.925 0.208443 3.86138 0
M  V30 4070 H 396.614 0.598257 4.01467 0
M  V30 4071 H 397.38 3.0682 3.75615 0
M  V30 4072 H 393.259 1.92148 4.19047 0
M  V30 4073 H 396.803 5.363 4.46126 0
M  V30 4074 H 392.7 4.20724 4.89552 0
M  V30 4075 H 393.468 6.24509 5.29085 0
M  V30 4076 N 396.131 -1.37776 0.765217 0
M  V30 4077 C 397.379 -1.99454 0.325943 0
M  V30 4078 C 397.7 -1.61049 -1.09947 0
M  V30 4079 O 396.97 -0.872821 -1.75381 0
M  V30 4080 H 395.55 -0.737697 0.117525 0
M  V30 4081 H 398.212 -1.68359 0.981895 0
M  V30 4082 H 397.308 -3.09547 0.398353 0
M  V30 4083 N 397.609 -0.515225 -1.4894 0
M  V30 4084 C 398.539 0.244628 -2.32215 0
M  V30 4085 C 399.52 0.949136 -1.41157 0
M  V30 4086 O 400.705 0.937783 -1.70057 0
M  V30 4087 C 397.835 1.30096 -3.22013 0
M  V30 4088 C 396.789 0.715486 -4.21977 0
M  V30 4089 C 396.115 1.87339 -5.00808 0
M  V30 4090 C 397.415 -0.302982 -5.2142 0
M  V30 4091 H 399.109 -0.450501 -2.95991 0
M  V30 4092 H 396.655 -0.218098 -1.42339 0
M  V30 4093 H 398.608 1.84037 -3.79089 0
M  V30 4094 H 397.332 2.02547 -2.56207 0
M  V30 4095 H 395.991 0.197715 -3.66066 0
M  V30 4096 H 395.639 2.58592 -4.31438 0
M  V30 4097 H 395.339 1.48764 -5.68457 0
M  V30 4098 H 396.863 2.41686 -5.60732 0
M  V30 4099 H 398.277 0.148802 -5.73107 0
M  V30 4100 H 396.674 -0.60532 -5.97039 0
M  V30 4101 H 397.744 -1.21395 -4.69459 0
M  V30 4102 N 399.087 1.5561 -0.249682 0
M  V30 4103 C 400.498 1.84979 0.252949 0
M  V30 4104 C 400.849 1.17153 1.57384 0
M  V30 4105 O 399.974 0.450884 2.11651 0
M  V30 4106 C 400.569 3.35584 0.465732 0
M  V30 4107 C 399.128 3.65169 0.912624 0
M  V30 4108 C 398.275 2.77299 -0.00859085 0
M  V30 4109 H 401.226 1.51513 -0.47217 0
M  V30 4110 H 401.247 3.57313 1.30795 0
M  V30 4111 H 400.759 3.8492 -0.49579 0
M  V30 4112 H 398.86 3.21312 1.88652 0
M  V30 4113 H 398.973 4.72912 0.767559 0
M  V30 4114 H 397.337 2.49678 0.50327 0
M  V30 4115 H 398.12 3.29442 -0.965537 0
M  V30 4116 N 400.565 -0.0233959 1.57583 0
M  V30 4117 C 401.513 -1.04063 2.08023 0
M  V30 4118 C 402.507 -1.37084 0.995204 0
M  V30 4119 O 403.713 -1.35923 1.18004 0
M  V30 4120 H 400.088 -0.353144 0.663922 0
M  V30 4121 H 402.059 -0.589453 2.9252 0
M  V30 4122 C 400.808 -2.33123 2.57971 0
M  V30 4123 H 400.131 -2.08577 3.4108 0
M  V30 4124 H 401.571 -3.02632 2.96967 0
M  V30 4125 C 400.03 -3.02483 1.48342 0
M  V30 4126 O 400.56 -3.92541 0.852898 0
M  V30 4127 N 398.766 -2.63909 1.21658 0
M  V30 4128 H 398.313 -1.90758 1.73116 0
M  V30 4129 H 398.271 -3.10633 0.485218 0
M  V30 4130 N 402.043 -1.548 -0.295768 0
M  V30 4131 C 402.953 -1.89177 -1.38742 0
M  V30 4132 C 403.969 -0.786481 -1.55211 0
M  V30 4133 O 405.145 -1.08344 -1.69775 0
M  V30 4134 C 402.21 -2.13663 -2.73036 0
M  V30 4135 C 401.271 -3.37349 -2.65508 0
M  V30 4136 C 400.504 -3.60658 -3.93398 0
M  V30 4137 O 400.727 -2.86882 -4.93006 0
M  V30 4138 O 399.661 -4.54179 -3.94975 0
M  V30 4139 H 403.487 -2.82059 -1.12589 0
M  V30 4140 H 401.072 -1.41056 -0.492295 0
M  V30 4141 H 402.954 -2.3094 -3.52484 0
M  V30 4142 H 401.629 -1.23967 -2.99022 0
M  V30 4143 H 400.536 -3.25431 -1.84514 0
M  V30 4144 H 401.869 -4.27192 -2.44474 0
M  V30 4145 N 403.521 0.559213 -1.47345 0
M  V30 4146 C 404.769 1.31388 -1.53563 0
M  V30 4147 C 405.09 1.93985 -0.198678 0
M  V30 4148 O 404.36 1.79825 0.777167 0
M  V30 4149 H 402.94 0.487901 -0.565652 0
M  V30 4150 H 405.602 0.65315 -1.8363 0
M  V30 4151 H 404.698 2.10844 -2.30111 0
M  V30 4152 N 404.999 1.35443 0.805782 0
M  V30 4153 C 406.227 1.31878 1.59423 0
M  V30 4154 C 406.642 -0.103562 1.88516 0
M  V30 4155 O 405.999 -1.05575 1.48863 0
M  V30 4156 C 406.05 2.12426 2.92502 0
M  V30 4157 O 405.771 3.49115 2.6467 0
M  V30 4158 C 407.272 2.16455 3.86862 0
M  V30 4159 H 404.492 0.453002 0.495005 0
M  V30 4160 H 407.036 1.78309 1.00131 0
M  V30 4161 H 405.191 1.69593 3.48306 0
M  V30 4162 H 405.605 3.90957 3.49647 0
M  V30 4163 H 407.079 2.77204 4.77349 0
M  V30 4164 H 407.556 1.16352 4.23508 0
M  V30 4165 H 408.162 2.59453 3.36993 0
M  V30 4166 N 406.477 -1.02803 1.19454 0
M  V30 4167 C 407.407 -2.12999 0.956758 0
M  V30 4168 C 408.388 -1.69743 -0.110188 0
M  V30 4169 O 409.573 -1.94148 0.0450038 0
M  V30 4170 C 406.703 -3.43746 0.495553 0
M  V30 4171 C 405.657 -4.00688 1.50443 0
M  V30 4172 C 404.983 -5.27067 0.900275 0
M  V30 4173 C 406.283 -4.35397 2.8849 0
M  V30 4174 H 407.977 -2.33148 1.87836 0
M  V30 4175 H 405.523 -1.12045 0.904539 0
M  V30 4176 H 407.476 -4.2021 0.316493 0
M  V30 4177 H 406.2 -3.23321 -0.461646 0
M  V30 4178 H 404.859 -3.2632 1.67065 0
M  V30 4179 H 404.507 -5.02959 -0.064503 0
M  V30 4180 H 404.207 -5.66127 1.57397 0
M  V30 4181 H 405.731 -6.06196 0.73203 0
M  V30 4182 H 407.145 -5.02795 2.75446 0
M  V30 4183 H 405.542 -4.85541 3.52661 0
M  V30 4184 H 406.612 -3.44662 3.41081 0
M  V30 4185 N 407.956 -0.998596 -1.21925 0
M  V30 4186 C 408.866 -0.562736 -2.27751 0
M  V30 4187 C 409.882 0.391203 -1.69545 0
M  V30 4188 O 411.058 0.256625 -1.99758 0
M  V30 4189 C 408.123 0.11012 -3.46525 0
M  V30 4190 C 407.184 -0.887495 -4.20026 0
M  V30 4191 C 406.417 -0.246654 -5.3313 0
M  V30 4192 O 406.64 0.958088 -5.62296 0
M  V30 4193 O 405.574 -0.954374 -5.94286 0
M  V30 4194 H 409.4 -1.44329 -2.67213 0
M  V30 4195 H 406.985 -0.767135 -1.28201 0
M  V30 4196 H 408.867 0.486756 -4.18579 0
M  V30 4197 H 407.542 0.965154 -3.08976 0
M  V30 4198 H 406.449 -1.31517 -3.5022 0
M  V30 4199 H 407.782 -1.71191 -4.6147 0
M  V30 4200 N 409.434 1.37368 -0.772513 0
M  V30 4201 C 410.397 2.28601 -0.165541 0
M  V30 4202 C 411.397 1.48062 0.627238 0
M  V30 4203 O 412.587 1.68268 0.450715 0
M  V30 4204 C 409.719 3.32023 0.772897 0
M  V30 4205 H 410.912 2.83787 -0.969787 0
M  V30 4206 H 408.465 1.46647 -0.540775 0
M  V30 4207 H 409.2 2.81962 1.60212 0
M  V30 4208 H 408.985 3.91555 0.206585 0
M  V30 4209 H 410.475 4.00197 1.19298 0
M  V30 4210 N 410.912 0.523116 1.48665 0
M  V30 4211 C 412.161 -0.01544 2.01694 0
M  V30 4212 C 412.474 -1.35975 1.40606 0
M  V30 4213 O 413.68 -1.98627 1.85093 0
M  V30 4214 C 412.136 -0.0779303 3.59816 0
M  V30 4215 C 411.744 1.26107 4.29885 0
M  V30 4216 C 413.488 -0.565678 4.20714 0
M  V30 4217 C 411.395 1.15954 5.79921 0
M  V30 4218 H 410.325 -0.00954163 0.75394 0
M  V30 4219 H 412.976 0.665865 1.70993 0
M  V30 4220 H 411.358 -0.824165 3.87329 0
M  V30 4221 H 412.532 2.02233 4.14051 0
M  V30 4222 H 410.847 1.68401 3.80828 0
M  V30 4223 H 413.444 -0.6595 5.30617 0
M  V30 4224 H 413.787 -1.56984 3.85567 0
M  V30 4225 H 414.32 0.12467 3.97605 0
M  V30 4226 H 411.059 2.13864 6.19631 0
M  V30 4227 H 410.579 0.439529 5.98187 0
M  V30 4228 H 412.258 0.847361 6.41427 0
M  V30 4229 N 412.39 -1.55475 0.257931 0
M  V30 4230 C 413.806 -1.59307 -0.0966563 0
M  V30 4231 C 414.006 -1.27514 -1.5602 0
M  V30 4232 O 413.062 -1.02774 -2.30637 0
M  V30 4233 C 414.375 -2.99552 0.262481 0
M  V30 4234 C 415.923 -3.1231 0.207683 0
M  V30 4235 C 416.398 -4.54793 0.541012 0
M  V30 4236 N 417.889 -4.6058 0.491921 0
M  V30 4237 C 418.624 -5.68825 0.722857 0
M  V30 4238 N 418.12 -6.85287 1.0175 0
M  V30 4239 N 419.913 -5.58296 0.652815 0
M  V30 4240 H 412.064 -1.74409 1.21224 0
M  V30 4241 H 414.327 -0.812424 0.48854 0
M  V30 4242 H 414.033 -3.27593 1.27967 0
M  V30 4243 H 413.907 -3.75019 -0.40508 0
M  V30 4244 H 416.294 -2.84044 -0.800195 0
M  V30 4245 H 416.375 -2.39095 0.909255 0
M  V30 4246 H 416.019 -4.83783 1.5465 0
M  V30 4247 H 415.949 -5.26285 -0.18216 0
M  V30 4248 H 418.44 -3.7691 0.273366 0
M  V30 4249 H 418.753 -7.63725 1.18084 0
M  V30 4250 H 417.098 -6.86945 1.05509 0
M  V30 4251 H 420.289 -4.66189 0.422592 0
M  V30 4252 H 420.462 -6.42582 0.836182 0
M  V30 4253 N 413.868 0.0150385 -1.57593 0
M  V30 4254 C 414.798 1.01047 -2.10503 0
M  V30 4255 C 415.779 1.36816 -1.01071 0
M  V30 4256 O 416.964 1.45455 -1.28672 0
M  V30 4257 C 414.094 2.30708 -2.59598 0
M  V30 4258 C 413.048 2.09142 -3.73421 0
M  V30 4259 C 412.374 3.44685 -4.08774 0
M  V30 4260 C 413.674 1.46619 -5.01298 0
M  V30 4261 H 415.368 0.569978 -2.93925 0
M  V30 4262 H 412.914 0.272724 -1.41394 0
M  V30 4263 H 414.867 3.00687 -2.95238 0
M  V30 4264 H 413.591 2.76843 -1.73279 0
M  V30 4265 H 412.25 1.41592 -3.38153 0
M  V30 4266 H 411.898 3.88495 -3.195 0
M  V30 4267 H 411.598 3.31077 -4.8545 0
M  V30 4268 H 413.122 4.16004 -4.4696 0
M  V30 4269 H 414.536 2.06535 -5.34805 0
M  V30 4270 H 412.933 1.43544 -5.82679 0
M  V30 4271 H 414.003 0.433611 -4.82957 0
M  V30 4272 N 415.346 1.54954 0.287554 0
M  V30 4273 C 416.586 1.76617 1.02887 0
M  V30 4274 C 416.95 0.547759 1.84021 0
M  V30 4275 O 418.151 0.642365 2.61012 0
M  V30 4276 C 416.422 3.02717 1.89993 0
M  V30 4277 S 417.981 3.45438 2.70588 0
M  V30 4278 H 414.799 0.6207 0.346775 0
M  V30 4279 H 417.401 1.93172 0.30082 0
M  V30 4280 H 416.105 3.89503 1.29287 0
M  V30 4281 H 415.636 2.88787 2.67144 0
M  V30 4282 H 417.651 3.03566 3.92508 0
M  V30 4283 N 416.824 -0.551391 1.4764 0
M  V30 4284 C 417.787 -1.64007 1.60107 0
M  V30 4285 C 418.787 -1.53601 0.47576 0
M  V30 4286 O 419.977 -1.57655 0.740988 0
M  V30 4287 C 417.109 -3.03569 1.55108 0
M  V30 4288 H 418.302 -1.543 2.57161 0
M  V30 4289 H 415.855 -0.771776 1.35917 0
M  V30 4290 H 416.59 -3.18804 0.594519 0
M  V30 4291 H 416.375 -3.12532 2.36783 0
M  V30 4292 H 417.865 -3.82762 1.66982 0
M  V30 4293 N 418.302 -1.35869 -0.798587 0
M  V30 4294 C 419.718 -1.16082 -1.09532 0
M  V30 4295 C 419.918 0.0213124 -2.01489 0
M  V30 4296 O 418.974 0.689488 -2.42904 0
M  V30 4297 C 420.287 -2.46748 -1.7186 0
M  V30 4298 C 421.835 -2.53028 -1.84244 0
M  V30 4299 C 422.31 -3.83758 -2.49988 0
M  V30 4300 N 423.801 -3.85053 -2.57465 0
M  V30 4301 C 424.536 -4.8294 -3.09122 0
M  V30 4302 N 424.032 -5.91217 -3.61157 0
M  V30 4303 N 425.825 -4.70369 -3.0775 0
M  V30 4304 H 417.976 -2.11571 -0.187461 0
M  V30 4305 H 420.239 -0.936726 -0.145765 0
M  V30 4306 H 419.945 -3.33471 -1.11759 0
M  V30 4307 H 419.819 -2.61883 -2.71472 0
M  V30 4308 H 422.206 -1.66729 -2.43486 0
M  V30 4309 H 422.287 -2.418 -0.834643 0
M  V30 4310 H 421.931 -4.70459 -1.91393 0
M  V30 4311 H 421.861 -3.92278 -3.5132 0
M  V30 4312 H 424.352 -3.06822 -2.20609 0
M  V30 4313 H 424.665 -6.61892 -3.98896 0
M  V30 4314 H 423.01 -5.94899 -3.59333 0
M  V30 4315 H 426.201 -3.84914 -2.66381 0
M  V30 4316 H 426.374 -5.46816 -3.47701 0
M  V30 4317 N 419.78 1.02168 -1.19998 0
M  V30 4318 C 421.008 1.79296 -1.03249 0
M  V30 4319 C 421.423 1.84103 0.418502 0
M  V30 4320 O 420.78 1.29031 1.29063 0
M  V30 4321 C 420.831 3.24007 -1.60319 0
M  V30 4322 O 420.552 3.19512 -2.99739 0
M  V30 4323 C 422.053 4.17704 -1.48453 0
M  V30 4324 H 419.273 0.564016 -0.363493 0
M  V30 4325 H 421.817 1.28639 -1.58973 0
M  V30 4326 H 419.972 3.7183 -1.08727 0
M  V30 4327 H 420.386 4.10306 -3.26725 0
M  V30 4328 H 421.86 5.17104 -1.93153 0
M  V30 4329 H 422.337 4.37029 -0.436193 0
M  V30 4330 H 422.943 3.7576 -1.99211 0
M  V30 4331 N 421.258 1.00505 1.21394 0
M  V30 4332 C 422.168 0.574806 2.27449 0
M  V30 4333 C 423.184 -0.382206 1.6975 0
M  V30 4334 O 424.36 -0.246027 1.99892 0
M  V30 4335 C 421.425 -0.0917414 3.46579 0
M  V30 4336 C 420.486 0.909758 4.1955 0
M  V30 4337 C 419.719 0.274924 5.32991 0
M  V30 4338 O 419.942 -0.928254 5.62796 0
M  V30 4339 O 418.876 0.985877 5.93771 0
M  V30 4340 H 422.702 1.45744 2.66444 0
M  V30 4341 H 420.287 0.773923 1.27792 0
M  V30 4342 H 422.169 -0.464551 4.18832 0
M  V30 4343 H 420.844 -0.948755 3.09484 0
M  V30 4344 H 419.751 1.33372 3.49518 0
M  V30 4345 H 421.084 1.73636 4.60555 0
M  V30 4346 N 422.737 -1.36956 0.779787 0
M  V30 4347 C 423.985 -1.99097 0.347079 0
M  V30 4348 C 424.306 -1.62206 -1.08232 0
M  V30 4349 O 423.576 -0.891373 -1.74446 0
M  V30 4350 H 422.156 -0.736409 0.125342 0
M  V30 4351 H 424.818 -1.67308 0.999696 0
M  V30 4352 H 423.914 -3.09107 0.431162 0
M  V30 4353 N 424.215 -0.530993 -1.48385 0
M  V30 4354 C 425.148 0.278511 -2.26494 0
M  V30 4355 C 426.126 0.943905 -1.32398 0
M  V30 4356 O 427.31 0.968098 -1.61741 0
M  V30 4357 C 424.437 1.39453 -3.08659 0
M  V30 4358 C 423.483 0.840434 -4.18137 0
M  V30 4359 S 424.316 -0.292496 -5.34701 0
M  V30 4360 C 425.472 0.825973 -6.20426 0
M  V30 4361 H 425.705 -0.384365 -2.94805 0
M  V30 4362 H 423.238 -0.316799 -1.51115 0
M  V30 4363 H 425.196 2.03382 -3.56575 0
M  V30 4364 H 423.857 2.02913 -2.3976 0
M  V30 4365 H 423.05 1.67769 -4.75257 0
M  V30 4366 H 422.652 0.277819 -3.72967 0
M  V30 4367 H 424.944 1.72438 -6.55188 0
M  V30 4368 H 425.887 0.292728 -7.07495 0
M  V30 4369 H 426.295 1.10683 -5.53543 0
M  V30 4370 N 425.693 1.55336 -0.266172 0
M  V30 4371 C 426.623 2.25146 0.618981 0
M  V30 4372 C 427.604 1.23845 1.16604 0
M  V30 4373 O 428.789 1.52544 1.20183 0
M  V30 4374 C 425.919 2.96572 1.80728 0
M  V30 4375 C 424.873 4.04726 1.39215 0
M  V30 4376 C 424.199 4.63678 2.66283 0
M  V30 4377 C 425.499 5.19407 0.548942 0
M  V30 4378 H 427.193 2.99377 0.0368116 0
M  V30 4379 H 424.739 1.43991 0.0162651 0
M  V30 4380 H 426.692 3.44116 2.43232 0
M  V30 4381 H 425.416 2.19861 2.41514 0
M  V30 4382 H 424.075 3.57979 0.790351 0
M  V30 4383 H 423.723 3.83646 3.25308 0
M  V30 4384 H 423.423 5.367 2.39222 0
M  V30 4385 H 424.947 5.13967 3.29651 0
M  V30 4386 H 426.361 5.63059 1.07876 0
M  V30 4387 H 424.758 5.98936 0.373593 0
M  V30 4388 H 425.828 4.8295 -0.434394 0
M  V30 4389 N 427.171 -0.0066808 1.57599 0
M  V30 4390 C 428.399 -0.704087 1.94551 0
M  V30 4391 C 428.814 -1.67677 0.867746 0
M  V30 4392 O 428.171 -1.8185 -0.153925 0
M  V30 4393 C 428.222 -1.44177 3.31505 0
M  V30 4394 O 427.943 -0.508097 4.35144 0
M  V30 4395 C 429.444 -2.23429 3.82876 0
M  V30 4396 H 426.664 -0.196523 0.641576 0
M  V30 4397 H 429.208 0.042453 2.04456 0
M  V30 4398 H 427.363 -2.13999 3.22929 0
M  V30 4399 H 427.777 -1.02782 5.14331 0
M  V30 4400 H 429.251 -2.70552 4.8115 0
M  V30 4401 H 429.728 -3.05818 3.15233 0
M  V30 4402 H 430.334 -1.58636 3.94607 0
M  V30 4403 N 428.649 -1.55105 -0.279332 0
M  V30 4404 C 429.926 -1.66119 -1.03267 0
M  V30 4405 C 430.306 -0.523525 -2.04505 0
M  V30 4406 O 429.654 0.477194 -2.23462 0
M  V30 4407 C 429.864 -3.05067 -1.69515 0
M  V30 4408 C 431.212 -3.62606 -2.20912 0
M  V30 4409 O 432.236 -3.07659 -1.79512 0
M  V30 4410 O 431.095 -4.58861 -2.96831 0
M  V30 4411 H 428.189 -0.674429 -0.478618 0
M  V30 4412 H 430.735 -1.67446 -0.275694 0
M  V30 4413 H 429.507 -3.79311 -0.9612 0
M  V30 4414 H 429.13 -3.07611 -2.51915 0
M  V30 4415 N 430.127 0.543554 -1.4793 0
M  V30 4416 C 431.538 1.12561 -1.48953 0
M  V30 4417 C 431.889 1.94578 -0.251754 0
M  V30 4418 O 431.014 2.0665 0.642255 0
M  V30 4419 C 431.609 2.04801 -2.69892 0
M  V30 4420 C 430.168 2.58251 -2.73831 0
M  V30 4421 C 429.315 1.34918 -2.42265 0
M  V30 4422 H 432.266 0.32947 -1.55242 0
M  V30 4423 H 432.287 2.88886 -2.47639 0
M  V30 4424 H 431.799 1.4508 -3.59963 0
M  V30 4425 H 429.9 3.21732 -1.87934 0
M  V30 4426 H 430.013 2.98312 -3.74895 0
M  V30 4427 H 428.377 1.66046 -1.93134 0
M  V30 4428 H 429.16 0.769693 -3.3456 0
M  V30 4429 N 431.605 1.3629 0.791371 0
M  V30 4430 C 432.851 1.30605 1.55146 0
M  V30 4431 C 433.184 -0.115042 1.93859 0
M  V30 4432 O 432.459 -1.06798 1.62556 0
M  V30 4433 C 432.742 2.22692 2.82985 0
M  V30 4434 C 432.595 3.73489 2.50651 0
M  V30 4435 C 433.914 2.13588 3.84796 0
M  V30 4436 H 431.033 0.475761 0.562868 0
M  V30 4437 H 433.675 1.66825 0.909358 0
M  V30 4438 H 431.825 1.91933 3.37778 0
M  V30 4439 H 433.497 4.14758 2.01924 0
M  V30 4440 H 431.74 3.93021 1.83622 0
M  V30 4441 H 432.411 4.3333 3.41949 0
M  V30 4442 H 434.887 2.40659 3.39445 0
M  V30 4443 H 433.763 2.80195 4.71998 0
M  V30 4444 H 434.024 1.12256 4.27611 0
M  V30 4445 N 433.083 -1.0153 1.20538 0
M  V30 4446 C 434.313 -1.78487 1.04048 0
M  V30 4447 C 434.721 -1.84631 -0.413292 0
M  V30 4448 O 434.064 -1.29919 -1.29872 0
M  V30 4449 C 434.126 -3.24367 1.55003 0
M  V30 4450 C 433.79 -3.41827 3.0332 0
M  V30 4451 C 434.787 -3.30941 4.00966 0
M  V30 4452 C 432.472 -3.67602 3.42307 0
M  V30 4453 C 434.466 -3.45577 5.35589 0
M  V30 4454 C 432.153 -3.81881 4.77085 0
M  V30 4455 C 433.151 -3.70874 5.73534 0
M  V30 4456 O 432.839 -3.84714 7.05868 0
M  V30 4457 H 432.571 -0.568108 0.366373 0
M  V30 4458 H 435.125 -1.28677 1.60098 0
M  V30 4459 H 433.355 -3.75266 0.933397 0
M  V30 4460 H 435.044 -3.82963 1.34514 0
M  V30 4461 H 435.81 -3.10964 3.72191 0
M  V30 4462 H 431.689 -3.75256 2.67776 0
M  V30 4463 H 435.233 -3.36902 6.10854 0
M  V30 4464 H 431.13 -4.01359 5.0555 0
M  V30 4465 H 431.898 -4.01724 7.13134 0
M  V30 4466 N 434.561 -1.01147 -1.20859 0
M  V30 4467 C 435.471 -0.58686 -2.27141 0
M  V30 4468 C 436.487 0.373198 -1.69951 0
M  V30 4469 O 437.663 0.235423 -2.00019 0
M  V30 4470 C 434.728 0.0733602 -3.46622 0
M  V30 4471 C 433.789 -0.931995 -4.19061 0
M  V30 4472 C 433.022 -0.303186 -5.32838 0
M  V30 4473 O 433.245 0.898395 -5.63281 0
M  V30 4474 O 432.179 -1.01735 -5.9324 0
M  V30 4475 H 436.005 -1.47155 -2.65667 0
M  V30 4476 H 433.59 -0.780689 -1.2738 0
M  V30 4477 H 435.472 0.442333 -4.19072 0
M  V30 4478 H 434.147 0.932329 -3.09983 0
M  V30 4479 H 433.054 -1.35224 -3.48805 0
M  V30 4480 H 434.387 -1.76076 -4.59628 0
M  V30 4481 N 436.039 1.36541 -0.78704 0
M  V30 4482 C 437.287 1.98911 -0.357633 0
M  V30 4483 C 437.608 1.62778 1.07371 0
M  V30 4484 O 436.878 0.900612 1.73971 0
M  V30 4485 H 435.458 0.735734 -0.129246 0
M  V30 4486 H 438.12 1.66776 -1.00855 0
M  V30 4487 H 437.216 3.08874 -0.447549 0
M  V30 4488 N 437.518 0.538854 1.48102 0
M  V30 4489 C 438.465 -0.219042 2.29758 0
M  V30 4490 C 439.435 -0.925562 1.37922 0
M  V30 4491 O 440.62 -0.924855 1.66886 0
M  V30 4492 C 437.76 -1.25452 3.2149 0
M  V30 4493 C 436.873 -0.555943 4.28408 0
M  V30 4494 C 436.008 -1.57512 5.0731 0
M  V30 4495 C 435.047 -0.860498 6.06021 0
M  V30 4496 N 434.184 -1.82564 6.77949 0
M  V30 4497 H 439.024 0.483449 2.94052 0
M  V30 4498 H 436.561 0.250247 1.44956 0
M  V30 4499 H 438.519 -1.86727 3.7308 0
M  V30 4500 H 437.149 -1.92528 2.591 0
M  V30 4501 H 436.201 0.170938 3.80016 0
M  V30 4502 H 437.513 0.00474616 4.988 0
M  V30 4503 H 436.667 -2.26191 5.62959 0
M  V30 4504 H 435.406 -2.16972 4.36778 0
M  V30 4505 H 434.411 -0.159686 5.49568 0
M  V30 4506 H 435.636 -0.271897 6.78555 0
M  V30 4507 H 433.582 -2.40915 6.10161 0
M  V30 4508 H 433.499 -1.31662 7.44447 0
M  V30 4509 H 434.767 -2.50414 7.38182 0
M  V30 4510 N 438.996 -1.55193 0.274407 0
M  V30 4511 C 440.221 -2.04446 -0.348824 0
M  V30 4512 C 440.646 -1.15149 -1.48735 0
M  V30 4513 O 440.004 -0.149952 -1.80679 0
M  V30 4514 C 440.052 -3.51431 -0.808009 0
M  V30 4515 O 439.156 -3.65225 -1.91531 0
M  V30 4516 H 438.497 -0.66006 -0.0722276 0
M  V30 4517 H 441.027 -2.00481 0.408498 0
M  V30 4518 H 441.037 -3.92781 -1.10395 0
M  V30 4519 H 439.712 -4.15892 0.0249865 0
M  V30 4520 H 438.289 -3.35778 -1.62196 0
M  V30 4521 N 440.474 -0.00167713 -1.576 0
M  V30 4522 C 441.407 1.02317 -2.03977 0
M  V30 4523 C 442.385 1.33381 -0.929963 0
M  V30 4524 O 443.569 1.45517 -1.19822 0
M  V30 4525 C 440.696 2.35035 -2.43878 0
M  V30 4526 C 439.742 2.19621 -3.65607 0
M  V30 4527 S 440.575 1.52068 -5.13455 0
M  V30 4528 C 441.731 2.86212 -5.56627 0
M  V30 4529 H 441.964 0.628285 -2.90585 0
M  V30 4530 H 439.497 0.209239 -1.52976 0
M  V30 4531 H 441.455 3.11345 -2.67534 0
M  V30 4532 H 440.116 2.71663 -1.57665 0
M  V30 4533 H 439.309 3.1767 -3.91282 0
M  V30 4534 H 438.911 1.51455 -3.41961 0
M  V30 4535 H 441.203 3.82509 -5.59189 0
M  V30 4536 H 442.146 2.65235 -6.56549 0
M  V30 4537 H 442.554 2.90199 -4.84195 0
M  V30 4538 N 441.952 1.55251 0.271103 0
M  V30 4539 C 442.902 1.84649 1.33749 0
M  V30 4540 C 443.886 0.705529 1.44607 0
M  V30 4541 O 445.078 0.966916 1.48256 0
M  V30 4542 C 442.207 2.12354 2.69742 0
M  V30 4543 C 441.293 3.32714 2.62988 0
M  V30 4544 N 441.684 4.52575 2.25853 0
M  V30 4545 C 439.982 3.35341 2.94045 0
M  V30 4546 C 440.683 5.34669 2.29136 0
M  V30 4547 N 439.659 4.73123 2.67685 0
M  V30 4548 H 443.461 2.74865 1.0405 0
M  V30 4549 H 440.975 1.55152 0.479738 0
M  V30 4550 H 442.972 2.31572 3.4667 0
M  V30 4551 H 441.632 1.23422 3.00328 0
M  V30 4552 H 442.643 4.78639 1.978 0
M  V30 4553 H 439.32 2.56608 3.2933 0
M  V30 4554 H 440.71 6.40509 2.02971 0
M  V30 4555 N 443.43 -0.535701 1.48216 0
M  V30 4556 C 444.678 -1.28928 1.55634 0
M  V30 4557 C 444.999 -1.93645 0.229514 0
M  V30 4558 O 444.269 -1.81038 -0.74846 0
M  V30 4559 H 442.849 -0.47884 0.573342 0
M  V30 4560 H 445.511 -0.623853 1.84646 0
M  V30 4561 H 444.607 -2.07157 2.33436 0
M  V30 4562 N 444.908 -1.36708 -0.784132 0
M  V30 4563 C 445.841 -1.25827 -1.90375 0
M  V30 4564 C 446.819 -0.141331 -1.61985 0
M  V30 4565 O 448.003 -0.313389 -1.85877 0
M  V30 4566 C 445.13 -0.942621 -3.25319 0
M  V30 4567 C 444.176 -2.07474 -3.72635 0
M  V30 4568 S 445.009 -3.69317 -3.8777 0
M  V30 4569 C 446.165 -3.39876 -5.25581 0
M  V30 4570 H 446.398 -2.20593 -1.99314 0
M  V30 4571 H 443.931 -1.22186 -0.943926 0
M  V30 4572 H 445.889 -0.767321 -4.03265 0
M  V30 4573 H 444.55 -0.0126566 -3.14097 0
M  V30 4574 H 443.743 -1.80858 -4.70432 0
M  V30 4575 H 443.345 -2.20953 -3.01754 0
M  V30 4576 H 445.637 -2.94097 -6.10339 0
M  V30 4577 H 446.58 -4.36956 -5.57203 0
M  V30 4578 H 446.988 -2.75098 -4.92931 0
M  V30 4579 N 446.386 1.0089 -1.21074 0
M  V30 4580 C 447.635 1.74019 -1.01981 0
M  V30 4581 C 447.948 1.90408 0.447665 0
M  V30 4582 O 449.154 2.60707 0.757906 0
M  V30 4583 C 447.61 3.13026 -1.77603 0
M  V30 4584 C 447.218 3.04623 -3.28495 0
M  V30 4585 C 448.962 3.90312 -1.66904 0
M  V30 4586 C 446.869 4.38685 -3.96623 0
M  V30 4587 H 445.799 0.652422 -0.377971 0
M  V30 4588 H 448.45 1.12755 -1.44771 0
M  V30 4589 H 446.832 3.74878 -1.27604 0
M  V30 4590 H 448.006 2.52032 -3.85767 0
M  V30 4591 H 446.321 2.40827 -3.39693 0
M  V30 4592 H 448.918 4.8951 -2.15138 0
M  V30 4593 H 449.261 4.11558 -0.62658 0
M  V30 4594 H 449.794 3.35104 -2.14359 0
M  V30 4595 H 446.533 4.22641 -5.01054 0
M  V30 4596 H 446.053 4.91252 -3.4414 0
M  V30 4597 H 447.732 5.075 -4.01314 0
M  V30 4598 N 447.864 1.01787 1.20321 0
M  V30 4599 C 448.774 0.598898 2.26827 0
M  V30 4600 C 449.79 -0.36418 1.70146 0
M  V30 4601 O 450.966 -0.224812 2.00141 0
M  V30 4602 C 448.031 -0.0549769 3.46656 0
M  V30 4603 C 447.092 0.954205 4.18561 0
M  V30 4604 C 446.325 0.331439 5.3267 0
M  V30 4605 O 446.548 -0.86851 5.63749 0
M  V30 4606 O 445.482 1.0488 5.92692 0
M  V30 4607 H 449.308 1.48562 2.64883 0
M  V30 4608 H 446.893 0.787434 1.26964 0
M  V30 4609 H 448.775 -0.420102 4.19301 0
M  V30 4610 H 447.45 -0.915876 3.10473 0
M  V30 4611 H 446.357 1.37072 3.48083 0
M  V30 4612 H 447.69 1.78511 4.58688 0
M  V30 4613 N 449.342 -1.36122 0.79427 0
M  V30 4614 C 450.275 -2.27759 0.141845 0
M  V30 4615 C 451.253 -1.47471 -0.684921 0
M  V30 4616 O 452.437 -1.76759 -0.654857 0
M  V30 4617 C 449.564 -3.29008 -0.804446 0
M  V30 4618 C 448.61 -4.26459 -0.0588617 0
M  V30 4619 S 449.443 -5.20253 1.26873 0
M  V30 4620 C 450.599 -6.25048 0.326562 0
M  V30 4621 H 450.832 -2.82746 0.918818 0
M  V30 4622 H 448.365 -1.42736 0.588722 0
M  V30 4623 H 450.323 -3.87842 -1.34495 0
M  V30 4624 H 448.984 -2.72924 -1.5547 0
M  V30 4625 H 448.177 -4.97973 -0.777087 0
M  V30 4626 H 447.779 -3.71731 0.411309 0
M  V30 4627 H 450.071 -6.75705 -0.492795 0
M  V30 4628 H 451.014 -7.00852 1.01053 0
M  V30 4629 H 451.422 -5.64454 -0.0722627 0
M  V30 4630 N 450.82 -0.546701 -1.47814 0
M  V30 4631 C 452.066 -0.0187684 -2.02791 0
M  V30 4632 C 452.399 1.32338 -1.42128 0
M  V30 4633 O 451.674 1.85867 -0.573023 0
M  V30 4634 C 451.957 0.0854985 -3.59998 0
M  V30 4635 C 451.81 -1.283 -4.31114 0
M  V30 4636 C 453.129 0.80412 -4.32691 0
M  V30 4637 H 450.248 -0.0082946 -0.736953 0
M  V30 4638 H 452.89 -0.706962 -1.76358 0
M  V30 4639 H 451.04 0.671609 -3.82651 0
M  V30 4640 H 452.712 -1.91151 -4.19832 0
M  V30 4641 H 450.955 -1.86049 -3.91878 0
M  V30 4642 H 451.626 -1.16287 -5.39612 0
M  V30 4643 H 454.102 0.306576 -4.14969 0
M  V30 4644 H 452.978 0.846011 -5.42341 0
M  V30 4645 H 453.239 1.85802 -4.01161 0
M  V30 4646 N 452.299 1.55045 -0.282633 0
M  V30 4647 C 453.715 1.59441 0.0712997 0
M  V30 4648 C 453.915 1.2998 1.53972 0
M  V30 4649 O 452.971 1.06431 2.28973 0
M  V30 4650 C 454.284 2.99097 -0.310104 0
M  V30 4651 C 455.832 3.1194 -0.257343 0
M  V30 4652 C 456.307 4.53875 -0.613297 0
M  V30 4653 N 457.798 4.5974 -0.565134 0
M  V30 4654 C 458.533 5.67603 -0.81326 0
M  V30 4655 N 458.029 6.83582 -1.1264 0
M  V30 4656 N 459.822 5.57187 -0.741553 0
M  V30 4657 H 451.973 1.72458 -1.23984 0
M  V30 4658 H 454.236 0.804549 -0.501403 0
M  V30 4659 H 453.942 3.25516 -1.33163 0
M  V30 4660 H 453.816 3.75616 0.345366 0
M  V30 4661 H 456.203 2.85281 0.754905 0
M  V30 4662 H 456.284 2.37618 -0.947178 0
M  V30 4663 H 455.928 4.81261 -1.62327 0
M  V30 4664 H 455.858 5.26508 0.09841 0
M  V30 4665 H 458.349 3.76427 -0.333294 0
M  V30 4666 H 458.662 7.6175 -1.30219 0
M  V30 4667 H 457.007 6.85179 -1.16425 0
M  V30 4668 H 460.198 4.65457 -0.496705 0
M  V30 4669 H 460.371 6.41171 -0.938306 0
M  V30 4670 N 453.777 0.010035 1.57597 0
M  V30 4671 C 454.725 -0.996272 2.10184 0
M  V30 4672 C 455.719 -1.34942 1.02406 0
M  V30 4673 O 456.925 -1.33389 1.20861 0
M  V30 4674 H 453.3 -0.338982 0.671264 0
M  V30 4675 H 455.271 -0.527272 2.93705 0
M  V30 4676 C 454.02 -2.27599 2.62857 0
M  V30 4677 H 453.343 -2.01295 3.45428 0
M  V30 4678 H 454.783 -2.96265 3.0332 0
M  V30 4679 C 453.242 -2.99269 1.54725 0
M  V30 4680 O 453.772 -3.90644 0.93597 0
M  V30 4681 N 451.978 -2.61269 1.27228 0
M  V30 4682 H 451.525 -1.87043 1.77123 0
M  V30 4683 H 451.483 -3.09534 0.550999 0
M  V30 4684 N 455.255 -1.55392 -0.262866 0
M  V30 4685 C 456.503 -1.76127 -0.991147 0
M  V30 4686 C 456.824 -0.571083 -1.8645 0
M  V30 4687 O 456.094 0.413698 -1.91482 0
M  V30 4688 H 454.674 -0.649528 -0.368948 0
M  V30 4689 H 457.336 -1.9281 -0.284655 0
M  V30 4690 H 456.432 -2.6663 -1.62219 0
M  V30 4691 N 456.733 0.527833 -1.48498 0
M  V30 4692 C 457.643 1.65907 -1.65867 0
M  V30 4693 C 458.659 1.6537 -0.541192 0
M  V30 4694 O 459.835 1.84282 -0.812534 0
M  V30 4695 C 456.9 3.02364 -1.69637 0
M  V30 4696 C 455.961 3.1374 -2.93028 0
M  V30 4697 C 455.194 4.43688 -2.96609 0
M  V30 4698 O 455.417 5.30913 -2.08538 0
M  V30 4699 O 454.351 4.59475 -3.88802 0
M  V30 4700 H 458.177 1.5419 -2.61647 0
M  V30 4701 H 455.762 0.701163 -1.31924 0
M  V30 4702 H 457.644 3.83515 -1.74625 0
M  V30 4703 H 456.319 3.14401 -0.770312 0
M  V30 4704 H 455.226 2.31877 -2.93571 0
M  V30 4705 H 456.559 3.06621 -3.85026 0
M  V30 4706 N 458.211 1.37122 0.776871 0
M  V30 4707 C 459.458 1.32047 1.53524 0
M  V30 4708 C 459.786 -0.0965631 1.9426 0
M  V30 4709 O 459.041 -1.06866 1.63945 0
M  V30 4710 C 459.34 2.20068 2.81611 0
M  V30 4711 C 459.006 3.68423 2.59953 0
M  V30 4712 C 457.668 4.08854 2.53755 0
M  V30 4713 C 460.02 4.62431 2.40431 0
M  V30 4714 C 457.348 5.41417 2.26018 0
M  V30 4715 C 459.7 5.95225 2.14219 0
M  V30 4716 C 458.364 6.34767 2.06462 0
M  V30 4717 H 457.634 0.483196 0.561785 0
M  V30 4718 H 460.281 1.69284 0.895268 0
M  V30 4719 H 458.586 1.75809 3.50141 0
M  V30 4720 H 460.283 2.13458 3.39465 0
M  V30 4721 H 456.873 3.36354 2.65638 0
M  V30 4722 H 461.057 4.32057 2.44213 0
M  V30 4723 H 456.313 5.71022 2.18504 0
M  V30 4724 H 460.487 6.67626 1.98112 0
M  V30 4725 H 458.114 7.37413 1.84733 0
M  V30 4726 N 459.689 -1.00246 1.21608 0
M  V30 4727 C 461.1 -1.55511 1.03312 0
M  V30 4728 C 461.451 -1.91946 -0.406332 0
M  V30 4729 O 460.576 -1.73753 -1.28992 0
M  V30 4730 C 461.171 -2.82576 1.86913 0
M  V30 4731 C 459.73 -3.34318 1.72941 0
M  V30 4732 C 458.877 -2.07487 1.83968 0
M  V30 4733 H 461.828 -0.824638 1.35593 0
M  V30 4734 H 461.849 -3.54559 1.38087 0
M  V30 4735 H 461.361 -2.56026 2.91672 0
M  V30 4736 H 459.462 -3.65797 0.70877 0
M  V30 4737 H 459.575 -4.05566 2.55055 0
M  V30 4738 H 457.939 -2.20603 1.27304 0
M  V30 4739 H 458.722 -1.83346 2.9024 0
M  V30 4740 N 461.167 -1.02423 -1.1978 0
M  V30 4741 C 462.077 -0.610919 -2.26506 0
M  V30 4742 C 463.093 0.355152 -1.70337 0
M  V30 4743 O 464.269 0.214195 -2.00258 0
M  V30 4744 C 461.334 0.0365921 -3.46681 0
M  V30 4745 C 460.395 -0.976389 -4.18049 0
M  V30 4746 C 459.628 -0.359683 -5.32487 0
M  V30 4747 O 459.851 0.838601 -5.64202 0
M  V30 4748 O 458.785 -1.08022 -5.92127 0
M  V30 4749 H 462.611 -1.49965 -2.64091 0
M  V30 4750 H 460.196 -0.794156 -1.26545 0
M  V30 4751 H 462.078 0.39786 -4.19518 0
M  V30 4752 H 460.753 0.899398 -3.10954 0
M  V30 4753 H 459.66 -1.38916 -3.47352 0
M  V30 4754 H 460.993 -1.80941 -4.57735 0
M  V30 4755 N 462.645 1.35699 -0.801477 0
M  V30 4756 C 463.893 1.9852 -0.37871 0
M  V30 4757 C 464.214 1.63907 1.05638 0
M  V30 4758 O 463.484 0.919013 1.73006 0
M  V30 4759 H 462.064 0.734322 -0.137042 0
M  V30 4760 H 464.726 1.65697 -1.02619 0
M  V30 4761 H 463.822 3.08382 -0.480284 0
M  V30 4762 N 464.123 0.554532 1.47522 0
M  V30 4763 C 465.348 0.0322661 2.07375 0
M  V30 4764 C 465.773 -1.25079 1.40488 0
M  V30 4765 O 465.131 -1.74859 0.47896 0
M  V30 4766 C 465.179 -0.149397 3.6029 0
M  V30 4767 O 464.283 -1.21259 3.9417 0
M  V30 4768 H 463.624 0.0501228 0.662106 0
M  V30 4769 H 466.154 0.769452 1.8958 0
M  V30 4770 H 466.164 -0.364437 4.06369 0
M  V30 4771 H 464.839 0.787743 4.08372 0
M  V30 4772 H 463.416 -0.97825 3.5984 0
M  V30 4773 N 465.601 -1.54893 0.290851 0
M  V30 4774 C 467.017 -1.59476 -0.0628432 0
M  V30 4775 C 467.217 -1.30795 -1.5328 0
M  V30 4776 O 466.273 -1.07644 -2.28406 0
M  V30 4777 C 467.586 -2.98928 0.325962 0
M  V30 4778 C 469.134 -3.11799 0.273882 0
M  V30 4779 C 469.609 -4.53544 0.637359 0
M  V30 4780 N 471.1 -4.59433 0.589507 0
M  V30 4781 C 471.835 -5.67164 0.84335 0
M  V30 4782 N 471.331 -6.82975 1.16263 0
M  V30 4783 N 473.124 -5.56786 0.771091 0
M  V30 4784 H 465.275 -1.71798 1.24896 0
M  V30 4785 H 467.538 -0.801879 0.505663 0
M  V30 4786 H 467.244 -3.24805 1.34887 0
M  V30 4787 H 467.118 -3.75793 -0.325441 0
M  V30 4788 H 469.505 -2.85677 -0.739765 0
M  V30 4789 H 469.586 -2.37112 0.959766 0
M  V30 4790 H 469.23 -4.80394 1.64877 0
M  V30 4791 H 469.16 -5.26553 -0.0704866 0
M  V30 4792 H 471.651 -3.76245 0.353252 0
M  V30 4793 H 471.964 -7.61048 1.34257 0
M  V30 4794 H 470.309 -6.84552 1.20057 0
M  V30 4795 H 473.5 -4.65187 0.521383 0
M  V30 4796 H 473.673 -6.40664 0.972295 0
M  V30 4797 N 467.08 -0.0183926 -1.57589 0
M  V30 4798 C 468.326 0.663543 -1.91638 0
M  V30 4799 C 468.659 1.72392 -0.894134 0
M  V30 4800 O 467.934 1.94316 0.0846449 0
M  V30 4801 C 468.217 1.28984 -3.36207 0
M  V30 4802 C 468.07 0.239761 -4.49161 0
M  V30 4803 C 469.389 2.2109 -3.80536 0
M  V30 4804 H 466.508 0.239746 -0.696915 0
M  V30 4805 H 469.15 -0.073456 -1.89858 0
M  V30 4806 H 467.3 1.91799 -3.37854 0
M  V30 4807 H 468.972 -0.390119 -4.59647 0
M  V30 4808 H 467.215 -0.435972 -4.31604 0
M  V30 4809 H 467.886 0.717383 -5.47319 0
M  V30 4810 H 470.362 1.68273 -3.80557 0
M  V30 4811 H 469.238 2.61869 -4.82406 0
M  V30 4812 H 469.499 3.09764 -3.15434 0
M  V30 4813 N 468.558 1.5553 0.254621 0
M  V30 4814 C 469.488 1.9268 1.31897 0
M  V30 4815 C 470.469 0.790797 1.506 0
M  V30 4816 O 471.654 1.05045 1.63337 0
M  V30 4817 C 468.784 2.21477 2.67517 0
M  V30 4818 C 467.738 3.37256 2.63519 0
M  V30 4819 C 467.064 3.51576 4.02862 0
M  V30 4820 C 468.364 4.73157 2.21179 0
M  V30 4821 H 470.058 2.81832 1.01051 0
M  V30 4822 H 467.604 1.35599 0.484662 0
M  V30 4823 H 469.557 2.46055 3.42104 0
M  V30 4824 H 468.281 1.29144 2.99982 0
M  V30 4825 H 466.94 3.12675 1.9139 0
M  V30 4826 H 466.588 2.56676 4.32581 0
M  V30 4827 H 466.288 4.2943 4.01078 0
M  V30 4828 H 467.812 3.78467 4.79161 0
M  V30 4829 H 469.226 4.97158 2.85494 0
M  V30 4830 H 467.623 5.54058 2.30521 0
M  V30 4831 H 468.693 4.70739 1.16332 0
M  V30 4832 N 470.036 -0.519951 1.48776 0
M  V30 4833 C 471.266 -1.29783 1.60748 0
M  V30 4834 C 471.674 -1.87253 0.27072 0
M  V30 4835 O 471.017 -1.67628 -0.751438 0
M  V30 4836 C 471.079 -2.47984 2.60277 0
M  V30 4837 C 470.743 -2.11526 4.051 0
M  V30 4838 C 471.74 -1.66608 4.92481 0
M  V30 4839 C 469.425 -2.21742 4.50706 0
M  V30 4840 C 471.419 -1.32384 6.23501 0
M  V30 4841 C 469.106 -1.87129 5.81744 0
M  V30 4842 C 470.104 -1.42523 6.67964 0
M  V30 4843 O 469.792 -1.0837 7.96562 0
M  V30 4844 H 469.524 -0.400562 0.544542 0
M  V30 4845 H 472.078 -0.632879 1.95407 0
M  V30 4846 H 470.308 -3.17493 2.2076 0
M  V30 4847 H 471.997 -3.10036 2.61978 0
M  V30 4848 H 472.763 -1.58178 4.58481 0
M  V30 4849 H 468.642 -2.55415 3.83776 0
M  V30 4850 H 472.186 -0.974949 6.90754 0
M  V30 4851 H 468.083 -1.95204 6.15277 0
M  V30 4852 H 468.851 -1.21681 8.09405 0
M  V30 4853 N 471.514 -1.37532 -0.769588 0
M  V30 4854 C 472.477 -1.33292 -1.86456 0
M  V30 4855 C 473.477 -0.236537 -1.59051 0
M  V30 4856 O 474.667 -0.492511 -1.67093 0
M  V30 4857 C 471.799 -1.07118 -3.23633 0
M  V30 4858 H 472.992 -2.30692 -1.91628 0
M  V30 4859 H 470.545 -1.22593 -0.969572 0
M  V30 4860 H 471.28 -0.102578 -3.24138 0
M  V30 4861 H 471.065 -1.86479 -3.44917 0
M  V30 4862 H 472.555 -1.06806 -4.03711 0
M  V30 4863 N 472.992 0.995999 -1.22138 0
M  V30 4864 C 473.942 2.06988 -0.956042 0
M  V30 4865 C 474.926 1.60636 0.0921576 0
M  V30 4866 O 476.118 1.76607 -0.117958 0
M  V30 4867 C 473.247 3.39148 -0.532335 0
M  V30 4868 C 472.333 3.92142 -1.61509 0
M  V30 4869 N 472.724 4.18397 -2.84214 0
M  V30 4870 C 471.022 4.20514 -1.48606 0
M  V30 4871 C 471.723 4.61425 -3.54206 0
M  V30 4872 N 470.699 4.64934 -2.81669 0
M  V30 4873 H 474.501 2.25223 -1.88816 0
M  V30 4874 H 472.015 1.17748 -1.11845 0
M  V30 4875 H 474.012 4.15642 -0.323574 0
M  V30 4876 H 472.672 3.22314 0.392921 0
M  V30 4877 H 473.683 4.06682 -3.20671 0
M  V30 4878 H 470.36 4.12769 -0.626762 0
M  V30 4879 H 471.75 4.90387 -4.59315 0
M  V30 4880 N 474.47 1.03057 1.19235 0
M  V30 4881 C 475.4 0.633497 2.24742 0
M  V30 4882 C 476.381 -0.358335 1.66283 0
M  V30 4883 O 477.566 -0.240676 1.92703 0
M  V30 4884 C 474.696 -0.0147648 3.47297 0
M  V30 4885 C 473.65 0.899527 4.18441 0
M  V30 4886 C 472.976 0.116281 5.34574 0
M  V30 4887 C 474.276 2.21404 4.73051 0
M  V30 4888 H 475.97 1.5155 2.58211 0
M  V30 4889 H 473.516 0.73014 1.24117 0
M  V30 4890 H 475.469 -0.304202 4.20301 0
M  V30 4891 H 474.193 -0.931577 3.13032 0
M  V30 4892 H 472.852 1.17319 3.47321 0
M  V30 4893 H 472.5 -0.802619 4.96555 0
M  V30 4894 H 472.2 0.725293 5.83107 0
M  V30 4895 H 473.724 -0.166376 6.10373 0
M  V30 4896 H 475.138 1.98601 5.37802 0
M  V30 4897 H 473.535 2.77512 5.32078 0
M  V30 4898 H 474.605 2.86752 3.91026 0
M  V30 4899 N 475.948 -1.35272 0.808662 0
M  V30 4900 C 477.196 -1.98316 0.389233 0
M  V30 4901 C 477.517 -1.64465 -1.04767 0
M  V30 4902 O 476.787 -0.928175 -1.72516 0
M  V30 4903 H 475.367 -0.733585 0.140935 0
M  V30 4904 H 478.029 -1.6515 1.03496 0
M  V30 4905 H 477.125 -3.08123 0.496631 0
M  V30 4906 N 477.426 -0.562348 -1.47226 0
M  V30 4907 C 478.674 -0.0401371 -2.0206 0
M  V30 4908 C 478.995 1.3165 -1.43852 0
M  V30 4909 O 478.265 1.85976 -0.615599 0
M  V30 4910 H 476.845 -0.0118479 -0.746906 0
M  V30 4911 H 479.507 -0.73352 -1.8057 0
M  V30 4912 H 478.603 0.0441254 -3.12069 0
M  V30 4913 N 478.904 1.54736 -0.299062 0
M  V30 4914 C 480.15 2.00397 0.311244 0
M  V30 4915 C 480.483 1.18716 1.53688 0
M  V30 4916 O 479.758 0.263154 1.92712 0
M  V30 4917 C 480.041 3.53817 0.669761 0
M  V30 4918 C 479.894 4.46239 -0.564882 0
M  V30 4919 C 481.213 4.13856 1.49702 0
M  V30 4920 H 478.332 0.728493 0.111653 0
M  V30 4921 H 480.974 1.85506 -0.410774 0
M  V30 4922 H 479.124 3.66637 1.28491 0
M  V30 4923 H 480.796 4.45328 -1.20337 0
M  V30 4924 H 479.039 4.16916 -1.19849 0
M  V30 4925 H 479.71 5.5134 -0.269918 0
M  V30 4926 H 482.186 4.04461 0.977284 0
M  V30 4927 H 481.062 5.21365 1.71666 0
M  V30 4928 H 481.323 3.65608 2.48563 0
M  V30 4929 N 480.382 0.0267497 1.57577 0
M  V30 4930 C 481.793 -0.512413 1.79531 0
M  V30 4931 C 482.144 -1.72391 0.936791 0
M  V30 4932 O 481.269 -2.15903 0.146543 0
M  V30 4933 C 481.864 -0.936378 3.25603 0
M  V30 4934 C 480.423 -1.42067 3.4856 0
M  V30 4935 C 479.57 -0.384278 2.74624 0
M  V30 4936 H 482.521 0.252797 1.56674 0
M  V30 4937 H 482.542 -1.80088 3.35184 0
M  V30 4938 H 482.054 -0.0544332 3.88062 0
M  V30 4939 H 480.155 -2.32262 2.9135 0
M  V30 4940 H 480.268 -1.42968 4.57271 0
M  V30 4941 H 478.632 -0.851855 2.40032 0
M  V30 4942 H 479.415 0.489159 3.39797 0
M  V30 4943 N 481.861 -1.55662 -0.24637 0
M  V30 4944 C 482.824 -1.89558 -1.28842 0
M  V30 4945 C 483.824 -0.772082 -1.41052 0
M  V30 4946 O 485.014 -1.04007 -1.39743 0
M  V30 4947 C 482.146 -2.12449 -2.66605 0
M  V30 4948 H 483.339 -2.82735 -1.00004 0
M  V30 4949 H 480.892 -1.48562 -0.485684 0
M  V30 4950 H 481.627 -1.21742 -3.00582 0
M  V30 4951 H 481.412 -2.94273 -2.59125 0
M  V30 4952 H 482.902 -2.39854 -3.41847 0
M  V30 4953 N 483.339 0.512053 -1.4905 0
M  V30 4954 C 484.269 1.62365 -1.67809 0
M  V30 4955 C 485.25 1.61737 -0.526809 0
M  V30 4956 O 486.435 1.78651 -0.761404 0
M  V30 4957 C 483.565 3.00895 -1.73435 0
M  V30 4958 C 482.519 3.16387 -2.88242 0
M  V30 4959 C 481.845 4.56157 -2.78971 0
M  V30 4960 C 483.145 2.97457 -4.29321 0
M  V30 4961 H 484.839 1.46921 -2.60873 0
M  V30 4962 H 482.385 0.705379 -1.2554 0
M  V30 4963 H 484.338 3.78549 -1.85145 0
M  V30 4964 H 483.062 3.17403 -0.769619 0
M  V30 4965 H 481.721 2.41155 -2.76116 0
M  V30 4966 H 481.369 4.69525 -1.8043 0
M  V30 4967 H 481.069 4.67465 -3.5602 0
M  V30 4968 H 482.593 5.35886 -2.92675 0
M  V30 4969 H 484.007 3.64888 -4.42187 0
M  V30 4970 H 482.404 3.20245 -5.07507 0
M  V30 4971 H 483.474 1.93692 -4.44535 0
M  V30 4972 N 484.817 1.37938 0.762283 0
M  V30 4973 C 485.765 1.34569 1.89721 0
M  V30 4974 C 486.759 0.232929 1.67791 0
M  V30 4975 O 487.965 0.401485 1.75465 0
M  V30 4976 H 484.34 0.419594 0.624055 0
M  V30 4977 H 486.311 2.30357 1.8968 0
M  V30 4978 C 485.06 1.17898 3.27101 0
M  V30 4979 H 484.383 2.02781 3.44558 0
M  V30 4980 H 485.823 1.19593 4.06784 0
M  V30 4981 C 484.282 -0.114728 3.36705 0
M  V30 4982 O 484.812 -1.0949 3.8649 0
M  V30 4983 N 483.018 -0.16863 2.9011 0
M  V30 4984 H 482.565 0.62967 2.49786 0
M  V30 4985 H 482.523 -1.03383 2.96916 0
M  V30 4986 N 486.295 -0.989507 1.22664 0
M  V30 4987 C 487.543 -1.72612 1.05117 0
M  V30 4988 C 487.864 -1.90552 -0.414131 0
M  V30 4989 O 487.134 -1.4676 -1.29762 0
M  V30 4990 H 485.714 -0.639555 0.385977 0
M  V30 4991 H 488.376 -1.19158 1.54232 0
M  V30 4992 H 487.472 -2.71926 1.53175 0
M  V30 4993 N 487.773 -1.03688 -1.18687 0
M  V30 4994 C 489.003 -0.756819 -1.92239 0
M  V30 4995 C 489.411 0.689374 -1.76194 0
M  V30 4996 O 488.754 1.48126 -1.08648 0
M  V30 4997 C 488.816 -1.03851 -3.44173 0
M  V30 4998 C 488.48 -2.47785 -3.83994 0
M  V30 4999 C 489.477 -3.4595 -3.88091 0
M  V30 5000 C 487.162 -2.82397 -4.154 0
M  V30 5001 C 489.156 -4.76779 -4.23038 0
M  V30 5002 C 486.843 -4.13433 -4.50018 0
M  V30 5003 C 487.841 -5.10434 -4.53813 0
M  V30 5004 O 487.529 -6.39122 -4.87625 0
M  V30 5005 H 487.261 -0.275678 -0.617234 0
M  V30 5006 H 489.815 -1.38658 -1.51536 0
M  V30 5007 H 488.045 -0.351612 -3.85098 0
M  V30 5008 H 489.734 -0.746846 -3.9897 0
M  V30 5009 H 490.5 -3.20549 -3.63969 0
M  V30 5010 H 486.379 -2.07568 -4.11627 0
M  V30 5011 H 489.923 -5.52488 -4.25914 0
M  V30 5012 H 485.82 -4.38604 -4.736 0
M  V30 5013 H 486.588 -6.43715 -5.05542 0
M  V30 5014 N 489.251 1.34841 -0.815825 0
M  V30 5015 C 490.476 2.03261 -0.41226 0
M  V30 5016 C 490.901 1.61055 0.971751 0
M  V30 5017 O 490.259 0.7917 1.63101 0
M  V30 5018 C 490.307 3.56914 -0.514289 0
M  V30 5019 O 489.411 4.09728 0.468675 0
M  V30 5020 H 488.752 0.641664 -0.170771 0
M  V30 5021 H 491.282 1.72241 -1.10427 0
M  V30 5022 H 491.292 4.06156 -0.387457 0
M  V30 5023 H 489.967 3.86982 -1.52375 0
M  V30 5024 H 488.544 3.71681 0.301316 0
M  V30 5025 N 490.729 0.570148 1.46925 0
M  V30 5026 C 491.976 0.0509529 2.02436 0
M  V30 5027 C 492.304 -1.30405 1.44308 0
M  V30 5028 O 491.559 -1.86493 0.593198 0
M  V30 5029 C 491.858 -0.0780336 3.57315 0
M  V30 5030 C 491.524 1.20775 4.34424 0
M  V30 5031 C 490.186 1.56004 4.5521 0
M  V30 5032 C 492.538 2.0592 4.78797 0
M  V30 5033 C 489.866 2.76201 5.17619 0
M  V30 5034 C 492.218 3.25332 5.42533 0
M  V30 5035 C 490.882 3.60859 5.61549 0
M  V30 5036 H 490.152 0.018645 0.740765 0
M  V30 5037 H 492.799 0.744262 1.76445 0
M  V30 5038 H 491.104 -0.854394 3.82371 0
M  V30 5039 H 492.801 -0.495312 3.97929 0
M  V30 5040 H 489.391 0.923469 4.18533 0
M  V30 5041 H 493.575 1.80008 4.62505 0
M  V30 5042 H 488.831 3.0388 5.30535 0
M  V30 5043 H 493.005 3.91586 5.75876 0
M  V30 5044 H 490.632 4.54088 6.09678 0
M  V30 5045 N 492.207 -1.54576 0.307264 0
M  V30 5046 C 493.456 -1.99442 -0.300976 0
M  V30 5047 C 493.769 -1.19928 -1.5452 0
M  V30 5048 O 494.975 -1.55092 -2.22842 0
M  V30 5049 C 493.431 -3.55084 -0.586809 0
M  V30 5050 C 493.039 -4.43413 0.639438 0
M  V30 5051 C 494.783 -4.0846 -1.1559 0
M  V30 5052 C 492.69 -5.90499 0.326411 0
M  V30 5053 H 491.62 -0.744986 -0.116238 0
M  V30 5054 H 494.271 -1.787 0.416947 0
M  V30 5055 H 492.653 -3.71749 -1.36449 0
M  V30 5056 H 493.827 -4.38522 1.41545 0
M  V30 5057 H 492.142 -4.00842 1.1276 0
M  V30 5058 H 494.739 -5.15926 -1.40445 0
M  V30 5059 H 495.082 -3.59443 -2.10015 0
M  V30 5060 H 495.615 -3.95362 -0.439778 0
M  V30 5061 H 492.354 -6.43676 1.23939 0
M  V30 5062 H 491.874 -5.98382 -0.412212 0
M  V30 5063 H 493.553 -6.46962 -0.0697393 0
M  V30 5064 N 493.685 -0.035106 -1.57561 0
M  V30 5065 C 494.932 0.642229 -1.92046 0
M  V30 5066 C 495.26 1.7179 -0.91206 0
M  V30 5067 O 494.515 1.95544 0.0781153 0
M  V30 5068 C 494.814 1.29149 -3.3325 0
M  V30 5069 C 494.48 0.345604 -4.49574 0
M  V30 5070 C 493.142 0.0852775 -4.81124 0
M  V30 5071 C 495.494 -0.303569 -5.20315 0
M  V30 5072 C 492.822 -0.831927 -5.80772 0
M  V30 5073 C 495.174 -1.20886 -6.20942 0
M  V30 5074 C 493.838 -1.47802 -6.50931 0
M  V30 5075 H 493.108 0.235008 -0.702746 0
M  V30 5076 H 495.755 -0.0981529 -1.91248 0
M  V30 5077 H 494.06 2.10676 -3.30337 0
M  V30 5078 H 495.757 1.82223 -3.57205 0
M  V30 5079 H 492.347 0.558683 -4.24943 0
M  V30 5080 H 496.531 -0.115515 -4.96166 0
M  V30 5081 H 491.787 -1.0481 -6.02349 0
M  V30 5082 H 495.961 -1.71804 -6.74875 0
M  V30 5083 H 493.588 -2.19039 -7.2796 0
M  V30 5084 N 495.163 1.55791 0.238111 0
M  V30 5085 C 496.579 1.48411 0.587045 0
M  V30 5086 C 496.779 0.72702 1.87927 0
M  V30 5087 O 495.835 0.259942 2.51158 0
M  V30 5088 C 497.148 2.92873 0.681623 0
M  V30 5089 C 498.696 3.03295 0.773363 0
M  V30 5090 C 499.171 4.49082 0.899428 0
M  V30 5091 N 500.662 4.53056 0.964075 0
M  V30 5092 C 501.397 5.63117 1.08104 0
M  V30 5093 N 500.893 6.82969 1.16299 0
M  V30 5094 N 502.686 5.50933 1.11488 0
M  V30 5095 H 494.837 2.0345 -0.610076 0
M  V30 5096 H 497.1 0.924034 -0.211813 0
M  V30 5097 H 496.806 3.51142 -0.19802 0
M  V30 5098 H 496.68 3.43851 1.55069 0
M  V30 5099 H 499.067 2.45101 1.64346 0
M  V30 5100 H 499.148 2.55513 -0.121034 0
M  V30 5101 H 498.792 5.07889 0.0338586 0
M  V30 5102 H 498.722 4.94553 1.809 0
M  V30 5103 H 501.213 3.66737 0.91173 0
M  V30 5104 H 501.526 7.62598 1.25155 0
M  V30 5105 H 499.871 6.85712 1.13241 0
M  V30 5106 H 503.062 4.56231 1.0474 0
M  V30 5107 H 503.235 6.36743 1.20259 0
M  V30 5108 N 496.642 -0.504142 1.49319 0
M  V30 5109 C 497.919 -1.26548 1.49147 0
M  V30 5110 C 498.299 -2.09977 0.21744 0
M  V30 5111 O 497.647 -2.14028 -0.800269 0
M  V30 5112 C 497.857 -2.12489 2.76857 0
M  V30 5113 C 499.205 -2.7178 3.26222 0
M  V30 5114 O 500.229 -2.22758 2.77952 0
M  V30 5115 O 499.088 -3.61015 4.10281 0
M  V30 5116 H 496.182 -0.572495 0.596806 0
M  V30 5117 H 498.728 -0.51867 1.61579 0
M  V30 5118 H 497.5 -1.50796 3.61077 0
M  V30 5119 H 497.123 -2.94368 2.6727 0
M  V30 5120 N 498.12 -1.38341 -0.754957 0
M  V30 5121 C 499.368 -1.34208 -1.51105 0
M  V30 5122 C 499.689 0.0677634 -1.94882 0
M  V30 5123 O 498.959 1.01517 -1.67544 0
M  V30 5124 H 497.539 -0.493819 -0.560493 0
M  V30 5125 H 500.201 -1.73005 -0.897507 0
M  V30 5126 H 499.297 -1.99203 -2.4026 0
M  V30 5127 O 499.637 0.895511 -1.34398 0
M  V30 5128 H 500.328 1.53136 -1.18614 0
M  V30 END ATOM
M  V30 BEGIN BOND
M  V30 END BOND
M  V30 END CTAB
M  END
$$$$
