drugbank_target|P9WJY5 Uncharacterized MFS-type transporter EfpA (DB05154)
 OpenBabel12092121203D

  0  0  0     0  0            999 V3000
M  V30 BEGIN CTAB
M  V30 COUNTS 7979 8062 0 0 0
M  V30 BEGIN ATOM
M  V30 1 H -0.908 1.98254 -0.117106 0
M  V30 2 N 0 1.576 0 0
M  V30 3 C 0.933 2.03868 1.02534 0
M  V30 4 C 1.911 0.928543 1.3348 0
M  V30 5 O 3.095 1.19667 1.45644 0
M  V30 6 C 0.222 2.43627 2.35294 0
M  V30 7 C -0.732 3.65373 2.2001 0
M  V30 8 S 0.101 5.13292 1.52614 0
M  V30 9 C 1.257 5.56322 2.86805 0
M  V30 10 H 1.49 2.90518 0.631377 0
M  V30 11 H -0.977 1.52953 0.210867 0
M  V30 12 H 0.981 2.67203 3.11629 0
M  V30 13 H -0.358 1.57376 2.7183 0
M  V30 14 H -1.165 3.90944 3.18086 0
M  V30 15 H -1.563 3.418 1.51819 0
M  V30 16 H 0.729 5.58782 3.83104 0
M  V30 17 H 1.672 6.56266 2.65933 0
M  V30 18 H 2.08 4.83886 2.90714 0
M  V30 19 N 1.4781 -0.272755 1.55222 0
M  V30 20 C 2.7061 -1.02255 1.79865 0
M  V30 21 C 3.1211 -1.79924 0.572088 0
M  V30 22 O 2.4781 -1.76638 -0.458842 0
M  V30 23 C 2.5291 -1.98094 3.02392 0
M  V30 24 O 2.2501 -1.23572 4.20311 0
M  V30 25 C 3.7511 -2.84884 3.39641 0
M  V30 26 H 0.9711 -0.302057 0.599168 0
M  V30 27 H 3.5151 -0.303465 2.02236 0
M  V30 28 H 1.6701 -2.65465 2.82147 0
M  V30 29 H 2.0841 -1.88172 4.89583 0
M  V30 30 H 3.5581 -3.47927 4.28545 0
M  V30 31 H 4.0351 -3.54665 2.59055 0
M  V30 32 H 4.6411 -2.23003 3.62146 0
M  V30 33 N 2.9562 -1.48159 -0.537278 0
M  V30 34 C 3.9192 -1.61665 -1.62472 0
M  V30 35 C 4.9192 -0.490395 -1.5314 0
M  V30 36 O 6.1092 -0.755998 -1.5694 0
M  V30 37 C 3.2412 -1.57997 -3.02076 0
M  V30 38 H 4.4342 -2.58621 -1.51839 0
M  V30 39 H 1.9872 -1.36647 -0.758771 0
M  V30 40 H 2.7222 -0.624913 -3.18222 0
M  V30 41 H 2.5072 -2.39755 -3.10258 0
M  V30 42 H 3.9972 -1.70627 -3.81151 0
M  V30 43 N 4.4343 0.785586 -1.36625 0
M  V30 44 C 5.3643 1.91259 -1.33949 0
M  V30 45 C 6.3453 1.68795 -0.210325 0
M  V30 46 O 7.5303 1.89854 -0.408561 0
M  V30 47 C 4.6603 3.28339 -1.13186 0
M  V30 48 C 3.6143 3.65335 -2.22967 0
M  V30 49 C 2.9403 5.00806 -1.87342 0
M  V30 50 C 4.2403 3.7352 -3.65075 0
M  V30 51 H 5.9343 1.93755 -2.28253 0
M  V30 52 H 3.4803 0.930788 -1.09874 0
M  V30 53 H 5.4333 4.06804 -1.09948 0
M  V30 54 H 4.1573 3.2624 -0.153332 0
M  V30 55 H 2.8163 2.89169 -2.25337 0
M  V30 56 H 2.4643 4.95233 -0.880545 0
M  V30 57 H 2.1643 5.26529 -2.60846 0
M  V30 58 H 3.6883 5.81687 -1.85667 0
M  V30 59 H 5.1023 4.42168 -3.64911 0
M  V30 60 H 3.4993 4.10731 -4.37516 0
M  V30 61 H 4.5693 2.74527 -3.99703 0
M  V30 62 N 5.9124 1.20967 1.01018 0
M  V30 63 C 6.8604 0.961223 2.1181 0
M  V30 64 C 7.8544 -0.0897034 1.69162 0
M  V30 65 O 9.0604 0.0612271 1.79896 0
M  V30 66 H 5.4354 0.29355 0.692338 0
M  V30 67 H 7.4064 1.90178 2.29946 0
M  V30 68 C 6.1554 0.536854 3.4353 0
M  V30 69 H 5.4784 1.33713 3.76777 0
M  V30 70 H 6.9184 0.402286 4.22087 0
M  V30 71 C 5.3774 -0.751574 3.2841 0
M  V30 72 O 5.9074 -1.80841 3.58691 0
M  V30 73 N 4.1134 -0.716079 2.81639 0
M  V30 74 H 3.6604 0.144236 2.57196 0
M  V30 75 H 3.6184 -1.57847 2.71904 0
M  V30 76 N 7.3905 -1.2043 1.01659 0
M  V30 77 C 8.6675 -1.8548 0.621004 0
M  V30 78 C 9.0475 -1.9091 -0.900919 0
M  V30 79 O 8.3955 -1.41694 -1.79263 0
M  V30 80 C 8.6055 -3.25119 1.2688 0
M  V30 81 C 9.9535 -4.01403 1.38423 0
M  V30 82 O 10.9775 -3.34473 1.22501 0
M  V30 83 O 9.8365 -5.21265 1.64151 0
M  V30 84 H 6.9305 -0.798761 0.214266 0
M  V30 85 H 9.4765 -1.28019 1.11396 0
M  V30 86 H 8.2485 -3.15932 2.30873 0
M  V30 87 H 7.8715 -3.90212 0.762917 0
M  V30 88 N 8.8686 -0.792821 -1.36206 0
M  V30 89 C 10.0966 -0.378825 -2.03402 0
M  V30 90 C 10.5116 1.00586 -1.59774 0
M  V30 91 O 9.8686 1.64574 -0.788764 0
M  V30 92 C 9.9196 -0.43683 -3.58851 0
M  V30 93 O 9.6406 -1.76691 -4.00889 0
M  V30 94 C 11.1416 -0.0138943 -4.43298 0
M  V30 95 H 8.3616 -0.155673 -0.652692 0
M  V30 96 H 10.9056 -1.07261 -1.74113 0
M  V30 97 H 9.0606 0.208575 -3.86838 0
M  V30 98 H 9.4746 -1.72011 -4.95492 0
M  V30 99 H 10.9486 -0.105615 -5.51899 0
M  V30 100 H 11.4256 1.03915 -4.2673 0
M  V30 101 H 12.0316 -0.63192 -4.20579 0
M  V30 102 N 10.3467 1.47872 -0.545128 0
M  V30 103 C 11.2567 2.33633 0.212746 0
M  V30 104 C 12.2727 1.4744 0.923983 0
M  V30 105 O 13.4487 1.80393 0.895572 0
M  V30 106 C 10.5137 3.23884 1.23693 0
M  V30 107 C 9.5747 4.25961 0.534417 0
M  V30 108 C 8.8077 5.11899 1.5098 0
M  V30 109 O 9.0307 5.00077 2.7437 0
M  V30 110 O 7.9647 5.92831 1.0409 0
M  V30 111 H 11.7907 2.99714 -0.490416 0
M  V30 112 H 9.3757 1.46235 -0.305871 0
M  V30 113 H 11.2577 3.79666 1.82843 0
M  V30 114 H 9.9327 2.60446 1.92222 0
M  V30 115 H 8.8397 3.73972 -0.0979679 0
M  V30 116 H 10.1727 4.92079 -0.109213 0
M  V30 117 N 11.8248 0.280983 1.55075 0
M  V30 118 C 13.2408 -0.0729964 1.59433 0
M  V30 119 C 13.4408 -1.5411 1.29817 0
M  V30 120 O 12.4968 -2.29086 1.06187 0
M  V30 121 C 13.8098 0.306921 2.9913 0
M  V30 122 C 15.3578 0.254023 3.11968 0
M  V30 123 C 15.8328 0.608467 4.5394 0
M  V30 124 N 17.3238 0.560241 4.59799 0
M  V30 125 C 18.0588 0.80722 5.6769 0
M  V30 126 N 17.5548 1.11912 6.83701 0
M  V30 127 N 19.3478 0.735623 5.57266 0
M  V30 128 H 11.4988 1.238 1.7259 0
M  V30 129 H 13.7618 0.500547 0.805082 0
M  V30 130 H 13.4678 1.32816 3.25657 0
M  V30 131 H 13.3418 -0.349363 3.75579 0
M  V30 132 H 15.7288 -0.75794 2.852 0
M  V30 133 H 15.8098 0.944649 2.37718 0
M  V30 134 H 15.4538 1.61814 4.81434 0
M  V30 135 H 15.3838 -0.104013 5.26497 0
M  V30 136 H 17.8748 0.329288 3.76463 0
M  V30 137 H 18.1878 1.29409 7.61888 0
M  V30 138 H 16.5328 1.15695 6.85303 0
M  V30 139 H 19.7238 0.491752 4.6551 0
M  V30 140 H 19.8968 0.931482 6.4127 0
M  V30 141 N 13.3029 -1.57598 0.00835791 0
M  V30 142 C 14.2659 -2.07884 -0.965242 0
M  V30 143 C 15.2659 -0.989825 -1.26725 0
M  V30 144 O 16.4559 -1.25218 -1.21104 0
M  V30 145 C 13.5879 -2.52731 -2.28779 0
M  V30 146 H 14.7809 -2.95178 -0.530112 0
M  V30 147 H 12.3339 -1.54458 -0.239283 0
M  V30 148 H 13.0689 -1.68705 -2.76964 0
M  V30 149 H 12.8539 -3.32272 -2.08177 0
M  V30 150 H 14.3439 -2.91933 -2.98605 0
M  V30 151 N 14.781 0.264519 -1.55364 0
M  V30 152 C 16.027 0.99646 -1.76631 0
M  V30 153 C 16.36 1.85632 -0.570478 0
M  V30 154 O 15.635 1.89647 0.43175 0
M  V30 155 C 15.918 1.87187 -3.07625 0
M  V30 156 C 15.771 1.04138 -4.37579 0
M  V30 157 C 17.09 2.85749 -3.34717 0
M  V30 158 H 14.209 0.360841 -0.642622 0
M  V30 159 H 16.851 0.268218 -1.88097 0
M  V30 160 H 15.001 2.49279 -2.9798 0
M  V30 161 H 16.673 0.440517 -4.59192 0
M  V30 162 H 14.916 0.345115 -4.32425 0
M  V30 163 H 15.587 1.68729 -5.2558 0
M  V30 164 H 18.063 2.33793 -3.4421 0
M  V30 165 H 16.939 3.44136 -4.27623 0
M  V30 166 H 17.2 3.61311 -2.54768 0
M  V30 167 N 16.2591 1.48442 0.529413 0
M  V30 168 C 17.6751 1.34575 0.858004 0
M  V30 169 C 17.8751 0.3572 1.98309 0
M  V30 170 O 16.9311 -0.221379 2.51528 0
M  V30 171 C 18.2441 2.74617 1.22499 0
M  V30 172 C 19.7921 2.83109 1.33484 0
M  V30 173 C 20.2671 4.23854 1.73526 0
M  V30 174 N 21.7581 4.2653 1.80628 0
M  V30 175 C 22.4931 5.32372 2.12997 0
M  V30 176 N 21.9891 6.48491 2.43786 0
M  V30 177 N 23.7821 5.19766 2.14008 0
M  V30 178 H 15.9331 2.1133 -0.212925 0
M  V30 179 H 18.1961 0.947439 -0.0326199 0
M  V30 180 H 17.9021 3.4852 0.471905 0
M  V30 181 H 17.7761 3.08177 2.17501 0
M  V30 182 H 20.1631 2.09462 2.0787 0
M  V30 183 H 20.2441 2.53168 0.366027 0
M  V30 184 H 19.8881 4.98018 0.997013 0
M  V30 185 H 19.8181 4.5124 2.71459 0
M  V30 186 H 22.3091 3.42772 1.59108 0
M  V30 187 H 22.6221 7.24993 2.67592 0
M  V30 188 H 20.9671 6.51765 2.41304 0
M  V30 189 H 24.1581 4.28066 1.89412 0
M  V30 190 H 24.3311 6.02354 2.38902 0
M  V30 191 N 17.7372 -0.778329 1.37039 0
M  V30 192 C 18.6852 -1.91278 1.32345 0
M  V30 193 C 19.6792 -1.68051 0.213331 0
M  V30 194 O 20.8852 -1.75922 0.38098 0
M  V30 195 H 17.2602 -0.628909 0.412283 0
M  V30 196 H 19.2312 -1.92355 2.28127 0
M  V30 197 C 17.9802 -3.28455 1.14073 0
M  V30 198 H 17.3032 -3.46901 1.98746 0
M  V30 199 H 18.7432 -4.08152 1.14837 0
M  V30 200 C 17.2022 -3.36548 -0.154015 0
M  V30 201 O 17.7322 -3.85186 -1.13993 0
M  V30 202 N 15.9382 -2.89894 -0.202475 0
M  V30 203 H 15.4852 -2.50504 0.600476 0
M  V30 204 H 15.4432 -2.9569 -1.06841 0
M  V30 205 N 19.2153 -1.21501 -1.00376 0
M  V30 206 C 20.4613 -1.04457 -1.74529 0
M  V30 207 C 20.8163 0.417386 -1.87818 0
M  V30 208 O 20.1093 1.30556 -1.40234 0
M  V30 209 C 20.3033 -1.67673 -3.15627 0
M  V30 210 C 20.1323 -3.19865 -3.16096 0
M  V30 211 C 18.9023 -3.88915 -3.22604 0
M  V30 212 C 21.1003 -4.16936 -3.01112 0
M  V30 213 N 19.0823 -5.28284 -3.12712 0
M  V30 214 C 20.4533 -5.43066 -2.99131 0
M  V30 215 C 22.5083 -4.07968 -2.85423 0
M  V30 216 C 21.2113 -6.6126 -2.83068 0
M  V30 217 C 23.2373 -5.258 -2.70718 0
M  V30 218 C 22.5993 -6.50842 -2.69414 0
M  V30 219 H 18.6983 -0.436584 -0.648782 0
M  V30 220 H 21.2823 -1.53875 -1.19293 0
M  V30 221 H 19.4533 -1.20822 -3.6913 0
M  V30 222 H 21.1853 -1.43824 -3.78281 0
M  V30 223 H 17.9403 -3.39847 -3.2985 0
M  V30 224 H 18.3643 -6.01284 -3.11105 0
M  V30 225 H 23.0063 -3.1209 -2.85236 0
M  V30 226 H 20.7243 -7.57298 -2.82002 0
M  V30 227 H 24.3103 -5.20683 -2.59577 0
M  V30 228 H 23.1903 -7.40485 -2.5817 0
M  V30 229 N 20.6934 1.19889 -1.02296 0
M  V30 230 C 21.9214 1.9339 -0.735399 0
M  V30 231 C 22.3364 1.75148 0.704887 0
M  V30 232 O 21.6934 1.06954 1.47875 0
M  V30 233 C 21.7444 3.45313 -1.06962 0
M  V30 234 O 21.4654 3.62964 -2.45334 0
M  V30 235 C 22.9664 4.35948 -0.804021 0
M  V30 236 H 20.1864 0.61448 -0.269546 0
M  V30 237 H 22.7304 1.522 -1.36585 0
M  V30 238 H 20.8854 3.84359 -0.484455 0
M  V30 239 H 21.2994 4.56886 -2.57595 0
M  V30 240 H 22.7734 5.41174 -1.0879 0
M  V30 241 H 23.2504 4.3842 0.261691 0
M  V30 242 H 23.8564 4.02574 -1.37164 0
M  V30 243 N 22.1715 0.800033 1.35784 0
M  V30 244 C 23.1345 0.211565 2.28221 0
M  V30 245 C 24.1345 -0.59728 1.49296 0
M  V30 246 O 25.3245 -0.416721 1.69142 0
M  V30 247 C 22.4565 -0.705846 3.33513 0
M  V30 248 H 23.6495 1.02677 2.81776 0
M  V30 249 H 21.2025 0.570211 1.45528 0
M  V30 250 H 21.9375 -1.54498 2.85133 0
M  V30 251 H 21.7225 -0.127655 3.91892 0
M  V30 252 H 23.2125 -1.11211 4.02519 0
M  V30 253 N 23.6496 -1.47581 0.552962 0
M  V30 254 C 24.8976 -2.02082 0.0272703 0
M  V30 255 C 25.2186 -1.4301 -1.32563 0
M  V30 256 O 24.4886 -0.603745 -1.86365 0
M  V30 257 H 23.0686 -0.746966 0.00709182 0
M  V30 258 H 25.7306 -1.81033 0.722008 0
M  V30 259 H 24.8266 -3.12034 -0.0639951 0
M  V30 260 N 25.1277 -0.289203 -1.54924 0
M  V30 261 C 26.5437 0.0645403 -1.59469 0
M  V30 262 C 26.7437 1.53419 -1.30632 0
M  V30 263 O 25.7997 2.2852 -1.074 0
M  V30 264 C 27.1127 -0.32278 -2.98963 0
M  V30 265 C 28.6607 -0.270564 -3.11828 0
M  V30 266 C 29.1357 -0.632532 -4.53611 0
M  V30 267 N 30.6267 -0.584617 -4.59496 0
M  V30 268 C 31.3617 -0.837314 -5.67254 0
M  V30 269 N 30.8577 -1.15536 -6.83098 0
M  V30 270 N 32.6507 -0.765166 -5.56868 0
M  V30 271 H 24.8017 -1.24714 -1.71931 0
M  V30 272 H 27.0647 -0.504809 -0.802416 0
M  V30 273 H 26.7707 -1.34541 -3.24948 0
M  V30 274 H 26.6447 0.32944 -3.75759 0
M  V30 275 H 29.0317 0.742805 -2.85598 0
M  V30 276 H 29.1127 -0.957242 -2.37214 0
M  V30 277 H 28.7567 -1.64365 -4.80569 0
M  V30 278 H 28.6867 0.07609 -5.26545 0
M  V30 279 H 31.1777 -0.349248 -3.76283 0
M  V30 280 H 31.4907 -1.33447 -7.61191 0
M  V30 281 H 29.8357 -1.19328 -6.84679 0
M  V30 282 H 33.0267 -0.516432 -4.65243 0
M  V30 283 H 33.1997 -0.965477 -6.40767 0
M  V30 284 N 26.6058 1.57591 -0.0167156 0
M  V30 285 C 28.0168 1.79201 0.523834 0
M  V30 286 C 28.3678 0.925796 1.72984 0
M  V30 287 O 27.4928 0.132792 2.15992 0
M  V30 288 C 28.0878 3.25 0.957091 0
M  V30 289 C 26.6468 3.47648 1.44283 0
M  V30 290 C 25.7938 2.74374 0.401757 0
M  V30 291 H 28.7448 1.56831 -0.242816 0
M  V30 292 H 28.7658 3.34031 1.82219 0
M  V30 293 H 28.2778 3.88019 0.0791415 0
M  V30 294 H 26.3788 2.89866 2.34113 0
M  V30 295 H 26.4918 4.56352 1.45877 0
M  V30 296 H 24.8558 2.39485 0.867121 0
M  V30 297 H 25.6388 3.40102 -0.467513 0
M  V30 298 N 28.0839 -0.256276 1.55502 0
M  V30 299 C 29.0339 -1.31981 1.85916 0
M  V30 300 C 30.0179 -1.43927 0.719296 0
M  V30 301 O 31.2099 -1.47326 0.981019 0
M  V30 302 C 28.3389 -2.67703 2.14918 0
M  V30 303 C 27.4249 -2.59801 3.35208 0
M  V30 304 N 27.8159 -2.21524 4.54709 0
M  V30 305 C 26.1139 -2.90832 3.38131 0
M  V30 306 C 26.8149 -2.24024 5.36832 0
M  V30 307 N 25.7909 -2.63158 4.75656 0
M  V30 308 H 29.5929 -1.01423 2.75845 0
M  V30 309 H 27.1069 -0.464911 1.55603 0
M  V30 310 H 29.1039 -3.44445 2.34869 0
M  V30 311 H 27.7639 -2.99137 1.26282 0
M  V30 312 H 28.7749 -1.93223 4.80505 0
M  V30 313 H 25.4519 -3.26867 2.59739 0
M  V30 314 H 26.8419 -1.9685 6.42417 0
M  V30 315 N 29.562 -1.4872 -0.521534 0
M  V30 316 C 30.978 -1.35028 -0.850855 0
M  V30 317 C 31.178 -0.367712 -1.98116 0
M  V30 318 O 30.234 0.208037 -2.51642 0
M  V30 319 C 31.547 -2.75263 -1.21041 0
M  V30 320 C 33.095 -2.83813 -1.31981 0
M  V30 321 C 33.57 -4.24769 -1.71276 0
M  V30 322 N 35.061 -4.27482 -1.78363 0
M  V30 323 C 35.796 -5.33494 -2.1017 0
M  V30 324 N 35.292 -6.49775 -2.40343 0
M  V30 325 N 37.085 -5.20894 -2.11248 0
M  V30 326 H 29.236 -2.11214 0.22413 0
M  V30 327 H 31.499 -0.947252 0.0376439 0
M  V30 328 H 31.205 -3.48765 -0.453415 0
M  V30 329 H 31.079 -3.09327 -2.15863 0
M  V30 330 H 33.466 -2.10561 -2.06756 0
M  V30 331 H 33.547 -2.53358 -0.352596 0
M  V30 332 H 33.191 -4.9854 -0.970588 0
M  V30 333 H 33.121 -4.52673 -2.69062 0
M  V30 334 H 35.612 -3.43611 -1.57288 0
M  V30 335 H 35.925 -7.26402 -2.63743 0
M  V30 336 H 34.27 -6.53035 -2.37844 0
M  V30 337 H 37.461 -4.29065 -1.87139 0
M  V30 338 H 37.634 -6.03612 -2.35704 0
M  V30 339 N 31.0401 0.771051 -1.3745 0
M  V30 340 C 32.4511 1.34737 -1.29239 0
M  V30 341 C 32.8021 1.96109 0.0596908 0
M  V30 342 O 31.9271 1.93865 0.961534 0
M  V30 343 C 32.5221 2.44973 -2.34037 0
M  V30 344 C 31.0811 2.98372 -2.29458 0
M  V30 345 C 30.2281 1.71595 -2.17831 0
M  V30 346 H 33.1791 0.571256 -1.48062 0
M  V30 347 H 33.2001 3.24471 -1.98744 0
M  V30 348 H 32.7121 2.00276 -3.32432 0
M  V30 349 H 30.8131 3.47443 -1.34589 0
M  V30 350 H 30.9261 3.53939 -3.229 0
M  V30 351 H 29.2901 1.94547 -1.64388 0
M  V30 352 H 30.0731 1.29001 -3.18141 0
M  V30 353 N 32.5182 1.22032 0.997298 0
M  V30 354 C 33.4812 0.987909 2.06816 0
M  V30 355 C 34.4812 -0.0440084 1.6074 0
M  V30 356 O 35.6712 0.194053 1.73116 0
M  V30 357 C 32.8032 0.49132 3.37341 0
M  V30 358 H 33.9962 1.93803 2.28868 0
M  V30 359 H 31.5492 1.03838 1.16822 0
M  V30 360 H 32.2842 -0.463364 3.20973 0
M  V30 361 H 32.0692 1.23575 3.72118 0
M  V30 362 H 33.5592 0.348824 4.16141 0
M  V30 363 N 33.9963 -1.19345 1.0293 0
M  V30 364 C 35.4073 -1.70725 0.755633 0
M  V30 365 C 35.7583 -1.82326 -0.724676 0
M  V30 366 O 34.8833 -1.49471 -1.56484 0
M  V30 367 C 35.4783 -3.10084 1.36503 0
M  V30 368 C 34.0373 -3.58723 1.13994 0
M  V30 369 C 33.1843 -2.35577 1.46283 0
M  V30 370 H 36.1353 -1.0418 1.19718 0
M  V30 371 H 36.1563 -3.72787 0.762217 0
M  V30 372 H 35.6683 -3.01609 2.44241 0
M  V30 373 H 33.7693 -3.72512 0.0807901 0
M  V30 374 H 33.8823 -4.42816 1.82894 0
M  V30 375 H 32.2463 -2.38935 0.88217 0
M  V30 376 H 33.0293 -2.29731 2.55105 0
M  V30 377 N 35.4744 -0.807222 -1.35358 0
M  V30 378 C 36.4074 -0.163572 -2.27613 0
M  V30 379 C 37.3854 0.670817 -1.48118 0
M  V30 380 O 38.5694 0.63796 -1.77376 0
M  V30 381 C 35.6964 0.773015 -3.29761 0
M  V30 382 C 34.7424 0.0181653 -4.26496 0
M  V30 383 S 35.5754 -1.31831 -5.19019 0
M  V30 384 C 36.7314 -0.38619 -6.24707 0
M  V30 385 H 36.9644 -0.945757 -2.81856 0
M  V30 386 H 34.4974 -0.602315 -1.42167 0
M  V30 387 H 36.4554 1.30788 -3.89108 0
M  V30 388 H 35.1164 1.52859 -2.74396 0
M  V30 389 H 34.3094 0.729534 -4.98692 0
M  V30 390 H 33.9114 -0.446761 -3.71322 0
M  V30 391 H 36.2034 0.428295 -6.76145 0
M  V30 392 H 37.1464 -1.07736 -6.99856 0
M  V30 393 H 37.5544 0.018398 -5.64497 0
M  V30 394 N 36.9525 1.47285 -0.560781 0
M  V30 395 C 38.3685 1.58065 -0.22081 0
M  V30 396 C 38.5685 1.55892 1.27671 0
M  V30 397 O 37.6245 1.46422 2.0571 0
M  V30 398 C 38.9375 2.88418 -0.850625 0
M  V30 399 C 40.4855 3.02009 -0.822184 0
M  V30 400 C 40.9605 4.35066 -1.43113 0
M  V30 401 N 42.4515 4.41711 -1.39448 0
M  V30 402 C 43.1865 5.43237 -1.83525 0
M  V30 403 N 42.6825 6.51555 -2.35474 0
M  V30 404 N 44.4755 5.34304 -1.74574 0
M  V30 405 H 36.6265 1.46941 -1.53369 0
M  V30 406 H 38.8895 0.699558 -0.639783 0
M  V30 407 H 38.5955 2.95755 -1.9032 0
M  V30 408 H 38.4695 3.75612 -0.345773 0
M  V30 409 H 40.8565 2.94266 0.221714 0
M  V30 410 H 40.9375 2.16347 -1.36483 0
M  V30 411 H 40.5815 4.43565 -2.47412 0
M  V30 412 H 40.5115 5.19465 -0.863899 0
M  V30 413 H 43.0025 3.64027 -1.01452 0
M  V30 414 H 43.3155 7.25203 -2.67021 0
M  V30 415 H 41.6605 6.52435 -2.39487 0
M  V30 416 H 44.8515 4.48581 -1.33763 0
M  V30 417 H 45.0245 6.13288 -2.09242 0
M  V30 418 N 38.4306 0.297415 1.54768 0
M  V30 419 C 39.8416 -0.195947 1.85669 0
M  V30 420 C 40.1926 -1.53707 1.21937 0
M  V30 421 O 39.3176 -2.10164 0.515754 0
M  V30 422 C 39.9126 -0.362318 3.36857 0
M  V30 423 C 38.4716 -0.799901 3.67802 0
M  V30 424 C 37.6186 0.0938578 2.77141 0
M  V30 425 H 40.5696 0.518538 1.4999 0
M  V30 426 H 40.5906 -1.19745 3.61167 0
M  V30 427 H 40.1026 0.613921 3.83214 0
M  V30 428 H 38.2036 -1.78682 3.26961 0
M  V30 429 H 38.3166 -0.621773 4.75048 0
M  V30 430 H 36.6806 -0.426254 2.51108 0
M  V30 431 H 37.4636 1.06639 3.26318 0
M  V30 432 N 39.9087 -1.5758 0.0250728 0
M  V30 433 C 41.3197 -1.79476 -0.514323 0
M  V30 434 C 41.6707 -0.934956 -1.72491 0
M  V30 435 O 40.7957 -0.144245 -2.15919 0
M  V30 436 C 41.3907 -3.25503 -0.939842 0
M  V30 437 C 39.9497 -3.48408 -1.42438 0
M  V30 438 C 39.0967 -2.74583 -0.387201 0
M  V30 439 H 42.0477 -1.567 0.25113 0
M  V30 440 H 42.0687 -3.34992 -1.80445 0
M  V30 441 H 41.5807 -3.88056 -0.0585628 0
M  V30 442 H 39.6817 -2.91103 -2.32572 0
M  V30 443 H 39.7947 -4.57119 -1.43455 0
M  V30 444 H 38.1587 -2.39942 -0.854409 0
M  V30 445 H 38.9417 -3.39849 0.485543 0
M  V30 446 N 41.3868 0.248026 -1.55636 0
M  V30 447 C 42.8028 0.596483 -1.48035 0
M  V30 448 C 43.0028 1.88386 -0.715039 0
M  V30 449 O 42.0588 2.51319 -0.243944 0
M  V30 450 C 43.3718 0.700258 -2.92433 0
M  V30 451 C 44.9198 0.792659 -3.02797 0
M  V30 452 C 45.3948 0.928005 -4.485 0
M  V30 453 N 46.8858 0.992903 -4.52433 0
M  V30 454 C 47.6208 1.11687 -5.62418 0
M  V30 455 N 47.1168 1.20645 -6.82214 0
M  V30 456 N 48.9098 1.14994 -5.50212 0
M  V30 457 H 41.0608 -0.597109 -2.03834 0
M  V30 458 H 43.3238 -0.205925 -0.925364 0
M  V30 459 H 43.0298 -0.175658 -3.51261 0
M  V30 460 H 42.9038 1.57255 -3.42857 0
M  V30 461 H 45.2908 1.65903 -2.4405 0
M  V30 462 H 45.3718 -0.104762 -2.55585 0
M  V30 463 H 45.0158 0.0661971 -5.07857 0
M  V30 464 H 44.9458 1.84045 -4.93391 0
M  V30 465 H 47.4368 0.935064 -3.66149 0
M  V30 466 H 47.7498 1.30008 -7.61786 0
M  V30 467 H 46.0948 1.17605 -6.84977 0
M  V30 468 H 49.2858 1.07643 -4.55555 0
M  V30 469 H 49.4588 1.24311 -6.35965 0
M  V30 470 N 42.8649 1.48995 0.513639 0
M  V30 471 C 44.0899 1.61792 1.29762 0
M  V30 472 C 44.5149 0.284475 1.85936 0
M  V30 473 O 43.8729 -0.746185 1.65232 0
M  V30 474 C 43.9209 2.67993 2.41272 0
M  V30 475 O 43.0249 2.26287 3.44772 0
M  V30 476 H 42.3659 0.541963 0.38363 0
M  V30 477 H 44.8959 1.95097 0.616307 0
M  V30 478 H 44.9059 2.89772 2.87221 0
M  V30 479 H 43.5809 3.64791 1.9975 0
M  V30 480 H 42.1579 2.14788 3.04829 0
M  V30 481 N 44.343 -0.763751 1.37857 0
M  V30 482 C 45.253 -1.90817 1.36478 0
M  V30 483 C 46.269 -1.71997 0.263248 0
M  V30 484 O 47.445 -1.95095 0.499979 0
M  V30 485 C 44.51 -3.2605 1.17864 0
M  V30 486 C 43.571 -3.57467 2.3773 0
M  V30 487 C 42.804 -4.86249 2.19995 0
M  V30 488 O 43.027 -5.57884 1.18836 0
M  V30 489 O 41.961 -5.16911 3.08361 0
M  V30 490 H 45.787 -1.94933 2.32884 0
M  V30 491 H 43.372 -0.907619 1.1867 0
M  V30 492 H 45.254 -4.06924 1.09504 0
M  V30 493 H 43.929 -3.22769 0.245372 0
M  V30 494 H 42.836 -2.76796 2.51664 0
M  V30 495 H 44.169 -3.655 3.29652 0
M  V30 496 N 45.8211 -1.22559 -0.990812 0
M  V30 497 C 46.7311 -1.01394 -2.11557 0
M  V30 498 C 47.7471 0.0383962 -1.73958 0
M  V30 499 O 48.9231 -0.154787 -2.00804 0
M  V30 500 C 45.9881 -0.596569 -3.41529 0
M  V30 501 C 45.0491 -1.72276 -3.93217 0
M  V30 502 C 44.2821 -1.32521 -5.16985 0
M  V30 503 O 44.5051 -0.204909 -5.70032 0
M  V30 504 O 43.4391 -2.14247 -5.62478 0
M  V30 505 H 47.2651 -1.95633 -2.32296 0
M  V30 506 H 44.8501 -1.01172 -1.0993 0
M  V30 507 H 46.7321 -0.374263 -4.19735 0
M  V30 508 H 45.4071 0.316939 -3.22145 0
M  V30 509 H 44.3141 -1.99961 -3.16174 0
M  V30 510 H 45.6471 -2.61421 -4.17037 0
M  V30 511 N 47.2992 1.18797 -1.03562 0
M  V30 512 C 48.5272 1.92599 -0.755869 0
M  V30 513 C 48.9422 1.75886 0.686271 0
M  V30 514 O 48.2992 1.08517 1.46732 0
M  V30 515 C 48.3502 3.44159 -1.10619 0
M  V30 516 O 48.0712 3.60341 -2.4917 0
M  V30 517 C 49.5722 4.3507 -0.850214 0
M  V30 518 H 46.7922 0.611587 -0.276048 0
M  V30 519 H 49.3362 1.50742 -1.38192 0
M  V30 520 H 47.4912 3.83823 -0.525194 0
M  V30 521 H 47.9052 4.54128 -2.62427 0
M  V30 522 H 49.3792 5.39989 -1.14523 0
M  V30 523 H 49.8562 4.38673 0.215176 0
M  V30 524 H 50.4622 4.01097 -1.41426 0
M  V30 525 N 48.7773 0.814389 1.34928 0
M  V30 526 C 49.7403 0.235759 2.27984 0
M  V30 527 C 50.7403 -0.581412 1.49921 0
M  V30 528 O 51.9303 -0.398758 1.69575 0
M  V30 529 C 49.0623 -0.670433 3.34242 0
M  V30 530 H 50.2553 1.05659 2.80671 0
M  V30 531 H 47.8083 0.585614 1.44915 0
M  V30 532 H 48.5433 -1.51466 2.86755 0
M  V30 533 H 48.3283 -0.0860822 3.92005 0
M  V30 534 H 49.8183 -1.06935 4.03676 0
M  V30 535 N 50.2554 -1.46986 0.568584 0
M  V30 536 C 51.4804 -2.07335 0.0520528 0
M  V30 537 C 51.9054 -1.41675 -1.23733 0
M  V30 538 O 51.2634 -0.495623 -1.74394 0
M  V30 539 C 51.3114 -3.60417 -0.11501 0
M  V30 540 O 50.4154 -3.95309 -1.17492 0
M  V30 541 H 49.7564 -0.661597 0.0564385 0
M  V30 542 H 52.2864 -1.88837 0.787507 0
M  V30 543 H 52.2964 -4.06698 -0.325644 0
M  V30 544 H 50.9714 -4.07601 0.826675 0
M  V30 545 H 49.5484 -3.60757 -0.943869 0
M  V30 546 N 51.7335 -0.305618 -1.54608 0
M  V30 547 C 52.6435 0.57778 -2.27374 0
M  V30 548 C 53.6595 1.14451 -1.31061 0
M  V30 549 O 54.8355 1.16831 -1.6405 0
M  V30 550 C 51.9005 1.73123 -3.00382 0
M  V30 551 C 50.9615 1.19812 -4.12242 0
M  V30 552 C 50.1945 2.2966 -4.81759 0
M  V30 553 O 50.4175 3.49651 -4.50666 0
M  V30 554 O 49.3515 1.96091 -5.69062 0
M  V30 555 H 53.1775 -0.012624 -3.03697 0
M  V30 556 H 50.7625 -0.0719184 -1.49227 0
M  V30 557 H 52.6445 2.40315 -3.4616 0
M  V30 558 H 51.3195 2.30815 -2.26949 0
M  V30 559 H 50.2265 0.491798 -3.70853 0
M  V30 560 H 51.5595 0.666566 -4.87666 0
M  V30 561 N 53.2116 1.57565 -0.0334293 0
M  V30 562 C 54.6276 1.56297 0.322997 0
M  V30 563 C 54.8276 1.03945 1.7262 0
M  V30 564 O 53.8836 0.688109 2.42943 0
M  V30 565 C 55.1966 3.00232 0.167664 0
M  V30 566 C 56.7446 3.12078 0.240107 0
M  V30 567 C 57.2196 4.57859 0.113513 0
M  V30 568 N 58.7106 4.62887 0.170359 0
M  V30 569 C 59.4456 5.73319 0.0962517 0
M  V30 570 N 58.9416 6.92794 -0.0291881 0
M  V30 571 N 60.7346 5.61898 0.150551 0
M  V30 572 H 52.8856 1.89923 -0.950956 0
M  V30 573 H 55.1486 0.873824 -0.367608 0
M  V30 574 H 54.8546 3.42501 -0.799102 0
M  V30 575 H 54.7286 3.654 0.936083 0
M  V30 576 H 57.1156 2.69718 1.19733 0
M  V30 577 H 57.1966 2.49623 -0.558763 0
M  V30 578 H 56.8406 5.009 -0.840314 0
M  V30 579 H 56.7706 5.18299 0.931302 0
M  V30 580 H 59.2616 3.76954 0.26728 0
M  V30 581 H 59.5746 7.7276 -0.0789252 0
M  V30 582 H 57.9196 6.94971 -0.0640299 0
M  V30 583 H 61.1106 4.67448 0.246981 0
M  V30 584 H 61.2836 6.47938 0.0893365 0
M  V30 585 N 54.6897 -0.239769 1.55765 0
M  V30 586 C 56.1007 -0.808263 1.68297 0
M  V30 587 C 56.4517 -1.85736 0.632181 0
M  V30 588 O 55.5767 -2.15277 -0.220204 0
M  V30 589 C 56.1717 -1.47284 3.05111 0
M  V30 590 C 54.7307 -1.98895 3.19559 0
M  V30 591 C 53.8777 -0.842575 2.64189 0
M  V30 592 H 56.8287 -0.0154422 1.58692 0
M  V30 593 H 56.8497 -2.34111 2.99954 0
M  V30 594 H 56.3617 -0.709053 3.81568 0
M  V30 595 H 54.4627 -2.78132 2.47938 0
M  V30 596 H 54.5757 -2.18143 4.26556 0
M  V30 597 H 52.9397 -1.24501 2.22197 0
M  V30 598 H 53.7227 -0.0917552 3.43177 0
M  V30 599 N 56.1678 -1.49265 -0.50573 0
M  V30 600 C 57.3928 -1.62478 -1.28902 0
M  V30 601 C 57.8178 -0.294332 -1.85783 0
M  V30 602 O 57.1758 0.737412 -1.65626 0
M  V30 603 C 57.2238 -2.69268 -2.39848 0
M  V30 604 O 56.3278 -2.28113 -3.43567 0
M  V30 605 H 55.6688 -0.54399 -0.380751 0
M  V30 606 H 58.1988 -1.95421 -0.605952 0
M  V30 607 H 58.2088 -2.91291 -2.85681 0
M  V30 608 H 56.8838 -3.65846 -1.97812 0
M  V30 609 H 55.4608 -2.16401 -3.03685 0
M  V30 610 N 57.6459 0.756429 -1.3826 0
M  V30 611 C 59.0619 1.0591 -1.19395 0
M  V30 612 C 59.2619 2.01459 -0.0406567 0
M  V30 613 O 58.3179 2.44909 0.614467 0
M  V30 614 C 59.6309 1.64191 -2.51916 0
M  V30 615 C 61.1789 1.76376 -2.58574 0
M  V30 616 C 61.6539 2.38069 -3.91264 0
M  V30 617 N 63.1449 2.45503 -3.92788 0
M  V30 618 C 63.8799 2.94126 -4.92217 0
M  V30 619 N 63.3759 3.42805 -6.02043 0
M  V30 620 N 65.1689 2.9314 -4.7961 0
M  V30 621 H 57.3199 0.122313 -2.12048 0
M  V30 622 H 59.5829 0.116892 -0.940766 0
M  V30 623 H 59.2889 1.01451 -3.3675 0
M  V30 624 H 59.1629 2.6329 -2.70108 0
M  V30 625 H 61.5499 2.38244 -1.74137 0
M  V30 626 H 61.6309 0.759894 -2.44252 0
M  V30 627 H 61.2749 1.76835 -4.76121 0
M  V30 628 H 61.2049 3.39091 -4.02895 0
M  V30 629 H 63.6959 2.1107 -3.13461 0
M  V30 630 H 64.0089 3.78354 -6.73846 0
M  V30 631 H 62.3539 3.4087 -6.05667 0
M  V30 632 H 65.5449 2.54419 -3.92923 0
M  V30 633 H 65.7179 3.30721 -5.5725 0
M  V30 634 N 59.124 1.23083 0.984299 0
M  V30 635 C 60.354 1.08556 1.75781 0
M  V30 636 C 60.762 -0.366171 1.85623 0
M  V30 637 O 60.105 -1.26524 1.33182 0
M  V30 638 C 60.167 1.63208 3.20318 0
M  V30 639 C 59.831 3.11922 3.33997 0
M  V30 640 C 60.828 4.09259 3.2063 0
M  V30 641 C 58.513 3.51552 3.58771 0
M  V30 642 C 60.507 5.4421 3.31835 0
M  V30 643 C 58.194 4.86649 3.69616 0
M  V30 644 C 59.192 5.82787 3.56157 0
M  V30 645 O 58.88 7.15431 3.66626 0
M  V30 646 H 58.612 0.380713 0.5586 0
M  V30 647 H 61.166 1.63321 1.2456 0
M  V30 648 H 59.396 1.0286 3.72769 0
M  V30 649 H 61.085 1.44216 3.79416 0
M  V30 650 H 61.851 3.79984 3.01392 0
M  V30 651 H 57.73 2.77239 3.6832 0
M  V30 652 H 61.274 6.1923 3.21247 0
M  V30 653 H 57.171 5.15601 3.88363 0
M  V30 654 H 57.939 7.23127 3.83445 0
M  V30 655 N 60.6021 -1.18246 1.0419 0
M  V30 656 C 61.8321 -1.91916 0.764961 0
M  V30 657 C 62.2401 -1.76485 -0.681898 0
M  V30 658 O 61.5831 -1.09275 -1.47664 0
M  V30 659 C 61.6451 -3.4373 1.05309 0
M  V30 660 C 61.3091 -3.8294 2.4941 0
M  V30 661 C 62.3061 -3.86621 3.47592 0
M  V30 662 C 59.9911 -4.142 2.84155 0
M  V30 663 C 61.9851 -4.21013 4.78568 0
M  V30 664 C 59.6721 -4.48262 4.15337 0
M  V30 665 C 60.6701 -4.51645 5.12353 0
M  V30 666 O 60.3581 -4.84911 6.41183 0
M  V30 667 H 60.0901 -0.61606 0.278292 0
M  V30 668 H 62.6441 -1.50947 1.39299 0
M  V30 669 H 60.8741 -3.84946 0.367933 0
M  V30 670 H 62.5631 -3.9865 0.763752 0
M  V30 671 H 63.3291 -3.62607 3.22089 0
M  V30 672 H 59.2081 -4.10743 2.09311 0
M  V30 673 H 62.7521 -4.23568 5.54289 0
M  V30 674 H 58.6491 -4.71737 4.40607 0
M  V30 675 H 59.4171 -5.02809 6.45852 0
M  V30 676 N 62.0802 -0.821533 -1.34494 0
M  V30 677 C 63.4912 -0.467956 -1.8074 0
M  V30 678 C 63.8422 1.01151 -1.68116 0
M  V30 679 O 62.9672 1.78707 -1.22036 0
M  V30 680 C 63.5622 -0.842627 -3.28154 0
M  V30 681 C 62.1212 -0.541439 -3.72485 0
M  V30 682 C 61.2682 -1.06028 -2.56229 0
M  V30 683 H 64.2192 -1.01183 -1.22261 0
M  V30 684 H 64.2402 -0.145876 -3.8022 0
M  V30 685 H 63.7522 -1.91945 -3.37311 0
M  V30 686 H 61.8532 0.526034 -3.68868 0
M  V30 687 H 61.9662 -1.08453 -4.66663 0
M  V30 688 H 60.3302 -0.481892 -2.501 0
M  V30 689 H 61.1132 -2.14352 -2.68157 0
M  V30 690 N 63.5583 1.46682 -0.576371 0
M  V30 691 C 64.7863 2.06798 -0.0649635 0
M  V30 692 C 65.2013 1.42612 1.23723 0
M  V30 693 O 64.5583 0.529203 1.74659 0
M  V30 694 C 64.6093 3.6132 0.114202 0
M  V30 695 O 64.3303 4.23104 -1.13644 0
M  V30 696 C 65.8313 4.38349 0.66069 0
M  V30 697 H 63.0513 0.668778 -0.0545616 0
M  V30 698 H 65.5953 1.88404 -0.795237 0
M  V30 699 H 63.7503 3.79162 0.794673 0
M  V30 700 H 64.1643 5.15894 -0.946253 0
M  V30 701 H 65.6383 5.47081 0.73526 0
M  V30 702 H 66.1153 4.05953 1.67627 0
M  V30 703 H 66.7213 4.25297 0.0152951 0
M  V30 704 N 65.0364 0.313813 1.54444 0
M  V30 705 C 66.2824 -0.284918 2.01395 0
M  V30 706 C 66.6374 -1.50537 1.19818 0
M  V30 707 O 65.9304 -1.89692 0.269748 0
M  V30 708 C 66.1244 -0.680386 3.50864 0
M  V30 709 C 65.9534 0.500198 4.4691 0
M  V30 710 C 64.7234 0.996248 4.95382 0
M  V30 711 C 66.9214 1.34928 4.96285 0
M  V30 712 N 64.9034 2.14226 5.75309 0
M  V30 713 C 66.2744 2.3426 5.7404 0
M  V30 714 C 68.3294 1.37818 4.78446 0
M  V30 715 C 67.0324 3.36272 6.35856 0
M  V30 716 C 69.0584 2.38695 5.4109 0
M  V30 717 C 68.4204 3.36755 6.18688 0
M  V30 718 H 64.5194 -0.0683689 0.779006 0
M  V30 719 H 67.1034 0.44664 1.89508 0
M  V30 720 H 65.2744 -1.38109 3.63016 0
M  V30 721 H 67.0064 -1.25975 3.84594 0
M  V30 722 H 63.7614 0.56912 4.70168 0
M  V30 723 H 64.1854 2.72005 6.19953 0
M  V30 724 H 68.8274 0.633747 4.18023 0
M  V30 725 H 66.5454 4.11627 6.95405 0
M  V30 726 H 70.1314 2.41721 5.29209 0
M  V30 727 H 69.0114 4.13535 6.66302 0
M  V30 728 N 66.5145 -1.57545 0.0417849 0
M  V30 729 C 67.4445 -2.14009 -0.933929 0
M  V30 730 C 68.4255 -1.05938 -1.33083 0
M  V30 731 O 69.6105 -1.33833 -1.40721 0
M  V30 732 C 66.7405 -2.67747 -2.21199 0
M  V30 733 C 65.6945 -3.80718 -1.95544 0
M  V30 734 C 65.0205 -4.20935 -3.29724 0
M  V30 735 C 66.3205 -5.06258 -1.28452 0
M  V30 736 H 68.0145 -2.95788 -0.463645 0
M  V30 737 H 65.5605 -1.42285 -0.221573 0
M  V30 738 H 67.5135 -3.05886 -2.89848 0
M  V30 739 H 66.2375 -1.83147 -2.70416 0
M  V30 740 H 64.8965 -3.43037 -1.2931 0
M  V30 741 H 64.5445 -3.33298 -3.76724 0
M  V30 742 H 64.2445 -4.9707 -3.13361 0
M  V30 743 H 65.7685 -4.61666 -3.9962 0
M  V30 744 H 67.1825 -5.41903 -1.8712 0
M  V30 745 H 65.5795 -5.87475 -1.22445 0
M  V30 746 H 66.6495 -4.84207 -0.259219 0
M  V30 747 N 67.9926 0.231505 -1.5589 0
M  V30 748 C 69.4036 0.799327 -1.68724 0
M  V30 749 C 69.7546 1.85398 -0.642022 0
M  V30 750 O 68.8796 2.1539 0.208784 0
M  V30 751 C 69.4746 1.45664 -3.05888 0
M  V30 752 C 68.0336 1.97197 -3.20609 0
M  V30 753 C 67.1806 0.828552 -2.64632 0
M  V30 754 H 70.1316 0.00702616 -1.58698 0
M  V30 755 H 70.1526 2.32517 -3.01191 0
M  V30 756 H 69.6646 0.688808 -3.81939 0
M  V30 757 H 67.7656 2.76813 -2.4941 0
M  V30 758 H 67.8786 2.15878 -4.27707 0
M  V30 759 H 66.2426 1.23321 -2.22854 0
M  V30 760 H 67.0256 0.0735544 -3.43221 0
M  V30 761 N 69.4707 1.49531 0.497807 0
M  V30 762 C 70.6957 1.63159 1.28039 0
M  V30 763 C 71.1207 0.30418 1.85624 0
M  V30 764 O 70.4787 -0.728618 1.66015 0
M  V30 765 C 70.5267 2.70537 2.38416 0
M  V30 766 O 69.6307 2.29931 3.42353 0
M  V30 767 H 68.9717 0.546001 0.377861 0
M  V30 768 H 71.5017 1.9574 0.59558 0
M  V30 769 H 71.5117 2.92802 2.84132 0
M  V30 770 H 70.1867 3.6689 1.95869 0
M  V30 771 H 68.7637 2.18009 3.02533 0
M  V30 772 N 70.9488 -0.749086 1.3866 0
M  V30 773 C 72.3648 -1.05276 1.19955 0
M  V30 774 C 72.5648 -2.01435 0.05134 0
M  V30 775 O 71.6208 -2.45232 -0.60147 0
M  V30 776 C 72.9338 -1.62853 2.52783 0
M  V30 777 C 74.4818 -1.75002 2.59506 0
M  V30 778 C 74.9568 -2.35991 3.92521 0
M  V30 779 N 76.4478 -2.43416 3.94085 0
M  V30 780 C 77.1828 -2.91511 4.9377 0
M  V30 781 N 76.6788 -3.39608 6.03853 0
M  V30 782 N 78.4718 -2.90592 4.81157 0
M  V30 783 H 70.6228 -0.111066 2.12109 0
M  V30 784 H 72.8858 -0.111901 0.941373 0
M  V30 785 H 72.5918 -0.99664 3.37283 0
M  V30 786 H 72.4658 -2.61854 2.715 0
M  V30 787 H 74.8528 -2.37317 1.75398 0
M  V30 788 H 74.9338 -0.74693 2.44652 0
M  V30 789 H 74.5778 -1.74308 4.77053 0
M  V30 790 H 74.5078 -3.3695 4.04688 0
M  V30 791 H 76.9988 -2.09405 3.14576 0
M  V30 792 H 77.3118 -3.74775 6.75843 0
M  V30 793 H 75.6568 -3.37653 6.07466 0
M  V30 794 H 78.8478 -2.52332 3.94267 0
M  V30 795 H 79.0208 -3.27762 5.58996 0
M  V30 796 N 72.4269 -1.23603 -0.977757 0
M  V30 797 C 73.6519 -1.09735 -1.75991 0
M  V30 798 C 74.0769 0.346858 -1.84874 0
M  V30 799 O 73.4349 1.25093 -1.3123 0
M  V30 800 C 73.4829 -1.73051 -3.16363 0
M  V30 801 O 72.5869 -0.994452 -4.0023 0
M  V30 802 H 71.9279 -0.384476 -0.541364 0
M  V30 803 H 74.4579 -1.6371 -1.2272 0
M  V30 804 H 74.4679 -1.78398 -3.66931 0
M  V30 805 H 73.1429 -2.78137 -3.09213 0
M  V30 806 H 71.7199 -1.01812 -3.58732 0
M  V30 807 N 73.905 1.17692 -1.04816 0
M  V30 808 C 75.152 1.87859 -0.75599 0
M  V30 809 C 75.48 1.80812 0.716752 0
M  V30 810 O 74.735 1.20819 1.53952 0
M  V30 811 C 75.034 3.37462 -1.17703 0
M  V30 812 C 74.7 3.64713 -2.65133 0
M  V30 813 C 73.362 3.71859 -3.05408 0
M  V30 814 C 75.714 3.76492 -3.60421 0
M  V30 815 C 73.042 3.88271 -4.39843 0
M  V30 816 C 75.394 3.94421 -4.94585 0
M  V30 817 C 74.058 3.99806 -5.3452 0
M  V30 818 H 73.328 0.687425 -0.276636 0
M  V30 819 H 75.975 1.39255 -1.31455 0
M  V30 820 H 74.28 3.88097 -0.537395 0
M  V30 821 H 75.977 3.90109 -0.928218 0
M  V30 822 H 72.567 3.59772 -2.32942 0
M  V30 823 H 76.751 3.70295 -3.30447 0
M  V30 824 H 72.007 3.90687 -4.70291 0
M  V30 825 H 76.181 4.02477 -5.68318 0
M  V30 826 H 73.808 4.12276 -6.38696 0
M  V30 827 N 75.3831 0.828654 1.34056 0
M  V30 828 C 76.6321 0.415828 1.97367 0
M  V30 829 C 76.9451 -1.02796 1.6641 0
M  V30 830 O 78.1511 -1.54497 2.23255 0
M  V30 831 C 76.6071 0.692601 3.53173 0
M  V30 832 C 76.2151 2.15038 3.93017 0
M  V30 833 C 77.9591 0.346222 4.23086 0
M  V30 834 C 75.8661 2.37174 5.41758 0
M  V30 835 H 74.7961 0.151755 0.738571 0
M  V30 836 H 77.4471 1.01581 1.52819 0
M  V30 837 H 75.8291 0.0223764 3.95994 0
M  V30 838 H 77.0031 2.86024 3.61285 0
M  V30 839 H 75.3181 2.45875 3.36057 0
M  V30 840 H 77.9151 0.48937 5.32456 0
M  V30 841 H 78.2581 -0.709842 4.10204 0
M  V30 842 H 78.7911 0.971258 3.85761 0
M  V30 843 H 75.5301 3.41308 5.59633 0
M  V30 844 H 75.0501 1.70738 5.74986 0
M  V30 845 H 76.7291 2.19818 6.08514 0
M  V30 846 N 76.8612 -1.46375 0.584142 0
M  V30 847 C 77.8242 -2.28784 -0.138108 0
M  V30 848 C 78.8242 -1.38471 -0.817462 0
M  V30 849 O 80.0142 -1.60833 -0.669199 0
M  V30 850 C 77.1462 -3.18892 -1.20503 0
M  V30 851 H 78.3392 -2.94117 0.586127 0
M  V30 852 H 75.8922 -1.52509 0.342171 0
M  V30 853 H 76.6272 -2.58309 -1.96079 0
M  V30 854 H 76.4122 -3.85388 -0.722384 0
M  V30 855 H 77.9022 -3.80914 -1.71155 0
M  V30 856 N 78.3393 -0.321999 -1.54275 0
M  V30 857 C 79.3023 0.531975 -2.22941 0
M  V30 858 C 80.3023 1.04478 -1.22234 0
M  V30 859 O 81.4923 0.937452 -1.46825 0
M  V30 860 C 78.6243 1.73874 -2.93224 0
M  V30 861 H 79.8173 -0.0682612 -2.99822 0
M  V30 862 H 77.3703 -0.0730644 -1.56129 0
M  V30 863 H 78.1053 2.37825 -2.20476 0
M  V30 864 H 77.8903 1.37847 -3.6707 0
M  V30 865 H 79.3803 2.34496 -3.45545 0
M  V30 866 N 79.8174 1.5752 -0.0501392 0
M  V30 867 C 81.0634 1.92936 0.624798 0
M  V30 868 C 81.3964 0.928685 1.70555 0
M  V30 869 O 80.6714 -0.0454779 1.94447 0
M  V30 870 C 80.9544 3.38737 1.22185 0
M  V30 871 C 80.8074 4.49552 0.149218 0
M  V30 872 C 82.1264 3.84913 2.13378 0
M  V30 873 H 79.2454 0.701604 0.225657 0
M  V30 874 H 81.8874 1.89671 -0.111693 0
M  V30 875 H 80.0374 3.4165 1.84953 0
M  V30 876 H 81.7094 4.58768 -0.482648 0
M  V30 877 H 79.9524 4.30638 -0.522841 0
M  V30 878 H 80.6234 5.48653 0.606966 0
M  V30 879 H 83.0994 3.8387 1.60572 0
M  V30 880 H 81.9754 4.87584 2.52097 0
M  V30 881 H 82.2364 3.21611 3.03346 0
M  V30 882 N 81.2955 -0.223234 1.56011 0
M  V30 883 C 82.5445 -0.945912 1.78144 0
M  V30 884 C 82.8575 -1.85567 0.618396 0
M  V30 885 O 84.0635 -2.61688 0.723318 0
M  V30 886 C 82.5195 -1.73216 3.15475 0
M  V30 887 C 82.1275 -0.868619 4.39499 0
M  V30 888 C 83.8715 -2.44615 3.46935 0
M  V30 889 C 81.7785 -1.65212 5.67855 0
M  V30 890 H 80.7085 -0.356929 0.664167 0
M  V30 891 H 83.3595 -0.199845 1.82409 0
M  V30 892 H 81.7415 -2.52107 3.05382 0
M  V30 893 H 82.9155 -0.120366 4.60643 0
M  V30 894 H 81.2305 -0.26683 4.15544 0
M  V30 895 H 83.8275 -3.03732 4.40058 0
M  V30 896 H 84.1705 -3.17417 2.69355 0
M  V30 897 H 84.7035 -1.72715 3.58349 0
M  V30 898 H 81.4425 -0.967407 6.48322 0
M  V30 899 H 80.9625 -2.37503 5.50774 0
M  V30 900 H 82.6415 -2.21322 6.07968 0
M  V30 901 N 82.7736 -1.49793 -0.48987 0
M  V30 902 C 83.7366 -1.66752 -1.57246 0
M  V30 903 C 84.7366 -0.538867 -1.51502 0
M  V30 904 O 85.9266 -0.805545 -1.54456 0
M  V30 905 C 83.0586 -1.67528 -2.96896 0
M  V30 906 H 84.2516 -2.63321 -1.43534 0
M  V30 907 H 81.8046 -1.38992 -0.714914 0
M  V30 908 H 82.5396 -0.725837 -3.16073 0
M  V30 909 H 82.3246 -2.49504 -3.02473 0
M  V30 910 H 83.8146 -1.82667 -3.7553 0
M  V30 911 N 84.2517 0.741722 -1.39055 0
M  V30 912 C 85.5007 1.49656 -1.35225 0
M  V30 913 C 85.8137 1.95533 0.0512708 0
M  V30 914 O 87.0197 2.7067 0.212138 0
M  V30 915 C 85.4757 2.70389 -2.37525 0
M  V30 916 C 85.0837 2.31489 -3.83558 0
M  V30 917 C 86.8277 3.48236 -2.42759 0
M  V30 918 C 84.7347 3.48903 -4.77515 0
M  V30 919 H 83.6647 0.56197 -0.502699 0
M  V30 920 H 86.3157 0.809727 -1.64668 0
M  V30 921 H 84.6977 3.41113 -2.01142 0
M  V30 922 H 85.8717 1.68354 -4.28945 0
M  V30 923 H 84.1867 1.66749 -3.81554 0
M  V30 924 H 86.7837 4.35558 -3.1015 0
M  V30 925 H 87.1267 3.90229 -1.45008 0
M  V30 926 H 87.6597 2.84535 -2.78002 0
M  V30 927 H 84.3987 3.11966 -5.76504 0
M  V30 928 H 83.9187 4.11041 -4.36813 0
M  V30 929 H 85.5977 4.15328 -4.96096 0
M  V30 930 N 85.7298 1.2412 0.971189 0
M  V30 931 C 86.9778 1.07668 1.71032 0
M  V30 932 C 87.2988 -0.385797 1.91146 0
M  V30 933 O 86.5688 -1.27569 1.4867 0
M  V30 934 H 85.1488 0.395429 0.633755 0
M  V30 935 H 87.8108 1.55984 1.16855 0
M  V30 936 H 86.9068 1.57195 2.69622 0
M  V30 937 N 87.2079 -1.17134 1.05439 0
M  V30 938 C 88.4559 -1.87085 0.764429 0
M  V30 939 C 88.7769 -1.81584 -0.710787 0
M  V30 940 O 88.0469 -1.24349 -1.51374 0
M  V30 941 H 86.6269 -0.692627 0.279779 0
M  V30 942 H 89.2889 -1.42087 1.33406 0
M  V30 943 H 88.3849 -2.92759 1.0816 0
M  V30 944 N 88.686 -0.835752 -1.33615 0
M  V30 945 C 89.619 -0.211815 -2.27215 0
M  V30 946 C 90.597 0.639249 -1.49507 0
M  V30 947 O 91.781 0.600193 -1.78689 0
M  V30 948 C 88.908 0.702893 -3.31326 0
M  V30 949 C 87.954 -0.0723049 -4.26439 0
M  V30 950 S 88.787 -1.42811 -5.16106 0
M  V30 951 C 89.943 -0.518613 -6.23748 0
M  V30 952 H 90.176 -1.00533 -2.79786 0
M  V30 953 H 87.709 -0.632336 -1.40858 0
M  V30 954 H 89.667 1.22505 -3.91794 0
M  V30 955 H 88.328 1.47004 -2.77576 0
M  V30 956 H 87.521 0.62359 -5.00127 0
M  V30 957 H 87.123 -0.525424 -3.70291 0
M  V30 958 H 89.415 0.284778 -6.76901 0
M  V30 959 H 90.358 -1.22556 -6.97413 0
M  V30 960 H 90.766 -0.101344 -5.64409 0
M  V30 961 N 90.1641 1.46063 -0.591896 0
M  V30 962 C 91.0961 2.28539 0.174001 0
M  V30 963 C 92.1091 1.39047 0.846753 0
M  V30 964 O 93.2981 1.63564 0.714774 0
M  V30 965 C 90.3981 3.14347 1.26645 0
M  V30 966 C 89.5711 4.32021 0.683856 0
M  V30 967 C 88.6301 4.99157 1.66518 0
M  V30 968 O 87.6561 5.56458 1.19763 0
M  V30 969 N 88.8581 4.97005 2.99943 0
M  V30 970 H 91.6231 2.94911 -0.533633 0
M  V30 971 H 89.1841 1.56077 -0.430294 0
M  V30 972 H 91.1761 3.56125 1.92242 0
M  V30 973 H 89.7461 2.49988 1.87682 0
M  V30 974 H 88.9661 3.93915 -0.1498 0
M  V30 975 H 90.2541 5.08059 0.274567 0
M  V30 976 H 89.6521 4.51714 3.40545 0
M  V30 977 H 88.2091 5.42696 3.61004 0
M  V30 978 N 91.6422 0.330177 1.54103 0
M  V30 979 C 92.5722 -0.525353 2.27513 0
M  V30 980 C 93.5532 -1.11383 1.2856 0
M  V30 981 O 94.7382 -1.13773 1.57383 0
M  V30 982 C 91.8682 -1.6831 3.03791 0
M  V30 983 C 90.8222 -1.2236 4.10137 0
M  V30 984 C 90.1482 -2.46882 4.74293 0
M  V30 985 C 91.4482 -0.333697 5.21233 0
M  V30 986 H 93.1422 0.087013 2.99274 0
M  V30 987 H 90.6882 0.0432893 1.43935 0
M  V30 988 H 92.6412 -2.28795 3.5388 0
M  V30 989 H 91.3652 -2.32216 2.29659 0
M  V30 990 H 90.0242 -0.64165 3.60941 0
M  V30 991 H 89.6722 -3.09165 3.96769 0
M  V30 992 H 89.3722 -2.16825 5.46133 0
M  V30 993 H 90.8962 -3.08117 5.27159 0
M  V30 994 H 92.3102 -0.845013 5.67038 0
M  V30 995 H 90.7072 -0.125612 5.99969 0
M  V30 996 H 91.7772 0.633724 4.80741 0
M  V30 997 N 93.1203 -1.57491 0.0584922 0
M  V30 998 C 94.0503 -2.14988 -0.911178 0
M  V30 999 C 95.0313 -1.07343 -1.31952 0
M  V30 1000 O 96.2163 -1.35318 -1.39294 0
M  V30 1001 C 93.3463 -2.70078 -2.18347 0
M  V30 1002 C 92.3003 -3.82771 -1.91495 0
M  V30 1003 C 91.6263 -4.24408 -3.25241 0
M  V30 1004 C 92.9263 -5.07592 -1.23075 0
M  V30 1005 H 94.6203 -2.96263 -0.432246 0
M  V30 1006 H 92.1663 -1.42512 -0.206469 0
M  V30 1007 H 94.1193 -3.08943 -2.86587 0
M  V30 1008 H 92.8433 -1.86005 -2.68458 0
M  V30 1009 H 91.5023 -3.44389 -1.25664 0
M  V30 1010 H 91.1503 -3.37275 -3.73168 0
M  V30 1011 H 90.8503 -5.00366 -3.08071 0
M  V30 1012 H 92.3743 -4.65879 -3.94701 0
M  V30 1013 H 93.7883 -5.43857 -1.81362 0
M  V30 1014 H 92.1853 -5.88741 -1.16207 0
M  V30 1015 H 93.2553 -4.84454 -0.207847 0
M  V30 1016 N 94.5984 0.214957 -1.56127 0
M  V30 1017 C 95.5614 1.24997 -1.92116 0
M  V30 1018 C 96.5614 1.39467 -0.800344 0
M  V30 1019 O 97.7514 1.37619 -1.06802 0
M  V30 1020 C 94.8834 2.62271 -2.17777 0
M  V30 1021 H 96.0764 0.942875 -2.84693 0
M  V30 1022 H 93.6294 0.455654 -1.49511 0
M  V30 1023 H 94.3644 2.98068 -1.27773 0
M  V30 1024 H 94.1494 2.53143 -2.99434 0
M  V30 1025 H 95.6394 3.36946 -2.46693 0
M  V30 1026 N 96.0765 1.50051 0.48192 0
M  V30 1027 C 97.3045 1.64237 1.25832 0
M  V30 1028 C 97.7195 0.321336 1.86045 0
M  V30 1029 O 97.0765 -0.695478 1.68729 0
M  V30 1030 C 97.1275 2.72548 2.37487 0
M  V30 1031 O 96.8485 3.99529 1.79745 0
M  V30 1032 C 98.3495 2.9761 3.28547 0
M  V30 1033 H 95.5695 0.55237 0.380957 0
M  V30 1034 H 98.1135 1.96207 0.576467 0
M  V30 1035 H 96.2685 2.43303 3.01467 0
M  V30 1036 H 96.6825 4.59342 2.5319 0
M  V30 1037 H 98.1565 3.77084 4.03127 0
M  V30 1038 H 98.6335 2.0826 3.86684 0
M  V30 1039 H 99.2395 3.28345 2.70314 0
M  V30 1040 N 97.5546 -0.734337 1.39446 0
M  V30 1041 C 98.4876 -1.85715 1.32609 0
M  V30 1042 C 99.4656 -1.6137 0.199636 0
M  V30 1043 O 100.65 -1.84626 0.380195 0
M  V30 1044 C 97.7766 -3.21709 1.05929 0
M  V30 1045 C 96.8226 -3.64913 2.20773 0
M  V30 1046 S 97.6556 -3.74203 3.83056 0
M  V30 1047 C 98.8116 -5.12986 3.58603 0
M  V30 1048 H 99.0446 -1.91232 2.27635 0
M  V30 1049 H 96.5776 -0.899263 1.25509 0
M  V30 1050 H 98.5356 -4.00236 0.912203 0
M  V30 1051 H 97.1966 -3.13848 0.125883 0
M  V30 1052 H 96.3896 -4.63606 1.97699 0
M  V30 1053 H 95.9916 -2.93593 2.31688 0
M  V30 1054 H 98.2836 -5.99339 3.15909 0
M  V30 1055 H 99.2266 -5.41088 4.5676 0
M  V30 1056 H 99.6346 -4.82694 2.9269 0
M  V30 1057 N 99.0327 -1.24633 -0.964593 0
M  V30 1058 C 100.31 -0.995809 -1.68354 0
M  V30 1059 C 100.69 0.480964 -2.05548 0
M  V30 1060 O 100.038 1.45599 -1.76105 0
M  V30 1061 C 100.248 -1.92177 -2.91323 0
M  V30 1062 C 101.596 -2.19446 -3.63495 0
M  V30 1063 O 102.62 -1.89855 -3.01386 0
M  V30 1064 O 101.479 -2.69714 -4.75307 0
M  V30 1065 H 98.5727 -0.376854 -0.736146 0
M  V30 1066 H 101.119 -1.35745 -1.0184 0
M  V30 1067 H 99.8907 -2.91938 -2.60553 0
M  V30 1068 H 99.5137 -1.56349 -3.65569 0
M  V30 1069 N 100.511 1.16574 -1.06058 0
M  V30 1070 C 101.736 1.91493 -0.796562 0
M  V30 1071 C 102.161 1.76773 0.642868 0
M  V30 1072 O 101.519 1.09142 1.44768 0
M  V30 1073 C 101.567 3.40293 -1.19303 0
M  V30 1074 O 100.671 4.11074 -0.330394 0
M  V30 1075 H 100.012 0.596678 -0.291326 0
M  V30 1076 H 102.542 1.47708 -1.41575 0
M  V30 1077 H 102.552 3.91057 -1.16356 0
M  V30 1078 H 101.227 3.50326 -2.24153 0
M  V30 1079 H 99.8038 3.70513 -0.421225 0
M  V30 1080 N 101.989 0.842826 1.3317 0
M  V30 1081 C 103.217 0.454055 2.01856 0
M  V30 1082 C 103.632 -0.94587 1.63397 0
M  V30 1083 O 102.989 -1.61534 0.849302 0
M  V30 1084 C 103.04 0.569715 3.56982 0
M  V30 1085 O 102.761 1.91448 3.94055 0
M  V30 1086 C 104.262 0.178412 4.42941 0
M  V30 1087 H 101.482 0.17979 0.646465 0
M  V30 1088 H 104.026 1.1365 1.70012 0
M  V30 1089 H 102.181 -0.0648587 3.87346 0
M  V30 1090 H 102.595 1.90282 4.88767 0
M  V30 1091 H 104.069 0.310376 5.51127 0
M  V30 1092 H 104.546 -0.880056 4.30293 0
M  V30 1093 H 105.152 0.787579 4.17944 0
M  V30 1094 N 103.467 -1.45747 0.599634 0
M  V30 1095 C 104.713 -2.02592 0.0918643 0
M  V30 1096 C 105.046 -1.46806 -1.27128 0
M  V30 1097 O 104.321 -0.639658 -1.83681 0
M  V30 1098 C 104.604 -3.60073 0.0443398 0
M  V30 1099 C 104.457 -4.26208 1.43759 0
M  V30 1100 C 105.776 -4.35309 -0.647608 0
M  V30 1101 H 102.895 -0.736175 0.034857 0
M  V30 1102 H 105.537 -1.73694 0.770081 0
M  V30 1103 H 103.687 -3.84823 -0.533224 0
M  V30 1104 H 105.359 -4.12668 2.06162 0
M  V30 1105 H 103.602 -3.84916 2.00056 0
M  V30 1106 H 104.273 -5.35069 1.35665 0
M  V30 1107 H 106.749 -4.15805 -0.156776 0
M  V30 1108 H 105.625 -5.45038 -0.649942 0
M  V30 1109 H 105.886 -4.07598 -1.71219 0
M  V30 1110 N 104.945 -0.338344 -1.53925 0
M  V30 1111 C 105.908 0.508299 -2.23493 0
M  V30 1112 C 106.908 1.03175 -1.23335 0
M  V30 1113 O 108.098 0.921826 -1.47811 0
M  V30 1114 C 105.23 1.70754 -2.95052 0
M  V30 1115 H 106.423 -0.100058 -2.99733 0
M  V30 1116 H 103.976 -0.0896198 -1.56043 0
M  V30 1117 H 104.711 2.35474 -2.22986 0
M  V30 1118 H 104.496 1.33946 -3.68512 0
M  V30 1119 H 105.986 2.30818 -3.48013 0
M  V30 1120 N 106.423 1.57458 -0.0668435 0
M  V30 1121 C 107.672 1.92477 0.602947 0
M  V30 1122 C 107.985 0.948419 1.71068 0
M  V30 1123 O 109.191 1.19124 2.43971 0
M  V30 1124 C 107.647 3.41903 1.12383 0
M  V30 1125 C 107.255 4.47975 0.04737 0
M  V30 1126 C 108.999 3.85931 1.76797 0
M  V30 1127 C 106.906 5.88529 0.582022 0
M  V30 1128 H 105.836 0.718387 0.22899 0
M  V30 1129 H 108.487 1.82978 -0.138276 0
M  V30 1130 H 106.869 3.46459 1.91787 0
M  V30 1131 H 108.043 4.55029 -0.726978 0
M  V30 1132 H 106.358 4.13384 -0.500243 0
M  V30 1133 H 108.955 4.88322 2.17821 0
M  V30 1134 H 109.298 3.23029 2.62599 0
M  V30 1135 H 109.831 3.83958 1.04024 0
M  V30 1136 H 106.57 6.55065 -0.238721 0
M  V30 1137 H 106.09 5.85004 1.324 0
M  V30 1138 H 107.769 6.38258 1.05999 0
M  V30 1139 N 107.901 -0.206675 1.56239 0
M  V30 1140 C 109.147 -0.930218 1.80208 0
M  V30 1141 C 109.48 -1.83387 0.638981 0
M  V30 1142 O 108.755 -1.91119 -0.361066 0
M  V30 1143 C 109.038 -1.75641 3.1436 0
M  V30 1144 C 108.891 -0.878257 4.41142 0
M  V30 1145 C 110.21 -2.73129 3.45092 0
M  V30 1146 H 107.329 -0.336742 0.655571 0
M  V30 1147 H 109.971 -0.198222 1.88963 0
M  V30 1148 H 108.121 -2.38048 3.07027 0
M  V30 1149 H 109.793 -0.269787 4.6051 0
M  V30 1150 H 108.036 -0.184385 4.33408 0
M  V30 1151 H 108.707 -1.49106 5.3148 0
M  V30 1152 H 111.183 -2.20856 3.52649 0
M  V30 1153 H 110.059 -3.28028 4.40101 0
M  V30 1154 H 110.32 -3.51606 2.68003 0
M  V30 1155 N 109.379 -1.50304 -0.473955 0
M  V30 1156 C 110.342 -1.6841 -1.55469 0
M  V30 1157 C 111.342 -0.554905 -1.50922 0
M  V30 1158 O 112.532 -0.821882 -1.53593 0
M  V30 1159 C 109.664 -1.70667 -2.95102 0
M  V30 1160 H 110.857 -2.64828 -1.40733 0
M  V30 1161 H 108.41 -1.39742 -0.700132 0
M  V30 1162 H 109.145 -0.75932 -3.15285 0
M  V30 1163 H 108.93 -2.52698 -2.9981 0
M  V30 1164 H 110.42 -1.8664 -3.73571 0
M  V30 1165 N 110.857 0.726932 -1.39834 0
M  V30 1166 C 111.787 1.85405 -1.41941 0
M  V30 1167 C 112.768 1.67751 -0.281728 0
M  V30 1168 O 113.953 1.8795 -0.488717 0
M  V30 1169 C 111.083 3.23243 -1.2701 0
M  V30 1170 C 110.037 3.55549 -2.38262 0
M  V30 1171 C 109.363 4.9241 -2.08415 0
M  V30 1172 C 110.663 3.577 -3.80589 0
M  V30 1173 H 112.357 1.83899 -2.36266 0
M  V30 1174 H 109.903 0.883349 -1.13723 0
M  V30 1175 H 111.856 4.01775 -1.27103 0
M  V30 1176 H 110.58 3.25296 -0.291564 0
M  V30 1177 H 109.239 2.79351 -2.37399 0
M  V30 1178 H 108.887 4.91052 -1.0898 0
M  V30 1179 H 108.587 5.14992 -2.82943 0
M  V30 1180 H 110.111 5.73289 -2.10171 0
M  V30 1181 H 111.525 4.26293 -3.83337 0
M  V30 1182 H 109.922 3.91804 -4.54543 0
M  V30 1183 H 110.992 2.57328 -4.10987 0
M  V30 1184 N 112.336 1.25143 0.95797 0
M  V30 1185 C 113.747 1.08851 1.51685 0
M  V30 1186 C 114.098 -0.33687 1.93286 0
M  V30 1187 O 113.223 -1.22644 1.7829 0
M  V30 1188 C 113.818 1.96978 2.75654 0
M  V30 1189 C 112.377 1.84881 3.27866 0
M  V30 1190 C 111.524 1.91329 2.0072 0
M  V30 1191 H 114.475 1.38478 0.77522 0
M  V30 1192 H 114.496 1.5078 3.4935 0
M  V30 1193 H 114.008 3.00712 2.45345 0
M  V30 1194 H 112.109 0.840182 3.63004 0
M  V30 1195 H 112.222 2.6951 3.96107 0
M  V30 1196 H 110.586 1.35174 2.15871 0
M  V30 1197 H 111.369 2.96661 1.72764 0
M  V30 1198 N 113.814 -1.1601 1.06675 0
M  V30 1199 C 114.761 -2.20525 0.680967 0
M  V30 1200 C 115.731 -1.62904 -0.324283 0
M  V30 1201 O 116.916 -1.89615 -0.212294 0
M  V30 1202 C 114.056 -3.45013 0.0776551 0
M  V30 1203 C 113.169 -4.16863 1.13355 0
M  V30 1204 C 112.304 -5.2888 0.49597 0
M  V30 1205 C 111.343 -5.92537 1.53513 0
M  V30 1206 N 110.48 -6.96038 0.920631 0
M  V30 1207 H 115.32 -2.52876 1.57663 0
M  V30 1208 H 112.857 -1.24199 0.788223 0
M  V30 1209 H 114.815 -4.16193 -0.289704 0
M  V30 1210 H 113.445 -3.132 -0.781393 0
M  V30 1211 H 112.497 -3.44248 1.61857 0
M  V30 1212 H 113.809 -4.60294 1.92174 0
M  V30 1213 H 112.963 -6.06653 0.0758604 0
M  V30 1214 H 111.702 -4.86622 -0.324062 0
M  V30 1215 H 110.707 -5.13482 1.9651 0
M  V30 1216 H 111.932 -6.36873 2.35733 0
M  V30 1217 H 109.878 -6.55888 0.12138 0
M  V30 1218 H 109.795 -7.3786 1.64616 0
M  V30 1219 H 111.063 -7.77725 0.525795 0
M  V30 1220 N 115.292 -0.849877 -1.32721 0
M  V30 1221 C 116.541 -0.447175 -1.96681 0
M  V30 1222 C 116.854 1.00135 -1.68025 0
M  V30 1223 O 118.06 1.50926 -2.25685 0
M  V30 1224 C 116.516 -0.7487 -3.52026 0
M  V30 1225 C 116.124 -2.21264 -3.89546 0
M  V30 1226 C 117.868 -0.413487 -4.22481 0
M  V30 1227 C 115.775 -2.45763 -5.37917 0
M  V30 1228 H 114.705 -0.163486 -0.736063 0
M  V30 1229 H 117.356 -1.03999 -1.51183 0
M  V30 1230 H 115.738 -0.0853727 -3.95908 0
M  V30 1231 H 116.912 -2.91736 -3.56689 0
M  V30 1232 H 115.227 -2.5119 -3.32103 0
M  V30 1233 H 117.824 -0.574017 -5.3161 0
M  V30 1234 H 118.167 0.644492 -4.11281 0
M  V30 1235 H 118.7 -1.03251 -3.84167 0
M  V30 1236 H 115.439 -3.50168 -5.54132 0
M  V30 1237 H 114.959 -1.79864 -5.72197 0
M  V30 1238 H 116.638 -2.29471 -6.0494 0
M  V30 1239 N 116.77 1.45427 -0.607355 0
M  V30 1240 C 117.702 2.2871 0.149752 0
M  V30 1241 C 118.715 1.39937 0.831958 0
M  V30 1242 O 119.904 1.64313 0.697385 0
M  V30 1243 C 117.004 3.15673 1.23304 0
M  V30 1244 C 116.177 4.32722 0.637996 0
M  V30 1245 C 115.236 5.00895 1.61215 0
M  V30 1246 O 114.262 5.57697 1.13854 0
M  V30 1247 N 115.464 5.00159 2.94655 0
M  V30 1248 H 118.229 2.94328 -0.564882 0
M  V30 1249 H 115.79 1.55612 -0.446823 0
M  V30 1250 H 117.782 3.58144 1.88454 0
M  V30 1251 H 116.352 2.51965 1.8502 0
M  V30 1252 H 115.572 3.93734 -0.191572 0
M  V30 1253 H 116.86 5.08321 0.220665 0
M  V30 1254 H 116.258 4.553 3.35735 0
M  V30 1255 H 114.815 5.46495 3.55228 0
M  V30 1256 N 118.248 0.346503 1.53744 0
M  V30 1257 C 119.196 -0.52422 2.26616 0
M  V30 1258 C 120.19 -1.09948 1.28871 0
M  V30 1259 O 121.396 -1.04488 1.46568 0
M  V30 1260 H 117.771 -0.187743 0.728187 0
M  V30 1261 H 119.742 0.11239 2.98188 0
M  V30 1262 C 118.491 -1.66186 3.05414 0
M  V30 1263 H 117.814 -1.22848 3.80458 0
M  V30 1264 H 119.254 -2.24622 3.59612 0
M  V30 1265 C 117.713 -2.59302 2.1509 0
M  V30 1266 O 118.243 -3.61628 1.74895 0
M  V30 1267 N 116.449 -2.28055 1.8011 0
M  V30 1268 H 115.996 -1.44883 2.12994 0
M  V30 1269 H 115.954 -2.90615 1.19958 0
M  V30 1270 N 119.726 -1.57421 0.075193 0
M  V30 1271 C 120.636 -2.1642 -0.905511 0
M  V30 1272 C 121.652 -1.12828 -1.32461 0
M  V30 1273 O 122.828 -1.45109 -1.39661 0
M  V30 1274 C 119.893 -2.71693 -2.15369 0
M  V30 1275 C 118.954 -3.90171 -1.79068 0
M  V30 1276 C 118.187 -4.42798 -2.97936 0
M  V30 1277 O 118.41 -3.94416 -4.12058 0
M  V30 1278 O 117.344 -5.34085 -2.77555 0
M  V30 1279 H 121.17 -3.00588 -0.433626 0
M  V30 1280 H 118.755 -1.48664 -0.148067 0
M  V30 1281 H 120.637 -3.07104 -2.88557 0
M  V30 1282 H 119.312 -1.90582 -2.61649 0
M  V30 1283 H 118.219 -3.59606 -1.03122 0
M  V30 1284 H 119.552 -4.72584 -1.37569 0
M  V30 1285 N 121.204 0.198386 -1.56346 0
M  V30 1286 C 122.134 1.24865 -1.9731 0
M  V30 1287 C 123.115 1.47651 -0.844576 0
M  V30 1288 O 124.3 1.59444 -1.10866 0
M  V30 1289 C 121.43 2.59358 -2.30977 0
M  V30 1290 C 120.384 2.5119 -3.46537 0
M  V30 1291 C 119.71 3.89926 -3.65871 0
M  V30 1292 C 121.01 2.03977 -4.80823 0
M  V30 1293 H 122.704 0.908252 -2.85291 0
M  V30 1294 H 120.25 0.435462 -1.37258 0
M  V30 1295 H 122.203 3.33011 -2.58228 0
M  V30 1296 H 120.927 2.95132 -1.39874 0
M  V30 1297 H 119.586 1.79993 -3.19371 0
M  V30 1298 H 119.234 4.23046 -2.72105 0
M  V30 1299 H 118.934 3.85336 -4.4361 0
M  V30 1300 H 120.458 4.65205 -3.95495 0
M  V30 1301 H 121.872 2.67386 -5.07127 0
M  V30 1302 H 120.269 2.10397 -5.62008 0
M  V30 1303 H 121.339 0.992861 -4.74626 0
M  V30 1304 N 122.682 1.50554 0.465978 0
M  V30 1305 C 123.907 1.65838 1.24549 0
M  V30 1306 C 124.332 0.343486 1.84937 0
M  V30 1307 O 123.69 -0.69324 1.67523 0
M  V30 1308 C 123.738 2.75533 2.32624 0
M  V30 1309 O 122.842 2.37142 3.37398 0
M  V30 1310 H 122.183 0.553893 0.366194 0
M  V30 1311 H 124.713 1.96959 0.553927 0
M  V30 1312 H 124.723 2.98763 2.77857 0
M  V30 1313 H 123.398 3.70962 1.88043 0
M  V30 1314 H 121.975 2.24377 2.97841 0
M  V30 1315 N 124.16 -0.719506 1.40217 0
M  V30 1316 C 125.09 -1.8465 1.42922 0
M  V30 1317 C 126.071 -1.67599 0.29062 0
M  V30 1318 O 127.256 -1.87688 0.498677 0
M  V30 1319 C 124.386 -3.22565 1.28722 0
M  V30 1320 C 123.34 -3.54281 2.40144 0
M  V30 1321 C 122.666 -4.91298 2.11023 0
M  V30 1322 C 123.966 -3.55676 3.82481 0
M  V30 1323 H 125.66 -1.82644 2.37237 0
M  V30 1324 H 123.206 -0.877305 1.1419 0
M  V30 1325 H 125.159 -4.01095 1.29232 0
M  V30 1326 H 123.883 -3.25137 0.308811 0
M  V30 1327 H 122.542 -2.78088 2.38877 0
M  V30 1328 H 122.19 -4.90468 1.11582 0
M  V30 1329 H 121.89 -5.13485 2.8567 0
M  V30 1330 H 123.414 -5.72166 2.13209 0
M  V30 1331 H 124.828 -4.24254 3.85592 0
M  V30 1332 H 123.225 -3.89388 4.56614 0
M  V30 1333 H 124.295 -2.55144 4.12346 0
M  V30 1334 N 125.638 -1.25649 -0.95132 0
M  V30 1335 C 126.863 -1.13443 -1.73624 0
M  V30 1336 C 127.288 0.307565 -1.85568 0
M  V30 1337 O 126.646 1.22282 -1.33854 0
M  V30 1338 C 126.694 -1.79723 -3.12621 0
M  V30 1339 O 125.798 -1.07912 -3.98031 0
M  V30 1340 H 125.139 -0.395872 -0.533086 0
M  V30 1341 H 127.669 -1.66276 -1.1922 0
M  V30 1342 H 127.679 -1.86141 -3.63064 0
M  V30 1343 H 126.354 -2.84633 -3.03244 0
M  V30 1344 H 124.931 -1.09398 -3.56492 0
M  V30 1345 N 127.117 1.15442 -1.07289 0
M  V30 1346 C 128.394 1.82306 -0.708792 0
M  V30 1347 C 128.774 1.94991 0.808807 0
M  V30 1348 O 128.122 1.50085 1.72298 0
M  V30 1349 C 128.332 3.18695 -1.42247 0
M  V30 1350 C 129.68 3.94341 -1.57417 0
M  V30 1351 O 130.704 3.28247 -1.38319 0
M  V30 1352 O 129.563 5.12839 -1.88834 0
M  V30 1353 H 126.657 0.787628 -0.252132 0
M  V30 1354 H 129.203 1.22559 -1.17377 0
M  V30 1355 H 127.975 3.04557 -2.45684 0
M  V30 1356 H 127.598 3.86128 -0.948223 0
M  V30 1357 N 128.595 0.856903 1.32268 0
M  V30 1358 C 129.558 0.308171 2.27119 0
M  V30 1359 C 130.558 -0.533421 1.51695 0
M  V30 1360 O 131.748 -0.344607 1.70757 0
M  V30 1361 C 128.88 -0.563757 3.36206 0
M  V30 1362 H 130.073 1.14535 2.77167 0
M  V30 1363 H 127.626 0.631421 1.42978 0
M  V30 1364 H 128.361 -1.42266 2.91429 0
M  V30 1365 H 128.146 0.0386749 3.92081 0
M  V30 1366 H 129.636 -0.940386 4.06874 0
M  V30 1367 N 130.073 -1.45103 0.615059 0
M  V30 1368 C 131.321 -2.01784 0.112955 0
M  V30 1369 C 131.642 -1.48504 -1.26378 0
M  V30 1370 O 130.912 -0.682245 -1.83636 0
M  V30 1371 H 129.492 -0.745993 0.0387668 0
M  V30 1372 H 132.154 -1.77808 0.798141 0
M  V30 1373 H 131.25 -3.12025 0.0684069 0
M  V30 1374 N 131.551 -0.354651 -1.53558 0
M  V30 1375 C 132.967 -0.00315426 -1.596 0
M  V30 1376 C 133.167 1.47741 -1.37021 0
M  V30 1377 O 132.223 2.23759 -1.16996 0
M  V30 1378 C 133.536 -0.44929 -2.97325 0
M  V30 1379 C 135.084 -0.402578 -3.104 0
M  V30 1380 C 135.559 -0.824355 -4.5052 0
M  V30 1381 N 137.05 -0.778979 -4.56603 0
M  V30 1382 C 137.785 -1.07715 -5.63192 0
M  V30 1383 N 137.281 -1.44405 -6.77583 0
M  V30 1384 N 139.074 -1.00066 -5.53121 0
M  V30 1385 H 131.225 -1.31893 -1.66487 0
M  V30 1386 H 133.488 -0.538388 -0.780284 0
M  V30 1387 H 133.194 -1.48202 -3.1895 0
M  V30 1388 H 133.068 0.169772 -3.76818 0
M  V30 1389 H 135.455 0.621004 -2.88492 0
M  V30 1390 H 135.536 -1.05699 -2.32941 0
M  V30 1391 H 135.18 -1.846 -4.73165 0
M  V30 1392 H 135.11 -0.147304 -5.26394 0
M  V30 1393 H 137.601 -0.508528 -3.74463 0
M  V30 1394 H 137.914 -1.65612 -7.54846 0
M  V30 1395 H 136.259 -1.4826 -6.79002 0
M  V30 1396 H 139.45 -0.713293 -4.62633 0
M  V30 1397 H 139.623 -1.23638 -6.36096 0
M  V30 1398 N 133.029 1.57378 -0.0835403 0
M  V30 1399 C 134.254 1.98682 0.594987 0
M  V30 1400 C 134.679 0.961969 1.61641 0
M  V30 1401 O 134.037 -0.0709989 1.81161 0
M  V30 1402 C 134.085 3.38988 1.2296 0
M  V30 1403 O 133.189 3.39208 2.34546 0
M  V30 1404 H 132.53 0.646368 0.152002 0
M  V30 1405 H 135.06 2.03961 -0.161533 0
M  V30 1406 H 135.07 3.76431 1.57366 0
M  V30 1407 H 133.745 4.13107 0.481228 0
M  V30 1408 H 132.322 3.13548 2.01846 0
M  V30 1409 N 134.507 -0.190092 1.56449 0
M  V30 1410 C 135.753 -0.906472 1.82084 0
M  V30 1411 C 136.108 -1.80677 0.661335 0
M  V30 1412 O 135.401 -1.88501 -0.343237 0
M  V30 1413 C 135.595 -1.75382 3.1141 0
M  V30 1414 C 135.424 -0.937053 4.39829 0
M  V30 1415 C 134.194 -0.619507 5.01488 0
M  V30 1416 C 136.392 -0.2874 5.13496 0
M  V30 1417 N 134.374 0.215367 6.13522 0
M  V30 1418 C 135.745 0.409454 6.18646 0
M  V30 1419 C 137.8 -0.203639 4.97483 0
M  V30 1420 C 136.503 1.1821 7.0952 0
M  V30 1421 C 138.529 0.555622 5.88784 0
M  V30 1422 C 137.891 1.24091 6.93384 0
M  V30 1423 H 133.99 -0.310931 0.717528 0
M  V30 1424 H 136.574 -0.174821 1.93914 0
M  V30 1425 H 134.745 -2.45703 3.00806 0
M  V30 1426 H 136.477 -2.41006 3.25112 0
M  V30 1427 H 133.232 -0.945126 4.64074 0
M  V30 1428 H 133.656 0.622562 6.74131 0
M  V30 1429 H 138.298 -0.719099 4.1664 0
M  V30 1430 H 136.016 1.70897 7.89823 0
M  V30 1431 H 139.602 0.621854 5.78467 0
M  V30 1432 H 138.482 1.81901 7.62812 0
M  V30 1433 N 135.985 -1.50799 -0.457987 0
M  V30 1434 C 137.231 -1.62683 -1.21088 0
M  V30 1435 C 137.564 -0.332268 -1.91336 0
M  V30 1436 O 136.839 0.667043 -1.82704 0
M  V30 1437 C 137.122 -2.81615 -2.24422 0
M  V30 1438 C 136.975 -4.20989 -1.58392 0
M  V30 1439 C 138.294 -2.96085 -3.2561 0
M  V30 1440 H 135.413 -0.592087 -0.438864 0
M  V30 1441 H 138.055 -1.83225 -0.50286 0
M  V30 1442 H 136.205 -2.64231 -2.84806 0
M  V30 1443 H 137.877 -4.49994 -1.01504 0
M  V30 1444 H 136.12 -4.24641 -0.886704 0
M  V30 1445 H 136.791 -5.0016 -2.33547 0
M  V30 1446 H 139.267 -3.12042 -2.75262 0
M  V30 1447 H 138.143 -3.80902 -3.95228 0
M  V30 1448 H 138.404 -2.0726 -3.90507 0
M  V30 1449 N 137.463 0.71206 -1.40597 0
M  V30 1450 C 138.712 1.46754 -1.38369 0
M  V30 1451 C 139.025 1.95598 0.0097839 0
M  V30 1452 O 140.231 2.71059 0.154677 0
M  V30 1453 C 138.687 2.65289 -2.43207 0
M  V30 1454 C 138.295 2.23301 -3.88382 0
M  V30 1455 C 140.039 3.43008 -2.50091 0
M  V30 1456 C 137.946 3.38696 -4.84808 0
M  V30 1457 H 136.876 0.55118 -0.514506 0
M  V30 1458 H 139.527 0.774616 -1.66349 0
M  V30 1459 H 137.909 3.36769 -2.08332 0
M  V30 1460 H 139.083 1.59218 -4.32419 0
M  V30 1461 H 137.398 1.58618 -3.85006 0
M  V30 1462 H 139.995 4.28881 -3.1932 0
M  V30 1463 H 140.338 3.87065 -1.53253 0
M  V30 1464 H 140.871 2.78574 -2.83974 0
M  V30 1465 H 137.61 2.99668 -5.82992 0
M  V30 1466 H 137.13 4.01683 -4.45433 0
M  V30 1467 H 138.809 4.04712 -5.04794 0
M  V30 1468 N 138.941 1.26152 0.944643 0
M  V30 1469 C 140.169 1.14259 1.72489 0
M  V30 1470 C 140.584 -0.302555 1.8636 0
M  V30 1471 O 139.941 -1.20741 1.36849 0
M  V30 1472 C 139.992 1.80266 3.13347 0
M  V30 1473 O 139.713 3.19133 3.00143 0
M  V30 1474 C 141.214 1.74283 4.07603 0
M  V30 1475 H 138.434 0.398051 0.540181 0
M  V30 1476 H 140.978 1.66706 1.18446 0
M  V30 1477 H 139.133 1.31766 3.64303 0
M  V30 1478 H 139.547 3.51744 3.89071 0
M  V30 1479 H 141.021 2.25111 5.04013 0
M  V30 1480 H 141.498 0.708631 4.33446 0
M  V30 1481 H 142.104 2.22319 3.62567 0
M  V30 1482 N 140.419 -1.14872 1.07899 0
M  V30 1483 C 141.382 -2.17986 0.708161 0
M  V30 1484 C 142.382 -1.58775 -0.25442 0
M  V30 1485 O 143.572 -1.74166 -0.034645 0
M  V30 1486 C 140.704 -3.40871 0.0446929 0
M  V30 1487 H 141.897 -2.52306 1.62116 0
M  V30 1488 H 139.45 -1.2943 0.876218 0
M  V30 1489 H 140.185 -3.12124 -0.880281 0
M  V30 1490 H 139.97 -3.8511 0.737091 0
M  V30 1491 H 141.46 -4.17121 -0.19991 0
M  V30 1492 N 141.898 -0.863906 -1.31812 0
M  V30 1493 C 143.128 -0.485406 -2.00817 0
M  V30 1494 C 143.536 0.925007 -1.65046 0
M  V30 1495 O 142.879 1.61653 -0.872574 0
M  V30 1496 C 142.941 -0.555589 -3.55181 0
M  V30 1497 C 142.605 -1.92654 -4.14407 0
M  V30 1498 C 143.602 -2.89324 -4.31958 0
M  V30 1499 C 141.287 -2.2262 -4.50273 0
M  V30 1500 C 143.281 -4.14108 -4.84555 0
M  V30 1501 C 140.968 -3.47654 -5.02573 0
M  V30 1502 C 141.966 -4.43214 -5.19664 0
M  V30 1503 O 141.654 -5.66033 -5.70843 0
M  V30 1504 H 141.386 -0.188224 -0.649267 0
M  V30 1505 H 143.94 -1.16514 -1.69156 0
M  V30 1506 H 142.17 0.181037 -3.86276 0
M  V30 1507 H 143.859 -0.19138 -4.05449 0
M  V30 1508 H 144.625 -2.6748 -4.04573 0
M  V30 1509 H 140.504 -1.4902 -4.3625 0
M  V30 1510 H 144.048 -4.88703 -4.9781 0
M  V30 1511 H 139.945 -3.69345 -5.29391 0
M  V30 1512 H 140.713 -5.6812 -5.89222 0
M  V30 1513 N 143.376 1.44774 -0.622745 0
M  V30 1514 C 144.622 2.0242 -0.124083 0
M  V30 1515 C 144.955 1.4881 1.24777 0
M  V30 1516 O 144.23 0.668799 1.8264 0
M  V30 1517 C 144.513 3.59957 -0.101619 0
M  V30 1518 C 144.366 4.23867 -1.50521 0
M  V30 1519 C 145.685 4.36284 0.578272 0
M  V30 1520 H 142.804 0.735528 -0.0465645 0
M  V30 1521 H 145.446 1.72447 -0.797617 0
M  V30 1522 H 143.596 3.85623 0.471934 0
M  V30 1523 H 145.268 4.09336 -2.12701 0
M  V30 1524 H 143.511 3.81684 -2.06154 0
M  V30 1525 H 144.182 5.32843 -1.4416 0
M  V30 1526 H 146.658 4.16001 0.0906057 0
M  V30 1527 H 145.534 5.46004 0.563149 0
M  V30 1528 H 145.795 4.10271 1.64713 0
M  V30 1529 N 144.854 0.36279 1.53368 0
M  V30 1530 C 145.784 -0.476976 2.28576 0
M  V30 1531 C 146.765 -1.08631 1.30894 0
M  V30 1532 O 147.95 -1.10409 1.59761 0
M  V30 1533 C 145.08 -1.61828 3.07293 0
M  V30 1534 C 144.034 -1.13633 4.1264 0
M  V30 1535 C 143.36 -2.36766 4.79423 0
M  V30 1536 C 144.66 -0.223061 5.21823 0
M  V30 1537 H 146.354 0.150474 2.99022 0
M  V30 1538 H 143.9 0.0738103 1.43811 0
M  V30 1539 H 145.853 -2.21237 3.58653 0
M  V30 1540 H 144.577 -2.27292 2.34533 0
M  V30 1541 H 143.236 -0.564945 3.62221 0
M  V30 1542 H 142.884 -3.0068 4.03238 0
M  V30 1543 H 142.584 -2.05192 5.50609 0
M  V30 1544 H 144.108 -2.96865 5.33576 0
M  V30 1545 H 145.522 -0.724545 5.68703 0
M  V30 1546 H 143.919 0.001678 6.001 0
M  V30 1547 H 144.989 0.735553 4.79289 0
M  V30 1548 N 146.332 -1.57332 0.0918853 0
M  V30 1549 C 147.56 -1.98574 -0.581048 0
M  V30 1550 C 147.975 -0.970903 -1.61923 0
M  V30 1551 O 147.332 0.0399054 -1.82456 0
M  V30 1552 C 147.383 -3.39872 -1.23164 0
M  V30 1553 O 147.104 -4.37469 -0.234989 0
M  V30 1554 C 148.605 -3.96099 -1.99049 0
M  V30 1555 H 145.825 -0.65261 -0.156018 0
M  V30 1556 H 148.369 -2.0379 0.170225 0
M  V30 1557 H 146.524 -3.35679 -1.93386 0
M  V30 1558 H 146.938 -5.19751 -0.70418 0
M  V30 1559 H 148.412 -4.97127 -2.39934 0
M  V30 1560 H 148.889 -3.3374 -2.85507 0
M  V30 1561 H 149.495 -4.03755 -1.3365 0
M  V30 1562 N 147.81 0.181792 -1.56548 0
M  V30 1563 C 149.057 0.900097 -1.81396 0
M  V30 1564 C 149.385 1.82695 -0.667281 0
M  V30 1565 O 148.64 1.92614 0.346146 0
M  V30 1566 C 148.939 1.73728 -3.12335 0
M  V30 1567 C 148.605 0.960255 -4.40556 0
M  V30 1568 C 147.267 0.745766 -4.75386 0
M  V30 1569 C 149.619 0.414477 -5.19549 0
M  V30 1570 C 146.947 -0.0257694 -5.86694 0
M  V30 1571 C 149.299 -0.343916 -6.31664 0
M  V30 1572 C 147.963 -0.569301 -6.65068 0
M  V30 1573 H 147.233 0.329369 -0.663775 0
M  V30 1574 H 149.88 0.165647 -1.90782 0
M  V30 1575 H 148.185 2.54081 -2.98245 0
M  V30 1576 H 149.882 2.29591 -3.28769 0
M  V30 1577 H 146.472 1.13746 -4.13231 0
M  V30 1578 H 150.656 0.567554 -4.93044 0
M  V30 1579 H 145.912 -0.210233 -6.11038 0
M  V30 1580 H 150.086 -0.774133 -6.92084 0
M  V30 1581 H 147.713 -1.16903 -7.51158 0
M  V30 1582 N 149.288 1.51039 0.449983 0
M  V30 1583 C 150.536 1.62759 1.19808 0
M  V30 1584 C 150.857 0.339981 1.92013 0
M  V30 1585 O 150.127 -0.643606 1.85026 0
M  V30 1586 H 148.707 0.599811 0.445237 0
M  V30 1587 H 151.369 1.87914 0.517138 0
M  V30 1588 H 150.465 2.44911 1.93455 0
M  V30 1589 N 150.766 -0.704594 1.40972 0
M  V30 1590 C 152.014 -1.46169 1.39568 0
M  V30 1591 C 152.335 -1.95 0.00253745 0
M  V30 1592 O 151.605 -1.71095 -0.954114 0
M  V30 1593 H 150.185 -0.542326 0.513704 0
M  V30 1594 H 152.847 -0.834553 1.76128 0
M  V30 1595 H 151.943 -2.32922 2.07735 0
M  V30 1596 N 152.244 -1.26651 -0.937939 0
M  V30 1597 C 153.174 -1.10993 -2.05433 0
M  V30 1598 C 154.155 -0.0142161 -1.70094 0
M  V30 1599 O 155.34 -0.186837 -1.93299 0
M  V30 1600 C 152.47 -0.745561 -3.39203 0
M  V30 1601 C 151.424 -1.79337 -3.88616 0
M  V30 1602 C 150.75 -1.28324 -5.19073 0
M  V30 1603 C 152.05 -3.19553 -4.13138 0
M  V30 1604 H 153.744 -2.0438 -2.1879 0
M  V30 1605 H 151.29 -0.984041 -1.05131 0
M  V30 1606 H 153.243 -0.622888 -4.16771 0
M  V30 1607 H 151.967 0.22401 -3.25831 0
M  V30 1608 H 150.626 -1.90477 -3.13231 0
M  V30 1609 H 150.274 -0.303414 -5.02084 0
M  V30 1610 H 149.974 -1.98369 -5.53103 0
M  V30 1611 H 151.498 -1.1733 -5.99221 0
M  V30 1612 H 152.912 -3.11471 -4.81309 0
M  V30 1613 H 151.309 -3.87218 -4.58457 0
M  V30 1614 H 152.379 -3.65368 -3.18801 0
M  V30 1615 N 153.722 1.14298 -1.08507 0
M  V30 1616 C 154.655 2.18447 -0.660004 0
M  V30 1617 C 155.633 1.59242 0.328749 0
M  V30 1618 O 156.817 1.87062 0.232367 0
M  V30 1619 C 153.944 3.38688 0.0290807 0
M  V30 1620 C 152.99 4.1646 -0.919982 0
M  V30 1621 S 153.823 4.77334 -2.42718 0
M  V30 1622 C 154.979 6.00931 -1.75024 0
M  V30 1623 H 155.212 2.54166 -1.54231 0
M  V30 1624 H 152.745 1.25446 -0.900149 0
M  V30 1625 H 154.703 4.08342 0.420378 0
M  V30 1626 H 153.364 3.01289 0.887895 0
M  V30 1627 H 152.557 5.02529 -0.384751 0
M  V30 1628 H 152.159 3.52414 -1.25223 0
M  V30 1629 H 154.451 6.69017 -1.06877 0
M  V30 1630 H 155.394 6.59044 -2.58971 0
M  V30 1631 H 155.802 5.51089 -1.22317 0
M  V30 1632 N 155.201 0.870884 1.31352 0
M  V30 1633 C 156.131 0.343096 2.30966 0
M  V30 1634 C 157.112 -0.566507 1.60389 0
M  V30 1635 O 158.297 -0.483336 1.88089 0
M  V30 1636 C 155.427 -0.455487 3.443 0
M  V30 1637 C 154.381 0.361103 4.26474 0
M  V30 1638 C 153.707 -0.563221 5.31725 0
M  V30 1639 C 155.007 1.59566 4.97329 0
M  V30 1640 H 156.701 1.17548 2.75359 0
M  V30 1641 H 154.247 0.566686 1.32381 0
M  V30 1642 H 156.2 -0.83525 4.13039 0
M  V30 1643 H 154.924 -1.32139 2.98675 0
M  V30 1644 H 153.583 0.722825 3.59403 0
M  V30 1645 H 153.231 -1.42643 4.82351 0
M  V30 1646 H 152.931 -0.0207409 5.87596 0
M  V30 1647 H 154.455 -0.939808 6.03324 0
M  V30 1648 H 155.869 1.28728 5.58661 0
M  V30 1649 H 154.266 2.07728 5.63 0
M  V30 1650 H 155.336 2.34798 4.24262 0
M  V30 1651 N 156.679 -1.44442 0.630414 0
M  V30 1652 C 157.609 -2.33418 -0.0618083 0
M  V30 1653 C 158.59 -1.48165 -0.835541 0
M  V30 1654 O 159.775 -1.76886 -0.801564 0
M  V30 1655 C 156.905 -3.31222 -1.04449 0
M  V30 1656 C 155.859 -4.26288 -0.382436 0
M  V30 1657 C 155.185 -5.13954 -1.47497 0
M  V30 1658 C 156.485 -5.1744 0.710865 0
M  V30 1659 H 158.179 -2.91548 0.681184 0
M  V30 1660 H 155.725 -1.40191 0.329026 0
M  V30 1661 H 157.678 -3.92351 -1.53748 0
M  V30 1662 H 156.402 -2.71299 -1.81836 0
M  V30 1663 H 155.061 -3.6649 0.0899054 0
M  V30 1664 H 154.709 -4.50385 -2.2397 0
M  V30 1665 H 154.409 -5.7837 -1.03737 0
M  V30 1666 H 155.933 -5.77955 -1.96979 0
M  V30 1667 H 157.347 -5.72509 0.300996 0
M  V30 1668 H 155.744 -5.90455 1.07156 0
M  V30 1669 H 156.814 -4.58496 1.57829 0
M  V30 1670 N 158.157 -0.370918 -1.53173 0
M  V30 1671 C 159.405 0.216673 -2.00935 0
M  V30 1672 C 159.726 1.48845 -1.25977 0
M  V30 1673 O 158.996 1.92286 -0.374551 0
M  V30 1674 H 157.576 0.0830565 -0.742368 0
M  V30 1675 H 160.238 -0.49838 -1.8842 0
M  V30 1676 H 159.334 0.439893 -3.08984 0
M  V30 1677 N 159.635 1.57281 -0.100228 0
M  V30 1678 C 160.883 1.94153 0.561157 0
M  V30 1679 C 161.204 0.983157 1.68401 0
M  V30 1680 O 160.474 0.0361132 1.95867 0
M  V30 1681 H 159.054 0.716791 0.210283 0
M  V30 1682 H 161.716 1.94202 -0.164765 0
M  V30 1683 H 160.812 2.96709 0.968008 0
M  V30 1684 N 161.113 -0.173488 1.56642 0
M  V30 1685 C 162.529 -0.525174 1.50712 0
M  V30 1686 C 162.729 -1.8476 0.804107 0
M  V30 1687 O 161.785 -2.49869 0.363574 0
M  V30 1688 C 163.098 -0.559937 2.95441 0
M  V30 1689 C 164.646 -0.647288 3.06234 0
M  V30 1690 C 165.121 -0.712963 4.52417 0
M  V30 1691 N 166.612 -0.775911 4.56655 0
M  V30 1692 C 167.347 -0.847264 5.67106 0
M  V30 1693 N 166.843 -0.879585 6.87194 0
M  V30 1694 N 168.636 -0.886117 5.55071 0
M  V30 1695 H 160.787 0.693681 2.00753 0
M  V30 1696 H 163.05 0.249841 0.914485 0
M  V30 1697 H 162.756 0.343049 3.50023 0
M  V30 1698 H 162.63 -1.40718 3.49969 0
M  V30 1699 H 165.017 -1.5407 2.51687 0
M  V30 1700 H 165.098 0.226586 2.54794 0
M  V30 1701 H 164.742 0.176183 5.07594 0
M  V30 1702 H 164.672 -1.60295 5.0161 0
M  V30 1703 H 167.163 -0.759304 3.70193 0
M  V30 1704 H 167.476 -0.935144 7.67121 0
M  V30 1705 H 165.821 -0.847898 6.89808 0
M  V30 1706 H 169.012 -0.857853 4.60172 0
M  V30 1707 H 169.185 -0.938263 6.41171 0
M  V30 1708 N 162.591 -1.51276 -0.441967 0
M  V30 1709 C 163.521 -1.752 -1.54361 0
M  V30 1710 C 164.502 -0.601682 -1.59103 0
M  V30 1711 O 165.687 -0.843913 -1.74905 0
M  V30 1712 C 162.817 -1.87282 -2.92477 0
M  V30 1713 C 161.771 -3.02687 -3.02596 0
M  V30 1714 C 161.097 -2.99947 -4.42647 0
M  V30 1715 C 162.397 -4.4273 -2.77106 0
M  V30 1716 H 164.091 -2.67442 -1.34592 0
M  V30 1717 H 161.637 -1.28694 -0.646048 0
M  V30 1718 H 163.59 -2.02602 -3.695 0
M  V30 1719 H 162.314 -0.916844 -3.13467 0
M  V30 1720 H 160.973 -2.87065 -2.28012 0
M  V30 1721 H 160.621 -2.02136 -4.60597 0
M  V30 1722 H 160.321 -3.77439 -4.50348 0
M  V30 1723 H 161.845 -3.17354 -5.2165 0
M  V30 1724 H 163.259 -4.58727 -3.43864 0
M  V30 1725 H 161.656 -5.21893 -2.96222 0
M  V30 1726 H 162.726 -4.53087 -1.72744 0
M  V30 1727 N 164.069 0.697108 -1.41344 0
M  V30 1728 C 165.317 1.45426 -1.40341 0
M  V30 1729 C 165.638 1.94996 -0.0128787 0
M  V30 1730 O 164.908 1.71599 0.945027 0
M  V30 1731 H 163.488 0.539594 -0.516573 0
M  V30 1732 H 166.15 0.825201 -1.76569 0
M  V30 1733 H 165.246 2.31817 -2.08967 0
M  V30 1734 N 165.547 1.27147 0.931209 0
M  V30 1735 C 166.824 1.0401 1.65654 0
M  V30 1736 C 167.204 -0.426297 2.06751 0
M  V30 1737 O 166.552 -1.40879 1.79904 0
M  V30 1738 C 166.762 1.99834 2.86125 0
M  V30 1739 C 168.11 2.29007 3.57549 0
M  V30 1740 O 169.134 1.97779 2.96246 0
M  V30 1741 O 167.993 2.82222 4.67989 0
M  V30 1742 H 165.087 0.396239 0.725895 0
M  V30 1743 H 167.633 1.38397 0.982056 0
M  V30 1744 H 166.405 2.98744 2.52721 0
M  V30 1745 H 166.028 1.65987 3.61295 0
M  V30 1746 N 167.025 -1.13721 1.09112 0
M  V30 1747 C 168.253 -1.88773 0.846899 0
M  V30 1748 C 168.668 -1.7896 -0.601572 0
M  V30 1749 O 168.025 -1.15394 -1.41388 0
M  V30 1750 C 168.076 -3.3849 1.26913 0
M  V30 1751 O 167.797 -3.48043 2.66079 0
M  V30 1752 C 169.298 -4.30518 1.05682 0
M  V30 1753 H 166.518 -0.59772 0.304914 0
M  V30 1754 H 169.062 -1.43977 1.45227 0
M  V30 1755 H 167.217 -3.80881 0.707723 0
M  V30 1756 H 167.631 -4.4109 2.83795 0
M  V30 1757 H 169.105 -5.3391 1.40156 0
M  V30 1758 H 169.582 -4.392 -0.00563416 0
M  V30 1759 H 170.188 -3.93893 1.60402 0
M  V30 1760 N 168.503 -0.877838 -1.30888 0
M  V30 1761 C 169.752 -0.488793 -1.95688 0
M  V30 1762 C 170.065 0.965485 -1.70111 0
M  V30 1763 O 171.271 1.46104 -2.28836 0
M  V30 1764 C 169.727 -0.823201 -3.50359 0
M  V30 1765 C 169.335 -2.29477 -3.84765 0
M  V30 1766 C 171.079 -0.503009 -4.21509 0
M  V30 1767 C 168.986 -2.57118 -5.32583 0
M  V30 1768 H 167.916 -0.179062 -0.732429 0
M  V30 1769 H 170.567 -1.07183 -1.48943 0
M  V30 1770 H 168.949 -0.169331 -3.95638 0
M  V30 1771 H 170.123 -2.99236 -3.5042 0
M  V30 1772 H 168.438 -2.58178 -3.267 0
M  V30 1773 H 171.035 -0.68665 -5.30273 0
M  V30 1774 H 171.378 0.557109 -4.12555 0
M  V30 1775 H 171.911 -1.11376 -3.8189 0
M  V30 1776 H 168.65 -3.61843 -5.4658 0
M  V30 1777 H 168.17 -1.91961 -5.68253 0
M  V30 1778 H 169.849 -2.42251 -5.99936 0
M  V30 1779 N 169.982 1.44106 -0.638065 0
M  V30 1780 C 171.23 2.01579 -0.145043 0
M  V30 1781 C 171.551 1.50496 1.24 0
M  V30 1782 O 170.821 0.711374 1.82527 0
M  V30 1783 H 169.401 0.745282 -0.05063 0
M  V30 1784 H 172.063 1.76516 -0.826327 0
M  V30 1785 H 171.159 3.11877 -0.118039 0
M  V30 1786 N 171.46 0.379036 1.52974 0
M  V30 1787 C 172.876 0.0285448 1.59574 0
M  V30 1788 C 173.076 -1.45542 1.39355 0
M  V30 1789 O 172.132 -2.2187 1.20541 0
M  V30 1790 C 173.445 0.496535 2.96572 0
M  V30 1791 C 174.993 0.451909 3.0972 0
M  V30 1792 C 175.468 0.895924 4.49152 0
M  V30 1793 N 176.959 0.851522 4.55306 0
M  V30 1794 C 177.694 1.16661 5.61407 0
M  V30 1795 N 177.19 1.55166 6.752 0
M  V30 1796 N 178.983 1.08853 5.51459 0
M  V30 1797 H 171.134 1.34525 1.64367 0
M  V30 1798 H 173.397 0.550733 0.771619 0
M  V30 1799 H 173.103 1.53258 3.16552 0
M  V30 1800 H 172.977 -0.109802 3.7704 0
M  V30 1801 H 175.364 -0.575029 2.89443 0
M  V30 1802 H 175.445 1.09392 2.3123 0
M  V30 1803 H 175.089 1.92104 4.70168 0
M  V30 1804 H 175.019 0.23103 5.26093 0
M  V30 1805 H 177.51 0.568038 3.73606 0
M  V30 1806 H 177.823 1.776 7.52116 0
M  V30 1807 H 176.168 1.59044 6.76557 0
M  V30 1808 H 179.359 0.786803 4.6144 0
M  V30 1809 H 179.532 1.33742 6.34048 0
M  V30 1810 N 172.938 -1.57226 0.108567 0
M  V30 1811 C 173.885 -2.14756 -0.845481 0
M  V30 1812 C 174.855 -1.06971 -1.27068 0
M  V30 1813 O 176.04 -1.34827 -1.35005 0
M  V30 1814 C 173.18 -2.74298 -2.09415 0
M  V30 1815 C 172.293 -3.96358 -1.71826 0
M  V30 1816 C 171.428 -4.44021 -2.9158 0
M  V30 1817 C 170.467 -5.58637 -2.50181 0
M  V30 1818 N 169.604 -6.01091 -3.62814 0
M  V30 1819 H 174.444 -2.95961 -0.348035 0
M  V30 1820 H 171.981 -1.46226 -0.160106 0
M  V30 1821 H 173.939 -3.06945 -2.82561 0
M  V30 1822 H 172.569 -1.95801 -2.56636 0
M  V30 1823 H 171.621 -3.69939 -0.885947 0
M  V30 1824 H 172.933 -4.79504 -1.37394 0
M  V30 1825 H 172.087 -4.78522 -3.72963 0
M  V30 1826 H 170.826 -3.59803 -3.29231 0
M  V30 1827 H 169.831 -5.23751 -1.67228 0
M  V30 1828 H 171.056 -6.44613 -2.13659 0
M  V30 1829 H 169.002 -5.19817 -4.00158 0
M  V30 1830 H 168.919 -6.79066 -3.32273 0
M  V30 1831 H 170.187 -6.40227 -4.44668 0
M  V30 1832 N 174.416 0.165178 -1.56732 0
M  V30 1833 C 175.832 0.517174 -1.50988 0
M  V30 1834 C 176.032 1.84331 -0.813894 0
M  V30 1835 O 175.088 2.49672 -0.37682 0
M  V30 1836 C 176.401 0.544261 -2.95733 0
M  V30 1837 C 177.949 0.631039 -3.06573 0
M  V30 1838 C 178.424 0.68896 -4.52788 0
M  V30 1839 N 179.915 0.751683 -4.5706 0
M  V30 1840 C 180.65 0.817177 -5.67547 0
M  V30 1841 N 180.146 0.843129 -6.8765 0
M  V30 1842 N 181.939 0.856668 -5.55534 0
M  V30 1843 H 174.09 -0.704318 -2.00382 0
M  V30 1844 H 176.353 -0.254687 -0.913148 0
M  V30 1845 H 176.059 -0.361607 -3.49836 0
M  V30 1846 H 175.933 1.3886 -3.5071 0
M  V30 1847 H 178.32 1.52733 -2.52501 0
M  V30 1848 H 178.401 -0.240095 -2.54671 0
M  V30 1849 H 178.045 -0.2031 -5.07494 0
M  V30 1850 H 177.975 1.57633 -5.02454 0
M  V30 1851 H 180.466 0.739661 -3.70591 0
M  V30 1852 H 180.779 0.894448 -7.67606 0
M  V30 1853 H 179.124 0.811304 -6.90248 0
M  V30 1854 H 182.315 0.833437 -4.60621 0
M  V30 1855 H 182.488 0.904247 -6.4166 0
M  V30 1856 N 175.894 1.51508 0.433938 0
M  V30 1857 C 177.122 1.68157 1.20543 0
M  V30 1858 C 177.537 0.380362 1.84929 0
M  V30 1859 O 176.894 -0.641446 1.70856 0
M  V30 1860 C 176.945 2.79965 2.28696 0
M  V30 1861 O 176.666 4.05045 1.66943 0
M  V30 1862 C 178.167 3.07912 3.18912 0
M  V30 1863 H 175.387 0.56421 0.363191 0
M  V30 1864 H 177.931 1.97941 0.513754 0
M  V30 1865 H 176.086 2.5277 2.93574 0
M  V30 1866 H 176.5 4.67165 2.38448 0
M  V30 1867 H 177.974 3.89719 3.90926 0
M  V30 1868 H 178.451 2.20456 3.79863 0
M  V30 1869 H 179.057 3.36779 2.59731 0
M  V30 1870 N 177.372 -0.689602 1.41712 0
M  V30 1871 C 178.619 -1.44966 1.4139 0
M  V30 1872 C 178.947 -1.94484 0.025105 0
M  V30 1873 O 178.202 -1.70307 -0.964048 0
M  V30 1874 C 178.501 -2.67298 2.37247 0
M  V30 1875 C 178.167 -2.36405 3.83958 0
M  V30 1876 C 176.829 -2.27691 4.23923 0
M  V30 1877 C 179.181 -2.11043 4.76561 0
M  V30 1878 C 176.509 -1.91719 5.54492 0
M  V30 1879 C 178.861 -1.76578 6.07456 0
M  V30 1880 C 177.525 -1.66363 6.46436 0
M  V30 1881 H 176.795 -0.53047 0.517381 0
M  V30 1882 H 179.442 -0.787655 1.74552 0
M  V30 1883 H 177.747 -3.38461 1.9736 0
M  V30 1884 H 179.444 -3.25452 2.34269 0
M  V30 1885 H 176.034 -2.44085 3.52308 0
M  V30 1886 H 180.218 -2.16717 4.46483 0
M  V30 1887 H 175.474 -1.82367 5.83568 0
M  V30 1888 H 179.648 -1.55974 6.78708 0
M  V30 1889 H 177.275 -1.38258 7.47522 0
M  V30 1890 N 178.85 -1.27639 -0.924453 0
M  V30 1891 C 180.099 -1.13549 -1.66702 0
M  V30 1892 C 180.412 0.317487 -1.93006 0
M  V30 1893 O 181.618 0.579333 -2.65247 0
M  V30 1894 C 180.074 -1.98426 -3.00259 0
M  V30 1895 C 179.682 -3.484 -2.81641 0
M  V30 1896 C 181.426 -1.92993 -3.78092 0
M  V30 1897 C 179.333 -4.25464 -4.10773 0
M  V30 1898 H 178.263 -0.421351 -0.625283 0
M  V30 1899 H 180.914 -1.52085 -1.02676 0
M  V30 1900 H 179.296 -1.52736 -3.6536 0
M  V30 1901 H 180.47 -4.01973 -2.25287 0
M  V30 1902 H 178.785 -3.55245 -2.17232 0
M  V30 1903 H 181.382 -2.47844 -4.7379 0
M  V30 1904 H 181.725 -0.904281 -4.0636 0
M  V30 1905 H 182.258 -2.36595 -3.19793 0
M  V30 1906 H 178.997 -5.28566 -3.87683 0
M  V30 1907 H 178.517 -3.76667 -4.66779 0
M  V30 1908 H 180.196 -4.34812 -4.79111 0
M  V30 1909 N 180.328 1.1314 -1.09713 0
M  V30 1910 C 181.574 1.84757 -0.836224 0
M  V30 1911 C 181.907 1.8347 0.636598 0
M  V30 1912 O 181.182 1.27491 1.46889 0
M  V30 1913 C 181.465 3.32782 -1.37578 0
M  V30 1914 C 181.318 3.42567 -2.91493 0
M  V30 1915 C 182.637 4.28307 -1.01198 0
M  V30 1916 H 179.756 0.67082 -0.305236 0
M  V30 1917 H 182.398 1.3278 -1.35903 0
M  V30 1918 H 180.548 3.77177 -0.931097 0
M  V30 1919 H 182.22 3.06862 -3.44432 0
M  V30 1920 H 180.463 2.83349 -3.28475 0
M  V30 1921 H 181.134 4.46674 -3.24324 0
M  V30 1922 H 183.61 3.91999 -1.39556 0
M  V30 1923 H 182.486 5.30307 -1.41653 0
M  V30 1924 H 182.747 4.42029 0.0794833 0
M  V30 1925 N 181.806 0.884767 1.30421 0
M  V30 1926 C 183.054 0.502112 1.95763 0
M  V30 1927 C 183.375 -0.951815 1.70192 0
M  V30 1928 O 182.645 -1.6692 1.0254 0
M  V30 1929 H 181.225 0.182694 0.724315 0
M  V30 1930 H 183.887 1.1278 1.58955 0
M  V30 1931 H 182.983 0.672188 3.04775 0
M  V30 1932 N 183.284 -1.43765 0.645699 0
M  V30 1933 C 184.53 -2.02197 0.156271 0
M  V30 1934 C 184.863 -1.50776 -1.22393 0
M  V30 1935 O 184.138 -0.697771 -1.81553 0
M  V30 1936 C 184.421 -3.59749 0.158872 0
M  V30 1937 C 184.274 -4.21419 1.57245 0
M  V30 1938 C 185.593 -4.37149 -0.50879 0
M  V30 1939 H 182.712 -0.734694 0.0582602 0
M  V30 1940 H 185.354 -1.71157 0.824951 0
M  V30 1941 H 183.504 -3.86325 -0.410525 0
M  V30 1942 H 185.176 -4.059 2.19186 0
M  V30 1943 H 183.419 -3.78356 2.122 0
M  V30 1944 H 184.09 -5.30482 1.52619 0
M  V30 1945 H 186.566 -4.16093 -0.024412 0
M  V30 1946 H 185.442 -5.4683 -0.476213 0
M  V30 1947 H 185.703 -4.12839 -1.58165 0
M  V30 1948 N 184.763 -0.387143 -1.52771 0
M  V30 1949 C 185.726 0.436939 -2.24997 0
M  V30 1950 C 186.726 0.991991 -1.26555 0
M  V30 1951 O 187.916 0.874335 -1.50669 0
M  V30 1952 C 185.048 1.61281 -3.00335 0
M  V30 1953 H 186.241 -0.195365 -2.99263 0
M  V30 1954 H 183.794 -0.139218 -1.55679 0
M  V30 1955 H 184.529 2.2826 -2.30364 0
M  V30 1956 H 184.314 1.22154 -3.72587 0
M  V30 1957 H 185.804 2.19629 -3.5518 0
M  V30 1958 N 186.241 1.57166 -0.116904 0
M  V30 1959 C 187.171 2.18222 0.830759 0
M  V30 1960 C 188.152 1.12167 1.27877 0
M  V30 1961 O 189.337 1.40394 1.34176 0
M  V30 1962 C 186.467 2.77996 2.08172 0
M  V30 1963 C 185.421 3.89614 1.77157 0
M  V30 1964 C 184.747 4.36187 3.09265 0
M  V30 1965 C 186.047 5.1181 1.04151 0
M  V30 1966 H 187.741 2.97664 0.321992 0
M  V30 1967 H 185.287 1.4318 0.153434 0
M  V30 1968 H 187.24 3.19366 2.74924 0
M  V30 1969 H 185.964 1.9584 2.6137 0
M  V30 1970 H 184.623 3.48816 1.12796 0
M  V30 1971 H 184.271 3.50893 3.60393 0
M  V30 1972 H 183.971 5.11455 2.89288 0
M  V30 1973 H 185.495 4.80207 3.77139 0
M  V30 1974 H 186.909 5.50214 1.61052 0
M  V30 1975 H 185.306 5.92648 0.942762 0
M  V30 1976 H 186.376 4.84892 0.0279022 0
M  V30 1977 N 187.719 -0.156864 1.56817 0
M  V30 1978 C 188.966 -0.871125 1.82805 0
M  V30 1979 C 189.294 -1.81611 0.696262 0
M  V30 1980 O 188.549 -1.93141 -0.315459 0
M  V30 1981 C 188.848 -1.68737 3.1506 0
M  V30 1982 C 188.514 -0.890045 4.42028 0
M  V30 1983 C 187.176 -0.670042 4.76512 0
M  V30 1984 C 189.528 -0.331769 5.20143 0
M  V30 1985 C 186.856 0.119104 5.86579 0
M  V30 1986 C 189.208 0.444365 6.31037 0
M  V30 1987 C 187.872 0.675035 6.64078 0
M  V30 1988 H 187.142 -0.318767 0.668931 0
M  V30 1989 H 189.789 -0.135274 1.91022 0
M  V30 1990 H 188.094 -2.49304 3.0225 0
M  V30 1991 H 189.791 -2.24331 3.3238 0
M  V30 1992 H 186.381 -1.07157 4.14988 0
M  V30 1993 H 190.565 -0.489043 4.93885 0
M  V30 1994 H 185.821 0.307417 6.10627 0
M  V30 1995 H 189.995 0.884139 6.90765 0
M  V30 1996 H 187.622 1.28839 7.49203 0
M  V30 1997 N 189.197 -1.51736 -0.425897 0
M  V30 1998 C 190.425 -1.68794 -1.1965 0
M  V30 1999 C 190.84 -0.390164 -1.84725 0
M  V30 2000 O 190.197 0.632376 -1.71194 0
M  V30 2001 C 190.248 -2.81174 -2.27208 0
M  V30 2002 O 189.969 -4.05925 -1.64793 0
M  V30 2003 C 191.47 -3.09599 -3.17275 0
M  V30 2004 H 188.69 -0.566128 -0.360194 0
M  V30 2005 H 191.234 -1.98211 -0.503249 0
M  V30 2006 H 189.389 -2.54324 -2.9223 0
M  V30 2007 H 189.803 -4.68423 -2.35967 0
M  V30 2008 H 191.277 -3.91786 -3.88854 0
M  V30 2009 H 191.754 -2.22468 -3.78688 0
M  V30 2010 H 192.36 -3.38151 -2.57941 0
M  V30 2011 N 190.675 0.682077 -1.42076 0
M  V30 2012 C 191.924 1.43786 -1.41451 0
M  V30 2013 C 192.237 1.95574 -0.0317074 0
M  V30 2014 O 193.443 2.71326 0.0971462 0
M  V30 2015 C 191.899 2.60071 -2.48779 0
M  V30 2016 C 191.507 2.15013 -3.93031 0
M  V30 2017 C 193.251 3.37626 -2.57311 0
M  V30 2018 C 191.158 3.28336 -4.91883 0
M  V30 2019 H 190.088 0.540143 -0.526082 0
M  V30 2020 H 192.739 0.739157 -1.67955 0
M  V30 2021 H 191.121 3.32275 -2.15429 0
M  V30 2022 H 192.295 1.5001 -4.35699 0
M  V30 2023 H 190.61 1.50416 -3.88284 0
M  V30 2024 H 193.207 4.22012 -3.28345 0
M  V30 2025 H 193.55 3.83727 -1.61429 0
M  V30 2026 H 194.083 2.72488 -2.89819 0
M  V30 2027 H 190.822 2.87234 -5.89217 0
M  V30 2028 H 190.342 3.92145 -4.53853 0
M  V30 2029 H 192.021 3.93913 -5.13265 0
M  V30 2030 N 192.153 1.28127 0.917671 0
M  V30 2031 C 193.378 1.18007 1.70555 0
M  V30 2032 C 193.803 -0.258257 1.86319 0
M  V30 2033 O 193.161 -1.1869 1.37049 0
M  V30 2034 C 193.209 1.87948 3.07746 0
M  V30 2035 O 192.313 1.18427 3.9503 0
M  V30 2036 H 191.654 0.409867 0.522403 0
M  V30 2037 H 194.184 1.69379 1.1477 0
M  V30 2038 H 194.194 1.95701 3.58001 0
M  V30 2039 H 192.869 2.92573 2.95591 0
M  V30 2040 H 191.446 1.18811 3.53466 0
M  V30 2041 N 193.631 -1.12557 1.10312 0
M  V30 2042 C 194.856 -1.88405 0.867085 0
M  V30 2043 C 195.281 -1.79038 -0.576817 0
M  V30 2044 O 194.639 -1.14439 -1.40618 0
M  V30 2045 C 194.687 -3.3563 1.31851 0
M  V30 2046 O 193.791 -4.09565 0.482734 0
M  V30 2047 H 193.132 -0.585455 0.313271 0
M  V30 2048 H 195.662 -1.42352 1.4696 0
M  V30 2049 H 195.672 -3.86469 1.3079 0
M  V30 2050 H 194.347 -3.41765 2.37001 0
M  V30 2051 H 192.924 -3.68695 0.558448 0
M  V30 2052 N 195.109 -0.891671 -1.2995 0
M  V30 2053 C 196.355 -0.514261 -1.96171 0
M  V30 2054 C 196.688 0.935506 -1.70182 0
M  V30 2055 O 195.963 1.66204 -1.01028 0
M  V30 2056 C 196.246 -0.797719 -3.51153 0
M  V30 2057 C 196.099 -2.2986 -3.86632 0
M  V30 2058 C 197.418 -0.278749 -4.39216 0
M  V30 2059 H 194.537 -0.188314 -0.712535 0
M  V30 2060 H 197.179 -1.11689 -1.53706 0
M  V30 2061 H 195.329 -0.284826 -3.87455 0
M  V30 2062 H 197.001 -2.88042 -3.60319 0
M  V30 2063 H 195.244 -2.76257 -3.34462 0
M  V30 2064 H 195.915 -2.44753 -4.94773 0
M  V30 2065 H 198.391 -0.717825 -4.09862 0
M  V30 2066 H 197.267 -0.506353 -5.46559 0
M  V30 2067 H 197.528 0.820266 -4.34424 0
M  V30 2068 N 196.587 1.43421 -0.653314 0
M  V30 2069 C 197.517 2.33487 0.0246656 0
M  V30 2070 C 198.498 1.49475 0.811863 0
M  V30 2071 O 199.683 1.78139 0.773322 0
M  V30 2072 C 196.813 3.32841 0.99166 0
M  V30 2073 C 195.767 4.26842 0.314568 0
M  V30 2074 C 195.093 5.16236 1.39302 0
M  V30 2075 C 196.393 5.16243 -0.793095 0
M  V30 2076 H 198.087 2.90427 -0.727481 0
M  V30 2077 H 195.633 1.39649 -0.351287 0
M  V30 2078 H 197.586 3.94747 1.47487 0
M  V30 2079 H 196.31 2.74158 1.77497 0
M  V30 2080 H 194.969 3.663 -0.148199 0
M  V30 2081 H 194.617 4.53891 2.16776 0
M  V30 2082 H 194.317 5.79948 0.945223 0
M  V30 2083 H 195.841 5.81015 1.87759 0
M  V30 2084 H 197.255 5.71958 -0.392039 0
M  V30 2085 H 195.652 5.88676 -1.16536 0
M  V30 2086 H 196.722 4.55927 -1.65103 0
M  V30 2087 N 198.065 0.39524 1.52563 0
M  V30 2088 C 199.305 -0.184744 2.03563 0
M  V30 2089 C 199.669 -1.43548 1.27507 0
M  V30 2090 O 200.87 -2.093 1.68662 0
M  V30 2091 C 199.141 -0.440294 3.54678 0
M  V30 2092 S 200.7 -0.989712 4.27493 0
M  V30 2093 H 197.518 -0.0515075 0.709132 0
M  V30 2094 H 200.12 0.544957 1.87751 0
M  V30 2095 H 198.824 0.477005 4.07618 0
M  V30 2096 H 198.355 -1.19825 3.74707 0
M  V30 2097 H 200.37 -2.27155 4.41152 0
M  V30 2098 N 199.544 -1.57102 0.125237 0
M  V30 2099 C 200.507 -2.14471 -0.80838 0
M  V30 2100 C 201.507 -1.0811 -1.19033 0
M  V30 2101 O 202.697 -1.33856 -1.11482 0
M  V30 2102 C 199.829 -2.69005 -2.09402 0
M  V30 2103 H 201.022 -2.98297 -0.309696 0
M  V30 2104 H 198.575 -1.55807 -0.124051 0
M  V30 2105 H 199.31 -1.88785 -2.63687 0
M  V30 2106 H 199.095 -3.46799 -1.82957 0
M  V30 2107 H 200.585 -3.13278 -2.76128 0
M  V30 2108 N 201.022 0.148545 -1.56898 0
M  V30 2109 C 202.268 0.862694 -1.83536 0
M  V30 2110 C 202.601 1.80889 -0.706604 0
M  V30 2111 O 201.876 1.92328 0.289885 0
M  V30 2112 C 202.159 1.63853 -3.20662 0
M  V30 2113 C 202.012 0.713925 -4.44098 0
M  V30 2114 C 203.331 2.60133 -3.54991 0
M  V30 2115 H 200.45 0.312179 -0.667618 0
M  V30 2116 H 203.092 0.127953 -1.89569 0
M  V30 2117 H 201.242 2.26489 -3.1565 0
M  V30 2118 H 202.914 0.098686 -4.61194 0
M  V30 2119 H 201.157 0.0234019 -4.33794 0
M  V30 2120 H 201.828 1.29278 -5.36648 0
M  V30 2121 H 204.304 2.07616 -3.60603 0
M  V30 2122 H 203.18 3.11468 -4.51972 0
M  V30 2123 H 203.441 3.41417 -2.80868 0
M  V30 2124 N 202.5 1.5196 0.417844 0
M  V30 2125 C 203.463 1.74065 1.49111 0
M  V30 2126 C 204.463 0.610537 1.48758 0
M  V30 2127 O 205.653 0.87832 1.50437 0
M  V30 2128 C 202.785 1.81502 2.88565 0
M  V30 2129 H 203.978 2.69869 1.30807 0
M  V30 2130 H 201.531 1.42244 0.647785 0
M  V30 2131 H 202.266 0.875813 3.1225 0
M  V30 2132 H 202.051 2.63651 2.90225 0
M  V30 2133 H 203.541 2.00376 3.66387 0
M  V30 2134 N 203.978 -0.674533 1.42435 0
M  V30 2135 C 205.224 -1.43521 1.4413 0
M  V30 2136 C 205.579 -1.92316 0.0567773 0
M  V30 2137 O 204.872 -1.68008 -0.921076 0
M  V30 2138 C 205.066 -2.64767 2.40069 0
M  V30 2139 C 204.895 -2.27836 3.87713 0
M  V30 2140 C 203.665 -2.17183 4.56245 0
M  V30 2141 C 205.863 -1.89466 4.78129 0
M  V30 2142 N 203.845 -1.73358 5.88915 0
M  V30 2143 C 205.216 -1.56561 5.99907 0
M  V30 2144 C 207.271 -1.7646 4.65582 0
M  V30 2145 C 205.974 -1.11957 7.10534 0
M  V30 2146 C 208 -1.3326 5.76191 0
M  V30 2147 C 207.362 -1.0128 6.97081 0
M  V30 2148 H 203.461 -0.521656 0.582579 0
M  V30 2149 H 206.045 -0.778381 1.78464 0
M  V30 2150 H 204.216 -3.28139 2.07796 0
M  V30 2151 H 205.948 -3.3136 2.32342 0
M  V30 2152 H 202.703 -2.3626 4.10461 0
M  V30 2153 H 203.127 -1.53867 6.59283 0
M  V30 2154 H 207.769 -1.99831 3.72595 0
M  V30 2155 H 205.487 -0.873318 8.03367 0
M  V30 2156 H 209.073 -1.23717 5.68494 0
M  V30 2157 H 207.953 -0.683597 7.81215 0
M  V30 2158 N 205.456 -1.28612 -0.910864 0
M  V30 2159 C 206.733 -1.06632 -1.63979 0
M  V30 2160 C 207.113 0.393351 -2.07403 0
M  V30 2161 O 206.461 1.37999 -1.82122 0
M  V30 2162 C 206.671 -2.0436 -2.8291 0
M  V30 2163 C 208.019 -2.34666 -3.5386 0
M  V30 2164 O 209.043 -2.02467 -2.93062 0
M  V30 2165 O 207.902 -2.89631 -4.63439 0
M  V30 2166 H 204.996 -0.407737 -0.7195 0
M  V30 2167 H 207.542 -1.39942 -0.959914 0
M  V30 2168 H 206.314 -3.02727 -2.47936 0
M  V30 2169 H 205.937 -1.71714 -3.58609 0
M  V30 2170 N 206.934 1.1197 -1.10907 0
M  V30 2171 C 207.844 2.21433 -0.774896 0
M  V30 2172 C 208.86 1.72478 0.229657 0
M  V30 2173 O 210.036 2.01288 0.0672008 0
M  V30 2174 C 207.101 3.4602 -0.216986 0
M  V30 2175 C 206.162 4.09791 -1.27944 0
M  V30 2176 C 205.395 5.28431 -0.748055 0
M  V30 2177 O 205.618 5.68823 0.423833 0
M  V30 2178 O 204.552 5.82644 -1.51027 0
M  V30 2179 H 208.378 2.5242 -1.68873 0
M  V30 2180 H 205.963 1.20399 -0.884555 0
M  V30 2181 H 207.845 4.21304 0.090059 0
M  V30 2182 H 206.52 3.16698 0.669633 0
M  V30 2183 H 205.427 3.36265 -1.63941 0
M  V30 2184 H 206.76 4.4328 -2.13925 0
M  V30 2185 N 208.412 0.89855 1.29475 0
M  V30 2186 C 209.375 0.380272 2.26023 0
M  V30 2187 C 210.375 -0.484891 1.53315 0
M  V30 2188 O 211.565 -0.290108 1.71767 0
M  V30 2189 C 208.697 -0.45651 3.3783 0
M  V30 2190 H 209.89 1.23295 2.73383 0
M  V30 2191 H 207.443 0.676589 1.40897 0
M  V30 2192 H 208.178 -1.32922 2.95808 0
M  V30 2193 H 207.963 0.163393 3.91759 0
M  V30 2194 H 209.453 -0.810466 4.0966 0
M  V30 2195 N 209.89 -1.43072 0.660911 0
M  V30 2196 C 211.118 -2.06067 0.185422 0
M  V30 2197 C 211.533 -1.49582 -1.15198 0
M  V30 2198 O 210.89 -0.630134 -1.71276 0
M  V30 2199 C 210.941 -3.61371 0.0966523 0
M  V30 2200 O 210.662 -4.15758 1.38119 0
M  V30 2201 C 212.163 -4.41455 -0.403996 0
M  V30 2202 H 209.383 -0.664459 0.0934604 0
M  V30 2203 H 211.927 -1.83447 0.90373 0
M  V30 2204 H 210.082 -3.8315 -0.572259 0
M  V30 2205 H 210.496 -5.09499 1.24542 0
M  V30 2206 H 211.97 -5.50437 -0.415045 0
M  V30 2207 H 212.447 -4.15036 -1.43674 0
M  V30 2208 H 213.053 -4.24663 0.232691 0
M  V30 2209 N 211.368 -0.403325 -1.52352 0
M  V30 2210 C 212.298 0.416205 -2.29761 0
M  V30 2211 C 213.279 1.05123 -1.33728 0
M  V30 2212 O 214.464 1.06134 -1.62632 0
M  V30 2213 C 211.594 1.53624 -3.11475 0
M  V30 2214 C 210.548 1.02653 -4.15507 0
M  V30 2215 C 209.874 2.23971 -4.85532 0
M  V30 2216 C 211.174 0.08463 -5.22231 0
M  V30 2217 H 212.868 -0.229701 -2.98518 0
M  V30 2218 H 210.414 -0.111913 -1.43564 0
M  V30 2219 H 212.367 2.1165 -3.64393 0
M  V30 2220 H 211.091 2.20994 -2.40477 0
M  V30 2221 H 209.75 0.46871 -3.63591 0
M  V30 2222 H 209.398 2.89883 -4.11068 0
M  V30 2223 H 209.098 1.90521 -5.55856 0
M  V30 2224 H 210.622 2.82614 -5.41259 0
M  V30 2225 H 212.036 0.573509 -5.70424 0
M  V30 2226 H 210.433 -0.160783 -5.99885 0
M  V30 2227 H 211.503 -0.86237 -4.7717 0
M  V30 2228 N 212.846 1.57033 -0.133567 0
M  V30 2229 C 214.092 1.95976 0.521649 0
M  V30 2230 C 214.425 1.01779 1.65393 0
M  V30 2231 O 213.7 0.0576581 1.94415 0
M  V30 2232 C 213.983 3.44738 1.04057 0
M  V30 2233 C 213.836 4.49711 -0.0892897 0
M  V30 2234 C 215.155 3.95682 1.92675 0
M  V30 2235 H 212.274 0.712579 0.188149 0
M  V30 2236 H 214.916 1.88813 -0.212076 0
M  V30 2237 H 213.066 3.50973 1.66583 0
M  V30 2238 H 214.738 4.55565 -0.725152 0
M  V30 2239 H 212.981 4.27261 -0.750378 0
M  V30 2240 H 213.652 5.51099 0.315284 0
M  V30 2241 H 216.128 3.91841 1.39998 0
M  V30 2242 H 215.004 5.00262 2.25897 0
M  V30 2243 H 215.265 3.37239 2.85872 0
M  V30 2244 N 214.325 -0.140222 1.56975 0
M  V30 2245 C 215.574 -0.850152 1.82908 0
M  V30 2246 C 215.887 -1.82028 0.715892 0
M  V30 2247 O 217.093 -2.57485 0.861016 0
M  V30 2248 C 215.549 -1.5625 3.24213 0
M  V30 2249 C 215.157 -0.63443 4.43485 0
M  V30 2250 C 216.901 -2.25881 3.59413 0
M  V30 2251 C 214.808 -1.34879 5.75814 0
M  V30 2252 H 213.738 -0.321221 0.682153 0
M  V30 2253 H 216.389 -0.102874 1.83211 0
M  V30 2254 H 214.771 -2.35565 3.18316 0
M  V30 2255 H 215.945 0.12398 4.60633 0
M  V30 2256 H 214.26 -0.0461836 4.16374 0
M  V30 2257 H 216.857 -2.79978 4.5554 0
M  V30 2258 H 217.2 -3.02693 2.85802 0
M  V30 2259 H 217.733 -1.53477 3.67001 0
M  V30 2260 H 214.472 -0.622385 6.52539 0
M  V30 2261 H 213.992 -2.07974 5.6259 0
M  V30 2262 H 215.671 -1.88784 6.18845 0
M  V30 2263 N 215.803 -1.52179 -0.40978 0
M  V30 2264 C 216.766 -1.74853 -1.48186 0
M  V30 2265 C 217.766 -0.618417 -1.48433 0
M  V30 2266 O 218.956 -0.886286 -1.49969 0
M  V30 2267 C 216.088 -1.8303 -2.87598 0
M  V30 2268 H 217.281 -2.70559 -1.29374 0
M  V30 2269 H 214.834 -1.42586 -0.640233 0
M  V30 2270 H 215.569 -0.89236 -3.11781 0
M  V30 2271 H 215.354 -2.65187 -2.88822 0
M  V30 2272 H 216.844 -2.02316 -3.65319 0
M  V30 2273 N 217.281 0.66697 -1.42791 0
M  V30 2274 C 218.697 0.981027 -1.25889 0
M  V30 2275 C 218.897 2.00793 -0.168695 0
M  V30 2276 O 217.953 2.48321 0.45747 0
M  V30 2277 C 219.266 1.47838 -2.61848 0
M  V30 2278 C 220.814 1.59575 -2.69267 0
M  V30 2279 C 221.289 2.12704 -4.05612 0
M  V30 2280 N 222.78 2.20026 -4.07606 0
M  V30 2281 C 223.515 2.62227 -5.09926 0
M  V30 2282 N 223.011 3.03824 -6.22626 0
M  V30 2283 N 224.804 2.62045 -4.97281 0
M  V30 2284 H 216.955 -0.0127891 -2.12396 0
M  V30 2285 H 219.218 0.0568258 -0.946295 0
M  V30 2286 H 218.924 0.798299 -3.4252 0
M  V30 2287 H 218.798 2.45579 -2.86305 0
M  V30 2288 H 221.185 2.26687 -1.88936 0
M  V30 2289 H 221.266 0.60302 -2.48591 0
M  V30 2290 H 220.91 1.46198 -4.86404 0
M  V30 2291 H 220.84 3.12782 -4.23645 0
M  V30 2292 H 223.331 1.90708 -3.2625 0
M  V30 2293 H 223.644 3.34734 -6.96544 0
M  V30 2294 H 221.989 3.01662 -6.26119 0
M  V30 2295 H 225.18 2.28916 -4.08308 0
M  V30 2296 H 225.353 2.94613 -5.77154 0
M  V30 2297 N 218.759 1.29093 0.90403 0
M  V30 2298 C 219.689 1.16401 2.02418 0
M  V30 2299 C 220.67 0.0593085 1.69997 0
M  V30 2300 O 221.855 0.238021 1.92736 0
M  V30 2301 C 218.985 0.835233 3.37107 0
M  V30 2302 C 217.939 1.89578 3.83724 0
M  V30 2303 C 217.265 1.42041 5.15489 0
M  V30 2304 C 218.565 3.30394 4.04521 0
M  V30 2305 H 220.259 2.10109 2.13295 0
M  V30 2306 H 217.805 1.01157 1.02486 0
M  V30 2307 H 219.758 0.733169 4.14973 0
M  V30 2308 H 218.482 -0.137543 3.2631 0
M  V30 2309 H 217.141 1.98715 3.08071 0
M  V30 2310 H 216.789 0.436426 5.01103 0
M  V30 2311 H 216.489 2.12964 5.4765 0
M  V30 2312 H 218.013 1.33176 5.959 0
M  V30 2313 H 219.427 3.24123 4.72882 0
M  V30 2314 H 217.824 3.99237 4.48029 0
M  V30 2315 H 218.894 3.73692 3.09002 0
M  V30 2316 N 220.237 -1.11381 1.11499 0
M  V30 2317 C 221.462 -1.87475 0.887019 0
M  V30 2318 C 221.887 -1.79639 -0.557796 0
M  V30 2319 O 221.245 -1.15924 -1.39396 0
M  V30 2320 C 221.293 -3.34213 1.35403 0
M  V30 2321 O 220.397 -4.0903 0.526146 0
M  V30 2322 H 219.738 -0.582099 0.319463 0
M  V30 2323 H 222.268 -1.40785 1.48461 0
M  V30 2324 H 222.278 -3.8506 1.34881 0
M  V30 2325 H 220.953 -3.39232 2.40612 0
M  V30 2326 H 219.53 -3.68082 0.597522 0
M  V30 2327 N 221.715 -0.905404 -1.28997 0
M  V30 2328 C 222.647 -0.344748 -2.26592 0
M  V30 2329 C 223.66 0.512135 -1.54535 0
M  V30 2330 O 224.849 0.328368 -1.75454 0
M  V30 2331 C 221.949 0.526587 -3.34784 0
M  V30 2332 C 221.122 -0.305871 -4.36329 0
M  V30 2333 C 220.181 0.499209 -5.23827 0
M  V30 2334 O 219.207 -0.0853004 -5.69136 0
M  V30 2335 N 220.409 1.80408 -5.51755 0
M  V30 2336 H 223.174 -1.18359 -2.75338 0
M  V30 2337 H 220.735 -0.770481 -1.42391 0
M  V30 2338 H 222.727 1.07171 -3.90252 0
M  V30 2339 H 221.297 1.26613 -2.85811 0
M  V30 2340 H 220.517 -1.0324 -3.80441 0
M  V30 2341 H 221.805 -0.875773 -5.01206 0
M  V30 2342 H 221.203 2.3016 -5.16762 0
M  V30 2343 H 219.76 2.29621 -6.10014 0
M  V30 2344 N 223.193 1.4272 -0.668489 0
M  V30 2345 C 224.441 2.01226 -0.187769 0
M  V30 2346 C 224.762 1.53092 1.2078 0
M  V30 2347 O 224.032 0.74993 1.80977 0
M  V30 2348 H 222.612 0.744041 -0.0664272 0
M  V30 2349 H 225.274 1.74723 -0.863583 0
M  V30 2350 H 224.37 3.11556 -0.184166 0
M  V30 2351 N 224.671 0.411399 1.52136 0
M  V30 2352 C 225.917 -0.163888 2.02137 0
M  V30 2353 C 226.25 -1.44597 1.29636 0
M  V30 2354 O 225.525 -1.90272 0.403353 0
M  V30 2355 C 225.808 -0.40927 3.57767 0
M  V30 2356 C 225.661 0.889643 4.40914 0
M  V30 2357 C 226.98 -1.19042 4.23694 0
M  V30 2358 H 224.099 -0.0580896 0.734707 0
M  V30 2359 H 226.741 0.54531 1.82007 0
M  V30 2360 H 224.891 -1.0134 3.7505 0
M  V30 2361 H 226.563 1.52575 4.35337 0
M  V30 2362 H 224.806 1.50011 4.07037 0
M  V30 2363 H 225.477 0.672314 5.4789 0
M  V30 2364 H 227.953 -0.678942 4.10524 0
M  V30 2365 H 226.829 -1.33086 5.32522 0
M  V30 2366 H 227.09 -2.21166 3.82803 0
M  V30 2367 N 226.149 -1.5696 0.141893 0
M  V30 2368 C 227.397 -1.95573 -0.509484 0
M  V30 2369 C 227.718 -1.02746 -1.65736 0
M  V30 2370 O 226.988 -0.0880311 -1.95702 0
M  V30 2371 H 225.568 -0.722115 -0.191205 0
M  V30 2372 H 228.23 -1.93697 0.216196 0
M  V30 2373 H 227.326 -2.99171 -0.889 0
M  V30 2374 N 227.627 0.131896 -1.57047 0
M  V30 2375 C 228.852 0.860418 -1.8871 0
M  V30 2376 C 229.277 1.73251 -0.73251 0
M  V30 2377 O 228.635 1.785 0.317429 0
M  V30 2378 C 228.683 1.68047 -3.19049 0
M  V30 2379 O 227.787 2.7862 -3.04047 0
M  V30 2380 H 227.128 0.238743 -0.619595 0
M  V30 2381 H 229.658 0.118169 -2.04258 0
M  V30 2382 H 229.668 2.07238 -3.51449 0
M  V30 2383 H 228.343 1.04018 -4.02682 0
M  V30 2384 H 226.92 2.42726 -2.83088 0
M  V30 2385 N 229.106 1.52395 0.401703 0
M  V30 2386 C 230.069 1.75636 1.47257 0
M  V30 2387 C 231.069 0.62628 1.48103 0
M  V30 2388 O 232.259 0.894227 1.49497 0
M  V30 2389 C 229.391 1.84553 2.86624 0
M  V30 2390 H 230.584 2.71241 1.27938 0
M  V30 2391 H 228.137 1.42923 0.632662 0
M  V30 2392 H 228.872 0.908882 3.11303 0
M  V30 2393 H 228.657 2.66715 2.87412 0
M  V30 2394 H 230.147 2.04251 3.64241 0
M  V30 2395 N 230.584 -0.659388 1.43143 0
M  V30 2396 C 231.833 -1.41518 1.43721 0
M  V30 2397 C 232.146 -1.95499 0.0628176 0
M  V30 2398 O 233.352 -2.71446 -0.0539683 0
M  V30 2399 C 231.808 -2.5608 2.52885 0
M  V30 2400 C 231.416 -2.08733 3.96402 0
M  V30 2401 C 233.16 -3.3349 2.62649 0
M  V30 2402 C 231.067 -3.20469 4.97045 0
M  V30 2403 H 229.997 -0.531705 0.534608 0
M  V30 2404 H 232.648 -0.712343 1.69109 0
M  V30 2405 H 231.03 -3.28805 2.20688 0
M  V30 2406 H 232.204 -1.43059 4.3803 0
M  V30 2407 H 230.519 -1.44219 3.90627 0
M  V30 2408 H 233.116 -4.16734 3.35017 0
M  V30 2409 H 233.459 -3.8111 1.67513 0
M  V30 2410 H 233.992 -2.67842 2.94118 0
M  V30 2411 H 230.731 -2.77824 5.93712 0
M  V30 2412 H 230.251 -3.84874 4.60034 0
M  V30 2413 H 231.93 -3.85698 5.19467 0
M  V30 2414 N 232.062 -1.29571 -0.897171 0
M  V30 2415 C 233.025 -1.14913 -1.98312 0
M  V30 2416 C 234.025 -0.0838629 -1.60581 0
M  V30 2417 O 235.215 -0.331006 -1.71026 0
M  V30 2418 C 232.347 -0.757835 -3.3237 0
M  V30 2419 H 233.54 -2.11377 -2.12743 0
M  V30 2420 H 231.093 -1.12793 -1.08201 0
M  V30 2421 H 231.828 0.206837 -3.2364 0
M  V30 2422 H 231.613 -1.52755 -3.61121 0
M  V30 2423 H 233.103 -0.678408 -4.12053 0
M  V30 2424 N 233.54 1.10788 -1.12088 0
M  V30 2425 C 234.765 1.87002 -0.896949 0
M  V30 2426 C 235.19 1.79933 0.548261 0
M  V30 2427 O 234.548 1.16662 1.38779 0
M  V30 2428 C 234.596 3.3349 -1.37174 0
M  V30 2429 O 233.7 4.08745 -0.547831 0
M  V30 2430 H 233.041 0.580397 -0.322545 0
M  V30 2431 H 235.571 1.39996 -1.49206 0
M  V30 2432 H 235.581 3.84339 -1.36922 0
M  V30 2433 H 234.256 3.37951 -2.42408 0
M  V30 2434 H 232.833 3.6776 -0.617034 0
M  V30 2435 N 235.018 0.912232 1.28515 0
M  V30 2436 C 236.429 0.591352 1.77087 0
M  V30 2437 C 236.78 -0.8933 1.74684 0
M  V30 2438 O 235.905 -1.69876 1.34056 0
M  V30 2439 C 236.5 1.06668 3.2157 0
M  V30 2440 C 235.059 0.79675 3.67871 0
M  V30 2441 C 234.206 1.23427 2.48316 0
M  V30 2442 H 237.157 1.09365 1.15 0
M  V30 2443 H 237.178 0.407455 3.78312 0
M  V30 2444 H 236.69 2.14726 3.23287 0
M  V30 2445 H 234.791 -0.270679 3.71616 0
M  V30 2446 H 234.904 1.40343 4.58084 0
M  V30 2447 H 233.268 0.653036 2.46186 0
M  V30 2448 H 234.051 2.32316 2.52753 0
M  V30 2449 N 236.496 -1.42363 0.676048 0
M  V30 2450 C 237.724 -2.05859 0.207268 0
M  V30 2451 C 238.139 -1.50796 -1.13605 0
M  V30 2452 O 237.496 -0.648265 -1.70598 0
M  V30 2453 C 237.547 -3.61248 0.134975 0
M  V30 2454 O 237.268 -4.1427 1.42521 0
M  V30 2455 C 238.769 -4.41859 -0.357151 0
M  V30 2456 H 235.989 -0.663431 0.100503 0
M  V30 2457 H 238.533 -1.82479 0.923136 0
M  V30 2458 H 236.688 -3.83735 -0.531588 0
M  V30 2459 H 237.102 -5.0815 1.29939 0
M  V30 2460 H 238.576 -5.50847 -0.356641 0
M  V30 2461 H 239.053 -4.16536 -1.39264 0
M  V30 2462 H 239.659 -4.24392 0.27772 0
M  V30 2463 N 237.974 -0.419461 -1.51915 0
M  V30 2464 C 239.222 0.152637 -2.01523 0
M  V30 2465 C 239.543 1.44762 -1.30649 0
M  V30 2466 O 238.813 1.90997 -0.435535 0
M  V30 2467 H 237.393 0.0593966 -0.744635 0
M  V30 2468 H 240.055 -0.558073 -1.86739 0
M  V30 2469 H 239.151 0.341369 -3.10227 0
M  V30 2470 N 239.452 1.56882 -0.150215 0
M  V30 2471 C 240.382 2.19935 0.784284 0
M  V30 2472 C 241.363 1.14854 1.25469 0
M  V30 2473 O 242.548 1.43209 1.31168 0
M  V30 2474 C 239.678 2.82349 2.02229 0
M  V30 2475 C 238.632 3.93285 1.68853 0
M  V30 2476 C 237.958 4.42649 2.99944 0
M  V30 2477 C 239.258 5.13904 0.932714 0
M  V30 2478 H 240.952 2.9828 0.258781 0
M  V30 2479 H 238.498 1.43473 0.123029 0
M  V30 2480 H 240.451 3.25126 2.68088 0
M  V30 2481 H 239.175 2.0134 2.57157 0
M  V30 2482 H 237.834 3.5113 1.05371 0
M  V30 2483 H 237.482 3.58458 3.52869 0
M  V30 2484 H 237.182 5.17476 2.78374 0
M  V30 2485 H 238.706 4.88099 3.66868 0
M  V30 2486 H 240.12 5.53506 1.49345 0
M  V30 2487 H 238.517 5.94515 0.81684 0
M  V30 2488 H 239.587 4.84842 -0.0749568 0
M  V30 2489 N 240.93 -0.123565 1.57115 0
M  V30 2490 C 241.893 -1.13583 1.99076 0
M  V30 2491 C 242.893 -1.34564 0.880296 0
M  V30 2492 O 244.083 -1.31158 1.14644 0
M  V30 2493 C 241.215 -2.49128 2.32698 0
M  V30 2494 H 242.408 -0.775287 2.89706 0
M  V30 2495 H 239.961 -0.36771 1.51913 0
M  V30 2496 H 240.696 -2.90111 1.44934 0
M  V30 2497 H 240.481 -2.35255 3.13684 0
M  V30 2498 H 241.971 -3.2199 2.65918 0
M  V30 2499 N 242.408 -1.52605 -0.393616 0
M  V30 2500 C 243.338 -1.80022 -1.48709 0
M  V30 2501 C 244.319 -0.651995 -1.57108 0
M  V30 2502 O 245.504 -0.89913 -1.72132 0
M  V30 2503 C 242.634 -1.96492 -2.86371 0
M  V30 2504 C 241.588 -3.12161 -2.92813 0
M  V30 2505 C 240.914 -3.13877 -4.3288 0
M  V30 2506 C 242.214 -4.51322 -2.6288 0
M  V30 2507 H 243.908 -2.71589 -1.26015 0
M  V30 2508 H 241.454 -1.30684 -0.604778 0
M  V30 2509 H 243.407 -2.14255 -3.62867 0
M  V30 2510 H 242.131 -1.01611 -3.10391 0
M  V30 2511 H 240.79 -2.94173 -2.18764 0
M  V30 2512 H 240.438 -2.16687 -4.53933 0
M  V30 2513 H 240.138 -3.91576 -4.38112 0
M  V30 2514 H 241.662 -3.33789 -5.1129 0
M  V30 2515 H 243.076 -4.69435 -3.29096 0
M  V30 2516 H 241.473 -5.31053 -2.79468 0
M  V30 2517 H 242.543 -4.58353 -1.58242 0
M  V30 2518 N 243.887 0.651787 -1.4349 0
M  V30 2519 C 245.133 1.41376 -1.45398 0
M  V30 2520 C 245.466 1.94041 -0.0784823 0
M  V30 2521 O 244.741 1.72379 0.900878 0
M  V30 2522 C 245.024 2.59414 -2.49752 0
M  V30 2523 C 244.877 2.12232 -3.96582 0
M  V30 2524 C 246.196 3.61626 -2.50827 0
M  V30 2525 H 243.315 0.512719 -0.529422 0
M  V30 2526 H 245.957 0.738796 -1.75048 0
M  V30 2527 H 244.107 3.16997 -2.246 0
M  V30 2528 H 245.779 1.59639 -4.32797 0
M  V30 2529 H 244.022 1.43592 -4.09346 0
M  V30 2530 H 244.693 2.9712 -4.65214 0
M  V30 2531 H 247.169 3.13805 -2.7325 0
M  V30 2532 H 246.045 4.41766 -3.25783 0
M  V30 2533 H 246.306 4.14314 -1.5426 0
M  V30 2534 N 245.365 1.30045 0.890287 0
M  V30 2535 C 246.328 1.15963 1.977 0
M  V30 2536 C 247.328 0.0923777 1.60534 0
M  V30 2537 O 248.518 0.340071 1.70848 0
M  V30 2538 C 245.65 0.775451 3.31963 0
M  V30 2539 H 246.843 2.12502 2.11619 0
M  V30 2540 H 244.396 1.13366 1.07601 0
M  V30 2541 H 245.131 -0.189671 3.23745 0
M  V30 2542 H 244.916 1.54668 3.60306 0
M  V30 2543 H 246.406 0.700251 4.11687 0
M  V30 2544 N 246.843 -1.10192 1.12674 0
M  V30 2545 C 248.071 -1.85983 0.906527 0
M  V30 2546 C 248.486 -1.80783 -0.544333 0
M  V30 2547 O 247.843 -1.19834 -1.37645 0
M  V30 2548 C 247.894 -3.34281 1.37618 0
M  V30 2549 O 247.615 -3.39401 2.77017 0
M  V30 2550 C 249.116 -4.26938 1.19325 0
M  V30 2551 H 246.336 -0.587716 0.323775 0
M  V30 2552 H 248.88 -1.39284 1.49734 0
M  V30 2553 H 247.035 -3.78436 0.828539 0
M  V30 2554 H 247.449 -4.31838 2.97684 0
M  V30 2555 H 248.923 -5.29181 1.57071 0
M  V30 2556 H 249.4 -4.38995 0.134097 0
M  V30 2557 H 250.006 -3.8859 1.72852 0
M  V30 2558 N 248.321 -0.919034 -1.28029 0
M  V30 2559 C 249.549 -0.570971 -1.98866 0
M  V30 2560 C 249.964 0.848996 -1.68634 0
M  V30 2561 O 249.321 1.56307 -0.942036 0
M  V30 2562 C 249.372 -0.776876 -3.53054 0
M  V30 2563 O 249.093 -2.14097 -3.82222 0
M  V30 2564 C 250.594 -0.436356 -4.41147 0
M  V30 2565 H 247.814 -0.217175 -0.634883 0
M  V30 2566 H 250.358 -1.23368 -1.63097 0
M  V30 2567 H 248.513 -0.161085 -3.87065 0
M  V30 2568 H 248.927 -2.18455 -4.76841 0
M  V30 2569 H 250.401 -0.63117 -5.4838 0
M  V30 2570 H 250.878 0.627686 -4.34692 0
M  V30 2571 H 251.484 -1.02991 -4.12641 0
M  V30 2572 N 249.799 1.42003 -0.683588 0
M  V30 2573 C 251.046 2.01413 -0.209514 0
M  V30 2574 C 251.374 1.54088 1.1869 0
M  V30 2575 O 250.629 0.737591 1.81268 0
M  V30 2576 C 250.928 3.56827 -0.202357 0
M  V30 2577 C 250.594 4.23617 -1.54464 0
M  V30 2578 C 249.256 4.41577 -1.91215 0
M  V30 2579 C 251.608 4.61178 -2.42826 0
M  V30 2580 C 248.936 4.9437 -3.15935 0
M  V30 2581 C 251.288 5.15355 -3.66867 0
M  V30 2582 C 249.952 5.31528 -4.03776 0
M  V30 2583 H 249.222 0.737023 -0.0766668 0
M  V30 2584 H 251.869 1.70067 -0.880312 0
M  V30 2585 H 250.174 3.87892 0.551969 0
M  V30 2586 H 251.871 4.00588 0.181793 0
M  V30 2587 H 248.461 4.10004 -1.24877 0
M  V30 2588 H 252.645 4.46968 -2.15717 0
M  V30 2589 H 247.901 5.05076 -3.44541 0
M  V30 2590 H 252.075 5.43402 -4.35531 0
M  V30 2591 H 249.702 5.72199 -5.00492 0
M  V30 2592 N 251.277 0.427512 1.51691 0
M  V30 2593 C 252.688 -0.0378867 1.86662 0
M  V30 2594 C 253.039 -1.42819 1.34525 0
M  V30 2595 O 252.164 -2.05037 0.692014 0
M  V30 2596 C 252.759 -0.0755266 3.38716 0
M  V30 2597 C 251.318 -0.485309 3.73258 0
M  V30 2598 C 250.465 0.328399 2.75349 0
M  V30 2599 H 253.416 0.64379 1.45055 0
M  V30 2600 H 253.437 -0.887056 3.70016 0
M  V30 2601 H 252.949 0.936487 3.76632 0
M  V30 2602 H 251.05 -1.50329 3.40928 0
M  V30 2603 H 251.163 -0.21693 4.78609 0
M  V30 2604 H 249.527 -0.211905 2.53817 0
M  V30 2605 H 250.31 1.3391 3.16106 0
M  V30 2606 N 252.755 -1.56801 0.158532 0
M  V30 2607 C 253.702 -2.17337 -0.776729 0
M  V30 2608 C 254.672 -1.1096 -1.23601 0
M  V30 2609 O 255.857 -1.39054 -1.30647 0
M  V30 2610 C 252.997 -2.80822 -2.00582 0
M  V30 2611 C 252.11 -4.01624 -1.59129 0
M  V30 2612 C 251.245 -4.53072 -2.77306 0
M  V30 2613 C 250.284 -5.66314 -2.32282 0
M  V30 2614 N 249.421 -6.12329 -3.43508 0
M  V30 2615 H 254.261 -2.96918 -0.253701 0
M  V30 2616 H 251.798 -1.46661 -0.113504 0
M  V30 2617 H 253.756 -3.15779 -2.72652 0
M  V30 2618 H 252.386 -2.03866 -2.50277 0
M  V30 2619 H 251.438 -3.72571 -0.767806 0
M  V30 2620 H 252.75 -4.83633 -1.2207 0
M  V30 2621 H 251.904 -4.90145 -3.57551 0
M  V30 2622 H 250.643 -3.70095 -3.17617 0
M  V30 2623 H 249.648 -5.28806 -1.5048 0
M  V30 2624 H 250.873 -6.51085 -1.93043 0
M  V30 2625 H 248.819 -5.32284 -3.83418 0
M  V30 2626 H 248.736 -6.89293 -3.105 0
M  V30 2627 H 250.004 -6.5405 -4.24075 0
M  V30 2628 N 254.233 0.115231 -1.57178 0
M  V30 2629 C 255.481 0.820727 -1.84685 0
M  V30 2630 C 255.802 1.80237 -0.744279 0
M  V30 2631 O 255.072 1.94529 0.231375 0
M  V30 2632 H 253.652 0.306084 -0.681411 0
M  V30 2633 H 256.314 0.101656 -1.94635 0
M  V30 2634 H 255.41 1.36366 -2.80733 0
M  V30 2635 N 255.711 1.52812 0.385517 0
M  V30 2636 C 257.122 1.5993 0.963293 0
M  V30 2637 C 257.473 0.454302 1.90868 0
M  V30 2638 O 256.598 -0.422132 2.12243 0
M  V30 2639 C 257.193 2.89871 1.75387 0
M  V30 2640 C 255.752 2.99389 2.28129 0
M  V30 2641 C 254.899 2.55071 1.08783 0
M  V30 2642 H 257.85 1.5784 0.164948 0
M  V30 2643 H 257.871 2.76553 2.61341 0
M  V30 2644 H 257.383 3.73186 1.06554 0
M  V30 2645 H 255.484 2.20619 3.00263 0
M  V30 2646 H 255.597 4.04096 2.57377 0
M  V30 2647 H 253.961 2.09473 1.4489 0
M  V30 2648 H 254.744 3.40785 0.414807 0
M  V30 2649 N 257.189 -0.644168 1.43834 0
M  V30 2650 C 258.152 -1.73857 1.49353 0
M  V30 2651 C 259.152 -1.56315 0.377112 0
M  V30 2652 O 260.342 -1.62048 0.639226 0
M  V30 2653 C 257.474 -3.12819 1.35488 0
M  V30 2654 H 258.667 -1.70342 2.46827 0
M  V30 2655 H 256.22 -0.856652 1.30733 0
M  V30 2656 H 256.955 -3.2194 0.390569 0
M  V30 2657 H 256.74 -3.26958 2.16428 0
M  V30 2658 H 258.23 -3.92606 1.42302 0
M  V30 2659 N 258.668 -1.30515 -0.883378 0
M  V30 2660 C 260.084 -1.08881 -1.16692 0
M  V30 2661 C 260.284 0.149409 -2.00945 0
M  V30 2662 O 259.34 0.84257 -2.38027 0
M  V30 2663 C 260.653 -2.35319 -1.87204 0
M  V30 2664 C 262.201 -2.40799 -1.99962 0
M  V30 2665 C 262.676 -3.67083 -2.73887 0
M  V30 2666 N 264.167 -3.679 -2.81432 0
M  V30 2667 C 264.902 -4.62303 -3.3921 0
M  V30 2668 N 264.398 -5.67052 -3.98025 0
M  V30 2669 N 266.191 -4.49845 -3.3704 0
M  V30 2670 H 258.342 -2.09951 -0.321633 0
M  V30 2671 H 260.605 -0.92556 -0.205043 0
M  V30 2672 H 260.311 -3.25689 -1.3274 0
M  V30 2673 H 260.185 -2.44089 -2.87577 0
M  V30 2674 H 262.572 -1.50907 -2.53597 0
M  V30 2675 H 262.653 -2.36003 -0.98673 0
M  V30 2676 H 262.297 -4.57334 -2.20925 0
M  V30 2677 H 262.227 -3.69141 -3.75556 0
M  V30 2678 H 264.718 -2.92171 -2.39676 0
M  V30 2679 H 265.031 -6.35184 -4.40183 0
M  V30 2680 H 263.376 -5.70842 -3.96439 0
M  V30 2681 H 266.567 -3.67194 -2.90321 0
M  V30 2682 H 266.74 -5.23597 -3.81772 0
M  V30 2683 N 260.146 1.09593 -1.13257 0
M  V30 2684 C 261.094 2.18271 -0.803783 0
M  V30 2685 C 262.088 1.68054 0.213148 0
M  V30 2686 O 263.294 1.79862 0.0704699 0
M  V30 2687 H 259.669 0.711949 -0.242143 0
M  V30 2688 H 261.64 2.43235 -1.72856 0
M  V30 2689 C 260.389 3.46536 -0.28424 0
M  V30 2690 H 259.712 3.85545 -1.05807 0
M  V30 2691 H 261.152 4.23899 -0.0925945 0
M  V30 2692 C 259.611 3.22036 0.989684 0
M  V30 2693 O 260.141 3.44509 2.06584 0
M  V30 2694 N 258.347 2.7565 0.920086 0
M  V30 2695 H 257.894 2.57562 0.0442019 0
M  V30 2696 H 257.852 2.59635 1.77306 0
M  V30 2697 N 261.624 0.925811 1.2754 0
M  V30 2698 C 262.587 0.428129 2.25166 0
M  V30 2699 C 263.587 -0.452261 1.54309 0
M  V30 2700 O 264.777 -0.253608 1.72344 0
M  V30 2701 C 261.909 -0.384749 3.38722 0
M  V30 2702 H 263.102 1.29066 2.70706 0
M  V30 2703 H 260.655 0.706323 1.3943 0
M  V30 2704 H 261.39 -1.26618 2.98561 0
M  V30 2705 H 261.175 0.246454 3.91325 0
M  V30 2706 H 262.665 -0.723389 4.11287 0
M  V30 2707 N 263.102 -1.41638 0.69111 0
M  V30 2708 C 264.065 -2.29178 0.0319786 0
M  V30 2709 C 265.065 -1.44153 -0.712496 0
M  V30 2710 O 266.255 -1.65354 -0.548053 0
M  V30 2711 C 263.387 -3.26952 -0.965161 0
M  V30 2712 H 264.58 -2.88959 0.802681 0
M  V30 2713 H 262.133 -1.4955 0.454356 0
M  V30 2714 H 262.868 -2.72142 -1.76378 0
M  V30 2715 H 262.653 -3.89685 -0.434522 0
M  V30 2716 H 264.143 -3.92561 -1.42428 0
M  V30 2717 N 264.58 -0.43555 -1.51462 0
M  V30 2718 C 265.808 0.130242 -2.0649 0
M  V30 2719 C 266.223 1.36614 -1.30315 0
M  V30 2720 O 265.58 1.78869 -0.362223 0
M  V30 2721 C 265.631 0.454253 -3.58635 0
M  V30 2722 O 265.352 -0.73259 -4.31931 0
M  V30 2723 C 266.853 1.07091 -4.3017 0
M  V30 2724 H 264.073 0.00871669 -0.670943 0
M  V30 2725 H 266.617 -0.614117 -1.95061 0
M  V30 2726 H 264.772 1.14851 -3.69984 0
M  V30 2727 H 265.186 -0.455787 -5.22516 0
M  V30 2728 H 266.66 1.24764 -5.37716 0
M  V30 2729 H 267.137 2.05144 -3.88346 0
M  V30 2730 H 267.743 0.416089 -4.2326 0
M  V30 2731 N 266.058 1.56714 -0.166846 0
M  V30 2732 C 267.021 2.16539 0.751232 0
M  V30 2733 C 268.021 1.11228 1.16125 0
M  V30 2734 O 269.211 1.36765 1.07894 0
M  V30 2735 C 266.343 2.74462 2.02196 0
M  V30 2736 H 267.536 2.99013 0.230499 0
M  V30 2737 H 265.089 1.56081 0.0826982 0
M  V30 2738 H 265.824 1.95709 2.58589 0
M  V30 2739 H 265.609 3.51527 1.73698 0
M  V30 2740 H 267.099 3.20489 2.67725 0
M  V30 2741 N 267.536 -0.106894 1.57237 0
M  V30 2742 C 268.782 -0.81373 1.85759 0
M  V30 2743 C 269.115 -1.78952 0.754315 0
M  V30 2744 O 268.39 -1.93029 -0.23879 0
M  V30 2745 C 268.673 -1.55293 3.24894 0
M  V30 2746 C 268.526 -0.595929 4.45835 0
M  V30 2747 C 269.845 -2.5063 3.61763 0
M  V30 2748 H 266.964 -0.294369 0.67566 0
M  V30 2749 H 269.606 -0.0776472 1.89841 0
M  V30 2750 H 267.756 -2.1804 3.21544 0
M  V30 2751 H 269.428 0.0236262 4.61294 0
M  V30 2752 H 267.671 0.0916191 4.33703 0
M  V30 2753 H 268.342 -1.15004 5.39887 0
M  V30 2754 H 270.818 -1.97982 3.65981 0
M  V30 2755 H 269.694 -2.99376 4.60071 0
M  V30 2756 H 269.955 -3.3385 2.89821 0
M  V30 2757 N 269.014 -1.53014 -0.377408 0
M  V30 2758 C 270.261 -1.68623 -1.12128 0
M  V30 2759 C 270.589 -0.431997 -1.89642 0
M  V30 2760 O 269.844 0.585855 -1.86725 0
M  V30 2761 C 270.143 -2.87982 -2.11663 0
M  V30 2762 C 269.809 -4.24964 -1.50719 0
M  V30 2763 C 268.471 -4.62217 -1.33825 0
M  V30 2764 C 270.823 -5.10199 -1.06519 0
M  V30 2765 C 268.151 -5.82352 -0.712963 0
M  V30 2766 C 270.503 -6.30969 -0.453955 0
M  V30 2767 C 269.167 -6.66944 -0.272411 0
M  V30 2768 H 268.437 -0.617034 -0.410305 0
M  V30 2769 H 271.084 -1.8718 -0.404484 0
M  V30 2770 H 269.389 -2.63889 -2.89603 0
M  V30 2771 H 271.086 -2.97253 -2.6915 0
M  V30 2772 H 267.676 -3.95626 -1.64858 0
M  V30 2773 H 271.86 -4.81978 -1.18368 0
M  V30 2774 H 267.116 -6.08824 -0.560611 0
M  V30 2775 H 271.29 -6.96324 -0.103217 0
M  V30 2776 H 268.917 -7.59898 0.214181 0
M  V30 2777 N 270.492 0.636531 -1.44174 0
M  V30 2778 C 271.455 1.73063 -1.50273 0
M  V30 2779 C 272.455 1.56113 -0.385397 0
M  V30 2780 O 273.645 1.61707 -0.64781 0
M  V30 2781 C 270.777 3.12096 -1.37145 0
M  V30 2782 H 271.97 1.69031 -2.47727 0
M  V30 2783 H 269.523 0.849706 -1.31186 0
M  V30 2784 H 270.258 3.21728 -0.407636 0
M  V30 2785 H 270.043 3.25805 -2.18159 0
M  V30 2786 H 271.533 3.91846 -1.44382 0
M  V30 2787 N 271.97 1.30982 0.876444 0
M  V30 2788 C 272.933 1.18054 1.96459 0
M  V30 2789 C 273.933 0.109399 1.60427 0
M  V30 2790 O 275.123 0.358173 1.70478 0
M  V30 2791 C 272.255 0.810616 3.31122 0
M  V30 2792 H 273.448 2.14735 2.09354 0
M  V30 2793 H 271.001 1.145 1.06392 0
M  V30 2794 H 271.736 -0.155322 3.23928 0
M  V30 2795 H 271.521 1.58481 3.58645 0
M  V30 2796 H 273.011 0.743876 4.10921 0
M  V30 2797 N 273.449 -1.08991 1.13837 0
M  V30 2798 C 274.382 -2.15049 0.763477 0
M  V30 2799 C 275.36 -1.60629 -0.252398 0
M  V30 2800 O 276.544 -1.87958 -0.142853 0
M  V30 2801 C 273.671 -3.38441 0.132545 0
M  V30 2802 C 272.717 -4.11596 1.11763 0
M  V30 2803 S 273.55 -4.6521 2.65216 0
M  V30 2804 C 274.706 -5.91896 2.03495 0
M  V30 2805 H 274.939 -2.46518 1.66182 0
M  V30 2806 H 272.472 -1.21008 0.958976 0
M  V30 2807 H 274.43 -4.09883 -0.225074 0
M  V30 2808 H 273.091 -3.05182 -0.743135 0
M  V30 2809 H 272.284 -5.00121 0.624076 0
M  V30 2810 H 271.886 -3.46038 1.41894 0
M  V30 2811 H 274.178 -6.63156 1.38675 0
M  V30 2812 H 275.121 -6.45938 2.9012 0
M  V30 2813 H 275.529 -5.44625 1.48471 0
M  V30 2814 N 274.927 -0.932562 -1.27047 0
M  V30 2815 C 276.155 -0.592031 -1.98249 0
M  V30 2816 C 276.57 0.831062 -1.69525 0
M  V30 2817 O 275.927 1.55299 -0.958561 0
M  V30 2818 C 275.978 -0.814279 -3.5221 0
M  V30 2819 O 275.699 -2.18139 -3.7993 0
M  V30 2820 C 277.2 -0.483121 -4.4066 0
M  V30 2821 H 274.42 -0.223896 -0.632544 0
M  V30 2822 H 276.964 -1.25091 -1.61779 0
M  V30 2823 H 275.119 -0.20213 -3.86872 0
M  V30 2824 H 275.533 -2.235 -4.74498 0
M  V30 2825 H 277.007 -0.689298 -5.47679 0
M  V30 2826 H 277.484 0.581546 -4.35333 0
M  V30 2827 H 278.09 -1.07362 -4.11526 0
M  V30 2828 N 276.405 1.4127 -0.698611 0
M  V30 2829 C 277.368 2.29158 -0.044132 0
M  V30 2830 C 278.368 1.44529 0.704841 0
M  V30 2831 O 279.558 1.65643 0.539276 0
M  V30 2832 C 276.69 3.27459 0.947809 0
M  V30 2833 H 277.883 2.88529 -0.817994 0
M  V30 2834 H 275.436 1.49307 -0.46228 0
M  V30 2835 H 276.171 2.73073 1.74933 0
M  V30 2836 H 275.956 3.8991 0.41385 0
M  V30 2837 H 277.446 3.93311 1.40344 0
M  V30 2838 N 277.883 0.443576 1.51229 0
M  V30 2839 C 279.132 -0.122332 2.01329 0
M  V30 2840 C 279.445 -1.43237 1.33201 0
M  V30 2841 O 280.651 -2.0816 1.74304 0
M  V30 2842 C 279.107 -0.268551 3.58897 0
M  V30 2843 C 278.715 1.03142 4.35965 0
M  V30 2844 C 280.459 -0.787894 4.17124 0
M  V30 2845 C 278.366 0.850504 5.85252 0
M  V30 2846 H 277.296 -0.0494929 0.752374 0
M  V30 2847 H 279.947 0.574289 1.74282 0
M  V30 2848 H 278.329 -1.02832 3.82415 0
M  V30 2849 H 279.503 1.80001 4.24189 0
M  V30 2850 H 277.818 1.47977 3.89219 0
M  V30 2851 H 280.415 -0.939841 5.26375 0
M  V30 2852 H 280.758 -1.77201 3.76703 0
M  V30 2853 H 281.291 -0.0862669 3.97706 0
M  V30 2854 H 278.03 1.80718 6.30096 0
M  V30 2855 H 277.55 0.121825 5.99676 0
M  V30 2856 H 279.229 0.506163 6.45017 0
M  V30 2857 N 279.361 -1.56624 0.175154 0
M  V30 2858 C 280.609 -1.96609 -0.467885 0
M  V30 2859 C 280.93 -1.06238 -1.63519 0
M  V30 2860 O 280.2 -0.129523 -1.95471 0
M  V30 2861 H 278.78 -0.726008 -0.175845 0
M  V30 2862 H 281.442 -1.93195 0.257234 0
M  V30 2863 H 280.538 -3.00989 -0.825342 0
M  V30 2864 N 280.839 0.0985539 -1.57292 0
M  V30 2865 C 282.064 0.820196 -1.90493 0
M  V30 2866 C 282.489 1.71658 -0.769094 0
M  V30 2867 O 281.847 1.79133 0.279495 0
M  V30 2868 C 281.895 1.61242 -3.22542 0
M  V30 2869 O 280.999 2.72108 -3.09888 0
M  V30 2870 H 280.34 0.225547 -0.62452 0
M  V30 2871 H 282.87 0.0748159 -2.04463 0
M  V30 2872 H 282.88 1.99737 -3.55766 0
M  V30 2873 H 281.555 0.954535 -4.04798 0
M  V30 2874 H 280.132 2.36667 -2.88172 0
M  V30 2875 N 282.317 1.53212 0.369288 0
M  V30 2876 C 283.563 1.69466 1.11397 0
M  V30 2877 C 283.896 0.443257 1.89074 0
M  V30 2878 O 283.171 -0.559386 1.86282 0
M  V30 2879 C 283.454 2.9422 2.07621 0
M  V30 2880 C 283.307 4.29508 1.33577 0
M  V30 2881 C 284.626 3.14565 3.07794 0
M  V30 2882 H 281.745 0.616667 0.403597 0
M  V30 2883 H 284.387 1.85845 0.395179 0
M  V30 2884 H 282.537 2.80387 2.68916 0
M  V30 2885 H 284.209 4.55147 0.750955 0
M  V30 2886 H 282.452 4.29088 0.637618 0
M  V30 2887 H 283.123 5.12926 2.03989 0
M  V30 2888 H 285.599 3.2756 2.56601 0
M  V30 2889 H 284.475 4.03297 3.72348 0
M  V30 2890 H 284.736 2.29675 3.77759 0
M  V30 2891 N 283.795 -0.628877 1.44509 0
M  V30 2892 C 284.728 -1.75367 1.46019 0
M  V30 2893 C 285.706 -1.59444 0.318787 0
M  V30 2894 O 286.89 -1.81297 0.516099 0
M  V30 2895 C 284.017 -3.12965 1.29501 0
M  V30 2896 C 283.063 -3.47532 2.47233 0
M  V30 2897 S 283.896 -3.44758 4.09758 0
M  V30 2898 C 285.052 -4.84973 3.95667 0
M  V30 2899 H 285.285 -1.7382 2.41193 0
M  V30 2900 H 282.818 -0.803686 1.31834 0
M  V30 2901 H 284.776 -3.92367 1.20658 0
M  V30 2902 H 283.437 -3.12049 0.358341 0
M  V30 2903 H 282.63 -4.47664 2.31544 0
M  V30 2904 H 282.232 -2.75598 2.52828 0
M  V30 2905 H 284.524 -5.74255 3.59496 0
M  V30 2906 H 285.467 -5.05716 4.95638 0
M  V30 2907 H 285.875 -4.59653 3.27688 0
M  V30 2908 N 285.273 -1.31445 -0.869486 0
M  V30 2909 C 286.521 -1.20918 -1.61936 0
M  V30 2910 C 286.842 0.232683 -1.93607 0
M  V30 2911 O 286.112 1.15352 -1.58338 0
M  V30 2912 H 284.692 -0.44454 -0.600328 0
M  V30 2913 H 287.354 -1.64776 -1.0409 0
M  V30 2914 H 286.45 -1.78124 -2.56278 0
M  V30 2915 N 286.751 1.08385 -1.14413 0
M  V30 2916 C 287.681 2.17321 -0.854044 0
M  V30 2917 C 288.662 1.69024 0.191049 0
M  V30 2918 O 289.847 1.94141 0.0476779 0
M  V30 2919 C 286.977 3.45719 -0.330983 0
M  V30 2920 C 285.931 4.07409 -1.31155 0
M  V30 2921 C 285.257 5.30762 -0.64778 0
M  V30 2922 C 286.557 4.48665 -2.67388 0
M  V30 2923 H 288.251 2.41845 -1.76498 0
M  V30 2924 H 285.797 1.16233 -0.850051 0
M  V30 2925 H 287.75 4.21241 -0.115645 0
M  V30 2926 H 286.474 3.2075 0.615381 0
M  V30 2927 H 285.133 3.33919 -1.51306 0
M  V30 2928 H 284.781 5.02078 0.304398 0
M  V30 2929 H 284.481 5.72992 -1.30207 0
M  V30 2930 H 286.005 6.08998 -0.441972 0
M  V30 2931 H 287.419 5.15364 -2.51143 0
M  V30 2932 H 285.816 5.01814 -3.29093 0
M  V30 2933 H 286.886 3.60543 -3.24248 0
M  V30 2934 N 288.23 0.939286 1.26551 0
M  V30 2935 C 289.476 0.586715 1.94128 0
M  V30 2936 C 289.809 -0.8717 1.73537 0
M  V30 2937 O 289.084 -1.62339 1.07127 0
M  V30 2938 C 289.367 0.927497 3.4795 0
M  V30 2939 C 289.22 2.44052 3.77834 0
M  V30 2940 C 290.539 0.441569 4.37879 0
M  V30 2941 H 287.658 0.21463 0.705055 0
M  V30 2942 H 290.3 1.17316 1.49455 0
M  V30 2943 H 288.45 0.428431 3.8613 0
M  V30 2944 H 290.122 3.01216 3.4938 0
M  V30 2945 H 288.365 2.8848 3.23978 0
M  V30 2946 H 289.036 2.62947 4.85348 0
M  V30 2947 H 291.512 0.869448 4.06915 0
M  V30 2948 H 290.388 0.708856 5.44304 0
M  V30 2949 H 290.649 -0.658467 4.37169 0
M  V30 2950 N 289.708 -1.40897 0.706093 0
M  V30 2951 C 290.954 -2.01352 0.241889 0
M  V30 2952 C 291.287 -1.55832 -1.15888 0
M  V30 2953 O 290.562 -0.774145 -1.7843 0
M  V30 2954 C 290.845 -3.58752 0.311311 0
M  V30 2955 C 290.698 -4.1437 1.74978 0
M  V30 2956 C 292.017 -4.38914 -0.322922 0
M  V30 2957 H 289.136 -0.731562 0.0893687 0
M  V30 2958 H 291.778 -1.67504 0.896802 0
M  V30 2959 H 289.928 -3.87718 -0.246302 0
M  V30 2960 H 291.6 -3.96239 2.36205 0
M  V30 2961 H 289.843 -3.69016 2.28057 0
M  V30 2962 H 290.514 -5.23532 1.74981 0
M  V30 2963 H 292.99 -4.15822 0.152089 0
M  V30 2964 H 291.866 -5.48358 -0.243855 0
M  V30 2965 H 292.127 -4.19176 -1.40513 0
M  V30 2966 N 291.186 -0.45159 -1.50991 0
M  V30 2967 C 292.434 0.109857 -2.01801 0
M  V30 2968 C 292.755 1.41958 -1.3369 0
M  V30 2969 O 292.025 1.9003 -0.475951 0
M  V30 2970 H 290.605 0.0435884 -0.745727 0
M  V30 2971 H 293.267 -0.597557 -1.85514 0
M  V30 2972 H 292.363 0.275489 -3.10882 0
M  V30 2973 N 292.664 1.56529 -0.183458 0
M  V30 2974 C 293.912 1.96855 0.457452 0
M  V30 2975 C 294.233 1.07104 1.62953 0
M  V30 2976 O 293.503 0.139887 1.954 0
M  V30 2977 H 292.083 0.72693 0.171992 0
M  V30 2978 H 294.745 1.93056 -0.267476 0
M  V30 2979 H 293.841 3.01423 0.809368 0
M  V30 2980 N 294.142 -0.090211 1.57342 0
M  V30 2981 C 295.105 -1.09335 2.01441 0
M  V30 2982 C 296.105 -1.32666 0.908641 0
M  V30 2983 O 297.295 -1.28697 1.174 0
M  V30 2984 C 294.427 -2.44136 2.3793 0
M  V30 2985 H 295.62 -0.713662 2.91285 0
M  V30 2986 H 293.173 -0.335404 1.52659 0
M  V30 2987 H 293.908 -2.86972 1.51055 0
M  V30 2988 H 293.693 -2.28548 3.18603 0
M  V30 2989 H 295.183 -3.16277 2.72688 0
M  V30 2990 N 295.62 -1.53406 -0.361157 0
M  V30 2991 C 296.55 -1.83136 -1.44857 0
M  V30 2992 C 297.531 -0.685174 -1.5569 0
M  V30 2993 O 298.716 -0.93544 -1.70186 0
M  V30 2994 C 295.846 -2.02522 -2.82138 0
M  V30 2995 C 294.8 -3.18302 -2.86126 0
M  V30 2996 C 294.126 -3.22989 -4.26125 0
M  V30 2997 C 295.426 -4.56796 -2.53248 0
M  V30 2998 H 297.12 -2.74201 -1.20226 0
M  V30 2999 H 294.666 -1.31938 -0.576922 0
M  V30 3000 H 296.619 -2.21904 -3.58241 0
M  V30 3001 H 295.343 -1.08172 -3.08166 0
M  V30 3002 H 294.002 -2.98747 -2.12475 0
M  V30 3003 H 293.65 -2.26267 -4.49235 0
M  V30 3004 H 293.35 -4.00781 -4.29708 0
M  V30 3005 H 294.874 -3.44559 -5.04094 0
M  V30 3006 H 296.288 -4.7631 -3.19064 0
M  V30 3007 H 294.685 -5.36862 -2.68141 0
M  V30 3008 H 295.755 -4.61606 -1.48484 0
M  V30 3009 N 297.098 0.621204 -1.44841 0
M  V30 3010 C 298.326 1.40752 -1.51646 0
M  V30 3011 C 298.741 1.88246 -0.144549 0
M  V30 3012 O 298.098 1.61422 0.851416 0
M  V30 3013 C 298.149 2.62119 -2.4895 0
M  V30 3014 O 297.87 2.16602 -3.80808 0
M  V30 3015 C 299.371 3.55135 -2.65319 0
M  V30 3016 H 296.591 0.431325 -0.514004 0
M  V30 3017 H 299.135 0.758835 -1.899 0
M  V30 3018 H 297.29 3.23058 -2.13805 0
M  V30 3019 H 297.704 2.95358 -4.33433 0
M  V30 3020 H 299.178 4.36874 -3.37409 0
M  V30 3021 H 299.655 4.04592 -1.70886 0
M  V30 3022 H 300.261 3.00058 -3.01405 0
M  V30 3023 N 298.576 1.31904 0.862503 0
M  V30 3024 C 299.486 1.22161 2.00285 0
M  V30 3025 C 300.502 0.136785 1.73462 0
M  V30 3026 O 301.678 0.355994 1.98229 0
M  V30 3027 C 298.743 0.937093 3.33796 0
M  V30 3028 C 297.804 2.10957 3.73893 0
M  V30 3029 C 297.037 1.83853 5.01033 0
M  V30 3030 O 297.26 0.777274 5.65079 0
M  V30 3031 O 296.194 2.69741 5.38074 0
M  V30 3032 H 300.02 2.18008 2.11439 0
M  V30 3033 H 297.605 1.11716 0.991957 0
M  V30 3034 H 299.487 0.794583 4.13841 0
M  V30 3035 H 298.162 0.00871894 3.23699 0
M  V30 3036 H 297.069 2.30752 2.94456 0
M  V30 3037 H 298.402 3.02046 3.88625 0
M  V30 3038 N 300.054 -1.07777 1.14986 0
M  V30 3039 C 301.3 -1.80557 0.923422 0
M  V30 3040 C 301.633 -1.86298 -0.548337 0
M  V30 3041 O 300.908 -1.34354 -1.40639 0
M  V30 3042 C 301.191 -3.25839 1.53299 0
M  V30 3043 C 301.044 -3.28269 3.07505 0
M  V30 3044 C 302.363 -4.22991 1.21518 0
M  V30 3045 H 299.482 -0.655493 0.336894 0
M  V30 3046 H 302.124 -1.26144 1.42083 0
M  V30 3047 H 300.274 -3.72306 1.10999 0
M  V30 3048 H 301.946 -2.90079 3.58681 0
M  V30 3049 H 300.189 -2.67355 3.4162 0
M  V30 3050 H 300.86 -4.30691 3.45266 0
M  V30 3051 H 303.336 -3.84894 1.581 0
M  V30 3052 H 302.212 -5.22945 1.66793 0
M  V30 3053 H 302.473 -4.41904 0.131505 0
M  V30 3054 N 301.532 -0.945985 -1.26051 0
M  V30 3055 C 302.757 -0.612525 -1.98149 0
M  V30 3056 C 303.182 0.806623 -1.69927 0
M  V30 3057 O 302.54 1.54411 -0.950108 0
M  V30 3058 C 302.588 -0.866981 -3.50023 0
M  V30 3059 O 301.692 0.0585333 -4.12358 0
M  V30 3060 H 301.033 -0.23379 -0.621481 0
M  V30 3061 H 303.563 -1.27023 -1.60395 0
M  V30 3062 H 303.573 -0.789792 -4.00283 0
M  V30 3063 H 302.248 -1.90135 -3.69894 0
M  V30 3064 H 300.825 -0.0701241 -3.72834 0
M  V30 3065 N 303.011 1.40521 -0.713556 0
M  V30 3066 C 304.257 2.01714 -0.261382 0
M  V30 3067 C 304.612 1.55562 1.13217 0
M  V30 3068 O 303.905 0.764893 1.7567 0
M  V30 3069 C 304.099 3.56317 -0.278 0
M  V30 3070 C 303.928 4.17476 -1.67163 0
M  V30 3071 C 302.698 4.50998 -2.2788 0
M  V30 3072 C 304.896 4.42472 -2.6215 0
M  V30 3073 N 302.878 4.9754 -3.5962 0
M  V30 3074 C 304.249 4.90985 -3.78594 0
M  V30 3075 C 306.304 4.24508 -2.60188 0
M  V30 3076 C 305.007 5.2342 -4.9338 0
M  V30 3077 C 307.033 4.58043 -3.741 0
M  V30 3078 C 306.395 5.06743 -4.89276 0
M  V30 3079 H 302.494 0.769104 -0.141434 0
M  V30 3080 H 305.078 1.70785 -0.934915 0
M  V30 3081 H 303.249 3.8668 0.36509 0
M  V30 3082 H 304.981 4.0425 0.190695 0
M  V30 3083 H 301.736 4.38062 -1.79997 0
M  V30 3084 H 302.16 5.25196 -4.27198 0
M  V30 3085 H 306.802 3.86078 -1.72348 0
M  V30 3086 H 304.52 5.60765 -5.81866 0
M  V30 3087 H 308.106 4.45785 -3.73854 0
M  V30 3088 H 306.986 5.32204 -5.75959 0
M  V30 3089 N 304.489 0.459591 1.5075 0
M  V30 3090 C 305.905 0.113092 1.59199 0
M  V30 3091 C 306.105 -1.37951 1.46874 0
M  V30 3092 O 305.161 -2.15168 1.32132 0
M  V30 3093 C 306.474 0.653043 2.93523 0
M  V30 3094 C 308.022 0.615449 3.0689 0
M  V30 3095 C 308.497 1.13275 4.43771 0
M  V30 3096 N 309.988 1.09167 4.50152 0
M  V30 3097 C 310.723 1.46256 5.54434 0
M  V30 3098 N 310.219 1.90739 6.66026 0
M  V30 3099 N 312.012 1.37932 5.44914 0
M  V30 3100 H 304.163 1.43049 1.57005 0
M  V30 3101 H 306.426 0.590861 0.741341 0
M  V30 3102 H 306.132 1.69822 3.07983 0
M  V30 3103 H 306.006 0.0902132 3.77092 0
M  V30 3104 H 308.393 -0.420793 2.92084 0
M  V30 3105 H 308.474 1.21495 2.25106 0
M  V30 3106 H 308.118 2.16757 4.59324 0
M  V30 3107 H 308.048 0.509576 5.24129 0
M  V30 3108 H 310.539 0.76528 3.7007 0
M  V30 3109 H 310.852 2.17218 7.41644 0
M  V30 3110 H 309.197 1.94683 6.67176 0
M  V30 3111 H 312.388 1.0303 4.56621 0
M  V30 3112 H 312.561 1.67164 6.26067 0
M  V30 3113 N 305.967 -1.56429 0.191757 0
M  V30 3114 C 307.213 -1.98541 -0.441943 0
M  V30 3115 C 307.568 -1.07646 -1.59468 0
M  V30 3116 O 306.861 -0.120191 -1.91223 0
M  V30 3117 C 307.055 -3.44449 -0.953384 0
M  V30 3118 C 306.884 -4.49456 0.148262 0
M  V30 3119 C 305.654 -5.01668 0.604781 0
M  V30 3120 C 307.852 -5.05336 0.95602 0
M  V30 3121 N 305.834 -5.90334 1.6846 0
M  V30 3122 C 307.205 -5.9064 1.88531 0
M  V30 3123 C 309.26 -4.87779 0.998811 0
M  V30 3124 C 307.963 -6.60264 2.85383 0
M  V30 3125 C 309.989 -5.58139 1.95537 0
M  V30 3126 C 309.351 -6.43187 2.8721 0
M  V30 3127 H 305.45 -0.771247 -0.129236 0
M  V30 3128 H 308.034 -1.92426 0.296682 0
M  V30 3129 H 306.205 -3.5107 -1.66146 0
M  V30 3130 H 307.937 -3.73533 -1.55741 0
M  V30 3131 H 304.692 -4.73183 0.198736 0
M  V30 3132 H 305.116 -6.39371 2.22561 0
M  V30 3133 H 309.758 -4.21705 0.304048 0
M  V30 3134 H 307.476 -7.25538 3.55837 0
M  V30 3135 H 311.062 -5.46532 1.99484 0
M  V30 3136 H 309.942 -6.96674 3.60022 0
M  V30 3137 N 307.445 0.0818655 -1.57387 0
M  V30 3138 C 308.408 1.08265 -2.02018 0
M  V30 3139 C 309.408 1.32183 -0.915664 0
M  V30 3140 O 310.598 1.28073 -1.18081 0
M  V30 3141 C 307.73 2.42871 -2.39221 0
M  V30 3142 H 308.923 0.698204 -2.91659 0
M  V30 3143 H 306.476 0.327303 -1.52835 0
M  V30 3144 H 307.211 2.86167 -1.52575 0
M  V30 3145 H 306.996 2.26855 -3.19811 0
M  V30 3146 H 308.486 3.14826 -2.74362 0
M  V30 3147 N 308.923 1.53595 0.353017 0
M  V30 3148 C 310.17 1.70385 1.09431 0
M  V30 3149 C 310.498 0.462113 1.88931 0
M  V30 3150 O 309.753 -0.556074 1.87633 0
M  V30 3151 C 310.052 2.91313 2.07054 0
M  V30 3152 C 309.718 4.27308 1.43939 0
M  V30 3153 C 308.38 4.64287 1.26454 0
M  V30 3154 C 310.732 5.11829 0.983883 0
M  V30 3155 C 308.06 5.83412 0.620226 0
M  V30 3156 C 310.412 6.31611 0.353516 0
M  V30 3157 C 309.076 6.67293 0.166272 0
M  V30 3158 H 308.346 0.623484 0.400436 0
M  V30 3159 H 310.993 1.87799 0.374655 0
M  V30 3160 H 309.298 2.68463 2.85368 0
M  V30 3161 H 310.995 3.01497 2.64387 0
M  V30 3162 H 307.585 3.98198 1.58543 0
M  V30 3163 H 311.769 4.838 1.10685 0
M  V30 3164 H 307.025 6.09639 0.463681 0
M  V30 3165 H 311.199 6.964 -0.00757555 0
M  V30 3166 H 308.826 7.59461 -0.335047 0
M  V30 3167 N 310.401 -0.613514 1.45168 0
M  V30 3168 C 311.331 -1.7354 1.56225 0
M  V30 3169 C 312.312 -1.64981 0.41414 0
M  V30 3170 O 313.497 -1.83472 0.636526 0
M  V30 3171 C 310.627 -3.12128 1.52295 0
M  V30 3172 C 309.581 -3.35491 2.65762 0
M  V30 3173 C 308.907 -4.74291 2.46885 0
M  V30 3174 C 310.207 -3.26325 4.0781 0
M  V30 3175 H 311.901 -1.64543 2.50132 0
M  V30 3176 H 309.447 -0.790185 1.20383 0
M  V30 3177 H 311.4 -3.90404 1.58628 0
M  V30 3178 H 310.124 -3.2195 0.549139 0
M  V30 3179 H 308.783 -2.59603 2.58847 0
M  V30 3180 H 308.431 -4.80839 1.47657 0
M  V30 3181 H 308.131 -4.9088 3.22972 0
M  V30 3182 H 309.655 -5.54775 2.55063 0
M  V30 3183 H 311.069 -3.94483 4.16 0
M  V30 3184 H 309.466 -3.54445 4.8424 0
M  V30 3185 H 310.536 -2.23855 4.30136 0
M  V30 3186 N 311.879 -1.3236 -0.855495 0
M  V30 3187 C 313.125 -1.23054 -1.612 0
M  V30 3188 C 313.458 0.207404 -1.93089 0
M  V30 3189 O 312.733 1.14432 -1.57275 0
M  V30 3190 C 313.016 -2.08937 -2.93287 0
M  V30 3191 C 312.869 -3.61105 -2.68185 0
M  V30 3192 C 314.188 -1.94986 -3.94549 0
M  V30 3193 H 311.307 -0.448364 -0.584926 0
M  V30 3194 H 313.949 -1.62297 -0.987917 0
M  V30 3195 H 312.099 -1.75599 -3.46551 0
M  V30 3196 H 313.771 -4.04652 -2.21483 0
M  V30 3197 H 312.014 -3.83813 -2.02164 0
M  V30 3198 H 312.685 -4.16522 -3.62234 0
M  V30 3199 H 315.161 -2.24189 -3.5054 0
M  V30 3200 H 314.037 -2.57356 -4.84829 0
M  V30 3201 H 314.298 -0.917263 -4.3248 0
M  V30 3202 N 313.357 1.07166 -1.15556 0
M  V30 3203 C 314.305 2.16517 -0.8499 0
M  V30 3204 C 315.299 1.68468 0.177454 0
M  V30 3205 O 316.505 1.79971 0.0323026 0
M  V30 3206 H 312.88 0.706652 -0.25719 0
M  V30 3207 H 314.851 2.39514 -1.77976 0
M  V30 3208 C 313.6 3.45855 -0.357682 0
M  V30 3209 H 312.923 3.83214 -1.13961 0
M  V30 3210 H 314.363 4.23607 -0.182489 0
M  V30 3211 C 312.822 3.24062 0.921152 0
M  V30 3212 O 313.352 3.48813 1.9923 0
M  V30 3213 N 311.558 2.77539 0.86141 0
M  V30 3214 H 311.105 2.57598 -0.0104408 0
M  V30 3215 H 311.063 2.63337 1.71758 0
M  V30 3216 N 314.835 0.952656 1.25548 0
M  V30 3217 C 316.081 0.607272 1.93494 0
M  V30 3218 C 316.414 -0.853245 1.74452 0
M  V30 3219 O 315.689 -1.61194 1.08843 0
M  V30 3220 C 315.972 0.96435 3.46947 0
M  V30 3221 C 315.825 2.48045 3.75225 0
M  V30 3222 C 317.144 0.487987 4.37386 0
M  V30 3223 H 314.263 0.222096 0.702739 0
M  V30 3224 H 316.905 1.18895 1.48203 0
M  V30 3225 H 315.055 0.469361 3.85654 0
M  V30 3226 H 316.727 3.04905 3.46166 0
M  V30 3227 H 314.97 2.919 3.209 0
M  V30 3228 H 315.641 2.6808 4.82532 0
M  V30 3229 H 318.117 0.912558 4.0597 0
M  V30 3230 H 316.993 0.766547 5.43521 0
M  V30 3231 H 317.254 -0.612063 4.37843 0
M  V30 3232 N 316.313 -1.40141 0.720998 0
M  V30 3233 C 317.724 -1.83678 0.334553 0
M  V30 3234 C 318.075 -1.6027 -1.13173 0
M  V30 3235 O 317.2 -1.08643 -1.87152 0
M  V30 3236 C 317.795 -3.33437 0.600437 0
M  V30 3237 C 316.354 -3.75447 0.267642 0
M  V30 3238 C 315.501 -2.63296 0.870097 0
M  V30 3239 H 318.452 -1.29331 0.919732 0
M  V30 3240 H 318.473 -3.80269 -0.132517 0
M  V30 3241 H 317.985 -3.50442 1.66768 0
M  V30 3242 H 316.086 -3.64035 -0.794329 0
M  V30 3243 H 316.199 -4.73344 0.74042 0
M  V30 3244 H 314.563 -2.52954 0.297739 0
M  V30 3245 H 315.346 -2.83112 1.94172 0
M  V30 3246 N 317.792 -0.46758 -1.50504 0
M  V30 3247 C 319.041 0.0902868 -2.01498 0
M  V30 3248 C 319.354 1.411 -1.35463 0
M  V30 3249 O 320.56 2.0536 -1.77594 0
M  V30 3250 C 319.016 0.21142 -3.59278 0
M  V30 3251 C 318.624 -1.10065 -4.34269 0
M  V30 3252 C 320.368 0.721433 -4.18325 0
M  V30 3253 C 318.275 -0.943505 -5.83825 0
M  V30 3254 H 317.205 0.037517 -0.753066 0
M  V30 3255 H 319.856 -0.601943 -1.73346 0
M  V30 3256 H 318.238 0.967352 -3.84003 0
M  V30 3257 H 319.412 -1.86726 -4.21272 0
M  V30 3258 H 317.727 -1.5415 -3.86816 0
M  V30 3259 H 320.324 0.85598 -5.27804 0
M  V30 3260 H 320.667 1.71186 -3.79475 0
M  V30 3261 H 321.2 0.0229843 -3.97793 0
M  V30 3262 H 317.939 -1.90719 -6.27141 0
M  V30 3263 H 317.459 -0.217213 -5.99407 0
M  V30 3264 H 319.138 -0.608715 -6.4413 0
M  V30 3265 N 319.27 1.56325 -0.20005 0
M  V30 3266 C 320.518 1.97329 0.436547 0
M  V30 3267 C 320.839 1.08826 1.61808 0
M  V30 3268 O 320.109 0.160604 1.95241 0
M  V30 3269 H 318.689 0.728714 0.164272 0
M  V30 3270 H 321.351 1.92761 -0.287937 0
M  V30 3271 H 320.447 3.02264 0.777353 0
M  V30 3272 N 320.748 -0.0735177 1.57428 0
M  V30 3273 C 321.678 -1.0879 2.06608 0
M  V30 3274 C 322.659 -1.40473 0.959237 0
M  V30 3275 O 323.844 -1.5013 1.23185 0
M  V30 3276 C 320.974 -2.40183 2.50857 0
M  V30 3277 C 319.928 -2.22858 3.65402 0
M  V30 3278 C 319.254 -3.59619 3.957 0
M  V30 3279 C 320.554 -1.65123 4.95511 0
M  V30 3280 H 322.248 -0.678673 2.91607 0
M  V30 3281 H 319.794 -0.325013 1.40284 0
M  V30 3282 H 321.747 -3.11437 2.83874 0
M  V30 3283 H 320.471 -2.83083 1.62885 0
M  V30 3284 H 319.13 -1.54045 3.32664 0
M  V30 3285 H 318.778 -4.00086 3.04861 0
M  V30 3286 H 318.478 -3.48866 4.72828 0
M  V30 3287 H 320.002 -4.32306 4.31212 0
M  V30 3288 H 321.416 -2.26241 5.26771 0
M  V30 3289 H 319.813 -1.65071 5.7695 0
M  V30 3290 H 320.883 -0.612559 4.81015 0
M  V30 3291 N 322.226 -1.5378 -0.344866 0
M  V30 3292 C 323.472 -1.71216 -1.08687 0
M  V30 3293 C 323.805 -0.473281 -1.88345 0
M  V30 3294 O 323.08 0.52968 -1.87149 0
M  V30 3295 C 323.363 -2.97486 -2.02914 0
M  V30 3296 C 323.216 -4.31579 -1.26727 0
M  V30 3297 C 324.535 -3.19422 -3.0275 0
M  V30 3298 H 321.654 -0.62301 -0.393735 0
M  V30 3299 H 324.296 -1.8645 -0.365563 0
M  V30 3300 H 322.446 -2.84629 -2.64421 0
M  V30 3301 H 324.118 -4.56284 -0.67845 0
M  V30 3302 H 322.361 -4.30049 -0.569273 0
M  V30 3303 H 323.032 -5.16106 -1.95803 0
M  V30 3304 H 325.508 -3.316 -2.51357 0
M  V30 3305 H 324.384 -4.09169 -3.65885 0
M  V30 3306 H 324.645 -2.35656 -3.74057 0
M  V30 3307 N 323.704 0.605807 -1.45491 0
M  V30 3308 C 324.637 1.73022 -1.48791 0
M  V30 3309 C 325.615 1.58917 -0.344112 0
M  V30 3310 O 326.799 1.80453 -0.544876 0
M  V30 3311 C 323.926 3.10865 -1.34463 0
M  V30 3312 C 322.972 3.43554 -2.5273 0
M  V30 3313 S 323.805 3.38196 -4.15191 0
M  V30 3314 C 324.961 4.78616 -4.03333 0
M  V30 3315 H 325.194 1.69961 -2.43928 0
M  V30 3316 H 322.727 0.782611 -1.33096 0
M  V30 3317 H 324.685 3.90398 -1.26884 0
M  V30 3318 H 323.346 3.1144 -0.40794 0
M  V30 3319 H 322.539 4.43924 -2.38637 0
M  V30 3320 H 322.141 2.71541 -2.5718 0
M  V30 3321 H 324.433 5.68463 -3.68587 0
M  V30 3322 H 325.376 4.97767 -5.03621 0
M  V30 3323 H 325.784 4.54381 -3.34959 0
M  V30 3324 N 325.182 1.32811 0.848464 0
M  V30 3325 C 326.431 1.23075 1.59798 0
M  V30 3326 C 326.744 -0.204419 1.94529 0
M  V30 3327 O 327.95 -0.423701 2.68173 0
M  V30 3328 C 326.406 2.15594 2.88179 0
M  V30 3329 C 326.014 3.64228 2.60849 0
M  V30 3330 C 327.758 2.14709 3.66197 0
M  V30 3331 C 325.665 4.48689 3.85269 0
M  V30 3332 H 324.595 0.457091 0.599653 0
M  V30 3333 H 327.246 1.57813 0.936342 0
M  V30 3334 H 325.628 1.73778 3.55833 0
M  V30 3335 H 326.802 4.14424 2.01467 0
M  V30 3336 H 325.117 3.67306 1.96151 0
M  V30 3337 H 327.714 2.75046 4.58534 0
M  V30 3338 H 328.057 1.13966 4.00397 0
M  V30 3339 H 328.59 2.54837 3.05455 0
M  V30 3340 H 325.329 5.5027 3.56207 0
M  V30 3341 H 324.849 4.03241 4.44024 0
M  V30 3342 H 326.528 4.62006 4.52946 0
M  V30 3343 N 326.66 -1.06551 1.16123 0
M  V30 3344 C 327.89 -1.8274 0.963838 0
M  V30 3345 C 328.298 -1.82712 -0.491228 0
M  V30 3346 O 327.641 -1.24294 -1.35265 0
M  V30 3347 C 327.703 -3.3065 1.41106 0
M  V30 3348 C 327.367 -3.54384 2.88549 0
M  V30 3349 C 328.364 -3.4765 3.86569 0
M  V30 3350 C 326.049 -3.81789 3.26408 0
M  V30 3351 C 328.043 -3.67982 5.2045 0
M  V30 3352 C 325.73 -4.01772 4.60459 0
M  V30 3353 C 326.728 -3.94866 5.57288 0
M  V30 3354 O 326.416 -4.14306 6.88916 0
M  V30 3355 H 326.148 -0.583136 0.341948 0
M  V30 3356 H 328.702 -1.35351 1.54497 0
M  V30 3357 H 326.932 -3.78887 0.773394 0
M  V30 3358 H 328.621 -3.88324 1.1815 0
M  V30 3359 H 329.387 -3.2647 3.58667 0
M  V30 3360 H 325.266 -3.86276 2.51619 0
M  V30 3361 H 328.81 -3.62507 5.96015 0
M  V30 3362 H 324.707 -4.2244 4.88072 0
M  V30 3363 H 325.475 -4.31609 6.95454 0
M  V30 3364 N 328.138 -0.959301 -1.25041 0
M  V30 3365 C 329.068 -0.501388 -2.28053 0
M  V30 3366 C 330.049 0.454673 -1.63911 0
M  V30 3367 O 331.234 0.352618 -1.90972 0
M  V30 3368 C 328.364 0.217224 -3.4662 0
M  V30 3369 C 327.318 -0.654034 -4.22973 0
M  V30 3370 C 326.644 0.195589 -5.34342 0
M  V30 3371 C 327.944 -1.93447 -4.85155 0
M  V30 3372 H 329.638 -1.36238 -2.66608 0
M  V30 3373 H 327.184 -0.656534 -1.28163 0
M  V30 3374 H 329.137 0.548732 -4.17812 0
M  V30 3375 H 327.861 1.1125 -3.07068 0
M  V30 3376 H 326.52 -0.968693 -3.5357 0
M  V30 3377 H 326.168 1.09076 -4.91031 0
M  V30 3378 H 325.868 -0.384091 -5.86343 0
M  V30 3379 H 327.392 0.521958 -6.08365 0
M  V30 3380 H 328.806 -1.66908 -5.48466 0
M  V30 3381 H 327.203 -2.46018 -5.47353 0
M  V30 3382 H 328.273 -2.63466 -4.07079 0
M  V30 3383 N 329.616 1.39756 -0.72842 0
M  V30 3384 C 330.579 2.29012 -0.0927297 0
M  V30 3385 C 331.579 1.45992 0.674025 0
M  V30 3386 O 332.769 1.66749 0.50402 0
M  V30 3387 C 329.901 3.29396 0.878137 0
M  V30 3388 H 331.094 2.86729 -0.879011 0
M  V30 3389 H 328.647 1.48293 -0.493847 0
M  V30 3390 H 329.382 2.76722 1.69101 0
M  V30 3391 H 329.167 3.907 0.331051 0
M  V30 3392 H 330.657 3.96199 1.3197 0
M  V30 3393 N 331.094 0.475555 1.50254 0
M  V30 3394 C 332.51 0.12997 1.5907 0
M  V30 3395 C 332.71 -1.36385 1.48328 0
M  V30 3396 O 331.766 -2.13754 1.34407 0
M  V30 3397 C 333.079 0.684139 2.92814 0
M  V30 3398 C 334.627 0.647965 3.0622 0
M  V30 3399 C 335.102 1.17975 4.42545 0
M  V30 3400 N 336.593 1.13936 4.48969 0
M  V30 3401 C 337.328 1.52129 5.52851 0
M  V30 3402 N 336.824 1.97793 6.63965 0
M  V30 3403 N 338.617 1.43704 5.4342 0
M  V30 3404 H 330.768 1.44706 1.55479 0
M  V30 3405 H 333.031 0.598691 0.735033 0
M  V30 3406 H 332.737 1.73079 3.06164 0
M  V30 3407 H 332.611 0.130204 3.76975 0
M  V30 3408 H 334.998 -0.38979 2.92514 0
M  V30 3409 H 335.079 1.23876 2.23805 0
M  V30 3410 H 334.723 2.21616 4.57 0
M  V30 3411 H 334.653 0.565138 5.23559 0
M  V30 3412 H 337.144 0.804488 3.69238 0
M  V30 3413 H 337.457 2.25072 7.39299 0
M  V30 3414 H 335.802 2.01749 6.65073 0
M  V30 3415 H 338.993 1.07867 4.55502 0
M  V30 3416 H 339.166 1.73794 6.24259 0
M  V30 3417 N 332.573 -1.56217 0.208337 0
M  V30 3418 C 333.801 -2.02337 -0.43215 0
M  V30 3419 C 334.216 -1.08834 -1.54275 0
M  V30 3420 O 333.573 -0.0955462 -1.8225 0
M  V30 3421 C 333.624 -3.48072 -0.976138 0
M  V30 3422 O 333.345 -4.38007 0.0901621 0
M  V30 3423 C 334.846 -4.09773 -1.69119 0
M  V30 3424 H 332.066 -0.662385 -0.10718 0
M  V30 3425 H 334.61 -2.01966 0.320923 0
M  V30 3426 H 332.765 -3.49099 -1.67954 0
M  V30 3427 H 333.179 -5.23543 -0.316701 0
M  V30 3428 H 334.653 -5.13556 -2.02397 0
M  V30 3429 H 335.13 -3.53999 -2.59964 0
M  V30 3430 H 335.736 -4.12556 -1.03332 0
M  V30 3431 N 334.051 0.0651679 -1.57465 0
M  V30 3432 C 335.014 1.06117 -2.03155 0
M  V30 3433 C 336.014 1.31204 -0.929632 0
M  V30 3434 O 337.204 1.26813 -1.19432 0
M  V30 3435 C 334.336 2.4032 -2.41783 0
M  V30 3436 H 335.529 0.667231 -2.92383 0
M  V30 3437 H 333.082 0.311075 -1.53173 0
M  V30 3438 H 333.817 2.84532 -1.55601 0
M  V30 3439 H 333.602 2.23451 -3.22199 0
M  V30 3440 H 335.092 3.11898 -2.77685 0
M  V30 3441 N 335.529 1.53961 0.336706 0
M  V30 3442 C 336.459 1.85417 1.41925 0
M  V30 3443 C 337.44 0.709856 1.5458 0
M  V30 3444 O 338.625 0.962396 1.68676 0
M  V30 3445 C 335.755 2.06985 2.78881 0
M  V30 3446 C 334.709 3.22813 2.81026 0
M  V30 3447 C 334.035 3.29727 4.20932 0
M  V30 3448 C 335.335 4.60767 2.45949 0
M  V30 3449 H 337.029 2.76079 1.15848 0
M  V30 3450 H 334.575 1.32839 0.555859 0
M  V30 3451 H 336.528 2.27575 3.54665 0
M  V30 3452 H 335.252 1.13061 3.06406 0
M  V30 3453 H 333.911 3.0209 2.07695 0
M  V30 3454 H 333.559 2.33385 4.45579 0
M  V30 3455 H 333.259 4.07566 4.23277 0
M  V30 3456 H 334.783 3.52536 4.98549 0
M  V30 3457 H 336.197 4.81325 3.11446 0
M  V30 3458 H 334.594 5.4106 2.59566 0
M  V30 3459 H 335.664 4.6391 1.41122 0
M  V30 3460 N 337.007 -0.598083 1.45811 0
M  V30 3461 C 338.423 -0.919847 1.30426 0
M  V30 3462 C 338.623 -1.99759 0.264303 0
M  V30 3463 O 337.679 -2.50221 -0.338472 0
M  V30 3464 C 338.992 -1.35176 2.68603 0
M  V30 3465 C 340.54 -1.46546 2.76574 0
M  V30 3466 C 341.015 -1.9311 4.15298 0
M  V30 3467 N 342.506 -2.00328 4.1764 0
M  V30 3468 C 343.241 -2.37599 5.21856 0
M  V30 3469 N 342.737 -2.73771 6.36413 0
M  V30 3470 N 344.53 -2.38021 5.09218 0
M  V30 3471 H 336.681 0.114111 2.12093 0
M  V30 3472 H 338.944 -0.0116121 0.947929 0
M  V30 3473 H 338.65 -0.633969 3.45939 0
M  V30 3474 H 338.524 -2.3164 2.97696 0
M  V30 3475 H 340.911 -2.17415 1.99537 0
M  V30 3476 H 340.992 -0.483727 2.51185 0
M  V30 3477 H 340.636 -1.22824 4.92825 0
M  V30 3478 H 340.566 -2.92213 4.38086 0
M  V30 3479 H 343.057 -1.74925 3.34977 0
M  V30 3480 H 343.37 -3.0112 7.11721 0
M  V30 3481 H 341.715 -2.71445 6.39799 0
M  V30 3482 H 344.906 -2.09174 4.18765 0
M  V30 3483 H 345.079 -2.66741 5.90554 0
M  V30 3484 N 338.485 -1.33259 -0.841409 0
M  V30 3485 C 339.395 -1.25332 -1.98316 0
M  V30 3486 C 340.411 -0.164364 -1.73222 0
M  V30 3487 O 341.587 -0.387486 -1.97637 0
M  V30 3488 C 338.652 -0.990078 -3.32262 0
M  V30 3489 C 337.713 -2.16879 -3.70489 0
M  V30 3490 C 336.946 -1.91801 -4.98044 0
M  V30 3491 O 337.169 -0.867075 -5.63771 0
M  V30 3492 O 336.103 -2.78267 -5.33714 0
M  V30 3493 H 339.929 -2.21344 -2.07944 0
M  V30 3494 H 337.514 -1.1328 -0.974058 0
M  V30 3495 H 339.396 -0.860321 -4.12524 0
M  V30 3496 H 338.071 -0.0602155 -3.23644 0
M  V30 3497 H 336.978 -2.35407 -2.90748 0
M  V30 3498 H 338.311 -3.0819 -3.8377 0
M  V30 3499 N 339.963 1.05934 -1.16686 0
M  V30 3500 C 341.191 1.8249 -0.974929 0
M  V30 3501 C 341.606 1.82679 0.476861 0
M  V30 3502 O 340.963 1.2486 1.33103 0
M  V30 3503 C 341.014 3.28943 -1.49929 0
M  V30 3504 O 340.735 3.28886 -2.89423 0
M  V30 3505 C 342.236 4.22215 -1.35089 0
M  V30 3506 H 339.456 0.575295 -0.345365 0
M  V30 3507 H 342 1.33631 -1.548 0
M  V30 3508 H 340.155 3.751 -0.968423 0
M  V30 3509 H 340.569 4.20493 -3.13506 0
M  V30 3510 H 342.043 5.22987 -1.76603 0
M  V30 3511 H 342.52 4.38195 -0.296935 0
M  V30 3512 H 343.126 3.81907 -1.87155 0
M  V30 3513 N 341.441 0.965919 1.2453 0
M  V30 3514 C 342.389 0.486506 2.27455 0
M  V30 3515 C 343.383 -0.449041 1.6334 0
M  V30 3516 O 344.589 -0.324527 1.7705 0
M  V30 3517 H 340.964 0.138857 0.739069 0
M  V30 3518 H 342.935 1.3666 2.65267 0
M  V30 3519 C 341.684 -0.209481 3.47068 0
M  V30 3520 H 341.007 0.50129 3.96645 0
M  V30 3521 H 342.447 -0.508775 4.20936 0
M  V30 3522 C 340.906 -1.43586 3.0477 0
M  V30 3523 O 341.436 -2.53299 3.11773 0
M  V30 3524 N 339.642 -1.30126 2.59838 0
M  V30 3525 H 339.189 -0.408583 2.54339 0
M  V30 3526 H 339.147 -2.12294 2.31902 0
M  V30 3527 N 342.919 -1.39368 0.735821 0
M  V30 3528 C 343.866 -2.30599 0.0963825 0
M  V30 3529 C 344.836 -1.49257 -0.728794 0
M  V30 3530 O 346.021 -1.77941 -0.688588 0
M  V30 3531 C 343.161 -3.35596 -0.804305 0
M  V30 3532 C 342.274 -4.31987 0.0335761 0
M  V30 3533 C 341.409 -5.24053 -0.868461 0
M  V30 3534 C 340.448 -6.12095 -0.0258776 0
M  V30 3535 N 339.585 -6.96514 -0.883893 0
M  V30 3536 H 344.425 -2.8471 0.880002 0
M  V30 3537 H 341.962 -1.40188 0.445619 0
M  V30 3538 H 343.92 -3.95062 -1.34096 0
M  V30 3539 H 342.55 -2.82938 -1.55389 0
M  V30 3540 H 341.602 -3.74133 0.68766 0
M  V30 3541 H 342.914 -4.94074 0.685036 0
M  V30 3542 H 342.068 -5.88549 -1.47293 0
M  V30 3543 H 340.807 -4.62289 -1.5537 0
M  V30 3544 H 339.812 -5.4661 0.591386 0
M  V30 3545 H 341.037 -6.75923 0.656156 0
M  V30 3546 H 338.983 -6.37318 -1.55441 0
M  V30 3547 H 338.9 -7.55448 -0.288931 0
M  V30 3548 H 340.168 -7.65439 -1.4739 0
M  V30 3549 N 344.397 -0.483516 -1.5 0
M  V30 3550 C 345.307 0.309172 -2.32554 0
M  V30 3551 C 346.323 0.984159 -1.43493 0
M  V30 3552 O 347.499 0.969399 -1.76535 0
M  V30 3553 C 344.564 1.36979 -3.18493 0
M  V30 3554 C 343.625 0.710095 -4.23387 0
M  V30 3555 C 342.858 1.72018 -5.05218 0
M  V30 3556 O 343.081 2.94813 -4.88305 0
M  V30 3557 O 342.015 1.28515 -5.8802 0
M  V30 3558 H 345.841 -0.366064 -3.01486 0
M  V30 3559 H 343.426 -0.24514 -1.47375 0
M  V30 3560 H 345.308 1.98385 -3.71781 0
M  V30 3561 H 343.983 2.02828 -2.52275 0
M  V30 3562 H 342.89 0.0567539 -3.74057 0
M  V30 3563 H 344.223 0.0943557 -4.9211 0
M  V30 3564 N 345.875 1.56104 -0.216619 0
M  V30 3565 C 347.291 1.58995 0.13886 0
M  V30 3566 C 347.491 1.23333 1.59346 0
M  V30 3567 O 346.547 0.966234 2.33281 0
M  V30 3568 C 347.86 3.00143 -0.182968 0
M  V30 3569 C 349.408 3.12751 -0.124807 0
M  V30 3570 C 349.883 4.56068 -0.420241 0
M  V30 3571 N 351.374 4.61723 -0.369634 0
M  V30 3572 C 352.109 5.70542 -0.571789 0
M  V30 3573 N 351.605 6.87744 -0.835453 0
M  V30 3574 N 353.398 5.59831 -0.504563 0
M  V30 3575 H 345.549 1.77562 -1.16557 0
M  V30 3576 H 347.812 0.825091 -0.466828 0
M  V30 3577 H 347.518 3.30871 -1.19237 0
M  V30 3578 H 347.392 3.73813 0.504367 0
M  V30 3579 H 349.779 2.81822 0.875223 0
M  V30 3580 H 349.86 2.41421 -0.845544 0
M  V30 3581 H 349.504 4.87713 -1.41769 0
M  V30 3582 H 349.434 5.25617 0.321631 0
M  V30 3583 H 351.925 3.77502 -0.173338 0
M  V30 3584 H 352.238 7.66587 -0.977938 0
M  V30 3585 H 350.583 6.895 -0.872592 0
M  V30 3586 H 353.774 4.67145 -0.298842 0
M  V30 3587 H 353.947 6.44573 -0.665519 0
M  V30 3588 N 347.353 -0.0568162 1.57498 0
M  V30 3589 C 348.286 -1.09817 2.00039 0
M  V30 3590 C 349.264 -1.3674 0.879819 0
M  V30 3591 O 350.448 -1.49863 1.14338 0
M  V30 3592 C 347.575 -2.43924 2.34986 0
M  V30 3593 C 346.621 -2.33039 3.57204 0
M  V30 3594 S 347.454 -1.7102 5.07457 0
M  V30 3595 C 348.61 -3.06674 5.45621 0
M  V30 3596 H 348.843 -0.735701 2.88053 0
M  V30 3597 H 346.376 -0.265871 1.52094 0
M  V30 3598 H 348.334 -3.2106 2.55795 0
M  V30 3599 H 346.995 -2.77327 1.47474 0
M  V30 3600 H 346.188 -3.31973 3.79223 0
M  V30 3601 H 345.79 -1.64043 3.36104 0
M  V30 3602 H 348.082 -4.03 5.44608 0
M  V30 3603 H 349.025 -2.8942 6.46252 0
M  V30 3604 H 349.433 -3.07969 4.73091 0
M  V30 3605 N 348.832 -1.54138 -0.328536 0
M  V30 3606 C 349.779 -1.83176 -1.40411 0
M  V30 3607 C 350.749 -0.678494 -1.5161 0
M  V30 3608 O 351.934 -0.92443 -1.6691 0
M  V30 3609 C 349.074 -2.06035 -2.76846 0
M  V30 3610 C 348.187 -3.33727 -2.74318 0
M  V30 3611 C 347.322 -3.46574 -4.02567 0
M  V30 3612 C 346.361 -4.68159 -3.94327 0
M  V30 3613 N 345.498 -4.77959 -5.14296 0
M  V30 3614 H 350.338 -2.74938 -1.14948 0
M  V30 3615 H 347.875 -1.36166 -0.556538 0
M  V30 3616 H 349.833 -2.1728 -3.56153 0
M  V30 3617 H 348.463 -1.1757 -3.00628 0
M  V30 3618 H 347.515 -3.31246 -1.8703 0
M  V30 3619 H 348.827 -4.23139 -2.64111 0
M  V30 3620 H 347.981 -3.57333 -4.90304 0
M  V30 3621 H 346.72 -2.55245 -4.15574 0
M  V30 3622 H 345.725 -4.57461 -3.04974 0
M  V30 3623 H 346.95 -5.60868 -3.82889 0
M  V30 3624 H 344.896 -3.89544 -5.27818 0
M  V30 3625 H 344.813 -5.6133 -5.06404 0
M  V30 3626 H 346.081 -4.93044 -6.03761 0
M  V30 3627 N 350.31 0.590341 -1.46126 0
M  V30 3628 C 351.24 1.71032 -1.58966 0
M  V30 3629 C 352.221 1.64302 -0.440335 0
M  V30 3630 O 353.406 1.82436 -0.665634 0
M  V30 3631 C 350.536 3.09665 -1.57241 0
M  V30 3632 C 349.49 3.31221 -2.71066 0
M  V30 3633 C 348.816 4.70303 -2.54399 0
M  V30 3634 C 350.116 3.19796 -4.1295 0
M  V30 3635 H 351.81 1.60543 -2.52718 0
M  V30 3636 H 349.356 0.770933 -1.21625 0
M  V30 3637 H 351.309 3.87831 -1.64819 0
M  V30 3638 H 350.033 3.21036 -0.600289 0
M  V30 3639 H 348.692 2.55452 -2.62944 0
M  V30 3640 H 348.34 4.78429 -1.55288 0
M  V30 3641 H 348.04 4.85679 -3.30741 0
M  V30 3642 H 349.564 5.50647 -2.63857 0
M  V30 3643 H 350.978 3.87815 -4.22223 0
M  V30 3644 H 349.375 3.46696 -4.89818 0
M  V30 3645 H 350.445 2.16983 -4.33643 0
M  V30 3646 N 351.788 1.33704 0.83433 0
M  V30 3647 C 353.065 1.16011 1.57483 0
M  V30 3648 C 353.445 -0.27176 2.09343 0
M  V30 3649 O 352.793 -1.27146 1.89858 0
M  V30 3650 C 353.003 2.20507 2.70514 0
M  V30 3651 C 354.351 2.54898 3.39577 0
M  V30 3652 O 355.375 2.19209 2.80759 0
M  V30 3653 O 354.234 3.16158 4.45765 0
M  V30 3654 H 351.328 0.448992 0.694503 0
M  V30 3655 H 353.874 1.453 0.876691 0
M  V30 3656 H 352.646 3.16667 2.29865 0
M  V30 3657 H 352.269 1.92329 3.47987 0
M  V30 3658 N 353.266 -1.05314 1.17247 0
M  V30 3659 C 354.229 -2.112 0.890357 0
M  V30 3660 C 355.229 -1.60359 -0.118943 0
M  V30 3661 O 356.419 -1.73833 0.113086 0
M  V30 3662 C 353.551 -3.39266 0.333422 0
M  V30 3663 H 354.744 -2.37659 1.82916 0
M  V30 3664 H 352.297 -1.21538 0.982758 0
M  V30 3665 H 353.032 -3.18462 -0.612587 0
M  V30 3666 H 352.817 -3.77477 1.06082 0
M  V30 3667 H 354.307 -4.17315 0.154322 0
M  V30 3668 N 354.744 -0.972509 -1.24016 0
M  V30 3669 C 355.972 -0.654803 -1.96265 0
M  V30 3670 C 356.387 0.776708 -1.72083 0
M  V30 3671 O 355.744 1.52171 -1.00748 0
M  V30 3672 C 355.795 -0.92592 -3.49441 0
M  V30 3673 O 355.516 -2.30116 -3.72798 0
M  V30 3674 C 357.017 -0.623068 -4.38899 0
M  V30 3675 H 354.237 -0.243907 -0.6251 0
M  V30 3676 H 356.781 -1.30175 -1.57717 0
M  V30 3677 H 354.936 -0.325108 -3.86033 0
M  V30 3678 H 355.35 -2.38483 -4.67147 0
M  V30 3679 H 356.824 -0.863189 -5.45209 0
M  V30 3680 H 357.301 0.442754 -4.36963 0
M  V30 3681 H 357.907 -1.204 -4.07902 0
M  V30 3682 N 356.222 1.38976 -0.743202 0
M  V30 3683 C 357.47 1.99948 -0.29417 0
M  V30 3684 C 357.791 1.59279 1.12495 0
M  V30 3685 O 357.061 0.844808 1.76748 0
M  V30 3686 H 355.641 0.739473 -0.105774 0
M  V30 3687 H 358.303 1.699 -0.954986 0
M  V30 3688 H 357.399 3.10142 -0.349056 0
M  V30 3689 N 357.7 0.491464 1.49741 0
M  V30 3690 C 358.663 -0.280906 2.27472 0
M  V30 3691 C 359.663 -0.902454 1.33088 0
M  V30 3692 O 360.853 -0.768465 1.56334 0
M  V30 3693 C 357.985 -1.40209 3.10732 0
M  V30 3694 H 359.178 0.401056 2.97206 0
M  V30 3695 H 356.731 0.246131 1.5435 0
M  V30 3696 H 357.466 -2.11849 2.45541 0
M  V30 3697 H 357.251 -0.961969 3.80117 0
M  V30 3698 H 358.741 -1.9464 3.69466 0
M  V30 3699 N 359.178 -1.55987 0.224894 0
M  V30 3700 C 360.427 -1.97566 -0.406273 0
M  V30 3701 C 360.74 -1.11569 -1.6066 0
M  V30 3702 O 361.946 -1.43062 -2.3075 0
M  V30 3703 C 360.402 -3.51474 -0.774207 0
M  V30 3704 C 360.01 -4.46179 0.403496 0
M  V30 3705 C 361.754 -4.01758 -1.37079 0
M  V30 3706 C 359.661 -5.91399 0.0129412 0
M  V30 3707 H 358.591 -0.737777 -0.155565 0
M  V30 3708 H 361.242 -1.80659 0.321635 0
M  V30 3709 H 359.624 -3.63994 -1.55963 0
M  V30 3710 H 360.798 -4.45409 1.18101 0
M  V30 3711 H 359.113 -4.06255 0.913536 0
M  V30 3712 H 361.71 -5.07756 -1.67596 0
M  V30 3713 H 362.053 -3.47805 -2.28773 0
M  V30 3714 H 362.586 -3.92475 -0.648733 0
M  V30 3715 H 359.325 -6.49341 0.896451 0
M  V30 3716 H 358.845 -5.95356 -0.728821 0
M  V30 3717 H 360.524 -6.45683 -0.412582 0
M  V30 3718 N 360.656 0.0484629 -1.57525 0
M  V30 3719 C 361.586 1.0549 -2.08313 0
M  V30 3720 C 362.567 1.38929 -0.981463 0
M  V30 3721 O 363.752 1.48151 -1.25558 0
M  V30 3722 C 360.882 2.36162 -2.54646 0
M  V30 3723 C 359.836 2.17016 -3.68901 0
M  V30 3724 C 359.162 3.53278 -4.01371 0
M  V30 3725 C 360.462 1.57219 -4.98076 0
M  V30 3726 H 362.156 0.632195 -2.92649 0
M  V30 3727 H 359.702 0.302654 -1.40784 0
M  V30 3728 H 361.655 3.06882 -2.88793 0
M  V30 3729 H 360.379 2.80456 -1.67368 0
M  V30 3730 H 359.038 1.48733 -3.35073 0
M  V30 3731 H 358.686 3.95185 -3.11188 0
M  V30 3732 H 358.386 3.41299 -4.78318 0
M  V30 3733 H 359.91 4.25391 -4.38035 0
M  V30 3734 H 361.324 2.17832 -5.30304 0
M  V30 3735 H 359.721 1.55871 -5.79503 0
M  V30 3736 H 360.791 0.535956 -4.81929 0
M  V30 3737 N 362.134 1.5431 0.320358 0
M  V30 3738 C 363.097 1.83195 1.3774 0
M  V30 3739 C 364.097 0.703906 1.44575 0
M  V30 3740 O 365.287 0.972214 1.44546 0
M  V30 3741 C 362.419 1.99487 2.76438 0
M  V30 3742 H 363.612 2.77642 1.1338 0
M  V30 3743 H 361.165 1.46076 0.556012 0
M  V30 3744 H 361.9 1.07262 3.06048 0
M  V30 3745 H 361.685 2.81575 2.7287 0
M  V30 3746 H 363.175 2.23271 3.52902 0
M  V30 3747 N 363.613 -0.582584 1.46437 0
M  V30 3748 C 364.841 -1.36682 1.55324 0
M  V30 3749 C 365.256 -1.87796 0.194409 0
M  V30 3750 O 364.613 -1.63623 -0.808318 0
M  V30 3751 C 364.664 -2.55426 2.55812 0
M  V30 3752 O 364.385 -2.0643 3.86417 0
M  V30 3753 C 365.886 -3.47976 2.74641 0
M  V30 3754 H 363.106 -0.417545 0.525259 0
M  V30 3755 H 365.65 -0.708219 1.91845 0
M  V30 3756 H 363.805 -3.17275 2.22295 0
M  V30 3757 H 364.219 -2.83762 4.41111 0
M  V30 3758 H 365.693 -4.27775 3.48874 0
M  V30 3759 H 366.17 -3.99919 1.81553 0
M  V30 3760 H 366.776 -2.91962 3.09255 0
M  V30 3761 N 365.091 -1.34144 -0.827227 0
M  V30 3762 C 366.021 -1.28005 -1.95287 0
M  V30 3763 C 367.002 -0.158321 -1.69362 0
M  V30 3764 O 368.187 -0.349987 -1.9102 0
M  V30 3765 C 365.317 -1.03036 -3.31664 0
M  V30 3766 C 364.271 -2.11628 -3.72019 0
M  V30 3767 C 363.597 -1.71854 -5.0633 0
M  V30 3768 C 364.897 -3.53417 -3.8457 0
M  V30 3769 H 366.591 -2.22187 -2.00682 0
M  V30 3770 H 364.137 -1.0696 -0.964135 0
M  V30 3771 H 366.09 -0.973863 -4.09993 0
M  V30 3772 H 364.814 -0.0529391 -3.26557 0
M  V30 3773 H 363.473 -2.16339 -2.95961 0
M  V30 3774 H 363.121 -0.727841 -4.97706 0
M  V30 3775 H 362.821 -2.44531 -5.34302 0
M  V30 3776 H 364.345 -1.67692 -5.87122 0
M  V30 3777 H 365.759 -3.51142 -4.5318 0
M  V30 3778 H 364.156 -4.24679 -4.2399 0
M  V30 3779 H 365.226 -3.91072 -2.86689 0
M  V30 3780 N 366.569 1.04691 -1.17803 0
M  V30 3781 C 367.532 2.10724 -0.901545 0
M  V30 3782 C 368.532 1.6042 0.110437 0
M  V30 3783 O 369.722 1.7377 -0.122303 0
M  V30 3784 C 366.854 3.39084 -0.351409 0
M  V30 3785 H 368.047 2.36686 -1.84174 0
M  V30 3786 H 365.6 1.21015 -0.98919 0
M  V30 3787 H 366.335 3.18782 0.59569 0
M  V30 3788 H 366.12 3.76909 -1.08083 0
M  V30 3789 H 367.61 4.17227 -0.176451 0
M  V30 3790 N 368.047 0.979072 1.23499 0
M  V30 3791 C 369.287 0.655228 1.93613 0
M  V30 3792 C 369.651 -0.796336 1.74707 0
M  V30 3793 O 370.852 -1.23094 2.38959 0
M  V30 3794 C 369.123 1.03337 3.42135 0
M  V30 3795 S 370.682 0.825793 4.3096 0
M  V30 3796 H 367.5 0.240004 0.669267 0
M  V30 3797 H 370.102 1.25843 1.49612 0
M  V30 3798 H 368.806 2.08646 3.53405 0
M  V30 3799 H 368.337 0.421397 3.91137 0
M  V30 3800 H 370.352 -0.290991 4.95346 0
M  V30 3801 N 369.525 -1.3858 0.750561 0
M  V30 3802 C 370.753 -2.04471 0.316098 0
M  V30 3803 C 371.168 -1.56606 -1.05452 0
M  V30 3804 O 370.525 -0.737784 -1.66922 0
M  V30 3805 C 370.576 -3.60025 0.326275 0
M  V30 3806 O 370.297 -4.06133 1.6428 0
M  V30 3807 C 371.798 -4.43131 -0.122429 0
M  V30 3808 H 369.018 -0.65717 0.135528 0
M  V30 3809 H 371.562 -1.77329 1.01857 0
M  V30 3810 H 369.717 -3.86014 -0.327431 0
M  V30 3811 H 370.131 -5.00547 1.56693 0
M  V30 3812 H 371.605 -5.51963 -0.0641473 0
M  V30 3813 H 372.082 -4.23333 -1.16988 0
M  V30 3814 H 372.688 -4.22323 0.50229 0
M  V30 3815 N 371.003 -0.499398 -1.49478 0
M  V30 3816 C 371.966 0.268838 -2.27618 0
M  V30 3817 C 372.966 0.895383 -1.33565 0
M  V30 3818 O 374.156 0.760164 -1.56739 0
M  V30 3819 C 371.288 1.38559 -3.11471 0
M  V30 3820 H 372.481 -0.416812 -2.96989 0
M  V30 3821 H 370.034 -0.254313 -1.54217 0
M  V30 3822 H 370.769 2.10544 -2.46661 0
M  V30 3823 H 370.554 0.941797 -3.80621 0
M  V30 3824 H 372.044 1.92678 -3.70493 0
M  V30 3825 N 372.481 1.55866 -0.233164 0
M  V30 3826 C 373.444 2.1953 0.658715 0
M  V30 3827 C 374.444 1.16053 1.11303 0
M  V30 3828 O 375.634 1.41218 1.01996 0
M  V30 3829 C 372.766 2.82791 1.90373 0
M  V30 3830 H 373.959 2.99721 0.10347 0
M  V30 3831 H 371.512 1.56291 0.0164245 0
M  V30 3832 H 372.247 2.06501 2.50056 0
M  V30 3833 H 372.032 3.58578 1.58632 0
M  V30 3834 H 373.522 3.31556 2.53891 0
M  V30 3835 N 373.959 -0.0401083 1.57549 0
M  V30 3836 C 375.205 -0.734211 1.89043 0
M  V30 3837 C 375.538 -1.75591 0.829535 0
M  V30 3838 O 374.813 -1.93868 -0.156706 0
M  V30 3839 C 375.096 -1.41374 3.31188 0
M  V30 3840 C 374.949 -0.406299 4.47961 0
M  V30 3841 C 376.268 -2.35061 3.72068 0
M  V30 3842 H 373.387 -0.265447 0.687537 0
M  V30 3843 H 376.029 0.00294087 1.9 0
M  V30 3844 H 374.179 -2.04206 3.30503 0
M  V30 3845 H 375.851 0.219255 4.60779 0
M  V30 3846 H 374.094 0.275485 4.32924 0
M  V30 3847 H 374.765 -0.920022 5.44279 0
M  V30 3848 H 377.241 -1.82282 3.74049 0
M  V30 3849 H 376.117 -2.79593 4.72355 0
M  V30 3850 H 376.378 -3.21258 3.0372 0
M  V30 3851 N 375.437 -1.54477 -0.31217 0
M  V30 3852 C 376.684 -1.73227 -1.04875 0
M  V30 3853 C 377.012 -0.512042 -1.87639 0
M  V30 3854 O 376.267 0.506131 -1.89042 0
M  V30 3855 C 376.566 -2.967 -1.99258 0
M  V30 3856 C 376.232 -4.30974 -1.32559 0
M  V30 3857 C 374.894 -4.67477 -1.141 0
M  V30 3858 C 377.246 -5.14258 -0.847835 0
M  V30 3859 C 374.574 -5.84852 -0.465326 0
M  V30 3860 C 376.926 -6.32327 -0.185931 0
M  V30 3861 C 375.59 -6.67499 0.0107077 0
M  V30 3862 H 374.86 -0.633881 -0.383765 0
M  V30 3863 H 377.507 -1.88727 -0.324731 0
M  V30 3864 H 375.812 -2.75935 -2.7815 0
M  V30 3865 H 377.509 -3.08401 -2.563 0
M  V30 3866 H 374.099 -4.02262 -1.4793 0
M  V30 3867 H 378.283 -4.86565 -0.978192 0
M  V30 3868 H 373.539 -6.10654 -0.301883 0
M  V30 3869 H 377.713 -6.96135 0.192211 0
M  V30 3870 H 375.34 -7.58306 0.536287 0
M  V30 3871 N 376.915 0.57481 -1.46744 0
M  V30 3872 C 377.878 1.66533 -1.57478 0
M  V30 3873 C 378.878 1.54338 -0.451263 0
M  V30 3874 O 380.068 1.58814 -0.715813 0
M  V30 3875 C 377.2 3.05999 -1.50259 0
M  V30 3876 H 378.393 1.58372 -2.54673 0
M  V30 3877 H 375.946 0.793301 -1.34672 0
M  V30 3878 H 376.681 3.19709 -0.543725 0
M  V30 3879 H 376.466 3.16259 -2.31781 0
M  V30 3880 H 377.956 3.8537 -1.60872 0
M  V30 3881 N 378.394 1.34581 0.820102 0
M  V30 3882 C 379.641 1.27096 1.57648 0
M  V30 3883 C 379.969 -0.158317 1.93855 0
M  V30 3884 O 379.224 -1.12028 1.60463 0
M  V30 3885 C 379.523 2.10997 2.8847 0
M  V30 3886 C 379.189 3.59966 2.71543 0
M  V30 3887 C 377.851 4.00575 2.66634 0
M  V30 3888 C 380.203 4.54548 2.55021 0
M  V30 3889 C 377.531 5.33953 2.43128 0
M  V30 3890 C 379.883 5.88109 2.33047 0
M  V30 3891 C 378.547 6.27878 2.26552 0
M  V30 3892 H 377.817 0.465078 0.576874 0
M  V30 3893 H 380.464 1.6635 0.948671 0
M  V30 3894 H 378.769 1.6458 3.55557 0
M  V30 3895 H 380.466 2.0255 3.46084 0
M  V30 3896 H 377.056 3.27733 2.76205 0
M  V30 3897 H 381.24 4.24069 2.57835 0
M  V30 3898 H 376.496 5.63781 2.3656 0
M  V30 3899 H 380.67 6.60985 2.19251 0
M  V30 3900 H 378.297 7.31162 2.081 0
M  V30 3901 N 379.872 -1.04064 1.18357 0
M  V30 3902 C 381.097 -1.81454 1.00445 0
M  V30 3903 C 381.522 -1.82823 -0.442423 0
M  V30 3904 O 380.88 -1.24555 -1.31741 0
M  V30 3905 C 380.928 -3.24925 1.56384 0
M  V30 3906 O 380.032 -4.04856 0.785209 0
M  V30 3907 H 379.373 -0.560604 0.355835 0
M  V30 3908 H 381.903 -1.31059 1.57114 0
M  V30 3909 H 381.913 -3.75702 1.59097 0
M  V30 3910 H 380.588 -3.23244 2.61699 0
M  V30 3911 H 379.165 -3.63537 0.830399 0
M  V30 3912 N 381.35 -0.985608 -1.22978 0
M  V30 3913 C 382.599 -0.652881 -1.90841 0
M  V30 3914 C 382.912 0.817842 -1.77681 0
M  V30 3915 O 384.118 1.26185 -2.40395 0
M  V30 3916 C 382.574 -1.11717 -3.42122 0
M  V30 3917 C 382.182 -2.6126 -3.63933 0
M  V30 3918 C 383.926 -0.85843 -4.1573 0
M  V30 3919 C 381.833 -3.0133 -5.08876 0
M  V30 3920 H 380.763 -0.240491 -0.714619 0
M  V30 3921 H 383.414 -1.1942 -1.39324 0
M  V30 3922 H 381.796 -0.504027 -3.92779 0
M  V30 3923 H 382.97 -3.27858 -3.23799 0
M  V30 3924 H 381.285 -2.84937 -3.03644 0
M  V30 3925 H 383.882 -1.13359 -5.22546 0
M  V30 3926 H 384.225 0.205461 -4.15793 0
M  V30 3927 H 384.758 -1.43341 -3.71077 0
M  V30 3928 H 381.497 -4.06864 -5.13947 0
M  V30 3929 H 381.017 -2.3943 -5.49939 0
M  V30 3930 H 382.696 -2.92224 -5.77247 0
M  V30 3931 N 382.828 1.3818 -0.7579 0
M  V30 3932 C 384.076 1.99624 -0.315361 0
M  V30 3933 C 384.397 1.60464 1.10799 0
M  V30 3934 O 383.667 0.863507 1.75842 0
M  V30 3935 H 382.247 0.73831 -0.113611 0
M  V30 3936 H 384.909 1.68878 -0.972952 0
M  V30 3937 H 384.005 3.09754 -0.381931 0
M  V30 3938 N 384.306 0.507319 1.49211 0
M  V30 3939 C 385.717 0.0611118 1.866 0
M  V30 3940 C 386.068 -1.35488 1.41907 0
M  V30 3941 O 385.193 -2.0108 0.799726 0
M  V30 3942 C 385.788 0.104125 3.3864 0
M  V30 3943 C 384.347 -0.28677 3.75306 0
M  V30 3944 C 383.494 0.473893 2.73221 0
M  V30 3945 H 386.445 0.719775 1.41439 0
M  V30 3946 H 386.466 -0.689672 3.74198 0
M  V30 3947 H 385.978 1.13482 3.71138 0
M  V30 3948 H 384.079 -1.32046 3.48417 0
M  V30 3949 H 384.192 0.0370745 4.79086 0
M  V30 3950 H 382.556 -0.0770644 2.54583 0
M  V30 3951 H 383.339 1.50478 3.08563 0
M  V30 3952 N 385.784 -1.5574 0.241426 0
M  V30 3953 C 386.694 -2.2479 -0.671305 0
M  V30 3954 C 387.71 -1.26217 -1.19772 0
M  V30 3955 O 388.886 -1.59079 -1.23514 0
M  V30 3956 C 385.951 -2.92966 -1.85396 0
M  V30 3957 C 385.012 -4.06935 -1.36756 0
M  V30 3958 C 384.245 -4.71851 -2.49384 0
M  V30 3959 O 384.468 -4.35823 -3.67987 0
M  V30 3960 O 383.402 -5.60467 -2.19454 0
M  V30 3961 H 387.228 -3.0349 -0.112966 0
M  V30 3962 H 384.813 -1.49397 0.0101513 0
M  V30 3963 H 386.695 -3.35927 -2.54423 0
M  V30 3964 H 385.37 -2.17211 -2.40002 0
M  V30 3965 H 384.277 -3.68503 -0.644726 0
M  V30 3966 H 385.61 -4.84492 -0.867647 0
M  V30 3967 N 387.262 0.0317525 -1.57568 0
M  V30 3968 C 388.209 1.0332 -2.06382 0
M  V30 3969 C 389.179 1.36082 -0.952414 0
M  V30 3970 O 390.364 1.46466 -1.2228 0
M  V30 3971 C 387.504 2.32989 -2.54578 0
M  V30 3972 C 386.617 2.0641 -3.79498 0
M  V30 3973 C 385.752 3.2993 -4.16317 0
M  V30 3974 C 384.791 2.98893 -5.34162 0
M  V30 3975 N 383.928 4.14857 -5.66426 0
M  V30 3976 H 388.768 0.609982 -2.9169 0
M  V30 3977 H 386.305 0.289573 -1.44222 0
M  V30 3978 H 388.263 3.0875 -2.80587 0
M  V30 3979 H 386.893 2.73039 -1.7219 0
M  V30 3980 H 385.945 1.21158 -3.6059 0
M  V30 3981 H 387.257 1.79513 -4.65378 0
M  V30 3982 H 386.411 4.1406 -4.4344 0
M  V30 3983 H 385.15 3.59938 -3.29083 0
M  V30 3984 H 384.155 2.13164 -5.06795 0
M  V30 3985 H 385.38 2.70165 -6.23047 0
M  V30 3986 H 383.326 4.44821 -4.82151 0
M  V30 3987 H 383.243 3.91374 -6.4681 0
M  V30 3988 H 384.511 4.99868 -5.98124 0
M  V30 3989 N 388.74 1.54641 0.303973 0
M  V30 3990 C 389.988 1.73437 1.0375 0
M  V30 3991 C 390.309 0.521449 1.87899 0
M  V30 3992 O 389.579 -0.46432 1.90318 0
M  V30 3993 H 388.159 0.639518 0.386039 0
M  V30 3994 H 390.821 1.91988 0.335675 0
M  V30 3995 H 389.917 2.62235 1.69231 0
M  V30 3996 N 390.218 -0.567019 1.47046 0
M  V30 3997 C 391.464 -1.32434 1.54379 0
M  V30 3998 C 391.819 -1.91365 0.199276 0
M  V30 3999 O 391.112 -1.74378 -0.793915 0
M  V30 4000 C 391.306 -2.4623 2.59047 0
M  V30 4001 C 391.135 -1.98448 4.03545 0
M  V30 4002 C 389.905 -1.82741 4.71098 0
M  V30 4003 C 392.103 -1.53477 4.90866 0
M  V30 4004 N 390.085 -1.29196 6.00151 0
M  V30 4005 C 391.456 -1.1163 6.09868 0
M  V30 4006 C 393.511 -1.41438 4.77388 0
M  V30 4007 C 392.214 -0.589425 7.16881 0
M  V30 4008 C 394.24 -0.901528 5.84488 0
M  V30 4009 C 393.602 -0.492932 7.02673 0
M  V30 4010 H 389.701 -0.477005 0.61967 0
M  V30 4011 H 392.285 -0.643856 1.83746 0
M  V30 4012 H 390.456 -3.11821 2.31564 0
M  V30 4013 H 392.188 -3.13213 2.56281 0
M  V30 4014 H 388.943 -2.05162 4.26855 0
M  V30 4015 H 389.367 -1.0454 6.6888 0
M  V30 4016 H 394.009 -1.71643 3.86392 0
M  V30 4017 H 391.727 -0.274994 8.07632 0
M  V30 4018 H 395.313 -0.812071 5.76105 0
M  V30 4019 H 394.193 -0.102227 7.84133 0
M  V30 4020 N 391.696 -1.35014 -0.812953 0
M  V30 4021 C 392.629 -1.21761 -1.93001 0
M  V30 4022 C 393.607 -0.10694 -1.62248 0
M  V30 4023 O 394.791 -0.273891 -1.865 0
M  V30 4024 C 391.918 -0.873404 -3.27245 0
M  V30 4025 C 390.964 -1.99523 -3.76952 0
M  V30 4026 S 391.797 -3.61009 -3.95516 0
M  V30 4027 C 392.953 -3.28651 -5.32672 0
M  V30 4028 H 393.186 -2.16315 -2.03948 0
M  V30 4029 H 390.719 -1.20156 -0.969631 0
M  V30 4030 H 392.677 -0.68161 -4.04802 0
M  V30 4031 H 391.338 0.053971 -3.14054 0
M  V30 4032 H 390.531 -1.70838 -4.74163 0
M  V30 4033 H 390.133 -2.14503 -3.06373 0
M  V30 4034 H 392.425 -2.81085 -6.1644 0
M  V30 4035 H 393.368 -4.25039 -5.66346 0
M  V30 4036 H 393.776 -2.6458 -4.98656 0
M  V30 4037 N 393.175 1.03435 -1.18907 0
M  V30 4038 C 394.4 1.80919 -1.01406 0
M  V30 4039 C 394.825 1.83055 0.432721 0
M  V30 4040 O 394.183 1.25252 1.31079 0
M  V30 4041 C 394.231 3.24091 -1.58105 0
M  V30 4042 O 393.335 4.04434 -0.806669 0
M  V30 4043 H 392.676 0.558709 -0.358803 0
M  V30 4044 H 395.206 1.30223 -1.57807 0
M  V30 4045 H 395.216 3.74853 -1.61087 0
M  V30 4046 H 393.891 3.21851 -2.6341 0
M  V30 4047 H 392.468 3.63091 -0.849666 0
M  V30 4048 N 394.653 0.992116 1.22453 0
M  V30 4049 C 395.901 0.666215 1.90804 0
M  V30 4050 C 396.222 -0.804152 1.77647 0
M  V30 4051 O 395.492 -1.57629 1.16318 0
M  V30 4052 H 394.072 0.243423 0.706225 0
M  V30 4053 H 396.734 1.25845 1.48825 0
M  V30 4054 H 395.83 0.928069 2.97982 0
M  V30 4055 N 396.131 -1.37776 0.765217 0
M  V30 4056 C 397.38 -1.99092 0.323307 0
M  V30 4057 C 397.693 -1.61434 -1.10446 0
M  V30 4058 O 398.899 -2.15805 -1.64743 0
M  V30 4059 C 397.355 -3.56019 0.527098 0
M  V30 4060 C 396.963 -4.0262 1.96471 0
M  V30 4061 C 398.707 -4.2424 0.148483 0
M  V30 4062 C 396.614 -5.52233 2.11644 0
M  V30 4063 H 395.544 -0.744846 0.117137 0
M  V30 4064 H 398.195 -1.57391 0.943417 0
M  V30 4065 H 396.577 -3.95667 -0.162372 0
M  V30 4066 H 397.751 -3.74234 2.68859 0
M  V30 4067 H 396.066 -3.47161 2.29931 0
M  V30 4068 H 398.663 -5.34159 0.240456 0
M  V30 4069 H 399.006 -4.06446 -0.900422 0
M  V30 4070 H 399.539 -3.89872 0.79025 0
M  V30 4071 H 396.278 -5.74945 3.1483 0
M  V30 4072 H 395.798 -5.82324 1.4373 0
M  V30 4073 H 397.477 -6.18106 1.91193 0
M  V30 4074 N 397.609 -0.515225 -1.4894 0
M  V30 4075 C 398.837 0.0206034 -2.0689 0
M  V30 4076 C 399.252 1.29514 -1.37374 0
M  V30 4077 O 398.609 1.76698 -0.456529 0
M  V30 4078 C 398.66 0.26351 -3.60538 0
M  V30 4079 O 398.381 -0.960517 -4.27441 0
M  V30 4080 C 399.882 0.841383 -4.35242 0
M  V30 4081 H 397.102 -0.0268608 -0.670462 0
M  V30 4082 H 399.646 -0.716651 -1.91532 0
M  V30 4083 H 397.801 0.950777 -3.75552 0
M  V30 4084 H 398.215 -0.73212 -5.19365 0
M  V30 4085 H 399.689 0.96085 -5.43573 0
M  V30 4086 H 400.166 1.8427 -3.98674 0
M  V30 4087 H 400.772 0.191143 -4.2487 0
M  V30 4088 N 399.087 1.5561 -0.249682 0
M  V30 4089 C 400.336 1.98187 0.37479 0
M  V30 4090 C 400.649 1.14111 1.58865 0
M  V30 4091 O 401.855 1.46714 2.28445 0
M  V30 4092 C 400.311 3.52661 0.718192 0
M  V30 4093 C 399.919 4.45481 -0.474428 0
M  V30 4094 C 401.663 4.03888 1.3067 0
M  V30 4095 C 399.57 5.91303 -0.107026 0
M  V30 4096 H 398.5 0.740159 0.143808 0
M  V30 4097 H 401.151 1.80125 -0.350336 0
M  V30 4098 H 399.533 3.66429 1.50152 0
M  V30 4099 H 400.707 4.43473 -1.25172 0
M  V30 4100 H 399.022 4.04751 -0.978052 0
M  V30 4101 H 401.619 5.10358 1.59496 0
M  V30 4102 H 401.962 3.51401 2.23211 0
M  V30 4103 H 402.495 3.93457 0.586211 0
M  V30 4104 H 399.234 6.47833 -0.999642 0
M  V30 4105 H 398.754 5.9644 0.634013 0
M  V30 4106 H 400.433 6.46258 0.309807 0
M  V30 4107 N 400.565 -0.0233959 1.57583 0
M  V30 4108 C 401.813 -0.711654 1.89156 0
M  V30 4109 C 402.134 -1.75591 0.848096 0
M  V30 4110 O 401.404 -1.95547 -0.117566 0
M  V30 4111 H 399.984 -0.265835 0.698098 0
M  V30 4112 H 402.646 0.0119948 1.94896 0
M  V30 4113 H 401.742 -1.19766 2.88206 0
M  V30 4114 N 402.043 -1.548 -0.295768 0
M  V30 4115 C 403.268 -1.78653 -1.05346 0
M  V30 4116 C 403.693 -0.546894 -1.79974 0
M  V30 4117 O 403.051 0.502763 -1.7419 0
M  V30 4118 C 403.099 -2.99679 -2.00561 0
M  V30 4119 O 402.203 -2.7317 -3.08953 0
M  V30 4120 H 401.544 -0.59116 -0.302367 0
M  V30 4121 H 404.074 -2.01895 -0.331598 0
M  V30 4122 H 404.084 -3.27793 -2.42932 0
M  V30 4123 H 402.759 -3.89562 -1.4565 0
M  V30 4124 H 401.336 -2.56089 -2.71059 0
M  V30 4125 N 403.521 0.559213 -1.47345 0
M  V30 4126 C 404.769 1.31388 -1.53563 0
M  V30 4127 C 405.09 1.93985 -0.198678 0
M  V30 4128 O 404.36 1.79825 0.777167 0
M  V30 4129 H 402.94 0.487901 -0.565652 0
M  V30 4130 H 405.602 0.65315 -1.8363 0
M  V30 4131 H 404.698 2.10844 -2.30111 0
M  V30 4132 N 404.999 1.35443 0.805782 0
M  V30 4133 C 405.929 1.31095 1.93226 0
M  V30 4134 C 406.91 0.185244 1.69088 0
M  V30 4135 O 408.095 0.380332 1.90439 0
M  V30 4136 C 405.225 1.08299 3.29983 0
M  V30 4137 C 404.179 2.17519 3.68605 0
M  V30 4138 C 403.505 1.79887 5.03532 0
M  V30 4139 C 404.805 3.5949 3.78898 0
M  V30 4140 H 406.499 2.25352 1.97122 0
M  V30 4141 H 404.045 1.0848 0.946996 0
M  V30 4142 H 405.998 1.03897 4.08391 0
M  V30 4143 H 404.722 0.104885 3.26432 0
M  V30 4144 H 403.381 2.2102 2.92482 0
M  V30 4145 H 403.029 0.80693 4.96485 0
M  V30 4146 H 402.729 2.53001 5.30344 0
M  V30 4147 H 404.253 1.77011 5.84379 0
M  V30 4148 H 405.667 3.58307 4.47536 0
M  V30 4149 H 404.064 4.31371 4.1718 0
M  V30 4150 H 405.134 3.95584 2.80431 0
M  V30 4151 N 406.477 -1.02803 1.19454 0
M  V30 4152 C 407.723 -1.76478 0.999171 0
M  V30 4153 C 408.056 -1.88456 -0.468828 0
M  V30 4154 O 407.331 -1.40198 -1.34814 0
M  V30 4155 C 407.614 -3.19044 1.66981 0
M  V30 4156 C 407.467 -3.14932 3.21151 0
M  V30 4157 C 408.786 -4.17456 1.39349 0
M  V30 4158 H 405.905 -0.640614 0.364393 0
M  V30 4159 H 408.547 -1.20005 1.47305 0
M  V30 4160 H 406.697 -3.67263 1.2669 0
M  V30 4161 H 408.369 -2.74605 3.70661 0
M  V30 4162 H 406.612 -2.52625 3.52652 0
M  V30 4163 H 407.283 -4.1566 3.63223 0
M  V30 4164 H 409.759 -3.77842 1.74283 0
M  V30 4165 H 408.635 -5.154 1.88823 0
M  V30 4166 H 408.896 -4.40949 0.318813 0
M  V30 4167 N 407.956 -0.998596 -1.21925 0
M  V30 4168 C 408.919 -0.558679 -2.22287 0
M  V30 4169 C 409.919 0.361525 -1.56683 0
M  V30 4170 O 411.109 0.152695 -1.73529 0
M  V30 4171 C 408.241 0.18661 -3.40389 0
M  V30 4172 H 409.434 -1.4463 -2.62721 0
M  V30 4173 H 406.987 -0.786413 -1.35075 0
M  V30 4174 H 407.722 1.08996 -3.05435 0
M  V30 4175 H 407.507 -0.474188 -3.89222 0
M  V30 4176 H 408.997 0.482367 -4.14805 0
M  V30 4177 N 409.434 1.37368 -0.772513 0
M  V30 4178 C 410.364 2.32856 -0.173304 0
M  V30 4179 C 411.345 1.55818 0.682262 0
M  V30 4180 O 412.53 1.84052 0.619566 0
M  V30 4181 C 409.66 3.40048 0.706007 0
M  V30 4182 C 408.614 4.27973 -0.0483144 0
M  V30 4183 C 407.94 5.26184 0.950491 0
M  V30 4184 C 409.24 5.07665 -1.22776 0
M  V30 4185 H 410.934 2.83217 -0.971002 0
M  V30 4186 H 408.48 1.3617 -0.468377 0
M  V30 4187 H 410.433 4.05827 1.13501 0
M  V30 4188 H 409.157 2.88214 1.53623 0
M  V30 4189 H 407.816 3.63726 -0.458107 0
M  V30 4190 H 407.464 4.7063 1.77529 0
M  V30 4191 H 407.164 5.85872 0.450314 0
M  V30 4192 H 408.688 5.94838 1.37842 0
M  V30 4193 H 410.102 5.66578 -0.875366 0
M  V30 4194 H 408.499 5.76681 -1.66007 0
M  V30 4195 H 409.569 4.40294 -2.03149 0
M  V30 4196 N 410.912 0.523116 1.48665 0
M  V30 4197 C 411.875 -0.232592 2.28017 0
M  V30 4198 C 412.875 -0.874021 1.34972 0
M  V30 4199 O 414.065 -0.735132 1.57929 0
M  V30 4200 C 411.197 -1.33586 3.13636 0
M  V30 4201 H 412.39 0.464008 2.96289 0
M  V30 4202 H 409.943 0.278816 1.53793 0
M  V30 4203 H 410.678 -2.06593 2.4998 0
M  V30 4204 H 410.463 -0.881125 3.82071 0
M  V30 4205 H 411.953 -1.86759 3.73511 0
M  V30 4206 N 412.39 -1.55475 0.257931 0
M  V30 4207 C 413.353 -2.20551 -0.623706 0
M  V30 4208 C 414.353 -1.17809 -1.09443 0
M  V30 4209 O 415.543 -1.42823 -0.997362 0
M  V30 4210 C 412.675 -2.85784 -1.8585 0
M  V30 4211 H 413.868 -2.99848 -0.0557743 0
M  V30 4212 H 411.421 -1.56298 0.0084422 0
M  V30 4213 H 412.156 -2.10453 -2.46739 0
M  V30 4214 H 411.941 -3.61057 -1.52907 0
M  V30 4215 H 413.431 -3.35553 -2.48584 0
M  V30 4216 N 413.868 0.0150385 -1.57593 0
M  V30 4217 C 414.831 0.995996 -2.06428 0
M  V30 4218 C 415.831 1.2818 -0.970903 0
M  V30 4219 O 417.021 1.22949 -1.23406 0
M  V30 4220 C 414.153 2.32506 -2.49307 0
M  V30 4221 H 415.346 0.573873 -2.94358 0
M  V30 4222 H 412.899 0.262186 -1.54085 0
M  V30 4223 H 413.634 2.79438 -1.64575 0
M  V30 4224 H 413.419 2.13087 -3.29145 0
M  V30 4225 H 414.909 3.02906 -2.87468 0
M  V30 4226 N 415.346 1.54954 0.287554 0
M  V30 4227 C 416.592 1.75132 1.02257 0
M  V30 4228 C 416.925 0.542858 1.86458 0
M  V30 4229 O 416.2 -0.459856 1.88986 0
M  V30 4230 C 416.483 3.04812 1.91733 0
M  V30 4231 C 416.336 4.35985 1.10622 0
M  V30 4232 C 417.655 3.30438 2.90687 0
M  V30 4233 H 414.774 0.637194 0.370341 0
M  V30 4234 H 417.416 1.87678 0.296111 0
M  V30 4235 H 415.566 2.94247 2.53675 0
M  V30 4236 H 417.238 4.58487 0.508636 0
M  V30 4237 H 415.481 4.31865 0.409271 0
M  V30 4238 H 416.152 5.23017 1.76513 0
M  V30 4239 H 418.628 3.40701 2.38877 0
M  V30 4240 H 417.504 4.22467 3.50447 0
M  V30 4241 H 417.765 2.49377 3.65053 0
M  V30 4242 N 416.824 -0.551391 1.4764 0
M  V30 4243 C 417.787 -1.64007 1.60107 0
M  V30 4244 C 418.787 -1.53601 0.47576 0
M  V30 4245 O 419.977 -1.57655 0.740988 0
M  V30 4246 C 417.109 -3.03569 1.55108 0
M  V30 4247 H 418.302 -1.543 2.57161 0
M  V30 4248 H 415.855 -0.771776 1.35917 0
M  V30 4249 H 416.59 -3.18804 0.594519 0
M  V30 4250 H 416.375 -3.12532 2.36783 0
M  V30 4251 H 417.865 -3.82762 1.66982 0
M  V30 4252 N 418.302 -1.35869 -0.798587 0
M  V30 4253 C 419.549 -1.29588 -1.55606 0
M  V30 4254 C 419.877 0.127456 -1.94082 0
M  V30 4255 O 419.132 1.09461 -1.62225 0
M  V30 4256 C 419.431 -2.1556 -2.85077 0
M  V30 4257 C 419.097 -3.6424 -2.65781 0
M  V30 4258 C 417.759 -4.04766 -2.60227 0
M  V30 4259 C 420.111 -4.58547 -2.47758 0
M  V30 4260 C 417.439 -5.37753 -2.34603 0
M  V30 4261 C 419.791 -5.91742 -2.23662 0
M  V30 4262 C 418.455 -6.31402 -2.16534 0
M  V30 4263 H 417.725 -0.474197 -0.569402 0
M  V30 4264 H 420.372 -1.67839 -0.922086 0
M  V30 4265 H 418.677 -1.70216 -3.52893 0
M  V30 4266 H 420.374 -2.08031 -3.42818 0
M  V30 4267 H 416.964 -3.32086 -2.70956 0
M  V30 4268 H 421.148 -4.28117 -2.51056 0
M  V30 4269 H 416.404 -5.67474 -2.2756 0
M  V30 4270 H 420.578 -6.6439 -2.08708 0
M  V30 4271 H 418.205 -7.34381 -1.96441 0
M  V30 4272 N 419.78 1.02168 -1.19998 0
M  V30 4273 C 421.026 1.75945 -1.00852 0
M  V30 4274 C 421.359 1.88702 0.458828 0
M  V30 4275 O 420.634 1.40911 1.34069 0
M  V30 4276 C 420.917 3.18154 -1.68671 0
M  V30 4277 C 420.77 3.13224 -3.22817 0
M  V30 4278 C 422.089 4.16711 -1.41561 0
M  V30 4279 H 419.208 0.638673 -0.367785 0
M  V30 4280 H 421.85 1.19222 -1.4794 0
M  V30 4281 H 420 3.66586 -1.28636 0
M  V30 4282 H 421.672 2.72635 -3.72112 0
M  V30 4283 H 419.915 2.50751 -3.53986 0
M  V30 4284 H 420.586 4.13728 -3.65422 0
M  V30 4285 H 423.062 3.76913 -1.76284 0
M  V30 4286 H 421.938 5.14391 -1.91553 0
M  V30 4287 H 422.199 4.40774 -0.342193 0
M  V30 4288 N 421.258 1.00505 1.21394 0
M  V30 4289 C 422.507 0.683159 1.89778 0
M  V30 4290 C 422.82 -0.789471 1.7896 0
M  V30 4291 O 424.026 -1.22344 2.42372 0
M  V30 4292 C 422.482 1.17146 3.40301 0
M  V30 4293 C 422.09 2.67017 3.5973 0
M  V30 4294 C 423.834 0.924461 4.14311 0
M  V30 4295 C 421.741 3.09387 5.04017 0
M  V30 4296 H 420.671 0.25183 0.710702 0
M  V30 4297 H 423.322 1.21622 1.37406 0
M  V30 4298 H 421.704 0.566451 3.91928 0
M  V30 4299 H 422.878 3.32968 3.18542 0
M  V30 4300 H 421.193 2.89732 2.99073 0
M  V30 4301 H 423.79 1.21658 5.20676 0
M  V30 4302 H 424.133 -0.139286 4.16067 0
M  V30 4303 H 424.666 1.49226 3.6875 0
M  V30 4304 H 421.405 4.14989 5.07409 0
M  V30 4305 H 420.925 2.48149 5.46061 0
M  V30 4306 H 422.604 3.01371 5.72525 0
M  V30 4307 N 422.737 -1.36956 0.779787 0
M  V30 4308 C 423.983 -1.99787 0.348281 0
M  V30 4309 C 424.316 -1.61756 -1.07465 0
M  V30 4310 O 423.591 -0.867639 -1.74075 0
M  V30 4311 C 423.874 -3.56597 0.50104 0
M  V30 4312 C 423.727 -4.04513 1.96697 0
M  V30 4313 C 425.046 -4.40008 -0.0898097 0
M  V30 4314 H 422.165 -0.725796 0.128022 0
M  V30 4315 H 424.807 -1.62514 0.984331 0
M  V30 4316 H 422.957 -3.88479 -0.0404347 0
M  V30 4317 H 424.629 -3.83161 2.56876 0
M  V30 4318 H 422.872 -3.56408 2.47297 0
M  V30 4319 H 423.543 -5.1352 2.02486 0
M  V30 4320 H 426.019 -4.14431 0.372293 0
M  V30 4321 H 424.895 -5.4888 0.0471605 0
M  V30 4322 H 425.156 -4.26035 -1.18096 0
M  V30 4323 N 424.215 -0.530993 -1.48385 0
M  V30 4324 C 425.125 0.23503 -2.3342 0
M  V30 4325 C 426.141 0.93801 -1.46552 0
M  V30 4326 O 427.317 0.912745 -1.7953 0
M  V30 4327 C 424.382 1.26778 -3.22689 0
M  V30 4328 C 423.443 0.575038 -4.25431 0
M  V30 4329 C 422.676 1.55858 -5.10435 0
M  V30 4330 O 422.899 2.79129 -4.97437 0
M  V30 4331 O 421.833 1.09742 -5.91811 0
M  V30 4332 H 425.659 -0.461794 -3.00169 0
M  V30 4333 H 423.244 -0.291903 -1.46521 0
M  V30 4334 H 425.126 1.86457 -3.77904 0
M  V30 4335 H 423.801 1.94699 -2.586 0
M  V30 4336 H 422.708 -0.0622782 -3.74048 0
M  V30 4337 H 424.041 -0.062253 -4.92161 0
M  V30 4338 N 425.693 1.55336 -0.266172 0
M  V30 4339 C 427.109 1.59356 0.0882065 0
M  V30 4340 C 427.309 1.2834 1.55342 0
M  V30 4341 O 426.365 1.03996 2.30089 0
M  V30 4342 C 427.678 2.99409 -0.278364 0
M  V30 4343 C 429.226 3.12196 -0.224243 0
M  V30 4344 C 429.701 4.545 -0.565123 0
M  V30 4345 N 431.192 4.60313 -0.51634 0
M  V30 4346 C 431.927 5.68434 -0.753013 0
M  V30 4347 N 431.423 6.84738 -1.05383 0
M  V30 4348 N 433.216 5.57942 -0.682414 0
M  V30 4349 H 425.367 1.73764 -1.22147 0
M  V30 4350 H 427.63 0.809822 -0.492841 0
M  V30 4351 H 427.336 3.2691 -1.29703 0
M  V30 4352 H 427.21 3.75228 0.385186 0
M  V30 4353 H 429.597 2.84464 0.78512 0
M  V30 4354 H 429.678 2.38609 -0.921922 0
M  V30 4355 H 429.322 4.82956 -1.57213 0
M  V30 4356 H 429.252 5.26374 0.154248 0
M  V30 4357 H 431.743 3.7676 -0.29335 0
M  V30 4358 H 432.056 7.63088 -1.22133 0
M  V30 4359 H 430.401 6.86375 -1.09151 0
M  V30 4360 H 433.592 4.65958 -0.44731 0
M  V30 4361 H 433.765 6.4213 -0.870248 0
M  V30 4362 N 427.171 -0.0066808 1.57599 0
M  V30 4363 C 428.399 -0.704087 1.94551 0
M  V30 4364 C 428.814 -1.67677 0.867746 0
M  V30 4365 O 428.171 -1.8185 -0.153925 0
M  V30 4366 C 428.222 -1.44177 3.31505 0
M  V30 4367 O 427.943 -0.508097 4.35144 0
M  V30 4368 C 429.444 -2.23429 3.82876 0
M  V30 4369 H 426.664 -0.196523 0.641576 0
M  V30 4370 H 429.208 0.042453 2.04456 0
M  V30 4371 H 427.363 -2.13999 3.22929 0
M  V30 4372 H 427.777 -1.02782 5.14331 0
M  V30 4373 H 429.251 -2.70552 4.8115 0
M  V30 4374 H 429.728 -3.05818 3.15233 0
M  V30 4375 H 430.334 -1.58636 3.94607 0
M  V30 4376 N 428.649 -1.55105 -0.279332 0
M  V30 4377 C 429.612 -1.86783 -1.32834 0
M  V30 4378 C 430.612 -0.74199 -1.42657 0
M  V30 4379 O 431.802 -1.0102 -1.41918 0
M  V30 4380 C 428.934 -2.06746 -2.71052 0
M  V30 4381 H 430.127 -2.8055 -1.05979 0
M  V30 4382 H 427.68 -1.47499 -0.517087 0
M  V30 4383 H 428.415 -1.15339 -3.03097 0
M  V30 4384 H 428.2 -2.88711 -2.65309 0
M  V30 4385 H 429.69 -2.32549 -3.46858 0
M  V30 4386 N 430.127 0.543554 -1.4793 0
M  V30 4387 C 431.037 1.67657 -1.64098 0
M  V30 4388 C 432.053 1.65934 -0.523622 0
M  V30 4389 O 433.229 1.85133 -0.792943 0
M  V30 4390 C 430.294 3.04146 -1.66421 0
M  V30 4391 C 429.355 3.16831 -2.89684 0
M  V30 4392 C 428.588 4.46809 -2.91886 0
M  V30 4393 O 428.811 5.33095 -2.02895 0
M  V30 4394 O 427.745 4.63573 -3.83906 0
M  V30 4395 H 431.571 1.56957 -2.59997 0
M  V30 4396 H 429.156 0.715116 -1.31173 0
M  V30 4397 H 431.038 3.85346 -1.70548 0
M  V30 4398 H 429.713 3.152 -0.736923 0
M  V30 4399 H 428.62 2.34977 -2.91095 0
M  V30 4400 H 429.953 3.10687 -3.81752 0
M  V30 4401 N 431.605 1.3629 0.791371 0
M  V30 4402 C 432.553 1.30514 1.92533 0
M  V30 4403 C 433.547 0.197285 1.68247 0
M  V30 4404 O 434.753 0.364176 1.76278 0
M  V30 4405 H 431.128 0.406263 0.632815 0
M  V30 4406 H 433.099 2.26282 1.94523 0
M  V30 4407 C 431.848 1.10933 3.29529 0
M  V30 4408 H 431.171 1.95427 3.48781 0
M  V30 4409 H 432.611 1.10937 4.0923 0
M  V30 4410 C 431.07 -0.186123 3.36385 0
M  V30 4411 O 431.6 -1.17664 3.84081 0
M  V30 4412 N 429.806 -0.230128 2.89687 0
M  V30 4413 H 429.353 0.576545 2.51065 0
M  V30 4414 H 429.311 -1.09658 2.94657 0
M  V30 4415 N 433.083 -1.0153 1.20538 0
M  V30 4416 C 434.494 -1.56598 1.01657 0
M  V30 4417 C 434.845 -1.91505 -0.426668 0
M  V30 4418 O 433.97 -1.72375 -1.30827 0
M  V30 4419 C 434.565 -2.84542 1.83905 0
M  V30 4420 C 433.124 -3.36133 1.69386 0
M  V30 4421 C 432.271 -2.09427 1.81757 0
M  V30 4422 H 435.222 -0.838974 1.34711 0
M  V30 4423 H 435.243 -3.56004 1.34319 0
M  V30 4424 H 434.755 -2.59105 2.8894 0
M  V30 4425 H 432.856 -3.66528 0.669933 0
M  V30 4426 H 432.969 -4.08248 2.50739 0
M  V30 4427 H 431.333 -2.21941 1.24957 0
M  V30 4428 H 432.116 -1.86414 2.88279 0
M  V30 4429 N 434.561 -1.01147 -1.20859 0
M  V30 4430 C 435.807 -0.698899 -1.90377 0
M  V30 4431 C 436.14 0.76904 -1.78324 0
M  V30 4432 O 435.415 1.55817 -1.16409 0
M  V30 4433 C 435.698 -1.12878 -3.41951 0
M  V30 4434 C 435.551 -2.65665 -3.62963 0
M  V30 4435 C 436.87 -0.696114 -4.3456 0
M  V30 4436 H 433.989 -0.255372 -0.691342 0
M  V30 4437 H 436.631 -1.25831 -1.42361 0
M  V30 4438 H 434.781 -0.652827 -3.82976 0
M  V30 4439 H 436.453 -3.21074 -3.31224 0
M  V30 4440 H 434.696 -3.06878 -3.06608 0
M  V30 4441 H 435.367 -2.90797 -4.69192 0
M  V30 4442 H 437.843 -1.10521 -4.01154 0
M  V30 4443 H 436.719 -1.025 -5.39245 0
M  V30 4444 H 436.98 0.402465 -4.40264 0
M  V30 4445 N 436.039 1.36541 -0.78704 0
M  V30 4446 C 437.285 1.99599 -0.358872 0
M  V30 4447 C 437.618 1.62323 1.06606 0
M  V30 4448 O 436.893 0.876858 1.73613 0
M  V30 4449 C 437.176 3.56327 -0.519944 0
M  V30 4450 C 437.029 4.03464 -1.98839 0
M  V30 4451 C 438.348 4.4005 0.0664737 0
M  V30 4452 H 435.467 0.725107 -0.131869 0
M  V30 4453 H 438.109 1.6199 -0.992936 0
M  V30 4454 H 436.259 3.88495 0.0198321 0
M  V30 4455 H 437.931 3.81793 -2.58905 0
M  V30 4456 H 436.174 3.55092 -2.49183 0
M  V30 4457 H 436.845 5.12439 -2.05207 0
M  V30 4458 H 439.321 4.14228 -0.394267 0
M  V30 4459 H 438.197 5.48847 -0.0762682 0
M  V30 4460 H 438.458 4.26655 1.15835 0
M  V30 4461 N 437.518 0.538854 1.48102 0
M  V30 4462 C 438.929 0.100679 1.86428 0
M  V30 4463 C 439.28 -1.32447 1.44749 0
M  V30 4464 O 438.405 -1.99339 0.842199 0
M  V30 4465 C 439 0.175933 3.38343 0
M  V30 4466 C 437.559 -0.207098 3.7583 0
M  V30 4467 C 436.706 0.531741 2.72154 0
M  V30 4468 H 439.657 0.749614 1.3988 0
M  V30 4469 H 439.678 -0.610144 3.75576 0
M  V30 4470 H 439.19 1.21328 3.68648 0
M  V30 4471 H 437.291 -1.24626 3.5114 0
M  V30 4472 H 437.404 0.138687 4.78899 0
M  V30 4473 H 435.768 -0.0230462 2.5469 0
M  V30 4474 H 436.551 1.56989 3.05302 0
M  V30 4475 N 438.996 -1.55193 0.274407 0
M  V30 4476 C 440.243 -1.99581 -0.342579 0
M  V30 4477 C 440.571 -1.1628 -1.55914 0
M  V30 4478 O 439.826 -0.22029 -1.94456 0
M  V30 4479 C 440.125 -3.49019 -0.769458 0
M  V30 4480 C 439.791 -4.49598 0.342389 0
M  V30 4481 C 438.453 -4.76821 0.647686 0
M  V30 4482 C 440.805 -5.0964 1.09163 0
M  V30 4483 C 438.133 -5.61354 1.70581 0
M  V30 4484 C 440.485 -5.95323 2.13948 0
M  V30 4485 C 439.149 -6.20867 2.45113 0
M  V30 4486 H 438.419 -0.730319 -0.125358 0
M  V30 4487 H 441.066 -1.87529 0.387971 0
M  V30 4488 H 439.371 -3.58544 -1.57967 0
M  V30 4489 H 441.068 -3.8077 -1.25757 0
M  V30 4490 H 437.658 -4.28496 0.094318 0
M  V30 4491 H 441.842 -4.88632 0.869024 0
M  V30 4492 H 437.098 -5.79392 1.9523 0
M  V30 4493 H 441.272 -6.40881 2.72478 0
M  V30 4494 H 438.899 -6.86162 3.27239 0
M  V30 4495 N 440.474 -0.00167713 -1.576 0
M  V30 4496 C 441.424 0.997744 -2.0501 0
M  V30 4497 C 442.408 1.30214 -0.94515 0
M  V30 4498 O 443.6 1.29284 -1.20891 0
M  V30 4499 C 440.729 2.2892 -2.55833 0
M  V30 4500 C 439.815 2.01437 -3.73208 0
M  V30 4501 N 440.206 1.44119 -4.84833 0
M  V30 4502 C 438.504 2.31571 -3.8117 0
M  V30 4503 C 439.205 1.33145 -5.66257 0
M  V30 4504 N 438.181 1.81763 -5.12312 0
M  V30 4505 H 441.983 0.549098 -2.88725 0
M  V30 4506 H 439.497 0.20398 -1.61114 0
M  V30 4507 H 441.494 3.01361 -2.88075 0
M  V30 4508 H 440.154 2.74436 -1.73537 0
M  V30 4509 H 441.165 1.11978 -5.0565 0
M  V30 4510 H 437.842 2.7995 -3.09732 0
M  V30 4511 H 439.232 0.890567 -6.65972 0
M  V30 4512 N 441.952 1.55251 0.271103 0
M  V30 4513 C 442.882 1.9127 1.33933 0
M  V30 4514 C 443.863 0.77478 1.5143 0
M  V30 4515 O 445.048 1.03307 1.64442 0
M  V30 4516 C 442.178 2.18627 2.69851 0
M  V30 4517 C 441.132 3.34442 2.67081 0
M  V30 4518 C 440.458 3.47284 4.06569 0
M  V30 4519 C 441.758 4.70784 2.26185 0
M  V30 4520 H 443.452 2.80744 1.04035 0
M  V30 4521 H 440.998 1.35077 0.499017 0
M  V30 4522 H 442.951 2.42413 3.44694 0
M  V30 4523 H 441.675 1.25955 3.01335 0
M  V30 4524 H 440.334 3.10627 1.94695 0
M  V30 4525 H 439.982 2.52074 4.35279 0
M  V30 4526 H 439.682 4.25152 4.0561 0
M  V30 4527 H 441.206 3.73363 4.83148 0
M  V30 4528 H 442.62 4.94102 2.90751 0
M  V30 4529 H 441.017 5.51582 2.36384 0
M  V30 4530 H 442.087 4.69478 1.21319 0
M  V30 4531 N 443.43 -0.535701 1.48216 0
M  V30 4532 C 444.677 -1.29183 1.55942 0
M  V30 4533 C 445.005 -1.93125 0.230857 0
M  V30 4534 O 444.26 -1.79556 -0.778331 0
M  V30 4535 C 444.559 -2.4068 2.64212 0
M  V30 4536 C 444.225 -1.94428 4.06827 0
M  V30 4537 C 442.887 -1.81532 4.45645 0
M  V30 4538 C 445.239 -1.59405 4.96225 0
M  V30 4539 C 442.567 -1.31939 5.71672 0
M  V30 4540 C 444.919 -1.11276 6.22736 0
M  V30 4541 C 443.583 -0.969924 6.60416 0
M  V30 4542 H 442.853 -0.472715 0.570632 0
M  V30 4543 H 445.5 -0.598437 1.81909 0
M  V30 4544 H 443.805 -3.15666 2.32083 0
M  V30 4545 H 445.502 -2.98822 2.67407 0
M  V30 4546 H 442.092 -2.05415 3.76168 0
M  V30 4547 H 446.276 -1.68231 4.66917 0
M  V30 4548 H 441.532 -1.19562 5.99596 0
M  V30 4549 H 445.706 -0.832453 6.91407 0
M  V30 4550 H 443.333 -0.583436 7.57958 0
M  V30 4551 N 444.908 -1.36708 -0.784132 0
M  V30 4552 C 446.324 -1.17237 -1.08294 0
M  V30 4553 C 446.524 -5.93947e-05 -2.015 0
M  V30 4554 O 445.58 0.663686 -2.43622 0
M  V30 4555 C 446.893 -2.48557 -1.69233 0
M  V30 4556 C 448.441 -2.54968 -1.8155 0
M  V30 4557 C 448.916 -3.86388 -2.45904 0
M  V30 4558 N 450.407 -3.87762 -2.53367 0
M  V30 4559 C 451.142 -4.86191 -3.03983 0
M  V30 4560 N 450.638 -5.95015 -3.54866 0
M  V30 4561 N 452.431 -4.73606 -3.02743 0
M  V30 4562 H 444.582 -2.11758 -0.16501 0
M  V30 4563 H 446.845 -0.93822 -0.135822 0
M  V30 4564 H 446.551 -3.34638 -1.08215 0
M  V30 4565 H 446.425 -2.64748 -2.68679 0
M  V30 4566 H 448.812 -1.69302 -2.41704 0
M  V30 4567 H 448.893 -2.42672 -0.80895 0
M  V30 4568 H 448.537 -4.72462 -1.86392 0
M  V30 4569 H 448.467 -3.95982 -3.4714 0
M  V30 4570 H 450.958 -3.09145 -2.17343 0
M  V30 4571 H 451.271 -6.66086 -3.91854 0
M  V30 4572 H 449.616 -5.98676 -3.53003 0
M  V30 4573 H 452.807 -3.87717 -2.62284 0
M  V30 4574 H 452.98 -5.50473 -3.41881 0
M  V30 4575 N 446.386 1.0089 -1.21074 0
M  V30 4576 C 447.663 1.71834 -0.934469 0
M  V30 4577 C 448.043 2.0368 0.554753 0
M  V30 4578 O 447.391 1.70742 1.51854 0
M  V30 4579 C 447.601 2.98061 -1.8155 0
M  V30 4580 C 448.949 3.7117 -2.06199 0
M  V30 4581 O 449.973 3.08034 -1.78867 0
M  V30 4582 O 448.832 4.84721 -2.52404 0
M  V30 4583 H 445.926 0.749253 -0.35007 0
M  V30 4584 H 448.472 1.06668 -1.31985 0
M  V30 4585 H 447.244 2.70908 -2.82355 0
M  V30 4586 H 446.867 3.70968 -1.43068 0
M  V30 4587 N 447.864 1.01787 1.20321 0
M  V30 4588 C 449.28 0.732951 1.41774 0
M  V30 4589 C 449.48 -0.686883 1.89431 0
M  V30 4590 O 448.536 -1.45446 2.06402 0
M  V30 4591 C 449.849 1.75973 2.43832 0
M  V30 4592 C 451.397 1.77802 2.57596 0
M  V30 4593 C 451.872 2.7941 3.62897 0
M  V30 4594 N 453.363 2.78157 3.70382 0
M  V30 4595 C 454.098 3.53434 4.51521 0
M  V30 4596 N 453.594 4.38392 5.36455 0
M  V30 4597 N 455.387 3.42026 4.46066 0
M  V30 4598 H 447.538 1.93447 0.877035 0
M  V30 4599 H 449.801 0.835712 0.447536 0
M  V30 4600 H 449.507 2.77699 2.15815 0
M  V30 4601 H 449.381 1.57292 3.4284 0
M  V30 4602 H 451.768 0.767602 2.84942 0
M  V30 4603 H 451.849 2.00557 1.58779 0
M  V30 4604 H 451.493 3.80616 3.36295 0
M  V30 4605 H 451.423 2.53916 4.61339 0
M  V30 4606 H 453.914 2.16531 3.09714 0
M  V30 4607 H 454.227 4.92596 5.95457 0
M  V30 4608 H 452.572 4.4247 5.35953 0
M  V30 4609 H 455.763 2.75075 3.78749 0
M  V30 4610 H 455.936 4.00946 5.09064 0
M  V30 4611 N 449.342 -1.36122 0.79427 0
M  V30 4612 C 450.29 -2.31871 0.184023 0
M  V30 4613 C 451.284 -1.56041 -0.659365 0
M  V30 4614 O 452.49 -1.71266 -0.553906 0
M  V30 4615 H 448.865 -0.750896 0.0407373 0
M  V30 4616 H 450.836 -2.80898 1.00693 0
M  V30 4617 C 449.585 -3.41324 -0.662813 0
M  V30 4618 H 448.908 -3.99793 -0.0231944 0
M  V30 4619 H 450.348 -4.10629 -1.05639 0
M  V30 4620 C 448.807 -2.83308 -1.82313 0
M  V30 4621 O 449.337 -2.75863 -2.91997 0
M  V30 4622 N 447.543 -2.40529 -1.63077 0
M  V30 4623 H 447.09 -2.46785 -0.738591 0
M  V30 4624 H 447.048 -2.02059 -2.40872 0
M  V30 4625 N 450.82 -0.546701 -1.47814 0
M  V30 4626 C 452.236 -0.205717 -1.58269 0
M  V30 4627 C 452.436 1.29153 -1.54667 0
M  V30 4628 O 451.492 2.07098 -1.44453 0
M  V30 4629 C 452.805 -0.823065 -2.89216 0
M  V30 4630 C 454.353 -0.793328 -3.02779 0
M  V30 4631 C 454.828 -1.38955 -4.36412 0
M  V30 4632 N 456.319 -1.35227 -4.43021 0
M  V30 4633 C 457.054 -1.78333 -5.44963 0
M  V30 4634 N 456.55 -2.29246 -6.53772 0
M  V30 4635 N 458.343 -1.69467 -5.35945 0
M  V30 4636 H 450.494 -1.5196 -1.48398 0
M  V30 4637 H 452.757 -0.633078 -0.705632 0
M  V30 4638 H 452.463 -1.8749 -2.97558 0
M  V30 4639 H 452.337 -0.309915 -3.75925 0
M  V30 4640 H 454.724 0.249784 -2.94041 0
M  V30 4641 H 454.805 -1.34412 -2.17639 0
M  V30 4642 H 454.449 -2.43168 -4.45906 0
M  V30 4643 H 454.379 -0.814291 -5.20266 0
M  V30 4644 H 456.87 -0.979739 -3.64979 0
M  V30 4645 H 457.183 -2.60089 -7.27718 0
M  V30 4646 H 455.528 -2.3325 -6.5469 0
M  V30 4647 H 458.719 -1.29477 -4.49837 0
M  V30 4648 H 458.892 -2.03381 -6.15256 0
M  V30 4649 N 452.299 1.55045 -0.282633 0
M  V30 4650 C 453.229 2.2579 0.595066 0
M  V30 4651 C 454.21 1.25074 1.15284 0
M  V30 4652 O 455.395 1.5381 1.18559 0
M  V30 4653 C 452.525 2.98472 1.77572 0
M  V30 4654 C 451.479 4.0618 1.34914 0
M  V30 4655 C 450.805 4.66477 2.6135 0
M  V30 4656 C 452.105 5.1996 0.493821 0
M  V30 4657 H 453.799 2.994 0.00505653 0
M  V30 4658 H 451.345 1.44 0.000992001 0
M  V30 4659 H 453.298 3.46677 2.39568 0
M  V30 4660 H 452.022 2.2241 2.39168 0
M  V30 4661 H 450.681 3.58797 0.752338 0
M  V30 4662 H 450.329 3.87074 3.2122 0
M  V30 4663 H 450.029 5.39207 2.33516 0
M  V30 4664 H 451.553 5.17435 3.24181 0
M  V30 4665 H 452.967 5.64172 1.01898 0
M  V30 4666 H 451.364 5.99299 0.310047 0
M  V30 4667 H 452.434 4.82462 -0.485593 0
M  V30 4668 N 453.777 0.010035 1.57597 0
M  V30 4669 C 455.023 -0.673697 1.91283 0
M  V30 4670 C 455.356 -1.72863 0.884979 0
M  V30 4671 O 454.631 -1.94268 -0.0949487 0
M  V30 4672 C 454.914 -1.30766 3.35518 0
M  V30 4673 C 454.767 -0.263578 4.49027 0
M  V30 4674 C 456.086 -2.23105 3.79358 0
M  V30 4675 H 453.205 -0.243439 0.695634 0
M  V30 4676 H 455.847 0.0633864 1.89894 0
M  V30 4677 H 453.997 -1.93588 3.36832 0
M  V30 4678 H 455.669 0.365738 4.59848 0
M  V30 4679 H 453.912 0.413077 4.31829 0
M  V30 4680 H 454.583 -0.746398 5.4693 0
M  V30 4681 H 457.059 -1.70289 3.79659 0
M  V30 4682 H 455.935 -2.64424 4.81011 0
M  V30 4683 H 456.196 -3.11433 3.13787 0
M  V30 4684 N 455.255 -1.55392 -0.262866 0
M  V30 4685 C 456.483 -1.80513 -1.01108 0
M  V30 4686 C 456.898 -0.583533 -1.79556 0
M  V30 4687 O 456.255 0.447585 -1.76926 0
M  V30 4688 C 456.306 -3.03648 -1.96164 0
M  V30 4689 O 456.027 -4.2109 -1.20893 0
M  V30 4690 C 457.528 -3.41448 -2.82715 0
M  V30 4691 H 454.748 -0.601079 -0.298236 0
M  V30 4692 H 457.292 -2.02425 -0.290582 0
M  V30 4693 H 455.447 -2.83832 -2.63663 0
M  V30 4694 H 455.861 -4.90771 -1.85051 0
M  V30 4695 H 457.335 -4.30751 -3.45192 0
M  V30 4696 H 457.812 -2.61308 -3.53008 0
M  V30 4697 H 458.418 -3.63559 -2.20693 0
M  V30 4698 N 456.733 0.527833 -1.48498 0
M  V30 4699 C 457.98 1.28354 -1.56625 0
M  V30 4700 C 458.308 1.93 -0.241096 0
M  V30 4701 O 457.563 1.79967 0.768798 0
M  V30 4702 C 457.862 2.39275 -2.65485 0
M  V30 4703 C 457.528 1.92268 -4.07853 0
M  V30 4704 C 456.19 1.79166 -4.46602 0
M  V30 4705 C 458.542 1.56771 -4.97064 0
M  V30 4706 C 455.87 1.28905 -5.72364 0
M  V30 4707 C 458.222 1.07972 -6.23318 0
M  V30 4708 C 456.886 0.934887 -6.60921 0
M  V30 4709 H 456.156 0.469682 -0.573131 0
M  V30 4710 H 458.803 0.588781 -1.82224 0
M  V30 4711 H 457.108 3.1443 -2.33754 0
M  V30 4712 H 458.805 2.974 -2.68988 0
M  V30 4713 H 455.395 2.03417 -3.77252 0
M  V30 4714 H 459.579 1.65753 -4.67803 0
M  V30 4715 H 454.835 1.16381 -6.00221 0
M  V30 4716 H 459.009 0.795775 -6.91838 0
M  V30 4717 H 456.636 0.543231 -7.58257 0
M  V30 4718 N 458.211 1.37122 0.776871 0
M  V30 4719 C 459.436 1.354 1.57104 0
M  V30 4720 C 459.861 -0.0595562 1.88006 0
M  V30 4721 O 459.219 -1.03514 1.48844 0
M  V30 4722 C 459.267 2.19472 2.8612 0
M  V30 4723 O 458.371 1.59582 3.80273 0
M  V30 4724 H 457.712 0.462869 0.476076 0
M  V30 4725 H 460.242 1.80577 0.961932 0
M  V30 4726 H 460.252 2.32502 3.35271 0
M  V30 4727 H 458.927 3.22222 2.62956 0
M  V30 4728 H 457.504 1.55564 3.38902 0
M  V30 4729 N 459.689 -1.00246 1.21608 0
M  V30 4730 C 460.652 -2.07233 0.979133 0
M  V30 4731 C 461.652 -1.6072 -0.0508219 0
M  V30 4732 O 462.842 -1.73196 0.186712 0
M  V30 4733 C 459.974 -3.37546 0.477016 0
M  V30 4734 H 461.167 -2.29687 1.92831 0
M  V30 4735 H 458.72 -1.17261 1.03342 0
M  V30 4736 H 459.455 -3.20773 -0.476966 0
M  V30 4737 H 459.24 -3.72638 1.21997 0
M  V30 4738 H 460.73 -4.16285 0.331181 0
M  V30 4739 N 461.167 -1.02423 -1.1978 0
M  V30 4740 C 462.416 -0.713265 -1.88667 0
M  V30 4741 C 462.729 0.7609 -1.80193 0
M  V30 4742 O 463.935 1.18473 -2.44288 0
M  V30 4743 C 462.391 -1.22545 -3.38394 0
M  V30 4744 C 461.999 -2.72706 -3.55437 0
M  V30 4745 C 463.743 -0.990257 -4.12788 0
M  V30 4746 C 461.65 -3.17367 -4.99031 0
M  V30 4747 H 460.58 -0.263105 -0.706606 0
M  V30 4748 H 463.231 -1.23792 -1.35454 0
M  V30 4749 H 461.613 -0.628732 -3.90977 0
M  V30 4750 H 462.787 -3.37993 -3.13205 0
M  V30 4751 H 461.102 -2.94453 -2.94425 0
M  V30 4752 H 463.699 -1.29926 -5.18675 0
M  V30 4753 H 464.042 0.0730761 -4.16236 0
M  V30 4754 H 464.575 -1.55074 -3.66329 0
M  V30 4755 H 461.314 -4.23009 -5.00743 0
M  V30 4756 H 460.834 -2.56805 -5.42044 0
M  V30 4757 H 462.513 -3.10441 -5.67658 0
M  V30 4758 N 462.645 1.35699 -0.801477 0
M  V30 4759 C 463.575 2.32436 -0.222658 0
M  V30 4760 C 464.556 1.5723 0.649057 0
M  V30 4761 O 465.741 1.85324 0.580387 0
M  V30 4762 C 462.871 3.41469 0.633719 0
M  V30 4763 C 461.825 4.27774 -0.139083 0
M  V30 4764 C 461.151 5.28082 0.838666 0
M  V30 4765 C 462.451 5.04946 -1.33517 0
M  V30 4766 H 464.145 2.81094 -1.03086 0
M  V30 4767 H 461.691 1.35146 -0.497155 0
M  V30 4768 H 463.644 4.08143 1.04868 0
M  V30 4769 H 462.368 2.91408 1.47475 0
M  V30 4770 H 461.027 3.62673 -0.535156 0
M  V30 4771 H 460.675 4.7429 1.67506 0
M  V30 4772 H 460.375 5.86695 0.32594 0
M  V30 4773 H 461.899 5.97628 1.25194 0
M  V30 4774 H 463.313 5.64593 -0.995349 0
M  V30 4775 H 461.71 5.7303 -1.78202 0
M  V30 4776 H 462.78 4.35886 -2.12442 0
M  V30 4777 N 464.123 0.554532 1.47522 0
M  V30 4778 C 465.053 -0.182974 2.32782 0
M  V30 4779 C 466.034 -0.911377 1.43624 0
M  V30 4780 O 467.219 -0.892366 1.72483 0
M  V30 4781 C 464.349 -1.21513 3.25349 0
M  V30 4782 C 463.303 -0.603355 4.23726 0
M  V30 4783 C 462.629 -1.73995 5.05598 0
M  V30 4784 C 463.929 0.441121 5.20434 0
M  V30 4785 H 465.623 0.52882 2.94693 0
M  V30 4786 H 463.169 0.255759 1.41711 0
M  V30 4787 H 465.122 -1.73922 3.83835 0
M  V30 4788 H 463.846 -1.95683 2.61487 0
M  V30 4789 H 462.505 -0.10059 3.66462 0
M  V30 4790 H 462.153 -2.47063 4.38143 0
M  V30 4791 H 461.853 -1.3364 5.72201 0
M  V30 4792 H 463.377 -2.26735 5.66942 0
M  V30 4793 H 464.791 0.00319931 5.733 0
M  V30 4794 H 463.188 0.763402 5.95224 0
M  V30 4795 H 464.258 1.33799 4.66075 0
M  V30 4796 N 465.601 -1.54893 0.290851 0
M  V30 4797 C 466.564 -2.21824 -0.576784 0
M  V30 4798 C 467.564 -1.20104 -1.06919 0
M  V30 4799 O 468.754 -1.44906 -0.966843 0
M  V30 4800 C 465.886 -2.89662 -1.79747 0
M  V30 4801 H 467.079 -2.99899 0.00784051 0
M  V30 4802 H 464.632 -1.56245 0.0415934 0
M  V30 4803 H 465.367 -2.15639 -2.42219 0
M  V30 4804 H 465.152 -3.64219 -1.45214 0
M  V30 4805 H 466.642 -3.4075 -2.4141 0
M  V30 4806 N 467.08 -0.0183926 -1.57589 0
M  V30 4807 C 468.328 0.661253 -1.90976 0
M  V30 4808 C 468.649 1.73281 -0.894353 0
M  V30 4809 O 467.919 1.9579 0.0656788 0
M  V30 4810 H 466.499 0.247233 -0.704901 0
M  V30 4811 H 469.161 -0.0636639 -1.94796 0
M  V30 4812 H 468.257 1.12083 -2.9128 0
M  V30 4813 N 468.558 1.5553 0.254621 0
M  V30 4814 C 469.806 1.7665 0.981793 0
M  V30 4815 C 470.127 0.580963 1.86145 0
M  V30 4816 O 469.397 -0.403537 1.91699 0
M  V30 4817 H 467.977 0.651475 0.365498 0
M  V30 4818 H 470.639 1.92958 0.274426 0
M  V30 4819 H 469.735 2.67486 1.60802 0
M  V30 4820 N 470.036 -0.519951 1.48776 0
M  V30 4821 C 471.282 -1.27711 1.57536 0
M  V30 4822 C 471.615 -1.92547 0.252866 0
M  V30 4823 O 470.89 -1.7979 -0.742021 0
M  V30 4824 C 471.173 -2.35875 2.72094 0
M  V30 4825 C 471.026 -1.75664 4.1408 0
M  V30 4826 C 472.345 -3.37575 2.82367 0
M  V30 4827 H 469.464 -0.462971 0.573434 0
M  V30 4828 H 472.106 -0.578194 1.80989 0
M  V30 4829 H 470.256 -2.95488 2.52228 0
M  V30 4830 H 471.928 -1.20025 4.45412 0
M  V30 4831 H 470.171 -1.06154 4.20611 0
M  V30 4832 H 470.842 -2.54029 4.90075 0
M  V30 4833 H 473.318 -2.87929 3.00393 0
M  V30 4834 H 472.194 -4.1064 3.64233 0
M  V30 4835 H 472.455 -3.98743 1.90936 0
M  V30 4836 N 471.514 -1.37532 -0.769588 0
M  V30 4837 C 472.447 -1.27839 -1.8903 0
M  V30 4838 C 473.425 -0.158504 -1.61826 0
M  V30 4839 O 474.609 -0.333086 -1.85534 0
M  V30 4840 C 471.736 -0.977072 -3.24301 0
M  V30 4841 C 470.782 -2.11414 -3.70414 0
M  V30 4842 S 471.615 -3.73409 -3.83831 0
M  V30 4843 C 472.771 -3.45432 -5.21946 0
M  V30 4844 H 473.004 -2.22694 -1.96963 0
M  V30 4845 H 470.537 -1.2318 -0.930914 0
M  V30 4846 H 472.495 -0.810049 -4.02428 0
M  V30 4847 H 471.156 -0.0459701 -3.14066 0
M  V30 4848 H 470.349 -1.85837 -4.68488 0
M  V30 4849 H 469.951 -2.24141 -2.99394 0
M  V30 4850 H 472.243 -3.00554 -6.07185 0
M  V30 4851 H 473.186 -4.42841 -5.52537 0
M  V30 4852 H 473.594 -2.80311 -4.89986 0
M  V30 4853 N 472.992 0.995999 -1.22138 0
M  V30 4854 C 474.239 1.7351 -1.04406 0
M  V30 4855 C 474.567 1.89884 0.421244 0
M  V30 4856 O 473.822 1.43683 1.32867 0
M  V30 4857 C 474.121 3.14553 -1.6968 0
M  V30 4858 C 473.787 3.18102 -3.19565 0
M  V30 4859 C 472.449 3.18778 -3.60464 0
M  V30 4860 C 474.801 3.14636 -4.15516 0
M  V30 4861 C 472.129 3.13684 -4.95801 0
M  V30 4862 C 474.481 3.11084 -5.50826 0
M  V30 4863 C 473.145 3.10074 -5.91109 0
M  V30 4864 H 472.415 0.634916 -0.38205 0
M  V30 4865 H 475.062 1.1667 -1.51857 0
M  V30 4866 H 473.367 3.74682 -1.14546 0
M  V30 4867 H 475.064 3.70477 -1.53454 0
M  V30 4868 H 471.654 3.18324 -2.86998 0
M  V30 4869 H 475.838 3.13266 -3.84939 0
M  V30 4870 H 471.094 3.11245 -5.26247 0
M  V30 4871 H 475.268 3.07357 -6.24904 0
M  V30 4872 H 472.895 3.05882 -6.95946 0
M  V30 4873 N 474.47 1.03057 1.19235 0
M  V30 4874 C 475.695 0.74757 1.93458 0
M  V30 4875 C 476.12 -0.687648 1.7508 0
M  V30 4876 O 475.478 -1.47499 1.05422 0
M  V30 4877 C 475.526 1.10604 3.43219 0
M  V30 4878 O 474.63 0.225671 4.11782 0
M  V30 4879 H 473.971 0.276047 0.603899 0
M  V30 4880 H 476.501 1.3777 1.51263 0
M  V30 4881 H 476.511 1.06366 3.93891 0
M  V30 4882 H 475.186 2.15165 3.55917 0
M  V30 4883 H 473.763 0.326795 3.71465 0
M  V30 4884 N 475.948 -1.35272 0.808662 0
M  V30 4885 C 476.878 -2.32315 0.234981 0
M  V30 4886 C 477.859 -1.57572 -0.64071 0
M  V30 4887 O 479.044 -1.8563 -0.570551 0
M  V30 4888 C 476.174 -3.41801 -0.615601 0
M  V30 4889 C 475.128 -4.27694 0.161767 0
M  V30 4890 C 474.454 -5.28519 -0.810649 0
M  V30 4891 C 475.754 -5.04231 1.36193 0
M  V30 4892 H 477.448 -2.80543 1.04575 0
M  V30 4893 H 474.994 -1.3488 0.504315 0
M  V30 4894 H 476.947 -4.08693 -1.02702 0
M  V30 4895 H 475.671 -2.92186 -1.45928 0
M  V30 4896 H 474.33 -3.62384 0.554382 0
M  V30 4897 H 473.978 -4.75171 -1.64988 0
M  V30 4898 H 473.678 -5.8686 -0.294822 0
M  V30 4899 H 475.202 -5.98283 -1.22023 0
M  V30 4900 H 476.616 -5.64058 1.02528 0
M  V30 4901 H 475.013 -5.72077 1.81239 0
M  V30 4902 H 476.083 -4.34753 2.14751 0
M  V30 4903 N 477.426 -0.562348 -1.47226 0
M  V30 4904 C 478.654 -0.0452275 -2.06851 0
M  V30 4905 C 479.069 1.25078 -1.41424 0
M  V30 4906 O 478.426 1.75156 -0.512513 0
M  V30 4907 C 478.477 0.148674 -3.61194 0
M  V30 4908 O 478.198 -1.09602 -4.24169 0
M  V30 4909 C 479.699 0.702488 -4.37699 0
M  V30 4910 H 476.919 -0.0481775 -0.669268 0
M  V30 4911 H 479.463 -0.777223 -1.89155 0
M  V30 4912 H 477.618 0.830817 -3.78386 0
M  V30 4913 H 478.032 -0.896982 -5.16773 0
M  V30 4914 H 479.506 0.78743 -5.46355 0
M  V30 4915 H 479.983 1.71493 -4.04335 0
M  V30 4916 H 480.589 0.0558772 -4.25263 0
M  V30 4917 N 478.904 1.54736 -0.299062 0
M  V30 4918 C 480.15 2.00397 0.311244 0
M  V30 4919 C 480.483 1.18716 1.53688 0
M  V30 4920 O 479.758 0.263154 1.92712 0
M  V30 4921 C 480.041 3.53817 0.669761 0
M  V30 4922 C 479.894 4.46239 -0.564882 0
M  V30 4923 C 481.213 4.13856 1.49702 0
M  V30 4924 H 478.332 0.728493 0.111653 0
M  V30 4925 H 480.974 1.85506 -0.410774 0
M  V30 4926 H 479.124 3.66637 1.28491 0
M  V30 4927 H 480.796 4.45328 -1.20337 0
M  V30 4928 H 479.039 4.16916 -1.19849 0
M  V30 4929 H 479.71 5.5134 -0.269918 0
M  V30 4930 H 482.186 4.04461 0.977284 0
M  V30 4931 H 481.062 5.21365 1.71666 0
M  V30 4932 H 481.323 3.65608 2.48563 0
M  V30 4933 N 480.382 0.0267497 1.57577 0
M  V30 4934 C 481.622 -0.65659 1.93567 0
M  V30 4935 C 481.986 -1.69429 0.903213 0
M  V30 4936 O 483.187 -2.42994 1.14923 0
M  V30 4937 C 481.458 -1.25912 3.34486 0
M  V30 4938 S 483.017 -1.96386 3.924 0
M  V30 4939 H 479.835 -0.216237 0.67732 0
M  V30 4940 H 482.437 0.0898475 1.95293 0
M  V30 4941 H 481.141 -0.491405 4.07447 0
M  V30 4942 H 480.672 -2.04291 3.36198 0
M  V30 4943 H 482.687 -3.24202 3.75643 0
M  V30 4944 N 481.861 -1.55662 -0.24637 0
M  V30 4945 C 483.11 -1.7672 -0.972254 0
M  V30 4946 C 483.423 -0.59078 -1.86465 0
M  V30 4947 O 484.629 -0.684391 -2.62732 0
M  V30 4948 C 483.085 -3.12869 -1.7788 0
M  V30 4949 C 482.693 -4.38161 -0.933768 0
M  V30 4950 C 484.437 -3.43265 -2.49738 0
M  V30 4951 C 482.344 -5.6534 -1.73623 0
M  V30 4952 H 481.274 -0.658795 -0.366749 0
M  V30 4953 H 483.925 -1.82092 -0.226902 0
M  V30 4954 H 482.307 -3.01606 -2.56612 0
M  V30 4955 H 483.481 -4.60413 -0.188736 0
M  V30 4956 H 481.796 -4.15102 -0.328488 0
M  V30 4957 H 484.393 -4.35501 -3.10231 0
M  V30 4958 H 484.736 -2.64614 -3.2138 0
M  V30 4959 H 485.269 -3.55746 -1.78016 0
M  V30 4960 H 482.008 -6.46814 -1.06354 0
M  V30 4961 H 481.528 -5.47188 -2.45653 0
M  V30 4962 H 483.207 -6.04616 -2.30323 0
M  V30 4963 N 483.339 0.512053 -1.4905 0
M  V30 4964 C 484.587 1.26436 -1.57665 0
M  V30 4965 C 484.908 1.93255 -0.260293 0
M  V30 4966 O 484.178 1.82206 0.719564 0
M  V30 4967 H 482.758 0.469658 -0.580888 0
M  V30 4968 H 485.42 0.594398 -1.85615 0
M  V30 4969 H 484.516 2.03417 -2.36702 0
M  V30 4970 N 484.817 1.37938 0.762283 0
M  V30 4971 C 485.747 1.37176 1.88958 0
M  V30 4972 C 486.728 0.238945 1.68413 0
M  V30 4973 O 487.913 0.440726 1.89133 0
M  V30 4974 C 485.043 1.18742 3.2637 0
M  V30 4975 C 483.997 2.29136 3.61498 0
M  V30 4976 C 483.323 1.95816 4.97554 0
M  V30 4977 C 484.623 3.71363 3.6727 0
M  V30 4978 H 486.317 2.31509 1.89853 0
M  V30 4979 H 483.863 1.11438 0.912005 0
M  V30 4980 H 485.816 1.16837 4.04879 0
M  V30 4981 H 484.54 0.208683 3.25933 0
M  V30 4982 H 483.199 2.30213 2.85303 0
M  V30 4983 H 482.847 0.964475 4.93667 0
M  V30 4984 H 482.547 2.69745 5.22026 0
M  V30 4985 H 484.071 1.95513 5.78452 0
M  V30 4986 H 485.485 3.72364 4.35911 0
M  V30 4987 H 483.882 4.44425 4.03245 0
M  V30 4988 H 484.952 4.04305 2.67704 0
M  V30 4989 N 486.295 -0.989507 1.22664 0
M  V30 4990 C 487.525 -1.7624 1.0781 0
M  V30 4991 C 487.933 -1.85466 -0.374036 0
M  V30 4992 O 487.276 -1.32645 -1.27087 0
M  V30 4993 C 487.338 -3.21007 1.61849 0
M  V30 4994 C 487.002 -3.35316 3.10503 0
M  V30 4995 C 487.999 -3.22362 4.07896 0
M  V30 4996 C 485.684 -3.60258 3.50028 0
M  V30 4997 C 487.678 -3.34139 5.42798 0
M  V30 4998 C 485.365 -3.71676 4.85078 0
M  V30 4999 C 486.363 -3.58625 5.81272 0
M  V30 5000 O 486.051 -3.69655 7.1387 0
M  V30 5001 H 485.783 -0.560209 0.378341 0
M  V30 5002 H 488.337 -1.25252 1.62792 0
M  V30 5003 H 486.567 -3.73202 1.01279 0
M  V30 5004 H 488.256 -3.80024 1.42606 0
M  V30 5005 H 489.022 -3.03 3.78703 0
M  V30 5006 H 484.901 -3.69492 2.75675 0
M  V30 5007 H 488.445 -3.23869 6.17863 0
M  V30 5008 H 484.342 -3.90545 5.1395 0
M  V30 5009 H 485.11 -3.86507 7.21495 0
M  V30 5010 N 487.773 -1.03688 -1.18687 0
M  V30 5011 C 489.019 -0.739123 -1.88851 0
M  V30 5012 C 489.352 0.731042 -1.79915 0
M  V30 5013 O 488.627 1.53313 -1.19688 0
M  V30 5014 C 488.91 -1.20106 -3.3948 0
M  V30 5015 C 488.763 -2.73304 -3.57246 0
M  V30 5016 C 490.082 -0.788134 -4.32986 0
M  V30 5017 H 487.201 -0.269978 -0.68577 0
M  V30 5018 H 489.843 -1.28822 -1.3966 0
M  V30 5019 H 487.993 -0.733915 -3.81505 0
M  V30 5020 H 489.665 -3.28027 -3.24339 0
M  V30 5021 H 487.908 -3.13313 -3.00029 0
M  V30 5022 H 488.579 -3.00684 -4.62918 0
M  V30 5023 H 491.055 -1.19005 -3.98719 0
M  V30 5024 H 489.931 -1.13915 -5.36949 0
M  V30 5025 H 490.192 0.308988 -4.41019 0
M  V30 5026 N 489.251 1.34841 -0.815825 0
M  V30 5027 C 490.183 2.28409 -0.190265 0
M  V30 5028 C 491.196 1.50705 0.615771 0
M  V30 5029 O 492.385 1.72822 0.446616 0
M  V30 5030 C 489.485 3.30441 0.752446 0
M  V30 5031 C 488.658 4.37399 -0.00922152 0
M  V30 5032 C 487.717 5.19234 0.853351 0
M  V30 5033 O 486.743 5.68404 0.300919 0
M  V30 5034 N 487.945 5.38248 2.17416 0
M  V30 5035 H 490.71 2.82732 -0.994114 0
M  V30 5036 H 488.271 1.47289 -0.672129 0
M  V30 5037 H 490.263 3.82084 1.33394 0
M  V30 5038 H 488.833 2.76565 1.45707 0
M  V30 5039 H 488.053 3.86567 -0.771979 0
M  V30 5040 H 489.341 5.05992 -0.533807 0
M  V30 5041 H 488.739 4.99961 2.6468 0
M  V30 5042 H 487.296 5.93035 2.70467 0
M  V30 5043 N 490.729 0.570148 1.46925 0
M  V30 5044 C 492.006 -0.0153259 1.95594 0
M  V30 5045 C 492.386 -1.47232 1.51281 0
M  V30 5046 O 491.734 -2.15574 0.757624 0
M  V30 5047 C 491.944 0.143624 3.48704 0
M  V30 5048 C 493.292 0.00494484 4.246 0
M  V30 5049 O 494.316 0.0718214 3.56128 0
M  V30 5050 O 493.175 -0.141175 5.46318 0
M  V30 5051 H 490.269 -0.0568819 0.825041 0
M  V30 5052 H 492.815 0.637583 1.57267 0
M  V30 5053 H 491.587 1.15699 3.73804 0
M  V30 5054 H 491.21 -0.5463 3.93829 0
M  V30 5055 N 492.207 -1.54576 0.307264 0
M  V30 5056 C 493.456 -1.99442 -0.300976 0
M  V30 5057 C 493.769 -1.19928 -1.5452 0
M  V30 5058 O 494.975 -1.55092 -2.22842 0
M  V30 5059 C 493.431 -3.55084 -0.586809 0
M  V30 5060 C 493.039 -4.43413 0.639438 0
M  V30 5061 C 494.783 -4.0846 -1.1559 0
M  V30 5062 C 492.69 -5.90499 0.326411 0
M  V30 5063 H 491.62 -0.744986 -0.116238 0
M  V30 5064 H 494.271 -1.787 0.416947 0
M  V30 5065 H 492.653 -3.71749 -1.36449 0
M  V30 5066 H 493.827 -4.38522 1.41545 0
M  V30 5067 H 492.142 -4.00842 1.1276 0
M  V30 5068 H 494.739 -5.15926 -1.40445 0
M  V30 5069 H 495.082 -3.59443 -2.10015 0
M  V30 5070 H 495.615 -3.95362 -0.439778 0
M  V30 5071 H 492.354 -6.43676 1.23939 0
M  V30 5072 H 491.874 -5.98382 -0.412212 0
M  V30 5073 H 493.553 -6.46962 -0.0697393 0
M  V30 5074 N 493.685 -0.035106 -1.57561 0
M  V30 5075 C 494.615 0.942993 -2.13612 0
M  V30 5076 C 495.596 1.33531 -1.05373 0
M  V30 5077 O 496.781 1.41287 -1.33235 0
M  V30 5078 C 493.911 2.22332 -2.66807 0
M  V30 5079 C 492.865 1.97156 -3.79886 0
M  V30 5080 C 492.191 3.31506 -4.19533 0
M  V30 5081 C 493.491 1.30596 -5.05709 0
M  V30 5082 H 495.185 0.476179 -2.95589 0
M  V30 5083 H 492.731 0.227602 -1.4219 0
M  V30 5084 H 494.684 2.91142 -3.04654 0
M  V30 5085 H 493.408 2.7119 -1.81999 0
M  V30 5086 H 492.067 1.30763 -3.42486 0
M  V30 5087 H 491.715 3.78134 -3.31698 0
M  V30 5088 H 491.415 3.15465 -4.95738 0
M  V30 5089 H 492.939 4.01574 -4.59968 0
M  V30 5090 H 494.353 1.89416 -5.41105 0
M  V30 5091 H 492.75 1.24934 -5.86951 0
M  V30 5092 H 493.82 0.279742 -4.84092 0
M  V30 5093 N 495.163 1.55791 0.238111 0
M  V30 5094 C 496.411 1.77681 0.963001 0
M  V30 5095 C 496.732 0.600674 1.85518 0
M  V30 5096 O 496.002 -0.383182 1.92116 0
M  V30 5097 H 494.582 0.655315 0.358568 0
M  V30 5098 H 497.244 1.93239 0.253945 0
M  V30 5099 H 496.34 2.69177 1.57956 0
M  V30 5100 N 496.642 -0.504142 1.49319 0
M  V30 5101 C 497.872 -1.28071 1.62116 0
M  V30 5102 C 498.28 -1.86955 0.290566 0
M  V30 5103 O 497.623 -1.68415 -0.733616 0
M  V30 5104 C 497.685 -2.4521 2.62893 0
M  V30 5105 C 497.349 -2.07218 4.0732 0
M  V30 5106 C 498.346 -1.61375 4.94221 0
M  V30 5107 C 496.031 -2.16949 4.53033 0
M  V30 5108 C 498.025 -1.25763 6.2487 0
M  V30 5109 C 495.712 -1.80949 5.83696 0
M  V30 5110 C 496.71 -1.3543 6.69438 0
M  V30 5111 O 496.398 -0.99915 7.97667 0
M  V30 5112 H 496.13 -0.394763 0.54876 0
M  V30 5113 H 498.684 -0.612118 1.96067 0
M  V30 5114 H 496.914 -3.15134 2.24115 0
M  V30 5115 H 498.603 -3.0724 2.65252 0
M  V30 5116 H 499.369 -1.53306 4.60133 0
M  V30 5117 H 495.248 -2.5133 3.86463 0
M  V30 5118 H 498.792 -0.901631 6.91749 0
M  V30 5119 H 494.689 -1.88667 6.17313 0
M  V30 5120 H 495.457 -1.13089 8.1065 0
M  V30 5121 N 498.12 -1.38341 -0.754957 0
M  V30 5122 C 499.345 -1.37882 -1.5493 0
M  V30 5123 C 499.77 0.0296385 -1.88077 0
M  V30 5124 O 499.128 1.01133 -1.50472 0
M  V30 5125 C 499.176 -2.23996 -2.82592 0
M  V30 5126 O 498.28 -1.65612 -3.77686 0
M  V30 5127 H 497.621 -0.470384 -0.468652 0
M  V30 5128 H 500.151 -1.82084 -0.933082 0
M  V30 5129 H 500.161 -2.37806 -3.3153 0
M  V30 5130 H 498.836 -3.26365 -2.57796 0
M  V30 5131 H 497.413 -1.60936 -3.36384 0
M  V30 5132 N 499.598 0.982988 -1.23187 0
M  V30 5133 C 500.561 2.05649 -1.01198 0
M  V30 5134 C 501.561 1.6078 0.0252464 0
M  V30 5135 O 502.751 1.72878 -0.214243 0
M  V30 5136 C 499.883 3.36744 -0.530656 0
M  V30 5137 H 501.076 2.2659 -1.96461 0
M  V30 5138 H 498.629 1.15602 -1.05195 0
M  V30 5139 H 499.364 3.21492 0.425873 0
M  V30 5140 H 499.149 3.7065 -1.2791 0
M  V30 5141 H 500.639 4.15705 -0.397366 0
M  V30 5142 N 501.076 1.04316 1.18135 0
M  V30 5143 C 502.006 0.657299 2.24058 0
M  V30 5144 C 502.987 -0.340678 1.66654 0
M  V30 5145 O 504.172 -0.220223 1.92947 0
M  V30 5146 C 501.302 0.0220715 3.47293 0
M  V30 5147 C 500.256 0.943857 4.17463 0
M  V30 5148 C 499.582 0.172973 5.3442 0
M  V30 5149 C 500.882 2.26409 4.70677 0
M  V30 5150 H 502.576 1.5428 2.56589 0
M  V30 5151 H 500.122 0.743263 1.23335 0
M  V30 5152 H 502.075 -0.259607 4.206 0
M  V30 5153 H 500.799 -0.898323 3.14003 0
M  V30 5154 H 499.458 1.20996 3.46057 0
M  V30 5155 H 499.106 -0.749907 4.97379 0
M  V30 5156 H 498.806 0.787098 5.82304 0
M  V30 5157 H 500.33 -0.101628 6.10515 0
M  V30 5158 H 501.744 2.04294 5.35665 0
M  V30 5159 H 500.141 2.8314 5.29105 0
M  V30 5160 H 501.211 2.90883 3.87962 0
M  V30 5161 N 502.554 -1.34406 0.822964 0
M  V30 5162 C 503.97 -1.51275 0.508727 0
M  V30 5163 C 504.17 -1.76776 -0.967083 0
M  V30 5164 O 503.226 -1.81871 -1.75155 0
M  V30 5165 C 504.539 -2.67765 1.36829 0
M  V30 5166 C 506.087 -2.81647 1.36542 0
M  V30 5167 C 506.562 -4.01181 2.20947 0
M  V30 5168 N 508.053 -4.08388 2.18571 0
M  V30 5169 C 508.788 -5.00036 2.80627 0
M  V30 5170 N 508.284 -5.96906 3.51674 0
M  V30 5171 N 510.077 -4.92908 2.70181 0
M  V30 5172 H 502.228 -1.16113 1.77852 0
M  V30 5173 H 504.491 -0.56947 0.757897 0
M  V30 5174 H 504.197 -2.55551 2.41633 0
M  V30 5175 H 504.071 -3.62779 1.03303 0
M  V30 5176 H 506.458 -2.93303 0.325163 0
M  V30 5177 H 506.539 -1.87443 1.74066 0
M  V30 5178 H 506.183 -3.90286 3.25022 0
M  V30 5179 H 506.113 -4.94599 1.80774 0
M  V30 5180 H 508.604 -3.39051 1.66891 0
M  V30 5181 H 508.917 -6.63468 3.96271 0
M  V30 5182 H 507.262 -5.9703 3.5578 0
M  V30 5183 H 510.453 -4.1619 2.14251 0
M  V30 5184 H 510.626 -5.64137 3.18831 0
M  V30 5185 N 504.032 -0.577932 -1.46621 0
M  V30 5186 C 504.995 0.147805 -2.28723 0
M  V30 5187 C 505.995 0.823325 -1.38123 0
M  V30 5188 O 507.185 0.676011 -1.60548 0
M  V30 5189 C 504.317 1.21853 -3.18378 0
M  V30 5190 H 505.51 -0.573654 -2.94362 0
M  V30 5191 H 503.063 -0.335703 -1.52652 0
M  V30 5192 H 503.798 1.97173 -2.57475 0
M  V30 5193 H 503.583 0.738714 -3.85078 0
M  V30 5194 H 505.073 1.72768 -3.80186 0
M  V30 5195 N 505.51 1.54411 -0.315457 0
M  V30 5196 C 506.758 2.00023 0.288971 0
M  V30 5197 C 507.079 1.20529 1.5329 0
M  V30 5198 O 506.349 0.304986 1.93511 0
M  V30 5199 H 504.929 0.738891 0.109766 0
M  V30 5200 H 507.591 1.90094 -0.430129 0
M  V30 5201 H 506.687 3.07198 0.550999 0
M  V30 5202 N 506.988 0.0434614 1.5754 0
M  V30 5203 C 508.234 -0.632971 1.92669 0
M  V30 5204 C 508.567 -1.70947 0.921446 0
M  V30 5205 O 507.842 -1.94426 -0.0537202 0
M  V30 5206 C 508.125 -1.23619 3.38216 0
M  V30 5207 C 507.978 -0.168274 4.49485 0
M  V30 5208 C 509.297 -2.15008 3.84005 0
M  V30 5209 H 506.416 -0.228629 0.700641 0
M  V30 5210 H 509.058 0.103651 1.89717 0
M  V30 5211 H 507.208 -1.864 3.40863 0
M  V30 5212 H 508.88 0.463196 4.58969 0
M  V30 5213 H 507.123 0.504581 4.30855 0
M  V30 5214 H 507.794 -0.630218 5.48391 0
M  V30 5215 H 510.27 -1.62198 3.83185 0
M  V30 5216 H 509.146 -2.54161 4.86511 0
M  V30 5217 H 509.407 -3.04707 3.20322 0
M  V30 5218 N 508.466 -1.55915 -0.229846 0
M  V30 5219 C 509.714 -1.7819 -0.953565 0
M  V30 5220 C 510.035 -0.610504 -1.85197 0
M  V30 5221 O 509.305 0.372988 -1.92316 0
M  V30 5222 H 507.885 -0.657208 -0.355087 0
M  V30 5223 H 510.547 -1.9337 -0.243693 0
M  V30 5224 H 509.643 -2.70011 -1.56527 0
M  V30 5225 N 509.944 0.496216 -1.49584 0
M  V30 5226 C 511.191 1.25003 -1.59312 0
M  V30 5227 C 511.519 1.92445 -0.28198 0
M  V30 5228 O 510.774 1.81557 0.730452 0
M  V30 5229 C 511.073 2.3359 -2.705 0
M  V30 5230 C 510.739 1.83574 -4.11839 0
M  V30 5231 C 509.401 1.69653 -4.50302 0
M  V30 5232 C 511.753 1.46193 -5.00277 0
M  V30 5233 C 509.081 1.16736 -5.74969 0
M  V30 5234 C 511.433 0.947265 -6.25468 0
M  V30 5235 C 510.097 0.794485 -6.62755 0
M  V30 5236 H 509.367 0.45742 -0.582965 0
M  V30 5237 H 512.014 0.549996 -1.83432 0
M  V30 5238 H 510.319 3.09401 -2.40371 0
M  V30 5239 H 512.016 2.91627 -2.75235 0
M  V30 5240 H 508.606 1.9537 -3.81482 0
M  V30 5241 H 512.79 1.55793 -4.71214 0
M  V30 5242 H 508.046 1.03623 -6.02555 0
M  V30 5243 H 512.22 0.648846 -6.93371 0
M  V30 5244 H 509.847 0.382271 -7.59238 0
M  V30 5245 N 511.423 1.38739 0.74761 0
M  V30 5246 C 512.672 1.3459 1.50228 0
M  V30 5247 C 512.985 -0.0595592 1.95509 0
M  V30 5248 O 514.191 -0.22361 2.70578 0
M  V30 5249 C 512.647 2.36377 2.71393 0
M  V30 5250 C 512.255 3.82573 2.33113 0
M  V30 5251 C 513.999 2.41281 3.49262 0
M  V30 5252 C 511.906 4.76032 3.50924 0
M  V30 5253 H 510.836 0.500312 0.564096 0
M  V30 5254 H 513.487 1.64324 0.8167 0
M  V30 5255 H 511.869 1.99694 3.41962 0
M  V30 5256 H 513.043 4.28227 1.70171 0
M  V30 5257 H 511.358 3.80844 1.68365 0
M  V30 5258 H 513.955 3.08301 4.36869 0
M  V30 5259 H 514.298 1.43353 3.9084 0
M  V30 5260 H 514.831 2.76793 2.85711 0
M  V30 5261 H 511.57 5.75177 3.14408 0
M  V30 5262 H 511.09 4.35066 4.12889 0
M  V30 5263 H 512.769 4.94331 4.17427 0
M  V30 5264 N 512.901 -0.976442 1.23707 0
M  V30 5265 C 514.312 -1.53284 1.06587 0
M  V30 5266 C 514.663 -1.92765 -0.365526 0
M  V30 5267 O 513.788 -1.7645 -1.25277 0
M  V30 5268 C 514.383 -2.78548 1.92864 0
M  V30 5269 C 512.942 -3.30574 1.79994 0
M  V30 5270 C 512.089 -2.03538 1.88328 0
M  V30 5271 H 515.04 -0.795692 1.37311 0
M  V30 5272 H 515.061 -3.5155 1.45577 0
M  V30 5273 H 514.573 -2.49782 2.97037 0
M  V30 5274 H 512.674 -3.64211 0.786202 0
M  V30 5275 H 512.787 -4.00065 2.636 0
M  V30 5276 H 511.151 -2.17853 1.31954 0
M  V30 5277 H 511.934 -1.77149 2.94063 0
M  V30 5278 N 514.379 -1.04941 -1.1758 0
M  V30 5279 C 515.626 -0.757989 -1.87779 0
M  V30 5280 C 515.954 0.714827 -1.80888 0
M  V30 5281 O 515.209 1.53824 -1.20982 0
M  V30 5282 C 515.508 -1.18062 -3.37337 0
M  V30 5283 C 515.174 -2.65521 -3.6443 0
M  V30 5284 C 513.836 -3.05804 -3.71534 0
M  V30 5285 C 516.188 -3.60822 -3.76108 0
M  V30 5286 C 513.516 -4.40256 -3.87803 0
M  V30 5287 C 515.868 -4.95005 -3.93895 0
M  V30 5288 C 514.532 -5.34945 -3.99237 0
M  V30 5289 H 513.802 -0.277368 -0.68713 0
M  V30 5290 H 516.449 -1.31603 -1.39115 0
M  V30 5291 H 514.754 -0.541525 -3.8804 0
M  V30 5292 H 516.451 -0.932368 -3.9001 0
M  V30 5293 H 513.041 -2.33324 -3.59524 0
M  V30 5294 H 517.225 -3.30841 -3.69943 0
M  V30 5295 H 512.481 -4.70707 -3.90186 0
M  V30 5296 H 516.655 -5.68746 -4.01872 0
M  V30 5297 H 514.282 -6.39135 -4.11596 0
M  V30 5298 N 515.857 1.33968 -0.830081 0
M  V30 5299 C 517.103 1.98357 -0.422191 0
M  V30 5300 C 517.436 1.65633 1.01387 0
M  V30 5301 O 516.711 0.931648 1.70735 0
M  V30 5302 C 516.994 3.54492 -0.633043 0
M  V30 5303 C 516.847 3.96934 -2.11574 0
M  V30 5304 C 518.166 4.40039 -0.0735584 0
M  V30 5305 H 515.285 0.720544 -0.154871 0
M  V30 5306 H 517.927 1.58749 -1.04397 0
M  V30 5307 H 516.077 3.88361 -0.103775 0
M  V30 5308 H 517.749 3.73363 -2.7092 0
M  V30 5309 H 515.992 3.46984 -2.60354 0
M  V30 5310 H 516.663 5.05651 -2.21406 0
M  V30 5311 H 519.139 4.12764 -0.52585 0
M  V30 5312 H 518.015 5.48327 -0.250841 0
M  V30 5313 H 518.276 4.30124 1.02202 0
M  V30 5314 N 517.335 0.585699 1.46312 0
M  V30 5315 C 518.584 0.0701192 2.01578 0
M  V30 5316 C 518.897 -1.29889 1.46247 0
M  V30 5317 O 520.103 -1.90598 1.93351 0
M  V30 5318 C 518.559 0.0747499 3.59822 0
M  V30 5319 C 518.167 1.44226 4.24149 0
M  V30 5320 C 519.911 -0.38673 4.22735 0
M  V30 5321 C 517.818 1.40446 5.74481 0
M  V30 5322 H 516.748 0.0224441 0.753666 0
M  V30 5323 H 519.399 0.737789 1.68015 0
M  V30 5324 H 517.781 -0.659144 3.90476 0
M  V30 5325 H 518.955 2.19612 4.05101 0
M  V30 5326 H 517.27 1.84401 3.73343 0
M  V30 5327 H 519.867 -0.433853 5.32937 0
M  V30 5328 H 520.21 -1.40489 3.91878 0
M  V30 5329 H 520.743 0.293195 3.96718 0
M  V30 5330 H 517.482 2.39952 6.10003 0
M  V30 5331 H 517.002 0.692845 5.95785 0
M  V30 5332 H 518.681 1.11865 6.37256 0
M  V30 5333 N 518.813 -1.54241 0.323641 0
M  V30 5334 C 519.776 -2.22997 -0.529602 0
M  V30 5335 C 520.776 -1.22345 -1.04347 0
M  V30 5336 O 521.966 -1.46924 -0.935889 0
M  V30 5337 C 519.098 -2.93409 -1.73562 0
M  V30 5338 H 520.291 -2.99815 0.0714518 0
M  V30 5339 H 517.844 -1.56121 0.0747258 0
M  V30 5340 H 518.579 -2.20729 -2.37591 0
M  V30 5341 H 518.364 -3.67217 -1.37456 0
M  V30 5342 H 519.854 -3.45794 -2.34128 0
M  V30 5343 N 520.291 -0.0518155 -1.57515 0
M  V30 5344 C 521.224 0.957758 -2.07129 0
M  V30 5345 C 522.202 1.30355 -0.971927 0
M  V30 5346 O 523.386 1.41631 -1.2439 0
M  V30 5347 C 520.513 2.27157 -2.51232 0
M  V30 5348 C 519.559 2.07879 -3.72409 0
M  V30 5349 S 520.392 1.35656 -5.18033 0
M  V30 5350 C 521.548 2.68359 -5.65451 0
M  V30 5351 H 521.781 0.53552 -2.92437 0
M  V30 5352 H 519.314 0.160465 -1.53564 0
M  V30 5353 H 521.272 3.02676 -2.77304 0
M  V30 5354 H 519.933 2.66509 -1.66228 0
M  V30 5355 H 519.126 3.05061 -4.01191 0
M  V30 5356 H 518.728 1.40499 -3.46606 0
M  V30 5357 H 521.02 3.64526 -5.71076 0
M  V30 5358 H 521.963 2.44213 -6.64654 0
M  V30 5359 H 522.371 2.74647 -4.93183 0
M  V30 5360 N 521.769 1.56035 0.221574 0
M  V30 5361 C 523.017 1.78693 0.944102 0
M  V30 5362 C 523.338 0.620317 1.8487 0
M  V30 5363 O 522.608 -0.362784 1.92512 0
M  V30 5364 H 521.188 0.659082 0.351597 0
M  V30 5365 H 523.85 1.93497 0.233435 0
M  V30 5366 H 522.946 2.70837 1.55093 0
M  V30 5367 N 523.247 -0.488276 1.49845 0
M  V30 5368 C 524.496 -1.23826 1.59217 0
M  V30 5369 C 524.809 -1.93439 0.289966 0
M  V30 5370 O 526.015 -2.70229 0.262382 0
M  V30 5371 C 524.471 -2.24902 2.80976 0
M  V30 5372 C 524.079 -1.6117 4.18005 0
M  V30 5373 C 525.823 -3.00648 2.99685 0
M  V30 5374 C 523.73 -2.60431 5.3097 0
M  V30 5375 H 522.66 -0.465858 0.592868 0
M  V30 5376 H 525.311 -0.510645 1.76252 0
M  V30 5377 H 523.693 -3.0088 2.57463 0
M  V30 5378 H 524.867 -0.910968 4.51706 0
M  V30 5379 H 523.182 -0.97767 4.0476 0
M  V30 5380 H 525.779 -3.74903 3.81251 0
M  V30 5381 H 526.122 -3.5902 2.10738 0
M  V30 5382 H 526.655 -2.31784 3.23297 0
M  V30 5383 H 523.394 -2.06823 6.22017 0
M  V30 5384 H 522.914 -3.28707 5.01709 0
M  V30 5385 H 524.593 -3.22606 5.60834 0
M  V30 5386 N 524.725 -1.39134 -0.740242 0
M  V30 5387 C 525.973 -1.35803 -1.49673 0
M  V30 5388 C 526.294 0.0470897 -1.94943 0
M  V30 5389 O 525.564 0.997347 -1.68611 0
M  V30 5390 H 524.144 -0.499736 -0.555224 0
M  V30 5391 H 526.806 -1.73947 -0.879107 0
M  V30 5392 H 525.902 -2.0174 -2.38133 0
M  V30 5393 N 526.204 0.969867 -1.24223 0
M  V30 5394 C 527.134 2.08191 -1.05729 0
M  V30 5395 C 528.115 1.70075 0.0290765 0
M  V30 5396 O 529.3 1.93712 -0.137583 0
M  V30 5397 C 526.43 3.40991 -0.658995 0
M  V30 5398 C 525.384 3.93054 -1.69389 0
M  V30 5399 C 524.71 5.22171 -1.15072 0
M  V30 5400 C 526.01 4.21137 -3.08935 0
M  V30 5401 H 527.704 2.23921 -1.98746 0
M  V30 5402 H 525.25 1.07602 -0.956967 0
M  V30 5403 H 527.203 4.18221 -0.51662 0
M  V30 5404 H 525.927 3.25155 0.30686 0
M  V30 5405 H 524.586 3.17977 -1.82444 0
M  V30 5406 H 524.234 5.02694 -0.175539 0
M  V30 5407 H 523.934 5.57973 -1.84229 0
M  V30 5408 H 525.458 6.02013 -1.02042 0
M  V30 5409 H 526.872 4.8908 -2.99121 0
M  V30 5410 H 525.269 4.68163 -3.75425 0
M  V30 5411 H 526.339 3.27996 -3.57137 0
M  V30 5412 N 527.682 1.05563 1.17022 0
M  V30 5413 C 528.93 0.76642 1.87004 0
M  V30 5414 C 529.251 -0.708854 1.8166 0
M  V30 5415 O 528.521 -1.51242 1.2451 0
M  V30 5416 H 527.101 0.280516 0.692329 0
M  V30 5417 H 529.763 1.33557 1.41945 0
M  V30 5418 H 528.859 1.08472 2.92644 0
M  V30 5419 N 529.16 -1.33526 0.837174 0
M  V30 5420 C 530.406 -1.9813 0.432704 0
M  V30 5421 C 530.739 -1.66168 -1.00508 0
M  V30 5422 O 530.014 -0.94069 -1.70239 0
M  V30 5423 C 530.297 -3.54151 0.651834 0
M  V30 5424 C 530.15 -3.95806 2.13676 0
M  V30 5425 C 531.469 -4.39993 0.0968937 0
M  V30 5426 H 528.588 -0.719713 0.15869 0
M  V30 5427 H 531.23 -1.58193 1.05237 0
M  V30 5428 H 529.38 -3.88301 0.124369 0
M  V30 5429 H 531.052 -3.71921 2.72896 0
M  V30 5430 H 529.295 -3.45599 2.62191 0
M  V30 5431 H 529.966 -5.0447 2.24084 0
M  V30 5432 H 532.442 -4.12479 0.547733 0
M  V30 5433 H 531.318 -5.48186 0.279917 0
M  V30 5434 H 531.579 -4.3066 -0.9992 0
M  V30 5435 N 530.638 -0.59345 -1.46 0
M  V30 5436 C 531.863 -0.0872365 -2.07216 0
M  V30 5437 C 532.288 1.2131 -1.43755 0
M  V30 5438 O 531.646 1.73528 -0.525152 0
M  V30 5439 C 531.694 0.0538197 -3.6056 0
M  V30 5440 O 530.798 1.10765 -3.97247 0
M  V30 5441 H 530.139 -0.0676598 -0.660544 0
M  V30 5442 H 532.669 -0.819445 -1.87473 0
M  V30 5443 H 532.679 0.256567 -4.07193 0
M  V30 5444 H 531.354 -0.895739 -4.0614 0
M  V30 5445 H 529.931 0.882501 -3.62307 0
M  V30 5446 N 532.116 1.54067 -0.331816 0
M  V30 5447 C 533.341 2.05599 0.272705 0
M  V30 5448 C 533.766 1.2059 1.44359 0
M  V30 5449 O 533.124 0.216907 1.79998 0
M  V30 5450 C 533.172 3.54188 0.677021 0
M  V30 5451 O 532.276 3.72082 1.77844 0
M  V30 5452 H 531.617 0.662286 0.0476801 0
M  V30 5453 H 534.147 1.98826 -0.482624 0
M  V30 5454 H 534.157 3.96608 0.957415 0
M  V30 5455 H 532.832 4.15513 -0.179325 0
M  V30 5456 H 531.409 3.41566 1.49622 0
M  V30 5457 N 533.594 0.0601682 1.57485 0
M  V30 5458 C 534.526 -0.94047 2.09016 0
M  V30 5459 C 535.539 -1.26897 1.01985 0
M  V30 5460 O 536.728 -1.22819 1.29529 0
M  V30 5461 C 533.828 -2.25955 2.52582 0
M  V30 5462 C 533.001 -2.11163 3.83052 0
M  V30 5463 C 532.06 -3.26273 4.12835 0
M  V30 5464 O 531.086 -3.01779 4.82616 0
M  V30 5465 N 532.288 -4.51022 3.65458 0
M  V30 5466 H 535.053 -0.500578 2.9549 0
M  V30 5467 H 532.614 -0.125852 1.6141 0
M  V30 5468 H 534.606 -3.01846 2.69575 0
M  V30 5469 H 533.176 -2.61481 1.71308 0
M  V30 5470 H 532.396 -1.19808 3.75552 0
M  V30 5471 H 533.684 -1.98517 4.68475 0
M  V30 5472 H 533.082 -4.73811 3.09062 0
M  V30 5473 H 531.639 -5.23978 3.87673 0
M  V30 5474 N 535.072 -1.5615 -0.213296 0
M  V30 5475 C 536.002 -1.96109 -1.26742 0
M  V30 5476 C 536.983 -0.830448 -1.48451 0
M  V30 5477 O 538.168 -1.09339 -1.60495 0
M  V30 5478 C 535.298 -2.28492 -2.61551 0
M  V30 5479 C 534.252 -3.44124 -2.54485 0
M  V30 5480 C 533.578 -3.62134 -3.93399 0
M  V30 5481 C 534.878 -4.78855 -2.08556 0
M  V30 5482 H 536.572 -2.84412 -0.935434 0
M  V30 5483 H 534.118 -1.36836 -0.44854 0
M  V30 5484 H 536.071 -2.55039 -3.3546 0
M  V30 5485 H 534.795 -1.37052 -2.96453 0
M  V30 5486 H 533.454 -3.17639 -1.83033 0
M  V30 5487 H 533.102 -2.68055 -4.25623 0
M  V30 5488 H 532.802 -4.39913 -3.89551 0
M  V30 5489 H 534.326 -3.91038 -4.68958 0
M  V30 5490 H 535.74 -5.04552 -2.72213 0
M  V30 5491 H 534.137 -5.59975 -2.1575 0
M  V30 5492 H 535.207 -4.73657 -1.03811 0
M  V30 5493 N 536.55 0.480323 -1.50102 0
M  V30 5494 C 537.796 1.23489 -1.60867 0
M  V30 5495 C 538.129 1.91809 -0.303827 0
M  V30 5496 O 537.404 1.81694 0.694092 0
M  V30 5497 C 537.687 2.28578 -2.78252 0
M  V30 5498 C 537.54 1.64624 -4.18592 0
M  V30 5499 C 538.859 3.2997 -2.91218 0
M  V30 5500 H 535.978 0.447605 -0.585507 0
M  V30 5501 H 538.62 0.530005 -1.82458 0
M  V30 5502 H 536.77 2.88697 -2.59974 0
M  V30 5503 H 538.442 1.08173 -4.48438 0
M  V30 5504 H 536.685 0.949645 -4.23278 0
M  V30 5505 H 537.356 2.40946 -4.96638 0
M  V30 5506 H 539.832 2.79864 -3.07921 0
M  V30 5507 H 538.708 4.00839 -3.74993 0
M  V30 5508 H 538.969 3.93541 -2.0144 0
M  V30 5509 N 538.028 1.39524 0.732853 0
M  V30 5510 C 539.253 1.40329 1.52717 0
M  V30 5511 C 539.678 0.000286574 1.881 0
M  V30 5512 O 539.036 -0.987262 1.52062 0
M  V30 5513 C 539.084 2.28464 2.78992 0
M  V30 5514 O 538.188 1.716 3.75003 0
M  V30 5515 H 537.529 0.47778 0.461109 0
M  V30 5516 H 540.059 1.83546 0.903996 0
M  V30 5517 H 540.069 2.43051 3.27705 0
M  V30 5518 H 538.744 3.30425 2.52572 0
M  V30 5519 H 537.321 1.66267 3.33781 0
M  V30 5520 N 539.506 -0.963266 1.24736 0
M  V30 5521 C 540.922 -1.23273 1.01371 0
M  V30 5522 C 541.122 -1.99618 -0.274776 0
M  V30 5523 O 540.178 -2.32293 -0.989769 0
M  V30 5524 C 541.491 -2.01554 2.23152 0
M  V30 5525 C 543.039 -2.14629 2.27823 0
M  V30 5526 C 543.514 -2.96307 3.49237 0
M  V30 5527 N 545.005 -3.03887 3.49581 0
M  V30 5528 C 545.74 -3.67456 4.40186 0
M  V30 5529 N 545.236 -4.32706 5.41052 0
M  V30 5530 N 547.029 -3.64511 4.27888 0
M  V30 5531 H 539.18 -0.452294 2.07528 0
M  V30 5532 H 541.443 -0.262521 0.910926 0
M  V30 5533 H 541.149 -1.52847 3.1675 0
M  V30 5534 H 541.023 -3.02278 2.25628 0
M  V30 5535 H 543.41 -2.62537 1.34753 0
M  V30 5536 H 543.491 -1.13238 2.2937 0
M  V30 5537 H 543.135 -2.49091 4.42624 0
M  V30 5538 H 543.065 -3.97905 3.44933 0
M  V30 5539 H 545.556 -2.57477 2.76611 0
M  V30 5540 H 545.869 -4.79042 6.06415 0
M  V30 5541 H 544.214 -4.31361 5.44934 0
M  V30 5542 H 547.405 -3.12715 3.4832 0
M  V30 5543 H 547.578 -4.13768 4.98698 0
M  V30 5544 N 540.985 -1.06182 -1.16461 0
M  V30 5545 C 542.232 -0.777863 -1.86964 0
M  V30 5546 C 542.56 0.695602 -1.81636 0
M  V30 5547 O 541.815 1.52532 -1.22607 0
M  V30 5548 C 542.114 -1.21633 -3.36066 0
M  V30 5549 C 541.78 -2.69371 -3.61594 0
M  V30 5550 C 540.442 -3.09727 -3.6827 0
M  V30 5551 C 542.794 -3.64791 -3.7226 0
M  V30 5552 C 540.122 -4.44345 -3.83112 0
M  V30 5553 C 542.474 -4.99155 -3.88623 0
M  V30 5554 C 541.138 -5.39149 -3.93541 0
M  V30 5555 H 540.408 -0.28464 -0.68415 0
M  V30 5556 H 543.055 -1.33071 -1.37711 0
M  V30 5557 H 541.36 -0.582651 -3.87443 0
M  V30 5558 H 543.057 -0.973682 -3.88999 0
M  V30 5559 H 539.647 -2.37124 -3.57029 0
M  V30 5560 H 543.831 -3.34746 -3.66413 0
M  V30 5561 H 539.087 -4.74819 -3.85172 0
M  V30 5562 H 543.261 -5.72976 -3.95817 0
M  V30 5563 H 540.888 -6.43464 -4.04794 0
M  V30 5564 N 542.463 1.3308 -0.844243 0
M  V30 5565 C 543.688 2.02341 -0.455282 0
M  V30 5566 C 544.113 1.6308 0.93737 0
M  V30 5567 O 543.471 0.826118 1.61385 0
M  V30 5568 C 543.519 3.55743 -0.58988 0
M  V30 5569 O 542.623 4.1063 0.38166 0
M  V30 5570 H 541.964 0.637898 -0.184343 0
M  V30 5571 H 544.494 1.6986 -1.14056 0
M  V30 5572 H 544.504 4.05243 -0.473522 0
M  V30 5573 H 543.179 3.83662 -1.60549 0
M  V30 5574 H 541.756 3.72236 0.22241 0
M  V30 5575 N 543.941 0.601185 1.45683 0
M  V30 5576 C 545.352 0.179659 1.85834 0
M  V30 5577 C 545.703 -1.26189 1.50236 0
M  V30 5578 O 544.828 -1.95587 0.925987 0
M  V30 5579 C 545.423 0.319277 3.37292 0
M  V30 5580 C 543.982 -0.0475092 3.7637 0
M  V30 5581 C 543.129 0.646692 2.69654 0
M  V30 5582 H 546.08 0.808268 1.36575 0
M  V30 5583 H 546.101 -0.4503 3.77826 0
M  V30 5584 H 545.613 1.36855 3.6317 0
M  V30 5585 H 543.714 -1.0962 3.5611 0
M  V30 5586 H 543.827 0.34168 4.7788 0
M  V30 5587 H 542.191 0.0849971 2.54558 0
M  V30 5588 H 542.974 1.69797 2.98369 0
M  V30 5589 N 545.419 -1.53889 0.339982 0
M  V30 5590 C 546.835 -1.59595 -0.0120752 0
M  V30 5591 C 547.035 -1.35605 -1.49042 0
M  V30 5592 O 546.091 -1.14856 -2.24865 0
M  V30 5593 C 547.404 -2.9774 0.420898 0
M  V30 5594 C 548.952 -3.1077 0.37294 0
M  V30 5595 C 549.427 -4.51286 0.781327 0
M  V30 5596 N 550.918 -4.57325 0.735374 0
M  V30 5597 C 551.653 -5.64194 1.02336 0
M  V30 5598 N 551.149 -6.7893 1.37933 0
M  V30 5599 N 552.942 -5.54051 0.947838 0
M  V30 5600 H 545.093 -1.67738 1.30299 0
M  V30 5601 H 547.356 -0.785385 0.530918 0
M  V30 5602 H 547.062 -3.20349 1.45152 0
M  V30 5603 H 546.936 -3.76639 -0.205721 0
M  V30 5604 H 549.323 -2.87886 -0.648505 0
M  V30 5605 H 549.404 -2.33939 1.03472 0
M  V30 5606 H 549.048 -4.74905 1.80077 0
M  V30 5607 H 548.978 -5.26511 0.0970679 0
M  V30 5608 H 551.469 -3.74931 0.472773 0
M  V30 5609 H 551.782 -7.56392 1.58402 0
M  V30 5610 H 550.127 -6.80386 1.41774 0
M  V30 5611 H 553.318 -4.63293 0.669115 0
M  V30 5612 H 553.491 -6.37246 1.17563 0
M  V30 5613 N 546.897 -0.0685191 -1.57451 0
M  V30 5614 C 548.143 0.602239 -1.93652 0
M  V30 5615 C 548.476 1.6946 -0.948526 0
M  V30 5616 O 547.751 1.94487 0.022782 0
M  V30 5617 C 548.034 1.18223 -3.4014 0
M  V30 5618 C 547.887 0.0967431 -4.49696 0
M  V30 5619 C 549.206 2.08872 -3.87377 0
M  V30 5620 H 546.325 0.217453 -0.70419 0
M  V30 5621 H 548.967 -0.133821 -1.89528 0
M  V30 5622 H 547.117 1.80953 -3.43785 0
M  V30 5623 H 548.789 -0.536155 -4.58174 0
M  V30 5624 H 547.032 -0.573063 -4.29998 0
M  V30 5625 H 547.703 0.542894 -5.49324 0
M  V30 5626 H 550.179 1.56081 -3.85717 0
M  V30 5627 H 549.055 2.46389 -4.90493 0
M  V30 5628 H 549.316 2.99572 -3.25129 0
M  V30 5629 N 548.375 1.56261 0.205012 0
M  V30 5630 C 549.305 1.96779 1.257 0
M  V30 5631 C 550.286 0.838309 1.48008 0
M  V30 5632 O 551.471 1.10189 1.59913 0
M  V30 5633 C 548.601 2.29876 2.60335 0
M  V30 5634 C 547.555 3.45469 2.52656 0
M  V30 5635 C 546.881 3.64215 3.91473 0
M  V30 5636 C 548.181 4.79954 2.06014 0
M  V30 5637 H 549.875 2.84904 0.920338 0
M  V30 5638 H 547.421 1.37072 0.441277 0
M  V30 5639 H 549.374 2.56814 3.34102 0
M  V30 5640 H 548.098 1.38622 2.95722 0
M  V30 5641 H 546.757 3.18605 1.81345 0
M  V30 5642 H 546.405 2.70309 4.24196 0
M  V30 5643 H 546.105 4.41973 3.87213 0
M  V30 5644 H 547.629 3.93519 4.66878 0
M  V30 5645 H 549.043 5.05989 2.69533 0
M  V30 5646 H 547.44 5.61111 2.12777 0
M  V30 5647 H 548.51 4.74201 1.01297 0
M  V30 5648 N 549.853 -0.472356 1.50355 0
M  V30 5649 C 551.081 -1.24784 1.65035 0
M  V30 5650 C 551.496 -1.85837 0.333176 0
M  V30 5651 O 550.853 -1.69168 -0.68472 0
M  V30 5652 C 550.904 -2.35747 2.74054 0
M  V30 5653 O 550.625 -1.77197 4.00665 0
M  V30 5654 C 552.126 -3.26645 2.99696 0
M  V30 5655 H 549.346 -0.377432 0.554785 0
M  V30 5656 H 551.89 -0.563962 1.9657 0
M  V30 5657 H 550.045 -2.99912 2.45217 0
M  V30 5658 H 550.459 -2.5026 4.60945 0
M  V30 5659 H 551.933 -4.00718 3.79644 0
M  V30 5660 H 552.41 -3.8535 2.10718 0
M  V30 5661 H 553.016 -2.68218 3.3006 0
M  V30 5662 N 551.331 -1.39911 -0.725443 0
M  V30 5663 C 552.58 -1.36963 -1.48068 0
M  V30 5664 C 552.893 0.0284478 -1.95579 0
M  V30 5665 O 554.099 0.180535 -2.70899 0
M  V30 5666 C 552.555 -2.40664 -2.67598 0
M  V30 5667 C 552.163 -3.86234 -2.26997 0
M  V30 5668 C 553.907 -2.46807 -3.45379 0
M  V30 5669 C 551.814 -4.81554 -3.43307 0
M  V30 5670 H 550.744 -0.509223 -0.556065 0
M  V30 5671 H 553.395 -1.65602 -0.790454 0
M  V30 5672 H 551.777 -2.05109 -3.38742 0
M  V30 5673 H 552.951 -4.3088 -1.63337 0
M  V30 5674 H 551.266 -3.83475 -1.62284 0
M  V30 5675 H 553.863 -3.15213 -4.31909 0
M  V30 5676 H 554.206 -1.49552 -3.8851 0
M  V30 5677 H 554.739 -2.81303 -2.81271 0
M  V30 5678 H 551.478 -5.80106 -3.05217 0
M  V30 5679 H 550.998 -4.4158 -4.05915 0
M  V30 5680 H 552.677 -5.0091 -4.0951 0
M  V30 5681 N 552.809 0.956637 -1.25245 0
M  V30 5682 C 554.057 1.69764 -1.09657 0
M  V30 5683 C 554.378 1.91583 0.363464 0
M  V30 5684 O 553.648 1.50149 1.25825 0
M  V30 5685 H 552.228 0.629097 -0.402798 0
M  V30 5686 H 554.89 1.15026 -1.57337 0
M  V30 5687 H 553.986 2.67769 -1.60331 0
M  V30 5688 N 554.287 1.06798 1.15896 0
M  V30 5689 C 555.535 0.786211 1.8618 0
M  V30 5690 C 555.856 -0.689547 1.82401 0
M  V30 5691 O 555.126 -1.49913 1.26107 0
M  V30 5692 H 553.706 0.287843 0.689315 0
M  V30 5693 H 556.368 1.35055 1.40521 0
M  V30 5694 H 555.464 1.1157 2.91477 0
M  V30 5695 N 555.766 -1.3263 0.851289 0
M  V30 5696 C 557.014 -1.96978 0.452128 0
M  V30 5697 C 557.335 -1.67715 -0.99482 0
M  V30 5698 O 556.605 -0.98259 -1.69476 0
M  V30 5699 H 555.185 -0.72873 0.164202 0
M  V30 5700 H 557.847 -1.61774 1.08698 0
M  V30 5701 H 556.943 -3.06387 0.594407 0
M  V30 5702 N 557.244 -0.608902 -1.45362 0
M  V30 5703 C 558.474 -0.110852 -2.06302 0
M  V30 5704 C 558.882 1.21062 -1.45398 0
M  V30 5705 O 558.225 1.74861 -0.562976 0
M  V30 5706 C 558.287 0.101793 -3.59356 0
M  V30 5707 C 557.951 -1.13808 -4.42602 0
M  V30 5708 C 558.948 -2.05653 -4.77496 0
M  V30 5709 C 556.633 -1.36727 -4.83333 0
M  V30 5710 C 558.627 -3.18745 -5.51978 0
M  V30 5711 C 556.314 -2.5012 -5.57569 0
M  V30 5712 C 557.312 -3.40957 -5.91809 0
M  V30 5713 O 557 -4.52376 -6.64538 0
M  V30 5714 H 556.732 -0.0666001 -0.672711 0
M  V30 5715 H 559.286 -0.836942 -1.87575 0
M  V30 5716 H 557.516 0.88279 -3.76489 0
M  V30 5717 H 559.205 0.551607 -4.02134 0
M  V30 5718 H 559.971 -1.89172 -4.46586 0
M  V30 5719 H 555.85 -0.669216 -4.56117 0
M  V30 5720 H 559.394 -3.8967 -5.78622 0
M  V30 5721 H 555.291 -2.66553 -5.87894 0
M  V30 5722 H 556.059 -4.51075 -6.82989 0
M  V30 5723 N 558.722 1.53707 -0.348139 0
M  V30 5724 C 559.652 2.28111 0.498766 0
M  V30 5725 C 560.633 1.29851 1.09876 0
M  V30 5726 O 561.818 1.587 1.11928 0
M  V30 5727 C 558.948 3.05735 1.64753 0
M  V30 5728 C 557.902 4.11537 1.17565 0
M  V30 5729 C 557.228 4.77142 2.4133 0
M  V30 5730 C 558.528 5.21587 0.272844 0
M  V30 5731 H 560.222 2.99152 -0.121934 0
M  V30 5732 H 557.768 1.43875 -0.0600842 0
M  V30 5733 H 559.721 3.56526 2.24649 0
M  V30 5734 H 558.445 2.32354 2.2952 0
M  V30 5735 H 557.104 3.61665 0.599483 0
M  V30 5736 H 556.752 4.0035 3.04514 0
M  V30 5737 H 556.452 5.48626 2.10436 0
M  V30 5738 H 557.976 5.30719 3.01943 0
M  V30 5739 H 559.39 5.67986 0.778779 0
M  V30 5740 H 557.787 6.00074 0.0555849 0
M  V30 5741 H 558.857 4.79969 -0.689785 0
M  V30 5742 N 560.2 0.0768682 1.57412 0
M  V30 5743 C 561.13 -0.886026 2.16037 0
M  V30 5744 C 562.111 -1.30691 1.08876 0
M  V30 5745 O 563.296 -1.37705 1.36934 0
M  V30 5746 C 560.426 -2.1518 2.72608 0
M  V30 5747 C 559.38 -1.87015 3.8498 0
M  V30 5748 C 558.706 -3.20266 4.28175 0
M  V30 5749 C 560.006 -1.17143 5.08994 0
M  V30 5750 H 561.7 -0.397642 2.96748 0
M  V30 5751 H 559.246 -0.189823 1.42743 0
M  V30 5752 H 561.199 -2.82962 3.12266 0
M  V30 5753 H 559.923 -2.66269 1.89125 0
M  V30 5754 H 558.582 -1.21636 3.45833 0
M  V30 5755 H 558.23 -3.69207 3.41607 0
M  V30 5756 H 557.93 -3.0221 5.03927 0
M  V30 5757 H 559.454 -3.89237 4.70454 0
M  V30 5758 H 560.868 -1.75003 5.45937 0
M  V30 5759 H 559.265 -1.09328 5.90057 0
M  V30 5760 H 560.335 -0.151295 4.84664 0
M  V30 5761 N 561.678 -1.56367 -0.196722 0
M  V30 5762 C 562.925 -1.80529 -0.917366 0
M  V30 5763 C 563.253 -0.649817 -1.83324 0
M  V30 5764 O 562.508 0.36451 -1.92275 0
M  V30 5765 C 562.807 -3.10663 -1.767 0
M  V30 5766 C 562.473 -4.3962 -1.00225 0
M  V30 5767 C 561.135 -4.74653 -0.791095 0
M  V30 5768 C 563.487 -5.1913 -0.464035 0
M  V30 5769 C 560.815 -5.86692 -0.0302155 0
M  V30 5770 C 563.167 -6.31964 0.283625 0
M  V30 5771 C 561.831 -6.65581 0.505813 0
M  V30 5772 H 561.101 -0.660602 -0.335688 0
M  V30 5773 H 563.748 -1.90615 -0.183844 0
M  V30 5774 H 562.053 -2.95807 -2.56915 0
M  V30 5775 H 563.75 -3.26563 -2.32718 0
M  V30 5776 H 560.34 -4.12127 -1.17684 0
M  V30 5777 H 564.524 -4.9248 -0.614575 0
M  V30 5778 H 559.78 -6.11211 0.151917 0
M  V30 5779 H 563.954 -6.92791 0.708057 0
M  V30 5780 H 561.581 -7.52239 1.0973 0
M  V30 5781 N 563.156 0.464375 -1.50603 0
M  V30 5782 C 564.404 1.21356 -1.61608 0
M  V30 5783 C 564.725 1.92329 -0.321643 0
M  V30 5784 O 563.995 1.84403 0.661232 0
M  V30 5785 H 562.575 0.45094 -0.595535 0
M  V30 5786 H 565.237 0.535046 -1.87412 0
M  V30 5787 H 564.333 1.95783 -2.43054 0
M  V30 5788 N 564.634 1.40294 0.718013 0
M  V30 5789 C 565.597 1.4012 1.81381 0
M  V30 5790 C 566.597 0.295405 1.58063 0
M  V30 5791 O 567.787 0.554187 1.6515 0
M  V30 5792 C 564.919 1.19056 3.19435 0
M  V30 5793 H 566.112 2.37645 1.82933 0
M  V30 5794 H 563.665 1.26107 0.923405 0
M  V30 5795 H 564.4 0.222809 3.23534 0
M  V30 5796 H 564.185 1.99152 3.37758 0
M  V30 5797 H 565.675 1.21716 3.99468 0
M  V30 5798 N 566.112 -0.949982 1.2575 0
M  V30 5799 C 567.045 -2.047 1.00862 0
M  V30 5800 C 568.023 -1.62475 -0.0636982 0
M  V30 5801 O 569.207 -1.88343 0.0769153 0
M  V30 5802 C 566.334 -3.34597 0.525613 0
M  V30 5803 C 565.38 -3.95788 1.58916 0
M  V30 5804 S 566.213 -4.31175 3.17567 0
M  V30 5805 C 567.369 -5.64183 2.71013 0
M  V30 5806 H 567.602 -2.25497 1.93749 0
M  V30 5807 H 565.135 -1.09022 1.09332 0
M  V30 5808 H 567.093 -4.09716 0.25359 0
M  V30 5809 H 565.754 -3.11758 -0.382828 0
M  V30 5810 H 564.947 -4.89457 1.20201 0
M  V30 5811 H 564.549 -3.27168 1.81211 0
M  V30 5812 H 566.841 -6.42504 2.14928 0
M  V30 5813 H 567.784 -6.07774 3.6334 0
M  V30 5814 H 568.192 -5.2364 2.1086 0
M  V30 5815 N 567.59 -1.07411 -1.15328 0
M  V30 5816 C 568.52 -0.716472 -2.22236 0
M  V30 5817 C 569.501 0.296373 -1.67498 0
M  V30 5818 O 570.686 0.168989 -1.93463 0
M  V30 5819 C 567.816 -0.114142 -3.47112 0
M  V30 5820 C 566.77 -1.05421 -4.14814 0
M  V30 5821 C 566.096 -0.314604 -5.33774 0
M  V30 5822 C 567.396 -2.38808 -4.64508 0
M  V30 5823 H 569.09 -1.61029 -2.52408 0
M  V30 5824 H 566.636 -0.775702 -1.21321 0
M  V30 5825 H 568.589 0.148001 -4.2114 0
M  V30 5826 H 567.313 0.814755 -3.16274 0
M  V30 5827 H 565.972 -1.30128 -3.42728 0
M  V30 5828 H 565.62 0.617772 -4.99192 0
M  V30 5829 H 565.32 -0.941209 -5.80013 0
M  V30 5830 H 566.844 -0.0602747 -6.1057 0
M  V30 5831 H 568.258 -2.18424 -5.3006 0
M  V30 5832 H 566.655 -2.97069 -5.21412 0
M  V30 5833 H 567.725 -3.01067 -3.80114 0
M  V30 5834 N 569.068 1.32177 -0.85831 0
M  V30 5835 C 570.298 2.01021 -0.476889 0
M  V30 5836 C 570.706 1.64653 0.931995 0
M  V30 5837 O 570.049 0.865713 1.62022 0
M  V30 5838 C 570.111 3.55413 -0.540528 0
M  V30 5839 C 569.775 4.1522 -1.90895 0
M  V30 5840 C 570.772 4.3318 -2.87491 0
M  V30 5841 C 568.457 4.51212 -2.20709 0
M  V30 5842 C 570.451 4.86306 -4.1205 0
M  V30 5843 C 568.138 5.04042 -3.45521 0
M  V30 5844 C 569.136 5.21538 -4.41007 0
M  V30 5845 O 568.824 5.73238 -5.63608 0
M  V30 5846 H 568.556 0.650059 -0.18547 0
M  V30 5847 H 571.11 1.69648 -1.15796 0
M  V30 5848 H 569.34 3.86196 0.19741 0
M  V30 5849 H 571.029 4.05526 -0.174191 0
M  V30 5850 H 571.795 4.05704 -2.65762 0
M  V30 5851 H 567.674 4.36878 -1.4717 0
M  V30 5852 H 571.218 4.99877 -4.86589 0
M  V30 5853 H 567.115 5.30952 -3.67098 0
M  V30 5854 H 567.883 5.91625 -5.65617 0
M  V30 5855 N 570.547 0.616602 1.45037 0
M  V30 5856 C 571.795 0.115103 2.01772 0
M  V30 5857 C 572.116 -1.2622 1.48639 0
M  V30 5858 O 571.386 -1.83563 0.684199 0
M  V30 5859 H 569.966 0.0395607 0.745952 0
M  V30 5860 H 572.628 0.800032 1.77723 0
M  V30 5861 H 571.724 0.0717274 3.12018 0
M  V30 5862 N 572.025 -1.5352 0.356285 0
M  V30 5863 C 573.25 -2.06007 -0.239961 0
M  V30 5864 C 573.675 -1.22872 -1.42422 0
M  V30 5865 O 573.033 -0.245516 -1.7963 0
M  V30 5866 C 573.081 -3.5522 -0.620587 0
M  V30 5867 O 572.185 -3.74864 -1.71902 0
M  V30 5868 H 571.526 -0.662961 -0.0371377 0
M  V30 5869 H 574.056 -1.98033 0.514194 0
M  V30 5870 H 574.066 -3.98081 -0.894197 0
M  V30 5871 H 572.741 -4.15175 0.245407 0
M  V30 5872 H 571.318 -3.43904 -1.44169 0
M  V30 5873 N 573.503 -0.0852151 -1.57369 0
M  V30 5874 C 574.75 0.580806 -1.93992 0
M  V30 5875 C 575.078 1.68801 -0.966252 0
M  V30 5876 O 574.333 1.95694 0.0158649 0
M  V30 5877 C 574.632 1.18482 -3.3719 0
M  V30 5878 C 574.298 0.2024 -4.50446 0
M  V30 5879 C 572.96 -0.0678318 -4.81152 0
M  V30 5880 C 575.312 -0.46895 -5.19086 0
M  V30 5881 C 572.64 -1.01627 -5.77831 0
M  V30 5882 C 574.992 -1.4058 -6.16782 0
M  V30 5883 C 573.656 -1.68436 -6.45899 0
M  V30 5884 H 572.926 0.212532 -0.709867 0
M  V30 5885 H 575.573 -0.158947 -1.90839 0
M  V30 5886 H 573.878 2.0006 -3.36873 0
M  V30 5887 H 575.575 1.70767 -3.62822 0
M  V30 5888 H 572.165 0.423208 -4.26505 0
M  V30 5889 H 576.349 -0.273307 -4.95547 0
M  V30 5890 H 571.605 -1.2392 -5.9871 0
M  V30 5891 H 575.779 -1.93188 -6.69068 0
M  V30 5892 H 573.406 -2.42088 -7.20623 0
M  V30 5893 N 574.981 1.5647 0.188427 0
M  V30 5894 C 576.228 1.81013 0.907779 0
M  V30 5895 C 576.556 0.65953 1.82977 0
M  V30 5896 O 575.811 -0.354308 1.92466 0
M  V30 5897 C 576.11 3.11596 1.7505 0
M  V30 5898 C 575.776 4.40145 0.978922 0
M  V30 5899 C 574.438 4.75066 0.765912 0
M  V30 5900 C 576.79 5.19369 0.436498 0
M  V30 5901 C 574.118 5.867 -0.00089868 0
M  V30 5902 C 576.47 6.31805 -0.317136 0
M  V30 5903 C 575.134 6.65303 -0.541103 0
M  V30 5904 H 574.404 0.662373 0.33218 0
M  V30 5905 H 577.051 1.9071 0.173732 0
M  V30 5906 H 575.356 2.97165 2.55343 0
M  V30 5907 H 577.053 3.27793 2.30983 0
M  V30 5908 H 573.643 4.12745 1.15497 0
M  V30 5909 H 577.827 4.92799 0.588449 0
M  V30 5910 H 573.083 6.11122 -0.184329 0
M  V30 5911 H 577.257 6.92406 -0.744788 0
M  V30 5912 H 574.884 7.51646 -1.13718 0
M  V30 5913 N 576.459 -0.456382 1.50847 0
M  V30 5914 C 577.392 -1.57177 1.65441 0
M  V30 5915 C 578.37 -1.54649 0.502224 0
M  V30 5916 O 579.554 -1.74057 0.723633 0
M  V30 5917 C 576.681 -2.95763 1.65052 0
M  V30 5918 C 575.727 -3.16389 2.86007 0
M  V30 5919 S 576.56 -2.94716 4.47105 0
M  V30 5920 C 577.716 -4.35617 4.49432 0
M  V30 5921 H 577.949 -1.44561 2.59787 0
M  V30 5922 H 575.482 -0.644758 1.40293 0
M  V30 5923 H 577.44 -3.75654 1.65512 0
M  V30 5924 H 576.101 -3.05756 0.719153 0
M  V30 5925 H 575.294 -4.17667 2.82081 0
M  V30 5926 H 574.896 -2.44293 2.8319 0
M  V30 5927 H 577.188 -5.28503 4.239 0
M  V30 5928 H 578.131 -4.44582 5.51137 0
M  V30 5929 H 578.539 -4.18382 3.78967 0
M  V30 5930 N 577.937 -1.40673 -0.710563 0
M  V30 5931 C 578.887 -1.37812 -1.81636 0
M  V30 5932 C 579.871 -0.254853 -1.58869 0
M  V30 5933 O 581.063 -0.494356 -1.69956 0
M  V30 5934 C 578.192 -1.24802 -3.19811 0
M  V30 5935 C 577.278 -2.41931 -3.48325 0
M  V30 5936 N 577.669 -3.67411 -3.47625 0
M  V30 5937 C 575.967 -2.35419 -3.78806 0
M  V30 5938 C 576.668 -4.45008 -3.74623 0
M  V30 5939 N 575.644 -3.74916 -3.93623 0
M  V30 5940 H 579.446 -2.32766 -1.79436 0
M  V30 5941 H 576.96 -1.34516 -0.909909 0
M  V30 5942 H 578.957 -1.20835 -3.99004 0
M  V30 5943 H 577.617 -0.308202 -3.23234 0
M  V30 5944 H 578.628 -4.00503 -3.28356 0
M  V30 5945 H 575.305 -1.4983 -3.89689 0
M  V30 5946 H 576.695 -5.53884 -3.80344 0
M  V30 5947 N 579.415 0.9433 -1.26252 0
M  V30 5948 C 580.831 1.21644 -1.03319 0
M  V30 5949 C 581.031 2.0003 0.242983 0
M  V30 5950 O 580.087 2.33838 0.952688 0
M  V30 5951 C 581.4 1.97978 -2.2633 0
M  V30 5952 C 582.948 2.10978 -2.31209 0
M  V30 5953 C 583.423 2.90713 -3.53907 0
M  V30 5954 N 584.914 2.98287 -3.54371 0
M  V30 5955 C 585.649 3.60406 -4.45976 0
M  V30 5956 N 585.145 4.24043 -5.47868 0
M  V30 5957 N 586.938 3.57658 -4.33633 0
M  V30 5958 H 579.089 0.419221 -2.08222 0
M  V30 5959 H 581.352 0.247995 -0.914988 0
M  V30 5960 H 581.058 1.47788 -3.19142 0
M  V30 5961 H 580.932 2.9865 -2.30408 0
M  V30 5962 H 583.319 2.6036 -1.38913 0
M  V30 5963 H 583.4 1.09575 -2.31143 0
M  V30 5964 H 583.044 2.42018 -4.46531 0
M  V30 5965 H 582.974 3.92367 -3.5122 0
M  V30 5966 H 585.465 2.53044 -2.80673 0
M  V30 5967 H 585.778 4.69334 -6.13959 0
M  V30 5968 H 584.123 4.22637 -5.51728 0
M  V30 5969 H 587.314 3.07134 -3.53251 0
M  V30 5970 H 587.487 4.05782 -5.05218 0
M  V30 5971 N 580.893 1.08022 1.14757 0
M  V30 5972 C 582.141 0.805913 1.85336 0
M  V30 5973 C 582.462 -0.670162 1.83122 0
M  V30 5974 O 581.732 -1.48567 1.2769 0
M  V30 5975 H 580.312 0.295138 0.686223 0
M  V30 5976 H 582.974 1.36538 1.3908 0
M  V30 5977 H 582.07 1.14655 2.90277 0
M  V30 5978 N 582.371 -1.3172 0.865308 0
M  V30 5979 C 583.617 -1.97168 0.474633 0
M  V30 5980 C 583.95 -1.68263 -0.969604 0
M  V30 5981 O 583.225 -0.976588 -1.68205 0
M  V30 5982 C 583.508 -3.52689 0.726808 0
M  V30 5983 C 583.361 -3.91185 2.22024 0
M  V30 5984 C 584.68 -4.39689 0.190201 0
M  V30 5985 H 581.799 -0.716185 0.17392 0
M  V30 5986 H 584.441 -1.55925 1.08569 0
M  V30 5987 H 582.591 -3.8795 0.206705 0
M  V30 5988 H 584.263 -3.66049 2.80724 0
M  V30 5989 H 582.506 -3.3996 2.69462 0
M  V30 5990 H 583.177 -4.99604 2.34735 0
M  V30 5991 H 585.653 -4.11225 0.635103 0
M  V30 5992 H 584.529 -5.47469 0.396132 0
M  V30 5993 H 584.79 -4.32683 -0.907625 0
M  V30 5994 N 583.85 -0.624285 -1.44708 0
M  V30 5995 C 585.26 -0.2092 -1.85524 0
M  V30 5996 C 585.611 1.23783 -1.52225 0
M  V30 5997 O 584.736 1.94089 -0.956986 0
M  V30 5998 C 585.332 -0.372897 -3.36742 0
M  V30 5999 C 583.891 -0.012374 -3.76398 0
M  V30 6000 C 583.038 -0.68951 -2.68591 0
M  V30 6001 H 585.989 -0.829894 -1.35272 0
M  V30 6002 H 586.01 0.390134 -3.78495 0
M  V30 6003 H 585.522 -1.42615 -3.60947 0
M  V30 6004 H 583.623 1.03941 -3.57809 0
M  V30 6005 H 583.736 -0.417663 -4.77276 0
M  V30 6006 H 582.1 -0.125484 -2.54391 0
M  V30 6007 H 582.883 -1.74522 -2.9563 0
M  V30 6008 N 585.328 1.53329 -0.364422 0
M  V30 6009 C 586.558 2.05359 0.226096 0
M  V30 6010 C 586.966 1.23777 1.43094 0
M  V30 6011 O 586.309 0.271139 1.81688 0
M  V30 6012 C 586.371 3.52918 0.684794 0
M  V30 6013 C 586.035 4.55218 -0.403206 0
M  V30 6014 C 587.032 5.04583 -1.2527 0
M  V30 6015 C 584.717 4.99134 -0.563117 0
M  V30 6016 C 586.711 5.96463 -2.24745 0
M  V30 6017 C 584.398 5.9082 -1.56124 0
M  V30 6018 C 585.396 6.39375 -2.40184 0
M  V30 6019 O 585.084 7.29255 -3.38293 0
M  V30 6020 H 584.816 0.674588 0.0436772 0
M  V30 6021 H 587.37 1.98688 -0.520782 0
M  V30 6022 H 585.6 3.57122 1.48326 0
M  V30 6023 H 587.289 3.87812 1.19818 0
M  V30 6024 H 588.055 4.71403 -1.14034 0
M  V30 6025 H 583.934 4.60928 0.0813909 0
M  V30 6026 H 587.478 6.34285 -2.90393 0
M  V30 6027 H 583.375 6.23414 -1.67407 0
M  V30 6028 H 584.143 7.47249 -3.34009 0
M  V30 6029 N 586.806 0.0935595 1.57322 0
M  V30 6030 C 588.053 -0.570509 1.94297 0
M  V30 6031 C 588.381 -1.68286 0.97519 0
M  V30 6032 O 587.636 -1.95699 -0.00548655 0
M  V30 6033 C 587.935 -1.16692 3.37813 0
M  V30 6034 C 587.601 -0.178509 4.50547 0
M  V30 6035 C 586.263 0.0933475 4.81109 0
M  V30 6036 C 588.615 0.496472 5.1883 0
M  V30 6037 C 585.943 1.0469 5.77284 0
M  V30 6038 C 588.295 1.43849 6.16028 0
M  V30 6039 C 586.959 1.71859 6.44997 0
M  V30 6040 H 586.229 -0.208764 0.710984 0
M  V30 6041 H 588.876 0.169066 1.90752 0
M  V30 6042 H 587.181 -1.98271 3.37929 0
M  V30 6043 H 588.878 -1.6884 3.63722 0
M  V30 6044 H 585.468 -0.400584 4.26724 0
M  V30 6045 H 589.652 0.299584 4.95395 0
M  V30 6046 H 584.908 1.27094 5.98044 0
M  V30 6047 H 589.082 1.96734 6.68034 0
M  V30 6048 H 586.709 2.45906 7.19329 0
M  V30 6049 N 588.284 -1.56567 -0.180126 0
M  V30 6050 C 589.695 -1.7126 -0.743422 0
M  V30 6051 C 590.046 -0.70263 -1.83187 0
M  V30 6052 O 589.171 0.137856 -2.1596 0
M  V30 6053 C 589.766 -3.10512 -1.35528 0
M  V30 6054 C 588.325 -3.26919 -1.8655 0
M  V30 6055 C 587.472 -2.67213 -0.741099 0
M  V30 6056 H 590.423 -1.58636 0.0451543 0
M  V30 6057 H 590.444 -3.08673 -2.22489 0
M  V30 6058 H 589.956 -3.83997 -0.562862 0
M  V30 6059 H 588.057 -2.58376 -2.68464 0
M  V30 6060 H 588.17 -4.34574 -2.01699 0
M  V30 6061 H 586.534 -2.26788 -1.15927 0
M  V30 6062 H 587.317 -3.43277 0.0393291 0
M  V30 6063 N 589.762 0.448376 -1.51087 0
M  V30 6064 C 590.71 1.56407 -1.72161 0
M  V30 6065 C 591.704 1.58878 -0.587721 0
M  V30 6066 O 592.91 1.62755 -0.768822 0
M  V30 6067 H 589.285 0.519423 -0.543786 0
M  V30 6068 H 591.256 1.35803 -2.65707 0
M  V30 6069 C 590.005 2.94163 -1.85373 0
M  V30 6070 H 589.328 2.9299 -2.72024 0
M  V30 6071 H 590.768 3.71625 -2.04135 0
M  V30 6072 C 589.227 3.31317 -0.610803 0
M  V30 6073 O 589.757 4.00985 0.239636 0
M  V30 6074 N 587.963 2.86966 -0.458127 0
M  V30 6075 H 587.51 2.30443 -1.15124 0
M  V30 6076 H 587.468 3.12188 0.372289 0
M  V30 6077 N 591.24 1.41047 0.703093 0
M  V30 6078 C 592.17 1.45067 1.82969 0
M  V30 6079 C 593.151 0.31016 1.67248 0
M  V30 6080 O 594.336 0.520548 1.87093 0
M  V30 6081 C 591.466 1.32478 3.2104 0
M  V30 6082 C 590.42 2.44262 3.51454 0
M  V30 6083 C 589.746 2.16742 4.88801 0
M  V30 6084 C 591.046 3.86606 3.51189 0
M  V30 6085 H 592.74 2.39353 1.79863 0
M  V30 6086 H 590.286 1.15206 0.863919 0
M  V30 6087 H 592.239 1.33904 3.99559 0
M  V30 6088 H 590.963 0.346735 3.24754 0
M  V30 6089 H 589.622 2.42107 2.75282 0
M  V30 6090 H 589.27 1.17299 4.89132 0
M  V30 6091 H 588.97 2.91643 5.10116 0
M  V30 6092 H 590.494 2.19872 5.69639 0
M  V30 6093 H 591.908 3.90517 4.19725 0
M  V30 6094 H 590.305 4.61128 3.84033 0
M  V30 6095 H 591.375 4.15296 2.50315 0
M  V30 6096 N 592.718 -0.936591 1.26751 0
M  V30 6097 C 593.964 -1.6858 1.12733 0
M  V30 6098 C 594.297 -1.91414 -0.327745 0
M  V30 6099 O 593.572 -1.49812 -1.24043 0
M  V30 6100 C 593.855 -3.05779 1.90187 0
M  V30 6101 C 593.708 -2.90242 3.43627 0
M  V30 6102 C 595.027 -4.0597 1.69931 0
M  V30 6103 H 592.146 -0.61182 0.410908 0
M  V30 6104 H 594.788 -1.08747 1.55801 0
M  V30 6105 H 592.938 -3.56853 1.53584 0
M  V30 6106 H 594.61 -2.46354 3.9001 0
M  V30 6107 H 592.853 -2.2577 3.70419 0
M  V30 6108 H 593.524 -3.87572 3.93055 0
M  V30 6109 H 596 -3.63874 2.0183 0
M  V30 6110 H 594.876 -4.99974 2.26534 0
M  V30 6111 H 595.137 -4.37369 0.64502 0
M  V30 6112 N 594.196 -1.08629 -1.14182 0
M  V30 6113 C 595.129 -0.662329 -2.18377 0
M  V30 6114 C 596.107 0.327054 -1.59277 0
M  V30 6115 O 597.291 0.230376 -1.87087 0
M  V30 6116 C 594.418 0.0254765 -3.3869 0
M  V30 6117 C 593.464 -0.924414 -4.16361 0
M  V30 6118 S 594.297 -2.43226 -4.77076 0
M  V30 6119 C 595.453 -1.75663 -6.00744 0
M  V30 6120 H 595.686 -1.54501 -2.54001 0
M  V30 6121 H 593.219 -0.901484 -1.2535 0
M  V30 6122 H 595.177 0.416032 -4.08386 0
M  V30 6123 H 593.838 0.884689 -3.01384 0
M  V30 6124 H 593.031 -0.390099 -5.02488 0
M  V30 6125 H 592.633 -1.25598 -3.5228 0
M  V30 6126 H 594.925 -1.07589 -6.68903 0
M  V30 6127 H 595.868 -2.59673 -6.58768 0
M  V30 6128 H 596.276 -1.22903 -5.50958 0
M  V30 6129 N 595.674 1.31259 -0.872281 0
M  V30 6130 C 597.085 1.78822 -0.536617 0
M  V30 6131 C 597.436 1.71855 0.946594 0
M  V30 6132 O 596.561 1.28769 1.73918 0
M  V30 6133 C 597.156 3.24698 -0.967294 0
M  V30 6134 C 595.715 3.70147 -0.683251 0
M  V30 6135 C 594.862 2.51994 -1.15733 0
M  V30 6136 H 597.813 1.18308 -1.05777 0
M  V30 6137 H 597.834 3.79386 -0.290929 0
M  V30 6138 H 597.346 3.29737 -2.04683 0
M  V30 6139 H 595.447 3.70607 0.384825 0
M  V30 6140 H 595.56 4.62183 -1.2619 0
M  V30 6141 H 593.924 2.48078 -0.577024 0
M  V30 6142 H 594.707 2.59778 -2.24434 0
M  V30 6143 N 597.152 0.631951 1.44375 0
M  V30 6144 C 598.401 0.134214 2.01253 0
M  V30 6145 C 598.714 -1.25171 1.50305 0
M  V30 6146 O 599.92 -1.8435 1.99317 0
M  V30 6147 C 598.376 0.189187 3.59402 0
M  V30 6148 C 597.984 1.57647 4.19346 0
M  V30 6149 C 599.728 -0.252044 4.23751 0
M  V30 6150 C 597.635 1.58651 5.69722 0
M  V30 6151 H 596.565 0.0464101 0.75257 0
M  V30 6152 H 599.216 0.790868 1.65582 0
M  V30 6153 H 597.598 -0.534584 3.92375 0
M  V30 6154 H 598.772 2.32389 3.97909 0
M  V30 6155 H 597.087 1.96186 3.67288 0
M  V30 6156 H 599.684 -0.264084 5.34047 0
M  V30 6157 H 600.027 -1.27951 3.96149 0
M  V30 6158 H 600.56 0.41926 3.95584 0
M  V30 6159 H 597.299 2.59237 6.0206 0
M  V30 6160 H 596.819 0.882039 5.93279 0
M  V30 6161 H 598.498 1.32082 6.33375 0
M  V30 6162 N 598.631 -1.53133 0.372548 0
M  V30 6163 C 599.877 -2.01654 -0.215277 0
M  V30 6164 C 600.21 -1.25914 -1.47849 0
M  V30 6165 O 599.485 -0.3548 -1.91237 0
M  V30 6166 C 599.768 -3.56609 -0.500187 0
M  V30 6167 C 599.621 -4.43036 0.777145 0
M  V30 6168 C 600.94 -4.20528 -1.29786 0
M  V30 6169 H 598.059 -0.732991 -0.0767686 0
M  V30 6170 H 600.701 -1.83335 0.498814 0
M  V30 6171 H 598.851 -3.7235 -1.10852 0
M  V30 6172 H 600.523 -4.39079 1.41447 0
M  V30 6173 H 598.766 -4.10723 1.39604 0
M  V30 6174 H 599.437 -5.49424 0.532662 0
M  V30 6175 H 601.913 -4.08663 -0.783198 0
M  V30 6176 H 600.789 -5.28962 -1.46596 0
M  V30 6177 H 601.05 -3.77051 -2.30836 0
M  V30 6178 N 600.109 -0.101901 -1.5727 0
M  V30 6179 C 601.355 0.561027 -1.94885 0
M  V30 6180 C 601.688 1.6741 -0.984258 0
M  V30 6181 O 600.963 1.94491 -0.0184767 0
M  V30 6182 C 601.246 1.10982 -3.42571 0
M  V30 6183 C 601.099 0.00133418 -4.498 0
M  V30 6184 C 602.418 2.00608 -3.9172 0
M  V30 6185 H 599.537 0.202467 -0.708644 0
M  V30 6186 H 602.179 -0.173992 -1.89202 0
M  V30 6187 H 600.329 1.73621 -3.47546 0
M  V30 6188 H 602.001 -0.63322 -4.56933 0
M  V30 6189 H 600.244 -0.664143 -4.28686 0
M  V30 6190 H 600.915 0.426253 -5.50352 0
M  V30 6191 H 603.391 1.47864 -3.88941 0
M  V30 6192 H 602.267 2.3593 -4.95609 0
M  V30 6193 H 602.528 2.92608 -3.3141 0
M  V30 6194 N 601.587 1.56661 0.17182 0
M  V30 6195 C 602.835 1.81606 0.886774 0
M  V30 6196 C 603.156 0.678818 1.82803 0
M  V30 6197 O 602.426 -0.301354 1.93568 0
M  V30 6198 H 601.006 0.669934 0.330451 0
M  V30 6199 H 603.668 1.94142 0.171757 0
M  V30 6200 H 602.764 2.75634 1.46398 0
M  V30 6201 N 603.065 -0.440357 1.51323 0
M  V30 6202 C 604.313 -1.18769 1.63518 0
M  V30 6203 C 604.634 -1.91793 0.352201 0
M  V30 6204 O 603.904 -1.85432 -0.631811 0
M  V30 6205 H 602.484 -0.441408 0.602634 0
M  V30 6206 H 605.146 -0.505162 1.8824 0
M  V30 6207 H 604.242 -1.91892 2.46138 0
M  V30 6208 N 604.543 -1.41418 -0.695603 0
M  V30 6209 C 605.792 -1.40073 -1.4513 0
M  V30 6210 C 606.105 -0.0130439 -1.95596 0
M  V30 6211 O 607.311 0.123032 -2.71221 0
M  V30 6212 C 605.767 -2.46286 -2.62433 0
M  V30 6213 C 605.375 -3.90962 -2.18753 0
M  V30 6214 C 607.119 -2.54077 -3.40066 0
M  V30 6215 C 605.026 -4.88728 -3.33015 0
M  V30 6216 H 603.956 -0.520903 -0.545138 0
M  V30 6217 H 606.607 -1.67242 -0.75515 0
M  V30 6218 H 604.989 -2.12248 -3.34315 0
M  V30 6219 H 606.163 -4.34248 -1.54161 0
M  V30 6220 H 604.478 -3.86831 -1.54114 0
M  V30 6221 H 607.075 -3.24303 -4.25125 0
M  V30 6222 H 607.418 -1.5776 -3.8525 0
M  V30 6223 H 607.951 -2.87206 -2.75241 0
M  V30 6224 H 604.69 -5.86449 -2.92844 0
M  V30 6225 H 604.21 -4.50091 -3.96457 0
M  V30 6226 H 605.889 -5.09483 -3.98793 0
M  V30 6227 N 606.021 0.929856 -1.27246 0
M  V30 6228 C 607.269 1.674 -1.13233 0
M  V30 6229 C 607.59 1.92311 0.322744 0
M  V30 6230 O 606.86 1.52784 1.22612 0
M  V30 6231 H 605.44 0.620411 -0.416052 0
M  V30 6232 H 608.102 1.11663 -1.59741 0
M  V30 6233 H 607.198 2.64308 -1.65975 0
M  V30 6234 N 607.499 1.09233 1.13605 0
M  V30 6235 C 608.748 0.82205 1.84188 0
M  V30 6236 C 609.061 -0.654548 1.84323 0
M  V30 6237 O 610.267 -1.04029 2.50779 0
M  V30 6238 C 608.723 1.42066 3.30674 0
M  V30 6239 C 608.331 2.92965 3.38933 0
M  V30 6240 C 610.075 1.22924 4.06313 0
M  V30 6241 C 607.982 3.45922 4.79679 0
M  V30 6242 H 606.912 0.303854 0.690064 0
M  V30 6243 H 609.563 1.31479 1.28006 0
M  V30 6244 H 607.945 0.855613 3.86646 0
M  V30 6245 H 609.119 3.55679 2.92966 0
M  V30 6246 H 607.434 3.11118 2.76757 0
M  V30 6247 H 610.031 1.59945 5.10217 0
M  V30 6248 H 610.374 0.169726 4.15954 0
M  V30 6249 H 610.907 1.76168 3.56665 0
M  V30 6250 H 607.646 4.51484 4.75229 0
M  V30 6251 H 607.166 2.87971 5.26149 0
M  V30 6252 H 608.845 3.43009 5.48592 0
M  V30 6253 N 608.977 -1.30795 0.87923 0
M  V30 6254 C 610.225 -1.95974 0.493809 0
M  V30 6255 C 610.546 -1.69787 -0.959021 0
M  V30 6256 O 609.816 -1.01832 -1.67353 0
M  V30 6257 H 608.396 -0.725083 0.179622 0
M  V30 6258 H 611.058 -1.59432 1.12105 0
M  V30 6259 H 610.154 -3.05058 0.659263 0
M  V30 6260 N 610.455 -0.639598 -1.44038 0
M  V30 6261 C 611.388 0.109736 -2.27936 0
M  V30 6262 C 612.366 0.843095 -1.39035 0
M  V30 6263 O 613.55 0.845456 -1.68476 0
M  V30 6264 C 610.677 1.16173 -3.18153 0
M  V30 6265 C 609.723 0.527954 -4.2322 0
M  V30 6266 S 610.556 -0.688318 -5.31058 0
M  V30 6267 C 611.712 0.363481 -6.24844 0
M  V30 6268 H 611.945 -0.601986 -2.91142 0
M  V30 6269 H 609.478 -0.42802 -1.48349 0
M  V30 6270 H 611.436 1.76372 -3.7068 0
M  V30 6271 H 610.097 1.84569 -2.54151 0
M  V30 6272 H 609.29 1.32054 -4.86393 0
M  V30 6273 H 608.892 0.000396444 -3.74 0
M  V30 6274 H 611.184 1.23362 -6.66174 0
M  V30 6275 H 612.127 -0.23288 -7.07717 0
M  V30 6276 H 612.535 0.693179 -5.60228 0
M  V30 6277 N 611.933 1.52934 -0.380664 0
M  V30 6278 C 612.896 2.24809 0.446473 0
M  V30 6279 C 613.896 1.26133 0.997347 0
M  V30 6280 O 615.086 1.50297 0.880714 0
M  V30 6281 C 612.218 2.99649 1.62553 0
M  V30 6282 H 613.411 2.99343 -0.182677 0
M  V30 6283 H 610.964 1.55736 -0.132618 0
M  V30 6284 H 611.699 2.29395 2.29235 0
M  V30 6285 H 611.484 3.72066 1.23732 0
M  V30 6286 H 612.974 3.54246 2.21133 0
M  V30 6287 N 613.412 0.11024 1.57214 0
M  V30 6288 C 614.658 -0.550684 1.9518 0
M  V30 6289 C 614.991 -1.66885 0.993122 0
M  V30 6290 O 614.266 -1.94479 0.0287907 0
M  V30 6291 C 614.549 -1.09163 3.43155 0
M  V30 6292 C 614.402 0.0225198 4.49794 0
M  V30 6293 C 615.721 -1.98527 3.92778 0
M  V30 6294 H 612.84 -0.198706 0.709708 0
M  V30 6295 H 615.482 0.184024 1.89107 0
M  V30 6296 H 613.632 -1.71775 3.48462 0
M  V30 6297 H 615.304 0.657443 4.56591 0
M  V30 6298 H 613.547 0.686868 4.28328 0
M  V30 6299 H 614.218 -0.39706 5.5057 0
M  V30 6300 H 616.694 -1.458 3.8972 0
M  V30 6301 H 615.57 -2.33298 4.96853 0
M  V30 6302 H 615.831 -2.90846 3.32958 0
M  V30 6303 N 614.89 -1.56749 -0.16351 0
M  V30 6304 C 616.136 -1.82704 -0.880168 0
M  V30 6305 C 616.469 -0.689311 -1.81555 0
M  V30 6306 O 615.744 0.308224 -1.92042 0
M  V30 6307 C 616.027 -3.19084 -1.66905 0
M  V30 6308 C 615.88 -4.43397 -0.756269 0
M  V30 6309 C 617.199 -3.52493 -2.63509 0
M  V30 6310 H 614.318 -0.664608 -0.318535 0
M  V30 6311 H 616.96 -1.89438 -0.146036 0
M  V30 6312 H 615.11 -3.13475 -2.2949 0
M  V30 6313 H 616.782 -4.61079 -0.14269 0
M  V30 6314 H 615.025 -4.33752 -0.0647944 0
M  V30 6315 H 615.696 -5.3539 -1.34393 0
M  V30 6316 H 618.172 -3.58606 -2.11047 0
M  V30 6317 H 617.048 -4.48979 -3.15767 0
M  V30 6318 H 617.309 -2.77597 -3.44082 0
M  V30 6319 N 616.368 0.432326 -1.51554 0
M  V30 6320 C 617.779 1.01202 -1.56892 0
M  V30 6321 C 618.13 1.92175 -0.395394 0
M  V30 6322 O 617.255 2.10844 0.487198 0
M  V30 6323 C 617.85 1.84217 -2.8434 0
M  V30 6324 C 616.409 2.37228 -2.92233 0
M  V30 6325 C 615.556 1.16576 -2.51606 0
M  V30 6326 H 618.507 0.213407 -1.57259 0
M  V30 6327 H 618.528 2.69721 -2.68385 0
M  V30 6328 H 618.04 1.17979 -3.69733 0
M  V30 6329 H 616.141 3.06905 -2.11282 0
M  V30 6330 H 616.254 2.69682 -3.95991 0
M  V30 6331 H 614.618 1.51263 -2.04919 0
M  V30 6332 H 615.401 0.519404 -3.39348 0
M  V30 6333 N 617.846 1.41785 0.688094 0
M  V30 6334 C 618.776 1.47 1.8142 0
M  V30 6335 C 619.757 0.327881 1.6691 0
M  V30 6336 O 620.942 0.540362 1.86531 0
M  V30 6337 C 618.072 1.35876 3.19617 0
M  V30 6338 C 617.026 2.47976 3.48844 0
M  V30 6339 C 616.352 2.21915 4.86475 0
M  V30 6340 C 617.652 3.90309 3.47068 0
M  V30 6341 H 619.346 2.41247 1.77314 0
M  V30 6342 H 616.892 1.16116 0.851651 0
M  V30 6343 H 618.845 1.38134 3.98117 0
M  V30 6344 H 617.569 0.38116 3.24368 0
M  V30 6345 H 616.228 2.45013 2.72698 0
M  V30 6346 H 615.876 1.2248 4.8786 0
M  V30 6347 H 615.576 2.97037 5.06994 0
M  V30 6348 H 617.1 2.25901 5.67275 0
M  V30 6349 H 618.514 3.94947 4.1556 0
M  V30 6350 H 616.911 4.65175 3.7912 0
M  V30 6351 H 617.981 4.17927 2.45896 0
M  V30 6352 N 619.324 -0.923095 1.27737 0
M  V30 6353 C 620.552 -1.70525 1.17171 0
M  V30 6354 C 620.967 -1.86847 -0.270881 0
M  V30 6355 O 620.324 -1.38879 -1.18401 0
M  V30 6356 C 620.375 -3.10242 1.85559 0
M  V30 6357 O 620.096 -2.94683 3.24182 0
M  V30 6358 C 621.597 -4.04586 1.81176 0
M  V30 6359 H 618.817 -0.533347 0.407163 0
M  V30 6360 H 621.361 -1.15599 1.68692 0
M  V30 6361 H 619.516 -3.62014 1.3793 0
M  V30 6362 H 619.93 -3.83045 3.58297 0
M  V30 6363 H 621.404 -5.00119 2.33633 0
M  V30 6364 H 621.881 -4.3218 0.782099 0
M  V30 6365 H 622.487 -3.58741 2.2844 0
M  V30 6366 N 620.802 -1.09834 -1.13024 0
M  V30 6367 C 621.732 -0.763451 -2.20666 0
M  V30 6368 C 622.713 0.260778 -1.68089 0
M  V30 6369 O 623.898 0.127915 -1.93778 0
M  V30 6370 C 621.028 -0.187744 -3.46792 0
M  V30 6371 C 619.982 -1.14196 -4.12484 0
M  V30 6372 C 619.308 -0.427755 -5.32986 0
M  V30 6373 C 620.608 -2.48607 -4.59338 0
M  V30 6374 H 622.302 -1.66347 -2.48936 0
M  V30 6375 H 619.848 -0.801261 -1.19649 0
M  V30 6376 H 621.801 0.0586375 -4.21359 0
M  V30 6377 H 620.525 0.747485 -3.17931 0
M  V30 6378 H 619.184 -1.37369 -3.3989 0
M  V30 6379 H 618.832 0.511747 -5.0039 0
M  V30 6380 H 618.532 -1.06403 -5.77886 0
M  V30 6381 H 620.056 -0.189772 -6.10305 0
M  V30 6382 H 621.47 -2.29618 -5.25308 0
M  V30 6383 H 619.867 -3.08062 -5.14993 0
M  V30 6384 H 620.937 -3.09062 -3.73642 0
M  V30 6385 N 622.28 1.30327 -0.886154 0
M  V30 6386 C 623.505 2.0079 -0.519425 0
M  V30 6387 C 623.93 1.65979 0.885013 0
M  V30 6388 O 623.288 0.877043 1.58675 0
M  V30 6389 C 623.336 3.53686 -0.702758 0
M  V30 6390 O 622.44 4.11637 0.250828 0
M  V30 6391 H 621.781 0.63171 -0.204544 0
M  V30 6392 H 624.311 1.66145 -1.19402 0
M  V30 6393 H 624.321 4.03531 -0.602207 0
M  V30 6394 H 622.996 3.78361 -1.72673 0
M  V30 6395 H 621.573 3.72755 0.103873 0
M  V30 6396 N 623.758 0.647228 1.43697 0
M  V30 6397 C 624.721 -0.0385101 2.29168 0
M  V30 6398 C 625.721 -0.756487 1.41894 0
M  V30 6399 O 626.911 -0.598641 1.63591 0
M  V30 6400 C 624.043 -1.06524 3.23829 0
M  V30 6401 H 625.236 0.713445 2.9129 0
M  V30 6402 H 622.789 0.408153 1.50877 0
M  V30 6403 H 623.524 -1.84664 2.66589 0
M  V30 6404 H 623.309 -0.554147 3.88164 0
M  V30 6405 H 624.799 -1.54432 3.87996 0
M  V30 6406 N 625.236 -1.5273 0.388769 0
M  V30 6407 C 626.485 -2.00757 -0.194833 0
M  V30 6408 C 626.798 -1.27951 -1.47946 0
M  V30 6409 O 628.004 -1.66686 -2.14308 0
M  V30 6410 C 626.46 -3.57695 -0.397762 0
M  V30 6411 C 626.068 -4.394 0.873583 0
M  V30 6412 C 627.812 -4.14012 -0.937759 0
M  V30 6413 C 625.719 -5.87938 0.638962 0
M  V30 6414 H 624.649 -0.750101 -0.0765845 0
M  V30 6415 H 627.3 -1.76239 0.511086 0
M  V30 6416 H 625.682 -3.7846 -1.16552 0
M  V30 6417 H 626.856 -4.30403 1.64591 0
M  V30 6418 H 625.171 -3.94301 1.33849 0
M  V30 6419 H 627.768 -5.22645 -1.12899 0
M  V30 6420 H 628.111 -3.7007 -1.90666 0
M  V30 6421 H 628.644 -3.97137 -0.229588 0
M  V30 6422 H 625.383 -6.36202 1.57885 0
M  V30 6423 H 624.903 -5.99726 -0.094443 0
M  V30 6424 H 626.582 -6.46423 0.273299 0
M  V30 6425 N 626.714 -0.118576 -1.57153 0
M  V30 6426 C 627.677 0.817464 -2.14127 0
M  V30 6427 C 628.677 1.1949 -1.07604 0
M  V30 6428 O 629.867 1.12048 -1.33382 0
M  V30 6429 C 626.999 2.10541 -2.68115 0
M  V30 6430 H 628.192 0.322339 -2.98163 0
M  V30 6431 H 625.745 0.130655 -1.55753 0
M  V30 6432 H 626.48 2.64485 -1.87665 0
M  V30 6433 H 626.265 1.84425 -3.4602 0
M  V30 6434 H 627.755 2.77453 -3.12105 0
M  V30 6435 N 628.193 1.56834 0.155195 0
M  V30 6436 C 629.441 1.82536 0.867462 0
M  V30 6437 C 629.762 0.698168 1.82073 0
M  V30 6438 O 629.032 -0.280807 1.93877 0
M  V30 6439 H 627.612 0.673401 0.323327 0
M  V30 6440 H 630.274 1.94313 0.151156 0
M  V30 6441 H 629.37 2.77171 1.43466 0
M  V30 6442 N 629.671 -0.424282 1.51781 0
M  V30 6443 C 630.917 -1.17434 1.6534 0
M  V30 6444 C 631.25 -1.90549 0.374806 0
M  V30 6445 O 630.525 -1.84145 -0.626179 0
M  V30 6446 C 630.808 -2.18093 2.86544 0
M  V30 6447 C 630.661 -1.48975 4.24413 0
M  V30 6448 C 631.98 -3.18934 3.03264 0
M  V30 6449 H 629.099 -0.425566 0.601716 0
M  V30 6450 H 631.741 -0.461921 1.84299 0
M  V30 6451 H 629.891 -2.78849 2.7051 0
M  V30 6452 H 631.563 -0.914551 4.52143 0
M  V30 6453 H 629.806 -0.791893 4.26511 0
M  V30 6454 H 630.477 -2.22347 5.05238 0
M  V30 6455 H 632.953 -2.68243 3.18096 0
M  V30 6456 H 631.829 -3.86645 3.89611 0
M  V30 6457 H 632.09 -3.85793 2.15908 0
M  V30 6458 N 631.149 -1.42148 -0.680565 0
M  V30 6459 C 632.397 -1.42029 -1.43779 0
M  V30 6460 C 632.718 -0.0356347 -1.94967 0
M  V30 6461 O 631.988 0.924936 -1.7269 0
M  V30 6462 H 630.568 -0.522835 -0.533529 0
M  V30 6463 H 633.23 -1.7752 -0.804538 0
M  V30 6464 H 632.326 -2.11658 -2.29363 0
M  V30 6465 N 632.627 0.916307 -1.28225 0
M  V30 6466 C 633.874 1.66518 -1.1523 0
M  V30 6467 C 634.202 1.92178 0.299632 0
M  V30 6468 O 633.457 1.51842 1.2346 0
M  V30 6469 C 633.756 3.03125 -1.8934 0
M  V30 6470 C 633.422 2.97135 -3.39148 0
M  V30 6471 C 632.084 2.95208 -3.80007 0
M  V30 6472 C 634.436 2.87574 -4.34685 0
M  V30 6473 C 631.764 2.81518 -5.14747 0
M  V30 6474 C 634.116 2.75424 -5.69495 0
M  V30 6475 C 632.78 2.71854 -6.09632 0
M  V30 6476 H 632.05 0.609334 -0.421655 0
M  V30 6477 H 634.697 1.06776 -1.58969 0
M  V30 6478 H 633.002 3.66639 -1.38143 0
M  V30 6479 H 634.699 3.59968 -1.76704 0
M  V30 6480 H 631.289 2.99428 -3.06661 0
M  V30 6481 H 635.473 2.88152 -4.04082 0
M  V30 6482 H 630.729 2.77148 -5.44976 0
M  V30 6483 H 634.903 2.66993 -6.43185 0
M  V30 6484 H 632.53 2.61003 -7.1399 0
M  V30 6485 N 634.105 1.10431 1.1244 0
M  V30 6486 C 635.382 0.758797 1.80282 0
M  V30 6487 C 635.762 -0.754727 1.97147 0
M  V30 6488 O 635.11 -1.68094 1.54779 0
M  V30 6489 C 635.32 1.50982 3.14651 0
M  V30 6490 C 636.668 1.68232 3.8985 0
M  V30 6491 O 637.692 1.47319 3.24308 0
M  V30 6492 O 636.551 2.02905 5.07437 0
M  V30 6493 H 633.645 0.273756 0.780376 0
M  V30 6494 H 636.191 1.20713 1.19275 0
M  V30 6495 H 634.963 2.53989 2.97666 0
M  V30 6496 H 634.586 1.05435 3.83366 0
M  V30 6497 N 635.583 -1.29855 0.893053 0
M  V30 6498 C 636.515 -2.26911 0.32311 0
M  V30 6499 C 637.528 -1.54039 -0.526858 0
M  V30 6500 O 638.717 -1.75132 -0.345095 0
M  V30 6501 C 635.817 -3.34266 -0.558509 0
M  V30 6502 C 634.99 -4.36601 0.264222 0
M  V30 6503 C 634.049 -5.23326 -0.549171 0
M  V30 6504 O 633.075 -5.69192 0.0309883 0
M  V30 6505 N 634.277 -5.50008 -1.85664 0
M  V30 6506 H 637.042 -2.76455 1.15726 0
M  V30 6507 H 634.603 -1.4312 0.756859 0
M  V30 6508 H 636.595 -3.89211 -1.1089 0
M  V30 6509 H 635.165 -2.8459 -1.29334 0
M  V30 6510 H 634.385 -3.81409 0.996046 0
M  V30 6511 H 635.673 -5.02019 0.827906 0
M  V30 6512 H 635.071 -5.14542 -2.35081 0
M  V30 6513 H 633.628 -6.07796 -2.35431 0
M  V30 6514 N 637.061 -0.65484 -1.43351 0
M  V30 6515 C 638.31 -0.166215 -2.01014 0
M  V30 6516 C 638.623 1.22764 -1.52278 0
M  V30 6517 O 639.829 1.81156 -2.02224 0
M  V30 6518 C 638.285 -0.246341 -3.59056 0
M  V30 6519 C 637.893 -1.64299 -4.16785 0
M  V30 6520 C 639.637 0.184597 -4.24098 0
M  V30 6521 C 637.544 -1.67695 -5.67126 0
M  V30 6522 H 636.474 -0.0583769 -0.751737 0
M  V30 6523 H 639.125 -0.817111 -1.64303 0
M  V30 6524 H 637.507 0.472092 -3.93176 0
M  V30 6525 H 638.681 -2.3869 -3.94162 0
M  V30 6526 H 636.996 -2.02004 -3.6412 0
M  V30 6527 H 639.593 0.179088 -5.344 0
M  V30 6528 H 639.936 1.21632 -3.98135 0
M  V30 6529 H 640.469 -0.482141 -3.94867 0
M  V30 6530 H 637.208 -2.68783 -5.9786 0
M  V30 6531 H 636.728 -0.976313 -5.91801 0
M  V30 6532 H 638.407 -1.42142 -6.31193 0
M  V30 6533 N 638.539 1.52521 -0.396863 0
M  V30 6534 C 639.787 2.01274 0.182536 0
M  V30 6535 C 640.108 1.28485 1.46685 0
M  V30 6536 O 639.378 0.407134 1.91623 0
M  V30 6537 H 637.958 0.743671 0.0704442 0
M  V30 6538 H 640.62 1.87547 -0.530289 0
M  V30 6539 H 639.716 3.09687 0.387385 0
M  V30 6540 N 640.017 0.126909 1.57088 0
M  V30 6541 C 641.428 -0.397201 1.82426 0
M  V30 6542 C 641.779 -1.66084 1.04453 0
M  V30 6543 O 640.904 -2.14534 0.283552 0
M  V30 6544 C 641.499 -0.727411 3.30899 0
M  V30 6545 C 640.058 -1.19612 3.56889 0
M  V30 6546 C 639.205 -0.20885 2.76512 0
M  V30 6547 H 642.156 0.351924 1.54749 0
M  V30 6548 H 642.177 -1.58407 3.45959 0
M  V30 6549 H 641.689 0.19247 3.87622 0
M  V30 6550 H 639.79 -2.13263 3.05532 0
M  V30 6551 H 639.903 -1.13598 4.65438 0
M  V30 6552 H 638.267 -0.697479 2.44964 0
M  V30 6553 H 639.05 0.704267 3.35998 0
M  V30 6554 N 641.495 -1.56914 -0.146875 0
M  V30 6555 C 642.741 -1.83628 -0.860741 0
M  V30 6556 C 643.074 -0.708528 -1.80813 0
M  V30 6557 O 642.349 0.287838 -1.92358 0
M  V30 6558 C 642.632 -3.20836 -1.63511 0
M  V30 6559 C 642.485 -4.44174 -0.709199 0
M  V30 6560 C 643.804 -3.55268 -2.59756 0
M  V30 6561 H 640.923 -0.667949 -0.311468 0
M  V30 6562 H 643.565 -1.89582 -0.125936 0
M  V30 6563 H 641.715 -3.15891 -2.26153 0
M  V30 6564 H 643.387 -4.61205 -0.0937781 0
M  V30 6565 H 641.63 -4.33796 -0.0187856 0
M  V30 6566 H 642.301 -5.36785 -1.28707 0
M  V30 6567 H 644.777 -3.60824 -2.07232 0
M  V30 6568 H 643.653 -4.52303 -3.10987 0
M  V30 6569 H 643.914 -2.81231 -3.41118 0
M  V30 6570 N 642.974 0.416227 -1.52004 0
M  V30 6571 C 644.199 1.19029 -1.69843 0
M  V30 6572 C 644.624 1.83708 -0.404103 0
M  V30 6573 O 643.982 1.69711 0.637787 0
M  V30 6574 C 644.03 2.23439 -2.83032 0
M  V30 6575 O 643.134 3.29419 -2.48106 0
M  V30 6576 H 642.475 0.347785 -0.565634 0
M  V30 6577 H 645.005 0.488871 -1.98674 0
M  V30 6578 H 645.015 2.67884 -3.07737 0
M  V30 6579 H 643.69 1.75745 -3.76944 0
M  V30 6580 H 642.267 2.90303 -2.34048 0
M  V30 6581 N 644.452 1.42507 0.673017 0
M  V30 6582 C 645.415 1.4582 1.76831 0
M  V30 6583 C 646.415 0.345542 1.57043 0
M  V30 6584 O 647.605 0.606447 1.63303 0
M  V30 6585 C 644.737 1.29158 3.15485 0
M  V30 6586 H 645.93 2.43345 1.7528 0
M  V30 6587 H 643.483 1.28981 0.882817 0
M  V30 6588 H 644.218 0.325626 3.22661 0
M  V30 6589 H 644.003 2.09797 3.31252 0
M  V30 6590 H 645.493 1.34363 3.95394 0
M  V30 6591 N 645.93 -0.909495 1.28709 0
M  V30 6592 C 647.179 -1.65365 1.15487 0
M  V30 6593 C 647.492 -1.93364 -0.294941 0
M  V30 6594 O 648.698 -2.65905 -0.548338 0
M  V30 6595 C 647.154 -2.97923 2.01916 0
M  V30 6596 C 646.762 -2.77556 3.51663 0
M  V30 6597 C 648.506 -3.75814 1.97393 0
M  V30 6598 C 646.413 -4.0578 4.30229 0
M  V30 6599 H 645.343 -0.620323 0.42862 0
M  V30 6600 H 647.994 -1.00894 1.53273 0
M  V30 6601 H 646.376 -3.63552 1.5699 0
M  V30 6602 H 647.55 -2.2058 4.04575 0
M  V30 6603 H 645.865 -2.13072 3.57756 0
M  V30 6604 H 648.462 -4.70866 2.53357 0
M  V30 6605 H 648.805 -4.05277 0.951643 0
M  V30 6606 H 649.338 -3.1701 2.40311 0
M  V30 6607 H 646.077 -3.81488 5.33055 0
M  V30 6608 H 645.597 -4.62351 3.82089 0
M  V30 6609 H 647.276 -4.74004 4.40374 0
M  V30 6610 N 647.408 -1.11026 -1.11852 0
M  V30 6611 C 648.371 -0.768006 -2.1595 0
M  V30 6612 C 649.371 0.210538 -1.59416 0
M  V30 6613 O 650.561 -0.0133978 -1.74195 0
M  V30 6614 C 647.693 -0.138678 -3.40618 0
M  V30 6615 H 648.886 -1.69012 -2.4774 0
M  V30 6616 H 646.439 -0.911578 -1.26964 0
M  V30 6617 H 647.174 0.793872 -3.14433 0
M  V30 6618 H 646.959 -0.843012 -3.8293 0
M  V30 6619 H 648.449 0.0848039 -4.17514 0
M  V30 6620 N 648.886 1.2938 -0.899927 0
M  V30 6621 C 649.816 2.30144 -0.39446 0
M  V30 6622 C 650.797 1.61611 0.530639 0
M  V30 6623 O 651.982 1.89119 0.441319 0
M  V30 6624 C 649.112 3.45229 0.37868 0
M  V30 6625 C 648.066 4.25564 -0.456012 0
M  V30 6626 C 647.392 5.32848 0.444637 0
M  V30 6627 C 648.692 4.93651 -1.70605 0
M  V30 6628 H 650.386 2.72673 -1.23653 0
M  V30 6629 H 647.932 1.31086 -0.596034 0
M  V30 6630 H 649.885 4.14797 0.743037 0
M  V30 6631 H 648.609 3.01545 1.25453 0
M  V30 6632 H 647.268 3.57704 -0.802704 0
M  V30 6633 H 646.916 4.85408 1.31863 0
M  V30 6634 H 646.616 5.87497 -0.110154 0
M  V30 6635 H 648.14 6.05268 0.805182 0
M  V30 6636 H 649.554 5.55655 -1.41141 0
M  V30 6637 H 647.951 5.58233 -2.20217 0
M  V30 6638 H 649.021 4.18926 -2.4419 0
M  V30 6639 N 650.364 0.662433 1.43002 0
M  V30 6640 C 651.297 -0.073459 2.28082 0
M  V30 6641 C 652.275 -0.820869 1.40358 0
M  V30 6642 O 653.459 -0.818545 1.698 0
M  V30 6643 C 650.586 -1.11097 3.19961 0
M  V30 6644 C 649.632 -0.460557 4.24006 0
M  V30 6645 S 650.465 0.772717 5.29896 0
M  V30 6646 C 651.621 -0.264028 6.25343 0
M  V30 6647 H 651.854 0.648227 2.90147 0
M  V30 6648 H 649.387 0.451566 1.47649 0
M  V30 6649 H 651.345 -1.70452 3.73439 0
M  V30 6650 H 650.006 -1.80503 2.57056 0
M  V30 6651 H 649.199 -1.24299 4.88432 0
M  V30 6652 H 648.801 0.0591038 3.73953 0
M  V30 6653 H 651.093 -1.12748 6.68052 0
M  V30 6654 H 652.036 0.345443 7.07257 0
M  V30 6655 H 652.444 -0.603964 5.6126 0
M  V30 6656 N 651.842 -1.52309 0.404946 0
M  V30 6657 C 652.772 -2.29805 -0.41376 0
M  V30 6658 C 653.753 -1.3384 -1.0498 0
M  V30 6659 O 654.938 -1.62745 -1.05961 0
M  V30 6660 C 652.068 -3.11639 -1.53292 0
M  V30 6661 C 651.022 -4.15616 -1.02211 0
M  V30 6662 C 650.348 -4.8577 -2.23455 0
M  V30 6663 C 651.648 -5.2224 -0.0790725 0
M  V30 6664 H 653.342 -2.98493 0.232878 0
M  V30 6665 H 650.888 -1.43552 0.113441 0
M  V30 6666 H 652.841 -3.64618 -2.11262 0
M  V30 6667 H 651.565 -2.40712 -2.20738 0
M  V30 6668 H 650.224 -3.63641 -0.46484 0
M  V30 6669 H 649.872 -4.11376 -2.89445 0
M  V30 6670 H 649.572 -5.56058 -1.89929 0
M  V30 6671 H 651.096 -5.4156 -2.82038 0
M  V30 6672 H 652.51 -5.70485 -0.567438 0
M  V30 6673 H 650.907 -5.99867 0.167167 0
M  V30 6674 H 651.977 -4.77078 0.867447 0
M  V30 6675 N 653.32 -0.135238 -1.57019 0
M  V30 6676 C 654.252 0.839675 -2.13265 0
M  V30 6677 C 655.265 1.21887 -1.07923 0
M  V30 6678 O 656.454 1.16499 -1.35241 0
M  V30 6679 C 653.554 2.13647 -2.63075 0
M  V30 6680 C 652.727 1.92646 -3.92691 0
M  V30 6681 C 651.786 3.06205 -4.27931 0
M  V30 6682 O 650.812 2.78409 -4.96465 0
M  V30 6683 N 652.014 4.33072 -3.86561 0
M  V30 6684 H 654.779 0.359026 -2.97542 0
M  V30 6685 H 652.34 0.0486979 -1.61827 0
M  V30 6686 H 654.332 2.88641 -2.8367 0
M  V30 6687 H 652.902 2.5301 -1.83588 0
M  V30 6688 H 652.122 1.01754 -3.80841 0
M  V30 6689 H 653.41 1.75939 -4.77413 0
M  V30 6690 H 652.808 4.58526 -3.31316 0
M  V30 6691 H 651.365 5.04885 -4.12231 0
M  V30 6692 N 654.798 1.5699 0.138552 0
M  V30 6693 C 656.023 1.88344 0.86841 0
M  V30 6694 C 656.448 0.725159 1.7356 0
M  V30 6695 O 655.806 -0.324992 1.78363 0
M  V30 6696 C 655.854 3.18334 1.69398 0
M  V30 6697 O 654.958 3.02863 2.79907 0
M  V30 6698 H 654.299 0.618577 0.241367 0
M  V30 6699 H 656.829 2.04207 0.126826 0
M  V30 6700 H 656.839 3.50567 2.08726 0
M  V30 6701 H 655.514 4.02238 1.05725 0
M  V30 6702 H 654.091 2.82056 2.43924 0
M  V30 6703 N 656.276 -0.40816 1.52223 0
M  V30 6704 C 657.206 -1.5042 1.78595 0
M  V30 6705 C 658.187 -1.57723 0.636974 0
M  V30 6706 O 659.372 -1.72982 0.882664 0
M  V30 6707 C 656.502 -2.88232 1.93751 0
M  V30 6708 C 655.456 -2.95779 3.09352 0
M  V30 6709 C 654.782 -4.35855 3.09732 0
M  V30 6710 C 656.082 -2.67175 4.48793 0
M  V30 6711 H 657.776 -1.28601 2.70374 0
M  V30 6712 H 655.322 -0.617221 1.30101 0
M  V30 6713 H 657.275 -3.64895 2.10783 0
M  V30 6714 H 655.999 -3.11347 0.986443 0
M  V30 6715 H 654.658 -2.21561 2.92072 0
M  V30 6716 H 654.306 -4.55981 2.12346 0
M  V30 6717 H 654.006 -4.41829 3.87377 0
M  V30 6718 H 655.53 -5.14451 3.28895 0
M  V30 6719 H 656.944 -3.3356 4.66273 0
M  V30 6720 H 655.341 -2.84523 5.28362 0
M  V30 6721 H 656.411 -1.62609 4.56822 0
M  V30 6722 N 657.755 -1.42862 -0.66545 0
M  V30 6723 C 659.003 -1.43546 -1.42264 0
M  V30 6724 C 659.324 -0.0563116 -1.94919 0
M  V30 6725 O 658.594 0.906568 -1.73661 0
M  V30 6726 H 657.174 -0.528464 -0.527953 0
M  V30 6727 H 659.836 -1.78363 -0.785665 0
M  V30 6728 H 658.932 -2.14079 -2.27105 0
M  V30 6729 N 659.233 0.902656 -1.29189 0
M  V30 6730 C 660.481 1.6496 -1.16758 0
M  V30 6731 C 660.802 1.92952 0.28188 0
M  V30 6732 O 660.072 1.55351 1.19344 0
M  V30 6733 H 658.652 0.611447 -0.429118 0
M  V30 6734 H 661.314 1.0825 -1.62074 0
M  V30 6735 H 660.41 2.60728 -1.71544 0
M  V30 6736 N 660.711 1.11618 1.11262 0
M  V30 6737 C 662.122 0.881942 1.64556 0
M  V30 6738 C 662.473 -0.585442 1.87262 0
M  V30 6739 O 661.598 -1.44795 1.60821 0
M  V30 6740 C 662.193 1.59446 2.98935 0
M  V30 6741 C 660.752 1.40661 3.4913 0
M  V30 6742 C 659.899 1.63593 2.23903 0
M  V30 6743 H 662.85 1.27217 0.94877 0
M  V30 6744 H 662.871 1.04054 3.65996 0
M  V30 6745 H 662.383 2.66241 2.82378 0
M  V30 6746 H 660.484 0.360835 3.70849 0
M  V30 6747 H 660.597 2.15693 4.27801 0
M  V30 6748 H 658.961 1.05944 2.3162 0
M  V30 6749 H 659.744 2.71666 2.09886 0
M  V30 6750 N 662.189 -1.289 0.906776 0
M  V30 6751 C 663.119 -2.29932 0.406659 0
M  V30 6752 C 664.1 -1.6189 -0.522061 0
M  V30 6753 O 665.285 -1.8935 -0.431283 0
M  V30 6754 C 662.415 -3.45425 -0.360366 0
M  V30 6755 C 661.369 -4.25316 0.478574 0
M  V30 6756 C 660.695 -5.33076 -0.416373 0
M  V30 6757 C 661.995 -4.92739 1.7322 0
M  V30 6758 H 663.689 -2.72013 1.25097 0
M  V30 6759 H 661.235 -1.30768 0.602977 0
M  V30 6760 H 663.188 -4.15186 -0.721029 0
M  V30 6761 H 661.912 -3.02206 -1.23852 0
M  V30 6762 H 660.571 -3.57273 0.821662 0
M  V30 6763 H 660.219 -4.86101 -1.29287 0
M  V30 6764 H 659.919 -5.8743 0.141309 0
M  V30 6765 H 661.443 -6.05686 -0.773072 0
M  V30 6766 H 662.857 -5.54898 1.44086 0
M  V30 6767 H 661.254 -5.57057 2.23175 0
M  V30 6768 H 662.324 -4.17625 2.46408 0
M  V30 6769 N 663.667 -0.670007 -1.42649 0
M  V30 6770 C 664.913 -0.190568 -2.01903 0
M  V30 6771 C 665.246 1.19817 -1.52832 0
M  V30 6772 O 664.521 1.80342 -0.728485 0
M  V30 6773 C 664.804 -0.21991 -3.59428 0
M  V30 6774 C 664.657 -1.64376 -4.18689 0
M  V30 6775 C 665.976 0.434519 -4.3795 0
M  V30 6776 H 663.095 -0.0707219 -0.733599 0
M  V30 6777 H 665.737 -0.853883 -1.69732 0
M  V30 6778 H 663.887 0.344894 -3.86966 0
M  V30 6779 H 665.559 -2.26044 -4.02122 0
M  V30 6780 H 663.802 -2.18591 -3.747 0
M  V30 6781 H 664.473 -1.61601 -5.27815 0
M  V30 6782 H 666.949 -0.0462156 -4.16074 0
M  V30 6783 H 665.825 0.38333 -5.4756 0
M  V30 6784 H 666.086 1.51135 -4.15464 0
M  V30 6785 N 665.145 1.52092 -0.413018 0
M  V30 6786 C 666.075 2.30021 0.401567 0
M  V30 6787 C 667.056 1.34395 1.04269 0
M  V30 6788 O 668.241 1.63304 1.05097 0
M  V30 6789 C 665.371 3.12447 1.51638 0
M  V30 6790 C 664.325 4.16153 1.00005 0
M  V30 6791 C 663.651 4.86948 2.20875 0
M  V30 6792 C 664.951 5.22275 0.0513757 0
M  V30 6793 H 666.645 2.98365 -0.248704 0
M  V30 6794 H 664.191 1.4349 -0.121052 0
M  V30 6795 H 666.144 3.65733 2.09326 0
M  V30 6796 H 664.868 2.41879 2.19458 0
M  V30 6797 H 663.527 3.63882 0.445549 0
M  V30 6798 H 663.175 4.12905 2.8726 0
M  V30 6799 H 662.875 5.57057 1.86978 0
M  V30 6800 H 664.399 5.43048 2.79162 0
M  V30 6801 H 665.813 5.70778 0.537176 0
M  V30 6802 H 664.21 5.9977 -0.198977 0
M  V30 6803 H 665.28 4.76611 -0.892736 0
M  V30 6804 N 666.623 0.143563 1.56945 0
M  V30 6805 C 667.586 -0.783295 2.154 0
M  V30 6806 C 668.586 -1.17763 1.09492 0
M  V30 6807 O 669.776 -1.09912 1.35148 0
M  V30 6808 C 666.908 -2.06248 2.7143 0
M  V30 6809 H 668.101 -0.274863 2.98638 0
M  V30 6810 H 665.654 -0.105859 1.55941 0
M  V30 6811 H 666.389 -2.61466 1.91849 0
M  V30 6812 H 666.174 -1.78897 3.4891 0
M  V30 6813 H 667.664 -2.72453 3.16479 0
M  V30 6814 N 668.101 -1.57061 -0.130224 0
M  V30 6815 C 669.347 -1.8453 -0.841216 0
M  V30 6816 C 669.68 -0.727666 -1.80052 0
M  V30 6817 O 668.955 0.267419 -1.92653 0
M  V30 6818 C 669.238 -3.22553 -1.60099 0
M  V30 6819 C 669.091 -4.44901 -0.662048 0
M  V30 6820 C 670.41 -3.58003 -2.55973 0
M  V30 6821 H 667.529 -0.671215 -0.304366 0
M  V30 6822 H 670.171 -1.89705 -0.105821 0
M  V30 6823 H 668.321 -3.18272 -2.22789 0
M  V30 6824 H 669.993 -4.61278 -0.0448559 0
M  V30 6825 H 668.236 -4.33791 0.0272253 0
M  V30 6826 H 668.907 -5.3812 -1.23006 0
M  V30 6827 H 671.383 -3.63002 -2.03393 0
M  V30 6828 H 670.259 -4.55576 -3.06172 0
M  V30 6829 H 670.52 -2.84833 -3.38116 0
M  V30 6830 N 669.579 0.400081 -1.52437 0
M  V30 6831 C 670.828 1.14332 -1.66166 0
M  V30 6832 C 671.141 1.91419 -0.402253 0
M  V30 6833 O 672.347 2.6824 -0.419487 0
M  V30 6834 C 670.803 2.08137 -2.9361 0
M  V30 6835 C 670.411 1.36524 -4.26691 0
M  V30 6836 C 672.155 2.82664 -3.16703 0
M  V30 6837 C 670.062 2.29031 -5.45251 0
M  V30 6838 H 668.992 0.430499 -0.61902 0
M  V30 6839 H 671.643 0.407017 -1.78929 0
M  V30 6840 H 670.025 2.85358 -2.74567 0
M  V30 6841 H 671.199 0.646061 -4.56249 0
M  V30 6842 H 669.514 0.74002 -4.09771 0
M  V30 6843 H 672.111 3.52037 -4.0246 0
M  V30 6844 H 672.454 3.46122 -2.31312 0
M  V30 6845 H 672.987 2.12541 -3.36261 0
M  V30 6846 H 669.726 1.70206 -6.33017 0
M  V30 6847 H 669.246 2.98896 -5.2002 0
M  V30 6848 H 670.925 2.89359 -5.78689 0
M  V30 6849 N 671.057 1.43213 0.657864 0
M  V30 6850 C 671.989 1.43974 1.78337 0
M  V30 6851 C 673.002 0.336482 1.59285 0
M  V30 6852 O 674.191 0.600631 1.68091 0
M  V30 6853 C 671.291 1.23242 3.15697 0
M  V30 6854 C 670.464 2.46319 3.61449 0
M  V30 6855 C 669.523 2.2088 4.77597 0
M  V30 6856 O 668.549 2.942 4.87273 0
M  V30 6857 N 669.751 1.22251 5.67481 0
M  V30 6858 H 672.516 2.40993 1.78164 0
M  V30 6859 H 670.077 1.3831 0.841549 0
M  V30 6860 H 672.069 1.04113 3.91079 0
M  V30 6861 H 670.639 0.346849 3.1067 0
M  V30 6862 H 669.859 2.80904 2.76563 0
M  V30 6863 H 671.147 3.28239 3.88763 0
M  V30 6864 H 670.545 0.616433 5.62331 0
M  V30 6865 H 669.102 1.09107 6.42603 0
M  V30 6866 N 672.536 -0.895792 1.29666 0
M  V30 6867 C 673.499 -1.98189 1.15124 0
M  V30 6868 C 674.499 -1.60572 0.0855717 0
M  V30 6869 O 675.689 -1.70991 0.332826 0
M  V30 6870 C 672.821 -3.32289 0.761372 0
M  V30 6871 H 674.014 -2.12518 2.11603 0
M  V30 6872 H 671.567 -1.0808 1.12908 0
M  V30 6873 H 672.302 -3.23662 -0.203393 0
M  V30 6874 H 672.087 -3.60958 1.53139 0
M  V30 6875 H 673.577 -4.1198 0.682792 0
M  V30 6876 N 674.014 -1.12206 -1.10668 0
M  V30 6877 C 675.26 -0.877172 -1.82848 0
M  V30 6878 C 675.593 0.595571 -1.84842 0
M  V30 6879 O 674.868 1.44013 -1.30731 0
M  V30 6880 C 675.151 -1.44957 -3.29635 0
M  V30 6881 C 675.004 -2.99051 -3.35989 0
M  V30 6882 C 676.323 -1.10714 -4.25946 0
M  V30 6883 H 673.442 -0.320103 -0.663854 0
M  V30 6884 H 676.084 -1.38827 -1.2972 0
M  V30 6885 H 674.234 -1.01488 -3.7501 0
M  V30 6886 H 675.906 -3.51182 -2.99113 0
M  V30 6887 H 674.149 -3.34705 -2.75962 0
M  V30 6888 H 674.82 -3.34194 -4.39339 0
M  V30 6889 H 677.296 -1.48254 -3.88793 0
M  V30 6890 H 676.172 -1.5343 -5.2702 0
M  V30 6891 H 676.433 -0.019 -4.42096 0
M  V30 6892 N 675.492 1.28418 -0.913599 0
M  V30 6893 C 676.741 1.94265 -0.542572 0
M  V30 6894 C 677.054 1.72709 0.918207 0
M  V30 6895 O 678.26 2.32778 1.39738 0
M  V30 6896 C 676.716 3.47956 -0.919507 0
M  V30 6897 C 676.324 3.78291 -2.4 0
M  V30 6898 C 678.068 4.19962 -0.619057 0
M  V30 6899 C 675.975 5.2529 -2.71707 0
M  V30 6900 H 674.905 0.727213 -0.199192 0
M  V30 6901 H 677.556 1.45931 -1.11249 0
M  V30 6902 H 675.938 3.9502 -0.278372 0
M  V30 6903 H 677.112 3.42035 -3.08786 0
M  V30 6904 H 675.427 3.19456 -2.67089 0
M  V30 6905 H 678.024 5.28178 -0.832623 0
M  V30 6906 H 678.367 4.13935 0.443126 0
M  V30 6907 H 678.9 3.78674 -1.21865 0
M  V30 6908 H 675.639 5.36394 -3.76778 0
M  V30 6909 H 675.159 5.62743 -2.07559 0
M  V30 6910 H 676.838 5.93027 -2.58703 0
M  V30 6911 N 676.97 0.677563 1.42291 0
M  V30 6912 C 678.198 0.209459 2.05837 0
M  V30 6913 C 678.613 -1.13444 1.50917 0
M  V30 6914 O 677.97 -1.70529 0.65008 0
M  V30 6915 C 678.021 0.138819 3.61233 0
M  V30 6916 O 677.742 1.42962 4.14118 0
M  V30 6917 C 679.243 -0.352449 4.41897 0
M  V30 6918 H 676.463 0.101209 0.663323 0
M  V30 6919 H 679.007 0.925077 1.8238 0
M  V30 6920 H 677.162 -0.527505 3.83792 0
M  V30 6921 H 677.576 1.3048 5.08011 0
M  V30 6922 H 679.05 -0.350778 5.50884 0
M  V30 6923 H 679.527 -1.3882 4.16684 0
M  V30 6924 H 680.133 0.282236 4.24362 0
M  V30 6925 N 678.448 -1.51871 0.421078 0
M  V30 6926 C 679.673 -2.0684 -0.152371 0
M  V30 6927 C 680.098 -1.28802 -1.37083 0
M  V30 6928 O 679.456 -0.321482 -1.78427 0
M  V30 6929 C 679.504 -3.57532 -0.469368 0
M  V30 6930 O 678.608 -3.81818 -1.55848 0
M  V30 6931 H 677.949 -0.663939 -0.00898586 0
M  V30 6932 H 680.479 -1.95674 0.597724 0
M  V30 6933 H 680.489 -4.01515 -0.724553 0
M  V30 6934 H 679.164 -4.13761 0.421276 0
M  V30 6935 H 677.741 -3.49709 -1.29453 0
M  V30 6936 N 679.926 -0.151884 -1.56866 0
M  V30 6937 C 681.342 0.204486 -1.58285 0
M  V30 6938 C 681.542 1.6431 -1.16639 0
M  V30 6939 O 680.598 2.37077 -0.868946 0
M  V30 6940 C 681.911 -0.0587019 -3.00643 0
M  V30 6941 C 683.459 0.00462303 -3.13 0
M  V30 6942 C 683.934 -0.231297 -4.57416 0
M  V30 6943 N 685.425 -0.178394 -4.62856 0
M  V30 6944 C 686.16 -0.335379 -5.72418 0
M  V30 6945 N 685.656 -0.550355 -6.90611 0
M  V30 6946 N 687.449 -0.272641 -5.61438 0
M  V30 6947 H 679.6 -1.09116 -1.82229 0
M  V30 6948 H 681.863 -0.432311 -0.843689 0
M  V30 6949 H 681.569 -1.05453 -3.35518 0
M  V30 6950 H 681.443 0.658508 -3.71407 0
M  V30 6951 H 683.83 0.991009 -2.77962 0
M  V30 6952 H 683.911 -0.744992 -2.44711 0
M  V30 6953 H 683.555 -1.2148 -4.93158 0
M  V30 6954 H 683.485 0.5387 -5.23837 0
M  V30 6955 H 685.976 -0.0170923 -3.77896 0
M  V30 6956 H 686.289 -0.660116 -7.69976 0
M  V30 6957 H 684.634 -0.586736 -6.92519 0
M  V30 6958 H 687.825 -0.105421 -4.67981 0
M  V30 6959 H 687.998 -0.398418 -6.46774 0
M  V30 6960 N 681.404 1.57128 0.121893 0
M  V30 6961 C 682.632 1.88883 0.844451 0
M  V30 6962 C 683.047 0.742824 1.73573 0
M  V30 6963 O 682.404 -0.286475 1.80238 0
M  V30 6964 C 682.455 3.20076 1.68029 0
M  V30 6965 O 682.176 4.30264 0.824898 0
M  V30 6966 C 683.677 3.65515 2.50826 0
M  V30 6967 H 680.897 0.62549 0.242907 0
M  V30 6968 H 683.441 2.04219 0.107151 0
M  V30 6969 H 681.596 3.06418 2.37038 0
M  V30 6970 H 682.01 5.05439 1.40113 0
M  V30 6971 H 683.484 4.60081 3.05008 0
M  V30 6972 H 683.961 2.92029 3.28048 0
M  V30 6973 H 684.567 3.81952 1.87064 0
M  V30 6974 N 682.882 -0.391992 1.52647 0
M  V30 6975 C 683.812 -1.48517 1.8018 0
M  V30 6976 C 684.793 -1.57039 0.653667 0
M  V30 6977 O 685.978 -1.72036 0.900962 0
M  V30 6978 C 683.108 -2.86161 1.96797 0
M  V30 6979 C 682.062 -2.92481 3.12472 0
M  V30 6980 C 681.388 -4.32546 3.14338 0
M  V30 6981 C 682.688 -2.624 4.51601 0
M  V30 6982 H 684.382 -1.25726 2.71723 0
M  V30 6983 H 681.928 -0.603387 1.30749 0
M  V30 6984 H 683.881 -3.62639 2.14641 0
M  V30 6985 H 682.605 -3.10283 1.01941 0
M  V30 6986 H 681.264 -2.18451 2.94406 0
M  V30 6987 H 680.912 -4.53703 2.1717 0
M  V30 6988 H 680.612 -4.37695 3.92042 0
M  V30 6989 H 682.136 -5.10934 3.34333 0
M  V30 6990 H 683.55 -3.28596 4.69785 0
M  V30 6991 H 681.947 -2.78903 5.3135 0
M  V30 6992 H 683.017 -1.57754 4.58521 0
M  V30 6993 N 684.36 -1.4356 -0.65026 0
M  V30 6994 C 685.59 -1.48563 -1.4357 0
M  V30 6995 C 685.998 -0.103041 -1.88919 0
M  V30 6996 O 685.341 0.897602 -1.60277 0
M  V30 6997 C 685.403 -2.37181 -2.70158 0
M  V30 6998 C 685.067 -3.84673 -2.4673 0
M  V30 6999 C 686.064 -4.75704 -2.09765 0
M  V30 7000 C 683.749 -4.29189 -2.60963 0
M  V30 7001 C 685.743 -6.09249 -1.87334 0
M  V30 7002 C 683.43 -5.62787 -2.38147 0
M  V30 7003 C 684.428 -6.52634 -2.01389 0
M  V30 7004 O 684.116 -7.83761 -1.78813 0
M  V30 7005 H 683.848 -0.506743 -0.447423 0
M  V30 7006 H 686.402 -1.89001 -0.80423 0
M  V30 7007 H 684.632 -1.91636 -3.35876 0
M  V30 7008 H 686.321 -2.33354 -3.32116 0
M  V30 7009 H 687.087 -4.42589 -1.98343 0
M  V30 7010 H 682.966 -3.59529 -2.88548 0
M  V30 7011 H 686.51 -6.7934 -1.58567 0
M  V30 7012 H 682.407 -5.95469 -2.49173 0
M  V30 7013 H 683.175 -7.95368 -1.93214 0
M  V30 7014 N 685.838 0.888903 -1.30139 0
M  V30 7015 C 686.768 2.01046 -1.18755 0
M  V30 7016 C 687.749 1.69916 -0.0791438 0
M  V30 7017 O 688.934 1.92445 -0.260498 0
M  V30 7018 C 686.064 3.36109 -0.874518 0
M  V30 7019 C 685.018 3.81486 -1.94043 0
M  V30 7020 C 684.344 5.13796 -1.48047 0
M  V30 7021 C 685.644 4.00637 -3.35093 0
M  V30 7022 H 687.338 2.10828 -2.12584 0
M  V30 7023 H 684.884 1.01298 -1.02346 0
M  V30 7024 H 686.837 4.14089 -0.781548 0
M  V30 7025 H 685.561 3.26449 0.0994519 0
M  V30 7026 H 684.22 3.05731 -2.02297 0
M  V30 7027 H 683.868 5.0056 -0.494878 0
M  V30 7028 H 683.568 5.45127 -2.19341 0
M  V30 7029 H 685.092 5.94305 -1.40121 0
M  V30 7030 H 686.506 4.69067 -3.2962 0
M  V30 7031 H 684.903 4.43339 -4.04438 0
M  V30 7032 H 685.973 3.0462 -3.77273 0
M  V30 7033 N 687.317 1.12792 1.10072 0
M  V30 7034 C 688.565 0.883796 1.81751 0
M  V30 7035 C 688.886 -0.591891 1.858 0
M  V30 7036 O 688.156 -1.43017 1.33876 0
M  V30 7037 H 686.736 0.323978 0.673088 0
M  V30 7038 H 689.398 1.42314 1.33164 0
M  V30 7039 H 688.494 1.26863 2.85153 0
M  V30 7040 N 688.795 -1.27931 0.920396 0
M  V30 7041 C 690.043 -1.94304 0.555906 0
M  V30 7042 C 690.364 -1.72753 -0.904519 0
M  V30 7043 O 689.634 -1.07104 -1.64029 0
M  V30 7044 H 688.214 -0.719001 0.202599 0
M  V30 7045 H 690.876 -1.55785 1.1712 0
M  V30 7046 H 689.972 -3.02806 0.755981 0
M  V30 7047 N 690.273 -0.685099 -1.4193 0
M  V30 7048 C 691.501 -0.220372 -2.05723 0
M  V30 7049 C 691.916 1.12642 -1.51516 0
M  V30 7050 O 691.273 1.70182 -0.659114 0
M  V30 7051 C 691.324 -0.157974 -3.61155 0
M  V30 7052 O 691.045 -1.45156 -4.13354 0
M  V30 7053 C 692.546 0.329009 -4.42077 0
M  V30 7054 H 689.766 -0.104725 -0.662777 0
M  V30 7055 H 692.31 -0.934736 -1.81887 0
M  V30 7056 H 690.465 0.507144 -3.84066 0
M  V30 7057 H 690.879 -1.33172 -5.07312 0
M  V30 7058 H 692.353 0.321559 -5.51063 0
M  V30 7059 H 692.83 1.36608 -4.17414 0
M  V30 7060 H 693.436 -0.304737 -4.24207 0
M  V30 7061 N 691.751 1.51645 -0.429126 0
M  V30 7062 C 692.979 2.06433 0.138994 0
M  V30 7063 C 693.394 1.29735 1.37165 0
M  V30 7064 O 692.751 0.354638 1.79021 0
M  V30 7065 C 692.802 3.58439 0.469452 0
M  V30 7066 O 692.523 4.32238 -0.714273 0
M  V30 7067 C 694.024 4.29712 1.08914 0
M  V30 7068 H 691.244 0.6709 0.0115608 0
M  V30 7069 H 693.788 1.9532 -0.605843 0
M  V30 7070 H 691.943 3.69494 1.16419 0
M  V30 7071 H 692.357 5.22704 -0.433633 0
M  V30 7072 H 693.831 5.37182 1.27042 0
M  V30 7073 H 694.308 3.87473 2.06788 0
M  V30 7074 H 694.914 4.2308 0.434028 0
M  V30 7075 N 693.229 0.160201 1.56784 0
M  V30 7076 C 694.477 -0.486625 1.96154 0
M  V30 7077 C 694.798 -1.64525 1.04673 0
M  V30 7078 O 694.068 -1.95586 0.110864 0
M  V30 7079 H 692.648 -0.182764 0.724297 0
M  V30 7080 H 695.31 0.238787 1.93432 0
M  V30 7081 H 694.406 -0.854025 3.00188 0
M  V30 7082 N 694.707 -1.5719 -0.113559 0
M  V30 7083 C 696.118 -1.74259 -0.670116 0
M  V30 7084 C 696.469 -0.779694 -1.80042 0
M  V30 7085 O 695.594 0.0461353 -2.16351 0
M  V30 7086 C 696.189 -3.15981 -1.22236 0
M  V30 7087 C 694.748 -3.34537 -1.72516 0
M  V30 7088 C 693.895 -2.70116 -0.627098 0
M  V30 7089 H 696.846 -1.58301 0.112396 0
M  V30 7090 H 696.867 -3.17832 -2.09197 0
M  V30 7091 H 696.379 -3.86038 -0.39949 0
M  V30 7092 H 694.48 -2.6953 -2.57263 0
M  V30 7093 H 694.593 -4.42737 -1.83086 0
M  V30 7094 H 692.957 -2.31501 -1.06204 0
M  V30 7095 H 693.74 -3.42802 0.184889 0
M  V30 7096 N 696.185 0.383891 -1.52853 0
M  V30 7097 C 697.431 1.13009 -1.68395 0
M  V30 7098 C 697.764 1.89488 -0.425195 0
M  V30 7099 O 697.039 1.8574 0.577136 0
M  V30 7100 C 697.322 2.10419 -2.92226 0
M  V30 7101 C 697.175 1.3767 -4.28214 0
M  V30 7102 C 698.494 3.10781 -3.11614 0
M  V30 7103 H 695.613 0.409463 -0.612788 0
M  V30 7104 H 698.255 0.412895 -1.85459 0
M  V30 7105 H 696.405 2.71579 -2.77808 0
M  V30 7106 H 698.077 0.794352 -4.54409 0
M  V30 7107 H 696.32 0.678533 -4.2846 0
M  V30 7108 H 696.991 2.08874 -5.10956 0
M  V30 7109 H 699.467 2.59715 -3.25096 0
M  V30 7110 H 698.343 3.76179 -3.99725 0
M  V30 7111 H 698.604 3.79933 -2.2606 0
M  V30 7112 N 697.663 1.43903 0.642637 0
M  V30 7113 C 698.61 1.49881 1.75512 0
M  V30 7114 C 699.58 0.347538 1.62423 0
M  V30 7115 O 700.765 0.556177 1.82514 0
M  V30 7116 C 697.905 1.43797 3.13714 0
M  V30 7117 C 697.018 2.6921 3.37861 0
M  V30 7118 C 696.153 2.5504 4.6597 0
M  V30 7119 C 695.192 3.75671 4.83257 0
M  V30 7120 N 694.329 3.60247 6.02633 0
M  V30 7121 H 699.169 2.44935 1.69737 0
M  V30 7122 H 696.706 1.21572 0.828165 0
M  V30 7123 H 698.664 1.38262 3.93624 0
M  V30 7124 H 697.294 0.523173 3.18532 0
M  V30 7125 H 696.346 2.8498 2.51973 0
M  V30 7126 H 697.658 3.58786 3.46517 0
M  V30 7127 H 696.812 2.47273 5.54023 0
M  V30 7128 H 695.551 1.63006 4.59653 0
M  V30 7129 H 694.556 3.83836 3.93637 0
M  V30 7130 H 695.781 4.68728 4.91397 0
M  V30 7131 H 693.727 2.70955 5.97427 0
M  V30 7132 H 693.644 4.43431 6.12295 0
M  V30 7133 H 694.912 3.56351 6.93278 0
M  V30 7134 N 699.141 -0.881989 1.30609 0
M  V30 7135 C 700.388 -1.63405 1.19604 0
M  V30 7136 C 700.716 -1.92905 -0.248574 0
M  V30 7137 O 699.971 -1.55062 -1.19391 0
M  V30 7138 C 700.27 -2.97999 1.97311 0
M  V30 7139 C 699.936 -2.88039 3.46907 0
M  V30 7140 C 698.598 -2.85029 3.877 0
M  V30 7141 C 700.95 -2.75948 4.42156 0
M  V30 7142 C 698.278 -2.67772 5.2203 0
M  V30 7143 C 700.63 -2.60228 5.76597 0
M  V30 7144 C 699.294 -2.55595 6.16626 0
M  V30 7145 H 698.564 -0.597941 0.437662 0
M  V30 7146 H 701.211 -1.02524 1.61744 0
M  V30 7147 H 699.516 -3.62847 1.47815 0
M  V30 7148 H 701.213 -3.55156 1.86186 0
M  V30 7149 H 697.803 -2.91192 3.14492 0
M  V30 7150 H 701.987 -2.77337 4.1158 0
M  V30 7151 H 697.243 -2.62601 5.52133 0
M  V30 7152 H 701.417 -2.49847 6.50038 0
M  V30 7153 H 699.044 -2.41981 7.20659 0
M  V30 7154 N 700.619 -1.13374 -1.09472 0
M  V30 7155 C 701.552 -0.754354 -2.15371 0
M  V30 7156 C 702.53 0.259205 -1.60521 0
M  V30 7157 O 703.714 0.150819 -1.87896 0
M  V30 7158 C 700.841 -0.118197 -3.38494 0
M  V30 7159 C 699.887 -1.10017 -4.12066 0
M  V30 7160 S 700.72 -2.63242 -4.6633 0
M  V30 7161 C 701.876 -2.00984 -5.92753 0
M  V30 7162 H 702.109 -1.65135 -2.4722 0
M  V30 7163 H 699.642 -0.953838 -1.21414 0
M  V30 7164 H 701.6 0.242447 -4.09783 0
M  V30 7165 H 700.261 0.756065 -3.04865 0
M  V30 7166 H 699.454 -0.60287 -5.00381 0
M  V30 7167 H 699.056 -1.40426 -3.46636 0
M  V30 7168 H 701.348 -1.35863 -6.63738 0
M  V30 7169 H 702.291 -2.8738 -6.47162 0
M  V30 7170 H 702.699 -1.46161 -5.4525 0
M  V30 7171 N 702.098 1.27442 -0.927168 0
M  V30 7172 C 703.046 2.28844 -0.416333 0
M  V30 7173 C 704.04 1.61882 0.499057 0
M  V30 7174 O 705.246 1.75969 0.378817 0
M  V30 7175 H 701.621 0.742989 -0.116065 0
M  V30 7176 H 703.592 2.69344 -1.28438 0
M  V30 7177 C 702.341 3.4626 0.316107 0
M  V30 7178 H 701.664 3.97999 -0.379082 0
M  V30 7179 H 703.104 4.19173 0.637975 0
M  V30 7180 C 701.563 3.00211 1.5289 0
M  V30 7181 O 702.093 3.03837 2.62766 0
M  V30 7182 N 700.299 2.55713 1.38054 0
M  V30 7183 H 699.846 2.52962 0.4866 0
M  V30 7184 H 699.804 2.25264 2.19325 0
M  V30 7185 N 703.576 0.692616 1.41565 0
M  V30 7186 C 704.853 0.150496 1.9502 0
M  V30 7187 C 705.233 -1.33881 1.63215 0
M  V30 7188 O 704.581 -2.08378 0.937598 0
M  V30 7189 C 704.791 0.438636 3.46233 0
M  V30 7190 C 706.139 0.364777 4.2303 0
M  V30 7191 O 707.163 0.373383 3.54238 0
M  V30 7192 O 706.022 0.32234 5.45549 0
M  V30 7193 H 703.116 0.0132454 0.826894 0
M  V30 7194 H 705.662 0.768574 1.51298 0
M  V30 7195 H 704.434 1.46962 3.62654 0
M  V30 7196 H 704.057 -0.210562 3.97042 0
M  V30 7197 N 705.054 -1.51416 0.437162 0
M  V30 7198 C 706.3 -2.02386 -0.129555 0
M  V30 7199 C 706.633 -1.32071 -1.42376 0
M  V30 7200 O 705.908 -0.43559 -1.8956 0
M  V30 7201 C 706.191 -3.5841 -0.348487 0
M  V30 7202 C 706.044 -4.39341 0.964352 0
M  V30 7203 C 707.363 -4.25654 -1.11834 0
M  V30 7204 H 704.482 -0.735587 -0.0456109 0
M  V30 7205 H 707.124 -1.81055 0.576124 0
M  V30 7206 H 705.274 -3.76716 -0.949592 0
M  V30 7207 H 706.946 -4.32685 1.59942 0
M  V30 7208 H 705.189 -4.04432 1.56898 0
M  V30 7209 H 705.86 -5.4667 0.765212 0
M  V30 7210 H 708.336 -4.11617 -0.609165 0
M  V30 7211 H 707.212 -5.34704 -1.24029 0
M  V30 7212 H 707.473 -3.86502 -2.14636 0
M  V30 7213 N 706.532 -0.168513 -1.56696 0
M  V30 7214 C 707.464 0.794249 -2.14998 0
M  V30 7215 C 708.477 1.1957 -1.10485 0
M  V30 7216 O 709.666 1.13604 -1.37682 0
M  V30 7217 C 706.766 2.08018 -2.67547 0
M  V30 7218 C 705.939 1.84274 -3.96689 0
M  V30 7219 C 704.998 2.97059 -4.3433 0
M  V30 7220 O 704.024 2.67815 -5.02259 0
M  V30 7221 N 705.226 4.24775 -3.9566 0
M  V30 7222 H 707.991 0.295832 -2.98236 0
M  V30 7223 H 705.552 0.0143611 -1.61894 0
M  V30 7224 H 707.544 2.82559 -2.89729 0
M  V30 7225 H 706.114 2.49059 -1.88914 0
M  V30 7226 H 705.334 0.936528 -3.82914 0
M  V30 7227 H 706.622 1.65773 -4.81037 0
M  V30 7228 H 706.02 4.51395 -3.40968 0
M  V30 7229 H 704.577 4.96027 -4.22848 0
M  V30 7230 N 708.01 1.57248 0.105221 0
M  V30 7231 C 708.94 2.04374 1.12931 0
M  V30 7232 C 709.921 0.93074 1.42377 0
M  V30 7233 O 711.106 1.20136 1.52581 0
M  V30 7234 C 708.236 2.45967 2.45189 0
M  V30 7235 C 707.19 3.60838 2.30174 0
M  V30 7236 C 706.516 3.88374 3.67518 0
M  V30 7237 C 707.816 4.92084 1.75073 0
M  V30 7238 H 709.51 2.9018 0.737287 0
M  V30 7239 H 707.056 1.39601 0.353211 0
M  V30 7240 H 709.009 2.77542 3.17094 0
M  V30 7241 H 707.733 1.57148 2.86308 0
M  V30 7242 H 706.392 3.29493 1.60716 0
M  V30 7243 H 706.04 2.96739 4.06147 0
M  V30 7244 H 705.74 4.65703 3.58321 0
M  V30 7245 H 707.264 4.22415 4.40906 0
M  V30 7246 H 708.678 5.22106 2.36809 0
M  V30 7247 H 707.075 5.73507 1.76662 0
M  V30 7248 H 708.145 4.79684 0.709347 0
M  V30 7249 N 709.488 -0.375779 1.53054 0
M  V30 7250 C 710.451 -1.44254 1.7811 0
M  V30 7251 C 711.451 -1.47018 0.651328 0
M  V30 7252 O 712.641 -1.47957 0.919472 0
M  V30 7253 C 709.773 -2.8345 1.89391 0
M  V30 7254 H 710.966 -1.23316 2.73374 0
M  V30 7255 H 708.519 -0.608312 1.43977 0
M  V30 7256 H 709.254 -3.09716 0.961589 0
M  V30 7257 H 709.039 -2.82844 2.71555 0
M  V30 7258 H 710.529 -3.60722 2.10404 0
M  V30 7259 N 710.966 -1.44241 -0.634997 0
M  V30 7260 C 711.929 -1.50457 -1.72903 0
M  V30 7261 C 712.929 -0.387058 -1.56072 0
M  V30 7262 O 714.119 -0.649531 -1.61638 0
M  V30 7263 C 711.251 -1.37477 -3.1195 0
M  V30 7264 H 712.444 -2.47907 -1.68767 0
M  V30 7265 H 709.997 -1.31276 -0.84831 0
M  V30 7266 H 710.732 -0.41106 -3.21684 0
M  V30 7267 H 710.517 -2.18506 -3.25573 0
M  V30 7268 H 712.007 -1.44799 -3.91692 0
M  V30 7269 N 712.444 0.87505 -1.31075 0
M  V30 7270 C 713.374 1.99775 -1.20881 0
M  V30 7271 C 714.355 1.69822 -0.0971612 0
M  V30 7272 O 715.54 1.92158 -0.280895 0
M  V30 7273 C 712.67 3.35163 -0.910118 0
M  V30 7274 C 711.624 3.79406 -1.98078 0
M  V30 7275 C 710.95 5.12197 -1.53488 0
M  V30 7276 C 712.25 3.97061 -3.39323 0
M  V30 7277 H 713.944 2.08562 -2.14808 0
M  V30 7278 H 711.49 1.00207 -1.03415 0
M  V30 7279 H 713.443 4.13237 -0.825423 0
M  V30 7280 H 712.167 3.26536 0.064822 0
M  V30 7281 H 710.826 3.03568 -2.05528 0
M  V30 7282 H 710.474 5.00007 -0.547941 0
M  V30 7283 H 710.174 5.4277 -2.2511 0
M  V30 7284 H 711.698 5.92785 -1.46417 0
M  V30 7285 H 713.112 4.65545 -3.34576 0
M  V30 7286 H 711.509 4.39025 -4.09118 0
M  V30 7287 H 712.579 3.00601 -3.80483 0
M  V30 7288 N 713.922 1.13953 1.08869 0
M  V30 7289 C 715.199 0.815768 1.77777 0
M  V30 7290 C 715.579 -0.691624 1.99449 0
M  V30 7291 O 714.927 -1.63085 1.60049 0
M  V30 7292 C 715.137 1.60916 3.09689 0
M  V30 7293 C 716.485 1.80549 3.84301 0
M  V30 7294 O 717.509 1.57562 3.19457 0
M  V30 7295 O 716.368 2.18946 5.00724 0
M  V30 7296 H 713.462 0.298445 0.771271 0
M  V30 7297 H 716.008 1.24446 1.15374 0
M  V30 7298 H 714.78 2.6333 2.89435 0
M  V30 7299 H 714.403 1.17578 3.79817 0
M  V30 7300 N 715.4 -1.26948 0.933913 0
M  V30 7301 C 716.35 -2.24306 0.408779 0
M  V30 7302 C 717.334 -1.53243 -0.490435 0
M  V30 7303 O 718.526 -1.73956 -0.326866 0
M  V30 7304 C 715.655 -3.41695 -0.331578 0
M  V30 7305 C 714.741 -4.20053 0.58451 0
M  V30 7306 N 715.132 -4.76122 1.70709 0
M  V30 7307 C 713.43 -4.44303 0.388703 0
M  V30 7308 C 714.131 -5.35267 2.27737 0
M  V30 7309 N 713.107 -5.20548 1.56622 0
M  V30 7310 H 716.909 -2.65244 1.26582 0
M  V30 7311 H 714.423 -1.4195 0.788919 0
M  V30 7312 H 716.42 -4.10552 -0.724774 0
M  V30 7313 H 715.08 -3.02286 -1.18547 0
M  V30 7314 H 716.091 -4.73884 2.08937 0
M  V30 7315 H 712.768 -4.15341 -0.424016 0
M  V30 7316 H 714.158 -5.89563 3.22282 0
M  V30 7317 N 716.879 -0.700114 -1.41195 0
M  V30 7318 C 717.842 -0.0465706 -2.29153 0
M  V30 7319 C 718.842 0.703302 -1.44604 0
M  V30 7320 O 720.032 0.537513 -1.657 0
M  V30 7321 C 717.164 0.944324 -3.2756 0
M  V30 7322 H 718.357 -0.821064 -2.88442 0
M  V30 7323 H 715.91 -0.463869 -1.49258 0
M  V30 7324 H 716.645 1.74642 -2.73259 0
M  V30 7325 H 716.43 0.409701 -3.89954 0
M  V30 7326 H 717.92 1.39925 -3.9346 0
M  V30 7327 N 718.357 1.51182 -0.445186 0
M  V30 7328 C 719.587 2.06269 0.116922 0
M  V30 7329 C 719.995 1.31188 1.36332 0
M  V30 7330 O 719.338 0.367067 1.79995 0
M  V30 7331 C 719.4 3.56051 0.496757 0
M  V30 7332 C 719.064 4.52441 -0.64394 0
M  V30 7333 C 720.061 4.97233 -1.5184 0
M  V30 7334 C 717.746 4.95447 -0.826905 0
M  V30 7335 C 719.74 5.83712 -2.56046 0
M  V30 7336 C 717.427 5.81714 -1.87222 0
M  V30 7337 C 718.425 6.25745 -2.73738 0
M  V30 7338 O 718.113 7.10298 -3.76474 0
M  V30 7339 H 717.845 0.675954 0.00785733 0
M  V30 7340 H 720.399 1.95648 -0.625371 0
M  V30 7341 H 718.629 3.64483 1.29187 0
M  V30 7342 H 720.318 3.93618 0.990928 0
M  V30 7343 H 721.084 4.64696 -1.38862 0
M  V30 7344 H 716.963 4.60712 -0.163052 0
M  V30 7345 H 720.507 6.18 -3.23607 0
M  V30 7346 H 716.404 6.13664 -2.00218 0
M  V30 7347 H 717.172 7.28493 -3.73149 0
M  V30 7348 N 719.835 0.176821 1.56605 0
M  V30 7349 C 721.063 -0.472828 2.01425 0
M  V30 7350 C 721.478 -1.56436 1.05703 0
M  V30 7351 O 720.835 -1.82405 0.058808 0
M  V30 7352 C 720.886 -1.04607 3.46034 0
M  V30 7353 O 720.607 0.00189608 4.381 0
M  V30 7354 C 722.108 -1.7734 4.06282 0
M  V30 7355 H 719.328 -0.120503 0.660091 0
M  V30 7356 H 721.872 0.280166 2.02572 0
M  V30 7357 H 720.027 -1.74953 3.45645 0
M  V30 7358 H 720.441 -0.422118 5.22799 0
M  V30 7359 H 721.915 -2.12703 5.09374 0
M  V30 7360 H 722.392 -2.67043 3.4869 0
M  V30 7361 H 722.998 -1.11623 4.10391 0
M  V30 7362 N 721.313 -1.57302 -0.09688 0
M  V30 7363 C 722.543 -1.89926 -0.813114 0
M  V30 7364 C 722.951 -0.76852 -1.72888 0
M  V30 7365 O 722.294 0.268549 -1.81726 0
M  V30 7366 C 722.356 -3.17787 -1.68082 0
M  V30 7367 C 722.02 -4.4729 -0.937061 0
M  V30 7368 C 723.017 -5.1921 -0.267687 0
M  V30 7369 C 720.702 -4.93957 -0.911671 0
M  V30 7370 C 722.696 -6.36034 0.417129 0
M  V30 7371 C 720.383 -6.10693 -0.223068 0
M  V30 7372 C 721.381 -6.8158 0.440155 0
M  V30 7373 O 721.069 -7.96092 1.11772 0
M  V30 7374 H 720.801 -0.632783 -0.237828 0
M  V30 7375 H 723.355 -2.05248 -0.0790818 0
M  V30 7376 H 721.585 -2.98607 -2.45705 0
M  V30 7377 H 723.274 -3.36257 -2.27346 0
M  V30 7378 H 724.04 -4.84198 -0.278774 0
M  V30 7379 H 719.919 -4.38671 -1.41734 0
M  V30 7380 H 723.463 -6.91301 0.93537 0
M  V30 7381 H 719.36 -6.45159 -0.209821 0
M  V30 7382 H 720.128 -8.12064 1.02443 0
M  V30 7383 N 722.791 0.367657 -1.53252 0
M  V30 7384 C 724.039 1.10832 -1.68999 0
M  V30 7385 C 724.36 1.89894 -0.443306 0
M  V30 7386 O 723.63 1.88235 0.54262 0
M  V30 7387 H 722.21 0.412153 -0.623008 0
M  V30 7388 H 724.872 0.414775 -1.90435 0
M  V30 7389 H 723.968 1.7993 -2.55013 0
M  V30 7390 N 724.269 1.44576 0.627338 0
M  V30 7391 C 725.199 1.54562 1.75022 0
M  V30 7392 C 726.18 0.398378 1.65369 0
M  V30 7393 O 727.365 0.61899 1.84071 0
M  V30 7394 C 724.495 1.49309 3.13567 0
M  V30 7395 C 723.449 2.62549 3.38012 0
M  V30 7396 C 722.775 2.42348 4.76625 0
M  V30 7397 C 724.075 4.04678 3.30202 0
M  V30 7398 H 725.769 2.4855 1.66922 0
M  V30 7399 H 723.315 1.19624 0.801636 0
M  V30 7400 H 725.268 1.54895 3.919 0
M  V30 7401 H 723.992 0.518392 3.2246 0
M  V30 7402 H 722.651 2.56358 2.62061 0
M  V30 7403 H 722.299 1.43062 4.82226 0
M  V30 7404 H 721.999 3.18273 4.93939 0
M  V30 7405 H 723.523 2.49758 5.57183 0
M  V30 7406 H 724.937 4.12217 3.98435 0
M  V30 7407 H 723.334 4.80836 3.5905 0
M  V30 7408 H 724.404 4.2798 2.27949 0
M  V30 7409 N 725.747 -0.868086 1.31537 0
M  V30 7410 C 726.677 -1.99131 1.21939 0
M  V30 7411 C 727.658 -1.69768 0.106166 0
M  V30 7412 O 728.843 -1.92006 0.291081 0
M  V30 7413 C 725.973 -3.34676 0.927879 0
M  V30 7414 C 724.927 -3.7835 2.00088 0
M  V30 7415 C 724.253 -5.11375 1.56203 0
M  V30 7416 C 725.553 -3.95256 3.41424 0
M  V30 7417 H 727.247 -2.07419 2.15911 0
M  V30 7418 H 724.793 -0.996569 1.03945 0
M  V30 7419 H 726.746 -4.12793 0.847327 0
M  V30 7420 H 725.47 -3.26565 -0.0475042 0
M  V30 7421 H 724.129 -3.02474 2.07135 0
M  V30 7422 H 723.777 -4.99709 0.57445 0
M  V30 7423 H 723.477 -5.41568 2.27985 0
M  V30 7424 H 725.001 -5.92001 1.49558 0
M  V30 7425 H 726.415 -4.63764 3.3704 0
M  V30 7426 H 724.812 -4.36849 4.1144 0
M  V30 7427 H 725.882 -2.98579 3.82072 0
M  V30 7428 N 727.225 -1.14528 -1.08264 0
M  V30 7429 C 728.471 -0.925721 -1.81113 0
M  V30 7430 C 728.826 0.54185 -1.84612 0
M  V30 7431 O 728.119 1.39628 -1.31205 0
M  V30 7432 C 728.313 -1.46226 -3.26117 0
M  V30 7433 C 728.142 -2.98047 -3.36746 0
M  V30 7434 C 726.912 -3.66508 -3.4785 0
M  V30 7435 C 729.11 -3.95903 -3.28277 0
M  V30 7436 N 727.092 -5.06227 -3.47285 0
M  V30 7437 C 728.463 -5.21883 -3.34721 0
M  V30 7438 C 730.518 -3.88002 -3.12024 0
M  V30 7439 C 729.221 -6.40886 -3.26585 0
M  V30 7440 C 731.247 -5.06553 -3.05219 0
M  V30 7441 C 730.609 -6.31403 -3.12266 0
M  V30 7442 H 726.708 -0.392294 -0.676483 0
M  V30 7443 H 729.292 -1.45567 -1.293 0
M  V30 7444 H 727.463 -0.959076 -3.76373 0
M  V30 7445 H 729.195 -1.18247 -3.8704 0
M  V30 7446 H 725.95 -3.17067 -3.51804 0
M  V30 7447 H 726.374 -5.79172 -3.50555 0
M  V30 7448 H 731.016 -2.9235 -3.05436 0
M  V30 7449 H 728.734 -7.36781 -3.31934 0
M  V30 7450 H 732.32 -5.02191 -2.93761 0
M  V30 7451 H 731.2 -7.21596 -3.07032 0
M  V30 7452 N 728.703 1.26451 -0.940633 0
M  V30 7453 C 729.949 1.94065 -0.58878 0
M  V30 7454 C 730.282 1.7363 0.869853 0
M  V30 7455 O 729.557 1.073 1.62225 0
M  V30 7456 C 729.84 3.47852 -0.931199 0
M  V30 7457 C 729.693 3.77575 -2.44453 0
M  V30 7458 C 731.012 4.37832 -0.446229 0
M  V30 7459 H 728.131 0.704827 -0.21538 0
M  V30 7460 H 730.773 1.4933 -1.17475 0
M  V30 7461 H 728.923 3.86085 -0.432539 0
M  V30 7462 H 730.595 3.49059 -3.01588 0
M  V30 7463 H 728.838 3.23671 -2.88825 0
M  V30 7464 H 729.509 4.85068 -2.63464 0
M  V30 7465 H 731.985 4.06822 -0.873778 0
M  V30 7466 H 730.861 5.44228 -0.714648 0
M  V30 7467 H 731.122 4.37239 0.653815 0
M  V30 7468 N 730.181 0.707592 1.40822 0
M  V30 7469 C 731.144 0.0587224 2.29125 0
M  V30 7470 C 732.144 -0.695624 1.44975 0
M  V30 7471 O 733.334 -0.528718 1.65983 0
M  V30 7472 C 730.466 -0.926939 3.28056 0
M  V30 7473 H 731.659 0.836349 2.88002 0
M  V30 7474 H 729.212 0.471778 1.4901 0
M  V30 7475 H 729.947 -1.7319 2.74182 0
M  V30 7476 H 729.732 -0.389015 3.90165 0
M  V30 7477 H 731.222 -1.37837 3.94196 0
M  V30 7478 N 731.66 -1.50943 0.453197 0
M  V30 7479 C 732.908 -2.01813 -0.107709 0
M  V30 7480 C 733.229 -1.33841 -1.41816 0
M  V30 7481 O 732.499 -0.477973 -1.8998 0
M  V30 7482 H 731.079 -0.745773 -0.0427948 0
M  V30 7483 H 733.741 -1.8545 0.599531 0
M  V30 7484 H 732.837 -3.10911 -0.27218 0
M  V30 7485 N 733.138 -0.185124 -1.56509 0
M  V30 7486 C 734.101 0.72591 -2.17401 0
M  V30 7487 C 735.101 1.14819 -1.12575 0
M  V30 7488 O 736.291 1.0629 -1.38015 0
M  V30 7489 C 733.423 1.98979 -2.76803 0
M  V30 7490 H 734.616 0.195588 -2.99262 0
M  V30 7491 H 732.169 0.0644772 -1.56167 0
M  V30 7492 H 732.904 2.56287 -1.98714 0
M  V30 7493 H 732.689 1.69583 -3.53531 0
M  V30 7494 H 734.179 2.63966 -3.23592 0
M  V30 7495 N 734.616 1.57351 0.0885366 0
M  V30 7496 C 735.579 2.01557 1.09121 0
M  V30 7497 C 736.579 0.910052 1.3257 0
M  V30 7498 O 737.769 1.17537 1.28572 0
M  V30 7499 C 734.901 2.38189 2.43883 0
M  V30 7500 H 736.094 2.91361 0.710562 0
M  V30 7501 H 733.647 1.52694 0.333779 0
M  V30 7502 H 734.382 1.5136 2.86811 0
M  V30 7503 H 734.167 3.18846 2.28209 0
M  V30 7504 H 735.657 2.73025 3.15986 0
M  V30 7505 N 736.094 -0.359525 1.53444 0
M  V30 7506 C 737.343 -1.09886 1.69139 0
M  V30 7507 C 737.656 -1.90285 0.452863 0
M  V30 7508 O 738.862 -2.67033 0.490459 0
M  V30 7509 C 737.318 -2.0028 2.99025 0
M  V30 7510 C 736.926 -1.25164 4.30161 0
M  V30 7511 C 738.67 -2.74168 3.24086 0
M  V30 7512 C 736.577 -2.14494 5.51132 0
M  V30 7513 H 735.507 -0.413936 0.630217 0
M  V30 7514 H 738.158 -0.359434 1.79945 0
M  V30 7515 H 736.54 -2.77978 2.82036 0
M  V30 7516 H 737.714 -0.524867 4.57801 0
M  V30 7517 H 736.029 -0.631116 4.11589 0
M  V30 7518 H 738.626 -3.41243 4.11652 0
M  V30 7519 H 738.969 -3.39868 2.40407 0
M  V30 7520 H 739.502 -2.0355 3.41778 0
M  V30 7521 H 736.241 -1.53362 6.37307 0
M  V30 7522 H 735.761 -2.85004 5.27762 0
M  V30 7523 H 737.44 -2.73914 5.86157 0
M  V30 7524 N 737.572 -1.44907 -0.619662 0
M  V30 7525 C 738.821 -1.47569 -1.37501 0
M  V30 7526 C 739.134 -0.116707 -1.95252 0
M  V30 7527 O 740.34 -0.020909 -2.71492 0
M  V30 7528 C 738.796 -2.59851 -2.49009 0
M  V30 7529 C 738.404 -4.02008 -1.97722 0
M  V30 7530 C 740.148 -2.71746 -3.2612 0
M  V30 7531 C 738.055 -5.05693 -3.0664 0
M  V30 7532 H 736.985 -0.549068 -0.51676 0
M  V30 7533 H 739.636 -1.71009 -0.665437 0
M  V30 7534 H 738.018 -2.29671 -3.22594 0
M  V30 7535 H 739.192 -4.41809 -1.30925 0
M  V30 7536 H 737.507 -3.94456 -1.33392 0
M  V30 7537 H 740.104 -3.46382 -4.07337 0
M  V30 7538 H 740.447 -1.77959 -3.76346 0
M  V30 7539 H 740.98 -3.01392 -2.5963 0
M  V30 7540 H 737.719 -6.01148 -2.61345 0
M  V30 7541 H 737.239 -4.70473 -3.72042 0
M  V30 7542 H 738.918 -5.29906 -3.71226 0
M  V30 7543 N 739.05 0.861098 -1.31996 0
M  V30 7544 C 740.296 1.61721 -1.22369 0
M  V30 7545 C 740.629 1.93 0.215587 0
M  V30 7546 O 739.904 1.56789 1.15098 0
M  V30 7547 C 740.187 2.9417 -2.07691 0
M  V30 7548 C 740.04 2.69714 -3.59965 0
M  V30 7549 C 741.359 3.95372 -1.93312 0
M  V30 7550 H 738.478 0.586822 -0.44588 0
M  V30 7551 H 741.12 0.994788 -1.61876 0
M  V30 7552 H 739.27 3.47292 -1.74128 0
M  V30 7553 H 740.942 2.23196 -4.03709 0
M  V30 7554 H 739.185 2.03789 -3.82952 0
M  V30 7555 H 739.856 3.63996 -4.14983 0
M  V30 7556 H 742.332 3.51487 -2.22701 0
M  V30 7557 H 741.208 4.85916 -2.55298 0
M  V30 7558 H 741.469 4.32865 -0.898922 0
M  V30 7559 N 740.528 1.15101 1.07655 0
M  V30 7560 C 741.776 0.922149 1.79836 0
M  V30 7561 C 742.097 -0.552346 1.87014 0
M  V30 7562 O 741.367 -1.40145 1.3688 0
M  V30 7563 H 739.947 0.338182 0.666064 0
M  V30 7564 H 742.609 1.45107 1.30115 0
M  V30 7565 H 741.705 1.32883 2.82398 0
M  V30 7566 N 742.006 -1.2595 0.947325 0
M  V30 7567 C 743.254 -1.93081 0.596996 0
M  V30 7568 C 743.575 -1.74632 -0.867672 0
M  V30 7569 O 742.845 -1.1056 -1.6172 0
M  V30 7570 H 741.425 -0.714542 0.217805 0
M  V30 7571 H 744.087 -1.53265 1.20398 0
M  V30 7572 H 743.183 -3.01134 0.82004 0
M  V30 7573 N 743.484 -0.715051 -1.40445 0
M  V30 7574 C 744.417 -0.0112426 -2.28197 0
M  V30 7575 C 745.395 0.768211 -1.43308 0
M  V30 7576 O 746.579 0.754961 -1.72721 0
M  V30 7577 C 743.706 0.991453 -3.23864 0
M  V30 7578 C 742.752 0.302873 -4.25423 0
M  V30 7579 S 743.585 -0.968852 -5.26663 0
M  V30 7580 C 744.741 0.0317538 -6.25892 0
M  V30 7581 H 744.974 -0.755467 -2.87541 0
M  V30 7582 H 742.507 -0.506054 -1.45871 0
M  V30 7583 H 744.465 1.56475 -3.79507 0
M  V30 7584 H 743.126 1.70838 -2.63578 0
M  V30 7585 H 742.319 1.06086 -4.92709 0
M  V30 7586 H 741.921 -0.197853 -3.73476 0
M  V30 7587 H 744.213 0.878764 -6.71777 0
M  V30 7588 H 745.156 -0.607698 -7.05488 0
M  V30 7589 H 745.564 0.39524 -5.63115 0
M  V30 7590 N 744.962 1.50701 -0.461195 0
M  V30 7591 C 745.925 2.2686 0.326679 0
M  V30 7592 C 746.925 1.31243 0.929085 0
M  V30 7593 O 748.115 1.54754 0.799807 0
M  V30 7594 C 745.247 3.07844 1.46441 0
M  V30 7595 H 746.44 2.97954 -0.341095 0
M  V30 7596 H 743.993 1.54814 -0.214984 0
M  V30 7597 H 744.728 2.41223 2.16753 0
M  V30 7598 H 744.513 3.78101 1.03836 0
M  V30 7599 H 746.003 3.65469 2.02044 0
M  V30 7600 N 746.441 0.193421 1.56409 0
M  V30 7601 C 747.371 -0.723334 2.22014 0
M  V30 7602 C 748.352 -1.22254 1.1827 0
M  V30 7603 O 749.537 -1.27168 1.46771 0
M  V30 7604 C 746.667 -1.94366 2.87818 0
M  V30 7605 C 745.621 -1.57943 3.97791 0
M  V30 7606 C 744.947 -2.87623 4.50752 0
M  V30 7607 C 746.247 -0.790639 5.16281 0
M  V30 7608 H 747.941 -0.176426 2.9888 0
M  V30 7609 H 745.487 -0.0834166 1.43758 0
M  V30 7610 H 747.44 -2.5902 3.32396 0
M  V30 7611 H 746.164 -2.51507 2.08355 0
M  V30 7612 H 744.823 -0.956482 3.53903 0
M  V30 7613 H 744.471 -3.4285 3.68053 0
M  V30 7614 H 744.171 -2.63998 5.24956 0
M  V30 7615 H 745.695 -3.53268 4.9803 0
M  V30 7616 H 747.109 -1.34024 5.57414 0
M  V30 7617 H 745.506 -0.65258 5.96541 0
M  V30 7618 H 746.576 0.208633 4.84451 0
M  V30 7619 N 747.919 -1.57396 -0.0801906 0
M  V30 7620 C 749.166 -1.86836 -0.780927 0
M  V30 7621 C 749.494 -0.784012 -1.77999 0
M  V30 7622 O 748.749 0.220881 -1.94449 0
M  V30 7623 C 749.048 -3.22915 -1.53169 0
M  V30 7624 C 748.714 -4.45843 -0.67339 0
M  V30 7625 C 747.376 -4.79213 -0.436829 0
M  V30 7626 C 749.728 -5.21142 -0.0776786 0
M  V30 7627 C 747.056 -5.853 0.405062 0
M  V30 7628 C 749.408 -6.28119 0.751619 0
M  V30 7629 C 748.072 -6.59995 0.998131 0
M  V30 7630 H 747.342 -0.683682 -0.285761 0
M  V30 7631 H 749.989 -1.91454 -0.0419435 0
M  V30 7632 H 748.294 -3.14049 -2.34265 0
M  V30 7633 H 749.991 -3.42926 -2.07853 0
M  V30 7634 H 746.581 -4.19721 -0.867891 0
M  V30 7635 H 750.765 -4.95682 -0.247572 0
M  V30 7636 H 746.021 -6.084 0.60488 0
M  V30 7637 H 750.195 -6.8563 1.22 0
M  V30 7638 H 747.822 -7.42027 1.65227 0
M  V30 7639 N 749.397 0.351382 -1.53633 0
M  V30 7640 C 750.646 1.08988 -1.69719 0
M  V30 7641 C 750.959 1.90043 -0.462948 0
M  V30 7642 O 752.165 2.66769 -0.504613 0
M  V30 7643 C 750.621 1.98691 -3.00083 0
M  V30 7644 C 750.229 1.22881 -4.30818 0
M  V30 7645 C 751.973 2.72446 -3.25536 0
M  V30 7646 C 749.88 2.11568 -5.52262 0
M  V30 7647 H 748.81 0.410588 -0.632403 0
M  V30 7648 H 751.461 0.349886 -1.80133 0
M  V30 7649 H 749.843 2.76478 -2.83506 0
M  V30 7650 H 751.017 0.500582 -4.58073 0
M  V30 7651 H 749.332 0.60928 -4.11918 0
M  V30 7652 H 751.929 3.39055 -4.13456 0
M  V30 7653 H 752.272 3.38588 -2.42206 0
M  V30 7654 H 752.805 2.01735 -3.42852 0
M  V30 7655 H 749.544 1.4998 -6.38111 0
M  V30 7656 H 749.064 2.82201 -5.29266 0
M  V30 7657 H 750.743 2.70802 -5.87601 0
M  V30 7658 N 750.875 1.45233 0.611969 0
M  V30 7659 C 752.123 1.48727 1.36838 0
M  V30 7660 C 752.444 0.128616 1.94575 0
M  V30 7661 O 751.714 -0.84149 1.76906 0
M  V30 7662 H 750.294 0.547695 0.507976 0
M  V30 7663 H 752.956 1.81156 0.718925 0
M  V30 7664 H 752.052 2.2236 2.19003 0
M  V30 7665 N 752.353 -0.854086 1.3245 0
M  V30 7666 C 753.583 -1.63836 1.25862 0
M  V30 7667 C 753.991 -1.88383 -0.175588 0
M  V30 7668 O 753.334 -1.45353 -1.1233 0
M  V30 7669 C 753.396 -3.02068 1.94923 0
M  V30 7670 C 753.06 -3.0056 3.44257 0
M  V30 7671 C 754.057 -2.77368 4.39731 0
M  V30 7672 C 751.742 -3.21177 3.862 0
M  V30 7673 C 753.736 -2.74797 5.75122 0
M  V30 7674 C 751.423 -3.18234 5.217 0
M  V30 7675 C 752.421 -2.95072 6.15972 0
M  V30 7676 O 752.109 -2.92003 7.48992 0
M  V30 7677 H 751.841 -0.517007 0.435523 0
M  V30 7678 H 754.395 -1.07314 1.75137 0
M  V30 7679 H 752.625 -3.60382 1.40219 0
M  V30 7680 H 754.314 -3.62791 1.82037 0
M  V30 7681 H 755.08 -2.61205 4.08653 0
M  V30 7682 H 750.959 -3.38231 3.13243 0
M  V30 7683 H 754.503 -2.56638 6.48678 0
M  V30 7684 H 750.4 -3.33941 5.52407 0
M  V30 7685 H 751.168 -3.07953 7.58358 0
M  V30 7686 N 753.831 -1.1567 -1.07043 0
M  V30 7687 C 755.059 -0.957471 -1.83412 0
M  V30 7688 C 755.474 0.494271 -1.82215 0
M  V30 7689 O 754.831 1.34288 -1.23584 0
M  V30 7690 C 754.882 -1.46784 -3.30359 0
M  V30 7691 O 754.603 -2.86271 -3.31633 0
M  V30 7692 C 756.104 -1.31054 -4.23485 0
M  V30 7693 H 753.324 -0.33986 -0.578564 0
M  V30 7694 H 755.868 -1.53518 -1.35102 0
M  V30 7695 H 754.023 -0.932586 -3.76007 0
M  V30 7696 H 754.437 -3.0948 -4.23465 0
M  V30 7697 H 755.911 -1.71605 -5.24648 0
M  V30 7698 H 756.388 -0.255107 -4.38458 0
M  V30 7699 H 756.994 -1.83503 -3.83676 0
M  V30 7700 N 755.309 1.25446 -0.953992 0
M  V30 7701 C 756.72 1.75047 -0.649255 0
M  V30 7702 C 757.071 1.77527 0.835385 0
M  V30 7703 O 756.196 1.39569 1.65377 0
M  V30 7704 C 756.791 3.17889 -1.17183 0
M  V30 7705 C 755.35 3.65052 -0.917267 0
M  V30 7706 C 754.497 2.44124 -1.31525 0
M  V30 7707 H 757.448 1.11342 -1.13087 0
M  V30 7708 H 757.469 3.76768 -0.531616 0
M  V30 7709 H 756.981 3.16052 -2.25239 0
M  V30 7710 H 755.082 3.72305 0.148354 0
M  V30 7711 H 755.195 4.53222 -1.55328 0
M  V30 7712 H 753.559 2.43906 -0.733624 0
M  V30 7713 H 754.342 2.44979 -2.405 0
M  V30 7714 N 756.787 0.722489 1.40064 0
M  V30 7715 C 757.719 0.0349057 2.29173 0
M  V30 7716 C 758.732 -0.716571 1.46182 0
M  V30 7717 O 759.921 -0.562806 1.69395 0
M  V30 7718 C 757.021 -0.974839 3.24577 0
M  V30 7719 C 756.194 -0.287471 4.36454 0
M  V30 7720 C 755.253 -1.20356 5.12251 0
M  V30 7721 O 754.279 -0.685753 5.65054 0
M  V30 7722 N 755.481 -2.53422 5.22262 0
M  V30 7723 H 758.246 0.800058 2.88824 0
M  V30 7724 H 755.807 0.57068 1.51509 0
M  V30 7725 H 757.799 -1.59002 3.72157 0
M  V30 7726 H 756.369 -1.6413 2.66046 0
M  V30 7727 H 755.589 0.508008 3.90913 0
M  V30 7728 H 756.877 0.189382 5.08447 0
M  V30 7729 H 756.275 -2.97981 4.80857 0
M  V30 7730 H 754.832 -3.10067 5.73325 0
M  V30 7731 N 758.265 -1.50454 0.469181 0
M  V30 7732 C 759.197 -2.26319 -0.362247 0
M  V30 7733 C 760.21 -1.31574 -0.958751 0
M  V30 7734 O 761.399 -1.57099 -0.847482 0
M  V30 7735 C 758.499 -3.02808 -1.52187 0
M  V30 7736 C 757.672 -4.24893 -1.03849 0
M  V30 7737 C 756.731 -4.83691 -2.07194 0
M  V30 7738 O 755.757 -5.44659 -1.65333 0
M  V30 7739 N 756.959 -4.70522 -3.39985 0
M  V30 7740 H 759.724 -2.98312 0.288124 0
M  V30 7741 H 757.285 -1.59099 0.299856 0
M  V30 7742 H 759.277 -3.39023 -2.21011 0
M  V30 7743 H 757.847 -2.33625 -2.07697 0
M  V30 7744 H 757.067 -3.93806 -0.176203 0
M  V30 7745 H 758.355 -5.04053 -0.693435 0
M  V30 7746 H 757.753 -4.2203 -3.76706 0
M  V30 7747 H 756.31 -5.11011 -4.04612 0
M  V30 7748 N 759.743 -0.201713 -1.56304 0
M  V30 7749 C 760.989 0.435952 -1.98059 0
M  V30 7750 C 761.322 1.60811 -1.08873 0
M  V30 7751 O 760.597 1.9398 -0.142128 0
M  V30 7752 C 760.88 0.889706 -3.48936 0
M  V30 7753 C 760.733 -0.284725 -4.48898 0
M  V30 7754 C 762.052 1.7529 -4.03685 0
M  V30 7755 H 759.171 0.15699 -0.720085 0
M  V30 7756 H 761.813 -0.293965 -1.87712 0
M  V30 7757 H 759.963 1.51166 -3.57884 0
M  V30 7758 H 761.635 -0.922531 -4.51981 0
M  V30 7759 H 759.878 -0.935427 -4.23594 0
M  V30 7760 H 760.549 0.0753865 -5.51949 0
M  V30 7761 H 763.025 1.2283 -3.97558 0
M  V30 7762 H 761.901 2.03933 -5.0961 0
M  V30 7763 H 762.162 2.70939 -3.49348 0
M  V30 7764 N 761.222 1.57436 0.0718424 0
M  V30 7765 C 762.185 2.02703 1.06977 0
M  V30 7766 C 763.185 0.924062 1.31597 0
M  V30 7767 O 764.375 1.18894 1.27318 0
M  V30 7768 C 761.507 2.40763 2.41342 0
M  V30 7769 H 762.7 2.92098 0.679619 0
M  V30 7770 H 760.253 1.5304 0.317565 0
M  V30 7771 H 760.988 1.54394 2.8519 0
M  V30 7772 H 760.773 3.21249 2.24814 0
M  V30 7773 H 762.263 2.76361 3.13073 0
M  V30 7774 N 762.7 -0.34323 1.53817 0
M  V30 7775 C 763.65 -1.42217 1.78208 0
M  V30 7776 C 764.634 -1.4774 0.637304 0
M  V30 7777 O 765.826 -1.52605 0.896705 0
M  V30 7778 C 762.955 -2.79354 1.9954 0
M  V30 7779 C 762.041 -2.78222 3.20084 0
M  V30 7780 N 762.432 -2.46719 4.41547 0
M  V30 7781 C 760.73 -3.09368 3.21259 0
M  V30 7782 C 761.431 -2.53828 5.23399 0
M  V30 7783 N 760.407 -2.89464 4.60121 0
M  V30 7784 H 764.209 -1.16759 2.69712 0
M  V30 7785 H 761.723 -0.551592 1.52746 0
M  V30 7786 H 763.72 -3.57095 2.15148 0
M  V30 7787 H 762.38 -3.05759 1.09278 0
M  V30 7788 H 763.391 -2.19912 4.68891 0
M  V30 7789 H 760.068 -3.40942 2.40966 0
M  V30 7790 H 761.458 -2.32629 6.30344 0
M  V30 7791 N 764.178 -1.45556 -0.604258 0
M  V30 7792 C 765.141 -1.54091 -1.69672 0
M  V30 7793 C 766.141 -0.420076 -1.55216 0
M  V30 7794 O 767.331 -0.683671 -1.60224 0
M  V30 7795 C 764.463 -1.44063 -3.08964 0
M  V30 7796 H 765.656 -2.51431 -1.6347 0
M  V30 7797 H 763.209 -1.33046 -0.820273 0
M  V30 7798 H 763.944 -0.479201 -3.2074 0
M  V30 7799 H 763.729 -2.25362 -3.20865 0
M  V30 7800 H 765.219 -1.53075 -3.88533 0
M  V30 7801 N 765.656 0.84705 -1.32902 0
M  V30 7802 C 766.588 1.96308 -1.18304 0
M  V30 7803 C 767.601 1.62386 -0.116082 0
M  V30 7804 O 768.79 1.74713 -0.365751 0
M  V30 7805 C 765.89 3.29556 -0.790305 0
M  V30 7806 C 765.063 3.91668 -1.94717 0
M  V30 7807 C 764.122 5.0326 -1.53674 0
M  V30 7808 O 763.148 5.22847 -2.24989 0
M  V30 7809 N 764.35 5.78852 -0.437075 0
M  V30 7810 H 767.115 2.09369 -2.14441 0
M  V30 7811 H 764.676 1.02233 -1.25539 0
M  V30 7812 H 766.668 4.01624 -0.49799 0
M  V30 7813 H 765.238 3.12497 0.0801286 0
M  V30 7814 H 764.458 3.12292 -2.40557 0
M  V30 7815 H 765.746 4.299 -2.72146 0
M  V30 7816 H 765.144 5.65484 0.156316 0
M  V30 7817 H 763.701 6.51479 -0.204399 0
M  V30 7818 N 767.134 1.16236 1.06428 0
M  V30 7819 C 768.044 0.881976 2.1739 0
M  V30 7820 C 769.06 -0.145259 1.73393 0
M  V30 7821 O 770.236 0.0310558 2.01376 0
M  V30 7822 C 767.301 0.385496 3.4455 0
M  V30 7823 C 766.362 1.47779 4.03063 0
M  V30 7824 C 765.595 1.0049 5.24154 0
M  V30 7825 O 765.818 -0.145889 5.70213 0
M  V30 7826 O 764.752 1.79265 5.74585 0
M  V30 7827 H 768.578 1.80983 2.43883 0
M  V30 7828 H 766.163 0.942226 1.15942 0
M  V30 7829 H 768.045 0.115536 4.21242 0
M  V30 7830 H 766.72 -0.514369 3.19587 0
M  V30 7831 H 765.627 1.80147 3.27869 0
M  V30 7832 H 766.96 2.35291 4.32318 0
M  V30 7833 N 768.612 -1.24939 0.960631 0
M  V30 7834 C 769.858 -1.93104 0.61958 0
M  V30 7835 C 770.191 -1.74991 -0.84212 0
M  V30 7836 O 769.466 -1.09867 -1.60498 0
M  V30 7837 C 769.749 -3.46326 0.986422 0
M  V30 7838 C 769.602 -3.73638 2.50429 0
M  V30 7839 C 770.921 -4.37067 0.515827 0
M  V30 7840 H 768.04 -0.701311 0.226566 0
M  V30 7841 H 770.682 -1.47442 1.19836 0
M  V30 7842 H 768.832 -3.85348 0.493907 0
M  V30 7843 H 770.504 -3.44217 3.07103 0
M  V30 7844 H 768.747 -3.19035 2.93937 0
M  V30 7845 H 769.418 -4.80815 2.71147 0
M  V30 7846 H 771.894 -4.05381 0.938389 0
M  V30 7847 H 770.77 -5.43022 0.80114 0
M  V30 7848 H 771.031 -4.38224 -0.584171 0
M  V30 7849 N 770.09 -0.729906 -1.39679 0
M  V30 7850 C 771.037 -0.0866063 -2.30637 0
M  V30 7851 C 772.007 0.735115 -1.48947 0
M  V30 7852 O 773.192 0.696125 -1.77648 0
M  V30 7853 C 770.332 0.818524 -3.35252 0
M  V30 7854 C 769.445 -0.0152635 -4.31997 0
M  V30 7855 C 768.58 0.890669 -5.2368 0
M  V30 7856 C 767.619 0.0518246 -6.12078 0
M  V30 7857 N 766.756 0.913411 -6.96133 0
M  V30 7858 H 771.596 -0.867925 -2.85081 0
M  V30 7859 H 769.133 -0.439673 -1.40376 0
M  V30 7860 H 771.091 1.3577 -3.9449 0
M  V30 7861 H 769.721 1.56587 -2.82277 0
M  V30 7862 H 768.773 -0.671794 -3.74421 0
M  V30 7863 H 770.085 -0.664086 -4.9436 0
M  V30 7864 H 769.239 1.49787 -5.87919 0
M  V30 7865 H 767.978 1.57328 -4.61627 0
M  V30 7866 H 766.983 -0.568209 -5.46856 0
M  V30 7867 H 768.208 -0.627497 -6.76195 0
M  V30 7868 H 766.154 1.58141 -6.36653 0
M  V30 7869 H 766.071 0.320952 -7.55318 0
M  V30 7870 H 767.339 1.50633 -7.64807 0
M  V30 7871 N 771.568 1.50203 -0.477153 0
M  V30 7872 C 772.478 2.32421 0.319027 0
M  V30 7873 C 773.494 1.43075 0.990233 0
M  V30 7874 O 774.67 1.76123 0.976873 0
M  V30 7875 C 771.735 3.17909 1.38328 0
M  V30 7876 C 770.796 4.23082 0.728036 0
M  V30 7877 C 770.029 5.04484 1.74158 0
M  V30 7878 O 770.252 4.8705 2.96881 0
M  V30 7879 O 769.186 5.8747 1.31006 0
M  V30 7880 H 773.012 3.01638 -0.353281 0
M  V30 7881 H 770.597 1.47478 -0.238891 0
M  V30 7882 H 772.479 3.70937 1.9996 0
M  V30 7883 H 771.154 2.51413 2.03895 0
M  V30 7884 H 770.061 3.7403 0.07261 0
M  V30 7885 H 771.394 4.92065 0.115216 0
M  V30 7886 N 773.046 0.209999 1.56195 0
M  V30 7887 C 774.009 -0.691232 2.18528 0
M  V30 7888 C 775.009 -1.13013 1.14388 0
M  V30 7889 O 776.199 -1.04081 1.39688 0
M  V30 7890 C 773.331 -1.94551 2.79934 0
M  V30 7891 H 774.524 -0.147953 2.99535 0
M  V30 7892 H 772.077 -0.0396243 1.5625 0
M  V30 7893 H 772.812 -2.53094 2.02766 0
M  V30 7894 H 772.597 -1.63938 3.56184 0
M  V30 7895 H 774.087 -2.58785 3.2775 0
M  V30 7896 N 774.524 -1.57472 -0.0634922 0
M  V30 7897 C 775.773 -1.86837 -0.759928 0
M  V30 7898 C 776.086 -0.803823 -1.7832 0
M  V30 7899 O 777.292 -0.985578 -2.52979 0
M  V30 7900 C 775.748 -3.31448 -1.4025 0
M  V30 7901 C 775.356 -4.46052 -0.417368 0
M  V30 7902 C 777.1 -3.70003 -2.08082 0
M  V30 7903 C 775.007 -5.81707 -1.06633 0
M  V30 7904 H 773.937 -0.697009 -0.287567 0
M  V30 7905 H 776.588 -1.83495 -0.0133914 0
M  V30 7906 H 774.97 -3.29427 -2.19759 0
M  V30 7907 H 776.144 -4.5948 0.348503 0
M  V30 7908 H 774.459 -4.16104 0.156955 0
M  V30 7909 H 777.056 -4.68653 -2.57426 0
M  V30 7910 H 777.399 -3.00226 -2.88393 0
M  V30 7911 H 777.932 -3.7405 -1.35394 0
M  V30 7912 H 774.671 -6.54798 -0.303374 0
M  V30 7913 H 774.191 -5.72064 -1.80286 0
M  V30 7914 H 775.87 -6.27317 -1.58376 0
M  V30 7915 N 776.003 0.335068 -1.53997 0
M  V30 7916 C 777.28 1.09188 -1.62288 0
M  V30 7917 C 777.66 2.0626 -0.449458 0
M  V30 7918 O 777.008 2.21596 0.557444 0
M  V30 7919 C 777.218 1.80403 -2.98757 0
M  V30 7920 C 778.566 2.33841 -3.54406 0
M  V30 7921 O 779.59 1.90487 -3.00987 0
M  V30 7922 O 778.449 3.1318 -4.47862 0
M  V30 7923 H 775.543 0.502621 -0.656736 0
M  V30 7924 H 778.089 0.33588 -1.66343 0
M  V30 7925 H 776.861 1.09732 -3.75599 0
M  V30 7926 H 776.484 2.62841 -2.9833 0
M  V30 7927 N 777.481 1.45874 0.596531 0
M  V30 7928 C 778.444 1.54988 1.68853 0
M  V30 7929 C 779.444 0.428302 1.54991 0
M  V30 7930 O 780.634 0.692158 1.59859 0
M  V30 7931 C 777.766 1.457 3.08195 0
M  V30 7932 H 778.959 2.52294 1.62135 0
M  V30 7933 H 776.512 1.33479 0.813206 0
M  V30 7934 H 777.247 0.496204 3.20481 0
M  V30 7935 H 777.032 2.27061 3.19665 0
M  V30 7936 H 778.522 1.55133 3.87716 0
M  V30 7937 N 778.959 -0.83999 1.33349 0
M  V30 7938 C 780.207 -1.59202 1.24496 0
M  V30 7939 C 780.528 -1.94077 -0.189499 0
M  V30 7940 O 779.798 -1.60868 -1.11796 0
M  V30 7941 H 778.378 -0.590276 0.457802 0
M  V30 7942 H 781.04 -1.00394 1.67054 0
M  V30 7943 H 780.136 -2.52247 1.83788 0
M  V30 7944 N 780.437 -1.16799 -1.0581 0
M  V30 7945 C 781.347 -0.893492 -2.16919 0
M  V30 7946 C 782.363 0.136061 -1.73467 0
M  V30 7947 O 783.539 -0.0417348 -2.01357 0
M  V30 7948 C 780.604 -0.403763 -3.44341 0
M  V30 7949 C 779.665 -1.49914 -4.02274 0
M  V30 7950 C 778.898 -1.03269 -5.23614 0
M  V30 7951 O 779.121 0.115647 -5.70283 0
M  V30 7952 O 778.055 -1.8231 -5.73626 0
M  V30 7953 H 781.881 -1.82274 -2.42919 0
M  V30 7954 H 779.466 -0.948361 -1.1544 0
M  V30 7955 H 781.348 -0.137874 -4.21174 0
M  V30 7956 H 780.023 0.497413 -3.19855 0
M  V30 7957 H 778.93 -1.81883 -3.26909 0
M  V30 7958 H 780.263 -2.3758 -4.31064 0
M  V30 7959 N 781.915 1.24427 -0.967243 0
M  V30 7960 C 782.845 2.2773 -0.515899 0
M  V30 7961 C 783.826 1.64197 0.444227 0
M  V30 7962 O 785.011 1.91193 0.340451 0
M  V30 7963 C 782.141 3.46751 0.195149 0
M  V30 7964 C 781.095 4.22548 -0.680953 0
M  V30 7965 C 780.421 5.34456 0.161561 0
M  V30 7966 C 781.721 4.83914 -1.96532 0
M  V30 7967 H 783.415 2.65735 -1.37933 0
M  V30 7968 H 780.961 1.27742 -0.664681 0
M  V30 7969 H 782.914 4.18153 0.522117 0
M  V30 7970 H 781.638 3.07771 1.09292 0
M  V30 7971 H 780.297 3.52946 -0.991186 0
M  V30 7972 H 779.945 4.91716 1.05947 0
M  V30 7973 H 779.645 5.86087 -0.421418 0
M  V30 7974 H 781.169 6.08685 0.483211 0
M  V30 7975 H 782.583 5.47392 -1.70396 0
M  V30 7976 H 780.98 5.45775 -2.49499 0
M  V30 7977 H 782.05 4.05393 -2.66053 0
M  V30 7978 O 783.432 0.875006 1.35742 0
M  V30 7979 H 784.123 0.476549 1.87746 0
M  V30 END ATOM
M  V30 BEGIN BOND
M  V30 END BOND
M  V30 END CTAB
M  END
$$$$
