drugbank_target|O95299 NADH dehydrogenase [ubiquinone] 1 alpha subcomplex subunit 10, mitochondrial (DB00157)
 OpenBabel12092119233D

  0  0  0     0  0            999 V3000
M  V30 BEGIN CTAB
M  V30 COUNTS 5744 5811 0 0 0
M  V30 BEGIN ATOM
M  V30 1 H -0.908 1.98254 -0.117106 0
M  V30 2 N 0 1.576 0 0
M  V30 3 C 0.933 2.03868 1.02534 0
M  V30 4 C 1.911 0.928543 1.3348 0
M  V30 5 O 3.095 1.19667 1.45644 0
M  V30 6 C 0.222 2.43627 2.35294 0
M  V30 7 C -0.732 3.65373 2.2001 0
M  V30 8 S 0.101 5.13292 1.52614 0
M  V30 9 C 1.257 5.56322 2.86805 0
M  V30 10 H 1.49 2.90518 0.631377 0
M  V30 11 H -0.977 1.52953 0.210867 0
M  V30 12 H 0.981 2.67203 3.11629 0
M  V30 13 H -0.358 1.57376 2.7183 0
M  V30 14 H -1.165 3.90944 3.18086 0
M  V30 15 H -1.563 3.418 1.51819 0
M  V30 16 H 0.729 5.58782 3.83104 0
M  V30 17 H 1.672 6.56266 2.65933 0
M  V30 18 H 2.08 4.83886 2.90714 0
M  V30 19 N 1.4781 -0.272755 1.55222 0
M  V30 20 C 2.4411 -1.32041 1.87344 0
M  V30 21 C 3.4411 -1.42342 0.74803 0
M  V30 22 O 4.6311 -1.41488 1.0162 0
M  V30 23 C 1.7631 -2.70173 2.07893 0
M  V30 24 H 2.9561 -1.04789 2.80997 0
M  V30 25 H 0.5091 -0.51083 1.47717 0
M  V30 26 H 1.2441 -3.02605 1.16622 0
M  V30 27 H 1.0291 -2.64082 2.89833 0
M  V30 28 H 2.5191 -3.45869 2.34017 0
M  V30 29 N 2.9562 -1.48159 -0.537278 0
M  V30 30 C 3.8862 -1.65029 -1.6519 0
M  V30 31 C 4.8672 -0.499281 -1.62607 0
M  V30 32 O 6.0522 -0.730972 -1.79918 0
M  V30 33 C 3.1822 -1.68303 -3.03795 0
M  V30 34 C 2.1362 -2.8283 -3.21234 0
M  V30 35 C 1.4622 -2.71189 -4.60826 0
M  V30 36 C 2.7622 -4.24211 -3.04701 0
M  V30 37 H 4.4562 -2.58341 -1.51328 0
M  V30 38 H 2.0022 -1.24325 -0.726585 0
M  V30 39 H 3.9552 -1.78693 -3.81637 0
M  V30 40 H 2.6792 -0.715635 -3.18663 0
M  V30 41 H 1.3382 -2.71983 -2.45807 0
M  V30 42 H 0.9862 -1.72435 -4.7252 0
M  V30 43 H 0.6862 -3.48035 -4.7344 0
M  V30 44 H 2.2102 -2.83537 -5.40777 0
M  V30 45 H 3.6242 -4.3593 -3.72341 0
M  V30 46 H 2.0212 -5.01998 -3.28813 0
M  V30 47 H 3.0912 -4.41184 -2.01209 0
M  V30 48 N 4.4343 0.785586 -1.36625 0
M  V30 49 C 5.8503 1.08419 -1.17122 0
M  V30 50 C 6.0503 2.015 0.00208491 0
M  V30 51 O 5.1063 2.43551 0.666278 0
M  V30 52 C 6.4193 1.69498 -2.48377 0
M  V30 53 C 7.9673 1.81821 -2.54775 0
M  V30 54 C 8.4423 2.46315 -3.86126 0
M  V30 55 N 9.9333 2.53779 -3.87492 0
M  V30 56 C 10.6683 3.045 -4.85868 0
M  V30 57 N 10.1643 3.55499 -5.94637 0
M  V30 58 N 11.9573 3.03247 -4.73284 0
M  V30 59 H 4.1083 0.167264 -2.1174 0
M  V30 60 H 6.3713 0.13682 -0.938075 0
M  V30 61 H 6.0773 1.08571 -3.34522 0
M  V30 62 H 5.9513 2.6896 -2.64462 0
M  V30 63 H 8.3383 2.41884 -1.69045 0
M  V30 64 H 8.4193 0.811532 -2.42586 0
M  V30 65 H 8.0633 1.86895 -4.72263 0
M  V30 66 H 7.9933 3.47561 -3.95612 0
M  V30 67 H 10.4843 2.17672 -3.08913 0
M  V30 68 H 10.7973 3.92562 -6.65669 0
M  V30 69 H 9.1423 3.5364 -5.98301 0
M  V30 70 H 12.3333 2.62696 -3.87438 0
M  V30 71 H 12.5063 3.42467 -5.50109 0
M  V30 72 N 5.9124 1.20967 1.01018 0
M  V30 73 C 6.8424 0.988272 2.11555 0
M  V30 74 C 7.8234 -0.0849778 1.69888 0
M  V30 75 O 9.0084 0.0738202 1.9406 0
M  V30 76 C 6.1384 0.546528 3.42973 0
M  V30 77 C 5.0924 1.56375 3.9841 0
M  V30 78 C 4.4184 0.97842 5.25672 0
M  V30 79 C 5.7184 2.94922 4.31066 0
M  V30 80 H 7.4124 1.91276 2.30334 0
M  V30 81 H 4.9584 0.921073 1.1069 0
M  V30 82 H 6.9114 0.378839 4.19694 0
M  V30 83 H 5.6354 -0.413598 3.23971 0
M  V30 84 H 4.2944 1.71891 3.23804 0
M  V30 85 H 3.9424 0.0101688 5.02999 0
M  V30 86 H 3.6424 1.65784 5.63728 0
M  V30 87 H 5.1664 0.821939 6.05043 0
M  V30 88 H 6.5804 2.8288 4.9865 0
M  V30 89 H 4.9774 3.5983 4.80253 0
M  V30 90 H 6.0474 3.4616 3.39561 0
M  V30 91 N 7.3905 -1.2043 1.01659 0
M  V30 92 C 8.3205 -2.25466 0.607226 0
M  V30 93 C 9.3015 -1.65853 -0.377716 0
M  V30 94 O 10.4865 -1.92409 -0.263149 0
M  V30 95 C 7.6165 -3.47256 -0.0552949 0
M  V30 96 C 6.5705 -4.19462 0.850632 0
M  V30 97 C 5.8965 -5.34673 0.0538859 0
M  V30 98 C 7.1965 -4.75603 2.15868 0
M  V30 99 H 8.8905 -2.59962 1.48526 0
M  V30 100 H 6.4365 -1.2496 0.715605 0
M  V30 101 H 8.3895 -4.19917 -0.353233 0
M  V30 102 H 7.1135 -3.11924 -0.968045 0
M  V30 103 H 5.7725 -3.48667 1.13257 0
M  V30 104 H 5.4205 -4.95585 -0.860514 0
M  V30 105 H 5.1205 -5.83913 0.657192 0
M  V30 106 H 6.6445 -6.10138 -0.237598 0
M  V30 107 H 8.0585 -5.40083 1.92311 0
M  V30 108 H 6.4555 -5.3528 2.71284 0
M  V30 109 H 7.5255 -3.94346 2.82169 0
M  V30 110 N 8.8686 -0.792821 -1.36206 0
M  V30 111 C 9.8156 -0.191653 -2.30003 0
M  V30 112 C 10.7856 0.666453 -1.52143 0
M  V30 113 O 11.9706 0.61442 -1.80636 0
M  V30 114 C 9.1106 0.664848 -3.38635 0
M  V30 115 C 8.2236 -0.212175 -4.31479 0
M  V30 116 C 7.3586 0.651022 -5.27196 0
M  V30 117 C 6.3976 -0.227247 -6.11678 0
M  V30 118 N 5.5346 0.595127 -6.99573 0
M  V30 119 H 10.3746 -0.996978 -2.80828 0
M  V30 120 H 7.9116 -0.503206 -1.38225 0
M  V30 121 H 9.8696 1.17645 -4.00269 0
M  V30 122 H 8.4996 1.43557 -2.89122 0
M  V30 123 H 7.5516 -0.841777 -3.70969 0
M  V30 124 H 8.8636 -0.888751 -4.90818 0
M  V30 125 H 8.0176 1.2283 -5.94136 0
M  V30 126 H 6.7566 1.36121 -4.68319 0
M  V30 127 H 5.7616 -0.816904 -5.43697 0
M  V30 128 H 6.9866 -0.93509 -6.72631 0
M  V30 129 H 4.9326 1.28955 -6.432 0
M  V30 130 H 4.8496 -0.0236952 -7.55996 0
M  V30 131 H 6.1176 1.15613 -7.70879 0
M  V30 132 N 10.3467 1.47872 -0.545128 0
M  V30 133 C 11.2767 2.32661 0.197793 0
M  V30 134 C 12.2577 1.43041 0.920504 0
M  V30 135 O 13.4427 1.71912 0.90333 0
M  V30 136 C 10.5727 3.24569 1.23582 0
M  V30 137 C 9.5267 4.23333 0.630323 0
M  V30 138 C 8.8527 5.0448 1.77211 0
M  V30 139 C 10.1527 5.20704 -0.407974 0
M  V30 140 H 11.8467 2.95024 -0.510045 0
M  V30 141 H 9.3927 1.4187 -0.246731 0
M  V30 142 H 11.3457 3.8272 1.76362 0
M  V30 143 H 10.0697 2.60236 1.97344 0
M  V30 144 H 8.7287 3.6639 0.123922 0
M  V30 145 H 8.3767 4.36561 2.49847 0
M  V30 146 H 8.0767 5.71339 1.37281 0
M  V30 147 H 9.6007 5.65487 2.3034 0
M  V30 148 H 11.0147 5.7329 0.033305 0
M  V30 149 H 9.4117 5.95699 -0.725486 0
M  V30 150 H 10.4817 4.66917 -1.30828 0
M  V30 151 N 11.8248 0.280983 1.55075 0
M  V30 152 C 12.7878 -0.590896 2.21452 0
M  V30 153 C 13.7878 -1.07682 1.19421 0
M  V30 154 O 14.9778 -0.97605 1.44288 0
M  V30 155 C 12.1098 -1.81587 2.88511 0
M  V30 156 H 13.3028 -0.0112554 2.99898 0
M  V30 157 H 10.8558 0.0316438 1.56268 0
M  V30 158 H 11.5908 -2.43587 2.14093 0
M  V30 159 H 11.3758 -1.4753 3.63287 0
M  V30 160 H 12.8658 -2.43575 3.39206 0
M  V30 161 N 13.3029 -1.57598 0.00835791 0
M  V30 162 C 14.2659 -2.07884 -0.965242 0
M  V30 163 C 15.2659 -0.989825 -1.26725 0
M  V30 164 O 16.4559 -1.25218 -1.21104 0
M  V30 165 C 13.5879 -2.52731 -2.28779 0
M  V30 166 H 14.7809 -2.95178 -0.530112 0
M  V30 167 H 12.3339 -1.54458 -0.239283 0
M  V30 168 H 13.0689 -1.68705 -2.76964 0
M  V30 169 H 12.8539 -3.32272 -2.08177 0
M  V30 170 H 14.3439 -2.91933 -2.98605 0
M  V30 171 N 14.781 0.264519 -1.55364 0
M  V30 172 C 16.009 1.013 -1.80405 0
M  V30 173 C 16.424 1.79618 -0.581622 0
M  V30 174 O 15.781 1.76879 0.449468 0
M  V30 175 C 15.832 1.96487 -3.03439 0
M  V30 176 O 15.553 1.21341 -4.20961 0
M  V30 177 C 17.054 2.83079 -3.41147 0
M  V30 178 H 14.274 0.298875 -0.600762 0
M  V30 179 H 16.818 0.292736 -2.02394 0
M  V30 180 H 14.973 2.63965 -2.83551 0
M  V30 181 H 15.387 1.85573 -4.90574 0
M  V30 182 H 16.861 3.4565 -4.30384 0
M  V30 183 H 17.338 3.53286 -2.60932 0
M  V30 184 H 17.944 2.2108 -3.63323 0
M  V30 185 N 16.2591 1.48442 0.529413 0
M  V30 186 C 17.4841 1.60406 1.31471 0
M  V30 187 C 17.9091 0.264738 1.86228 0
M  V30 188 O 17.2671 -0.763668 1.64432 0
M  V30 189 C 17.3151 2.65419 2.44101 0
M  V30 190 O 16.4191 2.22618 3.47153 0
M  V30 191 H 15.7601 0.537863 0.389357 0
M  V30 192 H 18.2901 1.94432 0.636965 0
M  V30 193 H 18.3001 2.86709 2.90279 0
M  V30 194 H 16.9751 3.62652 2.03608 0
M  V30 195 H 15.5521 2.11543 3.0709 0
M  V30 196 N 17.7372 -0.778329 1.37039 0
M  V30 197 C 18.7002 -1.87301 1.32102 0
M  V30 198 C 19.7002 -1.59198 0.226405 0
M  V30 199 O 20.8902 -1.67403 0.481861 0
M  V30 200 C 18.0222 -3.24309 1.05055 0
M  V30 201 H 19.2152 -1.93093 2.29467 0
M  V30 202 H 16.7682 -0.977358 1.21973 0
M  V30 203 H 17.5032 -3.24196 0.0819373 0
M  V30 204 H 17.2882 -3.46098 1.84279 0
M  V30 205 H 18.7782 -4.04382 1.04234 0
M  V30 206 N 19.2153 -1.21501 -1.00376 0
M  V30 207 C 20.4403 -1.05977 -1.78279 0
M  V30 208 C 20.8653 0.385994 -1.84097 0
M  V30 209 O 20.2233 1.27849 -1.28547 0
M  V30 210 C 20.2713 -1.66302 -3.19963 0
M  V30 211 O 19.3753 -0.909333 -4.0225 0
M  V30 212 H 18.7163 -0.372906 -0.549397 0
M  V30 213 H 21.2463 -1.6107 -1.26165 0
M  V30 214 H 21.2563 -1.70574 -3.70632 0
M  V30 215 H 19.9313 -2.71515 -3.15043 0
M  V30 216 H 18.5083 -0.941795 -3.60811 0
M  V30 217 N 20.6934 1.19889 -1.02296 0
M  V30 218 C 21.6564 2.21116 -0.603351 0
M  V30 219 C 22.6564 1.5738 0.329884 0
M  V30 220 O 23.8464 1.73802 0.117702 0
M  V30 221 C 20.9784 3.40696 0.117992 0
M  V30 222 H 22.1714 2.59754 -1.49893 0
M  V30 223 H 19.7244 1.33463 -0.813468 0
M  V30 224 H 20.4594 3.07569 1.0282 0
M  V30 225 H 20.2444 3.88188 -0.552511 0
M  V30 226 H 21.7344 4.15692 0.398696 0
M  V30 227 N 22.1715 0.800033 1.35784 0
M  V30 228 C 23.5875 0.482977 1.52117 0
M  V30 229 C 23.7875 -0.996948 1.75109 0
M  V30 230 O 22.8435 -1.78216 1.78872 0
M  V30 231 C 24.1565 1.32264 2.70049 0
M  V30 232 C 25.7045 1.31742 2.83924 0
M  V30 233 C 26.1795 2.14106 4.04874 0
M  V30 234 N 27.6705 2.11607 4.12039 0
M  V30 235 C 28.4055 2.72099 5.04727 0
M  V30 236 N 27.9015 3.41492 6.02789 0
M  V30 237 N 29.6945 2.61776 4.97423 0
M  V30 238 H 21.8455 1.75856 1.19115 0
M  V30 239 H 24.1085 0.748122 0.582252 0
M  V30 240 H 23.8145 2.37261 2.59616 0
M  V30 241 H 23.6885 0.971303 3.6448 0
M  V30 242 H 26.0755 0.275333 2.93813 0
M  V30 243 H 26.1565 1.70859 1.9037 0
M  V30 244 H 25.8005 3.18351 3.95746 0
M  V30 245 H 25.7305 1.72353 4.97596 0
M  V30 246 H 28.2215 1.61112 3.41835 0
M  V30 247 H 28.5345 3.84953 6.70098 0
M  V30 248 H 26.8795 3.45596 6.02983 0
M  V30 249 H 30.0705 2.07157 4.19766 0
M  V30 250 H 30.2435 3.0921 5.69468 0
M  V30 251 N 23.6496 -1.47581 0.552962 0
M  V30 252 C 24.8956 -2.02782 0.0273648 0
M  V30 253 C 25.2286 -1.42687 -1.31734 0
M  V30 254 O 24.5036 -0.580897 -1.85623 0
M  V30 255 C 24.7866 -3.60031 -0.0702371 0
M  V30 256 C 24.6396 -4.30566 1.30126 0
M  V30 257 C 25.9586 -4.33028 -0.785771 0
M  V30 258 H 23.0776 -0.736912 0.0114185 0
M  V30 259 H 25.7196 -1.76056 0.714432 0
M  V30 260 H 23.8696 -3.82932 -0.655382 0
M  V30 261 H 25.5416 -4.19018 1.92929 0
M  V30 262 H 23.7846 -3.91086 1.87709 0
M  V30 263 H 24.4556 -5.39114 1.18573 0
M  V30 264 H 26.9316 -4.15095 -0.288982 0
M  V30 265 H 25.8076 -5.42695 -0.823013 0
M  V30 266 H 26.0686 -4.01945 -1.841 0
M  V30 267 N 25.1277 -0.289203 -1.54924 0
M  V30 268 C 26.3737 0.323998 -2.00195 0
M  V30 269 C 26.7067 1.54441 -1.17735 0
M  V30 270 O 25.9817 1.92875 -0.250878 0
M  V30 271 C 26.2647 0.692276 -3.53383 0
M  V30 272 C 26.1177 -0.536457 -4.46589 0
M  V30 273 C 27.4367 1.52335 -4.12895 0
M  V30 274 H 24.5557 0.116289 -0.727768 0
M  V30 275 H 27.1977 -0.398954 -1.85764 0
M  V30 276 H 25.3477 1.30822 -3.65811 0
M  V30 277 H 27.0197 -1.17499 -4.46085 0
M  V30 278 H 25.2627 -1.17192 -4.1767 0
M  V30 279 H 25.9337 -0.234806 -5.515 0
M  V30 280 H 28.4097 1.00302 -4.0383 0
M  V30 281 H 27.2857 1.74982 -5.20262 0
M  V30 282 H 27.5467 2.50886 -3.64018 0
M  V30 283 N 26.6058 1.57591 -0.0167156 0
M  V30 284 C 27.5688 2.08393 0.954204 0
M  V30 285 C 28.5688 0.996531 1.26198 0
M  V30 286 O 29.7588 1.25858 1.20438 0
M  V30 287 C 26.8908 2.5394 2.27436 0
M  V30 288 H 28.0838 2.95455 0.514451 0
M  V30 289 H 25.6368 1.54582 0.231089 0
M  V30 290 H 26.3718 1.70171 2.76066 0
M  V30 291 H 26.1568 3.33371 2.06412 0
M  V30 292 H 27.6468 2.93512 2.97053 0
M  V30 293 N 28.0839 -0.256276 1.55502 0
M  V30 294 C 29.0469 -1.30047 1.88734 0
M  V30 295 C 30.0469 -1.4154 0.763086 0
M  V30 296 O 31.2369 -1.40403 1.03115 0
M  V30 297 C 28.3689 -2.67953 2.10747 0
M  V30 298 H 29.5619 -1.01802 2.82093 0
M  V30 299 H 27.1149 -0.495134 1.4825 0
M  V30 300 H 27.8499 -3.01351 1.19825 0
M  V30 301 H 27.6349 -2.60993 2.92617 0
M  V30 302 H 29.1249 -3.43368 2.37673 0
M  V30 303 N 29.562 -1.4872 -0.521534 0
M  V30 304 C 30.81 -1.56857 -1.27437 0
M  V30 305 C 31.131 -0.247982 -1.93417 0
M  V30 306 O 30.401 0.731151 -1.81744 0
M  V30 307 H 28.981 -0.577885 -0.473347 0
M  V30 308 H 31.643 -1.85233 -0.606205 0
M  V30 309 H 30.739 -2.35402 -2.0492 0
M  V30 310 N 31.0401 0.771051 -1.3745 0
M  V30 311 C 32.0031 1.86598 -1.33093 0
M  V30 312 C 33.0031 1.59076 -0.234845 0
M  V30 313 O 34.1931 1.67145 -0.490732 0
M  V30 314 C 31.3251 3.23747 -1.06773 0
M  V30 315 H 32.5181 1.91873 -2.30488 0
M  V30 316 H 30.0711 0.970876 -1.2249 0
M  V30 317 H 30.8061 3.24148 -0.099129 0
M  V30 318 H 30.5911 3.45115 -1.86112 0
M  V30 319 H 32.0811 4.03824 -1.06377 0
M  V30 320 N 32.5182 1.22032 0.997298 0
M  V30 321 C 33.4502 0.944263 2.08845 0
M  V30 322 C 34.4632 -0.0754663 1.62625 0
M  V30 323 O 35.6522 0.157994 1.77799 0
M  V30 324 C 32.7522 0.397723 3.36558 0
M  V30 325 C 31.9252 1.47362 4.11829 0
M  V30 326 C 30.9842 0.934951 5.17827 0
M  V30 327 O 30.0102 1.62016 5.45655 0
M  V30 328 N 31.2122 -0.245895 5.79979 0
M  V30 329 H 33.9772 1.88363 2.33109 0
M  V30 330 H 31.5382 1.12661 1.16272 0
M  V30 331 H 33.5302 0.0227771 4.04694 0
M  V30 332 H 32.1002 -0.446646 3.09393 0
M  V30 333 H 31.3202 2.02208 3.38386 0
M  V30 334 H 32.6082 2.19764 4.58891 0
M  V30 335 H 32.0062 -0.819475 5.59733 0
M  V30 336 H 30.5632 -0.562272 6.4937 0
M  V30 337 N 33.9963 -1.19345 1.0293 0
M  V30 338 C 35.4123 -1.41069 0.746446 0
M  V30 339 C 35.6123 -1.90078 -0.668776 0
M  V30 340 O 34.6683 -2.0778 -1.4347 0
M  V30 341 C 35.9813 -2.42141 1.78292 0
M  V30 342 C 37.5293 -2.55887 1.80252 0
M  V30 343 C 38.0043 -3.60214 2.8286 0
M  V30 344 N 39.4953 -3.67711 2.81679 0
M  V30 345 C 40.2303 -4.48128 3.57727 0
M  V30 346 N 39.7263 -5.32248 4.43491 0
M  V30 347 N 41.5193 -4.42782 3.46267 0
M  V30 348 H 33.6703 -0.858536 1.94275 0
M  V30 349 H 35.9333 -0.439541 0.839945 0
M  V30 350 H 35.6393 -2.13155 2.79746 0
M  V30 351 H 35.5133 -3.41323 1.60557 0
M  V30 352 H 37.9003 -2.84196 0.794757 0
M  V30 353 H 37.9813 -1.56858 2.02062 0
M  V30 354 H 37.6253 -3.32647 3.83807 0
M  V30 355 H 37.5553 -4.58895 2.58307 0
M  V30 356 H 40.0463 -3.07634 2.19476 0
M  V30 357 H 40.3593 -5.90729 4.98256 0
M  V30 358 H 38.7043 -5.31707 4.47564 0
M  V30 359 H 41.8953 -3.76107 2.78677 0
M  V30 360 H 42.0683 -5.05215 4.05785 0
M  V30 361 N 35.4744 -0.807222 -1.35358 0
M  V30 362 C 36.7204 -0.388463 -1.99045 0
M  V30 363 C 37.0534 1.04184 -1.63888 0
M  V30 364 O 36.3284 1.72292 -0.902535 0
M  V30 365 C 36.6114 -0.572783 -3.55515 0
M  V30 366 C 36.4644 -2.04807 -4.00468 0
M  V30 367 C 37.7834 0.00114064 -4.401 0
M  V30 368 H 34.9024 -0.142619 -0.723069 0
M  V30 369 H 37.5444 -1.01687 -1.60498 0
M  V30 370 H 35.6944 -0.0378425 -3.88482 0
M  V30 371 H 37.3664 -2.64544 -3.77908 0
M  V30 372 H 35.6094 -2.54427 -3.51353 0
M  V30 373 H 36.2804 -2.12792 -5.09337 0
M  V30 374 H 38.7564 -0.455716 -4.13597 0
M  V30 375 H 37.6324 -0.157737 -5.48673 0
M  V30 376 H 37.8934 1.09488 -4.28328 0
M  V30 377 N 36.9525 1.47285 -0.560781 0
M  V30 378 C 38.3685 1.58065 -0.22081 0
M  V30 379 C 38.5685 1.55892 1.27671 0
M  V30 380 O 37.6245 1.46422 2.0571 0
M  V30 381 C 38.9375 2.88418 -0.850625 0
M  V30 382 C 40.4855 3.02009 -0.822184 0
M  V30 383 C 40.9605 4.35066 -1.43113 0
M  V30 384 N 42.4515 4.41711 -1.39448 0
M  V30 385 C 43.1865 5.43237 -1.83525 0
M  V30 386 N 42.6825 6.51555 -2.35474 0
M  V30 387 N 44.4755 5.34304 -1.74574 0
M  V30 388 H 36.6265 1.46941 -1.53369 0
M  V30 389 H 38.8895 0.699558 -0.639783 0
M  V30 390 H 38.5955 2.95755 -1.9032 0
M  V30 391 H 38.4695 3.75612 -0.345773 0
M  V30 392 H 40.8565 2.94266 0.221714 0
M  V30 393 H 40.9375 2.16347 -1.36483 0
M  V30 394 H 40.5815 4.43565 -2.47412 0
M  V30 395 H 40.5115 5.19465 -0.863899 0
M  V30 396 H 43.0025 3.64027 -1.01452 0
M  V30 397 H 43.3155 7.25203 -2.67021 0
M  V30 398 H 41.6605 6.52435 -2.39487 0
M  V30 399 H 44.8515 4.48581 -1.33763 0
M  V30 400 H 45.0245 6.13288 -2.09242 0
M  V30 401 N 38.4306 0.297415 1.54768 0
M  V30 402 C 39.6786 -0.312295 1.99673 0
M  V30 403 C 39.9996 -1.54686 1.18732 0
M  V30 404 O 39.2696 -1.93854 0.282382 0
M  V30 405 H 37.8496 -0.118381 0.73756 0
M  V30 406 H 40.5116 0.407915 1.90583 0
M  V30 407 H 39.6076 -0.586813 3.06534 0
M  V30 408 N 39.9087 -1.5758 0.0250728 0
M  V30 409 C 41.1577 -1.90811 -0.653767 0
M  V30 410 C 41.4707 -0.90273 -1.73523 0
M  V30 411 O 42.6767 -1.12614 -2.47043 0
M  V30 412 C 41.1327 -3.38804 -1.21409 0
M  V30 413 C 40.7407 -4.47692 -0.166126 0
M  V30 414 C 42.4847 -3.81108 -1.86967 0
M  V30 415 C 40.3917 -5.86779 -0.737856 0
M  V30 416 H 39.3217 -0.712063 -0.247956 0
M  V30 417 H 41.9727 -1.83281 0.0897137 0
M  V30 418 H 40.3547 -3.41252 -2.00905 0
M  V30 419 H 41.5287 -4.56797 0.606079 0
M  V30 420 H 39.8437 -4.14565 0.390466 0
M  V30 421 H 42.4407 -4.82375 -2.30692 0
M  V30 422 H 42.7837 -3.15953 -2.71071 0
M  V30 423 H 43.3167 -3.81065 -1.14167 0
M  V30 424 H 40.0557 -6.55468 0.0649577 0
M  V30 425 H 39.5757 -5.81288 -1.47864 0
M  V30 426 H 41.2547 -6.35223 -1.22884 0
M  V30 427 N 41.3868 0.248026 -1.55636 0
M  V30 428 C 42.3368 1.30994 -1.86614 0
M  V30 429 C 43.3208 1.43543 -0.726918 0
M  V30 430 O 44.5128 1.46804 -0.988818 0
M  V30 431 C 41.6418 2.6656 -2.16335 0
M  V30 432 C 40.7278 2.58019 -3.36581 0
M  V30 433 N 41.1188 2.1911 -4.55878 0
M  V30 434 C 39.4168 2.89035 -3.39669 0
M  V30 435 C 40.1178 2.21174 -5.38012 0
M  V30 436 N 39.0938 2.60632 -4.77045 0
M  V30 437 H 42.8958 0.999583 -2.76379 0
M  V30 438 H 40.4098 0.456652 -1.55848 0
M  V30 439 H 42.4068 3.43194 -2.36692 0
M  V30 440 H 41.0668 2.98463 -1.27867 0
M  V30 441 H 42.0778 1.90672 -4.81523 0
M  V30 442 H 38.7548 3.25485 -2.61469 0
M  V30 443 H 40.1448 1.9344 -6.43452 0
M  V30 444 N 42.8649 1.48995 0.513639 0
M  V30 445 C 44.0899 1.61792 1.29762 0
M  V30 446 C 44.5149 0.284475 1.85936 0
M  V30 447 O 43.8729 -0.746185 1.65232 0
M  V30 448 C 43.9209 2.67993 2.41272 0
M  V30 449 O 43.0249 2.26287 3.44772 0
M  V30 450 H 42.3659 0.541963 0.38363 0
M  V30 451 H 44.8959 1.95097 0.616307 0
M  V30 452 H 44.9059 2.89772 2.87221 0
M  V30 453 H 43.5809 3.64791 1.9975 0
M  V30 454 H 42.1579 2.14788 3.04829 0
M  V30 455 N 44.343 -0.763751 1.37857 0
M  V30 456 C 45.568 -1.55805 1.36893 0
M  V30 457 C 45.993 -1.88054 -0.0416135 0
M  V30 458 O 45.351 -1.49825 -1.02089 0
M  V30 459 C 45.399 -2.84012 2.22192 0
M  V30 460 O 44.503 -3.78732 1.63204 0
M  V30 461 H 43.844 -0.471638 0.46739 0
M  V30 462 H 46.374 -0.944657 1.81487 0
M  V30 463 H 46.384 -3.33037 2.35691 0
M  V30 464 H 45.059 -2.59869 3.24716 0
M  V30 465 H 43.636 -3.37402 1.58791 0
M  V30 466 N 45.8211 -1.22559 -0.990812 0
M  V30 467 C 47.0671 -1.05297 -1.73322 0
M  V30 468 C 47.4001 0.410655 -1.89808 0
M  V30 469 O 46.6751 1.30439 -1.44277 0
M  V30 470 C 46.9581 -1.76713 -3.13759 0
M  V30 471 C 46.8111 -3.30684 -3.04907 0
M  V30 472 C 48.1301 -1.52121 -4.12974 0
M  V30 473 H 45.2491 -0.38392 -0.629106 0
M  V30 474 H 47.8911 -1.50926 -1.15418 0
M  V30 475 H 46.0411 -1.37924 -3.63193 0
M  V30 476 H 47.7131 -3.7893 -2.63077 0
M  V30 477 H 45.9561 -3.60253 -2.41661 0
M  V30 478 H 46.6271 -3.75833 -4.04294 0
M  V30 479 H 49.1031 -1.85819 -3.72304 0
M  V30 480 H 47.9791 -2.04582 -5.0935 0
M  V30 481 H 48.2401 -0.454257 -4.3976 0
M  V30 482 N 47.2992 1.18797 -1.03562 0
M  V30 483 C 48.2312 2.21731 -0.580337 0
M  V30 484 C 49.2442 1.59051 0.347349 0
M  V30 485 O 50.4332 1.77929 0.142669 0
M  V30 486 C 47.5332 3.38459 0.172805 0
M  V30 487 C 46.7062 4.3072 -0.761496 0
M  V30 488 C 45.7652 5.26174 -0.0525547 0
M  V30 489 O 44.7912 5.65108 -0.681333 0
M  V30 490 N 45.9932 5.67624 1.21586 0
M  V30 491 H 48.7582 2.61417 -1.46565 0
M  V30 492 H 46.3192 1.33531 -0.915476 0
M  V30 493 H 48.3112 3.99335 0.656793 0
M  V30 494 H 46.8812 2.97507 0.959602 0
M  V30 495 H 46.1012 3.67525 -1.42544 0
M  V30 496 H 47.3892 4.89267 -1.39626 0
M  V30 497 H 46.7872 5.38038 1.74732 0
M  V30 498 H 45.3442 6.30721 1.64421 0
M  V30 499 N 48.7773 0.814389 1.34928 0
M  V30 500 C 50.0173 0.404165 2.00364 0
M  V30 501 C 50.3813 -1.01166 1.63185 0
M  V30 502 O 51.5823 -1.52431 2.21401 0
M  V30 503 C 49.8533 0.590718 3.52484 0
M  V30 504 S 51.4123 0.272075 4.37956 0
M  V30 505 H 48.2303 0.15311 0.694319 0
M  V30 506 H 50.8323 1.05834 1.64376 0
M  V30 507 H 49.5363 1.62099 3.77031 0
M  V30 508 H 49.0673 -0.0785013 3.93322 0
M  V30 509 H 51.0823 -0.917405 4.87645 0
M  V30 510 N 50.2554 -1.46986 0.568584 0
M  V30 511 C 51.2024 -2.30153 -0.172707 0
M  V30 512 C 52.1724 -1.39759 -0.897586 0
M  V30 513 O 53.3574 -1.68716 -0.891044 0
M  V30 514 C 50.4974 -3.23952 -1.1895 0
M  V30 515 C 49.6104 -4.29441 -0.469517 0
M  V30 516 C 48.7454 -5.1038 -1.47259 0
M  V30 517 C 47.7844 -6.07632 -0.738225 0
M  V30 518 N 46.9214 -6.8149 -1.68868 0
M  V30 519 H 51.7614 -2.93019 0.542596 0
M  V30 520 H 49.2984 -1.44422 0.279401 0
M  V30 521 H 51.2564 -3.76767 -1.79173 0
M  V30 522 H 49.8864 -2.62926 -1.87269 0
M  V30 523 H 48.9384 -3.79594 0.247467 0
M  V30 524 H 50.2504 -4.98689 0.105241 0
M  V30 525 H 49.4044 -5.67402 -2.14803 0
M  V30 526 H 48.1434 -4.4106 -2.08128 0
M  V30 527 H 47.1484 -5.49778 -0.0489293 0
M  V30 528 H 48.3734 -6.78966 -0.135129 0
M  V30 529 H 46.3194 -6.14891 -2.28573 0
M  V30 530 H 46.2364 -7.46948 -1.16636 0
M  V30 531 H 47.5044 -7.43078 -2.3549 0
M  V30 532 N 51.7335 -0.305618 -1.54608 0
M  V30 533 C 52.6635 0.561482 -2.26649 0
M  V30 534 C 53.6445 1.13415 -1.26772 0
M  V30 535 O 54.8295 1.16262 -1.55553 0
M  V30 536 C 51.9595 1.73122 -3.01075 0
M  V30 537 C 50.9135 1.2887 -4.08138 0
M  V30 538 C 50.2395 2.54396 -4.70305 0
M  V30 539 C 51.5395 0.416578 -5.20636 0
M  V30 540 H 53.2335 -0.0393902 -2.99374 0
M  V30 541 H 50.7795 -0.020385 -1.43986 0
M  V30 542 H 52.7325 2.34396 -3.50195 0
M  V30 543 H 51.4565 2.3584 -2.25936 0
M  V30 544 H 50.1155 0.698991 -3.59875 0
M  V30 545 H 49.7635 3.15439 -3.918 0
M  V30 546 H 49.4635 2.25486 -5.42614 0
M  V30 547 H 50.9875 3.16464 -5.2219 0
M  V30 548 H 52.4015 0.935116 -5.65622 0
M  V30 549 H 50.7985 0.221046 -5.99693 0
M  V30 550 H 51.8685 -0.557162 -4.81688 0
M  V30 551 N 53.2116 1.57565 -0.0334293 0
M  V30 552 C 54.6276 1.56297 0.322997 0
M  V30 553 C 54.8276 1.03945 1.7262 0
M  V30 554 O 53.8836 0.688109 2.42943 0
M  V30 555 C 55.1966 3.00232 0.167664 0
M  V30 556 C 56.7446 3.12078 0.240107 0
M  V30 557 C 57.2196 4.57859 0.113513 0
M  V30 558 N 58.7106 4.62887 0.170359 0
M  V30 559 C 59.4456 5.73319 0.0962517 0
M  V30 560 N 58.9416 6.92794 -0.0291881 0
M  V30 561 N 60.7346 5.61898 0.150551 0
M  V30 562 H 52.8856 1.89923 -0.950956 0
M  V30 563 H 55.1486 0.873824 -0.367608 0
M  V30 564 H 54.8546 3.42501 -0.799102 0
M  V30 565 H 54.7286 3.654 0.936083 0
M  V30 566 H 57.1156 2.69718 1.19733 0
M  V30 567 H 57.1966 2.49623 -0.558763 0
M  V30 568 H 56.8406 5.009 -0.840314 0
M  V30 569 H 56.7706 5.18299 0.931302 0
M  V30 570 H 59.2616 3.76954 0.26728 0
M  V30 571 H 59.5746 7.7276 -0.0789252 0
M  V30 572 H 57.9196 6.94971 -0.0640299 0
M  V30 573 H 61.1106 4.67448 0.246981 0
M  V30 574 H 61.2836 6.47938 0.0893365 0
M  V30 575 N 54.6897 -0.239769 1.55765 0
M  V30 576 C 55.9197 -0.982743 1.8173 0
M  V30 577 C 56.3277 -1.7917 0.607835 0
M  V30 578 O 55.6707 -1.78525 -0.432973 0
M  V30 579 C 55.7327 -1.96332 3.01155 0
M  V30 580 C 55.3967 -1.34062 4.36894 0
M  V30 581 C 56.3937 -0.739539 5.14613 0
M  V30 582 C 54.0787 -1.35784 4.83599 0
M  V30 583 C 56.0727 -0.163989 6.37189 0
M  V30 584 C 53.7597 -0.778441 6.06122 0
M  V30 585 C 54.7577 -0.182548 6.82756 0
M  V30 586 O 54.4457 0.387887 8.02964 0
M  V30 587 H 54.1777 -0.294481 0.608487 0
M  V30 588 H 56.7317 -0.26572 2.03674 0
M  V30 589 H 54.9617 -2.71884 2.74984 0
M  V30 590 H 56.6507 -2.57032 3.14149 0
M  V30 591 H 57.4167 -0.718687 4.79646 0
M  V30 592 H 53.2957 -1.81105 4.23936 0
M  V30 593 H 56.8397 0.301753 6.96947 0
M  V30 594 H 52.7367 -0.796645 6.40565 0
M  V30 595 H 53.5047 0.28044 8.18019 0
M  V30 596 N 56.1678 -1.49265 -0.50573 0
M  V30 597 C 57.4158 -1.582 -1.25766 0
M  V30 598 C 57.7368 -0.268482 -1.93143 0
M  V30 599 O 57.0068 0.711833 -1.8251 0
M  V30 600 H 55.5868 -0.582873 -0.467191 0
M  V30 601 H 58.2488 -1.85865 -0.586525 0
M  V30 602 H 57.3448 -2.37563 -2.02412 0
M  V30 603 N 57.6459 0.756429 -1.3826 0
M  V30 604 C 58.5789 1.87802 -1.29637 0
M  V30 605 C 59.5569 1.61667 -0.173939 0
M  V30 606 O 60.7409 1.85208 -0.350775 0
M  V30 607 C 57.8679 3.23354 -1.00797 0
M  V30 608 C 56.9139 3.68379 -2.14939 0
M  V30 609 S 57.7469 3.8025 -3.77054 0
M  V30 610 C 58.9029 5.18626 -3.50396 0
M  V30 611 H 59.1359 1.94829 -2.24564 0
M  V30 612 H 56.6689 0.919117 -1.24063 0
M  V30 613 H 58.6269 4.01637 -0.848413 0
M  V30 614 H 57.2879 3.14008 -0.0759369 0
M  V30 615 H 56.4809 4.66693 -1.90299 0
M  V30 616 H 56.0829 2.97242 -2.26988 0
M  V30 617 H 58.3749 6.04289 -3.06334 0
M  V30 618 H 59.3179 5.48286 -4.48094 0
M  V30 619 H 59.7259 4.87289 -2.84973 0
M  V30 620 N 59.124 1.23083 0.984299 0
M  V30 621 C 60.37 1.07221 1.72845 0
M  V30 622 C 60.725 -0.387453 1.88458 0
M  V30 623 O 60.018 -1.28309 1.42293 0
M  V30 624 C 60.212 1.72673 3.1292 0
M  V30 625 C 60.041 3.24853 3.10967 0
M  V30 626 C 58.811 3.93998 3.16376 0
M  V30 627 C 61.009 4.21674 2.94441 0
M  V30 628 N 58.991 5.33192 3.04268 0
M  V30 629 C 60.362 5.47756 2.90453 0
M  V30 630 C 62.417 4.12457 2.78897 0
M  V30 631 C 61.12 6.6568 2.72512 0
M  V30 632 C 63.146 5.3004 2.62319 0
M  V30 633 C 62.508 6.55046 2.59026 0
M  V30 634 H 58.607 0.44685 0.641755 0
M  V30 635 H 61.191 1.55753 1.16829 0
M  V30 636 H 59.362 1.26679 3.67161 0
M  V30 637 H 61.094 1.49824 3.75945 0
M  V30 638 H 57.849 3.45052 3.24401 0
M  V30 639 H 58.273 6.06157 3.015 0
M  V30 640 H 62.915 3.16588 2.80235 0
M  V30 641 H 60.633 7.61689 2.69919 0
M  V30 642 H 64.219 5.24747 2.5126 0
M  V30 643 H 63.099 7.44498 2.46357 0
M  V30 644 N 60.6021 -1.18246 1.0419 0
M  V30 645 C 61.5521 -2.19843 0.604392 0
M  V30 646 C 62.5361 -1.56962 -0.353814 0
M  V30 647 O 63.7281 -1.76156 -0.17267 0
M  V30 648 C 60.8571 -3.43287 -0.0298975 0
M  V30 649 C 59.9431 -4.13288 0.951531 0
M  V30 650 N 60.3341 -4.59271 2.11906 0
M  V30 651 C 58.6321 -4.39165 0.7778 0
M  V30 652 C 59.3331 -5.13173 2.73912 0
M  V30 653 N 58.3091 -5.04763 2.01779 0
M  V30 654 H 62.1111 -2.53089 1.4941 0
M  V30 655 H 59.6251 -1.34465 0.910658 0
M  V30 656 H 61.6221 -4.15334 -0.361037 0
M  V30 657 H 60.2821 -3.11537 -0.915127 0
M  V30 658 H 61.2931 -4.5368 2.49789 0
M  V30 659 H 57.9701 -4.17461 -0.0572331 0
M  V30 660 H 59.3601 -5.58947 3.72864 0
M  V30 661 N 62.0802 -0.821533 -1.34494 0
M  V30 662 C 63.3272 -0.408946 -1.98328 0
M  V30 663 C 63.6552 1.02764 -1.65136 0
M  V30 664 O 62.9102 1.73026 -0.914349 0
M  V30 665 C 63.2092 -0.556512 -3.53041 0
M  V30 666 C 62.8752 -1.95861 -4.0614 0
M  V30 667 C 61.5372 -2.34217 -4.20352 0
M  V30 668 C 63.8892 -2.87523 -4.34718 0
M  V30 669 C 61.2172 -3.63572 -4.6047 0
M  V30 670 C 63.5692 -4.1634 -4.76281 0
M  V30 671 C 62.2332 -4.54675 -4.88699 0
M  V30 672 H 61.5032 -0.149644 -0.725732 0
M  V30 673 H 64.1502 -1.04521 -1.6046 0
M  V30 674 H 62.4552 0.163148 -3.9146 0
M  V30 675 H 64.1522 -0.217826 -4.00408 0
M  V30 676 H 60.7422 -1.65066 -3.95539 0
M  V30 677 H 64.9262 -2.59133 -4.23277 0
M  V30 678 H 60.1822 -3.93101 -4.68275 0
M  V30 679 H 64.3562 -4.87455 -4.97354 0
M  V30 680 H 61.9832 -5.54959 -5.19542 0
M  V30 681 N 63.5583 1.46682 -0.576371 0
M  V30 682 C 64.4883 2.33028 0.148397 0
M  V30 683 C 65.4693 1.44961 0.889956 0
M  V30 684 O 66.6543 1.73789 0.866662 0
M  V30 685 C 63.7843 3.27117 1.1667 0
M  V30 686 C 62.7383 4.24575 0.540386 0
M  V30 687 C 62.0643 5.08126 1.6647 0
M  V30 688 C 63.3643 5.19722 -0.518331 0
M  V30 689 H 65.0583 2.93875 -0.572509 0
M  V30 690 H 62.6043 1.41315 -0.276768 0
M  V30 691 H 64.5573 3.86374 1.68204 0
M  V30 692 H 63.2813 2.64364 1.9178 0
M  V30 693 H 61.9403 3.66571 0.0461769 0
M  V30 694 H 61.5883 4.41762 2.40531 0
M  V30 695 H 61.2883 5.74122 1.25131 0
M  V30 696 H 62.8123 5.70246 2.18293 0
M  V30 697 H 64.2263 5.73232 -0.0883058 0
M  V30 698 H 62.6233 5.94026 -0.851679 0
M  V30 699 H 63.6933 4.64037 -1.40703 0
M  V30 700 N 65.0364 0.313813 1.54444 0
M  V30 701 C 65.9664 -0.549454 2.26943 0
M  V30 702 C 66.9474 -1.12741 1.27372 0
M  V30 703 O 68.1324 -1.15436 1.56167 0
M  V30 704 C 65.2624 -1.71523 3.01989 0
M  V30 705 C 64.2164 -1.26703 4.08816 0
M  V30 706 C 63.5424 -2.51898 4.71647 0
M  V30 707 C 64.8424 -0.388962 5.2085 0
M  V30 708 H 66.5364 0.0552661 2.99349 0
M  V30 709 H 64.0824 0.0280207 1.43973 0
M  V30 710 H 66.0354 -2.32535 3.51433 0
M  V30 711 H 64.7594 -2.34639 2.27183 0
M  V30 712 H 63.4184 -0.679896 3.6024 0
M  V30 713 H 63.0664 -3.13356 3.93468 0
M  V30 714 H 62.7664 -2.22605 5.43802 0
M  V30 715 H 64.2904 -3.1369 5.23861 0
M  V30 716 H 65.7044 -0.905107 5.6611 0
M  V30 717 H 64.1014 -0.18924 5.99802 0
M  V30 718 H 65.1714 0.582699 4.81386 0
M  V30 719 N 66.5145 -1.57545 0.0417849 0
M  V30 720 C 67.7625 -1.91937 -0.632829 0
M  V30 721 C 68.0835 -0.919978 -1.71934 0
M  V30 722 O 67.3535 0.0366064 -1.95866 0
M  V30 723 H 65.9335 -0.708493 -0.236742 0
M  V30 724 H 68.5955 -1.9468 0.0925745 0
M  V30 725 H 67.6915 -2.92912 -1.07746 0
M  V30 726 N 67.9926 0.231505 -1.5589 0
M  V30 727 C 69.2696 0.981096 -1.69215 0
M  V30 728 C 69.6496 2.02799 -0.586164 0
M  V30 729 O 68.9976 2.24823 0.408253 0
M  V30 730 C 69.2076 1.60054 -3.10135 0
M  V30 731 C 70.5556 2.09658 -3.69227 0
M  V30 732 O 71.5796 1.69967 -3.13033 0
M  V30 733 O 70.4386 2.8258 -4.67772 0
M  V30 734 H 67.5326 0.457653 -0.688827 0
M  V30 735 H 70.0786 0.224073 -1.68214 0
M  V30 736 H 68.8506 0.844105 -3.82087 0
M  V30 737 H 68.4736 2.42336 -3.15212 0
M  V30 738 N 69.4707 1.49531 0.497807 0
M  V30 739 C 70.4177 1.66436 1.59899 0
M  V30 740 C 71.3877 0.505793 1.58212 0
M  V30 741 O 72.5727 0.733202 1.7615 0
M  V30 742 C 69.7127 1.7399 2.98029 0
M  V30 743 C 68.8257 3.01172 3.09708 0
M  V30 744 C 67.9607 2.99686 4.38591 0
M  V30 745 C 66.9997 4.21434 4.43914 0
M  V30 746 N 66.1367 4.1784 5.64229 0
M  V30 747 H 70.9767 2.60459 1.44793 0
M  V30 748 H 68.5137 1.29137 0.704423 0
M  V30 749 H 70.4717 1.76352 3.78095 0
M  V30 750 H 69.1017 0.834301 3.11832 0
M  V30 751 H 68.1537 3.08408 2.22685 0
M  V30 752 H 69.4657 3.91165 3.09502 0
M  V30 753 H 68.6197 3.00628 5.2698 0
M  V30 754 H 67.3587 2.07477 4.41367 0
M  V30 755 H 66.3637 4.20733 3.53926 0
M  V30 756 H 67.5887 5.14839 4.42851 0
M  V30 757 H 65.5347 3.28469 5.67841 0
M  V30 758 H 65.4517 5.01571 5.65652 0
M  V30 759 H 66.7197 4.22889 6.54817 0
M  V30 760 N 70.9488 -0.749086 1.3866 0
M  V30 761 C 71.9118 -1.84457 1.36045 0
M  V30 762 C 72.9118 -1.58682 0.260122 0
M  V30 763 O 74.1018 -1.66343 0.517261 0
M  V30 764 C 71.2338 -3.22008 1.11911 0
M  V30 765 H 72.4268 -1.88182 2.33512 0
M  V30 766 H 69.9798 -0.951266 1.24019 0
M  V30 767 H 70.7148 -3.2395 0.150686 0
M  V30 768 H 70.4998 -3.42111 1.91579 0
M  V30 769 H 71.9898 -4.0208 1.12788 0
M  V30 770 N 72.4269 -1.23603 -0.977757 0
M  V30 771 C 73.6519 -1.09735 -1.75991 0
M  V30 772 C 74.0769 0.346858 -1.84874 0
M  V30 773 O 73.4349 1.25093 -1.3123 0
M  V30 774 C 73.4829 -1.73051 -3.16363 0
M  V30 775 O 72.5869 -0.994452 -4.0023 0
M  V30 776 H 71.9279 -0.384476 -0.541364 0
M  V30 777 H 74.4579 -1.6371 -1.2272 0
M  V30 778 H 74.4679 -1.78398 -3.66931 0
M  V30 779 H 73.1429 -2.78137 -3.09213 0
M  V30 780 H 71.7199 -1.01812 -3.58732 0
M  V30 781 N 73.905 1.17692 -1.04816 0
M  V30 782 C 74.852 2.21581 -0.645797 0
M  V30 783 C 75.822 1.62367 0.350159 0
M  V30 784 O 77.007 1.89254 0.242433 0
M  V30 785 C 74.147 3.45092 -0.0227568 0
M  V30 786 C 73.26 4.18613 -1.06709 0
M  V30 787 C 72.395 5.29602 -0.411767 0
M  V30 788 C 71.434 5.94904 -1.44067 0
M  V30 789 N 70.571 6.97414 -0.809781 0
M  V30 790 H 75.411 2.55353 -1.5362 0
M  V30 791 H 72.948 1.25438 -0.768364 0
M  V30 792 H 74.906 4.15679 0.35588 0
M  V30 793 H 73.536 3.11917 0.831122 0
M  V30 794 H 72.588 3.46779 -1.5636 0
M  V30 795 H 73.9 4.63293 -1.84827 0
M  V30 796 H 73.054 6.06696 0.0206623 0
M  V30 797 H 71.793 4.86045 0.401438 0
M  V30 798 H 70.798 5.16544 -1.88316 0
M  V30 799 H 72.023 6.40542 -2.25571 0
M  V30 800 H 69.969 6.55998 -0.0170186 0
M  V30 801 H 69.886 7.40386 -1.52856 0
M  V30 802 H 71.154 7.78463 -0.401999 0
M  V30 803 N 75.3831 0.828654 1.34056 0
M  V30 804 C 76.7991 0.515135 1.51058 0
M  V30 805 C 76.9991 -0.959581 1.77184 0
M  V30 806 O 76.0551 -1.74382 1.82612 0
M  V30 807 C 77.3681 1.37963 2.67183 0
M  V30 808 C 78.9161 1.37735 2.81066 0
M  V30 809 C 79.3911 2.22645 4.00241 0
M  V30 810 N 80.8821 2.203 4.07458 0
M  V30 811 C 81.6171 2.82744 4.98842 0
M  V30 812 N 81.1131 3.54201 5.9541 0
M  V30 813 N 82.9061 2.72268 4.91759 0
M  V30 814 H 75.0571 1.78343 1.15358 0
M  V30 815 H 77.3201 0.760304 0.566252 0
M  V30 816 H 77.0261 2.42714 2.54525 0
M  V30 817 H 76.9001 1.0484 3.62338 0
M  V30 818 H 79.2871 0.337593 2.93163 0
M  V30 819 H 79.3681 1.74859 1.86703 0
M  V30 820 H 79.0121 3.26674 3.88905 0
M  V30 821 H 78.9421 1.82869 4.93829 0
M  V30 822 H 81.4331 1.68327 3.38341 0
M  V30 823 H 81.7461 3.9908 6.61782 0
M  V30 824 H 80.0911 3.58308 5.95517 0
M  V30 825 H 83.2821 2.16014 4.15278 0
M  V30 826 H 83.4551 3.21219 5.62781 0
M  V30 827 N 76.8612 -1.46375 0.584142 0
M  V30 828 C 77.7912 -2.33103 -0.136037 0
M  V30 829 C 78.7722 -1.45431 -0.882255 0
M  V30 830 O 79.9572 -1.74246 -0.857434 0
M  V30 831 C 77.0872 -3.27731 -1.14933 0
M  V30 832 C 76.0412 -4.24855 -0.517862 0
M  V30 833 C 75.3672 -5.09001 -1.63773 0
M  V30 834 C 76.6672 -5.19439 0.545886 0
M  V30 835 H 78.3612 -2.93568 0.588086 0
M  V30 836 H 75.9072 -1.41166 0.284259 0
M  V30 837 H 77.8602 -3.87261 -1.66153 0
M  V30 838 H 76.5842 -2.65377 -1.90375 0
M  V30 839 H 75.2432 -3.6659 -0.0267361 0
M  V30 840 H 74.8912 -4.43031 -2.38185 0
M  V30 841 H 74.5912 -5.74777 -1.22085 0
M  V30 842 H 76.1152 -5.71396 -2.15266 0
M  V30 843 H 77.5292 -5.73177 0.118704 0
M  V30 844 H 75.9262 -5.93566 0.88317 0
M  V30 845 H 76.9962 -4.63285 1.43162 0
M  V30 846 N 78.3393 -0.321999 -1.54275 0
M  V30 847 C 79.5673 0.283052 -2.04955 0
M  V30 848 C 79.9823 1.45904 -1.19823 0
M  V30 849 O 79.3393 1.81063 -0.228545 0
M  V30 850 C 79.3903 0.719028 -3.54277 0
M  V30 851 O 79.1113 -0.410175 -4.36176 0
M  V30 852 C 80.6123 1.38705 -4.21041 0
M  V30 853 H 77.8323 0.0584616 -0.668448 0
M  V30 854 H 80.3763 -0.467734 -1.99079 0
M  V30 855 H 78.5313 1.41979 -3.60445 0
M  V30 856 H 78.9453 -0.0669416 -5.24457 0
M  V30 857 H 80.4193 1.64306 -5.2698 0
M  V30 858 H 80.8963 2.33385 -3.72059 0
M  V30 859 H 81.5023 0.728906 -4.19007 0
M  V30 860 N 79.8174 1.5752 -0.0501392 0
M  V30 861 C 80.7274 2.14952 0.939827 0
M  V30 862 C 81.7434 1.10706 1.34239 0
M  V30 863 O 82.9194 1.42869 1.41952 0
M  V30 864 C 79.9844 2.68232 2.19665 0
M  V30 865 C 79.0454 3.87272 1.85253 0
M  V30 866 C 78.2784 4.38002 3.04943 0
M  V30 867 O 78.5014 3.87811 4.18281 0
M  V30 868 O 77.4354 5.29602 2.86017 0
M  V30 869 H 81.2614 2.9986 0.481392 0
M  V30 870 H 78.8464 1.4841 0.171699 0
M  V30 871 H 80.7284 3.02475 2.93406 0
M  V30 872 H 79.4034 1.86395 2.64648 0
M  V30 873 H 78.3104 3.5792 1.0883 0
M  V30 874 H 79.6434 4.70336 1.4507 0
M  V30 875 N 81.2955 -0.223234 1.56011 0
M  V30 876 C 82.7115 -0.572856 1.48965 0
M  V30 877 C 82.9115 -1.87225 0.74492 0
M  V30 878 O 81.9675 -2.50899 0.283896 0
M  V30 879 C 83.2805 -0.653646 2.9351 0
M  V30 880 C 84.8285 -0.744386 3.0402 0
M  V30 881 C 85.3035 -0.856535 4.49919 0
M  V30 882 N 86.7945 -0.9208 4.53955 0
M  V30 883 C 87.5295 -1.02726 5.64123 0
M  V30 884 N 87.0255 -1.09777 6.84047 0
M  V30 885 N 88.8185 -1.06226 5.51971 0
M  V30 886 H 80.9695 0.629462 2.02858 0
M  V30 887 H 83.2325 0.220621 0.921971 0
M  V30 888 H 82.9385 0.231518 3.50937 0
M  V30 889 H 82.8125 -1.51781 3.45315 0
M  V30 890 H 85.1995 -1.61999 2.46658 0
M  V30 891 H 85.2805 0.14541 2.55386 0
M  V30 892 H 84.9245 0.0146069 5.07898 0
M  V30 893 H 84.8545 -1.76172 4.96257 0
M  V30 894 H 87.3455 -0.876694 3.6759 0
M  V30 895 H 87.6585 -1.17872 7.63758 0
M  V30 896 H 86.0035 -1.06693 6.86762 0
M  V30 897 H 89.1945 -1.00382 4.5721 0
M  V30 898 H 89.3675 -1.14177 6.37862 0
M  V30 899 N 82.7736 -1.49793 -0.48987 0
M  V30 900 C 83.9986 -1.63836 -1.27172 0
M  V30 901 C 84.4236 -0.31402 -1.8546 0
M  V30 902 O 83.7816 0.719803 -1.66399 0
M  V30 903 C 83.8296 -2.71797 -2.36978 0
M  V30 904 O 82.9336 -2.31744 -3.41128 0
M  V30 905 H 82.2746 -0.547997 -0.37496 0
M  V30 906 H 84.8046 -1.96053 -0.585191 0
M  V30 907 H 84.8146 -2.94305 -2.82575 0
M  V30 908 H 83.4896 -3.67923 -1.93921 0
M  V30 909 H 82.0666 -2.1961 -3.01373 0
M  V30 910 N 84.2517 0.741722 -1.39055 0
M  V30 911 C 85.6677 1.04638 -1.20512 0
M  V30 912 C 85.8677 2.01405 -0.0620218 0
M  V30 913 O 84.9237 2.45547 0.588457 0
M  V30 914 C 86.2367 1.6151 -2.53643 0
M  V30 915 C 87.7847 1.73623 -2.6043 0
M  V30 916 C 88.2597 2.33906 -3.93767 0
M  V30 917 N 89.7507 2.41323 -3.9537 0
M  V30 918 C 90.4857 2.88888 -4.95309 0
M  V30 919 N 89.9817 3.36401 -6.05645 0
M  V30 920 N 91.7747 2.88037 -4.82692 0
M  V30 921 H 83.9257 0.0998155 -2.12165 0
M  V30 922 H 86.1887 0.106907 -0.941953 0
M  V30 923 H 85.8947 0.978739 -3.37807 0
M  V30 924 H 85.7687 2.60411 -2.72885 0
M  V30 925 H 88.1557 2.36384 -1.76655 0
M  V30 926 H 88.2367 0.733945 -2.45045 0
M  V30 927 H 87.8807 1.71776 -4.7797 0
M  V30 928 H 87.8107 3.34799 -4.06469 0
M  V30 929 H 90.3017 2.07734 -3.15682 0
M  V30 930 H 90.6147 3.71186 -6.77821 0
M  V30 931 H 88.9597 3.34427 -6.09248 0
M  V30 932 H 92.1507 2.50237 -3.95599 0
M  V30 933 H 92.3237 3.24792 -5.60726 0
M  V30 934 N 85.7298 1.2412 0.971189 0
M  V30 935 C 86.9758 1.08041 1.71625 0
M  V30 936 C 87.3088 -0.380407 1.90438 0
M  V30 937 O 86.5838 -1.28127 1.46334 0
M  V30 938 C 86.8668 1.81682 3.10908 0
M  V30 939 C 86.7198 3.35493 2.99608 0
M  V30 940 C 88.0388 1.58671 4.10501 0
M  V30 941 H 85.1578 0.39388 0.622919 0
M  V30 942 H 87.7998 1.52743 1.13003 0
M  V30 943 H 85.9498 1.43684 3.60953 0
M  V30 944 H 87.6218 3.83068 2.57015 0
M  V30 945 H 85.8648 3.64052 2.35899 0
M  V30 946 H 86.5358 3.82217 3.98264 0
M  V30 947 H 89.0118 1.91719 3.69301 0
M  V30 948 H 87.8878 2.1266 5.06031 0
M  V30 949 H 88.1488 0.524161 4.38982 0
M  V30 950 N 87.2079 -1.17134 1.05439 0
M  V30 951 C 88.4569 -1.86791 0.761049 0
M  V30 952 C 88.7699 -1.82072 -0.714795 0
M  V30 953 O 89.9759 -2.47223 -1.12218 0
M  V30 954 C 88.4319 -3.35166 1.31117 0
M  V30 955 C 88.0399 -3.48381 2.81664 0
M  V30 956 C 89.7839 -4.10134 1.09499 0
M  V30 957 C 87.6909 -4.90793 3.29964 0
M  V30 958 H 86.6209 -0.699681 0.281002 0
M  V30 959 H 89.2719 -1.3226 1.27199 0
M  V30 960 H 87.6539 -3.8925 0.72803 0
M  V30 961 H 88.8279 -3.04502 3.45855 0
M  V30 962 H 87.1429 -2.86836 3.01851 0
M  V30 963 H 89.7399 -5.152 1.43084 0
M  V30 964 H 90.0829 -4.16287 0.0328772 0
M  V30 965 H 90.6159 -3.62264 1.64346 0
M  V30 966 H 87.3549 -4.89816 4.35616 0
M  V30 967 H 86.8749 -5.35333 2.70516 0
M  V30 968 H 88.5539 -5.59573 3.24787 0
M  V30 969 N 88.686 -0.835752 -1.33615 0
M  V30 970 C 89.914 -0.443344 -2.02094 0
M  V30 971 C 90.329 0.954522 -1.62894 0
M  V30 972 O 89.686 1.61982 -0.840723 0
M  V30 973 C 89.737 -0.550775 -3.5728 0
M  V30 974 O 89.458 -1.89356 -3.95065 0
M  V30 975 C 90.959 -0.154919 -4.43029 0
M  V30 976 H 88.179 -0.176359 -0.647409 0
M  V30 977 H 90.723 -1.12746 -1.70612 0
M  V30 978 H 88.878 0.0853997 -3.87306 0
M  V30 979 H 89.292 -1.87687 -4.89769 0
M  V30 980 H 90.766 -0.281144 -5.51284 0
M  V30 981 H 91.243 0.902863 -4.2982 0
M  V30 982 H 91.849 -0.765404 -4.18356 0
M  V30 983 N 90.1641 1.46063 -0.591896 0
M  V30 984 C 91.4101 2.02638 -0.0811191 0
M  V30 985 C 91.7431 1.4613 1.27905 0
M  V30 986 O 91.0181 0.629908 1.84017 0
M  V30 987 C 91.3011 3.60091 -0.0252436 0
M  V30 988 C 91.1541 4.26965 -1.41496 0
M  V30 989 C 92.4731 4.3496 0.670685 0
M  V30 990 H 89.5921 0.73635 -0.0309524 0
M  V30 991 H 92.2341 1.741 -0.760859 0
M  V30 992 H 90.3841 3.84535 0.553624 0
M  V30 993 H 92.0561 4.13756 -2.0397 0
M  V30 994 H 90.2991 3.85971 -1.98011 0
M  V30 995 H 90.9701 5.35781 -1.32825 0
M  V30 996 H 93.4461 4.15716 0.178825 0
M  V30 997 H 92.3221 5.44686 0.678837 0
M  V30 998 H 92.5831 4.06685 1.73379 0
M  V30 999 N 91.6422 0.330177 1.54103 0
M  V30 1000 C 92.9192 -0.325007 1.92881 0
M  V30 1001 C 93.2992 -1.6934 1.26045 0
M  V30 1002 O 92.6472 -2.24855 0.406526 0
M  V30 1003 C 92.8572 -0.410634 3.46576 0
M  V30 1004 C 94.2052 -0.667801 4.19316 0
M  V30 1005 O 95.2292 -0.49329 3.52768 0
M  V30 1006 O 94.0882 -1.00491 5.37181 0
M  V30 1007 H 91.1822 -0.186873 0.80561 0
M  V30 1008 H 93.7282 0.380376 1.65382 0
M  V30 1009 H 92.5002 0.550164 3.87413 0
M  V30 1010 H 92.1232 -1.16333 3.802 0
M  V30 1011 N 93.1203 -1.57491 0.0584922 0
M  V30 1012 C 94.3683 -1.92597 -0.612436 0
M  V30 1013 C 94.6893 -0.938162 -1.70949 0
M  V30 1014 O 93.9593 0.0158301 -1.95894 0
M  V30 1015 H 92.5393 -0.710964 -0.229214 0
M  V30 1016 H 95.2013 -1.94571 0.113218 0
M  V30 1017 H 94.2973 -2.94038 -1.04633 0
M  V30 1018 N 94.5984 0.214957 -1.56127 0
M  V30 1019 C 95.5464 1.28601 -1.93816 0
M  V30 1020 C 96.5404 1.48175 -0.821016 0
M  V30 1021 O 97.7464 1.49271 -1.0059 0
M  V30 1022 H 94.1214 0.431302 -0.616022 0
M  V30 1023 H 96.0924 0.940991 -2.83175 0
M  V30 1024 C 94.8414 2.62779 -2.27689 0
M  V30 1025 H 94.1644 2.48527 -3.13168 0
M  V30 1026 H 95.6044 3.36517 -2.57939 0
M  V30 1027 C 94.0634 3.18285 -1.10436 0
M  V30 1028 O 94.5934 4.00002 -0.368945 0
M  V30 1029 N 92.7994 2.7675 -0.886433 0
M  V30 1030 H 92.3464 2.10404 -1.48619 0
M  V30 1031 H 92.3044 3.14229 -0.103656 0
M  V30 1032 N 96.0765 1.50051 0.48192 0
M  V30 1033 C 97.3255 1.59741 1.23149 0
M  V30 1034 C 97.6385 0.298163 1.93314 0
M  V30 1035 O 98.8445 0.273835 2.70116 0
M  V30 1036 C 97.3005 2.81926 2.23708 0
M  V30 1037 C 96.9085 4.18685 1.59396 0
M  V30 1038 C 98.6525 3.00956 2.99375 0
M  V30 1039 C 96.5595 5.3207 2.58178 0
M  V30 1040 H 95.4895 0.594838 0.46334 0
M  V30 1041 H 98.1405 1.76467 0.503169 0
M  V30 1042 H 96.5225 2.58736 2.99786 0
M  V30 1043 H 97.6965 4.52088 0.891811 0
M  V30 1044 H 96.0115 4.05171 0.960503 0
M  V30 1045 H 98.6085 3.82836 3.73283 0
M  V30 1046 H 98.9515 2.12258 3.58123 0
M  V30 1047 H 99.4845 3.24277 2.30411 0
M  V30 1048 H 96.2235 6.22888 2.04184 0
M  V30 1049 H 95.7435 5.03098 3.26577 0
M  V30 1050 H 97.4225 5.62196 3.20225 0
M  V30 1051 N 97.5546 -0.734337 1.39446 0
M  V30 1052 C 98.7946 -1.50655 1.38139 0
M  V30 1053 C 99.1586 -1.91986 -0.0228701 0
M  V30 1054 O 100.36 -2.68318 -0.160947 0
M  V30 1055 C 98.6306 -2.71251 2.32718 0
M  V30 1056 S 100.19 -3.60892 2.49605 0
M  V30 1057 H 97.0076 -0.515315 0.489869 0
M  V30 1058 H 99.6096 -0.860392 1.75549 0
M  V30 1059 H 98.3136 -2.39027 3.33608 0
M  V30 1060 H 97.8446 -3.40795 1.96526 0
M  V30 1061 H 99.8596 -4.64899 1.73446 0
M  V30 1062 N 99.0327 -1.24633 -0.964593 0
M  V30 1063 C 100.261 -1.11501 -1.74285 0
M  V30 1064 C 100.676 0.332165 -1.85855 0
M  V30 1065 O 100.033 1.22903 -1.34911 0
M  V30 1066 C 100.084 -1.75258 -3.16175 0
M  V30 1067 O 99.8047 -3.14318 -3.05182 0
M  V30 1068 C 101.306 -1.67776 -4.10324 0
M  V30 1069 H 98.5257 -0.389407 -0.546446 0
M  V30 1070 H 101.07 -1.64801 -1.21083 0
M  V30 1071 H 99.2247 -1.25954 -3.66353 0
M  V30 1072 H 99.6387 -3.4551 -3.94618 0
M  V30 1073 H 101.113 -2.17064 -5.0753 0
M  V30 1074 H 101.59 -0.639584 -4.34518 0
M  V30 1075 H 102.196 -2.16522 -3.66058 0
M  V30 1076 N 100.511 1.16574 -1.06058 0
M  V30 1077 C 101.759 1.86677 -0.77434 0
M  V30 1078 C 102.08 1.81959 0.701147 0
M  V30 1079 O 101.35 1.2515 1.50713 0
M  V30 1080 H 99.9298 0.691134 -0.283449 0
M  V30 1081 H 102.592 1.41378 -1.34158 0
M  V30 1082 H 101.688 2.92181 -1.09711 0
M  V30 1083 N 101.989 0.842826 1.3317 0
M  V30 1084 C 102.936 0.276885 2.29133 0
M  V30 1085 C 103.906 -0.609527 1.54512 0
M  V30 1086 O 105.091 -0.546955 1.82792 0
M  V30 1087 C 102.231 -0.538707 3.40869 0
M  V30 1088 C 101.344 0.372169 4.30394 0
M  V30 1089 C 100.479 -0.454908 5.29249 0
M  V30 1090 C 99.5179 0.45411 6.10413 0
M  V30 1091 N 98.6549 -0.335075 7.013 0
M  V30 1092 H 103.495 1.10052 2.76934 0
M  V30 1093 H 101.032 0.554161 1.36262 0
M  V30 1094 H 102.99 -1.02709 4.0436 0
M  V30 1095 H 101.62 -1.32727 2.9425 0
M  V30 1096 H 100.672 0.97888 3.6759 0
M  V30 1097 H 101.984 1.0703 4.87182 0
M  V30 1098 H 101.138 -1.00695 5.98285 0
M  V30 1099 H 99.8769 -1.18646 4.73048 0
M  V30 1100 H 98.8819 1.01813 5.40291 0
M  V30 1101 H 100.107 1.18409 6.68697 0
M  V30 1102 H 98.0529 -1.04994 6.47543 0
M  V30 1103 H 97.9699 0.304262 7.55387 0
M  V30 1104 H 99.2379 -0.869224 7.74638 0
M  V30 1105 N 103.467 -1.45747 0.599634 0
M  V30 1106 C 104.715 -2.01893 0.0915472 0
M  V30 1107 C 105.036 -1.47155 -1.27946 0
M  V30 1108 O 104.306 -0.66273 -1.84349 0
M  V30 1109 H 102.886 -0.746363 0.0308524 0
M  V30 1110 H 105.548 -1.78645 0.779237 0
M  V30 1111 H 104.644 -3.1208 0.0353086 0
M  V30 1112 N 104.945 -0.338344 -1.53925 0
M  V30 1113 C 105.892 0.520845 -2.24846 0
M  V30 1114 C 106.862 1.09976 -1.24477 0
M  V30 1115 O 108.047 1.13735 -1.53196 0
M  V30 1116 C 105.187 1.6685 -3.02084 0
M  V30 1117 C 104.3 1.11739 -4.17299 0
M  V30 1118 C 103.435 2.23193 -4.82036 0
M  V30 1119 C 102.474 1.65407 -5.89328 0
M  V30 1120 N 101.611 2.70582 -6.47866 0
M  V30 1121 H 106.451 -0.0904881 -2.97863 0
M  V30 1122 H 103.988 -0.0564282 -1.46992 0
M  V30 1123 H 105.946 2.34407 -3.45122 0
M  V30 1124 H 104.576 2.2509 -2.31375 0
M  V30 1125 H 103.628 0.332919 -3.7894 0
M  V30 1126 H 104.94 0.654677 -4.94485 0
M  V30 1127 H 104.094 2.98626 -5.28117 0
M  V30 1128 H 102.833 2.72807 -4.04262 0
M  V30 1129 H 101.838 0.884779 -5.42634 0
M  V30 1130 H 103.063 1.16652 -6.69006 0
M  V30 1131 H 101.009 3.1946 -5.72959 0
M  V30 1132 H 100.926 2.28917 -7.20509 0
M  V30 1133 H 102.194 3.45799 -6.98601 0
M  V30 1134 N 106.423 1.57458 -0.0668435 0
M  V30 1135 C 107.353 2.15468 0.899764 0
M  V30 1136 C 108.334 1.08042 1.31381 0
M  V30 1137 O 109.519 1.36054 1.38574 0
M  V30 1138 C 106.649 2.71232 2.16911 0
M  V30 1139 C 105.603 3.83781 1.89463 0
M  V30 1140 C 104.929 4.26127 3.22986 0
M  V30 1141 C 106.229 5.08238 1.20381 0
M  V30 1142 H 107.923 2.96488 0.416529 0
M  V30 1143 H 105.469 1.4262 0.198908 0
M  V30 1144 H 107.422 3.10458 2.84945 0
M  V30 1145 H 106.146 1.87426 2.67468 0
M  V30 1146 H 104.805 3.45051 1.23836 0
M  V30 1147 H 104.453 3.39249 3.71374 0
M  V30 1148 H 104.153 5.01993 3.05413 0
M  V30 1149 H 105.677 4.67966 3.92225 0
M  V30 1150 H 107.091 5.44811 1.78475 0
M  V30 1151 H 105.488 5.89349 1.13083 0
M  V30 1152 H 106.558 4.84558 0.182153 0
M  V30 1153 N 107.901 -0.206675 1.56239 0
M  V30 1154 C 108.864 -1.23976 1.92776 0
M  V30 1155 C 109.864 -1.39041 0.807729 0
M  V30 1156 O 111.054 -1.37051 1.0753 0
M  V30 1157 C 108.186 -2.61112 2.19165 0
M  V30 1158 H 109.379 -0.927764 2.85189 0
M  V30 1159 H 106.932 -0.447718 1.4975 0
M  V30 1160 H 107.667 -2.97386 1.29352 0
M  V30 1161 H 107.452 -2.51552 3.00772 0
M  V30 1162 H 108.942 -3.35633 2.48476 0
M  V30 1163 N 109.379 -1.50304 -0.473955 0
M  V30 1164 C 110.326 -1.68959 -1.57231 0
M  V30 1165 C 111.296 -0.530899 -1.57387 0
M  V30 1166 O 112.481 -0.761133 -1.74961 0
M  V30 1167 C 109.621 -1.7871 -2.95223 0
M  V30 1168 C 108.734 -3.06061 -3.04878 0
M  V30 1169 C 107.869 -3.06626 -4.33767 0
M  V30 1170 C 106.908 -4.28443 -4.37154 0
M  V30 1171 N 106.045 -4.26763 -5.5751 0
M  V30 1172 H 110.885 -2.6273 -1.40631 0
M  V30 1173 H 108.422 -1.30241 -0.683789 0
M  V30 1174 H 110.38 -1.82344 -3.75242 0
M  V30 1175 H 109.01 -0.883806 -3.10465 0
M  V30 1176 H 108.062 -3.11911 -2.17751 0
M  V30 1177 H 109.374 -3.96039 -3.0324 0
M  V30 1178 H 108.528 -3.08973 -5.22131 0
M  V30 1179 H 107.267 -2.14473 -4.3801 0
M  V30 1180 H 106.272 -4.2631 -3.47188 0
M  V30 1181 H 107.497 -5.2182 -4.34605 0
M  V30 1182 H 105.443 -3.37462 -5.62544 0
M  V30 1183 H 105.36 -5.10507 -5.57601 0
M  V30 1184 H 106.628 -4.33253 -6.48006 0
M  V30 1185 N 110.857 0.726932 -1.39834 0
M  V30 1186 C 111.767 1.87131 -1.41489 0
M  V30 1187 C 112.783 1.71239 -0.308757 0
M  V30 1188 O 113.959 1.93701 -0.551529 0
M  V30 1189 C 111.024 3.22811 -1.26468 0
M  V30 1190 C 110.085 3.51039 -2.47124 0
M  V30 1191 C 109.318 4.80245 -2.3281 0
M  V30 1192 O 109.541 5.54537 -1.33585 0
M  V30 1193 O 108.475 5.08554 -3.21957 0
M  V30 1194 H 112.301 1.8869 -2.3797 0
M  V30 1195 H 109.886 0.875837 -1.21035 0
M  V30 1196 H 111.768 4.03877 -1.20255 0
M  V30 1197 H 110.443 3.22005 -0.330862 0
M  V30 1198 H 109.35 2.70027 -2.58914 0
M  V30 1199 H 110.683 3.56632 -3.39227 0
M  V30 1200 N 112.336 1.25143 0.95797 0
M  V30 1201 C 113.585 1.0909 1.69654 0
M  V30 1202 C 113.898 -0.368548 1.92097 0
M  V30 1203 O 115.104 -0.649455 2.63618 0
M  V30 1204 C 113.56 1.90395 3.05414 0
M  V30 1205 C 113.168 3.4081 2.90779 0
M  V30 1206 C 114.912 1.82901 3.83076 0
M  V30 1207 C 112.819 4.14423 4.21909 0
M  V30 1208 H 111.749 0.404625 0.636235 0
M  V30 1209 H 114.4 1.4931 1.06672 0
M  V30 1210 H 112.782 1.42996 3.69281 0
M  V30 1211 H 113.956 3.95859 2.35865 0
M  V30 1212 H 112.271 3.49361 2.26575 0
M  V30 1213 H 114.868 2.35196 4.80195 0
M  V30 1214 H 115.211 0.796224 4.08615 0
M  V30 1215 H 115.744 2.28033 3.25954 0
M  V30 1216 H 112.483 5.18102 4.01561 0
M  V30 1217 H 112.003 3.64159 4.76601 0
M  V30 1218 H 113.682 4.21956 4.90471 0
M  V30 1219 N 113.814 -1.1601 1.06675 0
M  V30 1220 C 114.777 -2.18724 0.685001 0
M  V30 1221 C 115.777 -1.58496 -0.271246 0
M  V30 1222 O 116.967 -1.74119 -0.0531156 0
M  V30 1223 C 114.099 -3.40899 0.00853648 0
M  V30 1224 H 115.292 -2.54011 1.59431 0
M  V30 1225 H 112.845 -1.30352 0.862441 0
M  V30 1226 H 113.58 -3.11173 -0.913337 0
M  V30 1227 H 113.365 -3.8587 0.696204 0
M  V30 1228 H 114.855 -4.16886 -0.24414 0
M  V30 1229 N 115.292 -0.849877 -1.32721 0
M  V30 1230 C 116.202 -0.293791 -2.32753 0
M  V30 1231 C 117.218 0.585906 -1.63839 0
M  V30 1232 O 118.394 0.487413 -1.95413 0
M  V30 1233 C 115.459 0.512752 -3.42887 0
M  V30 1234 C 114.52 -0.39252 -4.27502 0
M  V30 1235 C 113.753 0.375625 -5.32377 0
M  V30 1236 O 113.976 1.60613 -5.4732 0
M  V30 1237 O 112.91 -0.256094 -6.01355 0
M  V30 1238 H 116.736 -1.12242 -2.82197 0
M  V30 1239 H 114.321 -0.612685 -1.36259 0
M  V30 1240 H 116.203 0.970704 -4.10067 0
M  V30 1241 H 114.878 1.31826 -2.95641 0
M  V30 1242 H 113.785 -0.898547 -3.63149 0
M  V30 1243 H 115.118 -1.16309 -4.7826 0
M  V30 1244 N 116.77 1.45427 -0.607355 0
M  V30 1245 C 117.717 2.3053 0.111625 0
M  V30 1246 C 118.687 1.4209 0.860216 0
M  V30 1247 O 119.872 1.71019 0.845998 0
M  V30 1248 C 117.012 3.26992 1.10319 0
M  V30 1249 C 116.125 4.30535 0.355493 0
M  V30 1250 C 115.26 5.14105 1.33676 0
M  V30 1251 C 114.299 6.09376 0.576862 0
M  V30 1252 N 113.436 6.85727 1.5074 0
M  V30 1253 H 118.276 2.91477 -0.620093 0
M  V30 1254 H 115.813 1.43631 -0.317594 0
M  V30 1255 H 117.771 3.81385 1.6912 0
M  V30 1256 H 116.401 2.67799 1.80232 0
M  V30 1257 H 115.453 3.78805 -0.348023 0
M  V30 1258 H 116.765 4.98235 -0.237423 0
M  V30 1259 H 115.919 5.72897 1.99684 0
M  V30 1260 H 114.658 4.46423 1.9636 0
M  V30 1261 H 113.663 5.49715 -0.0968519 0
M  V30 1262 H 114.888 6.79085 -0.0449341 0
M  V30 1263 H 112.834 6.20735 2.12189 0
M  V30 1264 H 112.751 7.49778 0.967913 0
M  V30 1265 H 114.019 7.4906 2.15706 0
M  V30 1266 N 118.248 0.346503 1.53744 0
M  V30 1267 C 119.178 -0.501193 2.28058 0
M  V30 1268 C 120.159 -1.10014 1.29734 0
M  V30 1269 O 121.344 -1.12097 1.58581 0
M  V30 1270 C 118.474 -1.65078 3.05559 0
M  V30 1271 C 117.428 -1.18003 4.11411 0
M  V30 1272 C 116.754 -2.41837 4.76884 0
M  V30 1273 C 118.054 -0.278394 5.21558 0
M  V30 1274 H 119.748 0.11875 2.99164 0
M  V30 1275 H 117.294 0.0585531 1.43881 0
M  V30 1276 H 119.247 -2.25028 3.56287 0
M  V30 1277 H 117.971 -2.29767 2.32109 0
M  V30 1278 H 116.63 -0.603331 3.61601 0
M  V30 1279 H 116.278 -3.0494 4.00026 0
M  V30 1280 H 115.978 -2.1102 5.48402 0
M  V30 1281 H 117.502 -3.02508 5.30397 0
M  V30 1282 H 118.916 -0.784823 5.67903 0
M  V30 1283 H 117.313 -0.0619707 6.00068 0
M  V30 1284 H 118.383 0.684677 4.80042 0
M  V30 1285 N 119.726 -1.57421 0.075193 0
M  V30 1286 C 120.974 -1.93236 -0.591974 0
M  V30 1287 C 121.295 -0.956241 -1.69944 0
M  V30 1288 O 120.565 -0.00494792 -1.95899 0
M  V30 1289 H 119.145 -0.713355 -0.22166 0
M  V30 1290 H 121.807 -1.9444 0.133848 0
M  V30 1291 H 120.903 -2.95131 -1.01509 0
M  V30 1292 N 121.204 0.198386 -1.56346 0
M  V30 1293 C 122.451 0.919286 -1.80431 0
M  V30 1294 C 122.779 1.83393 -0.647866 0
M  V30 1295 O 122.034 1.92236 0.366556 0
M  V30 1296 C 122.333 1.77031 -3.10475 0
M  V30 1297 C 121.999 1.00693 -4.39513 0
M  V30 1298 C 120.661 0.796145 -4.74568 0
M  V30 1299 C 123.013 0.469559 -5.19081 0
M  V30 1300 C 120.341 0.0364588 -5.86689 0
M  V30 1301 C 122.693 -0.2769 -6.31994 0
M  V30 1302 C 121.357 -0.49873 -6.65634 0
M  V30 1303 H 120.627 0.336391 -0.660244 0
M  V30 1304 H 123.274 0.185872 -1.90596 0
M  V30 1305 H 121.579 2.5723 -2.95533 0
M  V30 1306 H 123.276 2.33065 -3.26315 0
M  V30 1307 H 119.866 1.18122 -4.12001 0
M  V30 1308 H 124.05 0.619816 -4.92414 0
M  V30 1309 H 119.306 -0.145412 -6.11227 0
M  V30 1310 H 123.48 -0.700684 -6.92866 0
M  V30 1311 H 121.107 -1.0893 -7.52355 0
M  V30 1312 N 122.682 1.50554 0.465978 0
M  V30 1313 C 123.629 1.6979 1.56333 0
M  V30 1314 C 124.599 0.539239 1.57103 0
M  V30 1315 O 125.784 0.770401 1.74555 0
M  V30 1316 C 122.924 1.80273 2.94271 0
M  V30 1317 C 122.037 3.07674 3.0325 0
M  V30 1318 C 121.172 3.08922 4.32135 0
M  V30 1319 C 120.211 4.30755 4.34875 0
M  V30 1320 N 119.348 4.29714 5.55239 0
M  V30 1321 H 124.188 2.63472 1.39235 0
M  V30 1322 H 121.725 1.30602 0.676873 0
M  V30 1323 H 123.683 1.84332 3.74269 0
M  V30 1324 H 122.313 0.900258 3.09992 0
M  V30 1325 H 121.365 3.13062 2.16094 0
M  V30 1326 H 122.677 3.97642 3.01135 0
M  V30 1327 H 121.831 3.11738 5.20485 0
M  V30 1328 H 120.57 2.16792 4.36866 0
M  V30 1329 H 119.575 4.28146 3.44922 0
M  V30 1330 H 120.8 5.24117 4.31831 0
M  V30 1331 H 118.746 3.4044 5.60746 0
M  V30 1332 H 118.663 5.13456 5.54886 0
M  V30 1333 H 119.931 4.36683 6.457 0
M  V30 1334 N 124.16 -0.719506 1.40217 0
M  V30 1335 C 125.11 -1.8251 1.36653 0
M  V30 1336 C 126.094 -1.59028 0.244732 0
M  V30 1337 O 127.286 -1.70268 0.483524 0
M  V30 1338 C 124.415 -3.20599 1.22763 0
M  V30 1339 C 123.501 -3.49858 2.39708 0
M  V30 1340 N 123.892 -3.49957 3.6519 0
M  V30 1341 C 122.19 -3.80297 2.33002 0
M  V30 1342 C 122.891 -3.77449 4.42614 0
M  V30 1343 N 121.867 -3.96002 3.72402 0
M  V30 1344 H 125.669 -1.80914 2.31619 0
M  V30 1345 H 123.183 -0.918455 1.33933 0
M  V30 1346 H 125.18 -3.99766 1.18292 0
M  V30 1347 H 123.84 -3.23424 0.287614 0
M  V30 1348 H 124.851 -3.309 3.98404 0
M  V30 1349 H 121.528 -3.90635 1.47346 0
M  V30 1350 H 122.918 -3.83863 5.51451 0
M  V30 1351 N 125.638 -1.25649 -0.95132 0
M  V30 1352 C 126.885 -1.10594 -1.69633 0
M  V30 1353 C 127.213 0.352515 -1.91279 0
M  V30 1354 O 126.468 1.27601 -1.4838 0
M  V30 1355 C 126.767 -1.80909 -3.08231 0
M  V30 1356 C 126.433 -3.30825 -3.06375 0
M  V30 1357 C 125.095 -3.71722 -3.05576 0
M  V30 1358 C 127.447 -4.26589 -2.99452 0
M  V30 1359 C 124.775 -5.06788 -2.95606 0
M  V30 1360 C 127.127 -5.61683 -2.91024 0
M  V30 1361 C 125.791 -6.01904 -2.88562 0
M  V30 1362 H 125.061 -0.404691 -0.620731 0
M  V30 1363 H 127.708 -1.55964 -1.11119 0
M  V30 1364 H 126.013 -1.27979 -3.70309 0
M  V30 1365 H 127.71 -1.6671 -3.64704 0
M  V30 1366 H 124.3 -2.98287 -3.07771 0
M  V30 1367 H 128.484 -3.95982 -2.99185 0
M  V30 1368 H 123.74 -5.37126 -2.92071 0
M  V30 1369 H 127.914 -6.35578 -2.84629 0
M  V30 1370 H 125.541 -7.06521 -2.80593 0
M  V30 1371 N 127.117 1.15442 -1.07289 0
M  V30 1372 C 128.528 1.67803 -0.818475 0
M  V30 1373 C 128.879 1.8489 0.656507 0
M  V30 1374 O 128.004 1.55176 1.50829 0
M  V30 1375 C 128.599 3.04805 -1.47917 0
M  V30 1376 C 127.158 3.54245 -1.27229 0
M  V30 1377 C 126.305 2.29986 -1.54925 0
M  V30 1378 H 129.256 0.996646 -1.23502 0
M  V30 1379 H 129.277 3.69702 -0.90005 0
M  V30 1380 H 128.789 2.92336 -2.55267 0
M  V30 1381 H 126.89 3.71956 -0.21899 0
M  V30 1382 H 127.003 4.35723 -1.99203 0
M  V30 1383 H 125.367 2.35496 -0.970242 0
M  V30 1384 H 126.15 2.20105 -2.63455 0
M  V30 1385 N 128.595 0.856903 1.32268 0
M  V30 1386 C 129.505 0.306131 2.32594 0
M  V30 1387 C 130.521 -0.577209 1.64147 0
M  V30 1388 O 131.697 -0.477043 1.95669 0
M  V30 1389 C 128.762 -0.494561 3.43154 0
M  V30 1390 C 127.823 0.415186 4.27288 0
M  V30 1391 C 127.056 -0.347387 5.32568 0
M  V30 1392 O 127.279 -1.57708 5.48165 0
M  V30 1393 O 126.213 0.287982 6.01211 0
M  V30 1394 H 130.039 1.13737 2.81598 0
M  V30 1395 H 127.624 0.619902 1.35932 0
M  V30 1396 H 129.506 -0.948944 4.10576 0
M  V30 1397 H 128.181 -1.30257 2.96336 0
M  V30 1398 H 127.088 0.917793 3.62667 0
M  V30 1399 H 128.421 1.18844 4.77637 0
M  V30 1400 N 130.073 -1.45103 0.615059 0
M  V30 1401 C 131.036 -2.29025 -0.0895485 0
M  V30 1402 C 132.036 -1.40174 -0.787906 0
M  V30 1403 O 133.226 -1.62217 -0.634933 0
M  V30 1404 C 130.358 -3.21376 -1.13711 0
M  V30 1405 H 131.551 -2.92807 0.648382 0
M  V30 1406 H 129.104 -1.51749 0.374444 0
M  V30 1407 H 129.839 -2.6241 -1.90556 0
M  V30 1408 H 129.624 -3.86834 -0.640475 0
M  V30 1409 H 131.114 -3.84459 -1.63036 0
M  V30 1410 N 131.551 -0.354651 -1.53558 0
M  V30 1411 C 132.799 0.237972 -2.00694 0
M  V30 1412 C 133.12 1.50173 -1.24391 0
M  V30 1413 O 132.39 1.92673 -0.354135 0
M  V30 1414 H 130.97 0.0909256 -0.741446 0
M  V30 1415 H 133.632 -0.478368 -1.88938 0
M  V30 1416 H 132.728 0.47264 -3.085 0
M  V30 1417 N 133.029 1.57378 -0.0835403 0
M  V30 1418 C 134.278 1.93106 0.582498 0
M  V30 1419 C 134.591 0.96651 1.70053 0
M  V30 1420 O 135.797 1.21705 2.42693 0
M  V30 1421 C 134.253 3.43076 1.08751 0
M  V30 1422 C 133.861 4.48 -0.000146404 0
M  V30 1423 C 135.605 3.87785 1.72694 0
M  V30 1424 C 133.512 5.89113 0.519568 0
M  V30 1425 H 132.442 0.720775 0.221358 0
M  V30 1426 H 135.093 1.82821 -0.157675 0
M  V30 1427 H 133.475 3.48474 1.88101 0
M  V30 1428 H 134.649 4.54233 -0.775199 0
M  V30 1429 H 132.964 4.1283 -0.54406 0
M  V30 1430 H 135.561 4.90604 2.1263 0
M  V30 1431 H 135.904 3.25796 2.59158 0
M  V30 1432 H 136.437 3.8504 0.999457 0
M  V30 1433 H 133.176 6.54775 -0.308186 0
M  V30 1434 H 132.696 5.86376 1.26188 0
M  V30 1435 H 134.375 6.39346 0.992237 0
M  V30 1436 N 134.507 -0.190092 1.56449 0
M  V30 1437 C 135.457 -1.23977 1.91347 0
M  V30 1438 C 136.441 -1.40747 0.779693 0
M  V30 1439 O 137.633 -1.43033 1.04262 0
M  V30 1440 C 134.762 -2.58347 2.26079 0
M  V30 1441 C 133.848 -2.4535 3.45925 0
M  V30 1442 N 134.239 -2.02039 4.63696 0
M  V30 1443 C 132.537 -2.76229 3.50162 0
M  V30 1444 C 133.238 -2.01053 5.4585 0
M  V30 1445 N 132.214 -2.42747 4.8639 0
M  V30 1446 H 136.016 -0.896318 2.79899 0
M  V30 1447 H 133.53 -0.398496 1.57435 0
M  V30 1448 H 135.527 -3.34173 2.49267 0
M  V30 1449 H 134.187 -2.93512 1.38856 0
M  V30 1450 H 135.198 -1.7267 4.88268 0
M  V30 1451 H 131.875 -3.15556 2.73369 0
M  V30 1452 H 133.265 -1.69426 6.50188 0
M  V30 1453 N 135.985 -1.50799 -0.457987 0
M  V30 1454 C 137.215 -1.65977 -1.23025 0
M  V30 1455 C 137.623 -0.347918 -1.85974 0
M  V30 1456 O 136.966 0.68148 -1.70592 0
M  V30 1457 C 137.028 -2.70309 -2.3701 0
M  V30 1458 C 136.692 -4.135 -1.94594 0
M  V30 1459 C 137.689 -4.98949 -1.46101 0
M  V30 1460 C 135.374 -4.5949 -2.02915 0
M  V30 1461 C 137.368 -6.28442 -1.06489 0
M  V30 1462 C 135.055 -5.88984 -1.62914 0
M  V30 1463 C 136.053 -6.73286 -1.1478 0
M  V30 1464 O 135.741 -8.00362 -0.75339 0
M  V30 1465 H 135.473 -0.56064 -0.377702 0
M  V30 1466 H 138.027 -1.97857 -0.551537 0
M  V30 1467 H 136.257 -2.337 -3.08093 0
M  V30 1468 H 137.946 -2.74574 -2.98938 0
M  V30 1469 H 138.712 -4.6463 -1.39084 0
M  V30 1470 H 134.591 -3.94009 -2.39328 0
M  V30 1471 H 138.135 -6.94194 -0.688488 0
M  V30 1472 H 134.032 -6.22822 -1.69595 0
M  V30 1473 H 134.8 -8.13744 -0.88108 0
M  V30 1474 N 137.463 0.71206 -1.40597 0
M  V30 1475 C 138.874 1.29135 -1.34837 0
M  V30 1476 C 139.225 1.96186 -0.0235395 0
M  V30 1477 O 138.35 1.97768 0.878444 0
M  V30 1478 C 138.945 2.34827 -2.44217 0
M  V30 1479 C 137.504 2.88371 -2.41907 0
M  V30 1480 C 136.651 1.62202 -2.24913 0
M  V30 1481 H 139.602 0.507944 -1.50352 0
M  V30 1482 H 139.623 3.15749 -2.12327 0
M  V30 1483 H 139.135 1.85996 -3.40627 0
M  V30 1484 H 137.236 3.41422 -1.49204 0
M  V30 1485 H 137.349 3.39925 -3.37621 0
M  V30 1486 H 135.713 1.874 -1.72492 0
M  V30 1487 H 136.496 1.15391 -3.23326 0
M  V30 1488 N 138.941 1.26152 0.944643 0
M  V30 1489 C 140.218 1.02247 1.66748 0
M  V30 1490 C 140.598 -0.448202 2.06287 0
M  V30 1491 O 139.946 -1.42779 1.78399 0
M  V30 1492 C 140.156 1.96788 2.88228 0
M  V30 1493 C 141.504 2.25201 3.59958 0
M  V30 1494 O 142.528 1.94626 2.98327 0
M  V30 1495 O 141.387 2.77242 4.70956 0
M  V30 1496 H 138.481 0.388517 0.730057 0
M  V30 1497 H 141.027 1.37348 0.99668 0
M  V30 1498 H 139.799 2.96047 2.55875 0
M  V30 1499 H 139.422 1.62145 3.63035 0
M  V30 1500 N 140.419 -1.14872 1.07899 0
M  V30 1501 C 141.644 -1.90202 0.826926 0
M  V30 1502 C 142.069 -1.77774 -0.614664 0
M  V30 1503 O 141.427 -1.11431 -1.43013 0
M  V30 1504 C 141.475 -3.38352 1.24702 0
M  V30 1505 O 140.579 -4.10497 0.39575 0
M  V30 1506 H 139.92 -0.591968 0.300782 0
M  V30 1507 H 142.45 -1.45437 1.43907 0
M  V30 1508 H 142.46 -3.89156 1.22563 0
M  V30 1509 H 141.135 -3.46715 2.29698 0
M  V30 1510 H 139.712 -3.69796 0.480117 0
M  V30 1511 N 141.898 -0.863906 -1.31812 0
M  V30 1512 C 143.126 -0.486111 -2.01108 0
M  V30 1513 C 143.541 0.919755 -1.64882 0
M  V30 1514 O 142.898 1.60162 -0.874893 0
M  V30 1515 C 142.949 -0.626435 -3.56031 0
M  V30 1516 O 142.67 -1.97693 -3.90959 0
M  V30 1517 C 144.171 -0.248857 -4.42601 0
M  V30 1518 H 141.391 -0.190052 -0.643523 0
M  V30 1519 H 143.935 -1.1634 -1.68182 0
M  V30 1520 H 142.09 0.00322717 -3.874 0
M  V30 1521 H 142.504 -1.98034 -4.85678 0
M  V30 1522 H 143.978 -0.398016 -5.50563 0
M  V30 1523 H 144.455 0.811489 -4.31638 0
M  V30 1524 H 145.061 -0.853971 -4.16638 0
M  V30 1525 N 143.376 1.44774 -0.622745 0
M  V30 1526 C 144.604 2.06487 -0.130722 0
M  V30 1527 C 145.019 1.46476 1.19123 0
M  V30 1528 O 144.376 0.584502 1.72887 0
M  V30 1529 C 144.427 3.615 -0.000807207 0
M  V30 1530 O 144.148 4.19274 -1.27048 0
M  V30 1531 C 145.649 4.40229 0.520898 0
M  V30 1532 H 142.869 0.666704 -0.0758106 0
M  V30 1533 H 145.413 1.85779 -0.854774 0
M  V30 1534 H 143.568 3.81498 0.673643 0
M  V30 1535 H 143.982 5.12622 -1.1099 0
M  V30 1536 H 145.456 5.49144 0.560838 0
M  V30 1537 H 145.933 4.1108 1.54627 0
M  V30 1538 H 146.539 4.25131 -0.120018 0
M  V30 1539 N 144.854 0.36279 1.53368 0
M  V30 1540 C 146.102 -0.227326 2.00817 0
M  V30 1541 C 146.423 -1.49511 1.25186 0
M  V30 1542 O 145.693 -1.92482 0.364348 0
M  V30 1543 H 144.273 -0.0869923 0.741917 0
M  V30 1544 H 146.935 0.488381 1.88682 0
M  V30 1545 H 146.031 -0.456273 3.08747 0
M  V30 1546 N 146.332 -1.57332 0.0918853 0
M  V30 1547 C 147.609 -1.85691 -0.614668 0
M  V30 1548 C 147.989 -0.988146 -1.86545 0
M  V30 1549 O 147.337 -0.0597055 -2.28422 0
M  V30 1550 C 147.547 -3.36294 -0.933126 0
M  V30 1551 C 148.895 -4.04275 -1.29796 0
M  V30 1552 O 149.919 -3.41157 -1.02424 0
M  V30 1553 O 148.778 -5.1564 -1.81047 0
M  V30 1554 H 145.872 -0.767802 -0.307261 0
M  V30 1555 H 148.418 -1.69244 0.12434 0
M  V30 1556 H 147.19 -3.91273 -0.0456404 0
M  V30 1557 H 146.813 -3.58076 -1.72822 0
M  V30 1558 N 147.81 0.181792 -1.56548 0
M  V30 1559 C 149.058 0.89832 -1.81038 0
M  V30 1560 C 149.379 1.83232 -0.667164 0
M  V30 1561 O 148.649 1.93372 0.313673 0
M  V30 1562 H 147.229 0.33471 -0.667816 0
M  V30 1563 H 149.891 0.184116 -1.94028 0
M  V30 1564 H 148.987 1.4815 -2.74696 0
M  V30 1565 N 149.288 1.51039 0.449983 0
M  V30 1566 C 150.235 1.71439 1.54523 0
M  V30 1567 C 151.205 0.555871 1.56522 0
M  V30 1568 O 152.39 0.788871 1.73728 0
M  V30 1569 C 149.53 1.83384 2.92343 0
M  V30 1570 C 148.643 3.10873 2.9997 0
M  V30 1571 C 147.778 3.13488 4.28834 0
M  V30 1572 C 146.817 4.35343 4.30282 0
M  V30 1573 N 145.954 4.35579 5.5065 0
M  V30 1574 H 150.794 2.64934 1.36433 0
M  V30 1575 H 148.331 1.31312 0.662982 0
M  V30 1576 H 150.289 1.88291 3.72293 0
M  V30 1577 H 148.919 0.933086 3.0902 0
M  V30 1578 H 147.971 3.15336 2.12761 0
M  V30 1579 H 149.283 4.00814 2.96901 0
M  V30 1580 H 148.437 3.17241 5.17149 0
M  V30 1581 H 147.176 2.21414 4.34543 0
M  V30 1582 H 146.181 4.3178 3.40362 0
M  V30 1583 H 147.406 5.28668 4.26248 0
M  V30 1584 H 145.352 3.46369 5.57104 0
M  V30 1585 H 145.269 5.19313 5.49409 0
M  V30 1586 H 146.537 4.43507 6.41032 0
M  V30 1587 N 150.766 -0.704594 1.40972 0
M  V30 1588 C 152.177 -1.28418 1.3552 0
M  V30 1589 C 152.528 -1.96171 0.0339434 0
M  V30 1590 O 151.653 -1.98231 -0.867944 0
M  V30 1591 C 152.248 -2.33528 2.45459 0
M  V30 1592 C 150.807 -2.87085 2.43433 0
M  V30 1593 C 149.954 -1.61007 2.2577 0
M  V30 1594 H 152.905 -0.499963 1.50619 0
M  V30 1595 H 152.926 -3.14619 2.13998 0
M  V30 1596 H 152.438 -1.84187 3.41609 0
M  V30 1597 H 150.539 -3.40626 1.51013 0
M  V30 1598 H 150.652 -3.3813 3.39419 0
M  V30 1599 H 149.016 -1.86482 1.73483 0
M  V30 1600 H 149.799 -1.13675 3.23933 0
M  V30 1601 N 152.244 -1.26651 -0.937939 0
M  V30 1602 C 153.174 -1.10993 -2.05433 0
M  V30 1603 C 154.155 -0.0142161 -1.70094 0
M  V30 1604 O 155.34 -0.186837 -1.93299 0
M  V30 1605 C 152.47 -0.745561 -3.39203 0
M  V30 1606 C 151.424 -1.79337 -3.88616 0
M  V30 1607 C 150.75 -1.28324 -5.19073 0
M  V30 1608 C 152.05 -3.19553 -4.13138 0
M  V30 1609 H 153.744 -2.0438 -2.1879 0
M  V30 1610 H 151.29 -0.984041 -1.05131 0
M  V30 1611 H 153.243 -0.622888 -4.16771 0
M  V30 1612 H 151.967 0.22401 -3.25831 0
M  V30 1613 H 150.626 -1.90477 -3.13231 0
M  V30 1614 H 150.274 -0.303414 -5.02084 0
M  V30 1615 H 149.974 -1.98369 -5.53103 0
M  V30 1616 H 151.498 -1.1733 -5.99221 0
M  V30 1617 H 152.912 -3.11471 -4.81309 0
M  V30 1618 H 151.309 -3.87218 -4.58457 0
M  V30 1619 H 152.379 -3.65368 -3.18801 0
M  V30 1620 N 153.722 1.14298 -1.08507 0
M  V30 1621 C 154.685 2.17607 -0.719711 0
M  V30 1622 C 155.685 1.58907 0.245997 0
M  V30 1623 O 156.875 1.74181 0.0254081 0
M  V30 1624 C 154.007 3.40842 -0.0627695 0
M  V30 1625 H 155.2 2.51443 -1.63452 0
M  V30 1626 H 152.753 1.28963 -0.88307 0
M  V30 1627 H 153.488 3.12587 0.863716 0
M  V30 1628 H 153.273 3.84713 -0.757504 0
M  V30 1629 H 154.763 4.17221 0.177786 0
M  V30 1630 N 155.201 0.870884 1.31352 0
M  V30 1631 C 156.429 0.49677 2.00848 0
M  V30 1632 C 156.844 -0.910998 1.65367 0
M  V30 1633 O 156.201 -1.59696 0.883374 0
M  V30 1634 C 156.252 0.645308 3.55694 0
M  V30 1635 O 155.973 1.99764 3.89905 0
M  V30 1636 C 157.474 0.272326 4.42463 0
M  V30 1637 H 154.694 0.193462 0.642506 0
M  V30 1638 H 157.238 1.1723 1.67563 0
M  V30 1639 H 155.393 0.0173176 3.87396 0
M  V30 1640 H 155.807 2.00607 4.84621 0
M  V30 1641 H 157.281 0.427208 5.50344 0
M  V30 1642 H 157.758 -0.788587 4.32062 0
M  V30 1643 H 158.364 0.876054 4.1618 0
M  V30 1644 N 156.679 -1.44442 0.630414 0
M  V30 1645 C 157.956 -1.9549 0.0655657 0
M  V30 1646 C 158.336 -1.5724 -1.40851 0
M  V30 1647 O 157.684 -0.846116 -2.12257 0
M  V30 1648 C 157.894 -3.47812 0.287691 0
M  V30 1649 C 159.242 -4.24216 0.180513 0
M  V30 1650 O 160.266 -3.55526 0.219019 0
M  V30 1651 O 159.125 -5.46434 0.0848493 0
M  V30 1652 H 156.219 -0.826688 -0.0227177 0
M  V30 1653 H 158.765 -1.54496 0.702068 0
M  V30 1654 H 157.537 -3.687 1.31056 0
M  V30 1655 H 157.16 -3.95751 -0.382984 0
M  V30 1656 N 158.157 -0.370918 -1.53173 0
M  V30 1657 C 159.387 0.217389 -2.05453 0
M  V30 1658 C 159.795 1.42568 -1.24382 0
M  V30 1659 O 159.138 1.81571 -0.278839 0
M  V30 1660 C 159.2 0.669827 -3.53205 0
M  V30 1661 C 158.864 -0.4225 -4.55043 0
M  V30 1662 C 159.861 -1.27407 -5.04047 0
M  V30 1663 C 157.546 -0.58427 -4.9889 0
M  V30 1664 C 159.54 -2.27271 -5.95505 0
M  V30 1665 C 157.227 -1.58627 -5.90153 0
M  V30 1666 C 158.225 -2.42892 -6.38351 0
M  V30 1667 O 157.913 -3.41382 -7.27814 0
M  V30 1668 H 157.645 0.0408171 -0.674767 0
M  V30 1669 H 160.199 -0.5292 -1.98466 0
M  V30 1670 H 158.429 1.4681 -3.57748 0
M  V30 1671 H 160.118 1.18173 -3.88317 0
M  V30 1672 H 160.884 -1.16031 -4.70916 0
M  V30 1673 H 156.763 0.061851 -4.60959 0
M  V30 1674 H 160.307 -2.93079 -6.33049 0
M  V30 1675 H 156.204 -1.70048 -6.22699 0
M  V30 1676 H 156.972 -3.37173 -7.45826 0
M  V30 1677 N 159.635 1.57281 -0.100228 0
M  V30 1678 C 160.583 2.15542 0.874328 0
M  V30 1679 C 161.577 1.09962 1.28859 0
M  V30 1680 O 162.783 1.28298 1.26252 0
M  V30 1681 H 159.158 0.689567 0.300003 0
M  V30 1682 H 161.129 2.96241 0.35829 0
M  V30 1683 C 159.878 2.75454 2.1218 0
M  V30 1684 H 159.201 3.56384 1.81193 0
M  V30 1685 H 160.641 3.19781 2.78417 0
M  V30 1686 C 159.1 1.71602 2.89921 0
M  V30 1687 O 159.63 1.15804 3.84646 0
M  V30 1688 N 157.836 1.41975 2.53558 0
M  V30 1689 H 157.383 1.87539 1.76598 0
M  V30 1690 H 157.341 0.727274 3.05873 0
M  V30 1691 N 161.113 -0.173488 1.56642 0
M  V30 1692 C 162.361 -0.888706 1.81512 0
M  V30 1693 C 162.682 -1.82875 0.676872 0
M  V30 1694 O 161.952 -1.93536 -0.303414 0
M  V30 1695 H 160.532 -0.331164 0.669582 0
M  V30 1696 H 163.194 -0.173823 1.94123 0
M  V30 1697 H 162.29 -1.46691 2.75478 0
M  V30 1698 N 162.591 -1.51276 -0.441967 0
M  V30 1699 C 163.539 -1.72823 -1.55676 0
M  V30 1700 C 164.533 -0.59445 -1.58627 0
M  V30 1701 O 165.739 -0.775715 -1.62427 0
M  V30 1702 H 162.114 -0.545983 -0.517113 0
M  V30 1703 H 164.085 -2.6628 -1.34675 0
M  V30 1704 C 162.834 -1.86619 -2.93375 0
M  V30 1705 H 162.157 -2.73264 -2.91834 0
M  V30 1706 H 163.597 -2.05709 -3.70756 0
M  V30 1707 C 162.056 -0.624842 -3.31055 0
M  V30 1708 O 162.586 0.222636 -4.01083 0
M  V30 1709 N 160.792 -0.470288 -2.86769 0
M  V30 1710 H 160.339 -1.161 -2.29953 0
M  V30 1711 H 160.297 0.359051 -3.12343 0
M  V30 1712 N 164.069 0.697108 -1.41344 0
M  V30 1713 C 165.309 1.46939 -1.42085 0
M  V30 1714 C 165.673 1.9198 -0.0280397 0
M  V30 1715 O 166.874 2.6865 0.0897504 0
M  V30 1716 C 165.145 2.64985 -2.39828 0
M  V30 1717 S 166.704 3.54147 -2.59085 0
M  V30 1718 H 163.522 0.502146 -0.503359 0
M  V30 1719 H 166.124 0.813546 -1.77769 0
M  V30 1720 H 164.828 2.30098 -3.39828 0
M  V30 1721 H 164.359 3.35464 -2.05493 0
M  V30 1722 H 166.374 4.60137 -1.85711 0
M  V30 1723 N 165.547 1.27147 0.931209 0
M  V30 1724 C 166.772 1.16191 1.71797 0
M  V30 1725 C 167.197 -0.278004 1.86034 0
M  V30 1726 O 166.555 -1.20137 1.35782 0
M  V30 1727 C 166.603 1.84673 3.09723 0
M  V30 1728 O 165.707 1.14231 3.96264 0
M  V30 1729 H 165.048 0.404303 0.526721 0
M  V30 1730 H 167.578 1.68152 1.1656 0
M  V30 1731 H 167.588 1.91893 3.60057 0
M  V30 1732 H 166.263 2.89421 2.98677 0
M  V30 1733 H 164.84 1.15056 3.54706 0
M  V30 1734 N 167.025 -1.13721 1.09112 0
M  V30 1735 C 167.955 -2.21148 0.749385 0
M  V30 1736 C 168.936 -1.6792 -0.271475 0
M  V30 1737 O 170.121 -1.93693 -0.140251 0
M  V30 1738 C 167.251 -3.46905 0.165659 0
M  V30 1739 C 166.205 -4.13203 1.11567 0
M  V30 1740 C 165.531 -5.33248 0.393809 0
M  V30 1741 C 166.831 -4.60912 2.45678 0
M  V30 1742 H 168.525 -2.4999 1.64758 0
M  V30 1743 H 166.071 -1.20156 0.793626 0
M  V30 1744 H 168.024 -4.21313 -0.085466 0
M  V30 1745 H 166.748 -3.17449 -0.767714 0
M  V30 1746 H 165.407 -3.40758 1.35202 0
M  V30 1747 H 165.055 -5.00054 -0.543599 0
M  V30 1748 H 164.755 -5.78552 1.02721 0
M  V30 1749 H 166.279 -6.10413 0.150908 0
M  V30 1750 H 167.693 -5.26759 2.26269 0
M  V30 1751 H 166.09 -5.16944 3.04776 0
M  V30 1752 H 167.16 -3.75603 3.06677 0
M  V30 1753 N 168.503 -0.877838 -1.30888 0
M  V30 1754 C 169.413 -0.343096 -2.32078 0
M  V30 1755 C 170.429 0.551022 -1.65045 0
M  V30 1756 O 171.605 0.445854 -1.96403 0
M  V30 1757 C 168.67 0.439905 -3.43898 0
M  V30 1758 C 167.731 -0.483111 -4.26573 0
M  V30 1759 C 166.964 0.262616 -5.33053 0
M  V30 1760 O 167.187 1.48967 -5.50604 0
M  V30 1761 O 166.121 -0.383593 -6.00676 0
M  V30 1762 H 169.947 -1.18203 -2.79753 0
M  V30 1763 H 167.532 -0.64145 -1.34929 0
M  V30 1764 H 169.414 0.883504 -4.12034 0
M  V30 1765 H 168.089 1.25526 -2.98371 0
M  V30 1766 H 166.996 -0.975374 -3.61161 0
M  V30 1767 H 168.329 -1.26427 -4.75686 0
M  V30 1768 N 169.982 1.44106 -0.638065 0
M  V30 1769 C 170.929 2.30715 0.062701 0
M  V30 1770 C 171.899 1.43882 0.829883 0
M  V30 1771 O 173.084 1.72775 0.809532 0
M  V30 1772 C 170.224 3.29258 1.03358 0
M  V30 1773 C 169.337 4.31192 0.26409 0
M  V30 1774 C 168.472 5.16825 1.22741 0
M  V30 1775 C 167.511 6.10462 0.447475 0
M  V30 1776 N 166.648 6.8877 1.36161 0
M  V30 1777 H 171.488 2.90096 -0.681781 0
M  V30 1778 H 169.025 1.42925 -0.347988 0
M  V30 1779 H 170.983 3.84886 1.60992 0
M  V30 1780 H 169.613 2.71562 1.74511 0
M  V30 1781 H 168.665 3.77981 -0.428295 0
M  V30 1782 H 169.977 4.97619 -0.343052 0
M  V30 1783 H 169.131 5.77004 1.87487 0
M  V30 1784 H 167.87 4.50488 1.86847 0
M  V30 1785 H 166.875 5.49386 -0.213433 0
M  V30 1786 H 168.1 6.78837 -0.188968 0
M  V30 1787 H 166.046 6.25096 1.98975 0
M  V30 1788 H 165.963 7.51663 0.808656 0
M  V30 1789 H 167.231 7.53467 1.99769 0
M  V30 1790 N 171.46 0.379036 1.52974 0
M  V30 1791 C 172.707 -0.206421 2.01445 0
M  V30 1792 C 173.035 -1.47668 1.26587 0
M  V30 1793 O 172.29 -1.92514 0.351675 0
M  V30 1794 C 172.589 -0.53096 3.53434 0
M  V30 1795 C 172.255 0.646546 4.46241 0
M  V30 1796 C 170.917 0.969604 4.7133 0
M  V30 1797 C 173.269 1.43479 5.01062 0
M  V30 1798 C 170.597 2.08263 5.48492 0
M  V30 1799 C 172.949 2.53834 5.7944 0
M  V30 1800 C 171.613 2.86659 6.02812 0
M  V30 1801 H 170.883 -0.0755349 0.73714 0
M  V30 1802 H 173.53 0.514271 1.84465 0
M  V30 1803 H 171.835 -1.33285 3.68432 0
M  V30 1804 H 173.532 -0.996417 3.88423 0
M  V30 1805 H 170.122 0.384734 4.2687 0
M  V30 1806 H 174.306 1.19844 4.81613 0
M  V30 1807 H 169.562 2.34078 5.64816 0
M  V30 1808 H 173.736 3.15319 6.20924 0
M  V30 1809 H 171.363 3.73026 6.62387 0
M  V30 1810 N 172.938 -1.57226 0.108567 0
M  V30 1811 C 174.168 -1.9889 -0.559142 0
M  V30 1812 C 174.576 -0.986889 -1.61422 0
M  V30 1813 O 173.919 0.0298705 -1.83676 0
M  V30 1814 C 173.981 -3.36952 -1.25315 0
M  V30 1815 C 173.645 -4.55679 -0.347248 0
M  V30 1816 C 174.642 -5.18281 0.409996 0
M  V30 1817 C 172.327 -5.0162 -0.261367 0
M  V30 1818 C 174.321 -6.25203 1.24096 0
M  V30 1819 C 172.008 -6.08405 0.573238 0
M  V30 1820 C 173.006 -6.70063 1.32304 0
M  V30 1821 O 172.694 -7.74788 2.14381 0
M  V30 1822 H 172.426 -0.658343 -0.153492 0
M  V30 1823 H 174.98 -2.04532 0.188584 0
M  V30 1824 H 173.21 -3.28032 -2.04773 0
M  V30 1825 H 174.899 -3.62974 -1.81673 0
M  V30 1826 H 175.665 -4.8371 0.353457 0
M  V30 1827 H 171.544 -4.53381 -0.834656 0
M  V30 1828 H 175.088 -6.73259 1.82669 0
M  V30 1829 H 170.985 -6.42406 0.631208 0
M  V30 1830 H 171.753 -7.91837 2.07209 0
M  V30 1831 N 174.416 0.165178 -1.56732 0
M  V30 1832 C 175.693 0.908443 -1.73224 0
M  V30 1833 C 176.073 2.0013 -0.67165 0
M  V30 1834 O 175.421 2.26353 0.31253 0
M  V30 1835 C 175.631 1.46756 -3.16644 0
M  V30 1836 C 176.979 1.93809 -3.77787 0
M  V30 1837 O 178.003 1.56537 -3.1996 0
M  V30 1838 O 176.862 2.62486 -4.79336 0
M  V30 1839 H 173.956 0.428025 -0.707618 0
M  V30 1840 H 176.502 0.152526 -1.69013 0
M  V30 1841 H 175.274 0.68129 -3.85323 0
M  V30 1842 H 174.897 2.28749 -3.25207 0
M  V30 1843 N 175.894 1.51508 0.433938 0
M  V30 1844 C 177.171 1.54888 1.19453 0
M  V30 1845 C 177.551 0.315154 2.08734 0
M  V30 1846 O 176.899 -0.699558 2.17528 0
M  V30 1847 C 177.109 2.86467 1.99342 0
M  V30 1848 C 178.457 3.38545 2.56267 0
M  V30 1849 O 179.481 2.88041 2.0955 0
M  V30 1850 O 178.34 4.26675 3.41483 0
M  V30 1851 H 175.434 0.622863 0.544032 0
M  V30 1852 H 177.98 1.63823 0.442732 0
M  V30 1853 H 176.752 3.67718 1.33788 0
M  V30 1854 H 176.375 2.8071 2.8158 0
M  V30 1855 N 177.372 -0.689602 1.41712 0
M  V30 1856 C 178.783 -1.26973 1.36875 0
M  V30 1857 C 179.134 -1.96124 0.054748 0
M  V30 1858 O 178.259 -1.99141 -0.84687 0
M  V30 1859 C 178.854 -2.30912 2.47922 0
M  V30 1860 C 177.413 -2.84486 2.46464 0
M  V30 1861 C 176.56 -1.58603 2.27465 0
M  V30 1862 H 179.511 -0.48396 1.51141 0
M  V30 1863 H 179.532 -3.12331 2.17323 0
M  V30 1864 H 179.044 -1.80554 3.43543 0
M  V30 1865 H 177.145 -3.39005 1.54617 0
M  V30 1866 H 177.258 -3.34511 3.42986 0
M  V30 1867 H 175.622 -1.84632 1.75451 0
M  V30 1868 H 176.405 -1.10233 3.25121 0
M  V30 1869 N 178.85 -1.27639 -0.924453 0
M  V30 1870 C 180.266 -1.05113 -1.20097 0
M  V30 1871 C 180.466 0.213262 -2.00368 0
M  V30 1872 O 179.522 0.91787 -2.35226 0
M  V30 1873 C 180.835 -2.29244 -1.94596 0
M  V30 1874 C 182.383 -2.34315 -2.07522 0
M  V30 1875 C 182.858 -3.58183 -2.85427 0
M  V30 1876 N 184.349 -3.5876 -2.92994 0
M  V30 1877 C 185.084 -4.51277 -3.53746 0
M  V30 1878 N 184.58 -5.54102 -4.15863 0
M  V30 1879 N 186.373 -4.38894 -3.51181 0
M  V30 1880 H 178.524 -2.08821 -0.388264 0
M  V30 1881 H 180.787 -0.918568 -0.234385 0
M  V30 1882 H 180.493 -3.21301 -1.43034 0
M  V30 1883 H 180.367 -2.34816 -2.95197 0
M  V30 1884 H 182.754 -1.42762 -2.58269 0
M  V30 1885 H 182.835 -2.32744 -1.06131 0
M  V30 1886 H 182.479 -4.50074 -2.35363 0
M  V30 1887 H 182.409 -3.57006 -3.8711 0
M  V30 1888 H 184.9 -2.84398 -2.4885 0
M  V30 1889 H 185.213 -6.20859 -4.60168 0
M  V30 1890 H 183.558 -5.57941 -4.144 0
M  V30 1891 H 186.749 -3.57772 -3.01856 0
M  V30 1892 H 186.922 -5.11186 -3.98237 0
M  V30 1893 N 180.328 1.1314 -1.09713 0
M  V30 1894 C 181.553 1.88862 -0.857081 0
M  V30 1895 C 181.978 1.78729 0.586304 0
M  V30 1896 O 181.336 1.13692 1.41222 0
M  V30 1897 C 181.384 3.36325 -1.30069 0
M  V30 1898 O 180.488 4.09815 -0.461007 0
M  V30 1899 H 179.829 0.587108 -0.310162 0
M  V30 1900 H 182.359 1.43129 -1.46203 0
M  V30 1901 H 182.369 3.87157 -1.28738 0
M  V30 1902 H 181.044 3.43017 -2.35185 0
M  V30 1903 H 179.621 3.68986 -0.538888 0
M  V30 1904 N 181.806 0.884767 1.30421 0
M  V30 1905 C 182.754 0.340869 2.30089 0
M  V30 1906 C 183.748 -0.55201 1.60154 0
M  V30 1907 O 184.954 -0.436467 1.74628 0
M  V30 1908 H 181.329 0.0915739 0.746404 0
M  V30 1909 H 183.3 1.19513 2.73421 0
M  V30 1910 C 182.049 -0.429779 3.45034 0
M  V30 1911 H 181.372 0.248024 3.9903 0
M  V30 1912 H 182.812 -0.775445 4.16849 0
M  V30 1913 C 181.271 -1.62677 2.95022 0
M  V30 1914 O 181.801 -2.72614 2.95033 0
M  V30 1915 N 180.007 -1.46387 2.51036 0
M  V30 1916 H 179.554 -0.569506 2.51226 0
M  V30 1917 H 179.512 -2.26612 2.17932 0
M  V30 1918 N 183.284 -1.43765 0.645699 0
M  V30 1919 C 184.561 -1.9541 0.0862963 0
M  V30 1920 C 184.941 -1.58725 -1.39175 0
M  V30 1921 O 184.289 -0.868581 -2.11348 0
M  V30 1922 C 184.499 -3.47488 0.324565 0
M  V30 1923 C 185.847 -4.24001 0.225497 0
M  V30 1924 O 186.871 -3.55274 0.256715 0
M  V30 1925 O 185.73 -5.46313 0.142801 0
M  V30 1926 H 182.824 -0.826882 -0.0139483 0
M  V30 1927 H 185.37 -1.53743 0.718415 0
M  V30 1928 H 184.142 -3.67289 1.3496 0
M  V30 1929 H 183.765 -3.96135 -0.340987 0
M  V30 1930 N 184.763 -0.387143 -1.52771 0
M  V30 1931 C 186.011 0.195349 -2.01154 0
M  V30 1932 C 186.332 1.475 -1.27549 0
M  V30 1933 O 185.602 1.91878 -0.394924 0
M  V30 1934 H 184.182 0.075178 -0.743207 0
M  V30 1935 H 186.844 -0.518337 -1.87881 0
M  V30 1936 H 185.94 0.407096 -3.09434 0
M  V30 1937 N 186.241 1.57166 -0.116904 0
M  V30 1938 C 187.189 2.16457 0.851418 0
M  V30 1939 C 188.183 1.11323 1.27686 0
M  V30 1940 O 189.389 1.2963 1.24884 0
M  V30 1941 H 185.764 0.69271 0.292672 0
M  V30 1942 H 187.735 2.96605 0.32685 0
M  V30 1943 C 186.484 2.77689 2.09246 0
M  V30 1944 H 185.807 3.58285 1.77402 0
M  V30 1945 H 187.247 3.22716 2.7501 0
M  V30 1946 C 185.706 1.74667 2.88085 0
M  V30 1947 O 186.236 1.19877 3.83396 0
M  V30 1948 N 184.442 1.44656 2.52038 0
M  V30 1949 H 183.989 1.89402 1.74599 0
M  V30 1950 H 183.947 0.759675 3.05084 0
M  V30 1951 N 187.719 -0.156864 1.56817 0
M  V30 1952 C 188.944 -0.890331 1.87318 0
M  V30 1953 C 189.369 -1.74394 0.704855 0
M  V30 1954 O 188.727 -1.77972 -0.345786 0
M  V30 1955 C 188.775 -1.73102 3.16336 0
M  V30 1956 O 187.879 -2.83422 2.99576 0
M  V30 1957 H 187.22 -0.24857 0.615718 0
M  V30 1958 H 189.75 -0.150649 2.04045 0
M  V30 1959 H 189.76 -2.12803 3.48107 0
M  V30 1960 H 188.435 -1.10412 4.00976 0
M  V30 1961 H 187.012 -2.47199 2.7919 0
M  V30 1962 N 189.197 -1.51736 -0.425897 0
M  V30 1963 C 190.427 -1.68549 -1.19476 0
M  V30 1964 C 190.835 -0.387288 -1.85194 0
M  V30 1965 O 190.178 0.645142 -1.71999 0
M  V30 1966 C 190.24 -2.75275 -2.31223 0
M  V30 1967 C 189.904 -4.17534 -1.8578 0
M  V30 1968 C 190.901 -5.01936 -1.35485 0
M  V30 1969 C 188.586 -4.6369 -1.93123 0
M  V30 1970 C 190.58 -6.30559 -0.931347 0
M  V30 1971 C 188.267 -5.92307 -1.50384 0
M  V30 1972 C 189.265 -6.75569 -1.00473 0
M  V30 1973 O 188.953 -8.0178 -0.583452 0
M  V30 1974 H 188.685 -0.568525 -0.365725 0
M  V30 1975 H 191.239 -1.98982 -0.509444 0
M  V30 1976 H 189.469 -2.40182 -3.03067 0
M  V30 1977 H 191.158 -2.80853 -2.93047 0
M  V30 1978 H 191.924 -4.67475 -1.29197 0
M  V30 1979 H 187.803 -3.98997 -2.30916 0
M  V30 1980 H 191.347 -6.95498 -0.541084 0
M  V30 1981 H 187.244 -6.2628 -1.56346 0
M  V30 1982 H 188.012 -8.1543 -0.708275 0
M  V30 1983 N 190.675 0.682077 -1.42076 0
M  V30 1984 C 192.091 0.994324 -1.24841 0
M  V30 1985 C 192.291 2.0096 -0.147389 0
M  V30 1986 O 191.347 2.47822 0.483782 0
M  V30 1987 C 192.66 1.50607 -2.60265 0
M  V30 1988 C 194.208 1.62421 -2.6756 0
M  V30 1989 C 194.683 2.16994 -4.03333 0
M  V30 1990 N 196.174 2.24337 -4.0525 0
M  V30 1991 C 196.909 2.67621 -5.07116 0
M  V30 1992 N 196.405 3.1041 -6.19368 0
M  V30 1993 N 198.198 2.67305 -4.94474 0
M  V30 1994 H 190.349 0.00973908 -2.12398 0
M  V30 1995 H 192.612 0.0668593 -0.945639 0
M  V30 1996 H 192.318 0.834583 -3.41654 0
M  V30 1997 H 192.192 2.48602 -2.83684 0
M  V30 1998 H 194.579 2.28678 -1.86521 0
M  V30 1999 H 194.66 0.629352 -2.47937 0
M  V30 2000 H 194.304 1.51349 -4.84826 0
M  V30 2001 H 194.234 3.17258 -4.20304 0
M  V30 2002 H 196.725 1.94158 -3.24209 0
M  V30 2003 H 197.038 3.42103 -6.92954 0
M  V30 2004 H 195.383 3.08286 -6.22884 0
M  V30 2005 H 198.574 2.33233 -4.05857 0
M  V30 2006 H 198.747 3.00718 -5.73997 0
M  V30 2007 N 192.153 1.28127 0.917671 0
M  V30 2008 C 193.083 1.14248 2.03641 0
M  V30 2009 C 194.064 0.0412748 1.7005 0
M  V30 2010 O 195.249 0.217566 1.92977 0
M  V30 2011 C 192.379 0.799431 3.37974 0
M  V30 2012 C 191.333 1.85497 3.85713 0
M  V30 2013 C 190.659 1.36565 5.16966 0
M  V30 2014 C 191.959 3.26085 4.08002 0
M  V30 2015 H 193.653 2.07835 2.15511 0
M  V30 2016 H 191.199 1.00064 1.03553 0
M  V30 2017 H 193.152 0.689114 4.15727 0
M  V30 2018 H 191.876 -0.172145 3.26146 0
M  V30 2019 H 190.535 1.95437 3.10161 0
M  V30 2020 H 190.183 0.383253 5.01538 0
M  V30 2021 H 189.883 2.07143 5.49878 0
M  V30 2022 H 191.407 1.26848 5.97279 0
M  V30 2023 H 192.821 3.19089 4.76293 0
M  V30 2024 H 191.218 3.94462 4.52238 0
M  V30 2025 H 192.288 3.70394 3.12948 0
M  V30 2026 N 193.631 -1.12557 1.10312 0
M  V30 2027 C 194.563 -2.17971 0.708625 0
M  V30 2028 C 195.576 -1.60806 -0.254027 0
M  V30 2029 O 196.765 -1.78458 -0.0386891 0
M  V30 2030 C 193.865 -3.38891 0.0248198 0
M  V30 2031 C 193.038 -4.25548 1.01132 0
M  V30 2032 C 192.097 -5.24972 0.35924 0
M  V30 2033 O 191.123 -5.60174 1.00965 0
M  V30 2034 N 192.325 -5.73747 -0.882847 0
M  V30 2035 H 195.09 -2.52427 1.61557 0
M  V30 2036 H 192.651 -1.27967 0.991771 0
M  V30 2037 H 194.643 -4.02485 -0.422852 0
M  V30 2038 H 193.213 -3.02596 -0.784514 0
M  V30 2039 H 192.433 -3.58589 1.6373 0
M  V30 2040 H 193.721 -4.80294 1.67914 0
M  V30 2041 H 193.119 -5.4731 -1.43065 0
M  V30 2042 H 191.676 -6.39234 -1.27369 0
M  V30 2043 N 195.109 -0.891671 -1.2995 0
M  V30 2044 C 196.334 -0.527932 -2.00568 0
M  V30 2045 C 196.759 0.877969 -1.66353 0
M  V30 2046 O 196.117 1.58301 -0.883762 0
M  V30 2047 C 196.165 -0.717745 -3.53385 0
M  V30 2048 O 195.269 0.233376 -4.11739 0
M  V30 2049 H 194.61 -0.20722 -0.630837 0
M  V30 2050 H 197.14 -1.20105 -1.65638 0
M  V30 2051 H 197.15 -0.619307 -4.03272 0
M  V30 2052 H 195.825 -1.74276 -3.77625 0
M  V30 2053 H 194.402 0.0880706 -3.72796 0
M  V30 2054 N 196.587 1.43421 -0.653314 0
M  V30 2055 C 197.833 2.02641 -0.175593 0
M  V30 2056 C 198.188 1.5062 1.19713 0
M  V30 2057 O 197.481 0.689697 1.78756 0
M  V30 2058 C 197.675 3.57176 -0.126623 0
M  V30 2059 C 197.504 4.24191 -1.49306 0
M  V30 2060 C 196.274 4.60257 -2.08547 0
M  V30 2061 C 198.472 4.53193 -2.43148 0
M  V30 2062 N 196.454 5.12345 -3.38194 0
M  V30 2063 C 197.825 5.06601 -3.57429 0
M  V30 2064 C 199.88 4.35161 -2.41949 0
M  V30 2065 C 198.583 5.43875 -4.70736 0
M  V30 2066 C 200.609 4.73498 -3.54336 0
M  V30 2067 C 199.971 5.27039 -4.67343 0
M  V30 2068 H 196.07 0.77441 -0.108686 0
M  V30 2069 H 198.654 1.74596 -0.861638 0
M  V30 2070 H 196.825 3.84784 0.528766 0
M  V30 2071 H 198.557 4.03078 0.36198 0
M  V30 2072 H 195.312 4.45302 -1.61255 0
M  V30 2073 H 195.736 5.42842 -4.04538 0
M  V30 2074 H 200.378 3.9304 -1.55818 0
M  V30 2075 H 198.096 5.8494 -5.57558 0
M  V30 2076 H 201.682 4.61241 -3.5461 0
M  V30 2077 H 200.562 5.56153 -5.52868 0
M  V30 2078 N 198.065 0.39524 1.52563 0
M  V30 2079 C 198.995 -0.428384 2.29537 0
M  V30 2080 C 199.976 -1.05831 1.33169 0
M  V30 2081 O 201.161 -1.06995 1.62067 0
M  V30 2082 C 198.291 -1.55274 3.10656 0
M  V30 2083 C 197.245 -1.04855 4.14957 0
M  V30 2084 C 196.571 -2.26543 4.84337 0
M  V30 2085 C 197.871 -0.112324 5.22179 0
M  V30 2086 H 199.565 0.213867 2.98635 0
M  V30 2087 H 197.111 0.104298 1.43622 0
M  V30 2088 H 199.064 -2.1358 3.63265 0
M  V30 2089 H 197.788 -2.22266 2.39302 0
M  V30 2090 H 196.447 -0.487985 3.63338 0
M  V30 2091 H 196.095 -2.92059 4.09525 0
M  V30 2092 H 195.795 -1.93466 5.54837 0
M  V30 2093 H 197.319 -2.85481 5.39753 0
M  V30 2094 H 198.733 -0.603752 5.70112 0
M  V30 2095 H 197.13 0.128968 5.99961 0
M  V30 2096 H 198.2 0.837052 4.77621 0
M  V30 2097 N 199.544 -1.57102 0.125237 0
M  V30 2098 C 200.774 -1.99472 -0.538015 0
M  V30 2099 C 201.182 -1.00395 -1.60366 0
M  V30 2100 O 200.525 0.0103875 -1.83697 0
M  V30 2101 C 200.587 -3.38262 -1.21734 0
M  V30 2102 C 200.251 -4.56021 -0.298897 0
M  V30 2103 C 201.248 -5.17817 0.464943 0
M  V30 2104 C 198.933 -5.01869 -0.208149 0
M  V30 2105 C 200.927 -6.23852 1.3072 0
M  V30 2106 C 198.614 -6.07763 0.637736 0
M  V30 2107 C 199.612 -6.68622 1.39403 0
M  V30 2108 O 199.3 -7.7247 2.22586 0
M  V30 2109 H 199.032 -0.659934 -0.146501 0
M  V30 2110 H 201.586 -2.04321 0.210267 0
M  V30 2111 H 199.816 -3.30185 -2.01282 0
M  V30 2112 H 201.505 -3.6488 -1.77813 0
M  V30 2113 H 202.271 -4.83308 0.404741 0
M  V30 2114 H 198.15 -4.54241 -0.786522 0
M  V30 2115 H 201.694 -6.71284 1.898 0
M  V30 2116 H 197.591 -6.41701 0.699309 0
M  V30 2117 H 198.359 -7.89595 2.15596 0
M  V30 2118 N 201.022 0.148545 -1.56898 0
M  V30 2119 C 202.247 0.880385 -1.87787 0
M  V30 2120 C 202.672 1.74018 -0.714093 0
M  V30 2121 O 202.03 1.78153 0.336343 0
M  V30 2122 C 202.078 1.71422 -3.17249 0
M  V30 2123 O 201.182 2.8183 -3.01074 0
M  V30 2124 H 200.523 0.245301 -0.617028 0
M  V30 2125 H 203.053 0.139826 -2.04122 0
M  V30 2126 H 203.063 2.10954 -3.49231 0
M  V30 2127 H 201.738 1.08284 -4.01556 0
M  V30 2128 H 200.315 2.45715 -2.80497 0
M  V30 2129 N 202.5 1.5196 0.417844 0
M  V30 2130 C 203.725 1.69717 1.1921 0
M  V30 2131 C 204.15 0.402148 1.83751 0
M  V30 2132 O 203.508 -0.639593 1.69643 0
M  V30 2133 C 203.556 2.82794 2.2374 0
M  V30 2134 O 202.66 2.47756 3.29683 0
M  V30 2135 H 202.001 0.565263 0.348387 0
M  V30 2136 H 204.531 1.98621 0.490985 0
M  V30 2137 H 204.541 3.07452 2.68212 0
M  V30 2138 H 203.216 3.76756 1.76146 0
M  V30 2139 H 201.793 2.33739 2.90552 0
M  V30 2140 N 203.978 -0.674533 1.42435 0
M  V30 2141 C 205.394 -0.98769 1.25367 0
M  V30 2142 C 205.594 -2.00879 0.158044 0
M  V30 2143 O 204.65 -2.48075 -0.470633 0
M  V30 2144 C 205.963 -1.49224 2.6106 0
M  V30 2145 C 207.511 -1.61 2.68417 0
M  V30 2146 C 207.986 -2.14852 4.04478 0
M  V30 2147 N 209.477 -2.22185 4.06434 0
M  V30 2148 C 210.212 -2.64928 5.08528 0
M  V30 2149 N 209.708 -3.07121 6.21006 0
M  V30 2150 N 211.501 -2.64679 4.95885 0
M  V30 2151 H 203.652 0.00152503 2.124 0
M  V30 2152 H 205.915 -0.0618434 0.945981 0
M  V30 2153 H 205.621 -0.816453 3.42092 0
M  V30 2154 H 205.495 -2.47094 2.84999 0
M  V30 2155 H 207.882 -2.27686 1.87732 0
M  V30 2156 H 207.963 -0.616195 2.48267 0
M  V30 2157 H 207.607 -1.48775 4.85622 0
M  V30 2158 H 207.537 -3.15024 4.2198 0
M  V30 2159 H 210.028 -1.92435 3.25234 0
M  V30 2160 H 210.341 -3.38423 6.94759 0
M  V30 2161 H 208.686 -3.04978 6.24511 0
M  V30 2162 H 211.877 -2.31078 4.07088 0
M  V30 2163 H 212.05 -2.9767 5.75584 0
M  V30 2164 N 205.456 -1.28612 -0.910864 0
M  V30 2165 C 206.386 -1.15326 -2.03032 0
M  V30 2166 C 207.367 -0.0502924 -1.70026 0
M  V30 2167 O 208.552 -0.227797 -1.92859 0
M  V30 2168 C 205.682 -0.817343 -3.37545 0
M  V30 2169 C 204.636 -1.8754 -3.84724 0
M  V30 2170 C 203.962 -1.39305 -5.16235 0
M  V30 2171 C 205.262 -3.28244 -4.06267 0
M  V30 2172 H 206.956 -2.08975 -2.14406 0
M  V30 2173 H 204.502 -1.00612 -1.03021 0
M  V30 2174 H 206.455 -0.711151 -4.15356 0
M  V30 2175 H 205.179 0.154846 -3.26233 0
M  V30 2176 H 203.838 -1.97079 -3.09121 0
M  V30 2177 H 203.486 -0.409846 -5.01328 0
M  V30 2178 H 203.186 -2.10057 -5.48771 0
M  V30 2179 H 204.71 -1.30014 -5.96598 0
M  V30 2180 H 206.124 -3.21611 -4.74594 0
M  V30 2181 H 204.521 -3.96855 -4.5014 0
M  V30 2182 H 205.591 -3.72048 -3.10979 0
M  V30 2183 N 206.934 1.1197 -1.10907 0
M  V30 2184 C 207.864 2.19928 -0.784473 0
M  V30 2185 C 208.845 1.6833 0.244726 0
M  V30 2186 O 210.03 1.93892 0.109418 0
M  V30 2187 C 207.16 3.46597 -0.220827 0
M  V30 2188 C 206.114 4.11376 -1.18127 0
M  V30 2189 C 205.44 5.32554 -0.478594 0
M  V30 2190 C 206.74 4.56945 -2.52979 0
M  V30 2191 H 208.434 2.47337 -1.68715 0
M  V30 2192 H 205.98 1.18879 -0.812642 0
M  V30 2193 H 207.933 4.21396 0.0184278 0
M  V30 2194 H 206.657 3.1863 0.717113 0
M  V30 2195 H 205.316 3.38564 -1.40606 0
M  V30 2196 H 204.964 5.00856 0.463976 0
M  V30 2197 H 204.664 5.76844 -1.11912 0
M  V30 2198 H 206.188 6.10096 -0.248 0
M  V30 2199 H 207.602 5.23093 -2.3462 0
M  V30 2200 H 205.999 5.1203 -3.12962 0
M  V30 2201 H 207.069 3.70676 -3.12614 0
M  V30 2202 N 208.412 0.89855 1.29475 0
M  V30 2203 C 209.344 0.332726 2.26772 0
M  V30 2204 C 210.357 -0.520323 1.54261 0
M  V30 2205 O 211.546 -0.337668 1.75277 0
M  V30 2206 C 208.646 -0.544334 3.345 0
M  V30 2207 C 207.819 0.282728 4.36485 0
M  V30 2208 C 206.878 -0.526982 5.23555 0
M  V30 2209 O 205.904 0.0551165 5.69173 0
M  V30 2210 N 207.106 -1.83331 5.5079 0
M  V30 2211 H 209.871 1.16897 2.75962 0
M  V30 2212 H 207.432 0.762919 1.42798 0
M  V30 2213 H 209.424 -1.09239 3.89678 0
M  V30 2214 H 207.994 -1.28127 2.85136 0
M  V30 2215 H 207.214 1.01221 3.80983 0
M  V30 2216 H 208.502 0.84918 5.01664 0
M  V30 2217 H 207.9 -2.32898 5.15534 0
M  V30 2218 H 206.457 -2.32852 6.08788 0
M  V30 2219 N 209.89 -1.43072 0.660911 0
M  V30 2220 C 211.12 -2.05769 0.185153 0
M  V30 2221 C 211.528 -1.49668 -1.15742 0
M  V30 2222 O 210.871 -0.625649 -1.72717 0
M  V30 2223 C 210.933 -3.59489 0.0278237 0
M  V30 2224 C 210.597 -4.38212 1.2969 0
M  V30 2225 C 211.594 -4.69772 2.22734 0
M  V30 2226 C 209.279 -4.7809 1.54063 0
M  V30 2227 C 211.273 -5.40129 3.38437 0
M  V30 2228 C 208.96 -5.4819 2.70058 0
M  V30 2229 C 209.958 -5.79132 3.62071 0
M  V30 2230 O 209.646 -6.47798 4.76039 0
M  V30 2231 H 209.378 -0.669873 0.0908086 0
M  V30 2232 H 211.932 -1.84436 0.90402 0
M  V30 2233 H 210.162 -3.79426 -0.746489 0
M  V30 2234 H 211.851 -4.03862 -0.406275 0
M  V30 2235 H 212.617 -4.39476 2.05149 0
M  V30 2236 H 208.496 -4.53408 0.833215 0
M  V30 2237 H 212.04 -5.64198 4.10277 0
M  V30 2238 H 207.937 -5.77902 2.87574 0
M  V30 2239 H 208.705 -6.66283 4.75404 0
M  V30 2240 N 211.368 -0.403325 -1.52352 0
M  V30 2241 C 212.593 0.176499 -2.06648 0
M  V30 2242 C 213.018 1.38577 -1.27193 0
M  V30 2243 O 212.376 1.7879 -0.300637 0
M  V30 2244 C 212.424 0.511061 -3.5696 0
M  V30 2245 O 211.528 1.60294 -3.79973 0
M  V30 2246 H 210.869 0.0167337 -0.663789 0
M  V30 2247 H 213.399 -0.574848 -1.96359 0
M  V30 2248 H 213.409 0.771362 -4.00642 0
M  V30 2249 H 212.084 -0.37296 -4.14224 0
M  V30 2250 H 210.661 1.33526 -3.48174 0
M  V30 2251 N 212.846 1.57033 -0.133567 0
M  V30 2252 C 214.123 1.87256 0.56522 0
M  V30 2253 C 214.503 1.03726 1.83859 0
M  V30 2254 O 213.851 0.120247 2.28183 0
M  V30 2255 C 214.061 3.3865 0.843636 0
M  V30 2256 C 215.409 4.07574 1.19032 0
M  V30 2257 O 216.433 3.43752 0.933429 0
M  V30 2258 O 215.292 5.20259 1.67312 0
M  V30 2259 H 212.386 0.775678 0.286796 0
M  V30 2260 H 214.932 1.68855 -0.169168 0
M  V30 2261 H 213.704 3.91257 -0.0581149 0
M  V30 2262 H 213.327 3.62532 1.63268 0
M  V30 2263 N 214.325 -0.140222 1.56975 0
M  V30 2264 C 215.288 -1.15689 1.97861 0
M  V30 2265 C 216.288 -1.3549 0.865974 0
M  V30 2266 O 217.478 -1.32367 1.13246 0
M  V30 2267 C 214.61 -2.51582 2.30042 0
M  V30 2268 H 215.803 -0.805971 2.88867 0
M  V30 2269 H 213.356 -0.383801 1.51515 0
M  V30 2270 H 214.091 -2.91632 1.41849 0
M  V30 2271 H 213.876 -2.38569 3.11171 0
M  V30 2272 H 215.366 -3.24792 2.62488 0
M  V30 2273 N 215.803 -1.52179 -0.40978 0
M  V30 2274 C 216.733 -1.78435 -1.5061 0
M  V30 2275 C 217.714 -0.635295 -1.57791 0
M  V30 2276 O 218.899 -0.880823 -1.73076 0
M  V30 2277 C 216.029 -1.93444 -2.88439 0
M  V30 2278 C 214.983 -3.09038 -2.96108 0
M  V30 2279 C 214.309 -3.09268 -4.36185 0
M  V30 2280 C 215.609 -4.48508 -2.67652 0
M  V30 2281 H 217.303 -2.70237 -1.28889 0
M  V30 2282 H 214.849 -1.30036 -0.618605 0
M  V30 2283 H 216.802 -2.10394 -3.65119 0
M  V30 2284 H 215.526 -0.983129 -3.11452 0
M  V30 2285 H 214.185 -2.91837 -2.21872 0
M  V30 2286 H 213.833 -2.11861 -4.56206 0
M  V30 2287 H 213.533 -3.86907 -4.42241 0
M  V30 2288 H 215.057 -3.28348 -5.14801 0
M  V30 2289 H 216.471 -4.65918 -3.34056 0
M  V30 2290 H 214.868 -5.28059 -2.85085 0
M  V30 2291 H 215.938 -4.56649 -1.63095 0
M  V30 2292 N 217.281 0.66697 -1.42791 0
M  V30 2293 C 218.191 1.80962 -1.49299 0
M  V30 2294 C 219.207 1.69775 -0.381108 0
M  V30 2295 O 220.383 1.91188 -0.633188 0
M  V30 2296 C 217.448 3.17156 -1.40045 0
M  V30 2297 C 216.509 3.40242 -2.6179 0
M  V30 2298 C 215.742 4.69939 -2.52969 0
M  V30 2299 O 215.965 5.48372 -1.56985 0
M  V30 2300 O 214.899 4.94441 -3.43237 0
M  V30 2301 H 218.725 1.78427 -2.45759 0
M  V30 2302 H 216.31 0.823713 -1.24641 0
M  V30 2303 H 218.192 3.98413 -1.37276 0
M  V30 2304 H 216.867 3.20312 -0.467138 0
M  V30 2305 H 215.774 2.58802 -2.70134 0
M  V30 2306 H 217.107 3.41923 -3.54047 0
M  V30 2307 N 218.759 1.29093 0.90403 0
M  V30 2308 C 219.709 1.10482 1.99443 0
M  V30 2309 C 220.693 0.0255401 1.6088 0
M  V30 2310 O 221.885 0.24677 1.75271 0
M  V30 2311 C 219.014 0.778882 3.34348 0
M  V30 2312 C 218.1 1.89749 3.79284 0
M  V30 2313 N 218.491 3.14045 3.96497 0
M  V30 2314 C 216.789 1.78955 4.08523 0
M  V30 2315 C 217.49 3.86996 4.34292 0
M  V30 2316 N 216.466 3.14909 4.43095 0
M  V30 2317 H 220.268 2.04778 2.10815 0
M  V30 2318 H 217.782 1.20155 1.09255 0
M  V30 2319 H 219.779 0.62661 4.12164 0
M  V30 2320 H 218.439 -0.156205 3.24324 0
M  V30 2321 H 219.45 3.49548 3.82148 0
M  V30 2322 H 216.127 0.926886 4.07081 0
M  V30 2323 H 217.517 4.93941 4.55491 0
M  V30 2324 N 220.237 -1.11381 1.11499 0
M  V30 2325 C 221.167 -2.19509 0.796125 0
M  V30 2326 C 222.148 -1.68458 -0.235796 0
M  V30 2327 O 223.333 -1.93947 -0.0991344 0
M  V30 2328 C 220.463 -3.46475 0.239205 0
M  V30 2329 C 219.417 -4.10744 1.20307 0
M  V30 2330 C 218.743 -5.32293 0.50683 0
M  V30 2331 C 220.043 -4.55597 2.55399 0
M  V30 2332 H 221.737 -2.46439 1.70024 0
M  V30 2333 H 219.283 -1.18446 0.818935 0
M  V30 2334 H 221.236 -4.214 0.00392006 0
M  V30 2335 H 219.96 -3.19006 -0.700206 0
M  V30 2336 H 218.619 -3.37813 1.42399 0
M  V30 2337 H 218.267 -5.01095 -0.437408 0
M  V30 2338 H 217.967 -5.76243 1.1497 0
M  V30 2339 H 219.491 -6.09956 0.280351 0
M  V30 2340 H 220.905 -5.21841 2.37391 0
M  V30 2341 H 219.302 -5.10363 3.15673 0
M  V30 2342 H 220.372 -3.69013 3.14575 0
M  V30 2343 N 221.715 -0.905404 -1.28997 0
M  V30 2344 C 222.645 -0.404212 -2.29975 0
M  V30 2345 C 223.626 0.523784 -1.61835 0
M  V30 2346 O 224.811 0.433298 -1.89304 0
M  V30 2347 C 221.941 0.364042 -3.45387 0
M  V30 2348 C 220.895 -0.474048 -4.25367 0
M  V30 2349 C 220.221 0.422045 -5.33032 0
M  V30 2350 C 221.521 -1.72696 -4.92923 0
M  V30 2351 H 223.215 -1.24807 -2.72146 0
M  V30 2352 H 220.761 -0.601585 -1.30832 0
M  V30 2353 H 222.714 0.725447 -4.15109 0
M  V30 2354 H 221.438 1.24174 -3.02074 0
M  V30 2355 H 220.097 -0.81786 -3.57361 0
M  V30 2356 H 219.745 1.29804 -4.85963 0
M  V30 2357 H 219.445 -0.135057 -5.87445 0
M  V30 2358 H 220.969 0.779517 -6.05604 0
M  V30 2359 H 222.383 -1.43495 -5.55051 0
M  V30 2360 H 220.78 -2.22582 -5.57295 0
M  V30 2361 H 221.85 -2.45964 -4.17887 0
M  V30 2362 N 223.193 1.4272 -0.668489 0
M  V30 2363 C 224.421 2.05966 -0.196348 0
M  V30 2364 C 224.836 1.50191 1.14403 0
M  V30 2365 O 224.193 0.639208 1.7094 0
M  V30 2366 C 224.244 3.61314 -0.115815 0
M  V30 2367 O 223.965 4.1502 -1.40322 0
M  V30 2368 C 225.466 4.41663 0.380579 0
M  V30 2369 H 222.686 0.663954 -0.0969829 0
M  V30 2370 H 225.23 1.82966 -0.913446 0
M  V30 2371 H 223.385 3.83448 0.551931 0
M  V30 2372 H 223.799 5.08832 -1.27243 0
M  V30 2373 H 225.273 5.5065 0.385848 0
M  V30 2374 H 225.75 4.15792 1.41471 0
M  V30 2375 H 226.356 4.24534 -0.255209 0
M  V30 2376 N 224.671 0.411399 1.52136 0
M  V30 2377 C 225.899 -0.163076 2.06256 0
M  V30 2378 C 226.314 -1.3867 1.28125 0
M  V30 2379 O 225.671 -1.79423 0.333721 0
M  V30 2380 C 225.722 -0.511252 3.57867 0
M  V30 2381 O 225.443 0.66378 4.33042 0
M  V30 2382 C 226.944 -1.13921 4.28412 0
M  V30 2383 H 224.164 -0.0193897 0.67072 0
M  V30 2384 H 226.708 0.583007 1.96013 0
M  V30 2385 H 224.863 -1.20723 3.6811 0
M  V30 2386 H 225.277 0.372601 5.23175 0
M  V30 2387 H 226.751 -1.33302 5.35663 0
M  V30 2388 H 227.228 -2.11296 3.85033 0
M  V30 2389 H 227.834 -0.483373 4.22544 0
M  V30 2390 N 226.149 -1.5696 0.141893 0
M  V30 2391 C 227.397 -1.95573 -0.509484 0
M  V30 2392 C 227.718 -1.02746 -1.65736 0
M  V30 2393 O 226.988 -0.0880311 -1.95702 0
M  V30 2394 H 225.568 -0.722115 -0.191205 0
M  V30 2395 H 228.23 -1.93697 0.216196 0
M  V30 2396 H 227.326 -2.99171 -0.889 0
M  V30 2397 N 227.627 0.131896 -1.57047 0
M  V30 2398 C 228.559 1.1878 -1.9602 0
M  V30 2399 C 229.572 1.38363 -0.857875 0
M  V30 2400 O 230.761 1.37666 -1.13623 0
M  V30 2401 C 227.861 2.55008 -2.23213 0
M  V30 2402 C 227.034 2.56201 -3.54513 0
M  V30 2403 C 226.093 3.7408 -3.70069 0
M  V30 2404 O 225.119 3.58258 -4.42312 0
M  V30 2405 N 226.321 4.92137 -3.07866 0
M  V30 2406 H 229.086 0.85639 -2.87204 0
M  V30 2407 H 226.647 0.321309 -1.5868 0
M  V30 2408 H 228.639 3.32404 -2.30846 0
M  V30 2409 H 227.209 2.80382 -1.3822 0
M  V30 2410 H 226.429 1.64613 -3.58185 0
M  V30 2411 H 227.717 2.54043 -4.4084 0
M  V30 2412 H 227.115 5.07895 -2.49116 0
M  V30 2413 H 225.672 5.67254 -3.21039 0
M  V30 2414 N 229.106 1.52395 0.401703 0
M  V30 2415 C 230.354 1.66488 1.14569 0
M  V30 2416 C 230.675 0.400897 1.90835 0
M  V30 2417 O 229.945 -0.584415 1.8698 0
M  V30 2418 H 228.525 0.613672 0.425929 0
M  V30 2419 H 231.187 1.89464 0.457093 0
M  V30 2420 H 230.283 2.50942 1.85566 0
M  V30 2421 N 230.584 -0.659388 1.43143 0
M  V30 2422 C 231.83 -1.42145 1.44647 0
M  V30 2423 C 232.163 -1.9408 0.0681907 0
M  V30 2424 O 231.438 -1.71899 -0.910007 0
M  V30 2425 C 231.721 -2.60735 2.48373 0
M  V30 2426 C 231.574 -2.14332 3.95451 0
M  V30 2427 C 232.893 -3.62951 2.48906 0
M  V30 2428 H 230.012 -0.51552 0.526696 0
M  V30 2429 H 232.654 -0.748069 1.74654 0
M  V30 2430 H 230.804 -3.18184 2.22916 0
M  V30 2431 H 232.476 -1.61932 4.31944 0
M  V30 2432 H 230.719 -1.4576 4.08578 0
M  V30 2433 H 231.39 -2.99583 4.63631 0
M  V30 2434 H 233.866 -3.1525 2.71582 0
M  V30 2435 H 232.742 -4.43487 3.23435 0
M  V30 2436 H 233.003 -4.15126 1.52061 0
M  V30 2437 N 232.062 -1.29571 -0.897171 0
M  V30 2438 C 233.308 -1.17863 -1.65034 0
M  V30 2439 C 233.641 0.268729 -1.92332 0
M  V30 2440 O 232.916 1.19378 -1.53555 0
M  V30 2441 C 233.199 -1.995 -2.99786 0
M  V30 2442 C 233.052 -3.5239 -2.79538 0
M  V30 2443 C 234.371 -1.82335 -4.00552 0
M  V30 2444 H 231.49 -0.429528 -0.598895 0
M  V30 2445 H 234.132 -1.59072 -1.03905 0
M  V30 2446 H 232.282 -1.64485 -3.51962 0
M  V30 2447 H 233.954 -3.97401 -2.34244 0
M  V30 2448 H 232.197 -3.77187 -2.14273 0
M  V30 2449 H 232.868 -4.04787 -3.75302 0
M  V30 2450 H 235.344 -2.12924 -3.57495 0
M  V30 2451 H 234.22 -2.41801 -4.92771 0
M  V30 2452 H 234.481 -0.779209 -4.35179 0
M  V30 2453 N 233.54 1.10788 -1.12088 0
M  V30 2454 C 234.47 2.19083 -0.807755 0
M  V30 2455 C 235.451 1.6858 0.226859 0
M  V30 2456 O 236.636 1.93997 0.0888475 0
M  V30 2457 C 233.766 3.46344 -0.257576 0
M  V30 2458 C 232.72 4.101 -1.22483 0
M  V30 2459 C 232.046 5.32016 -0.535052 0
M  V30 2460 C 233.346 4.54236 -2.57811 0
M  V30 2461 H 235.04 2.45534 -1.71328 0
M  V30 2462 H 232.586 1.1801 -0.825205 0
M  V30 2463 H 234.539 4.21392 -0.0262679 0
M  V30 2464 H 233.263 3.19373 0.683278 0
M  V30 2465 H 231.922 3.37054 -1.44189 0
M  V30 2466 H 231.57 5.01319 0.410827 0
M  V30 2467 H 231.27 5.75625 -1.18024 0
M  V30 2468 H 232.794 6.09799 -0.312695 0
M  V30 2469 H 234.208 5.20575 -2.40155 0
M  V30 2470 H 232.605 5.08682 -3.18375 0
M  V30 2471 H 233.675 3.6734 -3.16528 0
M  V30 2472 N 235.018 0.912232 1.28515 0
M  V30 2473 C 235.928 0.404506 2.31086 0
M  V30 2474 C 236.944 -0.50707 1.66448 0
M  V30 2475 O 238.12 -0.393624 1.97516 0
M  V30 2476 C 235.185 -0.348572 3.44943 0
M  V30 2477 C 234.246 0.59604 4.25142 0
M  V30 2478 C 233.479 -0.121194 5.33562 0
M  V30 2479 O 233.702 -1.34317 5.5436 0
M  V30 2480 O 232.636 0.542716 5.99448 0
M  V30 2481 H 236.462 1.25579 2.76521 0
M  V30 2482 H 234.047 0.676998 1.33181 0
M  V30 2483 H 235.929 -0.77395 4.14232 0
M  V30 2484 H 234.604 -1.17571 3.01594 0
M  V30 2485 H 233.511 1.07079 3.58448 0
M  V30 2486 H 234.844 1.38995 4.72167 0
M  V30 2487 N 236.496 -1.42363 0.676048 0
M  V30 2488 C 237.912 -1.55811 0.345718 0
M  V30 2489 C 238.112 -1.65544 -1.14879 0
M  V30 2490 O 237.168 -1.62306 -1.93424 0
M  V30 2491 C 238.481 -2.80746 1.07713 0
M  V30 2492 C 240.029 -2.9452 1.05958 0
M  V30 2493 C 240.504 -4.22318 1.77233 0
M  V30 2494 N 241.995 -4.29233 1.74108 0
M  V30 2495 C 242.73 -5.26935 2.26113 0
M  V30 2496 N 242.226 -6.30783 2.86505 0
M  V30 2497 N 244.019 -5.18741 2.1648 0
M  V30 2498 H 236.17 -1.34289 1.6456 0
M  V30 2499 H 238.433 -0.646506 0.69335 0
M  V30 2500 H 238.139 -2.79696 2.13221 0
M  V30 2501 H 238.013 -3.71676 0.64316 0
M  V30 2502 H 240.4 -2.95097 0.0128255 0
M  V30 2503 H 240.481 -2.04817 1.53244 0
M  V30 2504 H 240.125 -4.22502 2.81877 0
M  V30 2505 H 240.055 -5.10958 1.27396 0
M  V30 2506 H 242.546 -3.54814 1.30059 0
M  V30 2507 H 242.859 -7.01691 3.23805 0
M  V30 2508 H 241.204 -6.31341 2.90575 0
M  V30 2509 H 244.395 -4.36533 1.68987 0
M  V30 2510 H 244.568 -5.94721 2.57316 0
M  V30 2511 N 237.974 -0.419461 -1.51915 0
M  V30 2512 C 239.199 0.154572 -2.06823 0
M  V30 2513 C 239.624 1.3722 -1.28656 0
M  V30 2514 O 238.982 1.78461 -0.319583 0
M  V30 2515 C 239.03 0.473172 -3.57482 0
M  V30 2516 O 238.134 1.56255 -3.81652 0
M  V30 2517 H 237.475 0.0096924 -0.663929 0
M  V30 2518 H 240.005 -0.595642 -1.95738 0
M  V30 2519 H 240.015 0.728825 -4.01438 0
M  V30 2520 H 238.69 -0.416873 -4.13805 0
M  V30 2521 H 237.267 1.29825 -3.49571 0
M  V30 2522 N 239.452 1.56882 -0.150215 0
M  V30 2523 C 240.701 1.95403 0.500071 0
M  V30 2524 C 241.014 1.03777 1.658 0
M  V30 2525 O 242.22 1.31889 2.37313 0
M  V30 2526 C 240.676 3.4738 0.941018 0
M  V30 2527 C 240.284 4.47596 -0.190158 0
M  V30 2528 C 242.028 3.9476 1.56091 0
M  V30 2529 C 239.935 5.90787 0.269237 0
M  V30 2530 H 238.865 0.729515 0.190588 0
M  V30 2531 H 241.516 1.81988 -0.235074 0
M  V30 2532 H 239.898 3.56138 1.73152 0
M  V30 2533 H 241.072 4.50536 -0.967157 0
M  V30 2534 H 239.387 4.10151 -0.718666 0
M  V30 2535 H 241.984 4.99181 1.9163 0
M  V30 2536 H 242.327 3.36494 2.45107 0
M  V30 2537 H 242.86 3.88932 0.835249 0
M  V30 2538 H 239.599 6.52879 -0.585621 0
M  V30 2539 H 239.119 5.912 1.01204 0
M  V30 2540 H 240.798 6.42979 0.720176 0
M  V30 2541 N 240.93 -0.123565 1.57115 0
M  V30 2542 C 242.177 -0.832153 1.84612 0
M  V30 2543 C 242.505 -1.80093 0.734627 0
M  V30 2544 O 241.76 -1.93766 -0.27442 0
M  V30 2545 C 242.059 -1.62016 3.18568 0
M  V30 2546 C 241.725 -0.796084 4.43817 0
M  V30 2547 C 240.387 -0.568816 4.77826 0
M  V30 2548 C 242.739 -0.221364 5.2073 0
M  V30 2549 C 240.067 0.243499 5.86194 0
M  V30 2550 C 242.419 0.578117 6.29953 0
M  V30 2551 C 241.083 0.815744 6.62497 0
M  V30 2552 H 240.353 -0.304507 0.675542 0
M  V30 2553 H 243 -0.0947248 1.91266 0
M  V30 2554 H 241.305 -2.42837 3.0747 0
M  V30 2555 H 243.002 -2.17231 3.37064 0
M  V30 2556 H 239.592 -0.983307 4.17168 0
M  V30 2557 H 243.776 -0.384173 4.94811 0
M  V30 2558 H 239.032 0.436871 6.09837 0
M  V30 2559 H 243.206 1.03046 6.88734 0
M  V30 2560 H 240.833 1.44701 7.46301 0
M  V30 2561 N 242.408 -1.52605 -0.393616 0
M  V30 2562 C 243.633 -1.71592 -1.16495 0
M  V30 2563 C 244.058 -0.43133 -1.83088 0
M  V30 2564 O 243.416 0.612523 -1.7064 0
M  V30 2565 C 243.464 -2.86318 -2.19213 0
M  V30 2566 O 242.568 -2.52969 -3.257 0
M  V30 2567 H 241.909 -0.570734 -0.33935 0
M  V30 2568 H 244.439 -1.99377 -0.459324 0
M  V30 2569 H 244.449 -3.1168 -2.63286 0
M  V30 2570 H 243.124 -3.79511 -1.7013 0
M  V30 2571 H 241.701 -2.38332 -2.86797 0
M  V30 2572 N 243.887 0.651787 -1.4349 0
M  V30 2573 C 245.164 1.40909 -1.35661 0
M  V30 2574 C 245.544 2.11099 -0.00511733 0
M  V30 2575 O 244.892 2.04892 1.0115 0
M  V30 2576 C 245.102 2.3926 -2.54078 0
M  V30 2577 C 246.45 3.03217 -2.97228 0
M  V30 2578 O 247.474 2.49588 -2.54135 0
M  V30 2579 O 246.333 4.00455 -3.71885 0
M  V30 2580 H 243.427 0.629625 -0.536191 0
M  V30 2581 H 245.973 0.678575 -1.55542 0
M  V30 2582 H 244.745 1.86352 -3.44076 0
M  V30 2583 H 244.368 3.1976 -2.36303 0
M  V30 2584 N 245.365 1.30045 0.890287 0
M  V30 2585 C 246.612 1.18561 1.64163 0
M  V30 2586 C 246.94 -0.260852 1.92743 0
M  V30 2587 O 246.195 -1.20376 1.54299 0
M  V30 2588 C 246.494 1.95409 2.99249 0
M  V30 2589 C 246.16 3.45066 2.90242 0
M  V30 2590 C 244.822 3.85878 2.87492 0
M  V30 2591 C 247.174 4.4039 2.78758 0
M  V30 2592 C 244.502 5.20314 2.7109 0
M  V30 2593 C 246.854 5.74928 2.63894 0
M  V30 2594 C 245.518 6.14986 2.59516 0
M  V30 2595 H 244.788 0.433846 0.600715 0
M  V30 2596 H 247.435 1.61088 1.03552 0
M  V30 2597 H 245.74 1.45501 3.63781 0
M  V30 2598 H 247.437 1.8392 3.56334 0
M  V30 2599 H 244.027 3.12631 2.93189 0
M  V30 2600 H 248.211 4.09806 2.79952 0
M  V30 2601 H 243.467 5.50449 2.66112 0
M  V30 2602 H 247.641 6.48434 2.53981 0
M  V30 2603 H 245.268 7.19104 2.46565 0
M  V30 2604 N 246.843 -1.10192 1.12674 0
M  V30 2605 C 248.089 -1.82475 0.884915 0
M  V30 2606 C 248.422 -1.85093 -0.58773 0
M  V30 2607 O 247.697 -1.3134 -1.43457 0
M  V30 2608 C 247.98 -3.29018 1.46353 0
M  V30 2609 C 247.833 -3.34718 3.00473 0
M  V30 2610 C 249.152 -4.25473 1.12519 0
M  V30 2611 H 246.271 -0.662492 0.322915 0
M  V30 2612 H 248.913 -1.2913 1.39375 0
M  V30 2613 H 247.063 -3.74576 1.03077 0
M  V30 2614 H 248.735 -2.97622 3.52447 0
M  V30 2615 H 246.978 -2.74541 3.35872 0
M  V30 2616 H 247.649 -4.37918 3.36053 0
M  V30 2617 H 250.125 -3.88161 1.499 0
M  V30 2618 H 249.001 -5.26365 1.55663 0
M  V30 2619 H 249.262 -4.42084 0.0377407 0
M  V30 2620 N 248.321 -0.919034 -1.28029 0
M  V30 2621 C 249.568 -0.554934 -1.94748 0
M  V30 2622 C 249.896 0.90231 -1.72304 0
M  V30 2623 O 249.151 1.65767 -1.04018 0
M  V30 2624 C 249.45 -0.816855 -3.4794 0
M  V30 2625 C 249.116 -2.25448 -3.90492 0
M  V30 2626 C 247.778 -2.64752 -4.01821 0
M  V30 2627 C 250.13 -3.18977 -4.12193 0
M  V30 2628 C 247.458 -3.96727 -4.32232 0
M  V30 2629 C 249.81 -4.50523 -4.44086 0
M  V30 2630 C 248.474 -4.89673 -4.53626 0
M  V30 2631 H 247.744 -0.203065 -0.712633 0
M  V30 2632 H 250.391 -1.16136 -1.52265 0
M  V30 2633 H 248.696 -0.127677 -3.91592 0
M  V30 2634 H 250.393 -0.514238 -3.97689 0
M  V30 2635 H 246.983 -1.93952 -3.82205 0
M  V30 2636 H 251.167 -2.89817 -4.02889 0
M  V30 2637 H 246.423 -4.26754 -4.37825 0
M  V30 2638 H 250.597 -5.23005 -4.59825 0
M  V30 2639 H 248.224 -5.91969 -4.76946 0
M  V30 2640 N 249.799 1.42003 -0.683588 0
M  V30 2641 C 250.729 2.33487 -0.024866 0
M  V30 2642 C 251.71 1.51163 0.779975 0
M  V30 2643 O 252.895 1.79739 0.735362 0
M  V30 2644 C 250.025 3.3487 0.920836 0
M  V30 2645 C 248.979 4.27414 0.223958 0
M  V30 2646 C 248.305 5.19074 1.2832 0
M  V30 2647 C 249.605 5.14445 -0.90242 0
M  V30 2648 H 251.299 2.88819 -0.788921 0
M  V30 2649 H 248.845 1.38873 -0.38083 0
M  V30 2650 H 250.798 3.97787 1.39081 0
M  V30 2651 H 249.522 2.77861 1.71642 0
M  V30 2652 H 248.181 3.65904 -0.225864 0
M  V30 2653 H 247.829 4.58387 2.071 0
M  V30 2654 H 247.529 5.81822 0.821995 0
M  V30 2655 H 249.053 5.84867 1.75392 0
M  V30 2656 H 250.467 5.70998 -0.513272 0
M  V30 2657 H 248.864 5.86072 -1.28997 0
M  V30 2658 H 249.934 4.52322 -1.74737 0
M  V30 2659 N 251.277 0.427512 1.51691 0
M  V30 2660 C 252.187 -0.39527 2.31246 0
M  V30 2661 C 253.203 -1.03674 1.39742 0
M  V30 2662 O 254.379 -1.03425 1.72816 0
M  V30 2663 C 251.444 -1.48706 3.13189 0
M  V30 2664 C 250.505 -0.866743 4.20459 0
M  V30 2665 C 249.738 -1.90651 4.98486 0
M  V30 2666 O 249.961 -3.12733 4.77026 0
M  V30 2667 O 248.895 -1.5025 5.82845 0
M  V30 2668 H 252.721 0.253918 3.02637 0
M  V30 2669 H 250.306 0.190274 1.48183 0
M  V30 2670 H 252.188 -2.12047 3.64162 0
M  V30 2671 H 250.863 -2.12051 2.44573 0
M  V30 2672 H 249.77 -0.195544 3.73589 0
M  V30 2673 H 251.103 -0.276934 4.9142 0
M  V30 2674 N 252.755 -1.56801 0.158532 0
M  V30 2675 C 253.718 -2.16138 -0.762705 0
M  V30 2676 C 254.718 -1.1061 -1.16713 0
M  V30 2677 O 255.908 -1.36191 -1.08617 0
M  V30 2678 C 253.04 -2.73386 -2.03649 0
M  V30 2679 H 254.233 -2.98886 -0.246354 0
M  V30 2680 H 251.786 -1.56035 -0.0909744 0
M  V30 2681 H 252.521 -1.94335 -2.59623 0
M  V30 2682 H 252.306 -3.50601 -1.75559 0
M  V30 2683 H 253.796 -3.19065 -2.6942 0
M  V30 2684 N 254.233 0.115231 -1.57178 0
M  V30 2685 C 255.166 1.17166 -1.95825 0
M  V30 2686 C 256.144 1.39912 -0.828463 0
M  V30 2687 O 257.328 1.54004 -1.08697 0
M  V30 2688 C 254.455 2.52478 -2.25771 0
M  V30 2689 C 253.501 2.46136 -3.48309 0
M  V30 2690 S 254.334 1.89736 -5.0076 0
M  V30 2691 C 255.49 3.26713 -5.33863 0
M  V30 2692 H 255.723 0.842103 -2.85124 0
M  V30 2693 H 253.256 0.322136 -1.51002 0
M  V30 2694 H 255.214 3.30332 -2.43702 0
M  V30 2695 H 253.875 2.82609 -1.37079 0
M  V30 2696 H 253.068 3.45819 -3.66641 0
M  V30 2697 H 252.67 1.76404 -3.29784 0
M  V30 2698 H 254.962 4.22935 -5.29275 0
M  V30 2699 H 255.905 3.13205 -6.35065 0
M  V30 2700 H 256.313 3.25316 -4.61335 0
M  V30 2701 N 255.711 1.52812 0.385517 0
M  V30 2702 C 256.941 1.71658 1.14966 0
M  V30 2703 C 257.349 0.436253 1.84102 0
M  V30 2704 O 256.692 -0.599313 1.73649 0
M  V30 2705 C 256.754 2.81309 2.23843 0
M  V30 2706 C 256.418 4.22313 1.74644 0
M  V30 2707 C 257.415 5.05352 1.22129 0
M  V30 2708 C 255.1 4.68648 1.80761 0
M  V30 2709 C 257.094 6.32807 0.763838 0
M  V30 2710 C 254.781 5.96086 1.34627 0
M  V30 2711 C 255.779 6.77996 0.825264 0
M  V30 2712 O 255.467 8.03045 0.370669 0
M  V30 2713 H 255.199 0.578022 0.350523 0
M  V30 2714 H 257.753 2.00263 0.456509 0
M  V30 2715 H 255.983 2.48133 2.96592 0
M  V30 2716 H 257.672 2.88524 2.85497 0
M  V30 2717 H 258.438 4.70736 1.16758 0
M  V30 2718 H 254.317 4.04979 2.20256 0
M  V30 2719 H 257.861 6.96689 0.356494 0
M  V30 2720 H 253.758 6.30205 1.39686 0
M  V30 2721 H 254.526 8.17021 0.491829 0
M  V30 2722 N 257.189 -0.644168 1.43834 0
M  V30 2723 C 258.137 -1.77793 1.49974 0
M  V30 2724 C 259.131 -1.65253 0.372536 0
M  V30 2725 O 260.337 -1.7149 0.546924 0
M  V30 2726 H 256.712 -0.58675 0.47035 0
M  V30 2727 H 258.683 -1.69736 2.45423 0
M  V30 2728 C 257.432 -3.16087 1.4486 0
M  V30 2729 H 256.755 -3.26378 2.30905 0
M  V30 2730 H 258.195 -3.95349 1.53217 0
M  V30 2731 C 256.654 -3.36484 0.167463 0
M  V30 2732 O 257.184 -3.94298 -0.767609 0
M  V30 2733 N 255.39 -2.90504 0.0747556 0
M  V30 2734 H 254.937 -2.4364 0.836507 0
M  V30 2735 H 254.895 -3.04527 -0.781714 0
M  V30 2736 N 258.668 -1.30515 -0.883378 0
M  V30 2737 C 259.6 -1.12846 -1.99496 0
M  V30 2738 C 260.613 -0.0712571 -1.62644 0
M  V30 2739 O 261.802 -0.317432 -1.75655 0
M  V30 2740 C 258.902 -0.699123 -3.3161 0
M  V30 2741 C 258.075 -1.83842 -3.96889 0
M  V30 2742 C 257.134 -1.39737 -5.07307 0
M  V30 2743 O 256.16 -2.10485 -5.28852 0
M  V30 2744 N 257.362 -0.277279 -5.79837 0
M  V30 2745 H 260.127 -2.08585 -2.15203 0
M  V30 2746 H 257.688 -1.22672 -1.05656 0
M  V30 2747 H 259.68 -0.387044 -4.02845 0
M  V30 2748 H 258.25 0.166276 -3.12157 0
M  V30 2749 H 257.47 -2.31853 -3.18807 0
M  V30 2750 H 258.758 -2.60187 -4.37241 0
M  V30 2751 H 258.156 0.3122 -5.64838 0
M  V30 2752 H 256.713 -0.0246623 -6.51795 0
M  V30 2753 N 260.146 1.09593 -1.13257 0
M  V30 2754 C 261.394 1.81375 -0.891492 0
M  V30 2755 C 261.715 1.86049 0.584009 0
M  V30 2756 O 260.985 1.34481 1.42449 0
M  V30 2757 H 259.565 0.671708 -0.326828 0
M  V30 2758 H 262.227 1.3256 -1.42877 0
M  V30 2759 H 261.323 2.84612 -1.28071 0
M  V30 2760 N 261.624 0.925811 1.2754 0
M  V30 2761 C 262.871 0.565255 1.94451 0
M  V30 2762 C 263.199 -0.89316 1.7278 0
M  V30 2763 O 262.454 -1.65213 1.04895 0
M  V30 2764 C 262.753 0.835296 3.47502 0
M  V30 2765 C 262.419 2.27515 3.89291 0
M  V30 2766 C 261.081 2.66879 4.00411 0
M  V30 2767 C 263.433 3.21158 4.10496 0
M  V30 2768 C 260.761 3.99014 4.30122 0
M  V30 2769 C 263.113 4.52871 4.4169 0
M  V30 2770 C 261.777 4.92072 4.51023 0
M  V30 2771 H 261.047 0.206841 0.711546 0
M  V30 2772 H 263.694 1.16942 1.51647 0
M  V30 2773 H 261.999 0.148442 3.91519 0
M  V30 2774 H 263.696 0.535322 3.97411 0
M  V30 2775 H 260.286 1.95976 3.81171 0
M  V30 2776 H 264.47 2.9195 4.01346 0
M  V30 2777 H 259.726 4.2907 4.35556 0
M  V30 2778 H 263.9 5.25436 4.57045 0
M  V30 2779 H 261.527 5.9449 4.738 0
M  V30 2780 N 263.102 -1.41638 0.69111 0
M  V30 2781 C 264.351 -2.00526 0.217318 0
M  V30 2782 C 264.664 -1.55353 -1.18848 0
M  V30 2783 O 265.87 -2.06769 -1.75951 0
M  V30 2784 C 264.326 -3.58313 0.337639 0
M  V30 2785 C 263.934 -4.12469 1.74852 0
M  V30 2786 C 265.678 -4.24431 -0.0766066 0
M  V30 2787 C 263.585 -5.62675 1.82074 0
M  V30 2788 H 262.515 -0.750008 0.0774893 0
M  V30 2789 H 265.166 -1.6217 0.858661 0
M  V30 2790 H 263.548 -3.9425 -0.371879 0
M  V30 2791 H 264.722 -3.8796 2.48644 0
M  V30 2792 H 263.037 -3.58861 2.11205 0
M  V30 2793 H 265.634 -5.34683 -0.0430284 0
M  V30 2794 H 265.977 -4.01101 -1.1146 0
M  V30 2795 H 266.51 -3.93512 0.582476 0
M  V30 2796 H 263.249 -5.90826 2.83911 0
M  V30 2797 H 262.769 -5.89124 1.12661 0
M  V30 2798 H 264.448 -6.27371 1.58159 0
M  V30 2799 N 264.58 -0.43555 -1.51462 0
M  V30 2800 C 265.996 -0.0877501 -1.59359 0
M  V30 2801 C 266.196 1.4027 -1.4466 0
M  V30 2802 O 265.252 2.17243 -1.28693 0
M  V30 2803 C 266.565 -0.606264 -2.94525 0
M  V30 2804 C 268.113 -0.566548 -3.0783 0
M  V30 2805 C 268.588 -1.06201 -4.45517 0
M  V30 2806 N 270.079 -1.01992 -4.51832 0
M  V30 2807 C 270.814 -1.37417 -5.5669 0
M  V30 2808 N 270.31 -1.80119 -6.68976 0
M  V30 2809 N 272.103 -1.29245 -5.47039 0
M  V30 2810 H 264.254 -1.40533 -1.59261 0
M  V30 2811 H 266.517 -0.578992 -0.750648 0
M  V30 2812 H 266.223 -1.64901 -3.10645 0
M  V30 2813 H 266.097 -0.0302097 -3.77188 0
M  V30 2814 H 268.484 0.467208 -2.91378 0
M  V30 2815 H 268.565 -1.17898 -2.2701 0
M  V30 2816 H 268.209 -2.09422 -4.62715 0
M  V30 2817 H 268.139 -0.426127 -5.24873 0
M  V30 2818 H 270.63 -0.706308 -3.71241 0
M  V30 2819 H 270.943 -2.05392 -7.45006 0
M  V30 2820 H 269.288 -1.84044 -6.70189 0
M  V30 2821 H 272.479 -0.957522 -4.58202 0
M  V30 2822 H 272.652 -1.57182 -6.28648 0
M  V30 2823 N 266.058 1.56714 -0.166846 0
M  V30 2824 C 267.005 2.17746 0.765193 0
M  V30 2825 C 267.975 1.11614 1.23011 0
M  V30 2826 O 269.16 1.39745 1.29908 0
M  V30 2827 C 266.3 2.81882 1.9909 0
M  V30 2828 C 265.413 4.02462 1.56997 0
M  V30 2829 C 264.548 4.54537 2.749 0
M  V30 2830 C 263.587 5.67538 2.29275 0
M  V30 2831 N 262.724 6.14142 3.40255 0
M  V30 2832 H 267.564 2.97048 0.237952 0
M  V30 2833 H 265.101 1.4672 0.105725 0
M  V30 2834 H 267.059 3.17221 2.70974 0
M  V30 2835 H 265.689 2.05191 2.49192 0
M  V30 2836 H 264.741 3.72973 0.748037 0
M  V30 2837 H 266.053 4.84273 1.19503 0
M  V30 2838 H 265.207 4.92035 3.54946 0
M  V30 2839 H 263.946 3.71774 3.1565 0
M  V30 2840 H 262.951 5.29597 1.47674 0
M  V30 2841 H 264.176 6.52099 1.89588 0
M  V30 2842 H 262.122 5.3431 3.8059 0
M  V30 2843 H 262.039 6.9093 3.06841 0
M  V30 2844 H 263.307 6.56289 4.206 0
M  V30 2845 N 267.536 -0.106894 1.57237 0
M  V30 2846 C 268.468 -1.15646 1.97885 0
M  V30 2847 C 269.481 -1.36981 0.879779 0
M  V30 2848 O 270.67 -1.35841 1.15799 0
M  V30 2849 C 267.77 -2.51425 2.27241 0
M  V30 2850 C 266.943 -2.50529 3.58545 0
M  V30 2851 C 266.002 -3.68145 3.75973 0
M  V30 2852 O 265.028 -3.51176 4.47956 0
M  V30 2853 N 266.23 -4.87177 3.15656 0
M  V30 2854 H 268.995 -0.81059 2.8853 0
M  V30 2855 H 266.556 -0.296024 1.59171 0
M  V30 2856 H 268.548 -3.28689 2.36105 0
M  V30 2857 H 267.118 -2.78147 1.42663 0
M  V30 2858 H 266.338 -1.58894 3.60758 0
M  V30 2859 H 267.626 -2.46997 4.44826 0
M  V30 2860 H 267.024 -5.03868 2.57165 0
M  V30 2861 H 265.581 -5.62075 3.30023 0
M  V30 2862 N 269.014 -1.53014 -0.377408 0
M  V30 2863 C 270.254 -1.70318 -1.1301 0
M  V30 2864 C 270.618 -0.439538 -1.86901 0
M  V30 2865 O 271.819 -0.489095 -2.64313 0
M  V30 2866 C 270.09 -2.91125 -2.07319 0
M  V30 2867 S 271.649 -3.29075 -2.90268 0
M  V30 2868 H 268.467 -0.599426 -0.382374 0
M  V30 2869 H 271.069 -1.91089 -0.412933 0
M  V30 2870 H 269.773 -3.81303 -1.51777 0
M  V30 2871 H 269.304 -2.7272 -2.83526 0
M  V30 2872 H 271.319 -2.80165 -4.09539 0
M  V30 2873 N 270.492 0.636531 -1.44174 0
M  V30 2874 C 271.738 1.39826 -1.4689 0
M  V30 2875 C 272.071 1.93947 -0.0990585 0
M  V30 2876 O 271.346 1.73325 0.882544 0
M  V30 2877 C 271.629 2.56751 -2.5249 0
M  V30 2878 C 271.482 2.08014 -3.98811 0
M  V30 2879 C 272.801 3.58946 -2.54649 0
M  V30 2880 H 269.92 0.507075 -0.53483 0
M  V30 2881 H 272.562 0.720188 -1.75822 0
M  V30 2882 H 270.712 3.14597 -2.2795 0
M  V30 2883 H 272.384 1.5504 -4.34466 0
M  V30 2884 H 270.627 1.39242 -4.10846 0
M  V30 2885 H 271.298 2.92169 -4.68339 0
M  V30 2886 H 273.774 3.1089 -2.76563 0
M  V30 2887 H 272.65 4.38286 -3.3045 0
M  V30 2888 H 272.911 4.12655 -1.58646 0
M  V30 2889 N 271.97 1.30982 0.876444 0
M  V30 2890 C 273.247 1.10942 1.61094 0
M  V30 2891 C 273.627 -0.338223 2.08373 0
M  V30 2892 O 272.975 -1.33122 1.85717 0
M  V30 2893 C 273.185 2.11789 2.77392 0
M  V30 2894 C 274.533 2.43965 3.47514 0
M  V30 2895 O 275.557 2.10166 2.87591 0
M  V30 2896 O 274.416 3.01817 4.55597 0
M  V30 2897 H 271.51 0.42667 0.708436 0
M  V30 2898 H 274.056 1.42438 0.922474 0
M  V30 2899 H 272.828 3.09194 2.39823 0
M  V30 2900 H 272.451 1.81161 3.5393 0
M  V30 2901 N 273.449 -1.08991 1.13837 0
M  V30 2902 C 274.399 -2.1393 0.788535 0
M  V30 2903 C 275.383 -1.59396 -0.219516 0
M  V30 2904 O 276.575 -1.76985 -0.0227557 0
M  V30 2905 C 273.704 -3.42305 0.261147 0
M  V30 2906 C 272.79 -4.03736 1.29837 0
M  V30 2907 N 273.181 -4.39659 2.50067 0
M  V30 2908 C 271.479 -4.30993 1.1472 0
M  V30 2909 C 272.18 -4.88113 3.16419 0
M  V30 2910 N 271.156 -4.85846 2.43832 0
M  V30 2911 H 274.958 -2.39516 1.70322 0
M  V30 2912 H 272.472 -1.26263 1.02134 0
M  V30 2913 H 274.469 -4.16899 -0.0077405 0
M  V30 2914 H 273.129 -3.18172 -0.647805 0
M  V30 2915 H 274.14 -4.30878 2.8734 0
M  V30 2916 H 270.817 -4.16444 0.296773 0
M  V30 2917 H 272.207 -5.25336 4.18894 0
M  V30 2918 N 274.927 -0.932562 -1.27047 0
M  V30 2919 C 276.157 -0.591173 -1.97961 0
M  V30 2920 C 276.565 0.836219 -1.69717 0
M  V30 2921 O 275.908 1.56801 -0.957036 0
M  V30 2922 C 275.97 -0.743082 -3.51736 0
M  V30 2923 C 275.634 -2.1435 -4.03613 0
M  V30 2924 C 276.631 -3.11815 -4.16014 0
M  V30 2925 C 274.316 -2.46175 -4.37839 0
M  V30 2926 C 276.31 -4.39211 -4.61923 0
M  V30 2927 C 273.997 -3.73806 -4.83438 0
M  V30 2928 C 274.995 -4.70137 -4.95439 0
M  V30 2929 O 274.683 -5.95496 -5.40037 0
M  V30 2930 H 274.415 -0.222375 -0.638377 0
M  V30 2931 H 276.969 -1.25317 -1.62742 0
M  V30 2932 H 275.199 -0.0239739 -3.86693 0
M  V30 2933 H 276.888 -0.40603 -4.03864 0
M  V30 2934 H 277.654 -2.88549 -3.89826 0
M  V30 2935 H 273.533 -1.71936 -4.27737 0
M  V30 2936 H 277.077 -5.14404 -4.71205 0
M  V30 2937 H 272.974 -3.96888 -5.09068 0
M  V30 2938 H 273.742 -5.98554 -5.58279 0
M  V30 2939 N 276.405 1.4127 -0.698611 0
M  V30 2940 C 277.353 2.32588 -0.023855 0
M  V30 2941 C 278.347 1.51128 0.765292 0
M  V30 2942 O 279.553 1.67043 0.670571 0
M  V30 2943 H 275.928 0.751918 0.0110871 0
M  V30 2944 H 277.899 2.87167 -0.811031 0
M  V30 2945 C 276.648 3.35947 0.896369 0
M  V30 2946 H 275.971 3.98684 0.298548 0
M  V30 2947 H 277.411 4.02376 1.33676 0
M  V30 2948 C 275.87 2.70076 2.01396 0
M  V30 2949 O 276.4 2.55093 3.10307 0
M  V30 2950 N 274.606 2.28724 1.79259 0
M  V30 2951 H 274.153 2.4111 0.906841 0
M  V30 2952 H 274.111 1.84986 2.54219 0
M  V30 2953 N 277.883 0.443576 1.51229 0
M  V30 2954 C 278.793 -0.370721 2.31652 0
M  V30 2955 C 279.809 -1.02186 1.40833 0
M  V30 2956 O 280.985 -1.01586 1.73903 0
M  V30 2957 C 278.05 -1.45376 3.14749 0
M  V30 2958 C 277.111 -0.822099 4.21355 0
M  V30 2959 C 276.344 -1.85353 5.0048 0
M  V30 2960 O 276.567 -3.07656 4.80316 0
M  V30 2961 O 275.501 -1.4406 5.84406 0
M  V30 2962 H 279.327 0.286002 3.0235 0
M  V30 2963 H 276.912 0.20598 1.47973 0
M  V30 2964 H 278.794 -2.08173 3.66391 0
M  V30 2965 H 277.469 -2.09445 2.46809 0
M  V30 2966 H 276.376 -0.155909 3.73775 0
M  V30 2967 H 277.709 -0.224797 4.91686 0
M  V30 2968 N 279.361 -1.56624 0.175154 0
M  V30 2969 C 280.607 -1.9729 -0.469506 0
M  V30 2970 C 280.94 -1.06128 -1.62636 0
M  V30 2971 O 280.215 -0.109183 -1.94193 0
M  V30 2972 C 280.498 -3.47375 -0.948804 0
M  V30 2973 C 280.351 -4.49317 0.208491 0
M  V30 2974 C 281.67 -4.00652 -1.82116 0
M  V30 2975 H 278.789 -0.717317 -0.16919 0
M  V30 2976 H 281.431 -1.88184 0.262062 0
M  V30 2977 H 279.581 -3.55267 -1.57219 0
M  V30 2978 H 281.253 -4.53482 0.845682 0
M  V30 2979 H 279.496 -4.25121 0.863395 0
M  V30 2980 H 280.167 -5.51741 -0.169059 0
M  V30 2981 H 282.643 -3.95416 -1.2956 0
M  V30 2982 H 281.519 -5.06075 -2.12554 0
M  V30 2983 H 281.78 -3.44699 -2.7683 0
M  V30 2984 N 280.839 0.0985539 -1.57292 0
M  V30 2985 C 281.786 1.11981 -2.01814 0
M  V30 2986 C 282.756 1.39999 -0.89384 0
M  V30 2987 O 283.941 1.5152 -1.15958 0
M  V30 2988 C 281.081 2.43577 -2.44467 0
M  V30 2989 C 280.194 2.2232 -3.70402 0
M  V30 2990 C 279.329 3.4729 -4.01949 0
M  V30 2991 C 278.368 3.2128 -5.21005 0
M  V30 2992 N 277.505 4.38507 -5.48321 0
M  V30 2993 H 282.345 0.733149 -2.88841 0
M  V30 2994 H 279.882 0.350482 -1.42864 0
M  V30 2995 H 281.84 3.20373 -2.6724 0
M  V30 2996 H 280.47 2.80097 -1.60455 0
M  V30 2997 H 279.522 1.36343 -3.55126 0
M  V30 2998 H 280.834 1.99089 -4.57345 0
M  V30 2999 H 279.988 4.32495 -4.25479 0
M  V30 3000 H 278.727 3.73572 -3.13521 0
M  V30 3001 H 277.732 2.34468 -4.97298 0
M  V30 3002 H 278.957 2.96348 -6.11028 0
M  V30 3003 H 276.903 4.64871 -4.62851 0
M  V30 3004 H 276.82 4.18455 -6.29628 0
M  V30 3005 H 278.088 5.24787 -5.76385 0
M  V30 3006 N 282.317 1.53212 0.369288 0
M  V30 3007 C 283.542 1.73423 1.1375 0
M  V30 3008 C 283.967 0.460404 1.82378 0
M  V30 3009 O 283.325 -0.585298 1.71592 0
M  V30 3010 C 283.373 2.89769 2.1463 0
M  V30 3011 O 282.477 2.58119 3.21634 0
M  V30 3012 H 281.818 0.576061 0.330227 0
M  V30 3013 H 284.348 2.00083 0.427547 0
M  V30 3014 H 284.358 3.15829 2.58294 0
M  V30 3015 H 283.033 3.8217 1.64071 0
M  V30 3016 H 281.61 2.42864 2.82969 0
M  V30 3017 N 283.795 -0.628877 1.44509 0
M  V30 3018 C 285.041 -1.39045 1.47629 0
M  V30 3019 C 285.374 -1.93892 0.109343 0
M  V30 3020 O 284.649 -1.7379 -0.87334 0
M  V30 3021 C 284.932 -2.55408 2.53848 0
M  V30 3022 C 284.785 -2.05896 3.99909 0
M  V30 3023 C 286.104 -3.5759 2.56549 0
M  V30 3024 H 283.223 -0.504232 0.537512 0
M  V30 3025 H 285.865 -0.710854 1.76201 0
M  V30 3026 H 284.015 -3.13384 2.29615 0
M  V30 3027 H 285.687 -1.52734 4.35282 0
M  V30 3028 H 283.93 -1.37061 4.11578 0
M  V30 3029 H 284.601 -2.89681 4.69882 0
M  V30 3030 H 287.077 -3.09419 2.78207 0
M  V30 3031 H 285.953 -4.36527 3.32769 0
M  V30 3032 H 286.214 -4.11808 1.60832 0
M  V30 3033 N 285.273 -1.31445 -0.869486 0
M  V30 3034 C 286.501 -1.24122 -1.65534 0
M  V30 3035 C 286.916 0.193387 -1.87807 0
M  V30 3036 O 286.273 1.12557 -1.43656 0
M  V30 3037 C 286.324 -1.98229 -3.02304 0
M  V30 3038 O 286.045 -3.3609 -2.81026 0
M  V30 3039 C 287.546 -1.97751 -3.96749 0
M  V30 3040 H 284.766 -0.428868 -0.516055 0
M  V30 3041 H 287.31 -1.73328 -1.08525 0
M  V30 3042 H 285.465 -1.52782 -3.56001 0
M  V30 3043 H 285.879 -3.7383 -3.67902 0
M  V30 3044 H 287.353 -2.54114 -4.90031 0
M  V30 3045 H 287.83 -0.960137 -4.28577 0
M  V30 3046 H 288.436 -2.43079 -3.48988 0
M  V30 3047 N 286.751 1.08385 -1.14413 0
M  V30 3048 C 288 1.80153 -0.907076 0
M  V30 3049 C 288.313 1.87176 0.567851 0
M  V30 3050 O 289.519 2.55359 0.922172 0
M  V30 3051 C 287.975 3.23687 -1.57336 0
M  V30 3052 C 287.583 3.24897 -3.08457 0
M  V30 3053 C 289.327 4.00136 -1.41744 0
M  V30 3054 C 287.234 4.6302 -3.67921 0
M  V30 3055 H 286.164 0.675139 -0.335714 0
M  V30 3056 H 288.815 1.21733 -1.37307 0
M  V30 3057 H 287.197 3.82234 -1.03505 0
M  V30 3058 H 288.371 2.76055 -3.68958 0
M  V30 3059 H 286.686 2.61943 -3.2369 0
M  V30 3060 H 289.283 5.02201 -1.83572 0
M  V30 3061 H 289.626 4.14709 -0.363576 0
M  V30 3062 H 290.159 3.48058 -1.92614 0
M  V30 3063 H 286.898 4.5365 -4.73161 0
M  V30 3064 H 286.418 5.12143 -3.12201 0
M  V30 3065 H 288.097 5.31994 -3.68227 0
M  V30 3066 N 288.23 0.939286 1.26551 0
M  V30 3067 C 289.47 0.5933 1.956 0
M  V30 3068 C 289.834 -0.851515 1.72085 0
M  V30 3069 O 291.035 -1.30634 2.34921 0
M  V30 3070 C 289.306 0.923996 3.45249 0
M  V30 3071 S 290.865 0.688269 4.33369 0
M  V30 3072 H 287.683 0.218591 0.676564 0
M  V30 3073 H 290.285 1.2102 1.5354 0
M  V30 3074 H 288.989 1.97297 3.59864 0
M  V30 3075 H 288.52 0.296746 3.92279 0
M  V30 3076 H 290.535 -0.448434 4.9417 0
M  V30 3077 N 289.708 -1.40897 0.706093 0
M  V30 3078 C 290.985 -1.94868 0.169099 0
M  V30 3079 C 291.365 -1.64485 -1.32318 0
M  V30 3080 O 290.713 -0.95744 -2.07474 0
M  V30 3081 C 290.923 -3.45798 0.471654 0
M  V30 3082 C 292.271 -4.22663 0.405127 0
M  V30 3083 O 293.295 -3.53865 0.407168 0
M  V30 3084 O 292.154 -5.45216 0.374383 0
M  V30 3085 H 289.248 -0.82673 0.0211352 0
M  V30 3086 H 291.794 -1.50558 0.782976 0
M  V30 3087 H 290.566 -3.61235 1.50416 0
M  V30 3088 H 290.189 -3.97225 -0.172666 0
M  V30 3089 N 291.186 -0.45159 -1.50991 0
M  V30 3090 C 292.416 0.108177 -2.06317 0
M  V30 3091 C 292.824 1.35774 -1.31765 0
M  V30 3092 O 292.167 1.79838 -0.374694 0
M  V30 3093 C 292.229 0.481659 -3.56259 0
M  V30 3094 C 291.893 -0.663114 -4.52163 0
M  V30 3095 C 292.89 -1.53947 -4.96585 0
M  V30 3096 C 290.575 -0.8479 -4.95092 0
M  V30 3097 C 292.569 -2.58518 -5.82621 0
M  V30 3098 C 290.256 -1.89686 -5.80915 0
M  V30 3099 C 291.254 -2.76388 -6.24579 0
M  V30 3100 O 290.942 -3.79482 -7.08695 0
M  V30 3101 H 290.674 0.00499183 -0.675982 0
M  V30 3102 H 293.228 -0.633659 -1.95381 0
M  V30 3103 H 291.458 1.27641 -3.65027 0
M  V30 3104 H 293.147 0.974233 -3.94035 0
M  V30 3105 H 293.913 -1.4083 -4.64103 0
M  V30 3106 H 289.792 -0.18258 -4.60638 0
M  V30 3107 H 293.336 -3.26224 -6.16623 0
M  V30 3108 H 289.233 -2.02817 -6.12809 0
M  V30 3109 H 290.001 -3.76234 -7.26905 0
M  V30 3110 N 292.664 1.56529 -0.183458 0
M  V30 3111 C 293.594 2.21549 0.737456 0
M  V30 3112 C 294.575 1.17489 1.23005 0
M  V30 3113 O 295.76 1.45959 1.281 0
M  V30 3114 C 292.89 2.86575 1.96194 0
M  V30 3115 C 291.844 3.96778 1.60473 0
M  V30 3116 C 291.17 4.48911 2.90487 0
M  V30 3117 C 292.47 5.15767 0.823497 0
M  V30 3118 H 294.164 2.98761 0.195453 0
M  V30 3119 H 291.71 1.43702 0.0925686 0
M  V30 3120 H 293.663 3.30739 2.61131 0
M  V30 3121 H 292.387 2.06749 2.52828 0
M  V30 3122 H 291.046 3.53286 0.978997 0
M  V30 3123 H 290.694 3.65862 3.45186 0
M  V30 3124 H 290.394 5.23265 2.67335 0
M  V30 3125 H 291.918 4.95771 3.56432 0
M  V30 3126 H 293.332 5.56549 1.37571 0
M  V30 3127 H 291.729 5.96114 0.690551 0
M  V30 3128 H 292.799 4.84574 -0.177782 0
M  V30 3129 N 294.142 -0.090211 1.57342 0
M  V30 3130 C 295.553 -0.644173 1.75235 0
M  V30 3131 C 295.904 -1.78865 0.806335 0
M  V30 3132 O 295.029 -2.16395 -0.0140128 0
M  V30 3133 C 295.624 -1.17532 3.1776 0
M  V30 3134 C 294.183 -1.67531 3.37061 0
M  V30 3135 C 293.33 -0.58693 2.71017 0
M  V30 3136 H 296.281 0.135884 1.58117 0
M  V30 3137 H 296.302 -2.04455 3.20902 0
M  V30 3138 H 295.814 -0.342138 3.86589 0
M  V30 3139 H 293.915 -2.53234 2.73319 0
M  V30 3140 H 294.028 -1.76493 4.45406 0
M  V30 3141 H 292.392 -1.02756 2.33052 0
M  V30 3142 H 293.175 0.235758 3.4249 0
M  V30 3143 N 295.62 -1.53406 -0.361157 0
M  V30 3144 C 297.031 -1.61442 -0.937728 0
M  V30 3145 C 297.382 -0.48461 -1.90121 0
M  V30 3146 O 296.507 0.388312 -2.12888 0
M  V30 3147 C 297.102 -2.92624 -1.70753 0
M  V30 3148 C 295.661 -3.02981 -2.23337 0
M  V30 3149 C 294.808 -2.5677 -1.04712 0
M  V30 3150 H 297.759 -1.58083 -0.139816 0
M  V30 3151 H 297.78 -2.80675 -2.56908 0
M  V30 3152 H 297.292 -3.74834 -1.00604 0
M  V30 3153 H 295.393 -2.25368 -2.96715 0
M  V30 3154 H 295.506 -4.0814 -2.50916 0
M  V30 3155 H 293.87 -2.11752 -1.41539 0
M  V30 3156 H 294.653 -3.41402 -0.360539 0
M  V30 3157 N 297.098 0.621204 -1.44841 0
M  V30 3158 C 298.048 1.72663 -1.48901 0
M  V30 3159 C 299.032 1.56964 -0.353702 0
M  V30 3160 O 300.224 1.66532 -0.599669 0
M  V30 3161 C 297.353 3.11381 -1.44557 0
M  V30 3162 C 296.439 3.32514 -2.6324 0
M  V30 3163 N 296.83 3.23969 -3.8843 0
M  V30 3164 C 295.128 3.63343 -2.58647 0
M  V30 3165 C 295.829 3.46062 -4.67564 0
M  V30 3166 N 294.805 3.69407 -3.98797 0
M  V30 3167 H 298.607 1.64529 -2.43531 0
M  V30 3168 H 296.121 0.82401 -1.39942 0
M  V30 3169 H 298.118 3.90667 -1.4555 0
M  V30 3170 H 296.778 3.20674 -0.509731 0
M  V30 3171 H 297.789 3.02669 -4.20252 0
M  V30 3172 H 294.466 3.79556 -1.73906 0
M  V30 3173 H 295.856 3.44963 -5.76585 0
M  V30 3174 N 298.576 1.31904 0.862503 0
M  V30 3175 C 299.506 1.22782 1.98612 0
M  V30 3176 C 300.487 0.113362 1.69722 0
M  V30 3177 O 301.672 0.299218 1.91881 0
M  V30 3178 C 298.802 0.942058 3.34279 0
M  V30 3179 C 297.756 2.0169 3.77499 0
M  V30 3180 C 297.082 1.58369 5.10709 0
M  V30 3181 C 298.382 3.43096 3.93805 0
M  V30 3182 H 300.076 2.16788 2.06502 0
M  V30 3183 H 297.622 1.04366 0.992154 0
M  V30 3184 H 299.575 0.864818 4.1243 0
M  V30 3185 H 298.299 -0.0336603 3.26583 0
M  V30 3186 H 296.958 2.08416 3.01593 0
M  V30 3187 H 296.606 0.595628 4.99461 0
M  V30 3188 H 296.306 2.30279 5.40597 0
M  V30 3189 H 297.83 1.52067 5.91361 0
M  V30 3190 H 299.244 3.39003 4.62331 0
M  V30 3191 H 297.641 4.13288 4.35101 0
M  V30 3192 H 298.711 3.83334 2.96957 0
M  V30 3193 N 300.054 -1.07777 1.14986 0
M  V30 3194 C 301.3 -1.80557 0.923422 0
M  V30 3195 C 301.633 -1.86298 -0.548337 0
M  V30 3196 O 300.908 -1.34354 -1.40639 0
M  V30 3197 C 301.191 -3.25839 1.53299 0
M  V30 3198 C 301.044 -3.28269 3.07505 0
M  V30 3199 C 302.363 -4.22991 1.21518 0
M  V30 3200 H 299.482 -0.655493 0.336894 0
M  V30 3201 H 302.124 -1.26144 1.42083 0
M  V30 3202 H 300.274 -3.72306 1.10999 0
M  V30 3203 H 301.946 -2.90079 3.58681 0
M  V30 3204 H 300.189 -2.67355 3.4162 0
M  V30 3205 H 300.86 -4.30691 3.45266 0
M  V30 3206 H 303.336 -3.84894 1.581 0
M  V30 3207 H 302.212 -5.22945 1.66793 0
M  V30 3208 H 302.473 -4.41904 0.131505 0
M  V30 3209 N 301.532 -0.945985 -1.26051 0
M  V30 3210 C 302.781 -0.591836 -1.92822 0
M  V30 3211 C 303.094 0.873956 -1.7499 0
M  V30 3212 O 304.3 1.33769 -2.36259 0
M  V30 3213 C 302.756 -1.00776 -3.45503 0
M  V30 3214 C 302.364 -2.4955 -3.7206 0
M  V30 3215 C 304.108 -0.725735 -4.1825 0
M  V30 3216 C 302.015 -2.84988 -5.18205 0
M  V30 3217 H 300.945 -0.217635 -0.721908 0
M  V30 3218 H 303.596 -1.14927 -1.43052 0
M  V30 3219 H 301.978 -0.378812 -3.94184 0
M  V30 3220 H 303.152 -3.1739 -3.34066 0
M  V30 3221 H 301.467 -2.75133 -3.12555 0
M  V30 3222 H 304.064 -0.966771 -5.25887 0
M  V30 3223 H 304.407 0.337639 -4.14929 0
M  V30 3224 H 304.94 -1.31463 -3.7545 0
M  V30 3225 H 301.679 -3.90307 -5.26631 0
M  V30 3226 H 301.199 -2.21813 -5.57278 0
M  V30 3227 H 302.878 -2.73712 -5.86252 0
M  V30 3228 N 303.011 1.40521 -0.713556 0
M  V30 3229 C 304.241 2.0494 -0.261395 0
M  V30 3230 C 304.649 1.53861 1.10107 0
M  V30 3231 O 303.992 0.689321 1.70276 0
M  V30 3232 C 304.054 3.59138 -0.161227 0
M  V30 3233 C 303.718 4.33096 -1.45865 0
M  V30 3234 C 304.715 4.61182 -2.40016 0
M  V30 3235 C 302.4 4.72043 -1.71701 0
M  V30 3236 C 304.394 5.27196 -3.58251 0
M  V30 3237 C 302.081 5.37789 -2.90218 0
M  V30 3238 C 303.079 5.65295 -3.83315 0
M  V30 3239 O 302.767 6.29683 -4.99754 0
M  V30 3240 H 302.499 0.666041 -0.115608 0
M  V30 3241 H 305.053 1.80954 -0.971849 0
M  V30 3242 H 303.283 3.81936 0.605153 0
M  V30 3243 H 304.972 4.05091 0.256105 0
M  V30 3244 H 305.738 4.31559 -2.21318 0
M  V30 3245 H 301.617 4.50003 -1.00092 0
M  V30 3246 H 305.161 5.48582 -4.30934 0
M  V30 3247 H 301.058 5.66831 -3.08825 0
M  V30 3248 H 301.826 6.4818 -4.99805 0
M  V30 3249 N 304.489 0.459591 1.5075 0
M  V30 3250 C 305.738 -0.100971 2.01447 0
M  V30 3251 C 306.051 -1.41816 1.34713 0
M  V30 3252 O 307.257 -2.06299 1.76502 0
M  V30 3253 C 305.713 -0.23047 3.59161 0
M  V30 3254 C 305.321 1.0776 4.34847 0
M  V30 3255 C 307.065 -0.743608 4.17936 0
M  V30 3256 C 304.972 0.91253 5.84317 0
M  V30 3257 H 303.902 -0.0415102 0.752856 0
M  V30 3258 H 306.553 0.592742 1.73663 0
M  V30 3259 H 304.935 -0.987703 3.83485 0
M  V30 3260 H 306.109 1.8449 4.22256 0
M  V30 3261 H 304.424 1.52097 3.87628 0
M  V30 3262 H 307.021 -0.883959 5.27343 0
M  V30 3263 H 307.364 -1.73196 3.78562 0
M  V30 3264 H 307.897 -0.04408 3.97776 0
M  V30 3265 H 304.636 1.87391 6.28144 0
M  V30 3266 H 304.156 0.185422 5.99513 0
M  V30 3267 H 305.835 0.574547 6.44444 0
M  V30 3268 N 305.967 -1.56429 0.191757 0
M  V30 3269 C 307.244 -1.89224 -0.495332 0
M  V30 3270 C 307.624 -1.10478 -1.79883 0
M  V30 3271 O 306.972 -0.204852 -2.2758 0
M  V30 3272 C 307.182 -3.41548 -0.717367 0
M  V30 3273 C 308.53 -4.11711 -1.03823 0
M  V30 3274 O 309.554 -3.4698 -0.805204 0
M  V30 3275 O 308.413 -5.2611 -1.47887 0
M  V30 3276 H 305.507 -0.785788 -0.25781 0
M  V30 3277 H 308.053 -1.68111 0.231721 0
M  V30 3278 H 306.825 -3.90772 0.203287 0
M  V30 3279 H 306.448 -3.68342 -1.497 0
M  V30 3280 N 307.445 0.0818655 -1.57387 0
M  V30 3281 C 308.691 0.784074 -1.8703 0
M  V30 3282 C 309.024 1.77729 -0.782689 0
M  V30 3283 O 308.299 1.93384 0.208051 0
M  V30 3284 C 308.582 1.50105 -3.27323 0
M  V30 3285 C 308.435 0.524925 -4.46727 0
M  V30 3286 C 309.754 2.44843 -3.65705 0
M  V30 3287 H 306.873 0.283582 -0.680257 0
M  V30 3288 H 309.515 0.0474352 -1.89941 0
M  V30 3289 H 307.665 2.12897 -3.24972 0
M  V30 3290 H 309.337 -0.0970111 -4.61198 0
M  V30 3291 H 307.58 -0.160606 -4.33503 0
M  V30 3292 H 308.251 1.064 -5.41648 0
M  V30 3293 H 310.727 1.92135 -3.69085 0
M  V30 3294 H 309.603 2.92018 -4.64776 0
M  V30 3295 H 309.864 3.29197 -2.95096 0
M  V30 3296 N 308.923 1.53595 0.353017 0
M  V30 3297 C 310.334 1.61937 0.929153 0
M  V30 3298 C 310.685 0.494686 1.89861 0
M  V30 3299 O 309.81 -0.377017 2.1309 0
M  V30 3300 C 310.405 2.93526 1.69199 0
M  V30 3301 C 308.964 3.04161 2.21727 0
M  V30 3302 C 308.111 2.57322 1.03348 0
M  V30 3303 H 311.062 1.58155 0.131431 0
M  V30 3304 H 311.083 2.82034 2.55416 0
M  V30 3305 H 310.595 3.75362 0.986144 0
M  V30 3306 H 308.696 2.26938 2.95516 0
M  V30 3307 H 308.809 4.09465 2.48748 0
M  V30 3308 H 307.173 2.12499 1.40414 0
M  V30 3309 H 307.956 3.41588 0.342428 0
M  V30 3310 N 310.401 -0.613514 1.45168 0
M  V30 3311 C 311.647 -1.37471 1.49096 0
M  V30 3312 C 311.98 -1.93765 0.129901 0
M  V30 3313 O 311.255 -1.74707 -0.854858 0
M  V30 3314 C 311.538 -2.52701 2.56542 0
M  V30 3315 C 311.391 -2.01643 4.0207 0
M  V30 3316 C 312.71 -3.54849 2.60327 0
M  V30 3317 H 309.829 -0.498502 0.54283 0
M  V30 3318 H 312.471 -0.692125 1.76945 0
M  V30 3319 H 310.621 -3.10931 2.32926 0
M  V30 3320 H 312.293 -1.48108 4.36877 0
M  V30 3321 H 310.536 -1.32688 4.13009 0
M  V30 3322 H 311.207 -2.84681 4.72928 0
M  V30 3323 H 313.683 -3.0645 2.81474 0
M  V30 3324 H 312.559 -4.32973 3.37381 0
M  V30 3325 H 312.82 -4.10079 1.6519 0
M  V30 3326 N 311.879 -1.3236 -0.855495 0
M  V30 3327 C 313.29 -1.2056 -1.42556 0
M  V30 3328 C 313.641 0.182209 -1.95352 0
M  V30 3329 O 312.766 1.08088 -1.87472 0
M  V30 3330 C 313.361 -2.1826 -2.59129 0
M  V30 3331 C 311.92 -2.10351 -3.12137 0
M  V30 3332 C 311.067 -2.06674 -1.84882 0
M  V30 3333 H 314.018 -1.442 -0.662727 0
M  V30 3334 H 314.039 -1.78064 -3.36264 0
M  V30 3335 H 313.551 -3.19257 -2.20673 0
M  V30 3336 H 311.652 -1.12599 -3.55179 0
M  V30 3337 H 311.765 -3.00135 -3.73438 0
M  V30 3338 H 310.129 -1.51901 -2.04446 0
M  V30 3339 H 310.912 -3.09451 -1.48643 0
M  V30 3340 N 313.357 1.07166 -1.15556 0
M  V30 3341 C 314.267 2.17947 -0.868116 0
M  V30 3342 C 315.283 1.73297 0.156297 0
M  V30 3343 O 316.459 2.01392 -0.0182327 0
M  V30 3344 C 313.524 3.44789 -0.36355 0
M  V30 3345 C 312.585 4.03996 -1.45209 0
M  V30 3346 C 311.818 5.24783 -0.971508 0
M  V30 3347 O 312.041 5.70109 0.182194 0
M  V30 3348 O 310.975 5.75715 -1.75603 0
M  V30 3349 H 314.801 2.4503 -1.79427 0
M  V30 3350 H 312.386 1.16539 -0.934824 0
M  V30 3351 H 314.268 4.21307 -0.0887113 0
M  V30 3352 H 312.943 3.19253 0.534708 0
M  V30 3353 H 311.85 3.29009 -1.78056 0
M  V30 3354 H 313.183 4.33808 -2.32533 0
M  V30 3355 N 314.835 0.952656 1.25548 0
M  V30 3356 C 316.081 0.607272 1.93494 0
M  V30 3357 C 316.414 -0.853245 1.74452 0
M  V30 3358 O 315.689 -1.61194 1.08843 0
M  V30 3359 C 315.972 0.96435 3.46947 0
M  V30 3360 C 315.825 2.48045 3.75225 0
M  V30 3361 C 317.144 0.487987 4.37386 0
M  V30 3362 H 314.263 0.222096 0.702739 0
M  V30 3363 H 316.905 1.18895 1.48203 0
M  V30 3364 H 315.055 0.469361 3.85654 0
M  V30 3365 H 316.727 3.04905 3.46166 0
M  V30 3366 H 314.97 2.919 3.209 0
M  V30 3367 H 315.641 2.6808 4.82532 0
M  V30 3368 H 318.117 0.912558 4.0597 0
M  V30 3369 H 316.993 0.766547 5.43521 0
M  V30 3370 H 317.254 -0.612063 4.37843 0
M  V30 3371 N 316.313 -1.40141 0.720998 0
M  V30 3372 C 317.245 -2.29177 0.0324669 0
M  V30 3373 C 318.258 -1.46105 -0.718126 0
M  V30 3374 O 319.447 -1.69335 -0.564608 0
M  V30 3375 C 316.547 -3.24473 -0.978292 0
M  V30 3376 C 315.72 -4.36423 -0.292115 0
M  V30 3377 C 314.779 -5.12122 -1.20901 0
M  V30 3378 O 313.805 -5.64981 -0.691766 0
M  V30 3379 N 315.007 -5.21992 -2.53978 0
M  V30 3380 H 317.772 -2.88909 0.796984 0
M  V30 3381 H 315.333 -1.51569 0.569068 0
M  V30 3382 H 317.325 -3.71987 -1.59398 0
M  V30 3383 H 315.895 -2.65871 -1.64413 0
M  V30 3384 H 315.115 -3.90967 0.503847 0
M  V30 3385 H 316.403 -5.08467 0.183971 0
M  V30 3386 H 315.801 -4.8054 -2.98493 0
M  V30 3387 H 314.358 -5.72995 -3.10677 0
M  V30 3388 N 317.792 -0.46758 -1.50504 0
M  V30 3389 C 319.208 -0.121533 -1.59137 0
M  V30 3390 C 319.408 1.3717 -1.47603 0
M  V30 3391 O 318.464 2.14464 -1.33272 0
M  V30 3392 C 319.777 -0.6686 -2.93173 0
M  V30 3393 C 321.325 -0.631716 -3.06559 0
M  V30 3394 C 321.8 -1.15627 -4.43164 0
M  V30 3395 N 323.291 -1.11553 -4.49567 0
M  V30 3396 C 324.026 -1.49195 -5.5365 0
M  V30 3397 N 323.522 -1.94269 -6.65005 0
M  V30 3398 N 325.315 -1.4082 -5.44175 0
M  V30 3399 H 317.466 -1.4388 -1.56245 0
M  V30 3400 H 319.729 -0.594784 -0.738198 0
M  V30 3401 H 319.435 -1.71453 -3.07078 0
M  V30 3402 H 319.309 -0.11021 -3.77039 0
M  V30 3403 H 321.696 0.405297 -2.92304 0
M  V30 3404 H 321.777 -1.22687 -2.24458 0
M  V30 3405 H 321.421 -2.1919 -4.58168 0
M  V30 3406 H 321.351 -0.537365 -5.23851 0
M  V30 3407 H 323.842 -0.784895 -3.69659 0
M  V30 3408 H 324.155 -2.21148 -7.40482 0
M  V30 3409 H 322.5 -1.98219 -6.66134 0
M  V30 3410 H 325.691 -1.0545 -4.56068 0
M  V30 3411 H 325.864 -1.70481 -6.25172 0
M  V30 3412 N 319.27 1.56325 -0.20005 0
M  V30 3413 C 320.686 1.58839 0.155716 0
M  V30 3414 C 320.886 1.21636 1.60645 0
M  V30 3415 O 319.942 0.941437 2.34293 0
M  V30 3416 C 321.255 3.0032 -0.151124 0
M  V30 3417 C 322.803 3.12866 -0.0916284 0
M  V30 3418 C 323.278 4.56488 -0.371845 0
M  V30 3419 N 324.769 4.62089 -0.320641 0
M  V30 3420 C 325.504 5.71116 -0.511243 0
M  V30 3421 N 325 6.88592 -0.762461 0
M  V30 3422 N 326.793 5.60335 -0.445157 0
M  V30 3423 H 318.944 1.78788 -1.14668 0
M  V30 3424 H 321.207 0.829996 -0.458051 0
M  V30 3425 H 320.913 3.32117 -1.15721 0
M  V30 3426 H 320.787 3.73257 0.543986 0
M  V30 3427 H 323.174 2.80878 0.905065 0
M  V30 3428 H 323.255 2.42304 -0.81989 0
M  V30 3429 H 322.899 4.89189 -1.36588 0
M  V30 3430 H 322.829 5.25246 0.377362 0
M  V30 3431 H 325.32 3.77665 -0.13329 0
M  V30 3432 H 325.633 7.67581 -0.896576 0
M  V30 3433 H 323.978 6.90387 -0.799412 0
M  V30 3434 H 327.169 4.67436 -0.249278 0
M  V30 3435 H 327.342 6.45243 -0.597116 0
M  V30 3436 N 320.748 -0.0735177 1.57428 0
M  V30 3437 C 321.997 -0.771809 1.86349 0
M  V30 3438 C 322.31 -1.78828 0.792452 0
M  V30 3439 O 323.516 -2.53602 0.96945 0
M  V30 3440 C 321.972 -1.42358 3.30548 0
M  V30 3441 C 321.58 -0.445761 4.45777 0
M  V30 3442 C 323.324 -2.10434 3.6867 0
M  V30 3443 C 321.231 -1.10335 5.81016 0
M  V30 3444 H 320.161 -0.291999 0.695164 0
M  V30 3445 H 322.812 -0.0250749 1.83483 0
M  V30 3446 H 321.194 -2.21852 3.28021 0
M  V30 3447 H 322.368 0.319239 4.59693 0
M  V30 3448 H 320.683 0.130457 4.16196 0
M  V30 3449 H 323.28 -2.60405 4.67004 0
M  V30 3450 H 323.623 -2.90298 2.98383 0
M  V30 3451 H 324.156 -1.37773 3.7318 0
M  V30 3452 H 320.895 -0.345061 6.54591 0
M  V30 3453 H 320.415 -1.83925 5.70904 0
M  V30 3454 H 322.094 -1.62367 6.26295 0
M  V30 3455 N 322.226 -1.5378 -0.344866 0
M  V30 3456 C 323.158 -1.77988 -1.44406 0
M  V30 3457 C 324.171 -0.661138 -1.48771 0
M  V30 3458 O 325.36 -0.937842 -1.51877 0
M  V30 3459 C 322.46 -1.86345 -2.8307 0
M  V30 3460 C 321.633 -3.16256 -3.0216 0
M  V30 3461 C 320.692 -3.15588 -4.21059 0
M  V30 3462 O 319.718 -3.89314 -4.15239 0
M  V30 3463 N 320.92 -2.37864 -5.29529 0
M  V30 3464 H 323.685 -2.72839 -1.24012 0
M  V30 3465 H 321.246 -1.52814 -0.534737 0
M  V30 3466 H 323.238 -1.83351 -3.60783 0
M  V30 3467 H 321.808 -0.986858 -2.96614 0
M  V30 3468 H 321.028 -3.32385 -2.11929 0
M  V30 3469 H 322.316 -4.0207 -3.11797 0
M  V30 3470 H 321.714 -1.77514 -5.37127 0
M  V30 3471 H 320.271 -2.40668 -6.05741 0
M  V30 3472 N 323.704 0.605807 -1.45491 0
M  V30 3473 C 324.651 1.7164 -1.54299 0
M  V30 3474 C 325.621 1.61486 -0.388761 0
M  V30 3475 O 326.806 1.81039 -0.602445 0
M  V30 3476 C 323.946 3.09953 -1.51734 0
M  V30 3477 C 323.059 3.309 -2.77721 0
M  V30 3478 C 322.194 4.59329 -2.66816 0
M  V30 3479 C 321.233 4.7354 -3.87848 0
M  V30 3480 N 320.37 5.9327 -3.75467 0
M  V30 3481 H 325.21 1.63449 -2.49176 0
M  V30 3482 H 322.747 0.796957 -1.23641 0
M  V30 3483 H 324.705 3.89977 -1.48235 0
M  V30 3484 H 323.335 3.17098 -0.604068 0
M  V30 3485 H 322.387 2.44639 -2.913 0
M  V30 3486 H 323.699 3.37274 -3.67488 0
M  V30 3487 H 322.853 5.4755 -2.61292 0
M  V30 3488 H 321.592 4.55355 -1.74651 0
M  V30 3489 H 320.597 3.83741 -3.93729 0
M  V30 3490 H 321.822 4.79309 -4.81082 0
M  V30 3491 H 319.768 5.90338 -2.86072 0
M  V30 3492 H 319.685 6.00811 -4.5887 0
M  V30 3493 H 320.953 6.83984 -3.73879 0
M  V30 3494 N 325.182 1.32811 0.848464 0
M  V30 3495 C 326.129 1.22265 1.95755 0
M  V30 3496 C 327.099 0.103413 1.65778 0
M  V30 3497 O 328.284 0.280033 1.88734 0
M  V30 3498 C 325.424 0.958014 3.31536 0
M  V30 3499 C 324.537 2.16262 3.73971 0
M  V30 3500 C 323.672 1.83295 4.98575 0
M  V30 3501 C 322.711 3.00041 5.33518 0
M  V30 3502 N 321.848 2.67125 6.49299 0
M  V30 3503 H 326.688 2.17128 2.04107 0
M  V30 3504 H 324.225 1.07982 0.998913 0
M  V30 3505 H 326.183 0.785052 4.09747 0
M  V30 3506 H 324.813 0.046159 3.22767 0
M  V30 3507 H 323.865 2.44565 2.91362 0
M  V30 3508 H 325.177 3.03572 3.95785 0
M  V30 3509 H 324.331 1.62586 5.84509 0
M  V30 3510 H 323.07 0.932078 4.7871 0
M  V30 3511 H 322.075 3.21374 4.46093 0
M  V30 3512 H 323.3 3.90869 5.55336 0
M  V30 3513 H 321.246 1.79586 6.3094 0
M  V30 3514 H 321.163 3.47965 6.71161 0
M  V30 3515 H 322.431 2.49861 7.3837 0
M  V30 3516 N 326.66 -1.06551 1.16123 0
M  V30 3517 C 327.908 -1.78947 0.939267 0
M  V30 3518 C 328.229 -1.87532 -0.534476 0
M  V30 3519 O 327.499 -1.38211 -1.38833 0
M  V30 3520 H 326.079 -0.662807 0.344523 0
M  V30 3521 H 328.741 -1.28725 1.46342 0
M  V30 3522 H 327.837 -2.81117 1.35572 0
M  V30 3523 N 328.138 -0.959301 -1.25041 0
M  V30 3524 C 329.415 -0.533805 -1.88175 0
M  V30 3525 C 329.795 0.988994 -1.865 0
M  V30 3526 O 329.143 1.85677 -1.33177 0
M  V30 3527 C 329.353 -1.11575 -3.30684 0
M  V30 3528 C 330.701 -1.19548 -4.07423 0
M  V30 3529 O 331.725 -1.06765 -3.39823 0
M  V30 3530 O 330.584 -1.39656 -5.28354 0
M  V30 3531 H 327.678 -0.176772 -0.807887 0
M  V30 3532 H 330.224 -1.05303 -1.33076 0
M  V30 3533 H 328.996 -2.15884 -3.26358 0
M  V30 3534 H 328.619 -0.580059 -3.93346 0
M  V30 3535 N 329.616 1.39756 -0.72842 0
M  V30 3536 C 331.027 1.83498 -0.344289 0
M  V30 3537 C 331.378 1.60868 1.12321 0
M  V30 3538 O 330.503 1.09634 1.86573 0
M  V30 3539 C 331.098 3.33114 -0.618112 0
M  V30 3540 C 329.657 3.753 -0.287549 0
M  V30 3541 C 328.804 2.62831 -0.884048 0
M  V30 3542 H 331.755 1.28842 -0.926578 0
M  V30 3543 H 331.776 3.80334 0.112349 0
M  V30 3544 H 331.288 3.49553 -1.68625 0
M  V30 3545 H 329.389 3.64451 0.775012 0
M  V30 3546 H 329.502 4.72945 -0.765512 0
M  V30 3547 H 327.866 2.52792 -0.311149 0
M  V30 3548 H 328.649 2.82078 -1.95671 0
M  V30 3549 N 331.094 0.475555 1.50254 0
M  V30 3550 C 332.044 -0.335025 2.25525 0
M  V30 3551 C 333.028 -0.957625 1.29299 0
M  V30 3552 O 334.22 -0.869436 1.54175 0
M  V30 3553 C 331.349 -1.41385 3.12834 0
M  V30 3554 C 330.435 -0.798762 4.1651 0
M  V30 3555 N 330.826 0.0835815 5.05731 0
M  V30 3556 C 329.124 -1.06221 4.33166 0
M  V30 3557 C 329.825 0.433113 5.80085 0
M  V30 3558 N 328.801 -0.1928 5.43258 0
M  V30 3559 H 332.603 0.344612 2.91873 0
M  V30 3560 H 330.117 0.289986 1.5979 0
M  V30 3561 H 332.114 -2.00777 3.65368 0
M  V30 3562 H 330.774 -2.09543 2.48036 0
M  V30 3563 H 331.785 0.452715 5.15918 0
M  V30 3564 H 328.462 -1.73844 3.79585 0
M  V30 3565 H 329.852 1.15346 6.61925 0
M  V30 3566 N 332.573 -1.56217 0.208337 0
M  V30 3567 C 333.483 -2.23316 -0.718836 0
M  V30 3568 C 334.499 -1.23648 -1.22422 0
M  V30 3569 O 335.675 -1.56423 -1.26861 0
M  V30 3570 C 332.74 -2.88968 -1.91568 0
M  V30 3571 C 331.801 -4.03943 -1.45357 0
M  V30 3572 C 331.034 -4.66455 -2.59337 0
M  V30 3573 O 331.257 -4.27919 -3.77149 0
M  V30 3574 O 330.191 -5.55686 -2.31293 0
M  V30 3575 H 334.017 -3.03182 -0.177315 0
M  V30 3576 H 331.602 -1.49384 -0.0215402 0
M  V30 3577 H 333.484 -3.30455 -2.61491 0
M  V30 3578 H 332.159 -2.12071 -2.44556 0
M  V30 3579 H 331.066 -3.67052 -0.722746 0
M  V30 3580 H 332.399 -4.82543 -0.970219 0
M  V30 3581 N 334.051 0.0651679 -1.57465 0
M  V30 3582 C 334.984 1.10876 -1.99453 0
M  V30 3583 C 335.962 1.37205 -0.872555 0
M  V30 3584 O 337.146 1.50468 -1.13542 0
M  V30 3585 C 334.273 2.45167 -2.3369 0
M  V30 3586 C 333.319 2.3493 -3.55964 0
M  V30 3587 S 334.152 1.73708 -5.06543 0
M  V30 3588 C 335.308 3.09563 -5.43987 0
M  V30 3589 H 335.541 0.750967 -2.87659 0
M  V30 3590 H 333.074 0.273933 -1.51951 0
M  V30 3591 H 335.032 3.22412 -2.54088 0
M  V30 3592 H 333.693 2.78105 -1.46001 0
M  V30 3593 H 332.886 3.3398 -3.77457 0
M  V30 3594 H 332.488 1.65823 -3.3523 0
M  V30 3595 H 334.78 4.05882 -5.42463 0
M  V30 3596 H 335.723 2.92843 -6.44708 0
M  V30 3597 H 336.131 3.10474 -4.71451 0
M  V30 3598 N 335.529 1.53961 0.336706 0
M  V30 3599 C 336.476 1.82428 1.41381 0
M  V30 3600 C 337.446 0.670444 1.51968 0
M  V30 3601 O 338.631 0.915565 1.67398 0
M  V30 3602 C 335.771 2.04564 2.77934 0
M  V30 3603 C 334.884 3.32267 2.76084 0
M  V30 3604 C 334.019 3.44434 4.04399 0
M  V30 3605 C 333.058 4.66061 3.96804 0
M  V30 3606 N 332.195 4.75224 5.16823 0
M  V30 3607 H 337.035 2.74324 1.16405 0
M  V30 3608 H 334.572 1.35869 0.563752 0
M  V30 3609 H 336.53 2.15388 3.57301 0
M  V30 3610 H 335.16 1.15974 3.01247 0
M  V30 3611 H 334.212 3.3025 1.88784 0
M  V30 3612 H 335.524 4.21733 2.66351 0
M  V30 3613 H 334.678 3.54728 4.92192 0
M  V30 3614 H 333.417 2.53037 4.16921 0
M  V30 3615 H 332.422 4.55838 3.07396 0
M  V30 3616 H 333.647 5.58829 3.85858 0
M  V30 3617 H 331.593 3.86739 5.29876 0
M  V30 3618 H 331.51 5.58636 5.09374 0
M  V30 3619 H 332.778 4.89835 6.06367 0
M  V30 3620 N 337.007 -0.598083 1.45811 0
M  V30 3621 C 338.256 -1.35295 1.49594 0
M  V30 3622 C 338.569 -1.95057 0.145679 0
M  V30 3623 O 339.775 -2.71431 0.0612099 0
M  V30 3624 C 338.231 -2.45124 2.63519 0
M  V30 3625 C 337.839 -1.91732 4.04899 0
M  V30 3626 C 339.583 -3.2205 2.76558 0
M  V30 3627 C 337.49 -2.991 5.1019 0
M  V30 3628 H 336.42 -0.508552 0.556679 0
M  V30 3629 H 339.071 -0.639977 1.71978 0
M  V30 3630 H 337.453 -3.19149 2.34435 0
M  V30 3631 H 338.627 -1.24352 4.43704 0
M  V30 3632 H 336.942 -1.27522 3.96393 0
M  V30 3633 H 339.539 -4.0215 3.52391 0
M  V30 3634 H 339.882 -3.73663 1.83526 0
M  V30 3635 H 340.415 -2.55127 3.05213 0
M  V30 3636 H 337.154 -2.52393 6.04961 0
M  V30 3637 H 336.674 -3.65017 4.75944 0
M  V30 3638 H 338.353 -3.63318 5.35359 0
M  V30 3639 N 338.485 -1.33259 -0.841409 0
M  V30 3640 C 339.713 -1.27605 -1.62864 0
M  V30 3641 C 340.128 0.153507 -1.88175 0
M  V30 3642 O 339.485 1.09485 -1.46011 0
M  V30 3643 C 339.536 -2.04596 -2.98031 0
M  V30 3644 O 339.257 -3.41975 -2.73834 0
M  V30 3645 C 340.758 -2.06122 -3.92465 0
M  V30 3646 H 337.978 -0.439718 -0.506842 0
M  V30 3647 H 340.522 -1.75591 -1.04824 0
M  V30 3648 H 338.677 -1.60299 -3.5268 0
M  V30 3649 H 339.091 -3.81549 -3.59889 0
M  V30 3650 H 340.565 -2.64451 -4.84531 0
M  V30 3651 H 341.042 -1.05083 -4.26444 0
M  V30 3652 H 341.648 -2.50427 -3.43753 0
M  V30 3653 N 339.963 1.05934 -1.16686 0
M  V30 3654 C 341.188 1.83029 -0.975455 0
M  V30 3655 C 341.613 1.82096 0.471452 0
M  V30 3656 O 340.971 1.22443 1.33706 0
M  V30 3657 C 341.019 3.27372 -1.51195 0
M  V30 3658 O 340.123 4.06054 -0.720701 0
M  V30 3659 H 339.464 0.566194 -0.346872 0
M  V30 3660 H 341.994 1.33541 -1.55009 0
M  V30 3661 H 342.004 3.78186 -1.53099 0
M  V30 3662 H 340.679 3.27366 -2.56523 0
M  V30 3663 H 339.256 3.64812 -0.772458 0
M  V30 3664 N 341.441 0.965919 1.2453 0
M  V30 3665 C 342.404 0.499547 2.2369 0
M  V30 3666 C 343.404 -0.40294 1.5567 0
M  V30 3667 O 344.594 -0.19865 1.73064 0
M  V30 3668 C 341.726 -0.276792 3.39774 0
M  V30 3669 H 342.919 1.37613 2.66463 0
M  V30 3670 H 340.472 0.750324 1.37112 0
M  V30 3671 H 341.207 -1.17055 3.02438 0
M  V30 3672 H 340.992 0.370826 3.90343 0
M  V30 3673 H 342.482 -0.592175 4.1338 0
M  V30 3674 N 342.919 -1.39368 0.735821 0
M  V30 3675 C 344.149 -2.04498 0.293967 0
M  V30 3676 C 344.557 -1.55593 -1.07645 0
M  V30 3677 O 343.9 -0.716324 -1.69158 0
M  V30 3678 C 343.962 -3.58836 0.218342 0
M  V30 3679 C 343.626 -4.30721 1.52736 0
M  V30 3680 C 344.623 -4.57305 2.47322 0
M  V30 3681 C 342.308 -4.69251 1.79189 0
M  V30 3682 C 344.302 -5.21429 3.66593 0
M  V30 3683 C 341.989 -5.33104 2.98737 0
M  V30 3684 C 342.987 -5.59125 3.9226 0
M  V30 3685 O 342.675 -6.21653 5.09708 0
M  V30 3686 H 342.407 -0.664118 0.126189 0
M  V30 3687 H 344.961 -1.79385 1.00051 0
M  V30 3688 H 343.191 -3.8285 -0.544314 0
M  V30 3689 H 344.88 -4.05447 -0.191626 0
M  V30 3690 H 345.646 -4.27983 2.28156 0
M  V30 3691 H 341.525 -4.48354 1.07239 0
M  V30 3692 H 345.069 -5.41656 4.39607 0
M  V30 3693 H 340.966 -5.61846 3.17803 0
M  V30 3694 H 341.734 -6.40146 5.10054 0
M  V30 3695 N 344.397 -0.483516 -1.5 0
M  V30 3696 C 345.327 0.293829 -2.31644 0
M  V30 3697 C 346.308 0.978864 -1.39112 0
M  V30 3698 O 347.493 0.973644 -1.68029 0
M  V30 3699 C 344.623 1.36897 -3.19181 0
M  V30 3700 C 343.577 0.804833 -4.20365 0
M  V30 3701 C 342.903 1.9792 -4.96721 0
M  V30 3702 C 344.203 -0.192313 -5.21946 0
M  V30 3703 H 345.897 -0.387616 -2.9688 0
M  V30 3704 H 343.443 -0.187856 -1.42769 0
M  V30 3705 H 345.396 1.92037 -3.751 0
M  V30 3706 H 344.12 2.07936 -2.51853 0
M  V30 3707 H 342.779 0.275319 -3.65565 0
M  V30 3708 H 342.427 2.67686 -4.25856 0
M  V30 3709 H 342.127 1.60789 -5.65173 0
M  V30 3710 H 343.651 2.53526 -5.55479 0
M  V30 3711 H 345.065 0.270333 -5.72662 0
M  V30 3712 H 343.462 -0.478543 -5.98189 0
M  V30 3713 H 344.532 -1.11409 -4.71928 0
M  V30 3714 N 345.875 1.56104 -0.216619 0
M  V30 3715 C 346.807 2.17339 0.72776 0
M  V30 3716 C 347.82 1.14109 1.16116 0
M  V30 3717 O 349.009 1.4111 1.09317 0
M  V30 3718 C 346.109 2.73818 1.99693 0
M  V30 3719 C 345.282 4.02168 1.71988 0
M  V30 3720 C 344.341 4.43259 2.83562 0
M  V30 3721 O 343.367 5.10257 2.52244 0
M  V30 3722 N 344.569 4.08535 4.12407 0
M  V30 3723 H 347.334 2.99005 0.203983 0
M  V30 3724 H 344.895 1.61861 -0.0354289 0
M  V30 3725 H 346.887 2.9828 2.73516 0
M  V30 3726 H 345.457 1.96483 2.43132 0
M  V30 3727 H 344.677 3.85612 0.818337 0
M  V30 3728 H 345.965 4.85907 1.50903 0
M  V30 3729 H 345.363 3.54687 4.40696 0
M  V30 3730 H 343.92 4.37901 4.8279 0
M  V30 3731 N 347.353 -0.0568162 1.57498 0
M  V30 3732 C 348.63 -0.786954 1.79071 0
M  V30 3733 C 349.01 -1.95028 0.80792 0
M  V30 3734 O 348.358 -2.27968 -0.155858 0
M  V30 3735 C 348.568 -1.24594 3.26002 0
M  V30 3736 C 349.916 -1.67323 3.90241 0
M  V30 3737 O 350.94 -1.34124 3.29984 0
M  V30 3738 O 349.799 -2.28842 4.9628 0
M  V30 3739 H 346.893 -0.378262 0.735423 0
M  V30 3740 H 349.439 -0.035734 1.69662 0
M  V30 3741 H 348.211 -0.41423 3.89101 0
M  V30 3742 H 347.834 -2.05803 3.40192 0
M  V30 3743 N 348.832 -1.54138 -0.328536 0
M  V30 3744 C 350.081 -1.71318 -1.06456 0
M  V30 3745 C 350.394 -0.491109 -1.89334 0
M  V30 3746 O 351.6 -0.54416 -2.65991 0
M  V30 3747 C 350.056 -3.03 -1.94214 0
M  V30 3748 C 349.664 -4.32595 -1.16471 0
M  V30 3749 C 351.408 -3.29544 -2.67583 0
M  V30 3750 C 349.315 -5.55341 -2.03347 0
M  V30 3751 H 348.245 -0.638429 -0.401155 0
M  V30 3752 H 350.896 -1.80633 -0.323106 0
M  V30 3753 H 349.278 -2.87579 -2.72239 0
M  V30 3754 H 350.452 -4.58766 -0.432525 0
M  V30 3755 H 348.767 -4.12777 -0.548063 0
M  V30 3756 H 351.364 -4.18444 -3.3288 0
M  V30 3757 H 351.707 -2.47206 -3.34955 0
M  V30 3758 H 352.24 -3.45809 -1.96623 0
M  V30 3759 H 348.979 -6.40268 -1.40491 0
M  V30 3760 H 348.499 -5.33397 -2.74313 0
M  V30 3761 H 350.178 -5.91557 -2.62049 0
M  V30 3762 N 350.31 0.590341 -1.46126 0
M  V30 3763 C 351.22 1.72793 -1.58681 0
M  V30 3764 C 352.236 1.67516 -0.470566 0
M  V30 3765 O 353.412 1.87562 -0.733642 0
M  V30 3766 C 350.477 3.09287 -1.5666 0
M  V30 3767 C 349.538 3.25886 -2.79458 0
M  V30 3768 C 348.771 4.55869 -2.77524 0
M  V30 3769 O 348.994 5.3928 -1.85832 0
M  V30 3770 O 347.928 4.75552 -3.68964 0
M  V30 3771 H 351.754 1.65149 -2.54872 0
M  V30 3772 H 349.339 0.756486 -1.28832 0
M  V30 3773 H 351.221 3.90577 -1.58202 0
M  V30 3774 H 349.896 3.17385 -0.636271 0
M  V30 3775 H 348.803 2.44119 -2.83472 0
M  V30 3776 H 350.136 3.22675 -3.71674 0
M  V30 3777 N 351.788 1.33704 0.83433 0
M  V30 3778 C 352.736 1.24323 1.96587 0
M  V30 3779 C 353.73 0.143659 1.6879 0
M  V30 3780 O 354.936 0.30791 1.77347 0
M  V30 3781 H 351.311 0.385925 0.645419 0
M  V30 3782 H 353.282 2.19978 2.01624 0
M  V30 3783 C 352.031 1.00394 3.32891 0
M  V30 3784 H 351.354 1.84231 3.54822 0
M  V30 3785 H 352.794 0.97862 4.12552 0
M  V30 3786 C 351.253 -0.293047 3.35623 0
M  V30 3787 O 351.783 -1.29823 3.80143 0
M  V30 3788 N 349.989 -0.322174 2.88809 0
M  V30 3789 H 349.536 0.496379 2.52772 0
M  V30 3790 H 349.494 -1.18977 2.91019 0
M  V30 3791 N 353.266 -1.05314 1.17247 0
M  V30 3792 C 354.229 -2.112 0.890357 0
M  V30 3793 C 355.229 -1.60359 -0.118943 0
M  V30 3794 O 356.419 -1.73833 0.113086 0
M  V30 3795 C 353.551 -3.39266 0.333422 0
M  V30 3796 H 354.744 -2.37659 1.82916 0
M  V30 3797 H 352.297 -1.21538 0.982758 0
M  V30 3798 H 353.032 -3.18462 -0.612587 0
M  V30 3799 H 352.817 -3.77477 1.06082 0
M  V30 3800 H 354.307 -4.17315 0.154322 0
M  V30 3801 N 354.744 -0.972509 -1.24016 0
M  V30 3802 C 355.974 -0.653853 -1.9598 0
M  V30 3803 C 356.382 0.781801 -1.72292 0
M  V30 3804 O 355.725 1.53677 -1.00644 0
M  V30 3805 C 355.787 -0.854608 -3.49194 0
M  V30 3806 C 355.451 -2.27082 -3.96589 0
M  V30 3807 C 356.448 -3.24892 -4.05883 0
M  V30 3808 C 354.133 -2.5998 -4.29786 0
M  V30 3809 C 356.127 -4.53684 -4.47716 0
M  V30 3810 C 353.814 -3.88997 -4.71301 0
M  V30 3811 C 354.812 -4.85661 -4.80232 0
M  V30 3812 O 354.5 -6.12376 -5.20818 0
M  V30 3813 H 354.232 -0.242572 -0.630979 0
M  V30 3814 H 356.786 -1.30431 -1.58673 0
M  V30 3815 H 355.016 -0.146985 -3.86421 0
M  V30 3816 H 356.705 -0.534311 -4.02368 0
M  V30 3817 H 357.471 -3.00805 -3.80449 0
M  V30 3818 H 353.35 -1.85457 -4.22051 0
M  V30 3819 H 356.894 -5.29135 -4.54601 0
M  V30 3820 H 352.791 -4.12882 -4.96184 0
M  V30 3821 H 353.559 -6.16013 -5.38953 0
M  V30 3822 N 356.222 1.38976 -0.743202 0
M  V30 3823 C 357.169 2.30544 -0.10861 0
M  V30 3824 C 358.139 1.49642 0.720869 0
M  V30 3825 O 359.324 1.78304 0.679142 0
M  V30 3826 C 356.464 3.36018 0.786496 0
M  V30 3827 C 355.577 4.31963 -0.0564849 0
M  V30 3828 C 354.712 5.24506 0.840657 0
M  V30 3829 C 353.751 6.121 -0.00658363 0
M  V30 3830 N 352.888 6.96973 0.846943 0
M  V30 3831 H 357.728 2.8424 -0.895088 0
M  V30 3832 H 355.265 1.3995 -0.453048 0
M  V30 3833 H 357.223 3.95768 1.31999 0
M  V30 3834 H 355.853 2.83758 1.53887 0
M  V30 3835 H 354.905 3.73763 -0.707492 0
M  V30 3836 H 356.217 4.93703 -0.711229 0
M  V30 3837 H 355.371 5.89322 1.4417 0
M  V30 3838 H 354.11 4.63107 1.52916 0
M  V30 3839 H 353.115 5.46289 -0.620366 0
M  V30 3840 H 354.34 6.75565 -0.691992 0
M  V30 3841 H 352.286 6.38133 1.52059 0
M  V30 3842 H 352.203 7.5559 0.248864 0
M  V30 3843 H 353.471 7.6621 1.43328 0
M  V30 3844 N 357.7 0.491464 1.49741 0
M  V30 3845 C 358.647 -0.292027 2.28945 0
M  V30 3846 C 359.617 -0.968973 1.34908 0
M  V30 3847 O 360.802 -0.97748 1.6386 0
M  V30 3848 C 357.942 -1.35617 3.17336 0
M  V30 3849 C 357.055 -0.691957 4.26422 0
M  V30 3850 C 356.19 -1.73572 5.02042 0
M  V30 3851 C 355.229 -1.05286 6.02977 0
M  V30 3852 N 354.366 -2.0404 6.71798 0
M  V30 3853 H 359.206 0.389654 2.95442 0
M  V30 3854 H 356.743 0.204003 1.45679 0
M  V30 3855 H 358.701 -1.98502 3.66951 0
M  V30 3856 H 357.331 -2.00674 2.52844 0
M  V30 3857 H 356.383 0.0499523 3.80367 0
M  V30 3858 H 357.695 -0.153946 4.98562 0
M  V30 3859 H 356.849 -2.43987 5.55478 0
M  V30 3860 H 355.588 -2.30757 4.29654 0
M  V30 3861 H 354.593 -0.334446 5.48782 0
M  V30 3862 H 355.818 -0.487636 6.77347 0
M  V30 3863 H 353.764 -2.60205 6.02187 0
M  V30 3864 H 353.681 -1.55279 7.39881 0
M  V30 3865 H 354.949 -2.73772 7.29842 0
M  V30 3866 N 359.178 -1.55987 0.224894 0
M  V30 3867 C 360.406 -2.02784 -0.410665 0
M  V30 3868 C 360.821 -1.10464 -1.53112 0
M  V30 3869 O 360.178 -0.114871 -1.82138 0
M  V30 3870 C 360.229 -3.49087 -0.939165 0
M  V30 3871 O 359.95 -4.37887 0.136614 0
M  V30 3872 C 361.451 -4.11543 -1.64763 0
M  V30 3873 H 358.671 -0.663484 -0.100148 0
M  V30 3874 H 361.215 -2.01614 0.342326 0
M  V30 3875 H 359.37 -3.50861 -1.64242 0
M  V30 3876 H 359.784 -5.23849 -0.261155 0
M  V30 3877 H 361.258 -5.15673 -1.96939 0
M  V30 3878 H 361.735 -3.56736 -2.56195 0
M  V30 3879 H 362.341 -4.13629 -0.989503 0
M  V30 3880 N 360.656 0.0484629 -1.57525 0
M  V30 3881 C 361.903 0.743125 -1.88372 0
M  V30 3882 C 362.231 1.76383 -0.819715 0
M  V30 3883 O 361.486 1.94855 0.181659 0
M  V30 3884 C 361.785 1.46632 -3.25935 0
M  V30 3885 C 361.451 0.583427 -4.4711 0
M  V30 3886 C 360.113 0.340191 -4.79996 0
M  V30 3887 C 362.465 -0.0273345 -5.21193 0
M  V30 3888 C 359.793 -0.522903 -5.84365 0
M  V30 3889 C 362.145 -0.878017 -6.26477 0
M  V30 3890 C 360.809 -1.1309 -6.5785 0
M  V30 3891 H 360.079 0.271929 -0.689301 0
M  V30 3892 H 362.726 0.00336166 -1.915 0
M  V30 3893 H 361.031 2.2789 -3.18706 0
M  V30 3894 H 362.728 2.00902 -3.47044 0
M  V30 3895 H 359.318 0.783151 -4.21384 0
M  V30 3896 H 363.502 0.147654 -4.9608 0
M  V30 3897 H 358.758 -0.727335 -6.07058 0
M  V30 3898 H 362.932 -1.35789 -6.83033 0
M  V30 3899 H 360.559 -1.80144 -7.38547 0
M  V30 3900 N 362.134 1.5431 0.320358 0
M  V30 3901 C 363.064 1.86912 1.3995 0
M  V30 3902 C 364.045 0.726211 1.53819 0
M  V30 3903 O 365.23 0.980233 1.67646 0
M  V30 3904 C 362.36 2.09932 2.7667 0
M  V30 3905 C 361.314 3.25776 2.77586 0
M  V30 3906 C 360.64 3.34173 4.17412 0
M  V30 3907 C 361.94 4.6335 2.41048 0
M  V30 3908 H 363.634 2.77292 1.12914 0
M  V30 3909 H 361.18 1.33421 0.541738 0
M  V30 3910 H 363.133 2.31324 3.52232 0
M  V30 3911 H 361.857 1.16304 3.0519 0
M  V30 3912 H 360.516 3.04276 2.04479 0
M  V30 3913 H 360.164 2.38098 4.43078 0
M  V30 3914 H 359.864 4.12033 4.18931 0
M  V30 3915 H 361.388 3.57803 4.94782 0
M  V30 3916 H 362.802 4.84602 3.06324 0
M  V30 3917 H 361.199 5.43782 2.53813 0
M  V30 3918 H 362.269 4.65381 1.36193 0
M  V30 3919 N 363.613 -0.582584 1.46437 0
M  V30 3920 C 365.024 -1.1647 1.45916 0
M  V30 3921 C 365.375 -1.95177 0.200077 0
M  V30 3922 O 364.5 -2.04874 -0.696819 0
M  V30 3923 C 365.095 -2.11885 2.64367 0
M  V30 3924 C 363.654 -2.65421 2.66887 0
M  V30 3925 C 362.801 -1.41294 2.38603 0
M  V30 3926 H 365.752 -0.370514 1.54314 0
M  V30 3927 H 365.773 -2.9535 2.39892 0
M  V30 3928 H 365.285 -1.54573 3.5599 0
M  V30 3929 H 363.386 -3.26602 1.79338 0
M  V30 3930 H 363.499 -3.08147 3.66854 0
M  V30 3931 H 361.863 -1.71109 1.88663 0
M  V30 3932 H 362.646 -0.858125 3.32402 0
M  V30 3933 N 365.091 -1.34144 -0.827227 0
M  V30 3934 C 366.001 -1.27428 -1.96975 0
M  V30 3935 C 367.017 -0.182728 -1.73038 0
M  V30 3936 O 368.193 -0.408426 -1.97215 0
M  V30 3937 C 365.258 -1.02526 -3.31194 0
M  V30 3938 C 364.319 -2.20796 -3.68168 0
M  V30 3939 C 363.552 -1.97073 -4.95982 0
M  V30 3940 O 363.775 -0.926822 -5.6282 0
M  V30 3941 O 362.709 -2.83912 -5.30733 0
M  V30 3942 H 366.535 -2.23537 -2.05584 0
M  V30 3943 H 364.12 -1.14307 -0.961989 0
M  V30 3944 H 366.002 -0.904026 -4.11589 0
M  V30 3945 H 364.677 -0.0945389 -3.23562 0
M  V30 3946 H 363.584 -2.38477 -2.88235 0
M  V30 3947 H 364.917 -3.12243 -3.8048 0
M  V30 3948 N 366.569 1.04691 -1.17803 0
M  V30 3949 C 367.502 2.12068 -0.842765 0
M  V30 3950 C 368.48 1.61455 0.192608 0
M  V30 3951 O 369.664 1.88359 0.072995 0
M  V30 3952 C 366.791 3.37715 -0.258063 0
M  V30 3953 C 365.837 4.07164 -1.26962 0
M  V30 3954 S 366.67 4.55047 -2.82299 0
M  V30 3955 C 367.826 5.83935 -2.25323 0
M  V30 3956 H 368.059 2.4018 -1.75217 0
M  V30 3957 H 365.592 1.17366 -1.00323 0
M  V30 3958 H 367.55 4.10435 0.0727935 0
M  V30 3959 H 366.211 3.0773 0.629357 0
M  V30 3960 H 365.404 4.9746 -0.809263 0
M  V30 3961 H 365.006 3.40533 -1.54639 0
M  V30 3962 H 367.298 6.57552 -1.63192 0
M  V30 3963 H 368.241 6.34725 -3.13894 0
M  V30 3964 H 368.649 5.3874 -1.68582 0
M  V30 3965 N 368.047 0.979072 1.23499 0
M  V30 3966 C 369.272 0.664845 1.96455 0
M  V30 3967 C 369.697 -0.761287 1.72006 0
M  V30 3968 O 369.055 -1.51837 0.990713 0
M  V30 3969 C 369.103 0.959479 3.47601 0
M  V30 3970 O 368.207 0.0508168 4.12369 0
M  V30 3971 H 367.548 0.250185 0.615064 0
M  V30 3972 H 370.078 1.31231 1.5697 0
M  V30 3973 H 370.088 0.895642 3.98048 0
M  V30 3974 H 368.763 1.99876 3.64723 0
M  V30 3975 H 367.34 0.16895 3.72517 0
M  V30 3976 N 369.525 -1.3858 0.750561 0
M  V30 3977 C 370.435 -2.34278 0.122825 0
M  V30 3978 C 371.451 -1.59116 -0.704131 0
M  V30 3979 O 372.627 -1.91326 -0.628987 0
M  V30 3980 C 369.692 -3.38221 -0.762086 0
M  V30 3981 C 368.753 -4.29227 0.078896 0
M  V30 3982 C 367.986 -5.28205 -0.763874 0
M  V30 3983 O 368.209 -5.34112 -2.00201 0
M  V30 3984 O 367.143 -6.01618 -0.18428 0
M  V30 3985 H 370.969 -2.89649 0.913088 0
M  V30 3986 H 368.554 -1.40374 0.511417 0
M  V30 3987 H 370.436 -4.01872 -1.26793 0
M  V30 3988 H 369.111 -2.85211 -1.5309 0
M  V30 3989 H 368.018 -3.68747 0.630621 0
M  V30 3990 H 369.351 -4.85484 0.810289 0
M  V30 3991 N 371.003 -0.499398 -1.49478 0
M  V30 3992 C 371.95 0.279881 -2.29097 0
M  V30 3993 C 372.92 0.961805 -1.3542 0
M  V30 3994 O 374.105 0.968777 -1.64376 0
M  V30 3995 C 371.245 1.33932 -3.18051 0
M  V30 3996 C 370.358 0.669333 -4.26783 0
M  V30 3997 C 369.493 1.70907 -5.02955 0
M  V30 3998 C 368.532 1.02087 -6.03527 0
M  V30 3999 N 367.669 2.00474 -6.7287 0
M  V30 4000 H 372.509 -0.405317 -2.95231 0
M  V30 4001 H 370.046 -0.211726 -1.45568 0
M  V30 4002 H 372.004 1.96553 -3.67998 0
M  V30 4003 H 370.634 1.9933 -2.53904 0
M  V30 4004 H 369.686 -0.0701234 -3.80335 0
M  V30 4005 H 370.998 0.127503 -4.98637 0
M  V30 4006 H 370.152 2.41037 -5.56764 0
M  V30 4007 H 368.891 2.28476 -4.30871 0
M  V30 4008 H 367.896 0.305338 -5.48951 0
M  V30 4009 H 369.121 0.451708 -6.77596 0
M  V30 4010 H 367.067 2.57007 -6.03559 0
M  V30 4011 H 366.984 1.51353 -7.40694 0
M  V30 4012 H 368.252 2.69897 -7.31284 0
M  V30 4013 N 372.481 1.55866 -0.233164 0
M  V30 4014 C 373.721 2.00506 0.397078 0
M  V30 4015 C 374.085 1.1176 1.56121 0
M  V30 4016 O 375.286 1.45796 2.25825 0
M  V30 4017 C 373.557 3.4811 0.809601 0
M  V30 4018 S 375.116 4.14765 1.43231 0
M  V30 4019 H 371.934 0.699828 0.125547 0
M  V30 4020 H 374.536 1.92429 -0.345177 0
M  V30 4021 H 373.24 4.10373 -0.0471601 0
M  V30 4022 H 372.771 3.60085 1.58438 0
M  V30 4023 H 374.786 4.14914 2.7214 0
M  V30 4024 N 373.959 -0.0401083 1.57549 0
M  V30 4025 C 374.869 -1.06133 2.0922 0
M  V30 4026 C 375.885 -1.40356 1.0284 0
M  V30 4027 O 377.061 -1.49897 1.34509 0
M  V30 4028 C 374.126 -2.34658 2.55218 0
M  V30 4029 C 373.187 -2.07117 3.76033 0
M  V30 4030 C 372.42 -3.29514 4.19829 0
M  V30 4031 O 372.643 -4.39794 3.63232 0
M  V30 4032 O 371.577 -3.15863 5.12362 0
M  V30 4033 H 375.403 -0.652244 2.96613 0
M  V30 4034 H 372.988 -0.256368 1.47184 0
M  V30 4035 H 374.87 -3.10239 2.85184 0
M  V30 4036 H 373.545 -2.74883 1.70941 0
M  V30 4037 H 372.452 -1.29139 3.51104 0
M  V30 4038 H 373.785 -1.71754 4.61261 0
M  V30 4039 N 375.437 -1.54477 -0.31217 0
M  V30 4040 C 376.683 -1.73483 -1.0503 0
M  V30 4041 C 377.016 -0.513125 -1.87298 0
M  V30 4042 O 376.291 0.489864 -1.8823 0
M  V30 4043 C 376.574 -3.01723 -1.96558 0
M  V30 4044 C 376.427 -4.3417 -1.17545 0
M  V30 4045 C 377.746 -3.25772 -2.95907 0
M  V30 4046 H 374.865 -0.631222 -0.380432 0
M  V30 4047 H 377.507 -1.87184 -0.325932 0
M  V30 4048 H 375.657 -2.90174 -2.58324 0
M  V30 4049 H 377.329 -4.5762 -0.581513 0
M  V30 4050 H 375.572 -4.31159 -0.477925 0
M  V30 4051 H 376.243 -5.20143 -1.84811 0
M  V30 4052 H 378.719 -3.36857 -2.44267 0
M  V30 4053 H 377.595 -4.16838 -3.57123 0
M  V30 4054 H 377.856 -2.43537 -3.68974 0
M  V30 4055 N 376.915 0.57481 -1.46744 0
M  V30 4056 C 377.845 1.69337 -1.60771 0
M  V30 4057 C 378.826 1.63825 -0.457736 0
M  V30 4058 O 380.011 1.8172 -0.684947 0
M  V30 4059 C 377.141 3.0798 -1.60517 0
M  V30 4060 C 376.095 3.28327 -2.74564 0
M  V30 4061 C 375.421 4.67578 -2.59373 0
M  V30 4062 C 376.721 3.15398 -4.16319 0
M  V30 4063 H 378.415 1.57853 -2.54407 0
M  V30 4064 H 375.961 0.75799 -1.22436 0
M  V30 4065 H 377.914 3.86061 -1.68923 0
M  V30 4066 H 376.638 3.20381 -0.634305 0
M  V30 4067 H 375.297 2.52649 -2.65639 0
M  V30 4068 H 374.945 4.76755 -1.60353 0
M  V30 4069 H 374.645 4.82144 -3.35873 0
M  V30 4070 H 376.169 5.47817 -2.69682 0
M  V30 4071 H 377.583 3.83315 -4.26313 0
M  V30 4072 H 375.98 3.41482 -4.93468 0
M  V30 4073 H 377.05 2.12372 -4.3592 0
M  V30 4074 N 378.394 1.34581 0.820102 0
M  V30 4075 C 379.326 1.22236 1.93884 0
M  V30 4076 C 380.339 0.148776 1.62119 0
M  V30 4077 O 381.528 0.400877 1.7394 0
M  V30 4078 C 378.628 0.856542 3.27897 0
M  V30 4079 C 377.801 2.02569 3.87666 0
M  V30 4080 C 376.86 1.63782 5.00062 0
M  V30 4081 O 375.886 2.35477 5.18208 0
M  V30 4082 N 377.088 0.553611 5.77854 0
M  V30 4083 H 379.853 2.18615 2.05006 0
M  V30 4084 H 377.414 1.27573 0.99683 0
M  V30 4085 H 379.406 0.578806 4.0054 0
M  V30 4086 H 377.976 -0.0171518 3.12595 0
M  V30 4087 H 377.196 2.468 3.07382 0
M  V30 4088 H 378.484 2.80752 4.24329 0
M  V30 4089 H 377.882 -0.0423528 5.65684 0
M  V30 4090 H 376.439 0.335614 6.50935 0
M  V30 4091 N 379.872 -1.04064 1.18357 0
M  V30 4092 C 381.102 -1.80654 1.00238 0
M  V30 4093 C 381.51 -1.83713 -0.452362 0
M  V30 4094 O 380.853 -1.27135 -1.32599 0
M  V30 4095 C 380.915 -3.27582 1.48088 0
M  V30 4096 C 380.579 -3.48184 2.96002 0
M  V30 4097 C 381.576 -3.39372 3.93856 0
M  V30 4098 C 379.261 -3.7478 3.34433 0
M  V30 4099 C 381.255 -3.5686 5.28138 0
M  V30 4100 C 378.942 -3.91915 4.68877 0
M  V30 4101 C 379.94 -3.82956 5.65539 0
M  V30 4102 O 379.628 -3.996 6.97549 0
M  V30 4103 H 379.36 -0.575751 0.354241 0
M  V30 4104 H 381.914 -1.32044 1.57333 0
M  V30 4105 H 380.144 -3.77161 0.853588 0
M  V30 4106 H 381.833 -3.8573 1.2636 0
M  V30 4107 H 382.599 -3.18789 3.65511 0
M  V30 4108 H 378.478 -3.80852 2.59756 0
M  V30 4109 H 382.022 -3.49783 6.03571 0
M  V30 4110 H 377.919 -4.11992 4.96923 0
M  V30 4111 H 378.687 -4.1676 7.04452 0
M  V30 4112 N 381.35 -0.985608 -1.22978 0
M  V30 4113 C 382.575 -0.675254 -1.961 0
M  V30 4114 C 383 0.752154 -1.72407 0
M  V30 4115 O 382.358 1.5131 -0.998751 0
M  V30 4116 C 382.406 -0.977899 -3.47087 0
M  V30 4117 O 381.51 -0.072685 -4.12336 0
M  V30 4118 H 380.851 -0.253443 -0.613728 0
M  V30 4119 H 383.381 -1.32061 -1.56272 0
M  V30 4120 H 383.391 -0.916739 -3.97567 0
M  V30 4121 H 382.066 -2.01807 -3.63657 0
M  V30 4122 H 380.643 -0.188703 -3.72422 0
M  V30 4123 N 382.828 1.3818 -0.7579 0
M  V30 4124 C 383.791 2.28764 -0.141286 0
M  V30 4125 C 384.791 1.47388 0.642907 0
M  V30 4126 O 385.981 1.67781 0.468536 0
M  V30 4127 C 383.113 3.31184 0.808069 0
M  V30 4128 H 384.306 2.848 -0.939633 0
M  V30 4129 H 381.859 1.47212 -0.525191 0
M  V30 4130 H 382.594 2.80247 1.63193 0
M  V30 4131 H 382.379 3.91314 0.248104 0
M  V30 4132 H 383.869 3.98909 1.23536 0
M  V30 4133 N 384.306 0.507319 1.49211 0
M  V30 4134 C 385.722 0.163682 1.58758 0
M  V30 4135 C 385.922 -1.33208 1.51188 0
M  V30 4136 O 384.978 -2.10855 1.38911 0
M  V30 4137 C 386.291 0.746095 2.91297 0
M  V30 4138 C 387.839 0.712773 3.04776 0
M  V30 4139 C 388.314 1.27336 4.39943 0
M  V30 4140 N 389.805 1.23433 4.46451 0
M  V30 4141 C 390.54 1.63821 5.495 0
M  V30 4142 N 390.036 2.11832 6.5962 0
M  V30 4143 N 391.829 1.55198 5.4025 0
M  V30 4144 H 383.98 1.47972 1.52375 0
M  V30 4145 H 386.243 0.614147 0.722168 0
M  V30 4146 H 385.949 1.79534 3.02424 0
M  V30 4147 H 385.823 0.210137 3.76614 0
M  V30 4148 H 388.21 -0.327656 2.93275 0
M  V30 4149 H 388.291 1.28595 2.21127 0
M  V30 4150 H 387.935 2.3126 4.52196 0
M  V30 4151 H 387.865 0.676066 5.22242 0
M  V30 4152 H 390.356 0.882627 3.67448 0
M  V30 4153 H 390.669 2.40703 7.34358 0
M  V30 4154 H 389.014 2.1581 6.60644 0
M  V30 4155 H 392.205 1.17505 4.53112 0
M  V30 4156 H 392.378 1.86997 6.20432 0
M  V30 4157 N 385.784 -1.5574 0.241426 0
M  V30 4158 C 386.694 -2.2479 -0.671305 0
M  V30 4159 C 387.71 -1.26217 -1.19772 0
M  V30 4160 O 388.886 -1.59079 -1.23514 0
M  V30 4161 C 385.951 -2.92966 -1.85396 0
M  V30 4162 C 385.012 -4.06935 -1.36756 0
M  V30 4163 C 384.245 -4.71851 -2.49384 0
M  V30 4164 O 384.468 -4.35823 -3.67987 0
M  V30 4165 O 383.402 -5.60467 -2.19454 0
M  V30 4166 H 387.228 -3.0349 -0.112966 0
M  V30 4167 H 384.813 -1.49397 0.0101513 0
M  V30 4168 H 386.695 -3.35927 -2.54423 0
M  V30 4169 H 385.37 -2.17211 -2.40002 0
M  V30 4170 H 384.277 -3.68503 -0.644726 0
M  V30 4171 H 385.61 -4.84492 -0.867647 0
M  V30 4172 N 387.262 0.0317525 -1.57568 0
M  V30 4173 C 388.225 1.01783 -2.0536 0
M  V30 4174 C 389.225 1.29203 -0.957253 0
M  V30 4175 O 390.415 1.24251 -1.22095 0
M  V30 4176 C 387.547 2.35137 -2.46827 0
M  V30 4177 H 388.74 0.605062 -2.93733 0
M  V30 4178 H 386.293 0.278514 -1.53799 0
M  V30 4179 H 387.028 2.81168 -1.61602 0
M  V30 4180 H 386.813 2.16566 -3.26866 0
M  V30 4181 H 388.303 3.05938 -2.84239 0
M  V30 4182 N 388.74 1.54641 0.303973 0
M  V30 4183 C 389.672 1.81754 1.39636 0
M  V30 4184 C 390.685 0.70035 1.46966 0
M  V30 4185 O 391.874 0.97778 1.49338 0
M  V30 4186 C 388.974 1.93785 2.7803 0
M  V30 4187 C 388.147 3.24156 2.93669 0
M  V30 4188 C 387.206 3.26641 4.12544 0
M  V30 4189 O 386.232 4.00187 4.04771 0
M  V30 4190 N 387.434 2.5182 5.23036 0
M  V30 4191 H 390.199 2.76031 1.16734 0
M  V30 4192 H 387.76 1.54178 0.494033 0
M  V30 4193 H 389.752 1.92852 3.55795 0
M  V30 4194 H 388.322 1.06515 2.93893 0
M  V30 4195 H 387.542 3.37887 2.03042 0
M  V30 4196 H 388.83 4.10195 3.01027 0
M  V30 4197 H 388.228 1.91692 5.32232 0
M  V30 4198 H 386.785 2.56644 5.99147 0
M  V30 4199 N 390.218 -0.567019 1.47046 0
M  V30 4200 C 391.495 -1.3276 1.43646 0
M  V30 4201 C 391.875 -2.1071 0.128186 0
M  V30 4202 O 391.223 -2.10441 -0.890326 0
M  V30 4203 C 391.433 -2.2404 2.67595 0
M  V30 4204 C 392.781 -2.85372 3.14401 0
M  V30 4205 O 393.805 -2.34346 2.68254 0
M  V30 4206 O 392.664 -3.78091 3.946 0
M  V30 4207 H 389.758 -0.597293 0.571988 0
M  V30 4208 H 392.304 -0.586735 1.59234 0
M  V30 4209 H 391.076 -1.65975 3.54356 0
M  V30 4210 H 390.699 -3.05439 2.54544 0
M  V30 4211 N 391.696 -1.35014 -0.812953 0
M  V30 4212 C 392.921 -1.31187 -1.60639 0
M  V30 4213 C 393.346 0.109382 -1.87782 0
M  V30 4214 O 392.704 1.07424 -1.46047 0
M  V30 4215 C 392.752 -2.11809 -2.91838 0
M  V30 4216 O 391.856 -1.49444 -3.8437 0
M  V30 4217 H 391.197 -0.450084 -0.488181 0
M  V30 4218 H 393.727 -1.77963 -1.00947 0
M  V30 4219 H 393.737 -2.23531 -3.41318 0
M  V30 4220 H 392.412 -3.15137 -2.71407 0
M  V30 4221 H 390.989 -1.46524 -3.42907 0
M  V30 4222 N 393.175 1.03435 -1.18907 0
M  V30 4223 C 394.122 2.11591 -0.921837 0
M  V30 4224 C 395.092 1.65499 0.141226 0
M  V30 4225 O 396.277 1.908 0.000242829 0
M  V30 4226 C 393.417 3.42012 -0.460616 0
M  V30 4227 C 392.53 4.01682 -1.58982 0
M  V30 4228 C 391.665 5.20091 -1.08069 0
M  V30 4229 C 390.704 5.71805 -2.18416 0
M  V30 4230 N 389.841 6.81494 -1.68849 0
M  V30 4231 H 394.681 2.33787 -1.8479 0
M  V30 4232 H 392.218 1.1467 -0.921373 0
M  V30 4233 H 394.176 4.16834 -0.174642 0
M  V30 4234 H 392.806 3.19944 0.428467 0
M  V30 4235 H 391.858 3.24127 -1.99113 0
M  V30 4236 H 393.17 4.36084 -2.4214 0
M  V30 4237 H 392.324 6.02051 -0.749615 0
M  V30 4238 H 391.063 4.87209 -0.218771 0
M  V30 4239 H 390.068 4.88461 -2.5236 0
M  V30 4240 H 391.293 6.06728 -3.05054 0
M  V30 4241 H 389.239 6.50475 -0.849572 0
M  V30 4242 H 389.156 7.14994 -2.45601 0
M  V30 4243 H 390.424 7.67063 -1.38689 0
M  V30 4244 N 394.653 0.992116 1.22453 0
M  V30 4245 C 395.6 0.541731 2.24352 0
M  V30 4246 C 396.57 -0.425519 1.60557 0
M  V30 4247 O 397.755 -0.330453 1.87917 0
M  V30 4248 C 394.895 -0.138248 3.44823 0
M  V30 4249 C 394.008 0.870649 4.23136 0
M  V30 4250 C 393.143 0.164269 5.30946 0
M  V30 4251 C 392.182 1.16159 6.00977 0
M  V30 4252 N 391.319 0.483568 7.00433 0
M  V30 4253 H 396.159 1.41541 2.62241 0
M  V30 4254 H 393.696 0.709013 1.28885 0
M  V30 4255 H 395.654 -0.5494 4.13567 0
M  V30 4256 H 394.284 -0.975721 3.077 0
M  V30 4257 H 393.336 1.40013 3.53696 0
M  V30 4258 H 394.648 1.63014 4.7141 0
M  V30 4259 H 393.802 -0.303653 6.0594 0
M  V30 4260 H 392.541 -0.627733 4.83643 0
M  V30 4261 H 391.546 1.64015 5.24766 0
M  V30 4262 H 392.771 1.95445 6.50368 0
M  V30 4263 H 390.717 -0.289012 6.55363 0
M  V30 4264 H 390.634 1.18152 7.4671 0
M  V30 4265 H 391.902 0.0384219 7.79491 0
M  V30 4266 N 396.131 -1.37776 0.765217 0
M  V30 4267 C 397.377 -2.00145 0.327072 0
M  V30 4268 C 397.71 -1.60607 -1.09175 0
M  V30 4269 O 396.985 -0.849127 -1.74986 0
M  V30 4270 C 397.268 -3.57109 0.46319 0
M  V30 4271 C 397.121 -4.06576 1.92395 0
M  V30 4272 C 398.44 -4.39888 -0.136473 0
M  V30 4273 H 395.559 -0.727113 0.120316 0
M  V30 4274 H 398.201 -1.63549 0.967039 0
M  V30 4275 H 396.351 -3.88414 -0.0816358 0
M  V30 4276 H 398.023 -3.85864 2.52798 0
M  V30 4277 H 396.266 -3.59011 2.43503 0
M  V30 4278 H 396.937 -5.15639 1.97028 0
M  V30 4279 H 399.413 -4.14803 0.328317 0
M  V30 4280 H 398.289 -5.48899 -0.0110582 0
M  V30 4281 H 398.55 -4.24758 -1.22608 0
M  V30 4282 N 397.609 -0.515225 -1.4894 0
M  V30 4283 C 398.855 0.0242508 -2.02785 0
M  V30 4284 C 399.188 1.35323 -1.39289 0
M  V30 4285 O 398.463 1.87041 -0.533469 0
M  V30 4286 C 398.746 0.16184 -3.59736 0
M  V30 4287 C 398.599 -1.19127 -4.33738 0
M  V30 4288 C 399.918 0.895719 -4.30888 0
M  V30 4289 H 397.037 0.00733914 -0.736963 0
M  V30 4290 H 399.679 -0.669395 -1.77818 0
M  V30 4291 H 397.829 0.752624 -3.8114 0
M  V30 4292 H 399.501 -1.82202 -4.23792 0
M  V30 4293 H 397.744 -1.77695 -3.95736 0
M  V30 4294 H 398.415 -1.04815 -5.41957 0
M  V30 4295 H 400.891 0.394528 -4.14225 0
M  V30 4296 H 399.767 0.960859 -5.40425 0
M  V30 4297 H 400.028 1.9427 -3.97129 0
M  V30 4298 N 399.087 1.5561 -0.249682 0
M  V30 4299 C 399.997 2.25143 0.659375 0
M  V30 4300 C 401.013 1.2685 1.19101 0
M  V30 4301 O 402.189 1.59732 1.22669 0
M  V30 4302 C 399.254 2.93945 1.8384 0
M  V30 4303 C 398.315 4.07655 1.34596 0
M  V30 4304 C 397.548 4.73167 2.46878 0
M  V30 4305 O 397.771 4.37768 3.65671 0
M  V30 4306 O 396.705 5.61623 2.16478 0
M  V30 4307 H 400.531 3.03545 0.0968698 0
M  V30 4308 H 398.116 1.49389 -0.018074 0
M  V30 4309 H 399.998 3.37271 2.52638 0
M  V30 4310 H 398.673 2.18481 2.38847 0
M  V30 4311 H 397.58 3.68839 0.625174 0
M  V30 4312 H 398.913 4.84946 0.841941 0
M  V30 4313 N 400.565 -0.0233959 1.57583 0
M  V30 4314 C 401.842 -0.748794 1.807 0
M  V30 4315 C 402.222 -1.9327 0.849106 0
M  V30 4316 O 401.57 -2.28247 -0.107468 0
M  V30 4317 C 401.78 -1.17651 3.28571 0
M  V30 4318 C 403.128 -1.59008 3.93702 0
M  V30 4319 O 404.152 -1.27094 3.32755 0
M  V30 4320 O 403.011 -2.18264 5.01022 0
M  V30 4321 H 400.105 -0.362578 0.743281 0
M  V30 4322 H 402.651 0.000261958 1.697 0
M  V30 4323 H 401.423 -0.331603 3.89892 0
M  V30 4324 H 401.046 -1.98541 3.44481 0
M  V30 4325 N 402.043 -1.548 -0.295768 0
M  V30 4326 C 403.292 -1.73538 -1.02798 0
M  V30 4327 C 403.605 -0.531159 -1.8825 0
M  V30 4328 O 404.811 -0.600458 -2.64777 0
M  V30 4329 C 403.267 -3.07051 -1.87744 0
M  V30 4330 C 402.875 -4.34968 -1.07269 0
M  V30 4331 C 404.619 -3.35146 -2.60533 0
M  V30 4332 C 402.526 -5.5953 -1.91521 0
M  V30 4333 H 401.456 -0.646794 -0.387522 0
M  V30 4334 H 404.107 -1.81278 -0.284718 0
M  V30 4335 H 402.489 -2.93289 -2.66078 0
M  V30 4336 H 403.663 -4.5958 -0.335117 0
M  V30 4337 H 401.978 -4.13847 -0.460384 0
M  V30 4338 H 404.575 -4.2541 -3.23929 0
M  V30 4339 H 404.918 -2.54255 -3.29636 0
M  V30 4340 H 405.451 -3.49902 -1.89244 0
M  V30 4341 H 402.19 -6.43103 -1.26878 0
M  V30 4342 H 401.71 -5.39096 -2.62937 0
M  V30 4343 H 403.389 -5.96982 -2.49442 0
M  V30 4344 N 403.521 0.559213 -1.47345 0
M  V30 4345 C 404.431 1.69388 -1.62311 0
M  V30 4346 C 405.447 1.6648 -0.505993 0
M  V30 4347 O 406.623 1.85964 -0.773262 0
M  V30 4348 C 403.688 3.05894 -1.63185 0
M  V30 4349 C 402.749 3.19885 -2.86307 0
M  V30 4350 C 401.982 4.49879 -2.87131 0
M  V30 4351 O 402.205 5.35217 -1.97229 0
M  V30 4352 O 401.139 4.67618 -3.78968 0
M  V30 4353 H 404.965 1.59706 -2.58317 0
M  V30 4354 H 402.55 0.728989 -1.30407 0
M  V30 4355 H 404.432 3.87133 -1.66451 0
M  V30 4356 H 403.107 3.15964 -0.70345 0
M  V30 4357 H 402.014 2.38052 -2.88587 0
M  V30 4358 H 403.347 3.14718 -3.78435 0
M  V30 4359 N 404.999 1.35443 0.805782 0
M  V30 4360 C 406.229 1.31687 1.59192 0
M  V30 4361 C 406.637 -0.10756 1.88894 0
M  V30 4362 O 405.98 -1.07017 1.49309 0
M  V30 4363 C 406.042 2.05686 2.94845 0
M  V30 4364 C 405.706 3.54868 2.87954 0
M  V30 4365 C 406.703 4.49444 2.61335 0
M  V30 4366 C 404.388 3.97528 3.07046 0
M  V30 4367 C 406.382 5.84655 2.53885 0
M  V30 4368 C 404.069 5.32833 2.99219 0
M  V30 4369 C 405.067 6.26209 2.72674 0
M  V30 4370 O 404.755 7.59032 2.64811 0
M  V30 4371 H 404.487 0.453878 0.50097 0
M  V30 4372 H 407.041 1.78892 1.0093 0
M  V30 4373 H 405.271 1.5312 3.55093 0
M  V30 4374 H 406.96 1.94998 3.55993 0
M  V30 4375 H 407.726 4.17804 2.46303 0
M  V30 4376 H 403.605 3.25233 3.26718 0
M  V30 4377 H 407.149 6.57508 2.33086 0
M  V30 4378 H 403.046 5.64087 3.13809 0
M  V30 4379 H 403.814 7.68967 2.80413 0
M  V30 4380 N 406.477 -1.02803 1.19454 0
M  V30 4381 C 407.407 -2.12999 0.956758 0
M  V30 4382 C 408.388 -1.69743 -0.110188 0
M  V30 4383 O 409.573 -1.94148 0.0450038 0
M  V30 4384 C 406.703 -3.43746 0.495553 0
M  V30 4385 C 405.657 -4.00688 1.50443 0
M  V30 4386 C 404.983 -5.27067 0.900275 0
M  V30 4387 C 406.283 -4.35397 2.8849 0
M  V30 4388 H 407.977 -2.33148 1.87836 0
M  V30 4389 H 405.523 -1.12045 0.904539 0
M  V30 4390 H 407.476 -4.2021 0.316493 0
M  V30 4391 H 406.2 -3.23321 -0.461646 0
M  V30 4392 H 404.859 -3.2632 1.67065 0
M  V30 4393 H 404.507 -5.02959 -0.064503 0
M  V30 4394 H 404.207 -5.66127 1.57397 0
M  V30 4395 H 405.731 -6.06196 0.73203 0
M  V30 4396 H 407.145 -5.02795 2.75446 0
M  V30 4397 H 405.542 -4.85541 3.52661 0
M  V30 4398 H 406.612 -3.44662 3.41081 0
M  V30 4399 N 407.956 -0.998596 -1.21925 0
M  V30 4400 C 408.903 -0.553621 -2.24062 0
M  V30 4401 C 409.873 0.416999 -1.6078 0
M  V30 4402 O 411.058 0.320482 -1.88089 0
M  V30 4403 C 408.198 0.119959 -3.44891 0
M  V30 4404 C 407.311 -0.893077 -4.22668 0
M  V30 4405 C 406.446 -0.192424 -5.30851 0
M  V30 4406 C 405.485 -1.19344 -6.00353 0
M  V30 4407 N 404.622 -0.520707 -7.00166 0
M  V30 4408 H 409.462 -1.4293 -2.61486 0
M  V30 4409 H 406.999 -0.715838 -1.28507 0
M  V30 4410 H 408.957 0.527459 -4.13852 0
M  V30 4411 H 407.587 0.959389 -3.08214 0
M  V30 4412 H 406.639 -1.41886 -3.52948 0
M  V30 4413 H 407.951 -1.65512 -4.70539 0
M  V30 4414 H 407.105 0.271515 -6.06092 0
M  V30 4415 H 405.844 0.602075 -4.83969 0
M  V30 4416 H 404.849 -1.66795 -5.23889 0
M  V30 4417 H 406.074 -1.98891 -6.49322 0
M  V30 4418 H 404.02 0.254252 -6.55507 0
M  V30 4419 H 403.937 -1.2211 -7.46073 0
M  V30 4420 H 405.205 -0.0797596 -7.79459 0
M  V30 4421 N 409.434 1.37368 -0.772513 0
M  V30 4422 C 410.681 1.99673 -0.337182 0
M  V30 4423 C 411.009 1.61324 1.0865 0
M  V30 4424 O 410.264 0.851377 1.7621 0
M  V30 4425 C 410.563 3.54817 -0.428876 0
M  V30 4426 C 410.229 4.12936 -1.81092 0
M  V30 4427 C 408.891 4.28523 -2.1891 0
M  V30 4428 C 411.243 4.44801 -2.71664 0
M  V30 4429 C 408.571 4.73277 -3.46735 0
M  V30 4430 C 410.923 4.90981 -3.98899 0
M  V30 4431 C 409.587 5.04773 -4.36761 0
M  V30 4432 H 408.857 0.730656 -0.123384 0
M  V30 4433 H 411.504 1.64124 -0.986686 0
M  V30 4434 H 409.809 3.90618 0.304167 0
M  V30 4435 H 411.506 4.00933 -0.0733334 0
M  V30 4436 H 408.096 4.01233 -1.50699 0
M  V30 4437 H 412.28 4.32344 -2.43706 0
M  V30 4438 H 407.536 4.82142 -3.75964 0
M  V30 4439 H 411.71 5.14603 -4.69208 0
M  V30 4440 H 409.337 5.39211 -5.35868 0
M  V30 4441 N 410.912 0.523116 1.48665 0
M  V30 4442 C 412.189 -0.0775449 1.95446 0
M  V30 4443 C 412.569 -1.5197 1.4652 0
M  V30 4444 O 411.917 -2.17876 0.688657 0
M  V30 4445 C 412.127 0.0326135 3.48985 0
M  V30 4446 C 413.475 -0.130141 4.24401 0
M  V30 4447 O 414.499 -0.0415142 3.56176 0
M  V30 4448 O 413.358 -0.31491 5.45592 0
M  V30 4449 H 410.452 -0.0831012 0.822814 0
M  V30 4450 H 412.998 0.587227 1.59216 0
M  V30 4451 H 411.77 1.03748 3.77296 0
M  V30 4452 H 411.393 -0.671317 3.91892 0
M  V30 4453 N 412.39 -1.55475 0.257931 0
M  V30 4454 C 413.337 -2.21837 -0.636939 0
M  V30 4455 C 414.307 -1.18596 -1.16294 0
M  V30 4456 O 415.492 -1.47081 -1.21539 0
M  V30 4457 C 412.632 -2.9301 -1.82317 0
M  V30 4458 C 411.745 -4.10931 -1.33265 0
M  V30 4459 C 410.88 -4.69791 -2.47931 0
M  V30 4460 C 409.919 -5.7994 -1.95796 0
M  V30 4461 N 409.056 -6.32935 -3.0387 0
M  V30 4462 H 413.896 -2.9793 -0.0643591 0
M  V30 4463 H 411.433 -1.47086 -0.0200031 0
M  V30 4464 H 413.391 -3.3248 -2.52018 0
M  V30 4465 H 412.021 -2.1937 -2.36805 0
M  V30 4466 H 411.073 -3.76699 -0.52931 0
M  V30 4467 H 412.385 -4.90417 -0.910654 0
M  V30 4468 H 411.539 -5.11892 -3.25656 0
M  V30 4469 H 410.278 -3.89545 -2.93438 0
M  V30 4470 H 409.283 -5.37305 -1.16546 0
M  V30 4471 H 410.508 -6.62043 -1.51246 0
M  V30 4472 H 408.454 -5.55591 -3.48791 0
M  V30 4473 H 408.371 -7.07645 -2.66035 0
M  V30 4474 H 409.639 -6.79695 -3.81621 0
M  V30 4475 N 413.868 0.0150385 -1.57593 0
M  V30 4476 C 415.116 0.701613 -1.8953 0
M  V30 4477 C 415.437 1.75139 -0.857396 0
M  V30 4478 O 414.707 1.95607 0.107194 0
M  V30 4479 H 413.287 0.26213 -0.699498 0
M  V30 4480 H 415.949 -0.0223304 -1.94887 0
M  V30 4481 H 415.045 1.18236 -2.88837 0
M  V30 4482 N 415.346 1.54954 0.287554 0
M  V30 4483 C 416.757 1.65732 0.859634 0
M  V30 4484 C 417.108 0.574767 1.87592 0
M  V30 4485 O 416.233 -0.286299 2.14498 0
M  V30 4486 C 416.828 3.00438 1.56597 0
M  V30 4487 C 415.387 3.13292 2.08627 0
M  V30 4488 C 414.534 2.61473 0.923416 0
M  V30 4489 H 417.485 1.5857 0.0642338 0
M  V30 4490 H 417.506 2.92613 2.43224 0
M  V30 4491 H 417.018 3.79207 0.826053 0
M  V30 4492 H 415.119 2.39268 2.85625 0
M  V30 4493 H 415.232 4.19647 2.31157 0
M  V30 4494 H 413.596 2.18264 1.31275 0
M  V30 4495 H 414.379 3.42733 0.197241 0
M  V30 4496 N 416.824 -0.551391 1.4764 0
M  V30 4497 C 418.07 -1.30789 1.55774 0
M  V30 4498 C 418.425 -1.91143 0.219562 0
M  V30 4499 O 417.718 -1.7521 -0.775375 0
M  V30 4500 C 417.912 -2.43469 2.61644 0
M  V30 4501 C 417.741 -1.94157 4.05627 0
M  V30 4502 C 416.511 -1.77734 4.7301 0
M  V30 4503 C 418.709 -1.48262 4.92466 0
M  V30 4504 N 416.691 -1.22823 6.01488 0
M  V30 4505 C 418.062 -1.05156 6.11017 0
M  V30 4506 C 420.117 -1.36367 4.78862 0
M  V30 4507 C 418.82 -0.513357 7.17466 0
M  V30 4508 C 420.846 -0.839484 5.85411 0
M  V30 4509 C 420.208 -0.418377 7.03156 0
M  V30 4510 H 416.307 -0.470406 0.624694 0
M  V30 4511 H 418.891 -0.624331 1.84419 0
M  V30 4512 H 417.062 -3.09348 2.34859 0
M  V30 4513 H 418.794 -3.10477 2.59589 0
M  V30 4514 H 415.549 -2.00623 4.29007 0
M  V30 4515 H 415.973 -0.974393 6.69951 0
M  V30 4516 H 420.615 -1.67535 3.88191 0
M  V30 4517 H 418.333 -0.189318 8.07878 0
M  V30 4518 H 421.919 -0.750921 5.76934 0
M  V30 4519 H 420.799 -0.0190538 7.84198 0
M  V30 4520 N 418.302 -1.35869 -0.798587 0
M  V30 4521 C 419.232 -1.32118 -1.92528 0
M  V30 4522 C 420.213 -0.194209 -1.68988 0
M  V30 4523 O 421.398 -0.390426 -1.90235 0
M  V30 4524 C 418.528 -1.10047 -3.29404 0
M  V30 4525 C 417.482 -2.19471 -3.67446 0
M  V30 4526 C 416.808 -1.82555 -5.02571 0
M  V30 4527 C 418.108 -3.61495 -3.76987 0
M  V30 4528 H 419.802 -2.26394 -1.95924 0
M  V30 4529 H 417.348 -1.08981 -0.94123 0
M  V30 4530 H 419.301 -1.06061 -4.07835 0
M  V30 4531 H 418.025 -0.122195 -3.26371 0
M  V30 4532 H 416.684 -2.22568 -2.91306 0
M  V30 4533 H 416.332 -0.833249 -4.9605 0
M  V30 4534 H 416.032 -2.5581 -5.28995 0
M  V30 4535 H 417.556 -1.80108 -5.83432 0
M  V30 4536 H 418.97 -3.60676 -4.4563 0
M  V30 4537 H 417.367 -4.33577 -4.14887 0
M  V30 4538 H 418.437 -3.97065 -2.78329 0
M  V30 4539 N 419.78 1.02168 -1.19998 0
M  V30 4540 C 420.727 2.10601 -0.944228 0
M  V30 4541 C 421.697 1.65639 0.123664 0
M  V30 4542 O 422.882 1.9079 -0.0199941 0
M  V30 4543 C 420.022 3.41504 -0.496865 0
M  V30 4544 C 419.135 3.99973 -1.63234 0
M  V30 4545 C 418.27 5.18915 -1.13579 0
M  V30 4546 C 417.309 5.69456 -2.24468 0
M  V30 4547 N 416.446 6.79665 -1.76068 0
M  V30 4548 H 421.286 2.31814 -1.8726 0
M  V30 4549 H 418.823 1.13686 -0.933483 0
M  V30 4550 H 420.781 4.16626 -0.218843 0
M  V30 4551 H 419.411 3.2038 0.394508 0
M  V30 4552 H 418.463 3.21997 -2.0254 0
M  V30 4553 H 419.775 4.33492 -2.46752 0
M  V30 4554 H 418.929 6.01222 -0.813429 0
M  V30 4555 H 417.668 4.8695 -0.270434 0
M  V30 4556 H 416.673 4.85757 -2.57526 0
M  V30 4557 H 417.898 6.03459 -3.11472 0
M  V30 4558 H 415.844 6.49538 -0.918516 0
M  V30 4559 H 415.761 7.12349 -2.5317 0
M  V30 4560 H 417.029 7.65549 -1.46817 0
M  V30 4561 N 421.258 1.00505 1.21394 0
M  V30 4562 C 422.19 0.52372 2.23136 0
M  V30 4563 C 423.203 -0.387714 1.58116 0
M  V30 4564 O 424.392 -0.187905 1.77508 0
M  V30 4565 C 421.492 -0.258885 3.3791 0
M  V30 4566 C 420.665 0.651634 4.32519 0
M  V30 4567 C 419.724 -0.0813705 5.26137 0
M  V30 4568 O 418.75 0.537295 5.66658 0
M  V30 4569 N 419.952 -1.35992 5.64346 0
M  V30 4570 H 422.717 1.39865 2.65062 0
M  V30 4571 H 420.278 0.881196 1.35818 0
M  V30 4572 H 422.27 -0.758208 3.97534 0
M  V30 4573 H 420.84 -1.035 2.94968 0
M  V30 4574 H 420.06 1.33145 3.71034 0
M  V30 4575 H 421.348 1.27129 4.92662 0
M  V30 4576 H 420.746 -1.88368 5.33417 0
M  V30 4577 H 419.303 -1.8042 6.26332 0
M  V30 4578 N 422.737 -1.36956 0.779787 0
M  V30 4579 C 424.014 -1.93697 0.272156 0
M  V30 4580 C 424.394 -1.71267 -1.23413 0
M  V30 4581 O 423.742 -1.06607 -2.02107 0
M  V30 4582 C 423.952 -3.42812 0.654291 0
M  V30 4583 C 425.3 -4.19921 0.628602 0
M  V30 4584 O 426.324 -3.51209 0.594172 0
M  V30 4585 O 425.183 -5.42465 0.662864 0
M  V30 4586 H 422.277 -0.824447 0.0649286 0
M  V30 4587 H 424.823 -1.46196 0.861682 0
M  V30 4588 H 423.595 -3.52754 1.69353 0
M  V30 4589 H 423.218 -3.97582 0.0381369 0
M  V30 4590 N 424.215 -0.530993 -1.48385 0
M  V30 4591 C 425.163 0.244595 -2.3131 0
M  V30 4592 C 426.157 0.93451 -1.41291 0
M  V30 4593 O 427.363 0.85878 -1.58193 0
M  V30 4594 H 423.738 0.0977472 -0.74562 0
M  V30 4595 H 425.709 -0.474369 -2.94605 0
M  V30 4596 C 424.458 1.2779 -3.23365 0
M  V30 4597 H 423.781 0.756439 -3.92579 0
M  V30 4598 H 425.221 1.79198 -3.84271 0
M  V30 4599 C 423.68 2.31205 -2.45042 0
M  V30 4600 O 424.21 3.37661 -2.17596 0
M  V30 4601 N 422.416 2.04446 -2.0652 0
M  V30 4602 H 421.963 1.17891 -2.2904 0
M  V30 4603 H 421.921 2.73861 -1.54427 0
M  V30 4604 N 425.693 1.55336 -0.266172 0
M  V30 4605 C 427.109 1.59356 0.0882065 0
M  V30 4606 C 427.309 1.2834 1.55342 0
M  V30 4607 O 426.365 1.03996 2.30089 0
M  V30 4608 C 427.678 2.99409 -0.278364 0
M  V30 4609 C 429.226 3.12196 -0.224243 0
M  V30 4610 C 429.701 4.545 -0.565123 0
M  V30 4611 N 431.192 4.60313 -0.51634 0
M  V30 4612 C 431.927 5.68434 -0.753013 0
M  V30 4613 N 431.423 6.84738 -1.05383 0
M  V30 4614 N 433.216 5.57942 -0.682414 0
M  V30 4615 H 425.367 1.73764 -1.22147 0
M  V30 4616 H 427.63 0.809822 -0.492841 0
M  V30 4617 H 427.336 3.2691 -1.29703 0
M  V30 4618 H 427.21 3.75228 0.385186 0
M  V30 4619 H 429.597 2.84464 0.78512 0
M  V30 4620 H 429.678 2.38609 -0.921922 0
M  V30 4621 H 429.322 4.82956 -1.57213 0
M  V30 4622 H 429.252 5.26374 0.154248 0
M  V30 4623 H 431.743 3.7676 -0.29335 0
M  V30 4624 H 432.056 7.63088 -1.22133 0
M  V30 4625 H 430.401 6.86375 -1.09151 0
M  V30 4626 H 433.592 4.65958 -0.44731 0
M  V30 4627 H 433.765 6.4213 -0.870248 0
M  V30 4628 N 427.171 -0.0066808 1.57599 0
M  V30 4629 C 428.399 -0.704087 1.94551 0
M  V30 4630 C 428.814 -1.67677 0.867746 0
M  V30 4631 O 428.171 -1.8185 -0.153925 0
M  V30 4632 C 428.222 -1.44177 3.31505 0
M  V30 4633 O 427.943 -0.508097 4.35144 0
M  V30 4634 C 429.444 -2.23429 3.82876 0
M  V30 4635 H 426.664 -0.196523 0.641576 0
M  V30 4636 H 429.208 0.042453 2.04456 0
M  V30 4637 H 427.363 -2.13999 3.22929 0
M  V30 4638 H 427.777 -1.02782 5.14331 0
M  V30 4639 H 429.251 -2.70552 4.8115 0
M  V30 4640 H 429.728 -3.05818 3.15233 0
M  V30 4641 H 430.334 -1.58636 3.94607 0
M  V30 4642 N 428.649 -1.55105 -0.279332 0
M  V30 4643 C 429.579 -1.90557 -1.34945 0
M  V30 4644 C 430.56 -0.766738 -1.51839 0
M  V30 4645 O 431.745 -1.02434 -1.64988 0
M  V30 4646 C 428.875 -2.17193 -2.71006 0
M  V30 4647 C 427.829 -3.33021 -2.68851 0
M  V30 4648 C 427.155 -3.45123 -4.08405 0
M  V30 4649 C 428.455 -4.69578 -2.28678 0
M  V30 4650 H 430.149 -2.80188 -1.05522 0
M  V30 4651 H 427.695 -1.34811 -0.506173 0
M  V30 4652 H 429.648 -2.40581 -3.45975 0
M  V30 4653 H 428.372 -1.24355 -3.01999 0
M  V30 4654 H 427.031 -3.0959 -1.9634 0
M  V30 4655 H 426.679 -2.49762 -4.3661 0
M  V30 4656 H 426.379 -4.22995 -4.07859 0
M  V30 4657 H 427.903 -3.70796 -4.85121 0
M  V30 4658 H 429.317 -4.92553 -2.93368 0
M  V30 4659 H 427.714 -5.5032 -2.39306 0
M  V30 4660 H 428.784 -4.68828 -1.23807 0
M  V30 4661 N 430.127 0.543554 -1.4793 0
M  V30 4662 C 431.357 1.32324 -1.58663 0
M  V30 4663 C 431.765 1.8766 -0.240896 0
M  V30 4664 O 431.108 1.66411 0.778011 0
M  V30 4665 C 431.17 2.52094 -2.56299 0
M  V30 4666 C 430.834 2.17944 -4.01683 0
M  V30 4667 C 431.831 1.74422 -4.89768 0
M  V30 4668 C 429.516 2.28884 -4.47121 0
M  V30 4669 C 431.51 1.42287 -6.21316 0
M  V30 4670 C 429.197 1.96361 -5.78693 0
M  V30 4671 C 430.195 1.53132 -6.65612 0
M  V30 4672 O 429.883 1.21029 -7.94737 0
M  V30 4673 H 429.615 0.409174 -0.538101 0
M  V30 4674 H 432.169 0.663887 -1.94375 0
M  V30 4675 H 430.399 3.20965 -2.15681 0
M  V30 4676 H 432.088 3.14165 -2.57012 0
M  V30 4677 H 432.854 1.65452 -4.55907 0
M  V30 4678 H 428.733 2.61488 -3.79664 0
M  V30 4679 H 432.277 1.08472 -6.89115 0
M  V30 4680 H 428.174 2.04967 -6.12094 0
M  V30 4681 H 428.942 1.34543 -8.07366 0
M  V30 4682 N 431.605 1.3629 0.791371 0
M  V30 4683 C 432.555 1.26988 1.89362 0
M  V30 4684 C 433.539 0.161795 1.60084 0
M  V30 4685 O 434.731 0.394426 1.72549 0
M  V30 4686 C 431.86 1.05944 3.26544 0
M  V30 4687 C 430.946 2.21211 3.61838 0
M  V30 4688 N 431.337 3.46518 3.68455 0
M  V30 4689 C 429.635 2.12933 3.91887 0
M  V30 4690 C 430.336 4.2241 3.99931 0
M  V30 4691 N 429.312 3.51329 4.14812 0
M  V30 4692 H 433.114 2.21908 1.92702 0
M  V30 4693 H 430.628 1.28982 0.986787 0
M  V30 4694 H 432.625 0.973666 4.05371 0
M  V30 4695 H 431.285 0.119223 3.24481 0
M  V30 4696 H 432.296 3.80677 3.51148 0
M  V30 4697 H 428.973 1.26855 3.97761 0
M  V30 4698 H 430.363 5.30767 4.1199 0
M  V30 4699 N 433.083 -1.0153 1.20538 0
M  V30 4700 C 434.013 -2.11972 0.979295 0
M  V30 4701 C 434.994 -1.6985 -0.0921787 0
M  V30 4702 O 436.179 -1.94089 0.0655932 0
M  V30 4703 C 433.309 -3.43201 0.531984 0
M  V30 4704 C 432.263 -3.9907 1.54685 0
M  V30 4705 C 431.589 -5.26082 0.956127 0
M  V30 4706 C 432.889 -4.32313 2.93092 0
M  V30 4707 H 434.583 -2.31143 1.90298 0
M  V30 4708 H 432.129 -1.11079 0.916372 0
M  V30 4709 H 434.082 -4.1985 0.361044 0
M  V30 4710 H 432.806 -3.23792 -0.427327 0
M  V30 4711 H 431.465 -3.2453 1.70517 0
M  V30 4712 H 431.113 -5.02999 -0.0111538 0
M  V30 4713 H 430.813 -5.64426 1.63393 0
M  V30 4714 H 432.337 -6.05386 0.796284 0
M  V30 4715 H 433.751 -4.99845 2.80763 0
M  V30 4716 H 432.148 -4.81774 3.57791 0
M  V30 4717 H 433.218 -3.41025 3.44717 0
M  V30 4718 N 434.561 -1.01147 -1.20859 0
M  V30 4719 C 435.977 -0.725422 -1.42161 0
M  V30 4720 C 436.177 0.696919 -1.89064 0
M  V30 4721 O 435.233 1.46539 -2.05627 0
M  V30 4722 C 436.546 -1.74678 -2.44761 0
M  V30 4723 C 438.094 -1.76433 -2.58535 0
M  V30 4724 C 438.569 -2.77481 -3.64374 0
M  V30 4725 N 440.06 -2.76189 -3.71852 0
M  V30 4726 C 440.795 -3.51035 -4.53389 0
M  V30 4727 N 440.291 -4.35541 -5.38773 0
M  V30 4728 N 442.084 -3.39655 -4.47873 0
M  V30 4729 H 434.235 -1.92979 -0.887282 0
M  V30 4730 H 436.498 -0.833327 -0.451962 0
M  V30 4731 H 436.204 -2.76551 -2.17285 0
M  V30 4732 H 436.078 -1.55472 -3.43669 0
M  V30 4733 H 438.465 -0.75248 -2.85345 0
M  V30 4734 H 438.546 -1.99712 -1.5984 0
M  V30 4735 H 438.19 -3.78827 -3.38308 0
M  V30 4736 H 438.12 -2.51466 -4.6268 0
M  V30 4737 H 440.611 -2.14885 -3.10858 0
M  V30 4738 H 440.924 -4.89432 -5.98061 0
M  V30 4739 H 439.269 -4.39621 -5.38292 0
M  V30 4740 H 442.46 -2.73063 -3.80203 0
M  V30 4741 H 442.633 -3.9824 -5.11184 0
M  V30 4742 N 436.039 1.36541 -0.78704 0
M  V30 4743 C 436.969 2.32659 -0.197992 0
M  V30 4744 C 437.95 1.56533 0.665697 0
M  V30 4745 O 439.135 1.84698 0.60001 0
M  V30 4746 C 436.265 3.40778 0.669901 0
M  V30 4747 C 435.219 4.27897 -0.0937039 0
M  V30 4748 C 434.545 5.27163 0.894629 0
M  V30 4749 C 435.845 5.06334 -1.28154 0
M  V30 4750 H 437.539 2.82171 -1.00099 0
M  V30 4751 H 435.085 1.35665 -0.482793 0
M  V30 4752 H 437.038 4.07008 1.09191 0
M  V30 4753 H 435.762 2.89827 1.50558 0
M  V30 4754 H 434.421 3.6322 -0.49666 0
M  V30 4755 H 434.069 4.72486 1.72527 0
M  V30 4756 H 433.769 5.86317 0.388149 0
M  V30 4757 H 435.293 5.96266 1.31525 0
M  V30 4758 H 436.707 5.65617 -0.93541 0
M  V30 4759 H 435.104 5.74888 -1.72115 0
M  V30 4760 H 436.174 4.38114 -2.07807 0
M  V30 4761 N 437.518 0.538854 1.48102 0
M  V30 4762 C 438.448 -0.207654 2.32575 0
M  V30 4763 C 439.429 -0.926559 1.4265 0
M  V30 4764 O 440.614 -0.91061 1.71527 0
M  V30 4765 C 437.744 -1.24957 3.24042 0
M  V30 4766 C 436.698 -0.648263 4.23062 0
M  V30 4767 C 436.024 -1.79348 5.03725 0
M  V30 4768 C 437.324 0.385897 5.20872 0
M  V30 4769 H 439.018 0.497534 2.95237 0
M  V30 4770 H 436.564 0.240715 1.41974 0
M  V30 4771 H 438.517 -1.77983 3.81969 0
M  V30 4772 H 437.241 -1.98446 2.59397 0
M  V30 4773 H 435.9 -0.139452 3.66335 0
M  V30 4774 H 435.548 -2.51696 4.35498 0
M  V30 4775 H 435.248 -1.39702 5.70751 0
M  V30 4776 H 436.772 -2.32735 5.64506 0
M  V30 4777 H 438.186 -0.057607 5.73271 0
M  V30 4778 H 436.583 0.700227 5.96001 0
M  V30 4779 H 437.653 1.28848 4.67468 0
M  V30 4780 N 438.996 -1.55193 0.274407 0
M  V30 4781 C 440.242 -1.99877 -0.343086 0
M  V30 4782 C 440.575 -1.16256 -1.55558 0
M  V30 4783 O 439.85 -0.232462 -1.93106 0
M  V30 4784 C 440.133 -3.52706 -0.725965 0
M  V30 4785 C 439.986 -4.47081 0.493818 0
M  V30 4786 C 441.305 -4.11422 -1.56268 0
M  V30 4787 H 438.424 -0.726625 -0.123229 0
M  V30 4788 H 441.066 -1.86136 0.38121 0
M  V30 4789 H 439.216 -3.64546 -1.34307 0
M  V30 4790 H 440.888 -4.47186 1.13237 0
M  V30 4791 H 439.131 -4.1877 1.13201 0
M  V30 4792 H 439.802 -5.51699 0.18217 0
M  V30 4793 H 442.278 -4.02855 -1.04151 0
M  V30 4794 H 441.154 -5.18568 -1.79939 0
M  V30 4795 H 441.415 -3.61607 -2.54348 0
M  V30 4796 N 440.474 -0.00167713 -1.576 0
M  V30 4797 C 441.406 1.0174 -2.05382 0
M  V30 4798 C 442.419 1.30595 -0.972052 0
M  V30 4799 O 443.608 1.27542 -1.24882 0
M  V30 4800 C 440.708 2.35174 -2.44022 0
M  V30 4801 C 439.881 2.25234 -3.74951 0
M  V30 4802 C 438.94 3.4137 -4.00441 0
M  V30 4803 O 437.966 3.19483 -4.71083 0
M  V30 4804 N 439.168 4.64275 -3.48467 0
M  V30 4805 H 441.933 0.609902 -2.93428 0
M  V30 4806 H 439.494 0.185672 -1.60832 0
M  V30 4807 H 441.486 3.11643 -2.58187 0
M  V30 4808 H 440.056 2.67659 -1.61485 0
M  V30 4809 H 439.276 1.33664 -3.70847 0
M  V30 4810 H 440.564 2.15767 -4.60784 0
M  V30 4811 H 439.962 4.84955 -2.91264 0
M  V30 4812 H 438.519 5.38005 -3.67959 0
M  V30 4813 N 441.952 1.55251 0.271103 0
M  V30 4814 C 443.229 1.66664 1.02384 0
M  V30 4815 C 443.609 0.534363 2.04225 0
M  V30 4816 O 442.957 -0.465337 2.23712 0
M  V30 4817 C 443.167 3.05961 1.67895 0
M  V30 4818 C 444.515 3.63772 2.18986 0
M  V30 4819 O 445.539 3.08606 1.77878 0
M  V30 4820 O 444.398 4.60429 2.94393 0
M  V30 4821 H 441.492 0.676957 0.475035 0
M  V30 4822 H 444.038 1.67589 0.26681 0
M  V30 4823 H 442.81 3.79815 0.941071 0
M  V30 4824 H 442.433 3.08943 2.5028 0
M  V30 4825 N 443.43 -0.535701 1.48216 0
M  V30 4826 C 444.377 -1.64083 1.62312 0
M  V30 4827 C 445.347 -1.59448 0.465365 0
M  V30 4828 O 446.532 -1.77959 0.688135 0
M  V30 4829 C 443.672 -3.0236 1.66349 0
M  V30 4830 C 442.785 -3.17273 2.93193 0
M  V30 4831 C 441.92 -4.46075 2.88427 0
M  V30 4832 C 440.959 -4.54496 4.1 0
M  V30 4833 N 440.096 -5.7468 4.03345 0
M  V30 4834 H 444.936 -1.51374 2.5669 0
M  V30 4835 H 442.473 -0.737059 1.27302 0
M  V30 4836 H 444.431 -3.82461 1.66672 0
M  V30 4837 H 443.061 -3.13854 0.754672 0
M  V30 4838 H 442.113 -2.30462 3.02641 0
M  V30 4839 H 443.425 -3.19357 3.83162 0
M  V30 4840 H 442.579 -5.3446 2.87119 0
M  V30 4841 H 441.318 -4.46504 1.96177 0
M  V30 4842 H 440.323 -3.64519 4.11589 0
M  V30 4843 H 441.548 -4.5581 5.03402 0
M  V30 4844 H 439.494 -5.76017 3.13912 0
M  V30 4845 H 439.411 -5.78234 4.87013 0
M  V30 4846 H 440.679 -6.65367 4.06087 0
M  V30 4847 N 444.908 -1.36708 -0.784132 0
M  V30 4848 C 446.155 -1.31231 -1.54222 0
M  V30 4849 C 446.483 0.106864 -1.94206 0
M  V30 4850 O 445.738 1.07734 -1.63376 0
M  V30 4851 C 446.037 -2.18571 -2.82774 0
M  V30 4852 C 445.703 -3.67039 -2.61903 0
M  V30 4853 C 444.365 -4.07503 -2.55919 0
M  V30 4854 C 446.717 -4.61149 -2.4288 0
M  V30 4855 C 444.045 -5.40211 -2.28886 0
M  V30 4856 C 446.397 -5.94081 -2.17373 0
M  V30 4857 C 445.061 -6.33664 -2.09825 0
M  V30 4858 H 444.331 -0.48021 -0.56434 0
M  V30 4859 H 446.978 -1.68807 -0.904233 0
M  V30 4860 H 445.283 -1.73949 -3.51068 0
M  V30 4861 H 446.98 -2.11655 -3.40592 0
M  V30 4862 H 443.57 -3.34941 -2.67418 0
M  V30 4863 H 447.754 -4.30756 -2.46501 0
M  V30 4864 H 443.01 -5.69855 -2.21529 0
M  V30 4865 H 447.184 -6.66566 -2.01649 0
M  V30 4866 H 444.811 -7.36423 -1.88641 0
M  V30 4867 N 446.386 1.0089 -1.21074 0
M  V30 4868 C 447.296 2.13039 -0.982425 0
M  V30 4869 C 448.312 1.73881 0.0642161 0
M  V30 4870 O 449.488 2.01012 -0.12496 0
M  V30 4871 C 446.553 3.42377 -0.545803 0
M  V30 4872 C 445.614 3.95731 -1.6642 0
M  V30 4873 C 444.847 5.18896 -1.24832 0
M  V30 4874 O 445.07 5.70273 -0.120265 0
M  V30 4875 O 444.004 5.65597 -2.05873 0
M  V30 4876 H 447.83 2.35175 -1.92163 0
M  V30 4877 H 445.415 1.1142 -0.995285 0
M  V30 4878 H 447.297 4.20244 -0.311912 0
M  V30 4879 H 445.972 3.21639 0.364727 0
M  V30 4880 H 444.879 3.19108 -1.95246 0
M  V30 4881 H 446.212 4.20872 -2.55201 0
M  V30 4882 N 447.864 1.01787 1.20321 0
M  V30 4883 C 449.11 0.708985 1.90003 0
M  V30 4884 C 449.443 -0.759572 1.78729 0
M  V30 4885 O 448.718 -1.55198 1.17234 0
M  V30 4886 C 449.001 1.1469 3.41348 0
M  V30 4887 C 448.854 2.67586 3.61549 0
M  V30 4888 C 450.173 0.71915 4.34185 0
M  V30 4889 H 447.292 0.259034 0.689978 0
M  V30 4890 H 449.934 1.26584 1.41692 0
M  V30 4891 H 448.084 0.673128 3.82624 0
M  V30 4892 H 449.756 3.22826 3.29517 0
M  V30 4893 H 447.999 3.085 3.04976 0
M  V30 4894 H 448.67 2.93281 4.67643 0
M  V30 4895 H 451.146 1.12647 4.00562 0
M  V30 4896 H 450.022 1.05358 5.38694 0
M  V30 4897 H 450.283 -0.379111 4.40472 0
M  V30 4898 N 449.342 -1.36122 0.79427 0
M  V30 4899 C 450.272 -2.32551 0.210328 0
M  V30 4900 C 451.253 -1.56884 -0.657386 0
M  V30 4901 O 452.438 -1.85014 -0.590207 0
M  V30 4902 C 449.568 -3.41128 -0.651819 0
M  V30 4903 C 448.522 -4.27842 0.116395 0
M  V30 4904 C 447.848 -5.2763 -0.86666 0
M  V30 4905 C 449.148 -5.05647 1.30837 0
M  V30 4906 H 450.842 -2.81636 1.01594 0
M  V30 4907 H 448.388 -1.35407 0.489981 0
M  V30 4908 H 450.341 -4.07581 -1.07031 0
M  V30 4909 H 449.065 -2.90622 -1.49019 0
M  V30 4910 H 447.724 -3.62952 0.515915 0
M  V30 4911 H 447.372 -4.73395 -1.70019 0
M  V30 4912 H 447.072 -5.86514 -0.35705 0
M  V30 4913 H 448.596 -5.96955 -1.28361 0
M  V30 4914 H 450.01 -5.65113 0.965393 0
M  V30 4915 H 448.407 -5.73967 1.75161 0
M  V30 4916 H 449.477 -4.37006 2.10128 0
M  V30 4917 N 450.82 -0.546701 -1.47814 0
M  V30 4918 C 451.768 0.220048 -2.31557 0
M  V30 4919 C 452.762 0.919472 -1.42275 0
M  V30 4920 O 453.968 0.841953 -1.59095 0
M  V30 4921 H 450.343 0.0898334 -0.746615 0
M  V30 4922 H 452.314 -0.505589 -2.94086 0
M  V30 4923 C 451.063 1.24353 -3.24702 0
M  V30 4924 H 450.386 0.714758 -3.93359 0
M  V30 4925 H 451.826 1.75112 -3.8615 0
M  V30 4926 C 450.285 2.28593 -2.47481 0
M  V30 4927 O 450.815 3.35334 -2.21165 0
M  V30 4928 N 449.021 2.02244 -2.08676 0
M  V30 4929 H 448.568 1.15455 -2.30278 0
M  V30 4930 H 448.526 2.72207 -1.57323 0
M  V30 4931 N 452.299 1.55045 -0.282633 0
M  V30 4932 C 453.529 2.03872 0.334635 0
M  V30 4933 C 453.937 1.16018 1.49454 0
M  V30 4934 O 453.28 0.174449 1.8287 0
M  V30 4935 C 453.342 3.48791 0.870905 0
M  V30 4936 C 453.006 4.56715 -0.161338 0
M  V30 4937 C 454.003 5.10513 -0.983466 0
M  V30 4938 C 451.688 5.01417 -0.297745 0
M  V30 4939 C 453.682 6.07538 -1.92811 0
M  V30 4940 C 451.369 5.98265 -1.24586 0
M  V30 4941 C 452.367 6.51208 -2.05954 0
M  V30 4942 O 452.055 7.46162 -2.99162 0
M  V30 4943 H 451.787 0.671324 0.0793742 0
M  V30 4944 H 454.341 2.01169 -0.41473 0
M  V30 4945 H 452.571 3.48758 1.67047 0
M  V30 4946 H 454.26 3.80916 1.40207 0
M  V30 4947 H 455.026 4.76785 -0.888856 0
M  V30 4948 H 450.905 4.59849 0.325604 0
M  V30 4949 H 454.449 6.48787 -2.56363 0
M  V30 4950 H 450.346 6.31412 -1.34126 0
M  V30 4951 H 451.114 7.63903 -2.93929 0
M  V30 4952 N 453.777 0.010035 1.57597 0
M  V30 4953 C 455.005 -0.683413 1.95287 0
M  V30 4954 C 455.42 -1.66747 0.885481 0
M  V30 4955 O 454.777 -1.82003 -0.134629 0
M  V30 4956 C 454.828 -1.40652 3.33015 0
M  V30 4957 O 454.549 -0.461916 4.35658 0
M  V30 4958 C 456.05 -2.19356 3.85225 0
M  V30 4959 H 453.27 -0.189708 0.643624 0
M  V30 4960 H 455.814 0.0641359 2.04399 0
M  V30 4961 H 453.969 -2.10562 3.2518 0
M  V30 4962 H 454.383 -0.973215 5.15392 0
M  V30 4963 H 455.857 -2.65433 4.83993 0
M  V30 4964 H 456.334 -3.02457 3.18459 0
M  V30 4965 H 456.94 -1.54442 3.96267 0
M  V30 4966 N 455.255 -1.55392 -0.262866 0
M  V30 4967 C 456.48 -1.80847 -1.01533 0
M  V30 4968 C 456.905 -0.584946 -1.78774 0
M  V30 4969 O 456.263 0.465701 -1.75217 0
M  V30 4970 C 456.311 -3.03866 -1.94159 0
M  V30 4971 O 455.415 -2.79662 -3.03089 0
M  V30 4972 H 454.756 -0.597441 -0.289759 0
M  V30 4973 H 457.286 -2.02553 -0.288698 0
M  V30 4974 H 457.296 -3.32872 -2.35924 0
M  V30 4975 H 455.971 -3.92564 -1.37354 0
M  V30 4976 H 454.548 -2.61781 -2.65566 0
M  V30 4977 N 456.733 0.527833 -1.48498 0
M  V30 4978 C 457.982 1.28003 -1.55878 0
M  V30 4979 C 458.295 1.9414 -0.238577 0
M  V30 4980 O 459.501 2.7083 -0.190643 0
M  V30 4981 C 457.957 2.32272 -2.74914 0
M  V30 4982 C 457.565 1.72196 -4.13585 0
M  V30 4983 C 459.309 3.08488 -2.91608 0
M  V30 4984 C 457.216 2.74417 -5.23879 0
M  V30 4985 H 456.146 0.481413 -0.580308 0
M  V30 4986 H 458.797 0.557195 -1.74836 0
M  V30 4987 H 457.179 3.07601 -2.49395 0
M  V30 4988 H 458.353 1.03041 -4.49132 0
M  V30 4989 H 456.668 1.08464 -4.02025 0
M  V30 4990 H 459.265 3.84879 -3.71177 0
M  V30 4991 H 459.608 3.64481 -2.01145 0
M  V30 4992 H 460.141 2.40274 -3.17038 0
M  V30 4993 H 456.88 2.23242 -6.16314 0
M  V30 4994 H 456.4 3.41893 -4.92818 0
M  V30 4995 H 458.079 3.37362 -5.52083 0
M  V30 4996 N 458.211 1.37122 0.776871 0
M  V30 4997 C 459.622 1.28667 1.35284 0
M  V30 4998 C 459.973 -0.0680035 1.96082 0
M  V30 4999 O 459.098 -0.969743 1.93455 0
M  V30 5000 C 459.693 2.32997 2.45963 0
M  V30 5001 C 458.252 2.28191 2.99342 0
M  V30 5002 C 457.399 2.17101 1.72517 0
M  V30 5003 H 460.35 1.47819 0.577527 0
M  V30 5004 H 460.371 1.97366 3.2531 0
M  V30 5005 H 459.883 3.3158 2.01684 0
M  V30 5006 H 457.984 1.33115 3.4801 0
M  V30 5007 H 458.097 3.21397 3.55304 0
M  V30 5008 H 456.461 1.63562 1.95242 0
M  V30 5009 H 457.244 3.17591 1.30348 0
M  V30 5010 N 459.689 -1.00246 1.21608 0
M  V30 5011 C 460.938 -1.73476 1.02902 0
M  V30 5012 C 461.251 -1.90643 -0.437561 0
M  V30 5013 O 462.457 -2.61105 -0.74407 0
M  V30 5014 C 460.913 -3.12079 1.79261 0
M  V30 5015 C 460.521 -3.02877 3.30106 0
M  V30 5016 C 462.265 -3.89421 1.68972 0
M  V30 5017 C 460.172 -4.36575 3.98944 0
M  V30 5018 H 459.102 -0.650408 0.381425 0
M  V30 5019 H 461.753 -1.11985 1.45367 0
M  V30 5020 H 460.135 -3.74196 1.2959 0
M  V30 5021 H 461.309 -2.49983 3.87098 0
M  V30 5022 H 459.624 -2.39022 3.40965 0
M  V30 5023 H 462.221 -4.88362 2.17731 0
M  V30 5024 H 462.564 -4.1122 0.648397 0
M  V30 5025 H 463.097 -3.33963 2.16133 0
M  V30 5026 H 459.836 -4.19978 5.03288 0
M  V30 5027 H 459.356 -4.8942 3.4674 0
M  V30 5028 H 461.035 -5.05364 4.04 0
M  V30 5029 N 461.167 -1.02423 -1.1978 0
M  V30 5030 C 462.414 -0.717988 -1.89344 0
M  V30 5031 C 462.742 0.753036 -1.79331 0
M  V30 5032 O 461.997 1.56355 -1.17692 0
M  V30 5033 C 462.296 -1.1088 -3.39765 0
M  V30 5034 C 461.962 -2.57731 -3.6998 0
M  V30 5035 C 460.624 -2.97854 -3.77937 0
M  V30 5036 C 462.976 -3.52763 -3.83677 0
M  V30 5037 C 460.304 -4.31931 -3.97054 0
M  V30 5038 C 462.656 -4.86538 -4.04306 0
M  V30 5039 C 461.32 -5.26356 -4.10494 0
M  V30 5040 H 460.59 -0.26273 -0.692859 0
M  V30 5041 H 463.237 -1.28623 -1.41875 0
M  V30 5042 H 461.542 -0.459094 -3.89101 0
M  V30 5043 H 463.239 -0.849432 -3.919 0
M  V30 5044 H 459.829 -2.25646 -3.64393 0
M  V30 5045 H 464.013 -3.2292 -3.76877 0
M  V30 5046 H 459.269 -4.62324 -4.00083 0
M  V30 5047 H 463.443 -5.60093 -4.13846 0
M  V30 5048 H 461.07 -6.3026 -4.2506 0
M  V30 5049 N 462.645 1.35699 -0.801477 0
M  V30 5050 C 463.575 2.32436 -0.222658 0
M  V30 5051 C 464.556 1.5723 0.649057 0
M  V30 5052 O 465.741 1.85324 0.580387 0
M  V30 5053 C 462.871 3.41469 0.633719 0
M  V30 5054 C 461.825 4.27774 -0.139083 0
M  V30 5055 C 461.151 5.28082 0.838666 0
M  V30 5056 C 462.451 5.04946 -1.33517 0
M  V30 5057 H 464.145 2.81094 -1.03086 0
M  V30 5058 H 461.691 1.35146 -0.497155 0
M  V30 5059 H 463.644 4.08143 1.04868 0
M  V30 5060 H 462.368 2.91408 1.47475 0
M  V30 5061 H 461.027 3.62673 -0.535156 0
M  V30 5062 H 460.675 4.7429 1.67506 0
M  V30 5063 H 460.375 5.86695 0.32594 0
M  V30 5064 H 461.899 5.97628 1.25194 0
M  V30 5065 H 463.313 5.64593 -0.995349 0
M  V30 5066 H 461.71 5.7303 -1.78202 0
M  V30 5067 H 462.78 4.35886 -2.12442 0
M  V30 5068 N 464.123 0.554532 1.47522 0
M  V30 5069 C 465.534 0.120446 1.86311 0
M  V30 5070 C 465.885 -1.30904 1.46145 0
M  V30 5071 O 465.01 -1.98434 0.863294 0
M  V30 5072 C 465.605 0.211808 3.38137 0
M  V30 5073 C 464.164 -0.167224 3.76028 0
M  V30 5074 C 463.311 0.560576 2.71575 0
M  V30 5075 H 466.262 0.764408 1.39077 0
M  V30 5076 H 466.283 -0.570275 3.76202 0
M  V30 5077 H 465.795 1.25232 3.6734 0
M  V30 5078 H 463.896 -1.20894 3.52442 0
M  V30 5079 H 464.009 0.189473 4.78725 0
M  V30 5080 H 462.373 0.00396836 2.547 0
M  V30 5081 H 463.156 1.60219 3.0362 0
M  V30 5082 N 465.601 -1.54893 0.290851 0
M  V30 5083 C 466.511 -2.26812 -0.59945 0
M  V30 5084 C 467.527 -1.29963 -1.15696 0
M  V30 5085 O 468.703 -1.62928 -1.18391 0
M  V30 5086 C 465.768 -2.98716 -1.75982 0
M  V30 5087 C 464.829 -4.1108 -1.2374 0
M  V30 5088 C 464.062 -4.79546 -2.34246 0
M  V30 5089 O 464.285 -4.47309 -3.53936 0
M  V30 5090 O 463.219 -5.67165 -2.01512 0
M  V30 5091 H 467.045 -3.03696 -0.0163561 0
M  V30 5092 H 464.63 -1.49289 0.0576755 0
M  V30 5093 H 466.512 -3.43851 -2.43607 0
M  V30 5094 H 465.187 -2.24737 -2.3297 0
M  V30 5095 H 464.094 -3.70367 -0.527163 0
M  V30 5096 H 465.427 -4.87007 -0.71307 0
M  V30 5097 N 467.08 -0.0183926 -1.57589 0
M  V30 5098 C 468.326 0.663543 -1.91638 0
M  V30 5099 C 468.659 1.72392 -0.894134 0
M  V30 5100 O 467.934 1.94316 0.0846449 0
M  V30 5101 C 468.217 1.28984 -3.36207 0
M  V30 5102 C 468.07 0.239761 -4.49161 0
M  V30 5103 C 469.389 2.2109 -3.80536 0
M  V30 5104 H 466.508 0.239746 -0.696915 0
M  V30 5105 H 469.15 -0.073456 -1.89858 0
M  V30 5106 H 467.3 1.91799 -3.37854 0
M  V30 5107 H 468.972 -0.390119 -4.59647 0
M  V30 5108 H 467.215 -0.435972 -4.31604 0
M  V30 5109 H 467.886 0.717383 -5.47319 0
M  V30 5110 H 470.362 1.68273 -3.80557 0
M  V30 5111 H 469.238 2.61869 -4.82406 0
M  V30 5112 H 469.499 3.09764 -3.15434 0
M  V30 5113 N 468.558 1.5553 0.254621 0
M  V30 5114 C 469.786 1.81046 1.00149 0
M  V30 5115 C 470.201 0.593047 1.79244 0
M  V30 5116 O 469.558 -0.438196 1.77161 0
M  V30 5117 C 469.609 3.04684 1.94551 0
M  V30 5118 O 469.33 4.21725 1.18658 0
M  V30 5119 C 470.831 3.42943 2.80901 0
M  V30 5120 H 468.051 0.602653 0.295044 0
M  V30 5121 H 470.595 2.02576 0.279842 0
M  V30 5122 H 468.75 2.85226 2.62154 0
M  V30 5123 H 469.164 4.91746 1.82445 0
M  V30 5124 H 470.638 4.32576 3.42902 0
M  V30 5125 H 471.115 2.63176 3.51617 0
M  V30 5126 H 471.721 3.64724 2.18762 0
M  V30 5127 N 470.036 -0.519951 1.48776 0
M  V30 5128 C 471.285 -1.27175 1.56555 0
M  V30 5129 C 471.598 -1.9401 0.248869 0
M  V30 5130 O 472.804 -2.70725 0.205004 0
M  V30 5131 C 471.26 -2.30811 2.76142 0
M  V30 5132 C 470.868 -1.7 4.14493 0
M  V30 5133 C 472.612 -3.06937 2.9324 0
M  V30 5134 C 470.519 -2.71635 5.25327 0
M  V30 5135 H 469.449 -0.478329 0.582853 0
M  V30 5136 H 472.1 -0.547916 1.75129 0
M  V30 5137 H 470.482 -3.06274 2.51023 0
M  V30 5138 H 471.656 -1.00658 4.49672 0
M  V30 5139 H 469.971 -1.06331 4.02595 0
M  V30 5140 H 472.568 -3.82905 3.73213 0
M  V30 5141 H 472.911 -3.63409 2.03075 0
M  V30 5142 H 473.444 -2.38589 3.18308 0
M  V30 5143 H 470.183 -2.1997 6.1749 0
M  V30 5144 H 469.703 -3.39275 4.94624 0
M  V30 5145 H 471.382 -3.34429 5.53865 0
M  V30 5146 N 471.514 -1.37532 -0.769588 0
M  V30 5147 C 472.762 -1.32597 -1.5252 0
M  V30 5148 C 473.083 0.0884294 -1.94799 0
M  V30 5149 O 472.353 1.03289 -1.66458 0
M  V30 5150 H 470.933 -0.487846 -0.565699 0
M  V30 5151 H 473.595 -1.72044 -0.915806 0
M  V30 5152 H 472.691 -1.96643 -2.42359 0
M  V30 5153 N 472.992 0.995999 -1.22138 0
M  V30 5154 C 473.955 2.06711 -0.990109 0
M  V30 5155 C 474.955 1.60744 0.0422978 0
M  V30 5156 O 476.145 1.73095 -0.195895 0
M  V30 5157 C 473.277 3.37288 -0.49491 0
M  V30 5158 H 474.47 2.28661 -1.94047 0
M  V30 5159 H 472.023 1.16711 -1.03963 0
M  V30 5160 H 472.758 3.21022 0.459948 0
M  V30 5161 H 472.543 3.71986 -1.23971 0
M  V30 5162 H 474.033 4.16103 -0.353253 0
M  V30 5163 N 474.47 1.03057 1.19235 0
M  V30 5164 C 475.42 0.583386 2.2041 0
M  V30 5165 C 476.404 -0.368776 1.56617 0
M  V30 5166 O 477.596 -0.189471 1.75983 0
M  V30 5167 C 474.725 -0.0626534 3.43243 0
M  V30 5168 C 473.811 0.91205 4.14177 0
M  V30 5169 N 474.202 2.07514 4.61272 0
M  V30 5170 C 472.5 0.735859 4.39888 0
M  V30 5171 C 473.201 2.69003 5.15764 0
M  V30 5172 N 472.177 1.96954 5.06666 0
M  V30 5173 H 475.979 1.46988 2.54503 0
M  V30 5174 H 473.493 0.897785 1.35328 0
M  V30 5175 H 475.49 -0.400653 4.1497 0
M  V30 5176 H 474.15 -0.944813 3.1065 0
M  V30 5177 H 475.161 2.45448 4.56043 0
M  V30 5178 H 471.838 -0.0970656 4.17387 0
M  V30 5179 H 473.228 3.67514 5.6248 0
M  V30 5180 N 475.948 -1.35272 0.808662 0
M  V30 5181 C 476.88 -2.28507 0.178149 0
M  V30 5182 C 477.893 -1.50377 -0.623754 0
M  V30 5183 O 479.082 -1.72583 -0.455774 0
M  V30 5184 C 476.182 -3.30038 -0.769959 0
M  V30 5185 C 475.355 -4.37398 -0.0139749 0
M  V30 5186 C 474.414 -5.18775 -0.880875 0
M  V30 5187 O 473.44 -5.68236 -0.331059 0
M  V30 5188 N 474.642 -5.37087 -2.20267 0
M  V30 5189 H 477.407 -2.83255 0.979106 0
M  V30 5190 H 474.968 -1.47643 0.664308 0
M  V30 5191 H 476.96 -3.81371 -1.35418 0
M  V30 5192 H 475.53 -2.75789 -1.47171 0
M  V30 5193 H 474.75 -3.86971 0.751468 0
M  V30 5194 H 476.038 -5.06268 0.506965 0
M  V30 5195 H 475.436 -4.9855 -2.67328 0
M  V30 5196 H 473.993 -5.91593 -2.73608 0
M  V30 5197 N 477.426 -0.562348 -1.47226 0
M  V30 5198 C 478.654 -0.0452275 -2.06851 0
M  V30 5199 C 479.069 1.25078 -1.41424 0
M  V30 5200 O 478.426 1.75156 -0.512513 0
M  V30 5201 C 478.477 0.148674 -3.61194 0
M  V30 5202 O 478.198 -1.09602 -4.24169 0
M  V30 5203 C 479.699 0.702488 -4.37699 0
M  V30 5204 H 476.919 -0.0481775 -0.669268 0
M  V30 5205 H 479.463 -0.777223 -1.89155 0
M  V30 5206 H 477.618 0.830817 -3.78386 0
M  V30 5207 H 478.032 -0.896982 -5.16773 0
M  V30 5208 H 479.506 0.78743 -5.46355 0
M  V30 5209 H 479.983 1.71493 -4.04335 0
M  V30 5210 H 480.589 0.0558772 -4.25263 0
M  V30 5211 N 478.904 1.54736 -0.299062 0
M  V30 5212 C 480.181 1.92187 0.363802 0
M  V30 5213 C 480.561 1.22607 1.71845 0
M  V30 5214 O 479.909 0.361141 2.25628 0
M  V30 5215 C 480.119 3.45678 0.480377 0
M  V30 5216 C 481.467 4.17885 0.752147 0
M  V30 5217 O 482.491 3.51702 0.564264 0
M  V30 5218 O 481.35 5.35048 1.11294 0
M  V30 5219 H 478.444 0.801681 0.203066 0
M  V30 5220 H 480.99 1.66115 -0.346978 0
M  V30 5221 H 479.762 3.88443 -0.471999 0
M  V30 5222 H 479.385 3.77779 1.2397 0
M  V30 5223 N 480.382 0.0267497 1.57577 0
M  V30 5224 C 481.798 -0.32962 1.56159 0
M  V30 5225 C 481.998 -1.73059 1.03213 0
M  V30 5226 O 481.054 -2.43233 0.677804 0
M  V30 5227 C 482.367 -0.18039 3.00158 0
M  V30 5228 C 483.915 -0.253334 3.11973 0
M  V30 5229 C 484.39 -0.132921 4.57807 0
M  V30 5230 N 485.881 -0.189979 4.6281 0
M  V30 5231 C 486.616 -0.120554 5.73273 0
M  V30 5232 N 486.112 -0.000180315 6.928 0
M  V30 5233 N 487.905 -0.174369 5.61829 0
M  V30 5234 H 480.056 0.942896 1.90324 0
M  V30 5235 H 482.319 0.3639 0.875375 0
M  V30 5236 H 482.025 0.784576 3.42837 0
M  V30 5237 H 481.899 -0.951565 3.65 0
M  V30 5238 H 484.286 -1.20876 2.69208 0
M  V30 5239 H 484.367 0.548177 2.49857 0
M  V30 5240 H 484.011 0.819073 5.01252 0
M  V30 5241 H 483.941 -0.953264 5.179 0
M  V30 5242 H 486.432 -0.283257 3.76837 0
M  V30 5243 H 486.745 0.0461666 7.72786 0
M  V30 5244 H 485.09 0.034569 6.94991 0
M  V30 5245 H 488.281 -0.266794 4.67339 0
M  V30 5246 H 488.454 -0.116802 6.47895 0
M  V30 5247 N 481.861 -1.55662 -0.24637 0
M  V30 5248 C 483.107 -1.77782 -0.975779 0
M  V30 5249 C 483.44 -0.592103 -1.84953 0
M  V30 5250 O 482.715 0.409588 -1.90138 0
M  V30 5251 C 482.998 -3.09788 -1.83584 0
M  V30 5252 C 482.851 -4.38764 -0.990241 0
M  V30 5253 C 484.17 -3.38029 -2.81823 0
M  V30 5254 H 481.289 -0.646789 -0.353317 0
M  V30 5255 H 483.931 -1.88398 -0.246248 0
M  V30 5256 H 482.081 -3.00869 -2.45784 0
M  V30 5257 H 483.753 -4.59675 -0.386897 0
M  V30 5258 H 481.996 -4.32798 -0.294626 0
M  V30 5259 H 482.667 -5.27514 -1.62584 0
M  V30 5260 H 485.143 -3.46915 -2.2976 0
M  V30 5261 H 484.019 -4.3161 -3.39122 0
M  V30 5262 H 484.28 -2.58968 -3.58313 0
M  V30 5263 N 483.339 0.512053 -1.4905 0
M  V30 5264 C 484.269 1.62365 -1.67809 0
M  V30 5265 C 485.25 1.61737 -0.526809 0
M  V30 5266 O 486.435 1.78651 -0.761404 0
M  V30 5267 C 483.565 3.00895 -1.73435 0
M  V30 5268 C 482.519 3.16387 -2.88242 0
M  V30 5269 C 481.845 4.56157 -2.78971 0
M  V30 5270 C 483.145 2.97457 -4.29321 0
M  V30 5271 H 484.839 1.46921 -2.60873 0
M  V30 5272 H 482.385 0.705379 -1.2554 0
M  V30 5273 H 484.338 3.78549 -1.85145 0
M  V30 5274 H 483.062 3.17403 -0.769619 0
M  V30 5275 H 481.721 2.41155 -2.76116 0
M  V30 5276 H 481.369 4.69525 -1.8043 0
M  V30 5277 H 481.069 4.67465 -3.5602 0
M  V30 5278 H 482.593 5.35886 -2.92675 0
M  V30 5279 H 484.007 3.64888 -4.42187 0
M  V30 5280 H 482.404 3.20245 -5.07507 0
M  V30 5281 H 483.474 1.93692 -4.44535 0
M  V30 5282 N 484.817 1.37938 0.762283 0
M  V30 5283 C 485.767 1.30976 1.86626 0
M  V30 5284 C 486.751 0.195714 1.59705 0
M  V30 5285 O 487.943 0.430937 1.71674 0
M  V30 5286 C 485.072 1.12847 3.24223 0
M  V30 5287 C 484.158 2.28836 3.57064 0
M  V30 5288 N 484.549 3.54256 3.61022 0
M  V30 5289 C 482.847 2.21198 3.87282 0
M  V30 5290 C 483.548 4.30798 3.90881 0
M  V30 5291 N 482.524 3.60049 4.07266 0
M  V30 5292 H 486.326 2.25946 1.87951 0
M  V30 5293 H 483.84 1.31046 0.959206 0
M  V30 5294 H 485.837 1.05943 4.03214 0
M  V30 5295 H 484.497 0.188024 3.24155 0
M  V30 5296 H 485.508 3.8804 3.42995 0
M  V30 5297 H 482.185 1.35264 3.94981 0
M  V30 5298 H 483.575 5.39386 4.00639 0
M  V30 5299 N 486.295 -0.989507 1.22664 0
M  V30 5300 C 487.227 -2.0824 0.957542 0
M  V30 5301 C 488.24 -1.6267 -0.0651098 0
M  V30 5302 O 489.429 -1.77695 0.169312 0
M  V30 5303 C 486.529 -3.36298 0.419145 0
M  V30 5304 C 485.702 -4.10882 1.49982 0
M  V30 5305 C 484.761 -5.17221 0.967904 0
M  V30 5306 O 483.787 -5.44613 1.65487 0
M  V30 5307 N 484.989 -5.80124 -0.20896 0
M  V30 5308 H 487.754 -2.31904 1.89843 0
M  V30 5309 H 485.315 -1.15552 1.13399 0
M  V30 5310 H 487.307 -4.04671 0.0485451 0
M  V30 5311 H 485.877 -3.09671 -0.426937 0
M  V30 5312 H 485.097 -3.37092 2.04359 0
M  V30 5313 H 486.385 -4.57482 2.22682 0
M  V30 5314 H 485.783 -5.60244 -0.783818 0
M  V30 5315 H 484.34 -6.49715 -0.520913 0
M  V30 5316 N 487.773 -1.03688 -1.18687 0
M  V30 5317 C 489.02 -0.73803 -1.88572 0
M  V30 5318 C 489.348 0.733973 -1.8012 0
M  V30 5319 O 488.603 1.55098 -1.19344 0
M  V30 5320 C 488.902 -1.14477 -3.3857 0
M  V30 5321 C 488.568 -2.61641 -3.67226 0
M  V30 5322 C 487.23 -3.01846 -3.74757 0
M  V30 5323 C 489.582 -3.56812 -3.79914 0
M  V30 5324 C 486.91 -4.36118 -3.92451 0
M  V30 5325 C 489.262 -4.90799 -3.99123 0
M  V30 5326 C 487.926 -5.3068 -4.04888 0
M  V30 5327 H 487.196 -0.270064 -0.690034 0
M  V30 5328 H 489.843 -1.3012 -1.40503 0
M  V30 5329 H 488.148 -0.500337 -3.88592 0
M  V30 5330 H 489.845 -0.89095 -3.90977 0
M  V30 5331 H 486.435 -2.29498 -3.61979 0
M  V30 5332 H 490.619 -3.26899 -3.73431 0
M  V30 5333 H 485.875 -4.66542 -3.95157 0
M  V30 5334 H 490.049 -5.64451 -4.07882 0
M  V30 5335 H 487.676 -6.34733 -4.18351 0
M  V30 5336 N 489.251 1.34841 -0.815825 0
M  V30 5337 C 490.667 1.51543 -0.500697 0
M  V30 5338 C 490.867 1.76261 0.976444 0
M  V30 5339 O 489.923 1.8094 1.76117 0
M  V30 5340 C 491.236 2.68487 -1.35407 0
M  V30 5341 C 492.784 2.82368 -1.35046 0
M  V30 5342 C 493.259 4.02347 -2.18816 0
M  V30 5343 N 494.75 4.09542 -2.16402 0
M  V30 5344 C 495.485 5.01517 -2.77971 0
M  V30 5345 N 494.981 5.98763 -3.48503 0
M  V30 5346 N 496.774 4.94334 -2.67563 0
M  V30 5347 H 488.925 1.17055 -1.77234 0
M  V30 5348 H 491.188 0.573481 -0.754866 0
M  V30 5349 H 490.894 2.56829 -2.40274 0
M  V30 5350 H 490.768 3.63321 -1.01377 0
M  V30 5351 H 493.155 2.93471 -0.309604 0
M  V30 5352 H 493.236 1.88363 -1.73069 0
M  V30 5353 H 492.88 3.92004 -3.22948 0
M  V30 5354 H 492.81 4.95551 -1.78148 0
M  V30 5355 H 495.301 3.39932 -1.65091 0
M  V30 5356 H 495.614 6.6556 -3.92747 0
M  V30 5357 H 493.959 5.98909 -3.52609 0
M  V30 5358 H 497.15 4.1732 -2.12041 0
M  V30 5359 H 497.323 5.6582 -3.15834 0
M  V30 5360 N 490.729 0.570148 1.46925 0
M  V30 5361 C 491.639 -0.173061 2.33961 0
M  V30 5362 C 492.655 -0.898825 1.48987 0
M  V30 5363 O 493.831 -0.864825 1.81887 0
M  V30 5364 C 490.896 -1.18177 3.25937 0
M  V30 5365 C 489.957 -0.462041 4.26806 0
M  V30 5366 C 489.19 -1.4227 5.14388 0
M  V30 5367 O 489.413 -2.65842 5.04662 0
M  V30 5368 O 488.347 -0.940127 5.94513 0
M  V30 5369 H 492.173 0.541216 2.98839 0
M  V30 5370 H 489.758 0.330647 1.45695 0
M  V30 5371 H 491.64 -1.76372 3.82715 0
M  V30 5372 H 490.315 -1.87774 2.63671 0
M  V30 5373 H 489.222 0.161429 3.73752 0
M  V30 5374 H 490.555 0.192719 4.91823 0
M  V30 5375 N 492.207 -1.54576 0.307264 0
M  V30 5376 C 493.137 -2.26708 -0.55907 0
M  V30 5377 C 494.118 -1.26893 -1.1328 0
M  V30 5378 O 495.303 -1.55677 -1.16097 0
M  V30 5379 C 492.433 -3.01259 -1.72801 0
M  V30 5380 C 491.387 -4.08275 -1.28435 0
M  V30 5381 C 490.713 -4.70575 -2.53895 0
M  V30 5382 C 492.013 -5.2068 -0.411038 0
M  V30 5383 H 493.707 -2.9937 0.042576 0
M  V30 5384 H 491.253 -1.43983 0.0219173 0
M  V30 5385 H 493.206 -3.50444 -2.34023 0
M  V30 5386 H 491.93 -2.26187 -2.356 0
M  V30 5387 H 490.589 -3.59949 -0.695161 0
M  V30 5388 H 490.237 -3.92136 -3.15021 0
M  V30 5389 H 489.937 -5.42854 -2.24908 0
M  V30 5390 H 491.461 -5.22527 -3.15908 0
M  V30 5391 H 492.875 -5.65721 -0.929097 0
M  V30 5392 H 491.272 -5.99716 -0.214664 0
M  V30 5393 H 492.342 -4.81629 0.562287 0
M  V30 5394 N 493.685 -0.035106 -1.57561 0
M  V30 5395 C 495.096 0.502885 -1.798 0
M  V30 5396 C 495.447 1.71892 -0.945921 0
M  V30 5397 O 494.572 2.15822 -0.157991 0
M  V30 5398 C 495.167 0.919097 -3.26095 0
M  V30 5399 C 493.726 1.40216 -3.49308 0
M  V30 5400 C 492.873 0.369709 -2.74824 0
M  V30 5401 H 495.824 -0.261102 -1.56537 0
M  V30 5402 H 495.845 1.78308 -3.36135 0
M  V30 5403 H 495.357 0.0338526 -3.88085 0
M  V30 5404 H 493.458 2.30714 -2.92578 0
M  V30 5405 H 493.571 1.40541 -4.58023 0
M  V30 5406 H 491.935 0.839113 -2.40481 0
M  V30 5407 H 492.718 -0.507173 -3.39533 0
M  V30 5408 N 495.163 1.55791 0.238111 0
M  V30 5409 C 496.411 1.77681 0.963001 0
M  V30 5410 C 496.732 0.600674 1.85518 0
M  V30 5411 O 496.002 -0.383182 1.92116 0
M  V30 5412 H 494.582 0.655315 0.358568 0
M  V30 5413 H 497.244 1.93239 0.253945 0
M  V30 5414 H 496.34 2.69177 1.57956 0
M  V30 5415 N 496.642 -0.504142 1.49319 0
M  V30 5416 C 498.058 -0.835039 1.36012 0
M  V30 5417 C 498.258 -1.97674 0.390808 0
M  V30 5418 O 497.314 -2.51867 -0.178655 0
M  V30 5419 C 498.627 -1.17821 2.76656 0
M  V30 5420 C 500.175 -1.2866 2.85334 0
M  V30 5421 C 500.65 -1.66307 4.26739 0
M  V30 5422 N 502.141 -1.73362 4.29534 0
M  V30 5423 C 502.876 -2.0393 5.35911 0
M  V30 5424 N 502.372 -2.32744 6.52535 0
M  V30 5425 N 504.165 -2.05155 5.23324 0
M  V30 5426 H 496.316 0.248764 2.10938 0
M  V30 5427 H 498.579 0.0486962 0.946748 0
M  V30 5428 H 498.285 -0.412682 3.4927 0
M  V30 5429 H 498.159 -2.12239 3.11825 0
M  V30 5430 H 500.546 -2.04285 2.1296 0
M  V30 5431 H 500.627 -0.323004 2.53752 0
M  V30 5432 H 500.271 -0.91234 4.99639 0
M  V30 5433 H 500.201 -2.63761 4.55782 0
M  V30 5434 H 502.692 -1.53268 3.45424 0
M  V30 5435 H 503.005 -2.55248 7.2943 0
M  V30 5436 H 501.35 -2.30207 6.55767 0
M  V30 5437 H 504.541 -1.82119 4.3122 0
M  V30 5438 H 504.714 -2.28644 6.06322 0
M  V30 5439 N 498.12 -1.38341 -0.754957 0
M  V30 5440 C 499.067 -1.3546 -1.86867 0
M  V30 5441 C 500.037 -0.217369 -1.64672 0
M  V30 5442 O 501.222 -0.409383 -1.86356 0
M  V30 5443 C 498.362 -1.18413 -3.24149 0
M  V30 5444 C 497.475 -2.41511 -3.58185 0
M  V30 5445 C 496.61 -2.17205 -4.84763 0
M  V30 5446 C 495.649 -3.36081 -5.11582 0
M  V30 5447 N 494.786 -3.11219 -6.29354 0
M  V30 5448 H 499.626 -2.30672 -1.88664 0
M  V30 5449 H 497.163 -1.14607 -0.922154 0
M  V30 5450 H 499.121 -1.06545 -4.03366 0
M  V30 5451 H 497.751 -0.268397 -3.21682 0
M  V30 5452 H 496.803 -2.64056 -2.73822 0
M  V30 5453 H 498.115 -3.30115 -3.73932 0
M  V30 5454 H 497.269 -2.02465 -5.7192 0
M  V30 5455 H 496.008 -1.25964 -4.71152 0
M  V30 5456 H 495.013 -3.51341 -4.22894 0
M  V30 5457 H 496.238 -4.28196 -5.27091 0
M  V30 5458 H 494.184 -2.22624 -6.17069 0
M  V30 5459 H 494.101 -3.93373 -6.45596 0
M  V30 5460 H 495.369 -3.00132 -7.19403 0
M  V30 5461 N 499.598 0.982988 -1.23187 0
M  V30 5462 C 500.828 1.75666 -1.08743 0
M  V30 5463 C 501.236 1.85662 0.364195 0
M  V30 5464 O 500.579 1.33317 1.26382 0
M  V30 5465 C 500.641 3.20144 -1.63549 0
M  V30 5466 C 500.305 3.33665 -3.12277 0
M  V30 5467 C 501.302 3.20194 -4.096 0
M  V30 5468 C 498.987 3.58397 -3.51933 0
M  V30 5469 C 500.981 3.31256 -5.44563 0
M  V30 5470 C 498.668 3.69098 -4.87042 0
M  V30 5471 C 499.666 3.55537 -5.83166 0
M  V30 5472 O 499.354 3.65864 -7.1582 0
M  V30 5473 H 499.086 0.558194 -0.381307 0
M  V30 5474 H 501.64 1.24387 -1.63454 0
M  V30 5475 H 499.87 3.72659 -1.03256 0
M  V30 5476 H 501.559 3.79262 -1.4462 0
M  V30 5477 H 502.325 3.00987 -3.80305 0
M  V30 5478 H 498.204 3.68025 -2.77631 0
M  V30 5479 H 501.748 3.20588 -6.19572 0
M  V30 5480 H 497.645 3.87814 -5.16014 0
M  V30 5481 H 498.413 3.82675 -7.23534 0
M  V30 5482 N 501.076 1.04316 1.18135 0
M  V30 5483 C 502.301 0.768047 1.92655 0
M  V30 5484 C 502.726 -0.66904 1.758 0
M  V30 5485 O 502.084 -1.46372 1.06981 0
M  V30 5486 C 502.132 1.14239 3.42026 0
M  V30 5487 O 501.236 0.269333 4.1152 0
M  V30 5488 H 500.577 0.282436 0.600937 0
M  V30 5489 H 503.107 1.39367 1.49793 0
M  V30 5490 H 503.117 1.10538 3.92741 0
M  V30 5491 H 501.792 2.18928 3.53615 0
M  V30 5492 H 500.369 0.366175 3.71098 0
M  V30 5493 N 502.554 -1.34406 0.822964 0
M  V30 5494 C 503.965 -1.8069 0.469879 0
M  V30 5495 C 504.316 -1.68223 -1.00972 0
M  V30 5496 O 503.441 -1.22226 -1.78577 0
M  V30 5497 C 504.036 -3.28064 0.846118 0
M  V30 5498 C 502.595 -3.72428 0.545402 0
M  V30 5499 C 501.742 -2.56116 1.06301 0
M  V30 5500 H 504.693 -1.22153 1.01313 0
M  V30 5501 H 504.714 -3.80205 0.149922 0
M  V30 5502 H 504.226 -3.37107 1.92304 0
M  V30 5503 H 502.327 -3.68924 -0.522109 0
M  V30 5504 H 502.44 -4.66548 1.0895 0
M  V30 5505 H 500.804 -2.50048 0.484554 0
M  V30 5506 H 501.587 -2.67928 2.14638 0
M  V30 5507 N 504.032 -0.577932 -1.46621 0
M  V30 5508 C 505.28 -0.061566 -2.02006 0
M  V30 5509 C 505.601 1.30117 -1.4524 0
M  V30 5510 O 504.871 1.85313 -0.63529 0
M  V30 5511 H 503.451 -0.0197692 -0.746738 0
M  V30 5512 H 506.113 -0.752631 -1.79782 0
M  V30 5513 H 505.209 0.0110238 -3.12098 0
M  V30 5514 N 505.51 1.54411 -0.315457 0
M  V30 5515 C 506.74 2.04536 0.291315 0
M  V30 5516 C 507.148 1.19162 1.4696 0
M  V30 5517 O 506.491 0.213199 1.82459 0
M  V30 5518 C 506.553 3.5056 0.796725 0
M  V30 5519 C 506.217 4.5627 -0.258178 0
M  V30 5520 C 507.214 5.08312 -1.09153 0
M  V30 5521 C 504.899 5.00672 -0.404036 0
M  V30 5522 C 506.893 6.03312 -2.05655 0
M  V30 5523 C 504.58 5.95488 -1.37248 0
M  V30 5524 C 505.578 6.46693 -2.19721 0
M  V30 5525 O 505.266 7.39648 -3.14921 0
M  V30 5526 H 504.998 0.672856 0.0651165 0
M  V30 5527 H 507.552 2.00244 -0.457308 0
M  V30 5528 H 505.782 3.52223 1.59612 0
M  V30 5529 H 507.471 3.83804 1.32096 0
M  V30 5530 H 508.237 4.74793 -0.98979 0
M  V30 5531 H 504.116 4.60436 0.22799 0
M  V30 5532 H 507.66 6.43203 -2.70067 0
M  V30 5533 H 503.557 6.28424 -1.47489 0
M  V30 5534 H 504.325 7.57496 -3.10067 0
M  V30 5535 N 506.988 0.0434614 1.5754 0
M  V30 5536 C 507.936 -0.951465 2.1225 0
M  V30 5537 C 508.93 -1.3274 1.05245 0
M  V30 5538 O 510.136 -1.30795 1.23663 0
M  V30 5539 H 506.511 -0.324667 0.678303 0
M  V30 5540 H 508.482 -0.464855 2.94757 0
M  V30 5541 C 507.231 -2.21972 2.67626 0
M  V30 5542 H 506.554 -1.93923 3.4962 0
M  V30 5543 H 507.994 -2.89765 3.09536 0
M  V30 5544 C 506.453 -2.95919 1.61038 0
M  V30 5545 O 506.983 -3.8857 1.01862 0
M  V30 5546 N 505.189 -2.58511 1.32741 0
M  V30 5547 H 504.736 -1.83244 1.81051 0
M  V30 5548 H 504.694 -3.08296 0.616531 0
M  V30 5549 N 508.466 -1.55915 -0.229846 0
M  V30 5550 C 509.694 -1.82617 -0.972562 0
M  V30 5551 C 510.109 -0.621488 -1.78278 0
M  V30 5552 O 509.466 0.409956 -1.77836 0
M  V30 5553 C 509.517 -3.0774 -1.89679 0
M  V30 5554 O 509.238 -4.23559 -1.11934 0
M  V30 5555 C 510.739 -3.47368 -2.75409 0
M  V30 5556 H 507.959 -0.60727 -0.285419 0
M  V30 5557 H 510.503 -2.02996 -0.247579 0
M  V30 5558 H 508.658 -2.89361 -2.57583 0
M  V30 5559 H 509.072 -4.94586 -1.74599 0
M  V30 5560 H 510.546 -4.37977 -3.35977 0
M  V30 5561 H 511.023 -2.68737 -3.47386 0
M  V30 5562 H 511.629 -3.68158 -2.12931 0
M  V30 5563 N 509.944 0.496216 -1.49584 0
M  V30 5564 C 510.854 1.62352 -1.69349 0
M  V30 5565 C 511.87 1.64184 -0.576147 0
M  V30 5566 O 513.046 1.82517 -0.85144 0
M  V30 5567 C 510.111 2.98698 -1.76013 0
M  V30 5568 C 509.172 3.07454 -2.99617 0
M  V30 5569 C 508.405 4.37296 -3.05953 0
M  V30 5570 O 508.628 5.2637 -2.19752 0
M  V30 5571 O 507.562 4.51124 -3.9846 0
M  V30 5572 H 511.388 1.48606 -2.64859 0
M  V30 5573 H 508.973 0.673022 -1.33382 0
M  V30 5574 H 510.855 3.79725 -1.82721 0
M  V30 5575 H 509.53 3.12696 -0.836828 0
M  V30 5576 H 508.437 2.25597 -2.98424 0
M  V30 5577 H 509.77 2.98385 -3.91443 0
M  V30 5578 N 511.423 1.38739 0.74761 0
M  V30 5579 C 512.669 1.35475 1.50912 0
M  V30 5580 C 513.002 -0.0533093 1.94127 0
M  V30 5581 O 512.277 -1.01572 1.65871 0
M  V30 5582 C 512.56 2.31582 2.75757 0
M  V30 5583 C 512.413 3.81274 2.38642 0
M  V30 5584 C 513.732 2.25722 3.77806 0
M  V30 5585 H 510.851 0.493427 0.547447 0
M  V30 5586 H 513.493 1.69634 0.855823 0
M  V30 5587 H 511.643 2.02582 3.31501 0
M  V30 5588 H 513.315 4.20972 1.88626 0
M  V30 5589 H 511.558 3.98664 1.71025 0
M  V30 5590 H 512.229 4.4399 3.27989 0
M  V30 5591 H 514.705 2.51336 3.31616 0
M  V30 5592 H 513.581 2.95069 4.62845 0
M  V30 5593 H 513.842 1.25803 4.23823 0
M  V30 5594 N 512.901 -0.976442 1.23707 0
M  V30 5595 C 514.149 -1.71487 1.06942 0
M  V30 5596 C 514.47 -1.9098 -0.393897 0
M  V30 5597 O 513.74 -1.48128 -1.28198 0
M  V30 5598 H 512.32 -0.635425 0.392739 0
M  V30 5599 H 514.982 -1.17515 1.55487 0
M  V30 5600 H 514.078 -2.70286 1.56051 0
M  V30 5601 N 514.379 -1.04941 -1.1758 0
M  V30 5602 C 515.656 -0.671918 -1.83697 0
M  V30 5603 C 516.036 0.847929 -1.93322 0
M  V30 5604 O 515.384 1.75287 -1.46583 0
M  V30 5605 C 515.594 -1.35797 -3.21497 0
M  V30 5606 C 516.942 -1.4944 -3.97433 0
M  V30 5607 O 517.966 -1.31678 -3.30967 0
M  V30 5608 O 516.825 -1.78463 -5.1654 0
M  V30 5609 H 513.919 -0.236212 -0.792548 0
M  V30 5610 H 516.465 -1.14884 -1.24899 0
M  V30 5611 H 515.237 -2.39498 -3.09446 0
M  V30 5612 H 514.86 -0.870236 -3.8796 0
M  V30 5613 N 515.857 1.33968 -0.830081 0
M  V30 5614 C 516.804 2.29387 -0.255008 0
M  V30 5615 C 517.774 1.53923 0.624243 0
M  V30 5616 O 518.959 1.82262 0.564372 0
M  V30 5617 C 516.099 3.4034 0.571209 0
M  V30 5618 C 515.212 4.30729 -0.331083 0
M  V30 5619 C 514.347 5.2879 0.505389 0
M  V30 5620 C 513.386 6.10819 -0.395843 0
M  V30 5621 N 512.523 7.00948 0.401979 0
M  V30 5622 H 517.363 2.77972 -1.07404 0
M  V30 5623 H 514.9 1.36785 -0.541133 0
M  V30 5624 H 516.858 4.03361 1.06562 0
M  V30 5625 H 515.488 2.9297 1.35529 0
M  V30 5626 H 514.54 3.68507 -0.943759 0
M  V30 5627 H 515.852 4.88181 -1.02377 0
M  V30 5628 H 515.006 5.97297 1.06399 0
M  V30 5629 H 513.745 4.71894 1.23155 0
M  V30 5630 H 512.75 5.41238 -0.966529 0
M  V30 5631 H 513.975 6.69797 -1.12023 0
M  V30 5632 H 511.921 6.46512 1.11168 0
M  V30 5633 H 511.838 7.55643 -0.232167 0
M  V30 5634 H 513.106 7.73774 0.943102 0
M  V30 5635 N 517.335 0.585699 1.46312 0
M  V30 5636 C 518.581 0.0808731 2.03239 0
M  V30 5637 C 518.936 -1.26609 1.44872 0
M  V30 5638 O 518.229 -1.81779 0.60556 0
M  V30 5639 C 518.423 -0.0401312 3.57377 0
M  V30 5640 C 518.252 1.29356 4.30694 0
M  V30 5641 C 517.022 1.86849 4.69484 0
M  V30 5642 C 519.22 2.21742 4.64042 0
M  V30 5643 N 517.202 3.13926 5.27564 0
M  V30 5644 C 518.573 3.33408 5.22723 0
M  V30 5645 C 520.628 2.21386 4.45974 0
M  V30 5646 C 519.331 4.44852 5.65242 0
M  V30 5647 C 521.357 3.31862 4.89511 0
M  V30 5648 C 520.719 4.42248 5.48266 0
M  V30 5649 H 516.818 0.072443 0.778637 0
M  V30 5650 H 519.402 0.779254 1.78426 0
M  V30 5651 H 517.573 -0.707686 3.81898 0
M  V30 5652 H 519.305 -0.549615 4.00951 0
M  V30 5653 H 516.06 1.40307 4.52339 0
M  V30 5654 H 516.484 3.78775 5.61122 0
M  V30 5655 H 521.126 1.37314 3.99881 0
M  V30 5656 H 518.844 5.29665 6.10312 0
M  V30 5657 H 522.43 3.32708 4.7728 0
M  V30 5658 H 521.31 5.26323 5.81338 0
M  V30 5659 N 518.813 -1.54241 0.323641 0
M  V30 5660 C 520.062 -1.9975 -0.279806 0
M  V30 5661 C 520.375 -1.2156 -1.5324 0
M  V30 5662 O 521.581 -1.57447 -2.21185 0
M  V30 5663 C 520.037 -3.55686 -0.549115 0
M  V30 5664 C 519.645 -4.4271 0.686432 0
M  V30 5665 C 521.389 -4.09663 -1.11251 0
M  V30 5666 C 519.296 -5.90119 0.389022 0
M  V30 5667 H 518.226 -0.746177 -0.10833 0
M  V30 5668 H 520.877 -1.78248 0.435877 0
M  V30 5669 H 519.259 -3.73176 -1.32499 0
M  V30 5670 H 520.433 -4.36996 1.46188 0
M  V30 5671 H 518.748 -3.99623 1.17005 0
M  V30 5672 H 521.345 -5.17386 -1.34965 0
M  V30 5673 H 521.688 -3.61651 -2.06191 0
M  V30 5674 H 522.221 -3.95806 -0.39782 0
M  V30 5675 H 518.96 -6.42326 1.30759 0
M  V30 5676 H 518.48 -5.98785 -0.348722 0
M  V30 5677 H 520.159 -6.47 -0.0011164 0
M  V30 5678 N 520.291 -0.0518155 -1.57515 0
M  V30 5679 C 521.537 0.616839 -1.93821 0
M  V30 5680 C 521.892 1.68413 -0.930307 0
M  V30 5681 O 521.185 1.91534 0.0504231 0
M  V30 5682 C 521.379 1.25607 -3.34601 0
M  V30 5683 C 521.208 0.252222 -4.48992 0
M  V30 5684 C 519.978 -0.156031 -5.05059 0
M  V30 5685 C 522.176 -0.502613 -5.11838 0
M  V30 5686 N 520.158 -1.15267 -6.02981 0
M  V30 5687 C 521.529 -1.35232 -6.05072 0
M  V30 5688 C 523.584 -0.560855 -4.94731 0
M  V30 5689 C 522.287 -2.25505 -6.83037 0
M  V30 5690 C 524.313 -1.45102 -5.73323 0
M  V30 5691 C 523.675 -2.28845 -6.6619 0
M  V30 5692 H 519.774 0.197344 -0.75669 0
M  V30 5693 H 522.358 -0.124297 -1.94303 0
M  V30 5694 H 520.529 1.96723 -3.34895 0
M  V30 5695 H 522.261 1.88358 -3.58195 0
M  V30 5696 H 519.016 0.22306 -4.73074 0
M  V30 5697 H 519.44 -1.64791 -6.56638 0
M  V30 5698 H 524.082 0.0723639 -4.22738 0
M  V30 5699 H 521.8 -2.89872 -7.54321 0
M  V30 5700 H 525.386 -1.50066 -5.62113 0
M  V30 5701 H 524.266 -2.96608 -7.25943 0
M  V30 5702 N 521.769 1.56035 0.221574 0
M  V30 5703 C 522.699 1.95434 1.2778 0
M  V30 5704 C 523.68 0.822564 1.48889 0
M  V30 5705 O 524.865 1.08486 1.61072 0
M  V30 5706 C 521.995 2.27102 2.62759 0
M  V30 5707 C 520.949 3.4277 2.56306 0
M  V30 5708 C 520.275 3.60043 3.95314 0
M  V30 5709 C 521.575 4.77742 2.11093 0
M  V30 5710 H 523.269 2.83912 0.950504 0
M  V30 5711 H 520.815 1.36596 0.455791 0
M  V30 5712 H 522.768 2.53256 3.36807 0
M  V30 5713 H 521.492 1.35478 2.97176 0
M  V30 5714 H 520.151 3.16664 1.84715 0
M  V30 5715 H 519.799 2.65794 4.27039 0
M  V30 5716 H 519.499 4.37841 3.91879 0
M  V30 5717 H 521.023 3.88545 4.71025 0
M  V30 5718 H 522.437 5.03102 2.74885 0
M  V30 5719 H 520.834 5.58823 2.18716 0
M  V30 5720 H 521.904 4.731 1.06321 0
M  V30 5721 N 523.247 -0.488276 1.49845 0
M  V30 5722 C 524.194 -1.58836 1.67451 0
M  V30 5723 C 525.164 -1.57886 0.515857 0
M  V30 5724 O 526.349 -1.75679 0.744403 0
M  V30 5725 C 523.489 -2.96915 1.75885 0
M  V30 5726 C 522.602 -3.07784 3.03138 0
M  V30 5727 C 521.737 -4.36673 3.02473 0
M  V30 5728 C 520.776 -4.41222 4.24252 0
M  V30 5729 N 519.913 -5.61557 4.21424 0
M  V30 5730 H 524.753 -1.43131 2.61376 0
M  V30 5731 H 522.29 -0.696186 1.29583 0
M  V30 5732 H 524.248 -3.76965 1.78755 0
M  V30 5733 H 522.878 -3.11295 0.85414 0
M  V30 5734 H 521.93 -2.20717 3.09819 0
M  V30 5735 H 523.242 -3.07005 3.93128 0
M  V30 5736 H 522.396 -5.25055 3.03977 0
M  V30 5737 H 521.135 -4.40037 2.10283 0
M  V30 5738 H 520.14 -3.5124 4.22978 0
M  V30 5739 H 521.365 -4.39564 5.17649 0
M  V30 5740 H 519.311 -5.65738 3.32078 0
M  V30 5741 H 519.228 -5.62447 5.05163 0
M  V30 5742 H 520.496 -6.52111 4.2705 0
M  V30 5743 O 524.764 -1.48549 -0.633678 0
M  V30 5744 H 525.455 -1.447 -1.28769 0
M  V30 END ATOM
M  V30 BEGIN BOND
M  V30 END BOND
M  V30 END CTAB
M  END
$$$$
