drugbank_target|A9JQL9 Dehydrosqualene synthase (DB04695; DB07420; DB07424)
 OpenBabel12092120423D

  0  0  0     0  0            999 V3000
M  V30 BEGIN CTAB
M  V30 COUNTS 4774 4831 0 0 0
M  V30 BEGIN ATOM
M  V30 1 H -0.908 1.98254 -0.117106 0
M  V30 2 N 0 1.576 0 0
M  V30 3 C 0.933 2.03868 1.02534 0
M  V30 4 C 1.911 0.928543 1.3348 0
M  V30 5 O 3.095 1.19667 1.45644 0
M  V30 6 C 0.222 2.43627 2.35294 0
M  V30 7 C -0.732 3.65373 2.2001 0
M  V30 8 S 0.101 5.13292 1.52614 0
M  V30 9 C 1.257 5.56322 2.86805 0
M  V30 10 H 1.49 2.90518 0.631377 0
M  V30 11 H -0.977 1.52953 0.210867 0
M  V30 12 H 0.981 2.67203 3.11629 0
M  V30 13 H -0.358 1.57376 2.7183 0
M  V30 14 H -1.165 3.90944 3.18086 0
M  V30 15 H -1.563 3.418 1.51819 0
M  V30 16 H 0.729 5.58782 3.83104 0
M  V30 17 H 1.672 6.56266 2.65933 0
M  V30 18 H 2.08 4.83886 2.90714 0
M  V30 19 N 1.4781 -0.272755 1.55222 0
M  V30 20 C 2.7061 -1.02255 1.79865 0
M  V30 21 C 3.1211 -1.79924 0.572088 0
M  V30 22 O 2.4781 -1.76638 -0.458842 0
M  V30 23 C 2.5291 -1.98094 3.02392 0
M  V30 24 O 2.2501 -1.23572 4.20311 0
M  V30 25 C 3.7511 -2.84884 3.39641 0
M  V30 26 H 0.9711 -0.302057 0.599168 0
M  V30 27 H 3.5151 -0.303465 2.02236 0
M  V30 28 H 1.6701 -2.65465 2.82147 0
M  V30 29 H 2.0841 -1.88172 4.89583 0
M  V30 30 H 3.5581 -3.47927 4.28545 0
M  V30 31 H 4.0351 -3.54665 2.59055 0
M  V30 32 H 4.6411 -2.23003 3.62146 0
M  V30 33 N 2.9562 -1.48159 -0.537278 0
M  V30 34 C 3.8892 -1.567 -1.65893 0
M  V30 35 C 4.8672 -0.41787 -1.57139 0
M  V30 36 O 6.0512 -0.628461 -1.77715 0
M  V30 37 C 3.1782 -1.48818 -3.04255 0
M  V30 38 C 2.2242 -2.68482 -3.31391 0
M  V30 39 S 3.0572 -4.30516 -3.1846 0
M  V30 40 C 4.2132 -4.2522 -4.59281 0
M  V30 41 H 4.4462 -2.5159 -1.58397 0
M  V30 42 H 1.9792 -1.36602 -0.719672 0
M  V30 43 H 3.9372 -1.44958 -3.84054 0
M  V30 44 H 2.5982 -0.552777 -3.09198 0
M  V30 45 H 1.7912 -2.59085 -4.32309 0
M  V30 46 H 1.3932 -2.69567 -2.59248 0
M  V30 47 H 3.6852 -3.94703 -5.5065 0
M  V30 48 H 4.6282 -5.26292 -4.73732 0
M  V30 49 H 5.0362 -3.55791 -4.38261 0
M  V30 50 N 4.4343 0.785586 -1.36625 0
M  V30 51 C 5.3673 1.90509 -1.25625 0
M  V30 52 C 6.3453 1.62 -0.139607 0
M  V30 53 O 7.5293 1.8591 -0.31141 0
M  V30 54 C 4.6563 3.25419 -0.939158 0
M  V30 55 C 3.7023 3.72856 -2.07077 0
M  V30 56 S 4.5353 3.88162 -3.68904 0
M  V30 57 C 5.6913 5.25942 -3.39317 0
M  V30 58 H 5.9243 1.99549 -2.20381 0
M  V30 59 H 3.4573 0.945226 -1.22085 0
M  V30 60 H 5.4153 4.03346 -0.763029 0
M  V30 61 H 4.0763 3.14099 -0.00931402 0
M  V30 62 H 3.2693 4.70624 -1.80357 0
M  V30 63 H 2.8713 3.01989 -2.20632 0
M  V30 64 H 5.1633 6.10651 -2.93447 0
M  V30 65 H 6.1063 5.57668 -4.36363 0
M  V30 66 H 6.5143 4.93224 -2.74573 0
M  V30 67 N 5.9124 1.20967 1.01018 0
M  V30 68 C 7.1894 0.93264 1.71934 0
M  V30 69 C 7.5694 -0.55692 2.03621 0
M  V30 70 O 6.9174 -1.52035 1.7058 0
M  V30 71 C 7.1274 1.81233 2.98254 0
M  V30 72 C 8.4754 2.05804 3.71389 0
M  V30 73 O 9.4994 1.78539 3.08225 0
M  V30 74 O 8.3584 2.51888 4.84989 0
M  V30 75 H 5.4524 0.349272 0.749625 0
M  V30 76 H 7.9984 1.31871 1.06808 0
M  V30 77 H 6.7704 2.82067 2.71208 0
M  V30 78 H 6.3934 1.42674 3.7112 0
M  V30 79 N 7.3905 -1.2043 1.01659 0
M  V30 80 C 8.3235 -2.21924 0.531521 0
M  V30 81 C 9.3015 -1.57054 -0.421032 0
M  V30 82 O 10.4855 -1.85389 -0.341035 0
M  V30 83 C 7.6125 -3.37942 -0.226496 0
M  V30 84 C 6.6585 -4.21115 0.67561 0
M  V30 85 S 7.4915 -4.90674 2.14475 0
M  V30 86 C 8.6475 -6.10113 1.3969 0
M  V30 87 H 8.8805 -2.62725 1.3915 0
M  V30 88 H 6.4135 -1.30481 0.825479 0
M  V30 89 H 8.3715 -4.05196 -0.657738 0
M  V30 90 H 7.0325 -2.956 -1.06205 0
M  V30 91 H 6.2255 -5.03918 0.091108 0
M  V30 92 H 5.8275 -3.59115 1.04463 0
M  V30 93 H 8.1195 -6.7411 0.676897 0
M  V30 94 H 9.0625 -6.73022 2.20107 0
M  V30 95 H 9.4705 -5.57283 0.899786 0
M  V30 96 N 8.8686 -0.792821 -1.36206 0
M  V30 97 C 9.8166 -0.181555 -2.3189 0
M  V30 98 C 10.8106 0.661025 -1.55971 0
M  V30 99 O 12.0166 0.555728 -1.71206 0
M  V30 100 H 8.3916 -0.0399382 -0.750939 0
M  V30 101 H 10.3626 -1.00394 -2.81005 0
M  V30 102 C 9.1116 0.666444 -3.41253 0
M  V30 103 H 8.4346 0.0274489 -3.99791 0
M  V30 104 H 9.8746 1.06076 -4.10517 0
M  V30 105 C 8.3336 1.82614 -2.83114 0
M  V30 106 O 8.8636 2.9229 -2.75553 0
M  V30 107 N 7.0696 1.63333 -2.40356 0
M  V30 108 H 6.6166 0.741217 -2.46706 0
M  V30 109 H 6.5746 2.41087 -2.01803 0
M  V30 110 N 10.3467 1.47872 -0.545128 0
M  V30 111 C 11.5937 2.02493 -0.0165858 0
M  V30 112 C 11.9217 1.42073 1.32836 0
M  V30 113 O 11.1767 0.561459 1.87473 0
M  V30 114 C 11.4757 3.57131 0.13867 0
M  V30 115 C 11.1417 4.36411 -1.13384 0
M  V30 116 C 9.8037 4.57792 -1.48256 0
M  V30 117 C 12.1557 4.82223 -1.97764 0
M  V30 118 C 9.4837 5.22233 -2.67376 0
M  V30 119 C 11.8357 5.47977 -3.16076 0
M  V30 120 C 10.4997 5.67593 -3.51275 0
M  V30 121 H 9.7697 0.740975 -0.00606918 0
M  V30 122 H 12.4167 1.77683 -0.714207 0
M  V30 123 H 10.7217 3.80865 0.919172 0
M  V30 124 H 12.4187 3.97031 0.562782 0
M  V30 125 H 9.0087 4.2004 -0.852297 0
M  V30 126 H 13.1927 4.65493 -1.72132 0
M  V30 127 H 8.4487 5.35616 -2.94831 0
M  V30 128 H 12.6227 5.8244 -3.81755 0
M  V30 129 H 10.2497 6.17298 -4.43675 0
M  V30 130 N 11.8248 0.280983 1.55075 0
M  V30 131 C 12.7718 -0.603937 2.22758 0
M  V30 132 C 13.7418 -1.1452 1.20309 0
M  V30 133 O 14.9268 -1.19343 1.48869 0
M  V30 134 C 12.0668 -1.77947 2.95684 0
M  V30 135 C 11.1798 -1.2715 4.12864 0
M  V30 136 C 10.3148 -2.4093 4.7342 0
M  V30 137 C 9.3538 -1.87165 5.82783 0
M  V30 138 N 8.4908 -2.94441 6.37377 0
M  V30 139 H 13.3308 -0.020124 2.97993 0
M  V30 140 H 10.8678 0.00183425 1.471 0
M  V30 141 H 12.8258 -2.47055 3.36184 0
M  V30 142 H 11.4558 -2.33522 2.22861 0
M  V30 143 H 10.5078 -0.473331 3.77444 0
M  V30 144 H 11.8198 -0.837751 4.91715 0
M  V30 145 H 10.9738 -3.18021 5.1667 0
M  V30 146 H 9.7128 -2.87623 3.93859 0
M  V30 147 H 8.7178 -1.08556 5.38976 0
M  V30 148 H 9.9428 -1.41401 6.64216 0
M  V30 149 H 7.8888 -3.40505 5.60707 0
M  V30 150 H 7.8058 -2.55501 7.11516 0
M  V30 151 H 9.0738 -3.71489 6.85285 0
M  V30 152 N 13.3029 -1.57598 0.00835791 0
M  V30 153 C 14.5329 -1.94931 -0.684496 0
M  V30 154 C 14.9409 -0.882233 -1.67372 0
M  V30 155 O 14.2839 0.146621 -1.83114 0
M  V30 156 C 14.3459 -3.283 -1.4649 0
M  V30 157 C 14.0099 -4.52548 -0.63634 0
M  V30 158 C 15.0069 -5.19839 0.0795586 0
M  V30 159 C 12.6919 -4.98942 -0.579849 0
M  V30 160 C 14.6859 -6.3183 0.840843 0
M  V30 161 C 12.3729 -6.10819 0.185155 0
M  V30 162 C 13.3709 -6.77121 0.894227 0
M  V30 163 O 13.0589 -7.86853 1.64673 0
M  V30 164 H 12.7909 -0.647249 -0.19505 0
M  V30 165 H 15.3449 -2.05318 0.0581272 0
M  V30 166 H 13.5749 -3.14345 -2.2522 0
M  V30 167 H 15.2639 -3.50685 -2.04389 0
M  V30 168 H 16.0299 -4.84979 0.0451202 0
M  V30 169 H 11.9089 -4.47155 -1.1213 0
M  V30 170 H 15.4529 -6.83513 1.39483 0
M  V30 171 H 11.3499 -6.4512 0.221384 0
M  V30 172 H 12.1179 -8.03412 1.56432 0
M  V30 173 N 14.781 0.264519 -1.55364 0
M  V30 174 C 16.021 1.00254 -1.78125 0
M  V30 175 C 16.385 1.83187 -0.575017 0
M  V30 176 O 17.586 2.60029 -0.681042 0
M  V30 177 C 15.857 1.85478 -3.05504 0
M  V30 178 S 17.416 2.6543 -3.49417 0
M  V30 179 H 14.234 0.337522 -0.625779 0
M  V30 180 H 16.836 0.272111 -1.93597 0
M  V30 181 H 15.54 1.23491 -3.9138 0
M  V30 182 H 15.071 2.62827 -2.92721 0
M  V30 183 H 17.086 3.87958 -3.09359 0
M  V30 184 N 16.2591 1.48442 0.529413 0
M  V30 185 C 17.2091 1.59407 1.63014 0
M  V30 186 C 18.1931 0.451166 1.54445 0
M  V30 187 O 19.3851 0.702635 1.62456 0
M  V30 188 C 16.5141 1.63746 3.01732 0
M  V30 189 C 15.6001 2.83518 3.15402 0
M  V30 190 N 15.9911 4.07929 2.99045 0
M  V30 191 C 14.2891 2.80862 3.46457 0
M  V30 192 C 14.9901 4.8829 3.16146 0
M  V30 193 N 13.9661 4.21117 3.43746 0
M  V30 194 H 17.7681 2.53343 1.48978 0
M  V30 195 H 15.2821 1.44821 0.734885 0
M  V30 196 H 17.2791 1.69695 3.80801 0
M  V30 197 H 15.9391 0.709264 3.16859 0
M  V30 198 H 16.9501 4.38357 2.75796 0
M  V30 199 H 13.6271 1.97301 3.67938 0
M  V30 200 H 15.0171 5.97028 3.08232 0
M  V30 201 N 17.7372 -0.778329 1.37039 0
M  V30 202 C 18.6842 -1.89139 1.32269 0
M  V30 203 C 19.6542 -1.65017 0.189387 0
M  V30 204 O 20.8392 -1.87024 0.377693 0
M  V30 205 C 17.9792 -3.26112 1.12894 0
M  V30 206 C 17.0922 -3.62233 2.35396 0
M  V30 207 C 16.2272 -4.8838 2.08946 0
M  V30 208 C 15.2662 -5.17212 3.2735 0
M  V30 209 N 14.4032 -6.34546 3.00492 0
M  V30 210 H 19.2432 -1.92552 2.27437 0
M  V30 211 H 16.7802 -0.941473 1.13025 0
M  V30 212 H 18.7382 -4.05116 0.996835 0
M  V30 213 H 17.3682 -3.22091 0.213758 0
M  V30 214 H 16.4202 -2.78265 2.5937 0
M  V30 215 H 17.7322 -3.79481 3.23721 0
M  V30 216 H 16.8862 -5.75274 1.92729 0
M  V30 217 H 15.6252 -4.73222 1.17949 0
M  V30 218 H 14.6302 -4.28796 3.44113 0
M  V30 219 H 15.8552 -5.34283 4.19188 0
M  V30 220 H 13.8012 -6.20759 2.12118 0
M  V30 221 H 13.7182 -6.52179 3.82358 0
M  V30 222 H 14.9862 -7.24394 2.87879 0
M  V30 223 N 19.2153 -1.21501 -1.00376 0
M  V30 224 C 20.4643 -1.02718 -1.73586 0
M  V30 225 C 20.7773 0.439589 -1.90596 0
M  V30 226 O 21.9833 0.746848 -2.61026 0
M  V30 227 C 20.4393 -1.78929 -3.1227 0
M  V30 228 C 20.0473 -3.29783 -3.03228 0
M  V30 229 C 21.7913 -1.68557 -3.89601 0
M  V30 230 C 19.6983 -3.98479 -4.36999 0
M  V30 231 H 18.6283 -0.380733 -0.650814 0
M  V30 232 H 21.2793 -1.45248 -1.1214 0
M  V30 233 H 19.6613 -1.29192 -3.74333 0
M  V30 234 H 20.8353 -3.86832 -2.50395 0
M  V30 235 H 19.1503 -3.40711 -2.39385 0
M  V30 236 H 21.7473 -2.17211 -4.88593 0
M  V30 237 H 22.0903 -0.644021 -4.11288 0
M  V30 238 H 22.6233 -2.15778 -3.34193 0
M  V30 239 H 19.3623 -5.02841 -4.20513 0
M  V30 240 H 18.8823 -3.46219 -4.89788 0
M  V30 241 H 20.5613 -4.03462 -5.05794 0
M  V30 242 N 20.6934 1.19889 -1.02296 0
M  V30 243 C 21.6264 2.21639 -0.543282 0
M  V30 244 C 22.6044 1.57275 0.412698 0
M  V30 245 O 23.7884 1.85568 0.331198 0
M  V30 246 C 20.9154 3.38057 0.208571 0
M  V30 247 C 19.9614 4.20751 -0.697933 0
M  V30 248 S 20.7944 4.89529 -2.17075 0
M  V30 249 C 21.9504 6.09363 -1.42923 0
M  V30 250 H 22.1834 2.61984 -1.40541 0
M  V30 251 H 19.7164 1.30041 -0.832387 0
M  V30 252 H 21.6744 4.05539 0.63624 0
M  V30 253 H 20.3354 2.96159 1.04635 0
M  V30 254 H 19.5284 5.03862 -0.117831 0
M  V30 255 H 19.1304 3.58556 -1.06366 0
M  V30 256 H 21.4224 6.73742 -0.712637 0
M  V30 257 H 22.3654 6.71845 -2.23673 0
M  V30 258 H 22.7734 5.56798 -0.929327 0
M  V30 259 N 22.1715 0.800033 1.35784 0
M  V30 260 C 23.1185 0.203848 2.29898 0
M  V30 261 C 24.0885 -0.658375 1.52495 0
M  V30 262 O 25.2735 -0.604832 1.8096 0
M  V30 263 C 22.4135 -0.64688 3.38983 0
M  V30 264 C 21.5265 0.235054 4.3136 0
M  V30 265 C 20.6615 -0.623054 5.27533 0
M  V30 266 C 19.7005 0.259682 6.11549 0
M  V30 267 N 18.8375 -0.558019 6.99879 0
M  V30 268 H 23.6775 1.01186 2.80295 0
M  V30 269 H 21.2145 0.51053 1.37957 0
M  V30 270 H 23.1725 -1.15521 4.00887 0
M  V30 271 H 21.8025 -1.42021 2.89879 0
M  V30 272 H 20.8545 0.861438 3.70518 0
M  V30 273 H 22.1665 0.914768 4.9034 0
M  V30 274 H 21.3205 -1.19678 5.94779 0
M  V30 275 H 20.0595 -1.33636 4.69034 0
M  V30 276 H 19.0645 0.845726 5.43256 0
M  V30 277 H 20.2895 0.970748 6.72126 0
M  V30 278 H 18.2355 -1.25542 6.43875 0
M  V30 279 H 18.1525 0.0637872 7.55973 0
M  V30 280 H 19.4205 -1.11523 7.71481 0
M  V30 281 N 23.6496 -1.47581 0.552962 0
M  V30 282 C 24.5966 -2.29957 -0.197108 0
M  V30 283 C 25.5666 -1.38799 -0.912359 0
M  V30 284 O 26.7516 -1.67761 -0.908888 0
M  V30 285 C 23.8916 -3.22672 -1.22379 0
M  V30 286 C 23.0046 -4.28919 -0.515038 0
M  V30 287 C 22.1396 -5.0879 -1.52664 0
M  V30 288 C 21.1786 -6.06815 -0.802631 0
M  V30 289 N 20.3156 -6.7966 -1.76086 0
M  V30 290 H 25.1556 -2.93578 0.511486 0
M  V30 291 H 22.6926 -1.4471 0.264067 0
M  V30 292 H 24.6506 -3.74845 -1.83159 0
M  V30 293 H 23.2806 -2.60925 -1.90047 0
M  V30 294 H 22.3326 -3.79835 0.207192 0
M  V30 295 H 23.6446 -4.98773 0.0523425 0
M  V30 296 H 22.7986 -5.65091 -2.20809 0
M  V30 297 H 21.5376 -4.38828 -2.12794 0
M  V30 298 H 20.5426 -5.49695 -0.107238 0
M  V30 299 H 21.7676 -6.78784 -0.207135 0
M  V30 300 H 19.7136 -6.12432 -2.35081 0
M  V30 301 H 19.6306 -7.45669 -1.24552 0
M  V30 302 H 20.8986 -7.40538 -2.43359 0
M  V30 303 N 25.1277 -0.289203 -1.54924 0
M  V30 304 C 26.0777 0.606939 -2.19773 0
M  V30 305 C 27.0617 1.10783 -1.16687 0
M  V30 306 O 28.2537 1.05057 -1.4245 0
M  V30 307 C 25.3827 1.78398 -2.93307 0
M  V30 308 C 24.4687 1.29961 -4.03697 0
M  V30 309 N 24.8597 0.532377 -5.0299 0
M  V30 310 C 23.1577 1.58136 -4.17024 0
M  V30 311 C 23.8587 0.275912 -5.81045 0
M  V30 312 N 22.8347 0.852365 -5.36876 0
M  V30 313 H 26.6367 0.0130779 -2.93897 0
M  V30 314 H 24.1507 -0.09341 -1.62131 0
M  V30 315 H 26.1477 2.43741 -3.38225 0
M  V30 316 H 24.8077 2.38166 -2.20697 0
M  V30 317 H 25.8187 0.17838 -5.17593 0
M  V30 318 H 22.4957 2.18738 -3.55612 0
M  V30 319 H 23.8857 -0.339502 -6.71042 0
M  V30 320 N 26.6058 1.57591 -0.0167156 0
M  V30 321 C 27.8308 1.9598 0.67872 0
M  V30 322 C 28.2558 0.892546 1.65575 0
M  V30 323 O 27.6138 -0.147772 1.80697 0
M  V30 324 C 27.6618 3.33468 1.37227 0
M  V30 325 O 26.7658 3.28954 2.48722 0
M  V30 326 H 26.1068 0.639339 0.17928 0
M  V30 327 H 28.6368 2.04463 -0.0748802 0
M  V30 328 H 28.6468 3.69417 1.7319 0
M  V30 329 H 27.3218 4.10694 0.656007 0
M  V30 330 H 25.8988 3.04705 2.14963 0
M  V30 331 N 28.0839 -0.256276 1.55502 0
M  V30 332 C 29.0309 -1.31714 1.89526 0
M  V30 333 C 30.0009 -1.4828 0.748479 0
M  V30 334 O 31.1859 -1.62416 1.00128 0
M  V30 335 C 28.3259 -2.66933 2.18725 0
M  V30 336 C 27.4389 -2.58452 3.4616 0
M  V30 337 C 26.5739 -3.85961 3.64976 0
M  V30 338 C 25.6129 -3.72059 4.86044 0
M  V30 339 N 24.7499 -4.9144 5.01429 0
M  V30 340 H 29.5899 -1.01998 2.80001 0
M  V30 341 H 27.1269 -0.492413 1.38613 0
M  V30 342 H 29.0849 -3.4563 2.33657 0
M  V30 343 H 27.7149 -2.94816 1.31466 0
M  V30 344 H 26.7669 -1.71374 3.3961 0
M  V30 345 H 28.0789 -2.44085 4.34999 0
M  V30 346 H 27.2329 -4.73101 3.79816 0
M  V30 347 H 25.9719 -4.03215 2.74353 0
M  V30 348 H 24.9769 -2.83302 4.7119 0
M  V30 349 H 26.2019 -3.56309 5.78118 0
M  V30 350 H 24.1479 -5.09072 4.13741 0
M  V30 351 H 24.0649 -4.79668 5.84341 0
M  V30 352 H 25.3329 -5.80104 5.20672 0
M  V30 353 N 29.562 -1.4872 -0.521534 0
M  V30 354 C 30.787 -1.61101 -1.30618 0
M  V30 355 C 31.212 -0.274611 -1.86085 0
M  V30 356 O 30.57 0.754937 -1.64834 0
M  V30 357 C 30.618 -2.66709 -2.4269 0
M  V30 358 O 29.722 -2.24456 -3.45967 0
M  V30 359 H 29.063 -0.539921 -0.386499 0
M  V30 360 H 31.593 -1.94767 -0.626645 0
M  V30 361 H 31.603 -2.88245 -2.88754 0
M  V30 362 H 30.278 -3.63727 -2.01682 0
M  V30 363 H 28.855 -2.13168 -3.05964 0
M  V30 364 N 31.0401 0.771051 -1.3745 0
M  V30 365 C 32.2871 1.52963 -1.32697 0
M  V30 366 C 32.6151 1.94299 0.0883274 0
M  V30 367 O 31.8701 1.64397 1.0617 0
M  V30 368 C 32.1691 2.80676 -2.2126 0
M  V30 369 C 31.8351 2.58389 -3.69521 0
M  V30 370 C 30.4971 2.52019 -4.09927 0
M  V30 371 C 32.8491 2.38469 -4.63446 0
M  V30 372 C 30.1771 2.23721 -5.42371 0
M  V30 373 C 32.5291 2.11694 -5.96128 0
M  V30 374 C 31.1931 2.03769 -6.35637 0
M  V30 375 H 30.4631 0.559732 -0.485573 0
M  V30 376 H 33.1101 0.888083 -1.69662 0
M  V30 377 H 31.4151 3.49392 -1.77291 0
M  V30 378 H 33.1121 3.38557 -2.14895 0
M  V30 379 H 29.7021 2.6421 -3.37478 0
M  V30 380 H 33.8861 2.4238 -4.33089 0
M  V30 381 H 29.1421 2.16081 -5.71943 0
M  V30 382 H 33.3161 1.9528 -6.6846 0
M  V30 383 H 30.9431 1.81606 -7.38189 0
M  V30 384 N 32.5182 1.22032 0.997298 0
M  V30 385 C 33.7432 1.06921 1.77715 0
M  V30 386 C 34.1682 -0.376226 1.84299 0
M  V30 387 O 33.5262 -1.27165 1.29223 0
M  V30 388 C 33.5742 1.67996 3.19076 0
M  V30 389 O 32.6782 0.930653 4.01762 0
M  V30 390 H 32.0192 0.375814 0.547412 0
M  V30 391 H 34.5492 1.61737 1.25309 0
M  V30 392 H 34.5592 1.72538 3.69723 0
M  V30 393 H 33.2342 2.73182 3.13599 0
M  V30 394 H 31.8112 0.960917 3.60307 0
M  V30 395 N 33.9963 -1.19345 1.0293 0
M  V30 396 C 35.2263 -1.92717 0.744563 0
M  V30 397 C 35.6343 -1.75751 -0.700579 0
M  V30 398 O 34.9773 -1.07703 -1.48815 0
M  V30 399 C 35.0393 -3.44828 1.01657 0
M  V30 400 C 34.7033 -3.85564 2.45335 0
M  V30 401 C 35.7003 -3.90286 3.43472 0
M  V30 402 C 33.3853 -4.1719 2.79746 0
M  V30 403 C 35.3793 -4.26065 4.74075 0
M  V30 404 C 33.0663 -4.52642 4.10559 0
M  V30 405 C 34.0643 -4.57054 5.07534 0
M  V30 406 O 33.7523 -4.91685 6.36004 0
M  V30 407 H 33.4843 -0.618977 0.271742 0
M  V30 408 H 36.0383 -1.52415 1.37691 0
M  V30 409 H 34.2683 -3.85314 0.327084 0
M  V30 410 H 35.9573 -3.99437 0.721427 0
M  V30 411 H 36.7233 -3.66002 3.18225 0
M  V30 412 H 32.6023 -4.1294 2.04943 0
M  V30 413 H 36.1463 -4.29423 5.49765 0
M  V30 414 H 32.0433 -4.76383 4.35579 0
M  V30 415 H 32.8113 -5.09631 6.40483 0
M  V30 416 N 35.4744 -0.807222 -1.35358 0
M  V30 417 C 36.4374 -0.223665 -2.28106 0
M  V30 418 C 37.4374 0.589354 -1.4961 0
M  V30 419 O 38.6274 0.407745 -1.69361 0
M  V30 420 C 35.7594 0.688149 -3.33882 0
M  V30 421 H 36.9524 -1.04169 -2.81227 0
M  V30 422 H 34.5054 -0.577921 -1.45223 0
M  V30 423 H 35.2404 1.52984 -2.85948 0
M  V30 424 H 35.0254 0.10687 -3.91954 0
M  V30 425 H 36.5154 1.09075 -4.03104 0
M  V30 426 N 36.9525 1.47285 -0.560781 0
M  V30 427 C 38.1995 2.02464 -0.038062 0
M  V30 428 C 38.5275 1.43474 1.31322 0
M  V30 429 O 37.7825 0.581311 1.86867 0
M  V30 430 C 38.0815 3.57258 0.100784 0
M  V30 431 C 37.7475 4.35184 -1.18007 0
M  V30 432 C 36.4095 4.56194 -1.53103 0
M  V30 433 C 38.7615 4.80098 -2.02867 0
M  V30 434 C 36.0895 5.19367 -2.729 0
M  V30 435 C 38.4415 5.44593 -3.21871 0
M  V30 436 C 37.1055 5.63835 -3.57276 0
M  V30 437 H 36.3755 0.740869 -0.0139279 0
M  V30 438 H 39.0225 1.76916 -0.733012 0
M  V30 439 H 37.3275 3.81819 0.878724 0
M  V30 440 H 39.0245 3.97606 0.520639 0
M  V30 441 H 35.6145 4.19113 -0.8968 0
M  V30 442 H 39.7985 4.63642 -1.7706 0
M  V30 443 H 35.0545 5.32459 -3.00496 0
M  V30 444 H 39.2285 5.78358 -3.87911 0
M  V30 445 H 36.8555 6.12557 -4.50197 0
M  V30 446 N 38.4306 0.297415 1.54768 0
M  V30 447 C 39.7076 -0.365847 1.92148 0
M  V30 448 C 40.0876 -1.71975 1.22424 0
M  V30 449 O 39.4356 -2.25666 0.358739 0
M  V30 450 C 39.6456 -0.484056 3.45627 0
M  V30 451 C 40.9936 -0.756594 4.17805 0
M  V30 452 O 42.0176 -0.568007 3.51642 0
M  V30 453 O 40.8766 -1.11863 5.34929 0
M  V30 454 H 37.9706 -0.203919 0.801465 0
M  V30 455 H 40.5166 0.34521 1.66152 0
M  V30 456 H 39.2886 0.467865 3.88493 0
M  V30 457 H 38.9116 -1.24372 3.77647 0
M  V30 458 N 39.9087 -1.5758 0.0250728 0
M  V30 459 C 40.8387 -2.13007 -0.956575 0
M  V30 460 C 41.8197 -1.0452 -1.342 0
M  V30 461 O 43.0047 -1.32332 -1.42133 0
M  V30 462 C 40.1347 -2.65386 -2.24026 0
M  V30 463 C 39.0887 -3.78623 -1.99571 0
M  V30 464 C 38.4147 -4.17414 -3.3417 0
M  V30 465 C 39.7147 -5.04867 -1.33814 0
M  V30 466 H 41.4087 -2.9528 -0.494991 0
M  V30 467 H 38.9547 -1.42042 -0.236651 0
M  V30 468 H 40.9077 -3.02794 -2.93076 0
M  V30 469 H 39.6317 -1.80268 -2.72343 0
M  V30 470 H 38.2907 -3.41646 -1.32941 0
M  V30 471 H 37.9387 -3.29284 -3.80238 0
M  V30 472 H 37.6387 -4.93719 -3.18615 0
M  V30 473 H 39.1627 -4.57402 -4.04495 0
M  V30 474 H 40.5767 -5.39888 -1.92857 0
M  V30 475 H 38.9737 -5.86144 -1.28669 0
M  V30 476 H 40.0437 -4.83904 -0.310561 0
M  V30 477 N 41.3868 0.248026 -1.55636 0
M  V30 478 C 42.3168 1.31079 -1.93237 0
M  V30 479 C 43.2978 1.50264 -0.797174 0
M  V30 480 O 44.4828 1.62891 -1.05737 0
M  V30 481 C 41.6128 2.66575 -2.22609 0
M  V30 482 C 40.5668 2.62087 -3.3837 0
M  V30 483 C 39.8928 4.01369 -3.53281 0
M  V30 484 C 41.1928 2.19171 -4.7409 0
M  V30 485 H 42.8868 0.998556 -2.82257 0
M  V30 486 H 40.4328 0.47891 -1.35803 0
M  V30 487 H 42.3858 3.41057 -2.47503 0
M  V30 488 H 41.1098 2.99432 -1.30414 0
M  V30 489 H 39.7688 1.90063 -3.13483 0
M  V30 490 H 39.4168 4.31489 -2.58508 0
M  V30 491 H 39.1168 3.99254 -4.31127 0
M  V30 492 H 40.6408 4.77552 -3.80495 0
M  V30 493 H 42.0548 2.83384 -4.98363 0
M  V30 494 H 40.4518 2.2817 -5.5503 0
M  V30 495 H 41.5218 1.14336 -4.71227 0
M  V30 496 N 42.8649 1.48995 0.513639 0
M  V30 497 C 44.2759 1.5119 1.09537 0
M  V30 498 C 44.6269 0.290906 1.94031 0
M  V30 499 O 43.7519 -0.60049 2.07902 0
M  V30 500 C 44.3469 2.73964 1.99322 0
M  V30 501 C 42.9059 2.78978 2.52682 0
M  V30 502 C 42.0529 2.44934 1.30009 0
M  V30 503 H 45.0039 1.55875 0.298125 0
M  V30 504 H 45.0249 2.53409 2.83838 0
M  V30 505 H 44.5369 3.62813 1.37799 0
M  V30 506 H 42.6379 1.94378 3.1788 0
M  V30 507 H 42.7509 3.8083 2.90698 0
M  V30 508 H 41.1149 1.9644 1.62122 0
M  V30 509 H 41.8979 3.36043 0.702131 0
M  V30 510 N 44.343 -0.763751 1.37857 0
M  V30 511 C 45.253 -1.90817 1.36478 0
M  V30 512 C 46.269 -1.71997 0.263248 0
M  V30 513 O 47.445 -1.95095 0.499979 0
M  V30 514 C 44.51 -3.2605 1.17864 0
M  V30 515 C 43.571 -3.57467 2.3773 0
M  V30 516 C 42.804 -4.86249 2.19995 0
M  V30 517 O 43.027 -5.57884 1.18836 0
M  V30 518 O 41.961 -5.16911 3.08361 0
M  V30 519 H 45.787 -1.94933 2.32884 0
M  V30 520 H 43.372 -0.907619 1.1867 0
M  V30 521 H 45.254 -4.06924 1.09504 0
M  V30 522 H 43.929 -3.22769 0.245372 0
M  V30 523 H 42.836 -2.76796 2.51664 0
M  V30 524 H 44.169 -3.655 3.29652 0
M  V30 525 N 45.8211 -1.22559 -0.990812 0
M  V30 526 C 47.0981 -0.959875 -1.70428 0
M  V30 527 C 47.4781 0.524455 -2.04481 0
M  V30 528 O 46.8261 1.49302 -1.72977 0
M  V30 529 C 47.0361 -1.85955 -2.95333 0
M  V30 530 C 48.3841 -2.11687 -3.68068 0
M  V30 531 O 49.4081 -1.8342 -3.05345 0
M  V30 532 O 48.2671 -2.59572 -4.80921 0
M  V30 533 H 45.3611 -0.361154 -0.743974 0
M  V30 534 H 47.9071 -1.33554 -1.04697 0
M  V30 535 H 46.6791 -2.86346 -2.66687 0
M  V30 536 H 46.3021 -1.4856 -3.68803 0
M  V30 537 N 47.2992 1.18797 -1.03562 0
M  V30 538 C 48.2312 2.21731 -0.580337 0
M  V30 539 C 49.2442 1.59051 0.347349 0
M  V30 540 O 50.4332 1.77929 0.142669 0
M  V30 541 C 47.5332 3.38459 0.172805 0
M  V30 542 C 46.7062 4.3072 -0.761496 0
M  V30 543 C 45.7652 5.26174 -0.0525547 0
M  V30 544 O 44.7912 5.65108 -0.681333 0
M  V30 545 N 45.9932 5.67624 1.21586 0
M  V30 546 H 48.7582 2.61417 -1.46565 0
M  V30 547 H 46.3192 1.33531 -0.915476 0
M  V30 548 H 48.3112 3.99335 0.656793 0
M  V30 549 H 46.8812 2.97507 0.959602 0
M  V30 550 H 46.1012 3.67525 -1.42544 0
M  V30 551 H 47.3892 4.89267 -1.39626 0
M  V30 552 H 46.7872 5.38038 1.74732 0
M  V30 553 H 45.3442 6.30721 1.64421 0
M  V30 554 N 48.7773 0.814389 1.34928 0
M  V30 555 C 50.1933 0.499084 1.51596 0
M  V30 556 C 50.3933 -0.978319 1.76157 0
M  V30 557 O 49.4493 -1.76309 1.80752 0
M  V30 558 C 50.7623 1.35121 2.68631 0
M  V30 559 C 52.3103 1.34746 2.82511 0
M  V30 560 C 52.7853 2.18388 4.0258 0
M  V30 561 N 54.2763 2.15966 4.09772 0
M  V30 562 C 55.0113 2.77437 5.01813 0
M  V30 563 N 54.5073 3.47866 5.99134 0
M  V30 564 N 56.3003 2.67037 4.94619 0
M  V30 565 H 48.4513 1.7711 1.17243 0
M  V30 566 H 50.7143 0.754256 0.574284 0
M  V30 567 H 50.4203 2.40001 2.57085 0
M  V30 568 H 50.2943 1.00991 3.63429 0
M  V30 569 H 52.6813 0.30648 2.93504 0
M  V30 570 H 52.7623 1.72869 1.88547 0
M  V30 571 H 52.4063 3.2253 3.92347 0
M  V30 572 H 52.3363 1.77621 4.9574 0
M  V30 573 H 54.8273 1.64729 3.40107 0
M  V30 574 H 55.1403 3.92038 6.65977 0
M  V30 575 H 53.4853 3.51972 5.99284 0
M  V30 576 H 56.6763 2.11597 4.17546 0
M  V30 577 H 56.8493 3.15232 5.66156 0
M  V30 578 N 50.2554 -1.46986 0.568584 0
M  V30 579 C 51.2024 -2.30153 -0.172707 0
M  V30 580 C 52.1724 -1.39759 -0.897586 0
M  V30 581 O 53.3574 -1.68716 -0.891044 0
M  V30 582 C 50.4974 -3.23952 -1.1895 0
M  V30 583 C 49.6104 -4.29441 -0.469517 0
M  V30 584 C 48.7454 -5.1038 -1.47259 0
M  V30 585 C 47.7844 -6.07632 -0.738225 0
M  V30 586 N 46.9214 -6.8149 -1.68868 0
M  V30 587 H 51.7614 -2.93019 0.542596 0
M  V30 588 H 49.2984 -1.44422 0.279401 0
M  V30 589 H 51.2564 -3.76767 -1.79173 0
M  V30 590 H 49.8864 -2.62926 -1.87269 0
M  V30 591 H 48.9384 -3.79594 0.247467 0
M  V30 592 H 50.2504 -4.98689 0.105241 0
M  V30 593 H 49.4044 -5.67402 -2.14803 0
M  V30 594 H 48.1434 -4.4106 -2.08128 0
M  V30 595 H 47.1484 -5.49778 -0.0489293 0
M  V30 596 H 48.3734 -6.78966 -0.135129 0
M  V30 597 H 46.3194 -6.14891 -2.28573 0
M  V30 598 H 46.2364 -7.46948 -1.16636 0
M  V30 599 H 47.5044 -7.43078 -2.3549 0
M  V30 600 N 51.7335 -0.305618 -1.54608 0
M  V30 601 C 52.6965 0.555591 -2.22364 0
M  V30 602 C 53.6965 1.05768 -1.21119 0
M  V30 603 O 54.8865 0.952972 -1.45822 0
M  V30 604 C 52.0185 1.76974 -2.91364 0
M  V30 605 H 53.2115 -0.0364572 -2.99878 0
M  V30 606 H 50.7645 -0.0565007 -1.56198 0
M  V30 607 H 51.4995 2.40151 -2.17941 0
M  V30 608 H 51.2845 1.41732 -3.65588 0
M  V30 609 H 52.7745 2.38148 -3.43038 0
M  V30 610 N 53.2116 1.57565 -0.0334293 0
M  V30 611 C 54.4576 1.92262 0.645226 0
M  V30 612 C 54.7906 0.910543 1.71531 0
M  V30 613 O 54.0656 -0.066099 1.94388 0
M  V30 614 C 54.3486 3.37422 1.2577 0
M  V30 615 C 54.2016 4.49369 0.196891 0
M  V30 616 C 55.5206 3.82628 2.17449 0
M  V30 617 H 52.6396 0.699171 0.233085 0
M  V30 618 H 55.2816 1.89779 -0.0915694 0
M  V30 619 H 53.4316 3.39669 1.88566 0
M  V30 620 H 55.1036 4.59254 -0.433962 0
M  V30 621 H 53.3466 4.31168 -0.477137 0
M  V30 622 H 54.0176 5.47978 0.665124 0
M  V30 623 H 56.4936 3.82145 1.64634 0
M  V30 624 H 55.3696 4.84883 2.57254 0
M  V30 625 H 55.6306 3.18376 3.0674 0
M  V30 626 N 54.6897 -0.239769 1.55765 0
M  V30 627 C 55.9357 -0.963942 1.79108 0
M  V30 628 C 56.2907 -1.82689 0.60352 0
M  V30 629 O 55.5837 -1.87313 -0.403033 0
M  V30 630 C 55.7777 -1.852 3.05672 0
M  V30 631 C 55.6067 -1.07651 4.36625 0
M  V30 632 C 54.3767 -0.778738 4.99263 0
M  V30 633 C 56.5747 -0.45062 5.12322 0
M  V30 634 N 54.5567 0.0200708 6.13897 0
M  V30 635 C 55.9277 0.212429 6.19636 0
M  V30 636 C 57.9827 -0.361806 4.96584 0
M  V30 637 C 56.6857 0.955772 7.12922 0
M  V30 638 C 58.7117 0.368023 5.90254 0
M  V30 639 C 58.0737 1.01968 6.96981 0
M  V30 640 H 54.1727 -0.333601 0.707272 0
M  V30 641 H 56.7567 -0.236425 1.93259 0
M  V30 642 H 54.9277 -2.55149 2.92837 0
M  V30 643 H 56.6597 -2.51228 3.1728 0
M  V30 644 H 53.4147 -1.09229 4.60832 0
M  V30 645 H 53.8387 0.407777 6.75771 0
M  V30 646 H 58.4807 -0.851286 4.14141 0
M  V30 647 H 56.1987 1.45683 7.9486 0
M  V30 648 H 59.7847 0.437504 5.80153 0
M  V30 649 H 58.6647 1.5754 7.68213 0
M  V30 650 N 56.1678 -1.49265 -0.50573 0
M  V30 651 C 57.1308 -1.65075 -1.59006 0
M  V30 652 C 58.1308 -0.522768 -1.52065 0
M  V30 653 O 59.3208 -0.789117 -1.55302 0
M  V30 654 C 56.4528 -1.64369 -2.98656 0
M  V30 655 H 57.6458 -2.61784 -1.46319 0
M  V30 656 H 55.1988 -1.38226 -0.729616 0
M  V30 657 H 55.9338 -0.692272 -3.16825 0
M  V30 658 H 55.7188 -2.46282 -3.05103 0
M  V30 659 H 57.2088 -1.78674 -3.77446 0
M  V30 660 N 57.6459 0.756429 -1.3826 0
M  V30 661 C 58.8949 1.51082 -1.3363 0
M  V30 662 C 59.2079 1.95467 0.0720068 0
M  V30 663 O 60.4139 2.7043 0.240834 0
M  V30 664 C 58.8699 2.72893 -2.34644 0
M  V30 665 C 58.4779 2.35544 -3.81081 0
M  V30 666 C 60.2219 3.50791 -2.39052 0
M  V30 667 C 58.1289 3.53948 -4.73787 0
M  V30 668 H 57.0589 0.56727 -0.49671 0
M  V30 669 H 59.7099 0.827147 -1.638 0
M  V30 670 H 58.0919 3.43227 -1.97513 0
M  V30 671 H 59.2659 1.72894 -4.27135 0
M  V30 672 H 57.5809 1.70786 -3.79764 0
M  V30 673 H 60.1779 4.38823 -3.05513 0
M  V30 674 H 60.5209 3.91745 -1.40861 0
M  V30 675 H 61.0539 2.87467 -2.74968 0
M  V30 676 H 57.7929 3.18064 -5.73163 0
M  V30 677 H 57.3129 4.15651 -4.32428 0
M  V30 678 H 58.9919 4.20566 -4.91663 0
M  V30 679 N 59.124 1.23083 0.984299 0
M  V30 680 C 60.354 1.08556 1.75781 0
M  V30 681 C 60.762 -0.366171 1.85623 0
M  V30 682 O 60.105 -1.26524 1.33182 0
M  V30 683 C 60.167 1.63208 3.20318 0
M  V30 684 C 59.831 3.11922 3.33997 0
M  V30 685 C 60.828 4.09259 3.2063 0
M  V30 686 C 58.513 3.51552 3.58771 0
M  V30 687 C 60.507 5.4421 3.31835 0
M  V30 688 C 58.194 4.86649 3.69616 0
M  V30 689 C 59.192 5.82787 3.56157 0
M  V30 690 O 58.88 7.15431 3.66626 0
M  V30 691 H 58.612 0.380713 0.5586 0
M  V30 692 H 61.166 1.63321 1.2456 0
M  V30 693 H 59.396 1.0286 3.72769 0
M  V30 694 H 61.085 1.44216 3.79416 0
M  V30 695 H 61.851 3.79984 3.01392 0
M  V30 696 H 57.73 2.77239 3.6832 0
M  V30 697 H 61.274 6.1923 3.21247 0
M  V30 698 H 57.171 5.15601 3.88363 0
M  V30 699 H 57.939 7.23127 3.83445 0
M  V30 700 N 60.6021 -1.18246 1.0419 0
M  V30 701 C 61.5651 -2.20128 0.638452 0
M  V30 702 C 62.5651 -1.57885 -0.304805 0
M  V30 703 O 63.7551 -1.73967 -0.0900369 0
M  V30 704 C 60.8871 -3.4084 -0.0637751 0
M  V30 705 H 62.0801 -2.57336 1.54007 0
M  V30 706 H 59.6331 -1.32152 0.834598 0
M  V30 707 H 60.3681 -3.09166 -0.979136 0
M  V30 708 H 60.1531 -3.8726 0.614198 0
M  V30 709 H 61.6431 -4.16274 -0.332512 0
M  V30 710 N 62.0802 -0.821533 -1.34494 0
M  V30 711 C 63.3262 -0.409552 -1.98622 0
M  V30 712 C 63.6592 1.0244 -1.64984 0
M  V30 713 O 62.9342 1.71325 -0.920758 0
M  V30 714 C 63.2172 -0.610458 -3.54888 0
M  V30 715 C 63.0702 -2.09043 -3.98273 0
M  V30 716 C 64.3892 -0.0455379 -4.40076 0
M  V30 717 H 61.5082 -0.15028 -0.721516 0
M  V30 718 H 64.1502 -1.03384 -1.59411 0
M  V30 719 H 62.3002 -0.079044 -3.8842 0
M  V30 720 H 63.9722 -2.68537 -3.75081 0
M  V30 721 H 62.2152 -2.58139 -3.48635 0
M  V30 722 H 62.8862 -2.18182 -5.07051 0
M  V30 723 H 65.3622 -0.499557 -4.1309 0
M  V30 724 H 64.2382 -0.215922 -5.48475 0
M  V30 725 H 64.4992 1.04939 -4.29465 0
M  V30 726 N 63.5583 1.46682 -0.576371 0
M  V30 727 C 64.7983 2.04306 -0.0621356 0
M  V30 728 C 65.1623 1.4389 1.2712 0
M  V30 729 O 66.3633 1.92675 1.87429 0
M  V30 730 C 64.6343 3.57399 0.00927922 0
M  V30 731 S 66.1933 4.36309 0.466859 0
M  V30 732 H 63.0113 0.710167 -0.0344016 0
M  V30 733 H 65.6133 1.79807 -0.767437 0
M  V30 734 H 64.3173 3.98889 -0.965178 0
M  V30 735 H 63.8483 3.86424 0.737547 0
M  V30 736 H 65.8633 4.6533 1.72287 0
M  V30 737 N 65.0364 0.313813 1.54444 0
M  V30 738 C 66.4524 -0.0391619 1.59552 0
M  V30 739 C 66.6524 -1.51322 1.33056 0
M  V30 740 O 65.7084 -2.26782 1.11022 0
M  V30 741 C 67.0214 0.370302 2.98411 0
M  V30 742 C 68.5694 0.320139 3.11358 0
M  V30 743 C 69.0444 0.704617 4.52547 0
M  V30 744 N 70.5354 0.657645 4.58508 0
M  V30 745 C 71.2704 0.927453 5.6585 0
M  V30 746 N 70.7664 1.26389 6.81174 0
M  V30 747 N 72.5594 0.853662 5.5558 0
M  V30 748 H 64.7104 1.27433 1.69925 0
M  V30 749 H 66.9734 0.517511 0.794284 0
M  V30 750 H 66.6794 1.39694 3.22767 0
M  V30 751 H 66.5534 -0.269619 3.76235 0
M  V30 752 H 68.9404 -0.697275 2.86744 0
M  V30 753 H 69.0214 0.99486 2.35661 0
M  V30 754 H 68.6654 1.7199 4.77893 0
M  V30 755 H 68.5954 0.00768843 5.26599 0
M  V30 756 H 71.0864 0.409067 3.75679 0
M  V30 757 H 71.3994 1.4554 7.58972 0
M  V30 758 H 69.7444 1.30206 6.82694 0
M  V30 759 H 72.9354 0.590383 4.64362 0
M  V30 760 H 73.1084 1.0673 6.3915 0
M  V30 761 N 66.5145 -1.57545 0.0417849 0
M  V30 762 C 67.4615 -2.10977 -0.935805 0
M  V30 763 C 68.4315 -1.01486 -1.31491 0
M  V30 764 O 69.6165 -1.2898 -1.40602 0
M  V30 765 C 66.7565 -2.65169 -2.2086 0
M  V30 766 C 65.8695 -3.88714 -1.88482 0
M  V30 767 C 65.0045 -4.31254 -3.1015 0
M  V30 768 C 64.0435 -5.47524 -2.7365 0
M  V30 769 N 63.1805 -5.85162 -3.87982 0
M  V30 770 H 68.0205 -2.94218 -0.473249 0
M  V30 771 H 65.5575 -1.45415 -0.221981 0
M  V30 772 H 67.5155 -2.94685 -2.95325 0
M  V30 773 H 66.1455 -1.8474 -2.64709 0
M  V30 774 H 65.1975 -3.65849 -1.04205 0
M  V30 775 H 66.5095 -4.73245 -1.57608 0
M  V30 776 H 65.6635 -4.62273 -3.92923 0
M  V30 777 H 64.4025 -3.45516 -3.44195 0
M  V30 778 H 63.4075 -5.16187 -1.89291 0
M  V30 779 H 64.6325 -6.34971 -2.40807 0
M  V30 780 H 62.5785 -5.02377 -4.21846 0
M  V30 781 H 62.4955 -6.64362 -3.60775 0
M  V30 782 H 63.7635 -6.20791 -4.71422 0
M  V30 783 N 67.9926 0.231505 -1.5589 0
M  V30 784 C 69.2416 0.955346 -1.7764 0
M  V30 785 C 69.5546 1.85893 -0.608546 0
M  V30 786 O 70.7606 2.62067 -0.70943 0
M  V30 787 C 69.2166 1.74886 -3.14552 0
M  V30 788 C 68.8246 0.891915 -4.39032 0
M  V30 789 C 70.5686 2.46452 -3.45633 0
M  V30 790 C 68.4756 1.68221 -5.66971 0
M  V30 791 H 67.4056 0.360446 -0.662265 0
M  V30 792 H 70.0566 0.209516 -1.823 0
M  V30 793 H 68.4386 2.53723 -3.04041 0
M  V30 794 H 69.6126 0.144793 -4.60572 0
M  V30 795 H 67.9276 0.288863 -4.15397 0
M  V30 796 H 70.5246 3.06061 -4.38441 0
M  V30 797 H 70.8676 3.18841 -2.67668 0
M  V30 798 H 71.4006 1.74613 -3.57428 0
M  V30 799 H 68.1396 1.00178 -6.478 0
M  V30 800 H 67.6596 2.4042 -5.49507 0
M  V30 801 H 69.3386 2.24544 -6.06786 0
M  V30 802 N 69.4707 1.49531 0.497807 0
M  V30 803 C 70.7477 1.49682 1.25915 0
M  V30 804 C 71.1277 0.226339 2.09883 0
M  V30 805 O 70.4757 -0.791189 2.14365 0
M  V30 806 C 70.6857 2.77755 2.11313 0
M  V30 807 C 72.0337 3.27371 2.70395 0
M  V30 808 O 73.0577 2.78894 2.21578 0
M  V30 809 O 71.9167 4.11808 3.59272 0
M  V30 810 H 69.0107 0.599228 0.56996 0
M  V30 811 H 71.5567 1.61798 0.511816 0
M  V30 812 H 70.3287 3.61713 1.49264 0
M  V30 813 H 69.9517 2.68515 2.93233 0
M  V30 814 N 70.9488 -0.749086 1.3866 0
M  V30 815 C 72.2258 -1.4992 1.25632 0
M  V30 816 C 72.6058 -2.10633 -0.140317 0
M  V30 817 O 71.9538 -1.97437 -1.15025 0
M  V30 818 C 72.1638 -2.56195 2.36992 0
M  V30 819 C 73.5118 -3.22972 2.75634 0
M  V30 820 O 74.5358 -2.66502 2.36337 0
M  V30 821 O 73.3948 -4.25122 3.43415 0
M  V30 822 H 70.4888 -0.665067 0.491544 0
M  V30 823 H 73.0348 -0.784113 1.50498 0
M  V30 824 H 71.8068 -2.09612 3.30422 0
M  V30 825 H 71.4298 -3.35279 2.13714 0
M  V30 826 N 72.4269 -1.23603 -0.977757 0
M  V30 827 C 73.6519 -1.09735 -1.75991 0
M  V30 828 C 74.0769 0.346858 -1.84874 0
M  V30 829 O 73.4349 1.25093 -1.3123 0
M  V30 830 C 73.4829 -1.73051 -3.16363 0
M  V30 831 O 72.5869 -0.994452 -4.0023 0
M  V30 832 H 71.9279 -0.384476 -0.541364 0
M  V30 833 H 74.4579 -1.6371 -1.2272 0
M  V30 834 H 74.4679 -1.78398 -3.66931 0
M  V30 835 H 73.1429 -2.78137 -3.09213 0
M  V30 836 H 71.7199 -1.01812 -3.58732 0
M  V30 837 N 73.905 1.17692 -1.04816 0
M  V30 838 C 75.154 1.87192 -0.751132 0
M  V30 839 C 75.467 1.8169 0.724441 0
M  V30 840 O 76.673 2.46625 1.13527 0
M  V30 841 C 75.129 3.35857 -1.29338 0
M  V30 842 C 74.737 3.4987 -2.79812 0
M  V30 843 C 76.481 4.10709 -1.07322 0
M  V30 844 C 74.388 4.92536 -3.27356 0
M  V30 845 H 73.318 0.701162 -0.277288 0
M  V30 846 H 75.969 1.32932 -1.26496 0
M  V30 847 H 74.351 3.89631 -0.707376 0
M  V30 848 H 75.525 3.06332 -3.44235 0
M  V30 849 H 73.84 2.88433 -3.00325 0
M  V30 850 H 76.437 5.15952 -1.4035 0
M  V30 851 H 76.78 4.16299 -0.0108001 0
M  V30 852 H 77.313 3.6313 -1.62423 0
M  V30 853 H 74.052 4.92119 -4.33012 0
M  V30 854 H 73.572 5.3676 -2.67673 0
M  V30 855 H 75.251 5.61288 -3.21815 0
M  V30 856 N 75.3831 0.828654 1.34056 0
M  V30 857 C 76.6601 0.341809 1.9259 0
M  V30 858 C 77.0401 -1.17158 1.75605 0
M  V30 859 O 76.3881 -1.98132 1.13824 0
M  V30 860 C 76.5981 0.777453 3.4023 0
M  V30 861 C 77.9461 0.779579 4.17382 0
M  V30 862 O 78.9701 0.7204 3.48839 0
M  V30 863 O 77.8291 0.857996 5.39723 0
M  V30 864 H 74.9231 0.0946085 0.821571 0
M  V30 865 H 77.4691 0.913827 1.42994 0
M  V30 866 H 76.2411 1.8196 3.46419 0
M  V30 867 H 75.8641 0.181444 3.97186 0
M  V30 868 N 76.8612 -1.46375 0.584142 0
M  V30 869 C 78.1072 -2.02678 0.0703716 0
M  V30 870 C 78.4402 -1.4545 -1.28678 0
M  V30 871 O 77.7152 -0.62014 -1.84349 0
M  V30 872 C 77.9982 -3.60099 0.00614674 0
M  V30 873 C 77.8512 -4.27709 1.3923 0
M  V30 874 C 79.1702 -4.34598 -0.693742 0
M  V30 875 H 76.2892 -0.736504 0.027047 0
M  V30 876 H 78.9312 -1.74501 0.751615 0
M  V30 877 H 77.0812 -3.84236 -0.574009 0
M  V30 878 H 78.7532 -4.14832 2.01773 0
M  V30 879 H 76.9962 -3.87016 1.95962 0
M  V30 880 H 77.6672 -5.36478 1.29982 0
M  V30 881 H 80.1432 -4.15615 -0.200869 0
M  V30 882 H 79.0192 -5.44318 -0.707714 0
M  V30 883 H 79.2802 -4.05759 -1.75533 0
M  V30 884 N 78.3393 -0.321999 -1.54275 0
M  V30 885 C 79.5693 0.282642 -2.04658 0
M  V30 886 C 79.9773 1.46453 -1.19784 0
M  V30 887 O 79.3203 1.82367 -0.220932 0
M  V30 888 C 79.3823 0.781857 -3.50895 0
M  V30 889 C 79.0463 -0.277517 -4.56157 0
M  V30 890 C 80.0433 -1.11307 -5.07845 0
M  V30 891 C 77.7283 -0.425256 -5.00497 0
M  V30 892 C 79.7223 -2.08211 -6.02434 0
M  V30 893 C 77.4093 -1.39771 -5.94901 0
M  V30 894 C 78.4073 -2.2246 -6.45756 0
M  V30 895 O 78.0953 -3.18054 -7.38307 0
M  V30 896 H 77.8273 0.0622636 -0.673126 0
M  V30 897 H 80.3813 -0.465792 -2.00049 0
M  V30 898 H 78.6113 1.58118 -3.52896 0
M  V30 899 H 80.3003 1.30467 -3.84361 0
M  V30 900 H 81.0663 -1.00991 -4.74369 0
M  V30 901 H 76.9453 0.20847 -4.60528 0
M  V30 902 H 80.4893 -2.72791 -6.42052 0
M  V30 903 H 76.3863 -1.50152 -6.27794 0
M  V30 904 H 77.1543 -3.13275 -7.56175 0
M  V30 905 N 79.8174 1.5752 -0.0501392 0
M  V30 906 C 81.0654 1.9227 0.622642 0
M  V30 907 C 81.3864 0.929083 1.71444 0
M  V30 908 O 80.6564 -0.0262186 1.95882 0
M  V30 909 H 79.2364 0.709739 0.232981 0
M  V30 910 H 81.8984 1.94628 -0.102898 0
M  V30 911 H 80.9944 2.93479 1.06191 0
M  V30 912 N 81.2955 -0.223234 1.56011 0
M  V30 913 C 82.5725 -0.972108 1.69733 0
M  V30 914 C 82.9525 -2.02485 0.59691 0
M  V30 915 O 82.3005 -2.25037 -0.396324 0
M  V30 916 C 82.5105 -1.58407 3.10979 0
M  V30 917 C 83.8585 -2.07696 3.70334 0
M  V30 918 O 84.8825 -1.68304 3.1393 0
M  V30 919 O 83.7415 -2.80096 4.69264 0
M  V30 920 H 80.8355 -0.453993 0.691245 0
M  V30 921 H 83.3815 -0.215149 1.68331 0
M  V30 922 H 82.1535 -0.823831 3.82529 0
M  V30 923 H 81.7765 -2.40661 3.16493 0
M  V30 924 N 82.7736 -1.49793 -0.48987 0
M  V30 925 C 84.0226 -1.59085 -1.23995 0
M  V30 926 C 84.3356 -0.287907 -1.9347 0
M  V30 927 O 85.5416 -0.259506 -2.70257 0
M  V30 928 C 83.9976 -2.80736 -2.252 0
M  V30 929 C 83.6056 -4.17833 -1.61614 0
M  V30 930 C 85.3496 -2.99364 -3.00967 0
M  V30 931 C 83.2566 -5.30693 -2.60996 0
M  V30 932 H 82.1866 -0.592372 -0.466488 0
M  V30 933 H 84.8376 -1.76197 -0.51252 0
M  V30 934 H 83.2196 -2.57142 -3.01154 0
M  V30 935 H 84.3936 -4.51608 -0.915774 0
M  V30 936 H 82.7086 -4.04656 -0.981977 0
M  V30 937 H 85.3056 -3.80851 -3.75308 0
M  V30 938 H 85.6486 -2.10356 -3.59244 0
M  V30 939 H 86.1816 -3.2305 -2.32128 0
M  V30 940 H 82.9206 -6.21796 -2.07485 0
M  V30 941 H 82.4406 -5.01359 -3.2924 0
M  V30 942 H 84.1196 -5.6049 -3.23202 0
M  V30 943 N 84.2517 0.741722 -1.39055 0
M  V30 944 C 85.1837 1.8657 -1.33133 0
M  V30 945 C 86.1967 1.61001 -0.241329 0
M  V30 946 O 87.3857 1.7136 -0.499784 0
M  V30 947 C 84.4857 3.22457 -1.04283 0
M  V30 948 C 83.6587 3.75435 -2.24427 0
M  V30 949 C 82.7177 4.89867 -1.92138 0
M  V30 950 O 81.7437 5.03879 -2.64754 0
M  V30 951 N 82.9457 5.73738 -0.88347 0
M  V30 952 H 85.7107 1.92156 -2.29991 0
M  V30 953 H 83.2717 0.922172 -1.3307 0
M  V30 954 H 85.2637 3.9657 -0.807128 0
M  V30 955 H 83.8337 3.12181 -0.161807 0
M  V30 956 H 83.0537 2.92751 -2.6399 0
M  V30 957 H 84.3417 4.07563 -3.04581 0
M  V30 958 H 83.7397 5.64999 -0.281517 0
M  V30 959 H 82.2967 6.47947 -0.707662 0
M  V30 960 N 85.7298 1.2412 0.971189 0
M  V30 961 C 86.9768 1.07881 1.71371 0
M  V30 962 C 87.3048 -0.382901 1.90694 0
M  V30 963 O 86.5598 -1.29945 1.46331 0
M  V30 964 C 86.8588 1.75983 3.11071 0
M  V30 965 C 86.5248 3.25909 3.11599 0
M  V30 966 C 85.1868 3.66813 3.11451 0
M  V30 967 C 87.5388 4.21771 3.062 0
M  V30 968 C 84.8668 5.02021 3.03631 0
M  V30 969 C 87.2188 5.56982 2.99923 0
M  V30 970 C 85.8828 5.97237 2.98102 0
M  V30 971 H 85.1528 0.394764 0.62709 0
M  V30 972 H 87.7998 1.54176 1.13587 0
M  V30 973 H 86.1048 1.22072 3.72298 0
M  V30 974 H 87.8018 1.60887 3.6731 0
M  V30 975 H 84.3918 2.93353 3.12477 0
M  V30 976 H 88.5758 3.91172 3.05447 0
M  V30 977 H 83.8318 5.32411 3.0058 0
M  V30 978 H 88.0058 6.30969 2.94704 0
M  V30 979 H 85.6328 7.01967 2.91798 0
M  V30 980 N 87.2079 -1.17134 1.05439 0
M  V30 981 C 88.1379 -2.2342 0.678649 0
M  V30 982 C 89.1189 -1.66971 -0.32476 0
M  V30 983 O 90.3039 -1.93149 -0.201802 0
M  V30 984 C 87.4339 -3.47256 0.0552099 0
M  V30 985 C 86.3879 -4.16543 0.98365 0
M  V30 986 C 85.7139 -5.34231 0.223961 0
M  V30 987 C 87.0139 -4.68495 2.3089 0
M  V30 988 H 88.7079 -2.55105 1.56722 0
M  V30 989 H 86.2539 -1.2262 0.754998 0
M  V30 990 H 88.2069 -4.20828 -0.21946 0
M  V30 991 H 86.9309 -3.14846 -0.868319 0
M  V30 992 H 85.5899 -3.44887 1.24293 0
M  V30 993 H 85.2379 -4.98071 -0.702412 0
M  V30 994 H 84.9379 -5.81527 0.842627 0
M  V30 995 H 86.4619 -6.10585 -0.0433671 0
M  V30 996 H 87.8759 -5.33691 2.09396 0
M  V30 997 H 86.2729 -5.26379 2.88176 0
M  V30 998 H 87.3429 -3.85169 2.94572 0
M  V30 999 N 88.686 -0.835752 -1.33615 0
M  V30 1000 C 89.634 -0.255238 -2.31195 0
M  V30 1001 C 90.628 0.61107 -1.57995 0
M  V30 1002 O 91.834 0.500979 -1.72888 0
M  V30 1003 H 88.209 -0.0638085 -0.749288 0
M  V30 1004 H 90.18 -1.09283 -2.77669 0
M  V30 1005 C 88.929 0.55754 -3.43201 0
M  V30 1006 H 88.252 -0.0997553 -3.99676 0
M  V30 1007 H 89.692 0.929622 -4.13683 0
M  V30 1008 C 88.151 1.73515 -2.88781 0
M  V30 1009 O 88.681 2.83376 -2.84712 0
M  V30 1010 N 86.887 1.55603 -2.4543 0
M  V30 1011 H 86.434 0.662354 -2.48939 0
M  V30 1012 H 86.392 2.34545 -2.09371 0
M  V30 1013 N 90.1641 1.46063 -0.591896 0
M  V30 1014 C 91.0961 2.28539 0.174001 0
M  V30 1015 C 92.1091 1.39047 0.846753 0
M  V30 1016 O 93.2981 1.63564 0.714774 0
M  V30 1017 C 90.3981 3.14347 1.26645 0
M  V30 1018 C 89.5711 4.32021 0.683856 0
M  V30 1019 C 88.6301 4.99157 1.66518 0
M  V30 1020 O 87.6561 5.56458 1.19763 0
M  V30 1021 N 88.8581 4.97005 2.99943 0
M  V30 1022 H 91.6231 2.94911 -0.533633 0
M  V30 1023 H 89.1841 1.56077 -0.430294 0
M  V30 1024 H 91.1761 3.56125 1.92242 0
M  V30 1025 H 89.7461 2.49988 1.87682 0
M  V30 1026 H 88.9661 3.93915 -0.1498 0
M  V30 1027 H 90.2541 5.08059 0.274567 0
M  V30 1028 H 89.6521 4.51714 3.40545 0
M  V30 1029 H 88.2091 5.42696 3.61004 0
M  V30 1030 N 91.6422 0.330177 1.54103 0
M  V30 1031 C 92.8912 -0.271336 1.99867 0
M  V30 1032 C 93.2042 -1.52723 1.22209 0
M  V30 1033 O 94.4102 -2.20515 1.58383 0
M  V30 1034 C 92.8662 -0.534032 3.55916 0
M  V30 1035 C 92.4742 0.705193 4.42415 0
M  V30 1036 C 94.2182 -1.09514 4.1013 0
M  V30 1037 C 92.1252 0.414035 5.89949 0
M  V30 1038 H 91.0552 -0.105166 0.74663 0
M  V30 1039 H 93.7062 0.443429 1.78062 0
M  V30 1040 H 92.0882 -1.30915 3.73734 0
M  V30 1041 H 93.2622 1.4804 4.36372 0
M  V30 1042 H 91.5772 1.18698 3.99124 0
M  V30 1043 H 94.1742 -1.3277 5.17954 0
M  V30 1044 H 94.5172 -2.04656 3.62521 0
M  V30 1045 H 95.0502 -0.381038 3.95971 0
M  V30 1046 H 91.7892 1.33481 6.41766 0
M  V30 1047 H 91.3092 -0.323336 5.98928 0
M  V30 1048 H 92.9882 0.0263105 6.46995 0
M  V30 1049 N 93.1203 -1.57491 0.0584922 0
M  V30 1050 C 94.0673 -2.11958 -0.913376 0
M  V30 1051 C 95.0373 -1.02875 -1.30407 0
M  V30 1052 O 96.2223 -1.30464 -1.39226 0
M  V30 1053 C 93.3623 -2.67497 -2.18035 0
M  V30 1054 C 92.4753 -3.90691 -1.84349 0
M  V30 1055 C 91.6103 -4.3452 -3.05559 0
M  V30 1056 C 90.6493 -5.50395 -2.67827 0
M  V30 1057 N 89.7863 -5.89244 -3.81754 0
M  V30 1058 H 94.6263 -2.94704 -0.442017 0
M  V30 1059 H 92.1633 -1.45643 -0.206545 0
M  V30 1060 H 94.1213 -2.978 -2.92183 0
M  V30 1061 H 92.7513 -1.87537 -2.62735 0
M  V30 1062 H 91.8033 -3.66934 -1.00319 0
M  V30 1063 H 93.1153 -4.7489 -1.5258 0
M  V30 1064 H 92.2693 -4.66414 -3.87998 0
M  V30 1065 H 91.0083 -3.49147 -3.40511 0
M  V30 1066 H 90.0133 -5.18165 -1.83806 0
M  V30 1067 H 91.2383 -6.3749 -2.34059 0
M  V30 1068 H 89.1843 -5.06823 -4.16493 0
M  V30 1069 H 89.1013 -6.68151 -3.53708 0
M  V30 1070 H 90.3693 -6.25756 -4.64811 0
M  V30 1071 N 94.5984 0.214957 -1.56127 0
M  V30 1072 C 95.5084 1.28727 -1.96129 0
M  V30 1073 C 96.5244 1.50916 -0.866044 0
M  V30 1074 O 97.7004 1.63918 -1.17016 0
M  V30 1075 C 94.7654 2.61569 -2.27558 0
M  V30 1076 C 93.8264 2.47625 -3.50685 0
M  V30 1077 C 93.0594 3.74132 -3.80606 0
M  V30 1078 O 93.2824 4.77438 -3.12104 0
M  V30 1079 O 92.2164 3.70849 -4.74083 0
M  V30 1080 H 96.0424 0.977855 -2.87527 0
M  V30 1081 H 93.6274 0.418358 -1.43423 0
M  V30 1082 H 95.5094 3.40012 -2.48938 0
M  V30 1083 H 94.1844 2.92178 -1.39332 0
M  V30 1084 H 93.0914 1.67361 -3.34576 0
M  V30 1085 H 94.4244 2.21954 -4.39315 0
M  V30 1086 N 96.0765 1.50051 0.48192 0
M  V30 1087 C 97.3535 1.51009 1.2432 0
M  V30 1088 C 97.7335 0.248587 2.09631 0
M  V30 1089 O 97.0815 -0.768409 2.15192 0
M  V30 1090 C 97.2915 2.79981 2.08355 0
M  V30 1091 C 98.6395 3.3022 2.66908 0
M  V30 1092 O 99.6635 2.81228 2.18607 0
M  V30 1093 O 98.5225 4.15595 3.54884 0
M  V30 1094 H 95.6165 0.605239 0.563573 0
M  V30 1095 H 98.1625 1.62332 0.494627 0
M  V30 1096 H 96.9345 3.63275 1.45419 0
M  V30 1097 H 96.5575 2.7161 2.90368 0
M  V30 1098 N 97.5546 -0.734337 1.39446 0
M  V30 1099 C 98.8036 -1.48937 1.36017 0
M  V30 1100 C 99.1166 -1.95557 -0.0409005 0
M  V30 1101 O 100.323 -2.70779 -0.19778 0
M  V30 1102 C 98.7786 -2.69125 2.38955 0
M  V30 1103 C 98.3866 -2.29452 3.8478 0
M  V30 1104 C 100.131 -3.46944 2.44603 0
M  V30 1105 C 98.0376 -3.46366 4.79358 0
M  V30 1106 H 96.9676 -0.559296 0.505672 0
M  V30 1107 H 99.6186 -0.800983 1.65095 0
M  V30 1108 H 98.0006 -3.40041 2.02948 0
M  V30 1109 H 99.1746 -1.66077 4.29831 0
M  V30 1110 H 97.4896 -1.64723 3.82433 0
M  V30 1111 H 100.087 -4.33907 3.12456 0
M  V30 1112 H 100.43 -3.89454 1.47076 0
M  V30 1113 H 100.963 -2.83056 2.79507 0
M  V30 1114 H 97.7016 -3.08905 5.78151 0
M  V30 1115 H 97.2216 -4.08719 4.38986 0
M  V30 1116 H 98.9006 -4.12691 4.98292 0
M  V30 1117 N 99.0327 -1.24633 -0.964593 0
M  V30 1118 C 99.9647 -0.999302 -2.06268 0
M  V30 1119 C 100.978 0.0323226 -1.62768 0
M  V30 1120 O 102.167 -0.205079 -1.77318 0
M  V30 1121 C 99.2667 -0.486816 -3.35385 0
M  V30 1122 C 98.4397 -1.5823 -4.07777 0
M  V30 1123 C 97.4987 -1.07191 -5.15166 0
M  V30 1124 O 96.5247 -1.76426 -5.41168 0
M  V30 1125 N 97.7267 0.0920373 -5.80427 0
M  V30 1126 H 100.492 -1.94477 -2.28033 0
M  V30 1127 H 98.0527 -1.15704 -1.13244 0
M  V30 1128 H 100.045 -0.130066 -4.04491 0
M  V30 1129 H 98.6147 0.364459 -3.10468 0
M  V30 1130 H 97.8347 -2.11109 -3.32906 0
M  V30 1131 H 99.1227 -2.31854 -4.52903 0
M  V30 1132 H 98.5207 0.670784 -5.61709 0
M  V30 1133 H 97.0777 0.389905 -6.50633 0
M  V30 1134 N 100.511 1.16574 -1.06058 0
M  V30 1135 C 101.736 1.91493 -0.796562 0
M  V30 1136 C 102.161 1.76773 0.642868 0
M  V30 1137 O 101.519 1.09142 1.44768 0
M  V30 1138 C 101.567 3.40293 -1.19303 0
M  V30 1139 O 100.671 4.11074 -0.330394 0
M  V30 1140 H 100.012 0.596678 -0.291326 0
M  V30 1141 H 102.542 1.47708 -1.41575 0
M  V30 1142 H 102.552 3.91057 -1.16356 0
M  V30 1143 H 101.227 3.50326 -2.24153 0
M  V30 1144 H 99.8038 3.70513 -0.421225 0
M  V30 1145 N 101.989 0.842826 1.3317 0
M  V30 1146 C 103.238 0.436738 1.96915 0
M  V30 1147 C 103.551 -1.01025 1.67491 0
M  V30 1148 O 104.757 -1.5212 2.24881 0
M  V30 1149 C 103.213 0.730021 3.52418 0
M  V30 1150 C 102.821 2.19195 3.90714 0
M  V30 1151 C 104.565 0.391076 4.22695 0
M  V30 1152 C 102.472 2.42907 5.39212 0
M  V30 1153 H 101.402 0.15958 0.736919 0
M  V30 1154 H 104.053 1.03196 1.51733 0
M  V30 1155 H 102.435 0.0643755 3.95948 0
M  V30 1156 H 103.609 2.8984 3.58231 0
M  V30 1157 H 101.924 2.49425 3.33431 0
M  V30 1158 H 104.521 0.545817 5.31907 0
M  V30 1159 H 104.864 -0.666294 4.10933 0
M  V30 1160 H 105.397 1.01212 3.84709 0
M  V30 1161 H 102.136 3.47224 5.55982 0
M  V30 1162 H 101.656 1.76827 5.73142 0
M  V30 1163 H 103.335 2.2626 6.06148 0
M  V30 1164 N 103.467 -1.45747 0.599634 0
M  V30 1165 C 104.377 -2.34262 -0.125888 0
M  V30 1166 C 105.393 -1.50768 -0.868625 0
M  V30 1167 O 106.569 -1.83592 -0.828003 0
M  V30 1168 C 103.634 -3.28252 -1.11587 0
M  V30 1169 C 102.695 -4.27651 -0.375956 0
M  V30 1170 C 101.928 -5.1715 -1.31877 0
M  V30 1171 O 102.151 -5.09916 -2.55621 0
M  V30 1172 O 101.085 -5.96286 -0.820157 0
M  V30 1173 H 104.911 -2.97688 0.601315 0
M  V30 1174 H 102.496 -1.44999 0.359934 0
M  V30 1175 H 104.378 -3.86191 -1.68626 0
M  V30 1176 H 103.053 -2.67401 -1.82424 0
M  V30 1177 H 101.96 -3.7335 0.236698 0
M  V30 1178 H 103.293 -4.91334 0.29177 0
M  V30 1179 N 104.945 -0.338344 -1.53925 0
M  V30 1180 C 105.892 0.520845 -2.24846 0
M  V30 1181 C 106.862 1.09976 -1.24477 0
M  V30 1182 O 108.047 1.13735 -1.53196 0
M  V30 1183 C 105.187 1.6685 -3.02084 0
M  V30 1184 C 104.3 1.11739 -4.17299 0
M  V30 1185 C 103.435 2.23193 -4.82036 0
M  V30 1186 C 102.474 1.65407 -5.89328 0
M  V30 1187 N 101.611 2.70582 -6.47866 0
M  V30 1188 H 106.451 -0.0904881 -2.97863 0
M  V30 1189 H 103.988 -0.0564282 -1.46992 0
M  V30 1190 H 105.946 2.34407 -3.45122 0
M  V30 1191 H 104.576 2.2509 -2.31375 0
M  V30 1192 H 103.628 0.332919 -3.7894 0
M  V30 1193 H 104.94 0.654677 -4.94485 0
M  V30 1194 H 104.094 2.98626 -5.28117 0
M  V30 1195 H 102.833 2.72807 -4.04262 0
M  V30 1196 H 101.838 0.884779 -5.42634 0
M  V30 1197 H 103.063 1.16652 -6.69006 0
M  V30 1198 H 101.009 3.1946 -5.72959 0
M  V30 1199 H 100.926 2.28917 -7.20509 0
M  V30 1200 H 102.194 3.45799 -6.98601 0
M  V30 1201 N 106.423 1.57458 -0.0668435 0
M  V30 1202 C 107.653 1.97337 0.611677 0
M  V30 1203 C 108.061 0.943744 1.63982 0
M  V30 1204 O 107.404 -0.0785584 1.83532 0
M  V30 1205 C 107.466 3.33511 1.34205 0
M  V30 1206 C 107.13 4.54598 0.467941 0
M  V30 1207 C 108.127 5.19186 -0.272439 0
M  V30 1208 C 105.812 5.0075 0.39427 0
M  V30 1209 C 107.806 6.28274 -1.07476 0
M  V30 1210 C 105.493 6.09711 -0.411729 0
M  V30 1211 C 106.491 6.73335 -1.14492 0
M  V30 1212 O 106.179 7.80199 -1.93763 0
M  V30 1213 H 105.911 0.654042 0.170893 0
M  V30 1214 H 108.465 2.04961 -0.134289 0
M  V30 1215 H 106.695 3.22487 2.13398 0
M  V30 1216 H 108.384 3.58029 1.91233 0
M  V30 1217 H 109.15 4.84477 -0.225086 0
M  V30 1218 H 105.029 4.51009 0.954569 0
M  V30 1219 H 108.573 6.77866 -1.64755 0
M  V30 1220 H 104.47 6.43854 -0.460664 0
M  V30 1221 H 105.238 7.97053 -1.86142 0
M  V30 1222 N 107.901 -0.206675 1.56239 0
M  V30 1223 C 109.312 -0.772383 1.69974 0
M  V30 1224 C 109.663 -1.84353 0.671436 0
M  V30 1225 O 108.788 -2.15695 -0.174491 0
M  V30 1226 C 109.383 -1.40779 3.08167 0
M  V30 1227 C 107.942 -1.92072 3.23706 0
M  V30 1228 C 107.089 -0.786347 2.65917 0
M  V30 1229 H 110.04 0.0182223 1.5869 0
M  V30 1230 H 110.061 -2.27696 3.04852 0
M  V30 1231 H 109.573 -0.627958 3.82986 0
M  V30 1232 H 107.674 -2.7281 2.53782 0
M  V30 1233 H 107.787 -2.09046 4.31087 0
M  V30 1234 H 106.151 -1.1976 2.24788 0
M  V30 1235 H 106.934 -0.0189416 3.43295 0
M  V30 1236 N 109.379 -1.50304 -0.473955 0
M  V30 1237 C 110.609 -1.64663 -1.24778 0
M  V30 1238 C 111.017 -0.328174 -1.86332 0
M  V30 1239 O 110.36 0.699536 -1.69859 0
M  V30 1240 C 110.422 -2.6778 -2.39863 0
M  V30 1241 C 110.086 -4.11413 -1.98969 0
M  V30 1242 C 111.083 -4.97372 -1.51385 0
M  V30 1243 C 108.768 -4.57312 -2.07777 0
M  V30 1244 C 110.762 -6.27277 -1.13148 0
M  V30 1245 C 108.449 -5.87223 -1.69152 0
M  V30 1246 C 109.447 -6.72031 -1.21915 0
M  V30 1247 O 109.135 -7.99518 -0.838237 0
M  V30 1248 H 108.867 -0.556602 -0.383627 0
M  V30 1249 H 111.421 -1.9726 -0.572491 0
M  V30 1250 H 109.651 -2.30419 -3.10554 0
M  V30 1251 H 111.34 -2.71388 -3.01833 0
M  V30 1252 H 112.106 -4.63128 -1.44004 0
M  V30 1253 H 107.985 -3.91449 -2.43493 0
M  V30 1254 H 111.529 -6.93425 -0.762077 0
M  V30 1255 H 107.426 -6.20989 -1.76191 0
M  V30 1256 H 108.194 -8.12764 -0.967339 0
M  V30 1257 N 110.857 0.726932 -1.39834 0
M  V30 1258 C 111.767 1.87131 -1.41489 0
M  V30 1259 C 112.783 1.71239 -0.308757 0
M  V30 1260 O 113.959 1.93701 -0.551529 0
M  V30 1261 C 111.024 3.22811 -1.26468 0
M  V30 1262 C 110.085 3.51039 -2.47124 0
M  V30 1263 C 109.318 4.80245 -2.3281 0
M  V30 1264 O 109.541 5.54537 -1.33585 0
M  V30 1265 O 108.475 5.08554 -3.21957 0
M  V30 1266 H 112.301 1.8869 -2.3797 0
M  V30 1267 H 109.886 0.875837 -1.21035 0
M  V30 1268 H 111.768 4.03877 -1.20255 0
M  V30 1269 H 110.443 3.22005 -0.330862 0
M  V30 1270 H 109.35 2.70027 -2.58914 0
M  V30 1271 H 110.683 3.56632 -3.39227 0
M  V30 1272 N 112.336 1.25143 0.95797 0
M  V30 1273 C 113.566 1.12261 1.73439 0
M  V30 1274 C 113.974 -0.326715 1.86358 0
M  V30 1275 O 113.317 -1.2367 1.35836 0
M  V30 1276 C 113.379 1.69966 3.16784 0
M  V30 1277 C 113.043 3.18936 3.27305 0
M  V30 1278 C 114.04 4.15968 3.11877 0
M  V30 1279 C 111.725 3.59083 3.51234 0
M  V30 1280 C 113.719 5.51126 3.20217 0
M  V30 1281 C 111.406 4.9438 3.5921 0
M  V30 1282 C 112.404 5.90211 3.43716 0
M  V30 1283 O 112.092 7.23046 3.51368 0
M  V30 1284 H 111.824 0.392476 0.550399 0
M  V30 1285 H 114.378 1.65927 1.21068 0
M  V30 1286 H 112.608 1.10744 3.70503 0
M  V30 1287 H 114.297 1.52232 3.76272 0
M  V30 1288 H 115.063 3.86292 2.93264 0
M  V30 1289 H 110.942 2.84989 3.62356 0
M  V30 1290 H 114.486 6.25905 3.0804 0
M  V30 1291 H 110.383 5.23723 3.77339 0
M  V30 1292 H 111.151 7.31097 3.6802 0
M  V30 1293 N 113.814 -1.1601 1.06675 0
M  V30 1294 C 114.764 -2.18512 0.650888 0
M  V30 1295 C 115.748 -1.57677 -0.320441 0
M  V30 1296 O 116.94 -1.76482 -0.135266 0
M  V30 1297 C 114.069 -3.43273 0.0429255 0
M  V30 1298 C 113.155 -4.11176 1.03898 0
M  V30 1299 N 113.546 -4.54672 2.216 0
M  V30 1300 C 111.844 -4.37417 0.870779 0
M  V30 1301 C 112.545 -5.07248 2.84736 0
M  V30 1302 N 111.521 -5.0037 2.12441 0
M  V30 1303 H 115.323 -2.49863 1.54745 0
M  V30 1304 H 112.837 -1.32503 0.938975 0
M  V30 1305 H 114.834 -4.16006 -0.272857 0
M  V30 1306 H 113.494 -3.13408 -0.84884 0
M  V30 1307 H 114.505 -4.4828 2.59356 0
M  V30 1308 H 111.182 -4.17488 0.0313293 0
M  V30 1309 H 112.572 -5.50912 3.84636 0
M  V30 1310 N 115.292 -0.849877 -1.32721 0
M  V30 1311 C 116.242 -0.262892 -2.26479 0
M  V30 1312 C 117.226 0.588493 -1.49752 0
M  V30 1313 O 118.418 0.438659 -1.71478 0
M  V30 1314 C 115.547 0.551818 -3.38836 0
M  V30 1315 C 114.633 -0.311689 -4.22953 0
M  V30 1316 N 115.024 -1.39567 -4.86163 0
M  V30 1317 C 113.322 -0.100611 -4.45887 0
M  V30 1318 C 114.023 -1.92651 -5.48872 0
M  V30 1319 N 112.999 -1.22637 -5.29586 0
M  V30 1320 H 116.801 -1.09166 -2.72873 0
M  V30 1321 H 114.315 -0.695486 -1.46754 0
M  V30 1322 H 116.312 0.988713 -4.05006 0
M  V30 1323 H 114.972 1.37844 -2.93988 0
M  V30 1324 H 115.983 -1.77859 -4.86402 0
M  V30 1325 H 112.66 0.691681 -4.11731 0
M  V30 1326 H 114.05 -2.83487 -6.09167 0
M  V30 1327 N 116.77 1.45427 -0.607355 0
M  V30 1328 C 118.017 2.02241 -0.102455 0
M  V30 1329 C 118.345 1.4758 1.26691 0
M  V30 1330 O 117.6 0.640468 1.84923 0
M  V30 1331 C 117.899 3.57398 -0.0129263 0
M  V30 1332 C 117.565 4.3121 -1.31792 0
M  V30 1333 C 116.227 4.51092 -1.67539 0
M  V30 1334 C 118.579 4.73401 -2.18039 0
M  V30 1335 C 115.907 5.10422 -2.89285 0
M  V30 1336 C 118.259 5.34078 -3.39034 0
M  V30 1337 C 116.923 5.52184 -3.75033 0
M  V30 1338 H 116.193 0.740051 -0.037491 0
M  V30 1339 H 118.84 1.74494 -0.788926 0
M  V30 1340 H 117.145 3.84421 0.756806 0
M  V30 1341 H 118.842 3.99061 0.393881 0
M  V30 1342 H 115.432 4.16047 -1.02968 0
M  V30 1343 H 119.616 4.57774 -1.91721 0
M  V30 1344 H 114.872 5.22629 -3.17283 0
M  V30 1345 H 119.046 5.65724 -4.06115 0
M  V30 1346 H 116.673 5.97925 -4.69457 0
M  V30 1347 N 118.248 0.346503 1.53744 0
M  V30 1348 C 119.18 -0.543316 2.22667 0
M  V30 1349 C 120.193 -1.06159 1.23427 0
M  V30 1350 O 121.382 -0.971235 1.49764 0
M  V30 1351 C 118.482 -1.76076 2.89569 0
M  V30 1352 C 117.655 -1.37727 4.15151 0
M  V30 1353 C 116.714 -2.45471 4.65436 0
M  V30 1354 O 115.74 -2.08655 5.29577 0
M  V30 1355 N 116.942 -3.7677 4.41616 0
M  V30 1356 H 119.707 0.0469703 2.99663 0
M  V30 1357 H 117.268 0.170766 1.60997 0
M  V30 1358 H 119.26 -2.47593 3.20125 0
M  V30 1359 H 117.83 -2.25835 2.16142 0
M  V30 1360 H 117.05 -0.492746 3.91108 0
M  V30 1361 H 118.338 -1.09708 4.96832 0
M  V30 1362 H 117.736 -4.09467 3.90325 0
M  V30 1363 H 116.293 -4.44448 4.7677 0
M  V30 1364 N 119.726 -1.57421 0.075193 0
M  V30 1365 C 120.951 -1.98364 -0.605515 0
M  V30 1366 C 121.376 -0.953383 -1.62149 0
M  V30 1367 O 120.734 0.0806053 -1.81121 0
M  V30 1368 C 120.782 -3.38332 -1.24756 0
M  V30 1369 O 119.886 -3.37959 -2.36342 0
M  V30 1370 H 119.227 -0.645553 -0.155428 0
M  V30 1371 H 121.757 -2.04044 0.150714 0
M  V30 1372 H 121.767 -3.75591 -1.5936 0
M  V30 1373 H 120.442 -4.12846 -0.503129 0
M  V30 1374 H 119.019 -3.12474 -2.03506 0
M  V30 1375 N 121.204 0.198386 -1.56346 0
M  V30 1376 C 122.481 0.944982 -1.71258 0
M  V30 1377 C 122.861 2.0151 -0.629048 0
M  V30 1378 O 122.209 2.25639 0.360473 0
M  V30 1379 C 122.419 1.5344 -3.1346 0
M  V30 1380 C 123.767 2.01778 -3.73591 0
M  V30 1381 O 124.791 1.63288 -3.16568 0
M  V30 1382 O 123.65 2.72594 -4.73661 0
M  V30 1383 H 120.744 0.442939 -0.69838 0
M  V30 1384 H 123.29 0.188342 -1.68652 0
M  V30 1385 H 122.062 0.762869 -3.83792 0
M  V30 1386 H 121.685 2.35596 -3.20282 0
M  V30 1387 N 122.682 1.50554 0.465978 0
M  V30 1388 C 124.098 1.38093 0.800154 0
M  V30 1389 C 124.298 0.440988 1.96615 0
M  V30 1390 O 123.354 -0.114499 2.5224 0
M  V30 1391 C 124.667 2.79565 1.10742 0
M  V30 1392 C 126.215 2.88516 1.21357 0
M  V30 1393 C 126.69 4.30833 1.55393 0
M  V30 1394 N 128.181 4.33807 1.62375 0
M  V30 1395 C 128.916 5.40927 1.90225 0
M  V30 1396 N 128.412 6.58247 2.16062 0
M  V30 1397 N 130.205 5.28376 1.9177 0
M  V30 1398 H 122.356 2.10237 -0.302366 0
M  V30 1399 H 124.619 0.945203 -0.0727746 0
M  V30 1400 H 124.325 3.50208 0.323661 0
M  V30 1401 H 124.199 3.17125 2.04234 0
M  V30 1402 H 126.586 2.1809 1.98799 0
M  V30 1403 H 126.667 2.54492 0.258321 0
M  V30 1404 H 126.311 5.01799 0.784889 0
M  V30 1405 H 126.241 4.62347 2.52076 0
M  V30 1406 H 128.732 3.49212 1.44427 0
M  V30 1407 H 129.045 7.3569 2.36601 0
M  V30 1408 H 127.39 6.61413 2.13444 0
M  V30 1409 H 130.581 4.35715 1.71085 0
M  V30 1410 H 130.754 6.11944 2.13139 0
M  V30 1411 N 124.16 -0.719506 1.40217 0
M  V30 1412 C 125.576 -1.02707 1.22161 0
M  V30 1413 C 125.776 -2.0128 0.0940557 0
M  V30 1414 O 124.832 -2.46452 -0.549318 0
M  V30 1415 C 126.145 -1.57454 2.56181 0
M  V30 1416 C 127.693 -1.69458 2.63159 0
M  V30 1417 C 128.168 -2.27611 3.97438 0
M  V30 1418 N 129.659 -2.35002 3.99159 0
M  V30 1419 C 130.394 -2.80972 4.99842 0
M  V30 1420 N 129.89 -3.26723 6.10921 0
M  V30 1421 N 131.683 -2.80321 4.87213 0
M  V30 1422 H 123.834 -0.0660492 2.12297 0
M  V30 1423 H 126.097 -0.0919077 0.943534 0
M  V30 1424 H 125.803 -0.924873 3.39321 0
M  V30 1425 H 125.677 -2.56036 2.76993 0
M  V30 1426 H 128.064 -2.33543 1.80393 0
M  V30 1427 H 128.145 -0.694867 2.46181 0
M  V30 1428 H 127.789 -1.6415 4.80643 0
M  V30 1429 H 127.719 -3.2829 4.11744 0
M  V30 1430 H 130.21 -2.02685 3.18947 0
M  V30 1431 H 130.523 -3.60355 6.8364 0
M  V30 1432 H 128.868 -3.24692 6.14492 0
M  V30 1433 H 132.059 -2.43912 3.9953 0
M  V30 1434 H 132.232 -3.15831 5.65822 0
M  V30 1435 N 125.638 -1.25649 -0.95132 0
M  V30 1436 C 126.887 -1.09988 -1.69073 0
M  V30 1437 C 127.2 0.358355 -1.92289 0
M  V30 1438 O 128.406 0.635466 -2.63958 0
M  V30 1439 C 126.862 -1.92012 -3.044 0
M  V30 1440 C 126.47 -3.42347 -2.88968 0
M  V30 1441 C 128.214 -1.8493 -3.82101 0
M  V30 1442 C 126.121 -4.16655 -4.19705 0
M  V30 1443 H 125.051 -0.407993 -0.63408 0
M  V30 1444 H 127.702 -1.49873 -1.05879 0
M  V30 1445 H 126.084 -1.44952 -3.68517 0
M  V30 1446 H 127.258 -3.97104 -2.33762 0
M  V30 1447 H 125.573 -3.50557 -2.24719 0
M  V30 1448 H 128.17 -2.37739 -4.78941 0
M  V30 1449 H 128.513 -0.817883 -4.08187 0
M  V30 1450 H 129.046 -2.29758 -3.2474 0
M  V30 1451 H 125.785 -5.20224 -3.98807 0
M  V30 1452 H 125.305 -3.66681 -4.74663 0
M  V30 1453 H 126.984 -4.24551 -4.88227 0
M  V30 1454 N 127.117 1.15442 -1.07289 0
M  V30 1455 C 128.05 2.19135 -0.636798 0
M  V30 1456 C 129.028 1.58884 0.34562 0
M  V30 1457 O 130.212 1.86805 0.252195 0
M  V30 1458 C 127.339 3.38638 0.0650014 0
M  V30 1459 C 126.385 4.17412 -0.87576 0
M  V30 1460 S 127.218 4.79882 -2.37642 0
M  V30 1461 C 128.374 6.02753 -1.6864 0
M  V30 1462 H 128.607 2.55787 -1.51526 0
M  V30 1463 H 126.14 1.26394 -0.886793 0
M  V30 1464 H 128.098 4.07873 0.463664 0
M  V30 1465 H 126.759 3.00331 0.919801 0
M  V30 1466 H 125.952 5.02909 -0.33143 0
M  V30 1467 H 125.554 3.53722 -1.21478 0
M  V30 1468 H 127.846 6.70113 -0.997753 0
M  V30 1469 H 128.789 6.61754 -2.51967 0
M  V30 1470 H 129.197 5.52355 -1.16465 0
M  V30 1471 N 128.595 0.856903 1.32268 0
M  V30 1472 C 129.528 0.247937 2.26849 0
M  V30 1473 C 130.506 -0.615382 1.50505 0
M  V30 1474 O 131.69 -0.571689 1.79622 0
M  V30 1475 C 128.817 -0.650093 3.32403 0
M  V30 1476 C 127.863 0.140138 4.2627 0
M  V30 1477 S 128.696 1.51004 5.13769 0
M  V30 1478 C 129.852 0.61778 6.22844 0
M  V30 1479 H 130.085 1.04971 2.78152 0
M  V30 1480 H 127.618 0.654665 1.39834 0
M  V30 1481 H 129.576 -1.16256 3.93694 0
M  V30 1482 H 128.237 -1.4257 2.7988 0
M  V30 1483 H 127.43 -0.543945 5.01056 0
M  V30 1484 H 127.032 0.584267 3.69408 0
M  V30 1485 H 129.324 -0.177053 6.77269 0
M  V30 1486 H 130.267 1.33636 6.95375 0
M  V30 1487 H 130.675 0.191124 5.64176 0
M  V30 1488 N 130.073 -1.45103 0.615059 0
M  V30 1489 C 131.036 -2.29025 -0.0895485 0
M  V30 1490 C 132.036 -1.40174 -0.787906 0
M  V30 1491 O 133.226 -1.62217 -0.634933 0
M  V30 1492 C 130.358 -3.21376 -1.13711 0
M  V30 1493 H 131.551 -2.92807 0.648382 0
M  V30 1494 H 129.104 -1.51749 0.374444 0
M  V30 1495 H 129.839 -2.6241 -1.90556 0
M  V30 1496 H 129.624 -3.86834 -0.640475 0
M  V30 1497 H 131.114 -3.84459 -1.63036 0
M  V30 1498 N 131.551 -0.354651 -1.53558 0
M  V30 1499 C 132.481 0.489091 -2.2832 0
M  V30 1500 C 133.462 1.09324 -1.30316 0
M  V30 1501 O 134.647 1.11255 -1.59173 0
M  V30 1502 C 131.777 1.63456 -3.0643 0
M  V30 1503 C 130.731 1.1582 -4.12031 0
M  V30 1504 C 130.057 2.39305 -4.7816 0
M  V30 1505 C 131.357 0.250731 -5.21698 0
M  V30 1506 H 133.051 -0.134614 -2.99097 0
M  V30 1507 H 130.597 -0.0661826 -1.43848 0
M  V30 1508 H 132.55 2.23136 -3.57475 0
M  V30 1509 H 131.274 2.28533 -2.33325 0
M  V30 1510 H 129.933 0.584146 -3.61916 0
M  V30 1511 H 129.581 3.02814 -4.01637 0
M  V30 1512 H 129.281 2.08109 -5.49513 0
M  V30 1513 H 130.805 2.99691 -5.31994 0
M  V30 1514 H 132.219 0.754695 -5.68311 0
M  V30 1515 H 130.616 0.0301468 -6.00092 0
M  V30 1516 H 131.686 -0.710125 -4.79672 0
M  V30 1517 N 133.029 1.57378 -0.0835403 0
M  V30 1518 C 133.961 2.10389 0.909338 0
M  V30 1519 C 134.974 1.03858 1.25369 0
M  V30 1520 O 136.163 1.31338 1.20882 0
M  V30 1521 C 133.263 2.55908 2.2218 0
M  V30 1522 C 132.436 3.86145 2.05453 0
M  V30 1523 C 131.495 4.17633 3.20108 0
M  V30 1524 O 130.521 4.87043 2.94581 0
M  V30 1525 N 131.723 3.72113 4.45547 0
M  V30 1526 H 134.488 2.962 0.456657 0
M  V30 1527 H 132.049 1.61579 0.101877 0
M  V30 1528 H 134.041 2.74027 2.97811 0
M  V30 1529 H 132.611 1.75171 2.58909 0
M  V30 1530 H 131.831 3.7729 1.1422 0
M  V30 1531 H 133.119 4.7137 1.91541 0
M  V30 1532 H 132.517 3.16062 4.69171 0
M  V30 1533 H 131.074 3.95409 5.18165 0
M  V30 1534 N 134.507 -0.190092 1.56449 0
M  V30 1535 C 135.457 -1.23977 1.91347 0
M  V30 1536 C 136.441 -1.40747 0.779693 0
M  V30 1537 O 137.633 -1.43033 1.04262 0
M  V30 1538 C 134.762 -2.58347 2.26079 0
M  V30 1539 C 133.848 -2.4535 3.45925 0
M  V30 1540 N 134.239 -2.02039 4.63696 0
M  V30 1541 C 132.537 -2.76229 3.50162 0
M  V30 1542 C 133.238 -2.01053 5.4585 0
M  V30 1543 N 132.214 -2.42747 4.8639 0
M  V30 1544 H 136.016 -0.896318 2.79899 0
M  V30 1545 H 133.53 -0.398496 1.57435 0
M  V30 1546 H 135.527 -3.34173 2.49267 0
M  V30 1547 H 134.187 -2.93512 1.38856 0
M  V30 1548 H 135.198 -1.7267 4.88268 0
M  V30 1549 H 131.875 -3.15556 2.73369 0
M  V30 1550 H 133.265 -1.69426 6.50188 0
M  V30 1551 N 135.985 -1.50799 -0.457987 0
M  V30 1552 C 137.231 -1.62683 -1.21088 0
M  V30 1553 C 137.564 -0.332268 -1.91336 0
M  V30 1554 O 136.839 0.667043 -1.82704 0
M  V30 1555 C 137.122 -2.81615 -2.24422 0
M  V30 1556 C 136.975 -4.20989 -1.58392 0
M  V30 1557 C 138.294 -2.96085 -3.2561 0
M  V30 1558 H 135.413 -0.592087 -0.438864 0
M  V30 1559 H 138.055 -1.83225 -0.50286 0
M  V30 1560 H 136.205 -2.64231 -2.84806 0
M  V30 1561 H 137.877 -4.49994 -1.01504 0
M  V30 1562 H 136.12 -4.24641 -0.886704 0
M  V30 1563 H 136.791 -5.0016 -2.33547 0
M  V30 1564 H 139.267 -3.12042 -2.75262 0
M  V30 1565 H 138.143 -3.80902 -3.95228 0
M  V30 1566 H 138.404 -2.0726 -3.90507 0
M  V30 1567 N 137.463 0.71206 -1.40597 0
M  V30 1568 C 138.426 1.80785 -1.40888 0
M  V30 1569 C 139.426 1.57937 -0.302103 0
M  V30 1570 O 140.616 1.64913 -0.561182 0
M  V30 1571 C 137.748 3.18927 -1.20409 0
M  V30 1572 H 138.941 1.81924 -2.38419 0
M  V30 1573 H 136.494 0.91805 -1.26497 0
M  V30 1574 H 137.229 3.23436 -0.236522 0
M  V30 1575 H 137.014 3.36911 -2.00582 0
M  V30 1576 H 138.504 3.98949 -1.23408 0
M  V30 1577 N 138.941 1.26152 0.944643 0
M  V30 1578 C 139.873 1.03199 2.04652 0
M  V30 1579 C 140.886 -0.00642356 1.62799 0
M  V30 1580 O 142.075 0.233263 1.76969 0
M  V30 1581 C 139.175 0.540111 3.34568 0
M  V30 1582 C 138.348 1.64697 4.05208 0
M  V30 1583 C 137.407 1.15374 5.13396 0
M  V30 1584 O 136.433 1.85013 5.38293 0
M  V30 1585 N 137.635 0.00031529 5.805 0
M  V30 1586 H 140.4 1.9808 2.2491 0
M  V30 1587 H 137.961 1.17491 1.11389 0
M  V30 1588 H 139.953 0.194401 4.04233 0
M  V30 1589 H 138.523 -0.315021 3.11009 0
M  V30 1590 H 137.743 2.16379 3.29506 0
M  V30 1591 H 139.031 2.3903 4.49157 0
M  V30 1592 H 138.429 -0.581336 5.62705 0
M  V30 1593 H 136.986 -0.286346 6.51171 0
M  V30 1594 N 140.419 -1.14872 1.07899 0
M  V30 1595 C 141.369 -2.17809 0.674027 0
M  V30 1596 C 142.353 -1.58008 -0.303699 0
M  V30 1597 O 143.545 -1.76616 -0.11654 0
M  V30 1598 C 140.674 -3.43208 0.0793318 0
M  V30 1599 C 139.76 -4.10051 1.08253 0
M  V30 1600 N 140.151 -4.52296 2.2641 0
M  V30 1601 C 138.449 -4.36469 0.917124 0
M  V30 1602 C 139.15 -5.04199 2.901 0
M  V30 1603 N 138.126 -4.98088 2.17736 0
M  V30 1604 H 141.928 -2.48207 1.57386 0
M  V30 1605 H 139.442 -1.315 0.952976 0
M  V30 1606 H 141.439 -4.16272 -0.228719 0
M  V30 1607 H 140.099 -3.14291 -0.815551 0
M  V30 1608 H 141.11 -4.45504 2.64096 0
M  V30 1609 H 137.787 -4.17432 0.0756078 0
M  V30 1610 H 139.177 -5.46802 3.90458 0
M  V30 1611 N 141.898 -0.863906 -1.31812 0
M  V30 1612 C 142.845 -0.313303 -2.28664 0
M  V30 1613 C 143.815 0.584868 -1.55462 0
M  V30 1614 O 145 0.517805 -1.83639 0
M  V30 1615 C 142.14 0.48441 -3.41683 0
M  V30 1616 C 141.253 -0.440594 -4.29747 0
M  V30 1617 C 140.388 0.370652 -5.29905 0
M  V30 1618 C 139.427 -0.551164 -6.09613 0
M  V30 1619 N 138.564 0.223462 -7.01744 0
M  V30 1620 H 143.404 -1.14444 -2.75148 0
M  V30 1621 H 140.941 -0.575769 -1.35364 0
M  V30 1622 H 142.899 0.962627 -4.05943 0
M  V30 1623 H 141.529 1.28029 -2.96325 0
M  V30 1624 H 140.581 -1.03724 -3.65986 0
M  V30 1625 H 141.893 -1.14767 -4.85417 0
M  V30 1626 H 141.047 0.911638 -5.99812 0
M  V30 1627 H 139.786 1.11105 -4.74876 0
M  V30 1628 H 138.791 -1.10396 -5.38603 0
M  V30 1629 H 140.016 -1.29032 -6.66729 0
M  V30 1630 H 137.962 0.946787 -6.49132 0
M  V30 1631 H 137.879 -0.424399 -7.54808 0
M  V30 1632 H 139.147 0.745876 -7.75923 0
M  V30 1633 N 143.376 1.44774 -0.622745 0
M  V30 1634 C 144.324 2.32387 0.0994683 0
M  V30 1635 C 145.318 1.46859 0.844326 0
M  V30 1636 O 146.524 1.63254 0.758174 0
M  V30 1637 H 142.899 0.750273 0.0509291 0
M  V30 1638 H 144.87 2.91062 -0.65767 0
M  V30 1639 C 143.619 3.30723 1.07319 0
M  V30 1640 H 142.942 3.96541 0.509462 0
M  V30 1641 H 144.382 3.94725 1.54817 0
M  V30 1642 C 142.841 2.59021 2.15429 0
M  V30 1643 O 143.371 2.38286 3.23393 0
M  V30 1644 N 141.577 2.189 1.91131 0
M  V30 1645 H 141.124 2.35964 1.03337 0
M  V30 1646 H 141.082 1.71251 2.63668 0
M  V30 1647 N 144.854 0.36279 1.53368 0
M  V30 1648 C 146.103 -0.22888 2.00397 0
M  V30 1649 C 146.416 -1.50096 1.25421 0
M  V30 1650 O 147.622 -2.17106 1.63025 0
M  V30 1651 C 146.078 -0.458417 3.56969 0
M  V30 1652 C 145.686 0.798877 4.4082 0
M  V30 1653 C 147.43 -1.00789 4.12361 0
M  V30 1654 C 145.337 0.539078 5.88938 0
M  V30 1655 H 144.267 -0.089305 0.748693 0
M  V30 1656 H 146.918 0.481099 1.77081 0
M  V30 1657 H 145.3 -1.22959 3.76427 0
M  V30 1658 H 146.474 1.57262 4.33134 0
M  V30 1659 H 144.789 1.27137 3.96516 0
M  V30 1660 H 147.386 -1.21754 5.20653 0
M  V30 1661 H 147.729 -1.9692 3.66781 0
M  V30 1662 H 148.262 -0.296961 3.9669 0
M  V30 1663 H 145.001 1.47064 6.3879 0
M  V30 1664 H 144.521 -0.196222 5.99479 0
M  V30 1665 H 146.2 0.163542 6.46793 0
M  V30 1666 N 146.332 -1.57332 0.0918853 0
M  V30 1667 C 147.295 -2.12708 -0.85369 0
M  V30 1668 C 148.295 -1.05561 -1.213 0
M  V30 1669 O 149.485 -1.31461 -1.14296 0
M  V30 1670 C 146.617 -2.64503 -2.15061 0
M  V30 1671 H 147.81 -2.97573 -0.3729 0
M  V30 1672 H 145.363 -1.55509 -0.157072 0
M  V30 1673 H 146.098 -1.83149 -2.67632 0
M  V30 1674 H 145.883 -3.4284 -1.90272 0
M  V30 1675 H 147.373 -3.07351 -2.82711 0
M  V30 1676 N 147.81 0.181792 -1.56548 0
M  V30 1677 C 149.057 0.900097 -1.81396 0
M  V30 1678 C 149.385 1.82695 -0.667281 0
M  V30 1679 O 148.64 1.92614 0.346146 0
M  V30 1680 C 148.939 1.73728 -3.12335 0
M  V30 1681 C 148.605 0.960255 -4.40556 0
M  V30 1682 C 147.267 0.745766 -4.75386 0
M  V30 1683 C 149.619 0.414477 -5.19549 0
M  V30 1684 C 146.947 -0.0257694 -5.86694 0
M  V30 1685 C 149.299 -0.343916 -6.31664 0
M  V30 1686 C 147.963 -0.569301 -6.65068 0
M  V30 1687 H 147.233 0.329369 -0.663775 0
M  V30 1688 H 149.88 0.165647 -1.90782 0
M  V30 1689 H 148.185 2.54081 -2.98245 0
M  V30 1690 H 149.882 2.29591 -3.28769 0
M  V30 1691 H 146.472 1.13746 -4.13231 0
M  V30 1692 H 150.656 0.567554 -4.93044 0
M  V30 1693 H 145.912 -0.210233 -6.11038 0
M  V30 1694 H 150.086 -0.774133 -6.92084 0
M  V30 1695 H 147.713 -1.16903 -7.51158 0
M  V30 1696 N 149.288 1.51039 0.449983 0
M  V30 1697 C 150.22 1.67617 1.56324 0
M  V30 1698 C 151.233 0.557083 1.52972 0
M  V30 1699 O 152.422 0.830989 1.57977 0
M  V30 1700 C 149.522 1.66402 2.95235 0
M  V30 1701 C 148.695 2.9469 3.23229 0
M  V30 1702 C 147.754 2.85832 4.41799 0
M  V30 1703 O 146.78 3.59785 4.41071 0
M  V30 1704 N 147.982 2.00821 5.44657 0
M  V30 1705 H 150.747 2.63648 1.42512 0
M  V30 1706 H 148.308 1.48767 0.638737 0
M  V30 1707 H 150.3 1.58062 3.72557 0
M  V30 1708 H 148.87 0.780182 3.02708 0
M  V30 1709 H 148.09 3.16996 2.34323 0
M  V30 1710 H 149.378 3.79636 3.38754 0
M  V30 1711 H 148.776 1.40091 5.48079 0
M  V30 1712 H 147.333 1.98368 6.20881 0
M  V30 1713 N 150.766 -0.704594 1.40972 0
M  V30 1714 C 151.991 -1.49858 1.43378 0
M  V30 1715 C 152.416 -1.88061 0.038184 0
M  V30 1716 O 151.774 -1.5402 -0.956425 0
M  V30 1717 C 151.822 -2.74333 2.34038 0
M  V30 1718 O 150.926 -3.7147 1.7912 0
M  V30 1719 H 150.267 -0.45139 0.486974 0
M  V30 1720 H 152.797 -0.866832 1.8533 0
M  V30 1721 H 152.807 -3.22741 2.49604 0
M  V30 1722 H 151.482 -2.45863 3.35446 0
M  V30 1723 H 150.059 -3.30363 1.72958 0
M  V30 1724 N 152.244 -1.26651 -0.937939 0
M  V30 1725 C 153.491 -1.12387 -1.6845 0
M  V30 1726 C 153.819 0.332208 -1.91642 0
M  V30 1727 O 153.074 1.2602 -1.49725 0
M  V30 1728 C 153.373 -1.84168 -3.06295 0
M  V30 1729 C 153.039 -3.34056 -3.02849 0
M  V30 1730 C 151.701 -3.74942 -3.01616 0
M  V30 1731 C 154.053 -4.29741 -2.9491 0
M  V30 1732 C 151.381 -5.09894 -2.90215 0
M  V30 1733 C 153.733 -5.64738 -2.8505 0
M  V30 1734 C 152.397 -6.0493 -2.82162 0
M  V30 1735 H 151.667 -0.411252 -0.616403 0
M  V30 1736 H 154.314 -1.57134 -1.09459 0
M  V30 1737 H 152.619 -1.319 -3.6893 0
M  V30 1738 H 154.316 -1.70569 -3.62915 0
M  V30 1739 H 150.906 -3.01534 -3.0459 0
M  V30 1740 H 155.09 -3.99133 -2.94969 0
M  V30 1741 H 150.346 -5.40194 -2.86358 0
M  V30 1742 H 154.52 -6.38561 -2.77872 0
M  V30 1743 H 152.147 -7.09457 -2.73084 0
M  V30 1744 N 153.722 1.14298 -1.08507 0
M  V30 1745 C 154.952 1.88945 -0.835663 0
M  V30 1746 C 155.36 1.78894 0.615928 0
M  V30 1747 O 154.703 1.1468 1.43506 0
M  V30 1748 C 154.765 3.39585 -1.17994 0
M  V30 1749 C 154.429 3.7342 -2.63451 0
M  V30 1750 C 155.426 3.73454 -3.61702 0
M  V30 1751 C 153.111 4.03368 -2.99332 0
M  V30 1752 C 155.105 4.02961 -4.93864 0
M  V30 1753 C 152.792 4.32538 -4.31687 0
M  V30 1754 C 153.79 4.32318 -5.28763 0
M  V30 1755 O 153.478 4.6078 -6.58739 0
M  V30 1756 H 153.21 0.605307 -0.300965 0
M  V30 1757 H 155.764 1.45673 -1.44806 0
M  V30 1758 H 153.994 3.83315 -0.51055 0
M  V30 1759 H 155.683 3.9554 -0.911182 0
M  V30 1760 H 156.449 3.50403 -3.35325 0
M  V30 1761 H 152.328 4.02692 -2.24411 0
M  V30 1762 H 155.872 4.02704 -5.69627 0
M  V30 1763 H 151.769 4.55059 -4.57812 0
M  V30 1764 H 152.537 4.78492 -6.64069 0
M  V30 1765 N 155.201 0.870884 1.31352 0
M  V30 1766 C 156.149 0.316445 2.30437 0
M  V30 1767 C 157.143 -0.568965 1.59559 0
M  V30 1768 O 158.349 -0.454964 1.74155 0
M  V30 1769 H 154.724 0.0836521 0.747333 0
M  V30 1770 H 156.695 1.16606 2.74673 0
M  V30 1771 C 155.444 -0.46635 3.44558 0
M  V30 1772 H 154.767 0.205687 3.99271 0
M  V30 1773 H 156.207 -0.819614 4.16003 0
M  V30 1774 C 154.666 -1.65797 2.9328 0
M  V30 1775 O 155.196 -2.75728 2.92125 0
M  V30 1776 N 153.402 -1.49041 2.4947 0
M  V30 1777 H 152.949 -0.59612 2.50608 0
M  V30 1778 H 152.907 -2.28911 2.15516 0
M  V30 1779 N 156.679 -1.44442 0.630414 0
M  V30 1780 C 157.609 -2.33418 -0.0618083 0
M  V30 1781 C 158.59 -1.48165 -0.835541 0
M  V30 1782 O 159.775 -1.76886 -0.801564 0
M  V30 1783 C 156.905 -3.31222 -1.04449 0
M  V30 1784 C 155.859 -4.26288 -0.382436 0
M  V30 1785 C 155.185 -5.13954 -1.47497 0
M  V30 1786 C 156.485 -5.1744 0.710865 0
M  V30 1787 H 158.179 -2.91548 0.681184 0
M  V30 1788 H 155.725 -1.40191 0.329026 0
M  V30 1789 H 157.678 -3.92351 -1.53748 0
M  V30 1790 H 156.402 -2.71299 -1.81836 0
M  V30 1791 H 155.061 -3.6649 0.0899054 0
M  V30 1792 H 154.709 -4.50385 -2.2397 0
M  V30 1793 H 154.409 -5.7837 -1.03737 0
M  V30 1794 H 155.933 -5.77955 -1.96979 0
M  V30 1795 H 157.347 -5.72509 0.300996 0
M  V30 1796 H 155.744 -5.90455 1.07156 0
M  V30 1797 H 156.814 -4.58496 1.57829 0
M  V30 1798 N 158.157 -0.370918 -1.53173 0
M  V30 1799 C 159.406 0.218249 -2.00516 0
M  V30 1800 C 159.719 1.49429 -1.26215 0
M  V30 1801 O 160.925 2.16239 -1.64174 0
M  V30 1802 C 159.381 0.43948 -3.57207 0
M  V30 1803 C 158.989 -0.822244 -4.4039 0
M  V30 1804 C 160.733 0.986012 -4.1289 0
M  V30 1805 C 158.64 -0.570304 -5.88644 0
M  V30 1806 H 157.57 0.0853333 -0.749156 0
M  V30 1807 H 160.221 -0.490483 -1.76823 0
M  V30 1808 H 158.603 1.20961 -3.77074 0
M  V30 1809 H 159.777 -1.59557 -4.32294 0
M  V30 1810 H 158.092 -1.29238 -3.95836 0
M  V30 1811 H 160.689 1.18991 -5.21292 0
M  V30 1812 H 161.032 1.94972 -3.6782 0
M  V30 1813 H 161.565 0.27592 -3.96842 0
M  V30 1814 H 158.304 -1.50449 -6.38001 0
M  V30 1815 H 157.824 0.164427 -5.99575 0
M  V30 1816 H 159.503 -0.19784 -6.46697 0
M  V30 1817 N 159.635 1.57281 -0.100228 0
M  V30 1818 C 160.912 1.86014 0.604812 0
M  V30 1819 C 161.292 0.998025 1.86018 0
M  V30 1820 O 160.64 0.0718184 2.28387 0
M  V30 1821 C 160.85 3.36784 0.915278 0
M  V30 1822 C 162.198 4.04957 1.27651 0
M  V30 1823 O 163.222 3.41695 1.00613 0
M  V30 1824 O 162.081 5.16593 1.7831 0
M  V30 1825 H 159.175 0.76942 0.303185 0
M  V30 1826 H 161.721 1.69176 -0.133313 0
M  V30 1827 H 160.493 3.91292 0.0248896 0
M  V30 1828 H 160.116 3.58987 1.70921 0
M  V30 1829 N 161.113 -0.173488 1.56642 0
M  V30 1830 C 162.341 -0.906095 1.86004 0
M  V30 1831 C 162.756 -1.75921 0.685355 0
M  V30 1832 O 162.113 -1.79198 -0.345578 0
M  V30 1833 C 162.164 -1.78462 3.14378 0
M  V30 1834 O 161.885 -0.965914 4.27319 0
M  V30 1835 C 163.386 -2.62707 3.57071 0
M  V30 1836 H 160.606 -0.263341 0.617165 0
M  V30 1837 H 163.15 -0.174236 2.03756 0
M  V30 1838 H 161.305 -2.46984 2.98459 0
M  V30 1839 H 161.719 -1.56655 5.00559 0
M  V30 1840 H 163.193 -3.19969 4.49804 0
M  V30 1841 H 163.67 -3.37472 2.81086 0
M  V30 1842 H 164.276 -1.99521 3.75595 0
M  V30 1843 N 162.591 -1.51276 -0.441967 0
M  V30 1844 C 163.837 -1.63958 -1.19355 0
M  V30 1845 C 164.17 -0.352543 -1.90973 0
M  V30 1846 O 163.445 0.647627 -1.83401 0
M  V30 1847 C 163.728 -2.83979 -2.21422 0
M  V30 1848 C 163.581 -4.22646 -1.53918 0
M  V30 1849 C 164.9 -2.99521 -3.22451 0
M  V30 1850 H 162.019 -0.596709 -0.432559 0
M  V30 1851 H 164.661 -1.83748 -0.483398 0
M  V30 1852 H 162.811 -2.67237 -2.81987 0
M  V30 1853 H 164.483 -4.51045 -0.967256 0
M  V30 1854 H 162.726 -4.25558 -0.841615 0
M  V30 1855 H 163.397 -5.02609 -2.28229 0
M  V30 1856 H 165.873 -3.14944 -2.71937 0
M  V30 1857 H 164.749 -3.85072 -3.91166 0
M  V30 1858 H 165.01 -2.11391 -3.88287 0
M  V30 1859 N 164.069 0.697108 -1.41344 0
M  V30 1860 C 165.299 1.48377 -1.43763 0
M  V30 1861 C 165.707 1.89156 -0.0408726 0
M  V30 1862 O 165.05 1.57239 0.949812 0
M  V30 1863 C 165.112 2.7781 -2.2817 0
M  V30 1864 C 164.776 2.59244 -3.76353 0
M  V30 1865 C 165.773 2.25292 -4.68551 0
M  V30 1866 C 163.458 2.74933 -4.20378 0
M  V30 1867 C 165.452 2.07264 -6.02761 0
M  V30 1868 C 163.139 2.56521 -5.54653 0
M  V30 1869 C 164.137 2.22737 -6.4566 0
M  V30 1870 O 163.825 2.04485 -7.77458 0
M  V30 1871 H 163.557 0.463842 -0.491759 0
M  V30 1872 H 166.111 0.865934 -1.86255 0
M  V30 1873 H 164.341 3.41995 -1.8049 0
M  V30 1874 H 166.03 3.39608 -2.22309 0
M  V30 1875 H 166.796 2.12787 -4.35829 0
M  V30 1876 H 162.675 3.00213 -3.49848 0
M  V30 1877 H 166.219 1.80817 -6.73759 0
M  V30 1878 H 162.116 2.68616 -5.86955 0
M  V30 1879 H 162.884 2.1926 -7.88586 0
M  V30 1880 N 165.547 1.27147 0.931209 0
M  V30 1881 C 166.494 1.09568 2.03134 0
M  V30 1882 C 167.464 -0.00222433 1.661 0
M  V30 1883 O 168.649 0.159439 1.90133 0
M  V30 1884 C 165.789 0.745231 3.36957 0
M  V30 1885 C 164.902 1.92041 3.86968 0
M  V30 1886 C 164.037 1.51216 5.09222 0
M  V30 1887 C 163.076 2.65504 5.5152 0
M  V30 1888 N 162.213 2.25291 6.64972 0
M  V30 1889 H 167.053 2.03708 2.17502 0
M  V30 1890 H 164.59 1.01411 1.06556 0
M  V30 1891 H 166.548 0.522878 4.1391 0
M  V30 1892 H 165.178 -0.159202 3.22407 0
M  V30 1893 H 164.23 2.25541 3.06326 0
M  V30 1894 H 165.542 2.77787 4.1429 0
M  V30 1895 H 164.696 1.25084 5.93666 0
M  V30 1896 H 163.435 0.625749 4.83669 0
M  V30 1897 H 162.44 2.92354 4.65628 0
M  V30 1898 H 163.665 3.54761 5.7907 0
M  V30 1899 H 161.611 1.39098 6.41083 0
M  V30 1900 H 161.528 3.04577 6.91931 0
M  V30 1901 H 162.796 2.02398 7.52765 0
M  V30 1902 N 167.025 -1.13721 1.09112 0
M  V30 1903 C 168.302 -1.81155 0.737706 0
M  V30 1904 C 168.682 -1.96253 -0.777683 0
M  V30 1905 O 168.03 -1.52807 -1.69889 0
M  V30 1906 C 168.24 -3.16392 1.47299 0
M  V30 1907 C 169.588 -3.91787 1.63671 0
M  V30 1908 O 170.612 -3.26005 1.43524 0
M  V30 1909 O 169.471 -5.0977 1.96969 0
M  V30 1910 H 166.565 -0.783518 0.26463 0
M  V30 1911 H 169.111 -1.20676 1.19312 0
M  V30 1912 H 167.883 -3.0061 2.50498 0
M  V30 1913 H 167.506 -3.8457 1.00953 0
M  V30 1914 N 168.503 -0.877838 -1.30888 0
M  V30 1915 C 169.435 -0.296607 -2.27273 0
M  V30 1916 C 170.448 0.544799 -1.53414 0
M  V30 1917 O 171.637 0.365511 -1.74718 0
M  V30 1918 C 168.737 0.597481 -3.33592 0
M  V30 1919 C 167.91 -0.213251 -4.3688 0
M  V30 1920 C 166.969 0.610208 -5.2265 0
M  V30 1921 O 165.995 0.035441 -5.69189 0
M  V30 1922 N 167.197 1.92071 -5.47804 0
M  V30 1923 H 169.962 -1.12492 -2.77787 0
M  V30 1924 H 167.523 -0.740105 -1.43993 0
M  V30 1925 H 169.515 1.15425 -3.87891 0
M  V30 1926 H 168.085 1.32647 -2.83061 0
M  V30 1927 H 167.305 -0.951466 -3.82545 0
M  V30 1928 H 168.593 -0.769262 -5.02951 0
M  V30 1929 H 167.991 2.4107 -5.11763 0
M  V30 1930 H 166.548 2.42508 -6.05007 0
M  V30 1931 N 169.982 1.44106 -0.638065 0
M  V30 1932 C 170.932 2.27843 0.0847285 0
M  V30 1933 C 171.916 1.39055 0.809471 0
M  V30 1934 O 173.108 1.62808 0.694435 0
M  V30 1935 C 170.237 3.26497 1.06089 0
M  V30 1936 C 169.323 4.22772 0.33541 0
M  V30 1937 N 169.714 5.01737 -0.639787 0
M  V30 1938 C 168.012 4.42227 0.578921 0
M  V30 1939 C 168.713 5.71792 -1.06904 0
M  V30 1940 N 167.689 5.42079 -0.406395 0
M  V30 1941 H 171.491 2.86305 -0.663814 0
M  V30 1942 H 169.005 1.55627 -0.464122 0
M  V30 1943 H 171.002 3.8525 1.59337 0
M  V30 1944 H 169.662 2.69595 1.80966 0
M  V30 1945 H 170.673 5.07799 -1.01789 0
M  V30 1946 H 167.35 3.96415 1.31003 0
M  V30 1947 H 168.74 6.45205 -1.8751 0
M  V30 1948 N 171.46 0.379036 1.52974 0
M  V30 1949 C 172.707 -0.206421 2.01445 0
M  V30 1950 C 173.035 -1.47668 1.26587 0
M  V30 1951 O 172.29 -1.92514 0.351675 0
M  V30 1952 C 172.589 -0.53096 3.53434 0
M  V30 1953 C 172.255 0.646546 4.46241 0
M  V30 1954 C 170.917 0.969604 4.7133 0
M  V30 1955 C 173.269 1.43479 5.01062 0
M  V30 1956 C 170.597 2.08263 5.48492 0
M  V30 1957 C 172.949 2.53834 5.7944 0
M  V30 1958 C 171.613 2.86659 6.02812 0
M  V30 1959 H 170.883 -0.0755349 0.73714 0
M  V30 1960 H 173.53 0.514271 1.84465 0
M  V30 1961 H 171.835 -1.33285 3.68432 0
M  V30 1962 H 173.532 -0.996417 3.88423 0
M  V30 1963 H 170.122 0.384734 4.2687 0
M  V30 1964 H 174.306 1.19844 4.81613 0
M  V30 1965 H 169.562 2.34078 5.64816 0
M  V30 1966 H 173.736 3.15319 6.20924 0
M  V30 1967 H 171.363 3.73026 6.62387 0
M  V30 1968 N 172.938 -1.57226 0.108567 0
M  V30 1969 C 174.166 -1.99179 -0.559954 0
M  V30 1970 C 174.581 -0.988022 -1.60884 0
M  V30 1971 O 173.938 0.0205512 -1.82488 0
M  V30 1972 C 173.989 -3.41159 -1.19552 0
M  V30 1973 O 173.71 -4.37694 -0.188577 0
M  V30 1974 C 175.211 -3.98188 -1.94837 0
M  V30 1975 H 172.431 -0.654228 -0.149088 0
M  V30 1976 H 174.975 -2.03598 0.19183 0
M  V30 1977 H 173.13 -3.37711 -1.89815 0
M  V30 1978 H 173.544 -5.20469 -0.649014 0
M  V30 1979 H 175.018 -4.99644 -2.34648 0
M  V30 1980 H 175.495 -3.3675 -2.81951 0
M  V30 1981 H 176.101 -4.0515 -1.2936 0
M  V30 1982 N 174.416 0.165178 -1.56732 0
M  V30 1983 C 175.349 1.23336 -1.91998 0
M  V30 1984 C 176.327 1.42476 -0.783531 0
M  V30 1985 O 177.511 1.57384 -1.03743 0
M  V30 1986 C 174.638 2.59533 -2.17625 0
M  V30 1987 C 173.684 2.57093 -3.40302 0
M  V30 1988 S 174.517 2.05571 -4.9447 0
M  V30 1989 C 175.673 3.43532 -5.23198 0
M  V30 1990 H 175.906 0.932387 -2.82301 0
M  V30 1991 H 173.439 0.370013 -1.49901 0
M  V30 1992 H 175.397 3.37918 -2.3307 0
M  V30 1993 H 174.058 2.86827 -1.28019 0
M  V30 1994 H 173.251 3.57308 -3.55453 0
M  V30 1995 H 172.853 1.86806 -3.24005 0
M  V30 1996 H 175.145 4.39559 -5.15552 0
M  V30 1997 H 176.088 3.33251 -6.2478 0
M  V30 1998 H 176.496 3.39828 -4.50752 0
M  V30 1999 N 175.894 1.51508 0.433938 0
M  V30 2000 C 177.141 1.64345 1.18309 0
M  V30 2001 C 177.469 0.361315 1.91115 0
M  V30 2002 O 176.724 -0.654753 1.84422 0
M  V30 2003 C 177.023 2.79928 2.22205 0
M  V30 2004 C 176.689 4.19078 1.66387 0
M  V30 2005 C 175.351 4.56932 1.50887 0
M  V30 2006 C 177.703 5.05894 1.25381 0
M  V30 2007 C 175.031 5.79305 0.928608 0
M  V30 2008 C 177.383 6.2885 0.687823 0
M  V30 2009 C 176.047 6.65473 0.519755 0
M  V30 2010 H 175.317 0.601381 0.432923 0
M  V30 2011 H 177.964 1.85549 0.473676 0
M  V30 2012 H 176.269 2.52959 2.99197 0
M  V30 2013 H 177.966 2.87059 2.79997 0
M  V30 2014 H 174.556 3.89234 1.79428 0
M  V30 2015 H 178.74 4.77253 1.36175 0
M  V30 2016 H 173.996 6.06324 0.786186 0
M  V30 2017 H 178.17 6.95461 0.361581 0
M  V30 2018 H 175.797 7.6017 0.0679979 0
M  V30 2019 N 177.372 -0.689602 1.41712 0
M  V30 2020 C 178.282 -1.83314 1.46401 0
M  V30 2021 C 179.298 -1.7036 0.35405 0
M  V30 2022 O 180.474 -1.92171 0.602692 0
M  V30 2023 C 177.539 -3.19344 1.34982 0
M  V30 2024 C 176.6 -3.44363 2.56344 0
M  V30 2025 C 175.833 -4.73904 2.45461 0
M  V30 2026 O 176.056 -5.508 1.48241 0
M  V30 2027 O 174.99 -4.99839 3.35328 0
M  V30 2028 H 178.816 -1.82314 2.42889 0
M  V30 2029 H 176.401 -0.843438 1.23315 0
M  V30 2030 H 178.283 -4.00547 1.3092 0
M  V30 2031 H 176.958 -3.21014 0.41612 0
M  V30 2032 H 175.865 -2.63067 2.65982 0
M  V30 2033 H 177.198 -3.47512 3.48563 0
M  V30 2034 N 178.85 -1.27639 -0.924453 0
M  V30 2035 C 180.078 -1.16989 -1.70649 0
M  V30 2036 C 180.493 0.272869 -1.86818 0
M  V30 2037 O 179.85 1.18549 -1.38753 0
M  V30 2038 C 179.901 -1.85229 -3.10439 0
M  V30 2039 O 179.622 -3.23868 -2.95028 0
M  V30 2040 C 181.123 -1.80746 -4.04779 0
M  V30 2041 H 178.343 -0.406595 -0.53378 0
M  V30 2042 H 180.887 -1.68569 -1.15778 0
M  V30 2043 H 179.042 -1.37545 -3.6216 0
M  V30 2044 H 179.456 -3.57889 -3.83426 0
M  V30 2045 H 180.93 -2.33101 -5.00368 0
M  V30 2046 H 181.407 -0.777499 -4.32263 0
M  V30 2047 H 182.013 -2.28059 -3.58984 0
M  V30 2048 N 180.328 1.1314 -1.09713 0
M  V30 2049 C 181.605 1.80762 -0.747302 0
M  V30 2050 C 181.985 1.96663 0.767265 0
M  V30 2051 O 181.333 1.53706 1.69076 0
M  V30 2052 C 181.543 3.15606 -1.48975 0
M  V30 2053 C 182.891 3.90914 -1.65746 0
M  V30 2054 O 183.915 3.25239 -1.45251 0
M  V30 2055 O 182.774 5.08718 -1.9967 0
M  V30 2056 H 179.868 0.782103 -0.268782 0
M  V30 2057 H 182.414 1.20041 -1.19951 0
M  V30 2058 H 181.186 2.99278 -2.52088 0
M  V30 2059 H 180.809 3.84029 -1.02991 0
M  V30 2060 N 181.806 0.884767 1.30421 0
M  V30 2061 C 182.769 0.356277 2.26414 0
M  V30 2062 C 183.769 -0.501124 1.52792 0
M  V30 2063 O 184.959 -0.30831 1.7145 0
M  V30 2064 C 182.091 -0.492316 3.37326 0
M  V30 2065 H 183.284 1.20389 2.74675 0
M  V30 2066 H 180.837 0.661607 1.41607 0
M  V30 2067 H 181.572 -1.36052 2.94381 0
M  V30 2068 H 181.357 0.121832 3.91911 0
M  V30 2069 H 182.847 -0.853871 4.08777 0
M  V30 2070 N 183.284 -1.43765 0.645699 0
M  V30 2071 C 184.194 -2.34544 -0.0512957 0
M  V30 2072 C 185.21 -1.53455 -0.82022 0
M  V30 2073 O 186.386 -1.86133 -0.769176 0
M  V30 2074 C 183.451 -3.31636 -1.01087 0
M  V30 2075 C 182.512 -4.2863 -0.239712 0
M  V30 2076 C 181.745 -5.21084 -1.15358 0
M  V30 2077 O 181.968 -5.1779 -2.39269 0
M  V30 2078 O 180.902 -5.98593 -0.630038 0
M  V30 2079 H 184.728 -2.95624 0.695718 0
M  V30 2080 H 182.313 -1.43781 0.405882 0
M  V30 2081 H 184.195 -3.9136 -1.56254 0
M  V30 2082 H 182.87 -2.73069 -1.73824 0
M  V30 2083 H 181.777 -3.72408 0.355356 0
M  V30 2084 H 183.11 -4.90157 0.447936 0
M  V30 2085 N 184.763 -0.387143 -1.52771 0
M  V30 2086 C 185.693 0.440551 -2.29306 0
M  V30 2087 C 186.674 1.06535 -1.32606 0
M  V30 2088 O 187.859 1.07853 -1.61497 0
M  V30 2089 C 184.989 1.56919 -3.09829 0
M  V30 2090 C 183.943 1.07054 -4.14395 0
M  V30 2091 C 183.269 2.29109 -4.83129 0
M  V30 2092 C 184.569 0.140015 -5.22112 0
M  V30 2093 H 186.263 -0.198026 -2.98744 0
M  V30 2094 H 183.809 -0.09668 -1.43675 0
M  V30 2095 H 185.762 2.15503 -3.62128 0
M  V30 2096 H 184.486 2.23532 -2.3812 0
M  V30 2097 H 183.145 0.507247 -3.63074 0
M  V30 2098 H 182.793 2.94227 -4.0797 0
M  V30 2099 H 182.493 1.96406 -5.53804 0
M  V30 2100 H 184.017 2.88339 -5.38231 0
M  V30 2101 H 185.431 0.633978 -5.69784 0
M  V30 2102 H 183.828 -0.0971485 -6.00021 0
M  V30 2103 H 184.898 -0.811711 -4.78058 0
M  V30 2104 N 186.241 1.57166 -0.116904 0
M  V30 2105 C 187.488 1.95123 0.541603 0
M  V30 2106 C 187.816 1.00006 1.6682 0
M  V30 2107 O 187.071 0.0235658 1.95686 0
M  V30 2108 C 187.37 3.39508 1.11664 0
M  V30 2109 C 187.036 4.50762 0.111606 0
M  V30 2110 C 185.698 4.80918 -0.164758 0
M  V30 2111 C 188.05 5.18036 -0.573438 0
M  V30 2112 C 185.378 5.75666 -1.13249 0
M  V30 2113 C 187.73 6.13824 -1.52978 0
M  V30 2114 C 186.394 6.42374 -1.81415 0
M  V30 2115 H 185.664 0.714005 0.198187 0
M  V30 2116 H 188.311 1.9048 -0.197365 0
M  V30 2117 H 186.616 3.40835 1.93232 0
M  V30 2118 H 188.313 3.66189 1.63422 0
M  V30 2119 H 184.903 4.27272 0.337192 0
M  V30 2120 H 189.087 4.94896 -0.373092 0
M  V30 2121 H 184.343 5.96092 -1.35958 0
M  V30 2122 H 188.517 6.65039 -2.06629 0
M  V30 2123 H 186.144 7.15599 -2.56557 0
M  V30 2124 N 187.719 -0.156864 1.56817 0
M  V30 2125 C 188.967 -0.869404 1.82444 0
M  V30 2126 C 189.288 -1.82147 0.69623 0
M  V30 2127 O 188.558 -1.93847 -0.28287 0
M  V30 2128 H 187.138 -0.324043 0.673056 0
M  V30 2129 H 189.8 -0.153224 1.94297 0
M  V30 2130 H 188.896 -1.43761 2.77019 0
M  V30 2131 N 189.197 -1.51736 -0.425897 0
M  V30 2132 C 190.427 -1.68549 -1.19476 0
M  V30 2133 C 190.835 -0.387288 -1.85194 0
M  V30 2134 O 190.178 0.645142 -1.71999 0
M  V30 2135 C 190.24 -2.75275 -2.31223 0
M  V30 2136 C 189.904 -4.17534 -1.8578 0
M  V30 2137 C 190.901 -5.01936 -1.35485 0
M  V30 2138 C 188.586 -4.6369 -1.93123 0
M  V30 2139 C 190.58 -6.30559 -0.931347 0
M  V30 2140 C 188.267 -5.92307 -1.50384 0
M  V30 2141 C 189.265 -6.75569 -1.00473 0
M  V30 2142 O 188.953 -8.0178 -0.583452 0
M  V30 2143 H 188.685 -0.568525 -0.365725 0
M  V30 2144 H 191.239 -1.98982 -0.509444 0
M  V30 2145 H 189.469 -2.40182 -3.03067 0
M  V30 2146 H 191.158 -2.80853 -2.93047 0
M  V30 2147 H 191.924 -4.67475 -1.29197 0
M  V30 2148 H 187.803 -3.98997 -2.30916 0
M  V30 2149 H 191.347 -6.95498 -0.541084 0
M  V30 2150 H 187.244 -6.2628 -1.56346 0
M  V30 2151 H 188.012 -8.1543 -0.708275 0
M  V30 2152 N 190.675 0.682077 -1.42076 0
M  V30 2153 C 191.915 1.45424 -1.43636 0
M  V30 2154 C 192.279 1.91939 -0.0484001 0
M  V30 2155 O 193.48 2.6873 0.0612514 0
M  V30 2156 C 191.751 2.62427 -2.42625 0
M  V30 2157 S 193.31 3.51379 -2.62827 0
M  V30 2158 H 190.128 0.496779 -0.508657 0
M  V30 2159 H 192.73 0.794645 -1.78621 0
M  V30 2160 H 191.434 2.26481 -3.42249 0
M  V30 2161 H 190.965 3.33266 -2.09039 0
M  V30 2162 H 192.98 4.58141 -1.9058 0
M  V30 2163 N 192.153 1.28127 0.917671 0
M  V30 2164 C 193.383 1.17722 1.6978 0
M  V30 2165 C 193.791 -0.267261 1.87303 0
M  V30 2166 O 193.134 -1.19286 1.39702 0
M  V30 2167 C 193.196 1.79958 3.11216 0
M  V30 2168 C 192.86 3.29187 3.16993 0
M  V30 2169 C 193.857 4.25679 2.98485 0
M  V30 2170 C 191.542 3.70075 3.39632 0
M  V30 2171 C 193.536 5.61035 3.02521 0
M  V30 2172 C 191.223 5.05557 3.433 0
M  V30 2173 C 192.221 6.00847 3.24764 0
M  V30 2174 O 191.909 7.33859 3.28187 0
M  V30 2175 H 191.641 0.409788 0.537634 0
M  V30 2176 H 194.195 1.69694 1.15728 0
M  V30 2177 H 192.425 1.22475 3.66793 0
M  V30 2178 H 194.114 1.64125 3.71238 0
M  V30 2179 H 194.88 3.95426 2.80826 0
M  V30 2180 H 190.759 2.96373 3.53106 0
M  V30 2181 H 194.303 6.35388 2.87971 0
M  V30 2182 H 190.2 5.35462 3.60486 0
M  V30 2183 H 190.968 7.42436 3.44575 0
M  V30 2184 N 193.631 -1.12557 1.10312 0
M  V30 2185 C 194.879 -1.83675 0.843091 0
M  V30 2186 C 195.2 -1.84435 -0.633131 0
M  V30 2187 O 194.47 -1.30657 -1.45964 0
M  V30 2188 H 193.05 -0.680138 0.308904 0
M  V30 2189 H 195.712 -1.36301 1.39313 0
M  V30 2190 H 194.808 -2.87908 1.2048 0
M  V30 2191 N 195.109 -0.891671 -1.2995 0
M  V30 2192 C 196.355 -0.514261 -1.96171 0
M  V30 2193 C 196.688 0.935506 -1.70182 0
M  V30 2194 O 195.963 1.66204 -1.01028 0
M  V30 2195 C 196.246 -0.797719 -3.51153 0
M  V30 2196 C 196.099 -2.2986 -3.86632 0
M  V30 2197 C 197.418 -0.278749 -4.39216 0
M  V30 2198 H 194.537 -0.188314 -0.712535 0
M  V30 2199 H 197.179 -1.11689 -1.53706 0
M  V30 2200 H 195.329 -0.284826 -3.87455 0
M  V30 2201 H 197.001 -2.88042 -3.60319 0
M  V30 2202 H 195.244 -2.76257 -3.34462 0
M  V30 2203 H 195.915 -2.44753 -4.94773 0
M  V30 2204 H 198.391 -0.717825 -4.09862 0
M  V30 2205 H 197.267 -0.506353 -5.46559 0
M  V30 2206 H 197.528 0.820266 -4.34424 0
M  V30 2207 N 196.587 1.43421 -0.653314 0
M  V30 2208 C 197.55 2.29182 0.0287951 0
M  V30 2209 C 198.55 1.42213 0.750465 0
M  V30 2210 O 199.74 1.63843 0.591701 0
M  V30 2211 C 196.872 3.24278 1.05151 0
M  V30 2212 H 198.065 2.90985 -0.725786 0
M  V30 2213 H 195.618 1.50702 -0.414545 0
M  V30 2214 H 196.353 2.6737 1.83532 0
M  V30 2215 H 196.138 3.88396 0.537687 0
M  V30 2216 H 197.628 3.88647 1.52786 0
M  V30 2217 N 198.065 0.39524 1.52563 0
M  V30 2218 C 199.313 -0.184678 2.01254 0
M  V30 2219 C 199.634 -1.46822 1.28329 0
M  V30 2220 O 198.904 -1.91666 0.405094 0
M  V30 2221 H 197.484 -0.0712355 0.743596 0
M  V30 2222 H 200.146 0.528293 1.87603 0
M  V30 2223 H 199.242 -0.390681 3.09645 0
M  V30 2224 N 199.544 -1.57102 0.125237 0
M  V30 2225 C 200.772 -1.99761 -0.538797 0
M  V30 2226 C 201.187 -1.00503 -1.59827 0
M  V30 2227 O 200.544 0.00119474 -1.825 0
M  V30 2228 C 200.595 -3.42408 -1.15927 0
M  V30 2229 O 200.316 -4.37869 -0.142143 0
M  V30 2230 C 201.817 -4.00232 -1.90602 0
M  V30 2231 H 199.037 -0.655772 -0.14214 0
M  V30 2232 H 201.581 -2.03383 0.213413 0
M  V30 2233 H 199.736 -3.39706 -1.86223 0
M  V30 2234 H 200.15 -5.21128 -0.593775 0
M  V30 2235 H 201.624 -5.02105 -2.29335 0
M  V30 2236 H 202.101 -3.39721 -2.78363 0
M  V30 2237 H 202.707 -4.06499 -1.25055 0
M  V30 2238 N 201.022 0.148545 -1.56898 0
M  V30 2239 C 202.268 0.862694 -1.83536 0
M  V30 2240 C 202.601 1.80889 -0.706604 0
M  V30 2241 O 201.876 1.92328 0.289885 0
M  V30 2242 C 202.159 1.63853 -3.20662 0
M  V30 2243 C 202.012 0.713925 -4.44098 0
M  V30 2244 C 203.331 2.60133 -3.54991 0
M  V30 2245 H 200.45 0.312179 -0.667618 0
M  V30 2246 H 203.092 0.127953 -1.89569 0
M  V30 2247 H 201.242 2.26489 -3.1565 0
M  V30 2248 H 202.914 0.098686 -4.61194 0
M  V30 2249 H 201.157 0.0234019 -4.33794 0
M  V30 2250 H 201.828 1.29278 -5.36648 0
M  V30 2251 H 204.304 2.07616 -3.60603 0
M  V30 2252 H 203.18 3.11468 -4.51972 0
M  V30 2253 H 203.441 3.41417 -2.80868 0
M  V30 2254 N 202.5 1.5196 0.417844 0
M  V30 2255 C 203.748 1.65263 1.16329 0
M  V30 2256 C 204.069 0.380634 1.91249 0
M  V30 2257 O 203.339 -0.604214 1.86349 0
M  V30 2258 H 201.919 0.60912 0.432414 0
M  V30 2259 H 204.581 1.88969 0.477162 0
M  V30 2260 H 203.677 2.4896 1.88217 0
M  V30 2261 N 203.978 -0.674533 1.42435 0
M  V30 2262 C 204.888 -1.81751 1.48337 0
M  V30 2263 C 205.904 -1.69975 0.372099 0
M  V30 2264 O 207.08 -1.91521 0.62304 0
M  V30 2265 C 204.145 -3.17895 1.38361 0
M  V30 2266 C 203.206 -3.41625 2.59982 0
M  V30 2267 C 202.439 -4.71274 2.50473 0
M  V30 2268 O 202.662 -5.49197 1.54075 0
M  V30 2269 O 201.596 -4.96254 3.4061 0
M  V30 2270 H 205.422 -1.79728 2.44809 0
M  V30 2271 H 203.007 -0.830312 1.24202 0
M  V30 2272 H 204.889 -3.99136 1.35161 0
M  V30 2273 H 203.564 -3.20555 0.450144 0
M  V30 2274 H 202.471 -2.60231 2.68757 0
M  V30 2275 H 203.804 -3.43796 3.52229 0
M  V30 2276 N 205.456 -1.28612 -0.910864 0
M  V30 2277 C 206.702 -1.16106 -1.66274 0
M  V30 2278 C 207.035 0.289113 -1.92036 0
M  V30 2279 O 206.31 1.21 -1.52281 0
M  V30 2280 C 206.593 -1.96309 -3.01885 0
M  V30 2281 C 206.446 -3.49405 -2.8326 0
M  V30 2282 C 207.765 -1.78076 -4.02463 0
M  V30 2283 H 204.884 -0.423152 -0.603417 0
M  V30 2284 H 207.526 -1.57961 -1.05586 0
M  V30 2285 H 205.676 -1.60742 -3.53687 0
M  V30 2286 H 207.348 -3.94894 -2.38446 0
M  V30 2287 H 205.591 -3.74893 -2.18261 0
M  V30 2288 H 206.262 -4.00784 -3.79574 0
M  V30 2289 H 208.738 -2.0912 -3.59733 0
M  V30 2290 H 207.614 -2.36561 -4.95308 0
M  V30 2291 H 207.875 -0.733008 -4.35981 0
M  V30 2292 N 206.934 1.1197 -1.10907 0
M  V30 2293 C 207.864 2.19928 -0.784473 0
M  V30 2294 C 208.845 1.6833 0.244726 0
M  V30 2295 O 210.03 1.93892 0.109418 0
M  V30 2296 C 207.16 3.46597 -0.220827 0
M  V30 2297 C 206.114 4.11376 -1.18127 0
M  V30 2298 C 205.44 5.32554 -0.478594 0
M  V30 2299 C 206.74 4.56945 -2.52979 0
M  V30 2300 H 208.434 2.47337 -1.68715 0
M  V30 2301 H 205.98 1.18879 -0.812642 0
M  V30 2302 H 207.933 4.21396 0.0184278 0
M  V30 2303 H 206.657 3.1863 0.717113 0
M  V30 2304 H 205.316 3.38564 -1.40606 0
M  V30 2305 H 204.964 5.00856 0.463976 0
M  V30 2306 H 204.664 5.76844 -1.11912 0
M  V30 2307 H 206.188 6.10096 -0.248 0
M  V30 2308 H 207.602 5.23093 -2.3462 0
M  V30 2309 H 205.999 5.1203 -3.12962 0
M  V30 2310 H 207.069 3.70676 -3.12614 0
M  V30 2311 N 208.412 0.89855 1.29475 0
M  V30 2312 C 209.64 0.539261 1.99749 0
M  V30 2313 C 210.055 -0.875716 1.67262 0
M  V30 2314 O 209.412 -1.57786 0.917049 0
M  V30 2315 C 209.463 0.72061 3.54245 0
M  V30 2316 O 209.184 2.07989 3.8558 0
M  V30 2317 C 210.685 0.366118 4.41786 0
M  V30 2318 H 207.905 0.207047 0.638258 0
M  V30 2319 H 210.449 1.20758 1.65039 0
M  V30 2320 H 208.604 0.0994862 3.87272 0
M  V30 2321 H 209.018 2.10841 4.80257 0
M  V30 2322 H 210.492 0.543848 5.49314 0
M  V30 2323 H 210.969 -0.696763 4.33638 0
M  V30 2324 H 211.575 0.964135 4.14228 0
M  V30 2325 N 209.89 -1.43072 0.660911 0
M  V30 2326 C 211.301 -1.84932 0.256348 0
M  V30 2327 C 211.652 -1.55325 -1.19868 0
M  V30 2328 O 210.777 -1.00607 -1.91591 0
M  V30 2329 C 211.372 -3.35684 0.458475 0
M  V30 2330 C 209.931 -3.76245 0.108161 0
M  V30 2331 C 209.078 -2.66749 0.757641 0
M  V30 2332 H 212.029 -1.33116 0.864051 0
M  V30 2333 H 212.05 -3.79365 -0.293683 0
M  V30 2334 H 211.562 -3.572 1.51755 0
M  V30 2335 H 209.663 -3.60338 -0.948014 0
M  V30 2336 H 209.776 -4.76058 0.538992 0
M  V30 2337 H 208.14 -2.53989 0.190185 0
M  V30 2338 H 208.923 -2.91092 1.81989 0
M  V30 2339 N 211.368 -0.403325 -1.52352 0
M  V30 2340 C 212.617 0.175668 -2.00934 0
M  V30 2341 C 212.93 1.46718 -1.29356 0
M  V30 2342 O 214.136 2.12708 -1.68724 0
M  V30 2343 C 212.592 0.363612 -3.58058 0
M  V30 2344 C 212.2 -0.915472 -4.38547 0
M  V30 2345 C 213.944 0.89821 -4.14888 0
M  V30 2346 C 211.851 -0.695035 -5.87302 0
M  V30 2347 H 210.781 0.0694234 -0.750797 0
M  V30 2348 H 213.432 -0.527879 -1.75743 0
M  V30 2349 H 211.814 1.12935 -3.79555 0
M  V30 2350 H 212.988 -1.68691 -4.28812 0
M  V30 2351 H 211.303 -1.37606 -3.93006 0
M  V30 2352 H 213.9 1.07907 -5.23699 0
M  V30 2353 H 214.243 1.87126 -3.71873 0
M  V30 2354 H 214.776 0.191681 -3.97338 0
M  V30 2355 H 211.515 -1.63948 -6.34666 0
M  V30 2356 H 211.035 0.0372116 -5.99788 0
M  V30 2357 H 212.714 -0.33497 -6.46132 0
M  V30 2358 N 212.846 1.57033 -0.133567 0
M  V30 2359 C 213.776 2.1909 0.807567 0
M  V30 2360 C 214.757 1.13517 1.26681 0
M  V30 2361 O 215.942 1.41809 1.32679 0
M  V30 2362 C 213.072 2.80188 2.05212 0
M  V30 2363 C 212.026 3.91471 1.73015 0
M  V30 2364 C 211.352 4.39443 3.04622 0
M  V30 2365 C 212.652 5.12886 0.987168 0
M  V30 2366 H 214.346 2.97988 0.290403 0
M  V30 2367 H 211.892 1.43335 0.138239 0
M  V30 2368 H 213.845 3.22264 2.71521 0
M  V30 2369 H 212.569 1.98601 2.59278 0
M  V30 2370 H 211.228 3.49993 1.0909 0
M  V30 2371 H 210.876 3.54695 3.56651 0
M  V30 2372 H 210.576 5.14495 2.83847 0
M  V30 2373 H 212.1 4.8418 3.72024 0
M  V30 2374 H 213.514 5.51891 1.55208 0
M  V30 2375 H 211.911 5.93615 0.87985 0
M  V30 2376 H 212.981 4.84894 -0.0235286 0
M  V30 2377 N 214.325 -0.140222 1.56975 0
M  V30 2378 C 215.55 -0.870414 1.88251 0
M  V30 2379 C 215.975 -1.73637 0.723312 0
M  V30 2380 O 215.333 -1.78329 -0.32689 0
M  V30 2381 C 215.381 -1.69737 3.18154 0
M  V30 2382 O 214.485 -2.80229 3.02565 0
M  V30 2383 H 213.826 -0.242025 0.61832 0
M  V30 2384 H 216.356 -0.128999 2.04193 0
M  V30 2385 H 216.366 -2.09099 3.50345 0
M  V30 2386 H 215.041 -1.06152 4.02125 0
M  V30 2387 H 213.618 -2.44224 2.81796 0
M  V30 2388 N 215.803 -1.52179 -0.40978 0
M  V30 2389 C 217.08 -1.56769 -1.16974 0
M  V30 2390 C 217.46 -0.348322 -2.08206 0
M  V30 2391 O 216.808 0.664862 -2.18613 0
M  V30 2392 C 217.018 -2.89603 -1.9476 0
M  V30 2393 C 218.366 -3.42579 -2.50849 0
M  V30 2394 O 219.39 -2.91338 -2.04941 0
M  V30 2395 O 218.249 -4.32054 -3.34652 0
M  V30 2396 H 215.343 -0.631439 -0.534054 0
M  V30 2397 H 217.889 -1.64507 -0.416613 0
M  V30 2398 H 216.661 -3.698 -1.27921 0
M  V30 2399 H 216.284 -2.85155 -2.77079 0
M  V30 2400 N 217.281 0.66697 -1.42791 0
M  V30 2401 C 218.231 1.77313 -1.43332 0
M  V30 2402 C 219.215 1.5801 -0.303586 0
M  V30 2403 O 220.407 1.68356 -0.546385 0
M  V30 2404 C 217.536 3.15822 -1.34578 0
M  V30 2405 C 216.622 3.40721 -2.52528 0
M  V30 2406 N 217.013 3.36162 -3.77927 0
M  V30 2407 C 215.311 3.71387 -2.46956 0
M  V30 2408 C 216.012 3.60762 -4.56318 0
M  V30 2409 N 214.988 3.81908 -3.86843 0
M  V30 2410 H 218.79 1.72193 -2.38174 0
M  V30 2411 H 216.304 0.868114 -1.3725 0
M  V30 2412 H 218.301 3.951 -1.33048 0
M  V30 2413 H 216.961 3.22133 -0.407453 0
M  V30 2414 H 217.972 3.15885 -4.10411 0
M  V30 2415 H 214.649 3.84897 -1.61743 0
M  V30 2416 H 216.039 3.63132 -5.65318 0
M  V30 2417 N 218.759 1.29093 0.90403 0
M  V30 2418 C 219.669 1.15727 2.0407 0
M  V30 2419 C 220.685 0.0815308 1.73809 0
M  V30 2420 O 221.861 0.292749 1.99261 0
M  V30 2421 C 218.926 0.830424 3.36608 0
M  V30 2422 C 217.987 1.98955 3.80415 0
M  V30 2423 C 217.22 1.6782 5.06628 0
M  V30 2424 O 217.443 0.597105 5.67266 0
M  V30 2425 O 216.377 2.52486 5.46383 0
M  V30 2426 H 220.203 2.11171 2.18267 0
M  V30 2427 H 217.788 1.08504 1.027 0
M  V30 2428 H 219.67 0.662521 4.16159 0
M  V30 2429 H 218.345 -0.0942678 3.23563 0
M  V30 2430 H 217.252 2.21267 3.01648 0
M  V30 2431 H 218.585 2.89529 3.98037 0
M  V30 2432 N 220.237 -1.11381 1.11499 0
M  V30 2433 C 221.465 -1.86934 0.88675 0
M  V30 2434 C 221.88 -1.80195 -0.563476 0
M  V30 2435 O 221.237 -1.18367 -1.38908 0
M  V30 2436 C 221.288 -3.35722 1.34064 0
M  V30 2437 O 221.009 -3.4232 2.73401 0
M  V30 2438 C 222.51 -4.2818 1.14791 0
M  V30 2439 H 219.73 -0.591117 0.317523 0
M  V30 2440 H 222.274 -1.40865 1.48248 0
M  V30 2441 H 220.429 -3.79294 0.788355 0
M  V30 2442 H 220.843 -4.34971 2.93087 0
M  V30 2443 H 222.317 -5.30817 1.5145 0
M  V30 2444 H 222.794 -4.39113 0.0875279 0
M  V30 2445 H 223.4 -3.90402 1.68721 0
M  V30 2446 N 221.715 -0.905404 -1.28997 0
M  V30 2447 C 222.665 -0.358713 -2.25161 0
M  V30 2448 C 223.649 0.524449 -1.52113 0
M  V30 2449 O 224.841 0.365534 -1.73184 0
M  V30 2450 C 221.97 0.407609 -3.40872 0
M  V30 2451 C 221.056 -0.490797 -4.21251 0
M  V30 2452 N 221.447 -1.60061 -4.79806 0
M  V30 2453 C 219.745 -0.289636 -4.45059 0
M  V30 2454 C 220.446 -2.15757 -5.40207 0
M  V30 2455 N 219.422 -1.44988 -5.23908 0
M  V30 2456 H 223.224 -1.20642 -2.67998 0
M  V30 2457 H 220.738 -0.757103 -1.43672 0
M  V30 2458 H 222.735 0.816046 -4.08835 0
M  V30 2459 H 221.395 1.25251 -2.9957 0
M  V30 2460 H 222.406 -1.98329 -4.7842 0
M  V30 2461 H 219.083 0.51643 -4.14294 0
M  V30 2462 H 220.473 -3.09069 -5.96595 0
M  V30 2463 N 223.193 1.4272 -0.668489 0
M  V30 2464 C 224.125 2.2914 0.052613 0
M  V30 2465 C 225.138 1.43339 0.771857 0
M  V30 2466 O 226.327 1.67123 0.627067 0
M  V30 2467 C 223.427 3.20618 1.09804 0
M  V30 2468 C 222.6 4.35039 0.45389 0
M  V30 2469 C 221.659 5.07282 1.39825 0
M  V30 2470 O 220.685 5.62024 0.900978 0
M  V30 2471 N 221.887 5.12206 2.73176 0
M  V30 2472 H 224.652 2.91668 -0.689209 0
M  V30 2473 H 222.213 1.53577 -0.512422 0
M  V30 2474 H 224.205 3.65815 1.73094 0
M  V30 2475 H 222.775 2.59585 1.74167 0
M  V30 2476 H 221.995 3.92567 -0.358396 0
M  V30 2477 H 223.283 5.088 0.00486972 0
M  V30 2478 H 222.681 4.6913 3.16122 0
M  V30 2479 H 221.238 5.61069 3.31729 0
M  V30 2480 N 224.671 0.411399 1.52136 0
M  V30 2481 C 225.899 -0.163076 2.06256 0
M  V30 2482 C 226.314 -1.3867 1.28125 0
M  V30 2483 O 225.671 -1.79423 0.333721 0
M  V30 2484 C 225.722 -0.511252 3.57867 0
M  V30 2485 O 225.443 0.66378 4.33042 0
M  V30 2486 C 226.944 -1.13921 4.28412 0
M  V30 2487 H 224.164 -0.0193897 0.67072 0
M  V30 2488 H 226.708 0.583007 1.96013 0
M  V30 2489 H 224.863 -1.20723 3.6811 0
M  V30 2490 H 225.277 0.372601 5.23175 0
M  V30 2491 H 226.751 -1.33302 5.35663 0
M  V30 2492 H 227.228 -2.11296 3.85033 0
M  V30 2493 H 227.834 -0.483373 4.22544 0
M  V30 2494 N 226.149 -1.5696 0.141893 0
M  V30 2495 C 227.379 -2.00031 -0.516828 0
M  V30 2496 C 227.787 -1.02091 -1.59293 0
M  V30 2497 O 227.13 -0.00909657 -1.83698 0
M  V30 2498 C 227.192 -3.39534 -1.1814 0
M  V30 2499 C 226.856 -4.56313 -0.250513 0
M  V30 2500 C 227.853 -5.17295 0.519839 0
M  V30 2501 C 225.538 -5.02061 -0.154907 0
M  V30 2502 C 227.532 -6.2243 1.3733 0
M  V30 2503 C 225.219 -6.07053 0.702161 0
M  V30 2504 C 226.217 -6.67106 1.46487 0
M  V30 2505 O 225.905 -7.70066 2.30767 0
M  V30 2506 H 225.637 -0.661451 -0.139493 0
M  V30 2507 H 228.191 -2.04086 0.231926 0
M  V30 2508 H 226.421 -3.32302 -1.97769 0
M  V30 2509 H 228.11 -3.66745 -1.73933 0
M  V30 2510 H 228.876 -4.82852 0.45598 0
M  V30 2511 H 224.755 -4.5505 -0.7383 0
M  V30 2512 H 228.299 -6.69233 1.96909 0
M  V30 2513 H 224.196 -6.40923 0.76733 0
M  V30 2514 H 224.964 -7.87264 2.23959 0
M  V30 2515 N 227.627 0.131896 -1.57047 0
M  V30 2516 C 228.904 0.871495 -1.75112 0
M  V30 2517 C 229.284 1.9866 -0.713949 0
M  V30 2518 O 228.632 2.26965 0.264447 0
M  V30 2519 C 228.842 1.40007 -3.19686 0
M  V30 2520 C 230.19 1.85752 -3.81813 0
M  V30 2521 O 231.214 1.49715 -3.23209 0
M  V30 2522 O 230.073 2.5226 -4.84796 0
M  V30 2523 H 227.167 0.412919 -0.716538 0
M  V30 2524 H 229.713 0.116641 -1.69299 0
M  V30 2525 H 228.485 0.599404 -3.86682 0
M  V30 2526 H 228.108 2.218 -3.29986 0
M  V30 2527 N 229.106 1.52395 0.401703 0
M  V30 2528 C 230.352 1.67065 1.14966 0
M  V30 2529 C 230.685 0.403052 1.89971 0
M  V30 2530 O 229.96 -0.598774 1.85054 0
M  V30 2531 C 230.243 2.8975 2.13815 0
M  V30 2532 C 230.096 4.26578 1.42658 0
M  V30 2533 C 231.415 3.07965 3.14397 0
M  V30 2534 H 228.534 0.607968 0.416587 0
M  V30 2535 H 231.176 1.84965 0.434511 0
M  V30 2536 H 229.326 2.74619 2.74803 0
M  V30 2537 H 230.998 4.53451 0.847329 0
M  V30 2538 H 229.241 4.27639 0.72849 0
M  V30 2539 H 229.912 5.08483 2.14823 0
M  V30 2540 H 232.388 3.22043 2.63491 0
M  V30 2541 H 231.264 3.95308 3.80819 0
M  V30 2542 H 231.525 2.21611 3.82545 0
M  V30 2543 N 230.584 -0.659388 1.43143 0
M  V30 2544 C 231.547 -1.75432 1.47501 0
M  V30 2545 C 232.547 -1.56707 0.360512 0
M  V30 2546 O 233.737 -1.62717 0.622002 0
M  V30 2547 C 230.869 -3.14239 1.32162 0
M  V30 2548 H 232.062 -1.7295 2.45006 0
M  V30 2549 H 229.615 -0.870469 1.29817 0
M  V30 2550 H 230.35 -3.22336 0.356401 0
M  V30 2551 H 230.135 -3.29235 2.12948 0
M  V30 2552 H 231.625 -3.94094 1.3813 0
M  V30 2553 N 232.062 -1.29571 -0.897171 0
M  V30 2554 C 233.478 -1.07637 -1.17841 0
M  V30 2555 C 233.678 0.170713 -2.00776 0
M  V30 2556 O 232.734 0.867768 -2.3712 0
M  V30 2557 C 234.047 -2.3332 -1.8969 0
M  V30 2558 C 235.595 -2.38664 -2.02505 0
M  V30 2559 C 236.07 -3.64157 -2.77765 0
M  V30 2560 N 237.561 -3.64894 -2.85318 0
M  V30 2561 C 238.296 -4.58679 -3.44094 0
M  V30 2562 N 237.792 -5.62799 -4.04017 0
M  V30 2563 N 239.585 -4.46245 -3.41793 0
M  V30 2564 H 231.736 -2.09598 -0.343883 0
M  V30 2565 H 233.999 -0.923333 -0.214848 0
M  V30 2566 H 233.705 -3.24262 -1.36187 0
M  V30 2567 H 233.579 -2.41025 -2.9015 0
M  V30 2568 H 235.966 -1.48208 -2.55183 0
M  V30 2569 H 236.047 -2.34943 -1.01171 0
M  V30 2570 H 235.691 -4.54965 -2.25763 0
M  V30 2571 H 235.621 -3.65137 -3.7945 0
M  V30 2572 H 238.112 -2.89613 -2.42761 0
M  V30 2573 H 238.425 -6.3048 -4.46895 0
M  V30 2574 H 236.77 -5.66605 -4.02472 0
M  V30 2575 H 239.961 -3.64094 -2.94199 0
M  V30 2576 H 240.134 -5.19518 -3.87304 0
M  V30 2577 N 233.54 1.10788 -1.12088 0
M  V30 2578 C 234.956 1.34691 -0.856186 0
M  V30 2579 C 235.156 1.94791 0.515615 0
M  V30 2580 O 234.212 2.18524 1.26505 0
M  V30 2581 C 235.525 2.27208 -1.9697 0
M  V30 2582 C 237.073 2.40755 -2.00016 0
M  V30 2583 C 237.548 3.36598 -3.1059 0
M  V30 2584 N 239.039 3.44164 -3.10008 0
M  V30 2585 C 239.774 4.18284 -3.92206 0
M  V30 2586 N 239.27 4.95322 -4.84384 0
M  V30 2587 N 241.063 4.13865 -3.80357 0
M  V30 2588 H 233.214 0.70144 -2.00483 0
M  V30 2589 H 235.477 0.371405 -0.872217 0
M  V30 2590 H 235.183 1.90251 -2.958 0
M  V30 2591 H 235.057 3.27485 -1.87172 0
M  V30 2592 H 237.444 2.76982 -1.01808 0
M  V30 2593 H 237.525 1.40305 -2.13888 0
M  V30 2594 H 237.169 3.01096 -4.09028 0
M  V30 2595 H 237.099 4.36918 -2.93956 0
M  V30 2596 H 239.59 2.8922 -2.43228 0
M  V30 2597 H 239.903 5.49267 -5.43623 0
M  V30 2598 H 238.248 4.94459 -4.884 0
M  V30 2599 H 241.439 3.52773 -3.07683 0
M  V30 2600 H 241.612 4.71372 -4.44649 0
M  V30 2601 N 235.018 0.912232 1.28515 0
M  V30 2602 C 235.948 0.416403 2.29757 0
M  V30 2603 C 236.929 -0.515194 1.6211 0
M  V30 2604 O 238.114 -0.423253 1.89532 0
M  V30 2605 C 235.244 -0.34572 3.45575 0
M  V30 2606 C 234.198 0.496599 4.25109 0
M  V30 2607 C 233.524 -0.393771 5.33248 0
M  V30 2608 C 234.824 1.75307 4.92001 0
M  V30 2609 H 236.518 1.26249 2.7148 0
M  V30 2610 H 234.064 0.608515 1.30511 0
M  V30 2611 H 236.017 -0.703422 4.15488 0
M  V30 2612 H 234.741 -1.2257 3.02728 0
M  V30 2613 H 233.4 0.8368 3.56922 0
M  V30 2614 H 233.048 -1.27225 4.86644 0
M  V30 2615 H 232.748 0.166209 5.87365 0
M  V30 2616 H 234.272 -0.747389 6.06009 0
M  V30 2617 H 235.686 1.46437 5.54283 0
M  V30 2618 H 234.083 2.25534 5.56106 0
M  V30 2619 H 235.153 2.48176 4.16577 0
M  V30 2620 N 236.496 -1.42363 0.676048 0
M  V30 2621 C 237.744 -2.01123 0.198437 0
M  V30 2622 C 238.065 -1.53731 -1.19966 0
M  V30 2623 O 237.335 -0.759518 -1.80577 0
M  V30 2624 H 235.915 -0.743678 0.0703721 0
M  V30 2625 H 238.577 -1.74263 0.872837 0
M  V30 2626 H 237.673 -3.11454 0.200686 0
M  V30 2627 N 237.974 -0.419461 -1.51915 0
M  V30 2628 C 238.884 0.407528 -2.31033 0
M  V30 2629 C 239.9 1.04413 -1.3919 0
M  V30 2630 O 241.076 1.0434 -1.72265 0
M  V30 2631 C 238.141 1.50365 -3.12396 0
M  V30 2632 C 237.202 0.889029 -4.19994 0
M  V30 2633 C 236.435 1.93291 -4.97468 0
M  V30 2634 O 236.658 3.15259 -4.75361 0
M  V30 2635 O 235.592 1.53339 -5.8204 0
M  V30 2636 H 239.418 -0.237865 -3.02767 0
M  V30 2637 H 237.003 -0.182413 -1.48282 0
M  V30 2638 H 238.885 2.13975 -3.63032 0
M  V30 2639 H 237.56 2.13345 -2.43445 0
M  V30 2640 H 236.467 0.215353 -3.7348 0
M  V30 2641 H 237.8 0.302991 -4.91267 0
M  V30 2642 N 239.452 1.56882 -0.150215 0
M  V30 2643 C 240.677 2.01027 0.510184 0
M  V30 2644 C 241.102 1.02966 1.57415 0
M  V30 2645 O 240.46 0.00590158 1.81299 0
M  V30 2646 C 240.508 3.43899 1.08472 0
M  V30 2647 O 239.612 3.4885 2.19948 0
M  V30 2648 H 238.953 0.652233 0.124451 0
M  V30 2649 H 241.483 2.03093 -0.247894 0
M  V30 2650 H 241.493 3.82766 1.41259 0
M  V30 2651 H 240.168 4.14776 0.305582 0
M  V30 2652 H 238.745 3.21827 1.88366 0
M  V30 2653 N 240.93 -0.123565 1.57115 0
M  V30 2654 C 241.86 -1.15309 2.03042 0
M  V30 2655 C 242.841 -1.43454 0.914061 0
M  V30 2656 O 244.026 -1.53973 1.18347 0
M  V30 2657 C 241.156 -2.48043 2.43089 0
M  V30 2658 C 240.11 -2.3437 3.58127 0
M  V30 2659 C 239.436 -3.72026 3.84059 0
M  V30 2660 C 240.736 -1.80804 4.90007 0
M  V30 2661 H 242.43 -0.771102 2.893 0
M  V30 2662 H 239.976 -0.369479 1.39179 0
M  V30 2663 H 241.929 -3.20311 2.73823 0
M  V30 2664 H 240.653 -2.88122 1.53796 0
M  V30 2665 H 239.312 -1.64551 3.27595 0
M  V30 2666 H 238.96 -4.09582 2.91979 0
M  V30 2667 H 238.66 -3.63732 4.6149 0
M  V30 2668 H 240.184 -4.45806 4.1724 0
M  V30 2669 H 241.598 -2.42886 5.19307 0
M  V30 2670 H 239.995 -1.83343 5.71407 0
M  V30 2671 H 241.065 -0.76528 4.78823 0
M  V30 2672 N 242.408 -1.52605 -0.393616 0
M  V30 2673 C 243.34 -1.73303 -1.49995 0
M  V30 2674 C 244.353 -0.613473 -1.50799 0
M  V30 2675 O 245.542 -0.889049 -1.54784 0
M  V30 2676 C 242.642 -1.77245 -2.88855 0
M  V30 2677 C 241.815 -3.06483 -3.12069 0
M  V30 2678 C 240.874 -3.02033 -4.30886 0
M  V30 2679 O 239.9 -3.75907 -4.27414 0
M  V30 2680 N 241.102 -2.20897 -5.36828 0
M  V30 2681 H 243.867 -2.68756 -1.32629 0
M  V30 2682 H 241.428 -1.51036 -0.583083 0
M  V30 2683 H 243.42 -1.7178 -3.66434 0
M  V30 2684 H 241.99 -0.891993 -2.99603 0
M  V30 2685 H 241.21 -3.25474 -2.22396 0
M  V30 2686 H 242.498 -3.91947 -3.2443 0
M  V30 2687 H 241.896 -1.60336 -5.42502 0
M  V30 2688 H 240.453 -2.21275 -6.13091 0
M  V30 2689 N 243.887 0.651787 -1.4349 0
M  V30 2690 C 244.817 1.77621 -1.51569 0
M  V30 2691 C 245.798 1.66022 -0.370253 0
M  V30 2692 O 246.983 1.85095 -0.587658 0
M  V30 2693 C 244.113 3.16056 -1.43966 0
M  V30 2694 C 243.067 3.4242 -2.56774 0
M  V30 2695 C 242.393 4.8067 -2.34223 0
M  V30 2696 C 243.693 3.37023 -3.99015 0
M  V30 2697 H 245.387 1.71117 -2.45681 0
M  V30 2698 H 242.933 0.821825 -1.18246 0
M  V30 2699 H 244.886 3.94472 -1.48221 0
M  V30 2700 H 243.61 3.23293 -0.463586 0
M  V30 2701 H 242.269 2.66375 -2.51873 0
M  V30 2702 H 241.917 4.84585 -1.34856 0
M  V30 2703 H 241.617 4.9927 -3.09844 0
M  V30 2704 H 243.141 5.61342 -2.40265 0
M  V30 2705 H 244.555 4.05374 -4.05395 0
M  V30 2706 H 242.952 3.67159 -4.74673 0
M  V30 2707 H 244.022 2.3518 -4.2405 0
M  V30 2708 N 245.365 1.30045 0.890287 0
M  V30 2709 C 246.614 1.17929 1.63633 0
M  V30 2710 C 246.927 -0.266204 1.9378 0
M  V30 2711 O 248.133 -0.508804 2.6669 0
M  V30 2712 C 246.589 2.06317 2.94892 0
M  V30 2713 C 246.197 3.55745 2.72305 0
M  V30 2714 C 247.941 2.0295 3.72843 0
M  V30 2715 C 245.848 4.36205 3.99348 0
M  V30 2716 H 244.778 0.437782 0.613892 0
M  V30 2717 H 247.429 1.54754 0.986075 0
M  V30 2718 H 245.811 1.6237 3.61182 0
M  V30 2719 H 246.985 4.07805 2.1455 0
M  V30 2720 H 245.3 3.6088 2.07737 0
M  V30 2721 H 247.897 2.60319 4.67053 0
M  V30 2722 H 248.24 1.0117 4.0382 0
M  V30 2723 H 248.773 2.4499 3.13408 0
M  V30 2724 H 245.512 5.38659 3.73533 0
M  V30 2725 H 245.032 3.8891 4.56628 0
M  V30 2726 H 246.711 4.47362 4.67415 0
M  V30 2727 N 246.843 -1.10192 1.12674 0
M  V30 2728 C 247.791 -2.18694 0.792196 0
M  V30 2729 C 248.785 -1.67938 -0.222058 0
M  V30 2730 O 249.991 -1.79822 -0.0800074 0
M  V30 2731 H 246.366 -0.713223 0.238364 0
M  V30 2732 H 248.337 -2.44149 1.71564 0
M  V30 2733 C 247.086 -3.46682 0.265859 0
M  V30 2734 H 246.409 -3.86101 1.03761 0
M  V30 2735 H 247.849 -4.23942 0.0701128 0
M  V30 2736 C 246.308 -3.21506 -1.00675 0
M  V30 2737 O 246.838 -3.43408 -2.08408 0
M  V30 2738 N 245.044 -2.75158 -0.934692 0
M  V30 2739 H 244.591 -2.57535 -0.0578604 0
M  V30 2740 H 244.549 -2.58691 -1.7868 0
M  V30 2741 N 248.321 -0.919034 -1.28029 0
M  V30 2742 C 249.57 -0.550802 -1.94034 0
M  V30 2743 C 249.883 0.910877 -1.73096 0
M  V30 2744 O 251.089 1.3875 -2.33368 0
M  V30 2745 C 249.545 -0.934249 -3.47563 0
M  V30 2746 C 249.153 -2.41602 -3.7727 0
M  V30 2747 C 250.897 -0.636854 -4.19696 0
M  V30 2748 C 248.804 -2.73932 -5.24133 0
M  V30 2749 H 247.734 -0.202273 -0.726362 0
M  V30 2750 H 250.385 -1.11867 -1.45458 0
M  V30 2751 H 248.767 -0.295115 -3.94899 0
M  V30 2752 H 249.941 -3.10233 -3.40723 0
M  V30 2753 H 248.256 -2.68441 -3.18321 0
M  V30 2754 H 250.853 -0.855005 -5.2782 0
M  V30 2755 H 251.196 0.425575 -4.14119 0
M  V30 2756 H 251.729 -1.23469 -3.78154 0
M  V30 2757 H 248.468 -3.79049 -5.34792 0
M  V30 2758 H 247.988 -2.09942 -5.61858 0
M  V30 2759 H 249.667 -2.61215 -5.91925 0
M  V30 2760 N 249.799 1.42003 -0.683588 0
M  V30 2761 C 250.729 2.33487 -0.024866 0
M  V30 2762 C 251.71 1.51163 0.779975 0
M  V30 2763 O 252.895 1.79739 0.735362 0
M  V30 2764 C 250.025 3.3487 0.920836 0
M  V30 2765 C 248.979 4.27414 0.223958 0
M  V30 2766 C 248.305 5.19074 1.2832 0
M  V30 2767 C 249.605 5.14445 -0.90242 0
M  V30 2768 H 251.299 2.88819 -0.788921 0
M  V30 2769 H 248.845 1.38873 -0.38083 0
M  V30 2770 H 250.798 3.97787 1.39081 0
M  V30 2771 H 249.522 2.77861 1.71642 0
M  V30 2772 H 248.181 3.65904 -0.225864 0
M  V30 2773 H 247.829 4.58387 2.071 0
M  V30 2774 H 247.529 5.81822 0.821995 0
M  V30 2775 H 249.053 5.84867 1.75392 0
M  V30 2776 H 250.467 5.70998 -0.513272 0
M  V30 2777 H 248.864 5.86072 -1.28997 0
M  V30 2778 H 249.934 4.52322 -1.74737 0
M  V30 2779 N 251.277 0.427512 1.51691 0
M  V30 2780 C 252.693 0.0792977 1.59403 0
M  V30 2781 C 252.893 -1.41035 1.43914 0
M  V30 2782 O 251.949 -2.17922 1.27539 0
M  V30 2783 C 253.262 0.590636 2.94842 0
M  V30 2784 C 254.81 0.550215 3.08126 0
M  V30 2785 C 255.285 1.03836 4.46074 0
M  V30 2786 N 256.776 0.995943 4.52366 0
M  V30 2787 C 257.511 1.34463 5.57411 0
M  V30 2788 N 257.007 1.76569 6.69922 0
M  V30 2789 N 258.8 1.26343 5.47717 0
M  V30 2790 H 250.951 1.39687 1.60004 0
M  V30 2791 H 253.214 0.575003 0.753708 0
M  V30 2792 H 252.92 1.63251 3.11516 0
M  V30 2793 H 252.794 0.0102061 3.77199 0
M  V30 2794 H 255.181 -0.482654 2.91126 0
M  V30 2795 H 255.262 1.16693 2.27632 0
M  V30 2796 H 254.906 2.06965 4.63819 0
M  V30 2797 H 254.836 0.398286 5.25092 0
M  V30 2798 H 257.327 0.68661 3.7161 0
M  V30 2799 H 257.64 2.01438 7.46085 0
M  V30 2800 H 255.985 1.80488 6.71155 0
M  V30 2801 H 259.176 0.933209 4.58703 0
M  V30 2802 H 259.349 1.53846 6.29472 0
M  V30 2803 N 252.755 -1.56801 0.158532 0
M  V30 2804 C 254.032 -1.88131 -0.535357 0
M  V30 2805 C 254.412 -1.06638 -1.82186 0
M  V30 2806 O 253.76 -0.156533 -2.27963 0
M  V30 2807 C 253.97 -3.39949 -0.789653 0
M  V30 2808 C 255.318 -4.09416 -1.12533 0
M  V30 2809 O 256.342 -3.45194 -0.878622 0
M  V30 2810 O 255.201 -5.22855 -1.59014 0
M  V30 2811 H 252.295 -0.780143 -0.27442 0
M  V30 2812 H 254.841 -1.68564 0.19601 0
M  V30 2813 H 253.613 -3.91115 0.120353 0
M  V30 2814 H 253.236 -3.65084 -1.57479 0
M  V30 2815 N 254.233 0.115231 -1.57178 0
M  V30 2816 C 255.479 0.82357 -1.85325 0
M  V30 2817 C 255.812 1.79349 -0.744814 0
M  V30 2818 O 255.087 1.92899 0.249024 0
M  V30 2819 C 255.37 1.57014 -3.24066 0
M  V30 2820 C 255.223 0.619565 -4.45513 0
M  V30 2821 C 256.542 2.52545 -3.60429 0
M  V30 2822 H 253.661 0.297948 -0.674089 0
M  V30 2823 H 256.303 0.0877138 -1.89797 0
M  V30 2824 H 254.453 2.19742 -3.20383 0
M  V30 2825 H 256.125 0.000837639 -4.613 0
M  V30 2826 H 254.368 -0.0686174 -4.33746 0
M  V30 2827 H 255.039 1.17866 -5.3927 0
M  V30 2828 H 257.515 1.9992 -3.64926 0
M  V30 2829 H 256.391 3.01811 -4.58477 0
M  V30 2830 H 256.652 3.35383 -2.88047 0
M  V30 2831 N 255.711 1.52812 0.385517 0
M  V30 2832 C 256.959 1.67694 1.12797 0
M  V30 2833 C 257.28 0.421115 1.90399 0
M  V30 2834 O 256.55 -0.564551 1.87589 0
M  V30 2835 H 255.13 0.618155 0.419396 0
M  V30 2836 H 257.792 1.89938 0.436972 0
M  V30 2837 H 256.888 2.52896 1.82894 0
M  V30 2838 N 257.189 -0.644168 1.43834 0
M  V30 2839 C 258.099 -1.78563 1.52159 0
M  V30 2840 C 259.115 -1.69147 0.408069 0
M  V30 2841 O 260.291 -1.90156 0.663524 0
M  V30 2842 C 257.356 -3.14888 1.45073 0
M  V30 2843 C 256.417 -3.36034 2.6717 0
M  V30 2844 C 255.65 -4.65855 2.60413 0
M  V30 2845 O 255.873 -5.45805 1.65689 0
M  V30 2846 O 254.807 -4.88918 3.5106 0
M  V30 2847 H 258.633 -1.74494 2.48567 0
M  V30 2848 H 256.218 -0.80378 1.25935 0
M  V30 2849 H 258.1 -3.96179 1.43597 0
M  V30 2850 H 256.775 -3.19528 0.518037 0
M  V30 2851 H 255.682 -2.54472 2.74217 0
M  V30 2852 H 257.015 -3.36247 3.59442 0
M  V30 2853 N 258.668 -1.30515 -0.883378 0
M  V30 2854 C 259.945 -1.10086 -1.6168 0
M  V30 2855 C 260.325 0.349269 -2.08191 0
M  V30 2856 O 259.673 1.34105 -1.85008 0
M  V30 2857 C 259.883 -2.10315 -2.78511 0
M  V30 2858 C 261.231 -2.42119 -3.48803 0
M  V30 2859 O 262.255 -2.08638 -2.88702 0
M  V30 2860 O 261.114 -2.99396 -4.57192 0
M  V30 2861 H 258.208 -0.422907 -0.710689 0
M  V30 2862 H 260.754 -1.41947 -0.930015 0
M  V30 2863 H 259.526 -3.07917 -2.41459 0
M  V30 2864 H 259.149 -1.79282 -3.54886 0
M  V30 2865 N 260.146 1.09593 -1.13257 0
M  V30 2866 C 261.393 1.81734 -0.893257 0
M  V30 2867 C 261.721 1.8563 0.580656 0
M  V30 2868 O 260.976 1.31906 1.44566 0
M  V30 2869 C 261.275 3.27802 -1.42411 0
M  V30 2870 C 260.941 3.44041 -2.91456 0
M  V30 2871 C 259.603 3.48181 -3.3215 0
M  V30 2872 C 261.955 3.48719 -3.87356 0
M  V30 2873 C 259.283 3.54575 -4.67433 0
M  V30 2874 C 261.635 3.56648 -5.2248 0
M  V30 2875 C 260.299 3.59055 -5.62704 0
M  V30 2876 H 259.569 0.665011 -0.326866 0
M  V30 2877 H 262.216 1.2912 -1.41422 0
M  V30 2878 H 260.521 3.83042 -0.823795 0
M  V30 2879 H 262.218 3.82149 -1.21503 0
M  V30 2880 H 258.808 3.41502 -2.58987 0
M  V30 2881 H 262.992 3.44763 -3.57004 0
M  V30 2882 H 258.248 3.54725 -4.97976 0
M  V30 2883 H 262.422 3.59212 -5.96607 0
M  V30 2884 H 260.049 3.63763 -6.67518 0
M  V30 2885 N 261.624 0.925811 1.2754 0
M  V30 2886 C 262.534 0.428993 2.30644 0
M  V30 2887 C 263.55 -0.489387 1.66976 0
M  V30 2888 O 264.726 -0.372653 1.97922 0
M  V30 2889 C 261.791 -0.311967 3.45294 0
M  V30 2890 C 260.852 0.641098 4.24486 0
M  V30 2891 C 260.085 -0.0645955 5.33661 0
M  V30 2892 O 260.308 -1.28429 5.55754 0
M  V30 2893 O 259.242 0.606265 5.98839 0
M  V30 2894 H 263.068 1.28504 2.75173 0
M  V30 2895 H 260.653 0.691086 1.32455 0
M  V30 2896 H 262.535 -0.729972 4.15029 0
M  V30 2897 H 261.21 -1.14365 3.02824 0
M  V30 2898 H 260.117 1.10874 3.57292 0
M  V30 2899 H 261.45 1.43995 4.70666 0
M  V30 2900 N 263.102 -1.41638 0.69111 0
M  V30 2901 C 264.05 -2.32597 0.0115199 0
M  V30 2902 C 265.044 -1.5072 -0.773296 0
M  V30 2903 O 266.25 -1.66685 -0.67942 0
M  V30 2904 H 262.625 -0.751849 -0.0150746 0
M  V30 2905 H 264.596 -2.87593 0.795791 0
M  V30 2906 C 263.345 -3.35467 -0.914172 0
M  V30 2907 H 262.668 -3.9852 -0.319687 0
M  V30 2908 H 264.108 -4.01662 -1.35808 0
M  V30 2909 C 262.567 -2.69004 -2.02826 0
M  V30 2910 O 263.097 -2.53444 -3.11655 0
M  V30 2911 N 261.303 -2.2777 -1.80469 0
M  V30 2912 H 260.85 -2.40626 -0.919615 0
M  V30 2913 H 260.808 -1.83635 -2.55197 0
M  V30 2914 N 264.58 -0.43555 -1.51462 0
M  V30 2915 C 265.49 0.383001 -2.31453 0
M  V30 2916 C 266.506 1.02931 -1.4029 0
M  V30 2917 O 267.682 1.02507 -1.73362 0
M  V30 2918 C 264.747 1.47043 -3.13973 0
M  V30 2919 C 263.808 0.844433 -4.20913 0
M  V30 2920 C 263.041 1.88004 -4.9949 0
M  V30 2921 O 263.264 3.10199 -4.78678 0
M  V30 2922 O 262.198 1.47157 -5.83634 0
M  V30 2923 H 266.024 -0.269964 -3.02498 0
M  V30 2924 H 263.609 -0.19813 -1.4808 0
M  V30 2925 H 265.491 2.10113 -3.65281 0
M  V30 2926 H 264.166 2.10751 -2.45695 0
M  V30 2927 H 263.073 0.175729 -3.73687 0
M  V30 2928 H 264.406 0.250869 -4.9156 0
M  V30 2929 N 266.058 1.56714 -0.166846 0
M  V30 2930 C 267.474 1.58473 0.189372 0
M  V30 2931 C 267.674 1.18201 1.63189 0
M  V30 2932 O 266.73 0.891528 2.36237 0
M  V30 2933 C 268.043 3.00573 -0.0873872 0
M  V30 2934 C 269.591 3.1299 -0.0252443 0
M  V30 2935 C 270.066 4.57174 -0.274934 0
M  V30 2936 N 271.557 4.62665 -0.222553 0
M  V30 2937 C 272.292 5.72072 -0.389985 0
M  V30 2938 N 271.788 6.90054 -0.616229 0
M  V30 2939 N 273.581 5.61153 -0.326202 0
M  V30 2940 H 265.732 1.8118 -1.10849 0
M  V30 2941 H 267.995 0.839525 -0.440342 0
M  V30 2942 H 267.701 3.34497 -1.0865 0
M  V30 2943 H 267.575 3.72019 0.623037 0
M  V30 2944 H 269.962 2.78895 0.96444 0
M  V30 2945 H 270.043 2.43989 -0.768309 0
M  V30 2946 H 269.687 4.91976 -1.26181 0
M  V30 2947 H 269.617 5.24328 0.48869 0
M  V30 2948 H 272.108 3.77863 -0.0531512 0
M  V30 2949 H 272.421 7.69311 -0.733559 0
M  V30 2950 H 270.766 6.91927 -0.652791 0
M  V30 2951 H 273.957 4.67859 -0.150072 0
M  V30 2952 H 274.13 6.46364 -0.460116 0
M  V30 2953 N 267.536 -0.106894 1.57237 0
M  V30 2954 C 268.785 -0.811163 1.8467 0
M  V30 2955 C 269.098 -1.80469 0.754342 0
M  V30 2956 O 270.304 -2.55601 0.915439 0
M  V30 2957 C 268.76 -1.49337 3.27454 0
M  V30 2958 C 268.368 -0.540217 4.44731 0
M  V30 2959 C 270.112 -2.18206 3.64124 0
M  V30 2960 C 268.019 -1.22634 5.78545 0
M  V30 2961 H 266.949 -0.306679 0.688813 0
M  V30 2962 H 269.6 -0.0639887 1.83388 0
M  V30 2963 H 267.982 -2.2876 3.23241 0
M  V30 2964 H 269.156 0.221659 4.60267 0
M  V30 2965 H 267.471 0.042146 4.16379 0
M  V30 2966 H 270.068 -2.70253 4.61376 0
M  V30 2967 H 270.411 -2.96562 2.92158 0
M  V30 2968 H 270.944 -1.45658 3.70174 0
M  V30 2969 H 267.683 -0.483832 6.53712 0
M  V30 2970 H 267.203 -1.95993 5.66874 0
M  V30 2971 H 268.882 -1.75615 6.2271 0
M  V30 2972 N 269.014 -1.53014 -0.377408 0
M  V30 2973 C 270.244 -1.72265 -1.14054 0
M  V30 2974 C 270.652 -0.44601 -1.83868 0
M  V30 2975 O 269.995 0.590095 -1.73964 0
M  V30 2976 C 270.057 -2.82492 -2.22348 0
M  V30 2977 C 269.721 -4.23233 -1.72402 0
M  V30 2978 C 270.718 -5.05992 -1.19448 0
M  V30 2979 C 268.403 -4.696 -1.78273 0
M  V30 2980 C 270.397 -6.33203 -0.730268 0
M  V30 2981 C 268.084 -5.96792 -1.31464 0
M  V30 2982 C 269.082 -6.78424 -0.789297 0
M  V30 2983 O 268.77 -8.0323 -0.328077 0
M  V30 2984 H 268.502 -0.579873 -0.347453 0
M  V30 2985 H 271.056 -2.00502 -0.445882 0
M  V30 2986 H 269.286 -2.49702 -2.95272 0
M  V30 2987 H 270.975 -2.90034 -2.83963 0
M  V30 2988 H 271.741 -4.71349 -1.14259 0
M  V30 2989 H 267.62 -4.06142 -2.18106 0
M  V30 2990 H 271.164 -6.96868 -0.319542 0
M  V30 2991 H 267.061 -6.30937 -1.36342 0
M  V30 2992 H 267.829 -8.1727 -0.448493 0
M  V30 2993 N 270.492 0.636531 -1.44174 0
M  V30 2994 C 271.739 1.39619 -1.46672 0
M  V30 2995 C 272.067 1.94257 -0.0972691 0
M  V30 2996 O 271.322 1.73768 0.900175 0
M  V30 2997 C 271.621 2.58309 -2.47005 0
M  V30 2998 C 271.287 2.21992 -3.92467 0
M  V30 2999 C 269.949 2.118 -4.32081 0
M  V30 3000 C 272.301 1.9321 -4.84065 0
M  V30 3001 C 269.629 1.71007 -5.61225 0
M  V30 3002 C 271.981 1.53911 -6.13591 0
M  V30 3003 C 270.645 1.42257 -6.52165 0
M  V30 3004 H 269.915 0.510902 -0.536712 0
M  V30 3005 H 272.562 0.722328 -1.77355 0
M  V30 3006 H 270.867 3.30903 -2.09786 0
M  V30 3007 H 272.564 3.16533 -2.46186 0
M  V30 3008 H 269.154 2.30841 -3.61124 0
M  V30 3009 H 273.338 1.99997 -4.54219 0
M  V30 3010 H 268.594 1.60583 -5.89935 0
M  V30 3011 H 272.768 1.30677 -6.8403 0
M  V30 3012 H 270.395 1.10419 -7.52138 0
M  V30 3013 N 271.97 1.30982 0.876444 0
M  V30 3014 C 273.195 1.23373 1.66715 0
M  V30 3015 C 273.62 -0.19885 1.87046 0
M  V30 3016 O 272.978 -1.1427 1.40756 0
M  V30 3017 C 273.026 1.97644 3.01611 0
M  V30 3018 O 272.13 1.30935 3.91062 0
M  V30 3019 H 271.471 0.426279 0.509099 0
M  V30 3020 H 274.001 1.72944 1.09323 0
M  V30 3021 H 274.011 2.06992 3.51594 0
M  V30 3022 H 272.686 3.01829 2.86133 0
M  V30 3023 H 271.263 1.29996 3.49507 0
M  V30 3024 N 273.449 -1.08991 1.13837 0
M  V30 3025 C 274.396 -2.15748 0.819835 0
M  V30 3026 C 275.366 -1.64636 -0.220026 0
M  V30 3027 O 276.551 -1.90582 -0.0912757 0
M  V30 3028 C 273.691 -3.4382 0.296913 0
M  V30 3029 C 272.804 -4.0881 1.39636 0
M  V30 3030 C 271.939 -5.24655 0.831314 0
M  V30 3031 C 270.978 -5.81575 1.90886 0
M  V30 3032 N 270.115 -6.88774 1.36142 0
M  V30 3033 H 274.955 -2.42338 1.73426 0
M  V30 3034 H 272.492 -1.18935 0.865613 0
M  V30 3035 H 274.45 -4.17193 -0.0244339 0
M  V30 3036 H 273.08 -3.17535 -0.580628 0
M  V30 3037 H 272.132 -3.33258 1.83422 0
M  V30 3038 H 273.444 -4.47141 2.21058 0
M  V30 3039 H 272.598 -6.04942 0.461515 0
M  V30 3040 H 271.337 -4.87698 -0.013932 0
M  V30 3041 H 270.342 -4.99946 2.28767 0
M  V30 3042 H 271.567 -6.20592 2.75758 0
M  V30 3043 H 269.513 -6.53788 0.538254 0
M  V30 3044 H 269.43 -7.25898 2.11208 0
M  V30 3045 H 270.698 -7.72806 1.01933 0
M  V30 3046 N 274.927 -0.932562 -1.27047 0
M  V30 3047 C 275.859 -0.392734 -2.2581 0
M  V30 3048 C 276.872 0.479241 -1.55586 0
M  V30 3049 O 278.061 0.291078 -1.76111 0
M  V30 3050 C 275.161 0.455456 -3.35826 0
M  V30 3051 C 274.334 -0.398355 -4.35582 0
M  V30 3052 C 273.393 0.387985 -5.24768 0
M  V30 3053 O 272.419 -0.206003 -5.68827 0
M  V30 3054 N 273.621 1.68664 -5.55457 0
M  V30 3055 H 276.386 -1.24173 -2.72766 0
M  V30 3056 H 273.947 -0.800511 -1.40725 0
M  V30 3057 H 275.939 0.988692 -3.92437 0
M  V30 3058 H 274.509 1.20522 -2.88432 0
M  V30 3059 H 273.729 -1.11286 -3.78165 0
M  V30 3060 H 275.017 -0.981889 -4.99236 0
M  V30 3061 H 274.415 2.19147 -5.21528 0
M  V30 3062 H 272.972 2.1663 -6.14748 0
M  V30 3063 N 276.405 1.4127 -0.698611 0
M  V30 3064 C 277.821 1.55241 -0.370462 0
M  V30 3065 C 278.021 1.67351 1.12231 0
M  V30 3066 O 277.077 1.65363 1.90818 0
M  V30 3067 C 278.39 2.78997 -1.12165 0
M  V30 3068 C 279.938 2.92797 -1.1063 0
M  V30 3069 C 280.413 4.19445 -1.8393 0
M  V30 3070 N 281.904 4.26409 -1.80914 0
M  V30 3071 C 282.639 5.23271 -2.34467 0
M  V30 3072 N 282.135 6.26145 -2.96504 0
M  V30 3073 N 283.928 5.15232 -2.24706 0
M  V30 3074 H 276.079 1.31654 -1.66676 0
M  V30 3075 H 278.342 0.635393 -0.703548 0
M  V30 3076 H 278.048 2.76268 -2.17644 0
M  V30 3077 H 277.922 3.70606 -0.702209 0
M  V30 3078 H 280.309 2.95039 -0.0597713 0
M  V30 3079 H 280.39 2.02353 -1.56483 0
M  V30 3080 H 280.034 4.17964 -2.88563 0
M  V30 3081 H 279.964 5.08866 -1.35509 0
M  V30 3082 H 282.455 3.527 -1.35687 0
M  V30 3083 H 282.768 6.96451 -3.34927 0
M  V30 3084 H 281.113 6.26638 -3.00583 0
M  V30 3085 H 284.304 4.33789 -1.7591 0
M  V30 3086 H 284.477 5.90552 -2.66745 0
M  V30 3087 N 277.883 0.443576 1.51229 0
M  V30 3088 C 278.813 -0.355142 2.30783 0
M  V30 3089 C 279.794 -1.0154 1.36468 0
M  V30 3090 O 280.979 -1.01785 1.65389 0
M  V30 3091 C 278.109 -1.45312 3.15439 0
M  V30 3092 C 277.063 -0.916002 4.18083 0
M  V30 3093 C 276.389 -2.1102 4.91299 0
M  V30 3094 C 277.689 0.0538602 5.22272 0
M  V30 3095 H 279.383 0.308767 2.97804 0
M  V30 3096 H 276.929 0.149937 1.43217 0
M  V30 3097 H 278.882 -2.01914 3.69876 0
M  V30 3098 H 277.606 -2.14541 2.46252 0
M  V30 3099 H 276.265 -0.372145 3.64706 0
M  V30 3100 H 275.913 -2.78882 4.18609 0
M  V30 3101 H 275.613 -1.75717 5.60712 0
M  V30 3102 H 277.137 -2.68164 5.48562 0
M  V30 3103 H 278.551 -0.422069 5.71744 0
M  V30 3104 H 276.948 0.319776 5.99247 0
M  V30 3105 H 278.018 0.98858 4.74716 0
M  V30 3106 N 279.361 -1.56624 0.175154 0
M  V30 3107 C 280.308 -2.18149 -0.753634 0
M  V30 3108 C 281.278 -1.12265 -1.22417 0
M  V30 3109 O 282.463 -1.40432 -1.29165 0
M  V30 3110 C 279.603 -2.82933 -1.97592 0
M  V30 3111 C 278.716 -4.03289 -1.5486 0
M  V30 3112 C 277.851 -4.55988 -2.72485 0
M  V30 3113 C 276.89 -5.68746 -2.26262 0
M  V30 3114 N 276.027 -6.15938 -3.36994 0
M  V30 3115 H 280.867 -2.9717 -0.222195 0
M  V30 3116 H 278.404 -1.46774 -0.0979422 0
M  V30 3117 H 280.362 -3.18653 -2.69288 0
M  V30 3118 H 278.992 -2.06509 -2.481 0
M  V30 3119 H 278.044 -3.73364 -0.728246 0
M  V30 3120 H 279.356 -4.849 -1.16933 0
M  V30 3121 H 278.51 -4.9391 -3.52332 0
M  V30 3122 H 277.249 -3.73443 -3.13674 0
M  V30 3123 H 276.254 -5.30372 -1.44863 0
M  V30 3124 H 277.479 -6.53095 -1.86127 0
M  V30 3125 H 275.425 -5.36321 -3.77751 0
M  V30 3126 H 275.342 -6.92548 -3.03172 0
M  V30 3127 H 276.61 -6.58511 -4.17114 0
M  V30 3128 N 280.839 0.0985539 -1.57292 0
M  V30 3129 C 281.771 1.14595 -1.98496 0
M  V30 3130 C 282.784 1.36512 -0.887031 0
M  V30 3131 O 283.973 1.35225 -1.16518 0
M  V30 3132 C 281.073 2.50216 -2.28572 0
M  V30 3133 C 280.246 2.48624 -3.59868 0
M  V30 3134 C 279.305 3.66146 -3.7792 0
M  V30 3135 O 278.331 3.48795 -4.49812 0
M  V30 3136 N 279.533 4.85496 -3.18235 0
M  V30 3137 H 282.298 0.795277 -2.88956 0
M  V30 3138 H 279.859 0.287579 -1.59325 0
M  V30 3139 H 281.851 3.27432 -2.37845 0
M  V30 3140 H 280.421 2.77387 -1.44136 0
M  V30 3141 H 279.641 1.56978 -3.61596 0
M  V30 3142 H 280.929 2.44635 -4.46129 0
M  V30 3143 H 280.327 5.02497 -2.59833 0
M  V30 3144 H 278.884 5.60317 -3.32999 0
M  V30 3145 N 282.317 1.53212 0.369288 0
M  V30 3146 C 283.547 1.72868 1.13139 0
M  V30 3147 C 283.955 0.455754 1.83629 0
M  V30 3148 O 283.298 -0.580861 1.74275 0
M  V30 3149 C 283.36 2.83667 2.20847 0
M  V30 3150 C 283.024 4.24142 1.70155 0
M  V30 3151 C 284.021 5.06619 1.16763 0
M  V30 3152 C 281.706 4.70539 1.7578 0
M  V30 3153 C 283.7 6.33581 0.696678 0
M  V30 3154 C 281.387 5.97481 1.28297 0
M  V30 3155 C 282.385 6.78833 0.753307 0
M  V30 3156 O 282.073 8.03393 0.285475 0
M  V30 3157 H 281.805 0.581707 0.344373 0
M  V30 3158 H 284.359 2.00736 0.435243 0
M  V30 3159 H 282.589 2.51265 2.93944 0
M  V30 3160 H 284.278 2.91536 2.82421 0
M  V30 3161 H 285.044 4.71948 1.11758 0
M  V30 3162 H 280.923 4.07293 2.15949 0
M  V30 3163 H 284.467 6.97027 0.282581 0
M  V30 3164 H 280.364 6.31651 1.32994 0
M  V30 3165 H 281.132 8.17497 0.405145 0
M  V30 3166 N 283.795 -0.628877 1.44509 0
M  V30 3167 C 284.705 -1.7694 1.54044 0
M  V30 3168 C 285.721 -1.68705 0.425987 0
M  V30 3169 O 286.897 -1.89442 0.683656 0
M  V30 3170 C 283.962 -3.13332 1.48405 0
M  V30 3171 C 283.023 -3.33181 2.70719 0
M  V30 3172 C 282.256 -4.63067 2.6534 0
M  V30 3173 O 282.479 -5.44017 1.71469 0
M  V30 3174 O 281.413 -4.85167 3.56226 0
M  V30 3175 H 285.239 -1.71848 2.50403 0
M  V30 3176 H 282.824 -0.790378 1.26781 0
M  V30 3177 H 284.706 -3.94634 1.47791 0
M  V30 3178 H 283.381 -3.1896 0.551898 0
M  V30 3179 H 282.288 -2.51549 2.769 0
M  V30 3180 H 283.621 -3.32416 3.62988 0
M  V30 3181 N 285.273 -1.31445 -0.869486 0
M  V30 3182 C 286.519 -1.21337 -1.62496 0
M  V30 3183 C 286.852 0.227872 -1.92858 0
M  V30 3184 O 286.127 1.16094 -1.56053 0
M  V30 3185 C 286.41 -2.05814 -2.95487 0
M  V30 3186 C 286.263 -3.5824 -2.72 0
M  V30 3187 C 287.582 -1.9079 -3.96594 0
M  V30 3188 H 284.701 -0.442135 -0.589649 0
M  V30 3189 H 287.343 -1.6124 -1.00507 0
M  V30 3190 H 285.493 -1.71913 -3.48394 0
M  V30 3191 H 287.165 -4.0228 -2.25762 0
M  V30 3192 H 285.408 -3.81647 -2.06224 0
M  V30 3193 H 286.079 -4.12657 -3.66631 0
M  V30 3194 H 288.555 -2.20459 -3.52898 0
M  V30 3195 H 287.431 -2.52199 -4.87531 0
M  V30 3196 H 287.692 -0.871341 -4.33428 0
M  V30 3197 N 286.751 1.08385 -1.14413 0
M  V30 3198 C 288.028 1.77429 -0.823297 0
M  V30 3199 C 288.408 1.9974 0.683163 0
M  V30 3200 O 287.756 1.60739 1.62405 0
M  V30 3201 C 287.966 3.09004 -1.62227 0
M  V30 3202 C 289.314 3.83532 -1.82177 0
M  V30 3203 O 290.338 3.18786 -1.58915 0
M  V30 3204 O 289.197 4.99792 -2.21067 0
M  V30 3205 H 286.291 0.769999 -0.301712 0
M  V30 3206 H 288.837 1.14846 -1.24934 0
M  V30 3207 H 287.609 2.88316 -2.64555 0
M  V30 3208 H 287.232 3.79316 -1.19187 0
M  V30 3209 N 288.23 0.939286 1.26551 0
M  V30 3210 C 289.479 0.581601 1.93133 0
M  V30 3211 C 289.792 -0.883224 1.74524 0
M  V30 3212 O 290.998 -1.3502 2.35546 0
M  V30 3213 C 289.454 0.989425 3.46032 0
M  V30 3214 C 289.062 2.47573 3.73379 0
M  V30 3215 C 290.806 0.703544 4.18629 0
M  V30 3216 C 288.713 2.82235 5.19709 0
M  V30 3217 H 287.643 0.213803 0.723052 0
M  V30 3218 H 290.294 1.14167 1.4366 0
M  V30 3219 H 288.676 0.357902 3.94379 0
M  V30 3220 H 289.85 3.15614 3.35744 0
M  V30 3221 H 288.165 2.73471 3.1401 0
M  V30 3222 H 290.762 0.938869 5.26393 0
M  V30 3223 H 291.105 -0.359639 4.14744 0
M  V30 3224 H 291.638 1.2947 3.76141 0
M  V30 3225 H 288.377 3.87509 5.28694 0
M  V30 3226 H 287.897 2.18854 5.58447 0
M  V30 3227 H 289.576 2.70599 5.87695 0
M  V30 3228 N 289.708 -1.40897 0.706093 0
M  V30 3229 C 290.671 -2.29131 0.0562841 0
M  V30 3230 C 291.671 -1.44901 -0.697166 0
M  V30 3231 O 292.861 -1.65926 -0.530484 0
M  V30 3232 C 289.993 -3.27957 -0.93043 0
M  V30 3233 H 291.186 -2.88091 0.833284 0
M  V30 3234 H 288.739 -1.4906 0.470192 0
M  V30 3235 H 289.474 -2.73997 -1.73482 0
M  V30 3236 H 289.259 -3.90124 -0.393166 0
M  V30 3237 H 290.749 -3.94049 -1.38256 0
M  V30 3238 N 291.186 -0.45159 -1.50991 0
M  V30 3239 C 292.096 0.358431 -2.31846 0
M  V30 3240 C 293.112 1.01438 -1.41373 0
M  V30 3241 O 294.288 1.00663 -1.74439 0
M  V30 3242 C 291.353 1.43704 -3.15515 0
M  V30 3243 C 290.414 0.799742 -4.21785 0
M  V30 3244 C 289.647 1.82696 -5.01456 0
M  V30 3245 O 289.87 3.05105 -4.81941 0
M  V30 3246 O 288.804 1.40958 -5.85162 0
M  V30 3247 H 292.63 -0.302032 -3.02194 0
M  V30 3248 H 290.215 -0.213825 -1.47862 0
M  V30 3249 H 292.097 2.06227 -3.67489 0
M  V30 3250 H 290.772 2.08133 -2.47916 0
M  V30 3251 H 289.679 0.136084 -3.73852 0
M  V30 3252 H 291.012 0.198718 -4.91799 0
M  V30 3253 N 292.664 1.56529 -0.183458 0
M  V30 3254 C 293.91 1.97537 0.459036 0
M  V30 3255 C 294.243 1.06989 1.62071 0
M  V30 3256 O 293.518 0.11948 1.94133 0
M  V30 3257 C 293.801 3.47874 0.930368 0
M  V30 3258 C 293.654 4.492 -0.232317 0
M  V30 3259 C 294.973 4.01612 1.79989 0
M  V30 3260 H 292.092 0.718204 0.165383 0
M  V30 3261 H 294.734 1.88042 -0.272038 0
M  V30 3262 H 292.884 3.56095 1.55333 0
M  V30 3263 H 294.556 4.53027 -0.86972 0
M  V30 3264 H 292.799 4.24657 -0.885928 0
M  V30 3265 H 293.47 5.51823 0.139796 0
M  V30 3266 H 295.946 3.96097 1.27461 0
M  V30 3267 H 294.822 5.07195 2.09867 0
M  V30 3268 H 295.083 3.46163 2.74998 0
M  V30 3269 N 294.142 -0.090211 1.57342 0
M  V30 3270 C 295.372 -0.805055 1.90269 0
M  V30 3271 C 295.78 -1.72561 0.775842 0
M  V30 3272 O 295.123 -1.81839 -0.260843 0
M  V30 3273 C 295.185 -1.66734 3.18497 0
M  V30 3274 C 294.849 -0.918092 4.47683 0
M  V30 3275 C 295.846 -0.245674 5.19319 0
M  V30 3276 C 293.531 -0.890724 4.94339 0
M  V30 3277 C 295.525 0.444088 6.35851 0
M  V30 3278 C 293.212 -0.197179 6.10782 0
M  V30 3279 C 294.21 0.469044 6.81388 0
M  V30 3280 O 293.898 1.15146 7.95611 0
M  V30 3281 H 293.63 -0.235143 0.633785 0
M  V30 3282 H 296.184 -0.0703805 2.05279 0
M  V30 3283 H 294.414 -2.44437 2.99646 0
M  V30 3284 H 296.103 -2.25919 3.37217 0
M  V30 3285 H 296.869 -0.258246 4.84312 0
M  V30 3286 H 292.748 -1.39873 4.39268 0
M  V30 3287 H 296.292 0.964667 6.90898 0
M  V30 3288 H 292.189 -0.18247 6.45242 0
M  V30 3289 H 292.957 1.05885 8.11622 0
M  V30 3290 N 295.62 -1.53406 -0.361157 0
M  V30 3291 C 296.552 -1.76446 -1.46286 0
M  V30 3292 C 297.565 -0.645322 -1.49464 0
M  V30 3293 O 298.754 -0.921681 -1.52864 0
M  V30 3294 C 295.854 -1.83332 -2.85031 0
M  V30 3295 C 295.027 -3.13033 -3.05498 0
M  V30 3296 C 294.086 -3.11104 -4.24383 0
M  V30 3297 O 293.112 -3.84888 -4.19344 0
M  V30 3298 N 294.314 -2.32234 -5.32022 0
M  V30 3299 H 297.079 -2.71508 -1.26899 0
M  V30 3300 H 294.64 -1.52238 -0.550915 0
M  V30 3301 H 296.632 -1.79514 -3.62708 0
M  V30 3302 H 295.202 -0.955342 -2.97644 0
M  V30 3303 H 294.422 -3.30119 -2.15442 0
M  V30 3304 H 295.71 -3.9874 -3.16044 0
M  V30 3305 H 295.108 -1.71807 -5.38979 0
M  V30 3306 H 293.665 -2.3423 -6.08259 0
M  V30 3307 N 297.098 0.621204 -1.44841 0
M  V30 3308 C 298.046 1.75385 -1.52784 0
M  V30 3309 C 299.04 1.64639 -0.398779 0
M  V30 3310 O 300.246 1.70598 -0.574137 0
M  V30 3311 H 296.621 0.579193 -0.479625 0
M  V30 3312 H 298.592 1.6581 -2.48092 0
M  V30 3313 C 297.341 3.13742 -1.4987 0
M  V30 3314 H 296.664 3.22663 -2.36069 0
M  V30 3315 H 298.104 3.92861 -1.59487 0
M  V30 3316 C 296.563 3.36175 -0.220973 0
M  V30 3317 O 297.093 3.95469 0.704782 0
M  V30 3318 N 295.299 2.90348 -0.120963 0
M  V30 3319 H 294.846 2.42278 -0.875162 0
M  V30 3320 H 294.804 3.05732 0.733168 0
M  V30 3321 N 298.576 1.31904 0.862503 0
M  V30 3322 C 299.824 1.21776 1.61292 0
M  V30 3323 C 300.145 -0.222413 1.93727 0
M  V30 3324 O 299.415 -1.1451 1.58947 0
M  V30 3325 H 297.995 0.447717 0.597962 0
M  V30 3326 H 300.657 1.65326 1.03215 0
M  V30 3327 H 299.753 1.7948 2.5533 0
M  V30 3328 N 300.054 -1.07777 1.14986 0
M  V30 3329 C 301.3 -1.80557 0.923422 0
M  V30 3330 C 301.633 -1.86298 -0.548337 0
M  V30 3331 O 300.908 -1.34354 -1.40639 0
M  V30 3332 C 301.191 -3.25839 1.53299 0
M  V30 3333 C 301.044 -3.28269 3.07505 0
M  V30 3334 C 302.363 -4.22991 1.21518 0
M  V30 3335 H 299.482 -0.655493 0.336894 0
M  V30 3336 H 302.124 -1.26144 1.42083 0
M  V30 3337 H 300.274 -3.72306 1.10999 0
M  V30 3338 H 301.946 -2.90079 3.58681 0
M  V30 3339 H 300.189 -2.67355 3.4162 0
M  V30 3340 H 300.86 -4.30691 3.45266 0
M  V30 3341 H 303.336 -3.84894 1.581 0
M  V30 3342 H 302.212 -5.22945 1.66793 0
M  V30 3343 H 302.473 -4.41904 0.131505 0
M  V30 3344 N 301.532 -0.945985 -1.26051 0
M  V30 3345 C 302.48 -0.450259 -2.282 0
M  V30 3346 C 303.474 0.47497 -1.62605 0
M  V30 3347 O 304.68 0.352653 -1.76512 0
M  V30 3348 H 301.055 -0.127081 -0.741184 0
M  V30 3349 H 303.026 -1.32422 -2.67408 0
M  V30 3350 C 301.775 0.26467 -3.46691 0
M  V30 3351 H 301.098 -0.438123 -3.97392 0
M  V30 3352 H 302.538 0.575678 -4.20074 0
M  V30 3353 C 300.997 1.48416 -3.02447 0
M  V30 3354 O 301.527 2.58227 -3.07704 0
M  V30 3355 N 299.733 1.34243 -2.57735 0
M  V30 3356 H 299.28 0.448994 -2.53657 0
M  V30 3357 H 299.238 2.15957 -2.28495 0
M  V30 3358 N 303.011 1.40521 -0.713556 0
M  V30 3359 C 303.959 2.32549 -0.0485227 0
M  V30 3360 C 304.953 1.51931 0.74922 0
M  V30 3361 O 306.159 1.67745 0.652816 0
M  V30 3362 H 302.534 0.751994 0.00311138 0
M  V30 3363 H 304.505 2.86291 -0.841443 0
M  V30 3364 C 303.254 3.36879 0.860687 0
M  V30 3365 H 302.577 3.98978 0.256246 0
M  V30 3366 H 304.017 4.03772 1.294 0
M  V30 3367 C 302.476 2.72197 1.9852 0
M  V30 3368 O 303.006 2.5837 3.07584 0
M  V30 3369 N 301.212 2.30612 1.76823 0
M  V30 3370 H 300.759 2.42059 0.881217 0
M  V30 3371 H 300.717 1.87672 2.52243 0
M  V30 3372 N 304.489 0.459591 1.5075 0
M  V30 3373 C 305.439 -0.358926 2.25157 0
M  V30 3374 C 306.423 -0.971285 1.28276 0
M  V30 3375 O 307.615 -0.885739 1.53244 0
M  V30 3376 C 304.744 -1.44695 3.11317 0
M  V30 3377 C 303.83 -0.842894 4.15639 0
M  V30 3378 N 304.221 0.0299373 5.05791 0
M  V30 3379 C 302.519 -1.10809 4.32015 0
M  V30 3380 C 303.22 0.371563 5.80512 0
M  V30 3381 N 302.196 -0.250409 5.43023 0
M  V30 3382 H 305.998 0.313636 2.92222 0
M  V30 3383 H 303.512 0.273021 1.60089 0
M  V30 3384 H 305.509 -2.04641 3.63218 0
M  V30 3385 H 304.169 -2.12162 2.45799 0
M  V30 3386 H 305.18 0.39797 5.16369 0
M  V30 3387 H 301.857 -1.7786 3.77719 0
M  V30 3388 H 303.247 1.08319 6.63111 0
M  V30 3389 N 305.967 -1.56429 0.191757 0
M  V30 3390 C 307.197 -2.01574 -0.452928 0
M  V30 3391 C 307.605 -1.07107 -1.55964 0
M  V30 3392 O 306.948 -0.067534 -1.83576 0
M  V30 3393 C 307.01 -3.43121 -1.07278 0
M  V30 3394 C 306.674 -4.56879 -0.105214 0
M  V30 3395 C 307.671 -5.15379 0.684149 0
M  V30 3396 C 305.356 -5.023 0.00489824 0
M  V30 3397 C 307.35 -6.17746 1.57062 0
M  V30 3398 C 305.037 -6.04511 0.894935 0
M  V30 3399 C 306.035 -6.62108 1.67637 0
M  V30 3400 O 305.723 -7.62335 2.55149 0
M  V30 3401 H 305.455 -0.665554 -0.118379 0
M  V30 3402 H 308.009 -2.03245 0.296737 0
M  V30 3403 H 306.239 -3.38425 -1.87097 0
M  V30 3404 H 307.928 -3.72093 -1.62177 0
M  V30 3405 H 308.694 -4.81157 0.609365 0
M  V30 3406 H 304.573 -4.57168 -0.593156 0
M  V30 3407 H 308.117 -6.6263 2.181 0
M  V30 3408 H 304.014 -6.38157 0.970847 0
M  V30 3409 H 304.782 -7.79741 2.48892 0
M  V30 3410 N 307.445 0.0818655 -1.57387 0
M  V30 3411 C 308.694 0.781681 -1.85937 0
M  V30 3412 C 309.007 1.79246 -0.782957 0
M  V30 3413 O 310.213 2.54112 -0.955987 0
M  V30 3414 C 308.669 1.44109 -3.29789 0
M  V30 3415 C 308.277 0.469396 -4.45534 0
M  V30 3416 C 310.021 2.12386 -3.67549 0
M  V30 3417 C 307.928 1.13415 -5.80423 0
M  V30 3418 H 306.858 0.295682 -0.693605 0
M  V30 3419 H 309.509 0.0348051 -1.83467 0
M  V30 3420 H 307.891 2.23588 -3.2684 0
M  V30 3421 H 309.065 -0.294856 -4.59856 0
M  V30 3422 H 307.38 -0.108383 -4.16259 0
M  V30 3423 H 309.977 2.62878 -4.65617 0
M  V30 3424 H 310.32 2.91877 -2.96839 0
M  V30 3425 H 310.853 1.39751 -3.72444 0
M  V30 3426 H 307.592 0.379771 -6.54399 0
M  V30 3427 H 307.112 1.8695 -5.69921 0
M  V30 3428 H 308.791 1.65686 -6.25426 0
M  V30 3429 N 308.923 1.53595 0.353017 0
M  V30 3430 C 310.2 1.61002 1.11075 0
M  V30 3431 C 310.58 0.425356 2.0677 0
M  V30 3432 O 309.928 -0.583267 2.2093 0
M  V30 3433 C 310.138 2.96631 1.83877 0
M  V30 3434 C 311.486 3.51653 2.37961 0
M  V30 3435 O 312.51 2.98743 1.93987 0
M  V30 3436 O 311.369 4.44177 3.18386 0
M  V30 3437 H 308.463 0.650825 0.510251 0
M  V30 3438 H 311.009 1.6594 0.35527 0
M  V30 3439 H 309.781 3.74293 1.14108 0
M  V30 3440 H 309.404 2.95242 2.66304 0
M  V30 3441 N 310.401 -0.613514 1.45168 0
M  V30 3442 C 311.331 -1.7354 1.56225 0
M  V30 3443 C 312.312 -1.64981 0.41414 0
M  V30 3444 O 313.497 -1.83472 0.636526 0
M  V30 3445 C 310.627 -3.12128 1.52295 0
M  V30 3446 C 309.581 -3.35491 2.65762 0
M  V30 3447 C 308.907 -4.74291 2.46885 0
M  V30 3448 C 310.207 -3.26325 4.0781 0
M  V30 3449 H 311.901 -1.64543 2.50132 0
M  V30 3450 H 309.447 -0.790185 1.20383 0
M  V30 3451 H 311.4 -3.90404 1.58628 0
M  V30 3452 H 310.124 -3.2195 0.549139 0
M  V30 3453 H 308.783 -2.59603 2.58847 0
M  V30 3454 H 308.431 -4.80839 1.47657 0
M  V30 3455 H 308.131 -4.9088 3.22972 0
M  V30 3456 H 309.655 -5.54775 2.55063 0
M  V30 3457 H 311.069 -3.94483 4.16 0
M  V30 3458 H 309.466 -3.54445 4.8424 0
M  V30 3459 H 310.536 -2.23855 4.30136 0
M  V30 3460 N 311.879 -1.3236 -0.855495 0
M  V30 3461 C 313.125 -1.24064 -1.61182 0
M  V30 3462 C 313.48 0.195914 -1.914 0
M  V30 3463 O 312.773 1.13345 -1.54478 0
M  V30 3464 C 312.967 -2.03275 -2.93963 0
M  V30 3465 C 312.796 -3.54486 -2.76712 0
M  V30 3466 C 311.566 -4.23824 -2.75139 0
M  V30 3467 C 313.764 -4.49154 -2.50531 0
M  V30 3468 N 311.746 -5.61095 -2.4909 0
M  V30 3469 C 313.117 -5.74195 -2.3388 0
M  V30 3470 C 315.172 -4.3842 -2.35992 0
M  V30 3471 C 313.875 -6.89716 -2.04168 0
M  V30 3472 C 315.901 -5.53739 -2.0767 0
M  V30 3473 C 315.263 -6.77779 -1.9182 0
M  V30 3474 H 311.362 -0.509139 -0.59355 0
M  V30 3475 H 313.946 -1.66715 -1.00569 0
M  V30 3476 H 312.117 -1.6297 -3.52555 0
M  V30 3477 H 313.849 -1.86881 -3.58967 0
M  V30 3478 H 310.604 -3.75934 -2.88047 0
M  V30 3479 H 311.028 -6.33411 -2.38996 0
M  V30 3480 H 315.67 -3.43172 -2.46967 0
M  V30 3481 H 313.388 -7.84977 -1.9193 0
M  V30 3482 H 316.974 -5.4736 -1.97201 0
M  V30 3483 H 315.854 -7.65504 -1.70217 0
M  V30 3484 N 313.357 1.07166 -1.15556 0
M  V30 3485 C 314.267 2.17947 -0.868116 0
M  V30 3486 C 315.283 1.73297 0.156297 0
M  V30 3487 O 316.459 2.01392 -0.0182327 0
M  V30 3488 C 313.524 3.44789 -0.36355 0
M  V30 3489 C 312.585 4.03996 -1.45209 0
M  V30 3490 C 311.818 5.24783 -0.971508 0
M  V30 3491 O 312.041 5.70109 0.182194 0
M  V30 3492 O 310.975 5.75715 -1.75603 0
M  V30 3493 H 314.801 2.4503 -1.79427 0
M  V30 3494 H 312.386 1.16539 -0.934824 0
M  V30 3495 H 314.268 4.21307 -0.0887113 0
M  V30 3496 H 312.943 3.19253 0.534708 0
M  V30 3497 H 311.85 3.29009 -1.78056 0
M  V30 3498 H 313.183 4.33808 -2.32533 0
M  V30 3499 N 314.835 0.952656 1.25548 0
M  V30 3500 C 316.065 0.622592 1.96996 0
M  V30 3501 C 316.473 -0.809112 1.71026 0
M  V30 3502 O 315.816 -1.55258 0.981861 0
M  V30 3503 C 315.878 0.798946 3.5051 0
M  V30 3504 C 315.542 2.20744 4.00151 0
M  V30 3505 C 316.539 3.18394 4.11001 0
M  V30 3506 C 314.224 2.5311 4.33867 0
M  V30 3507 C 316.218 4.46504 4.54877 0
M  V30 3508 C 313.905 3.8145 4.7743 0
M  V30 3509 C 314.903 4.77959 4.87897 0
M  V30 3510 O 314.591 6.04012 5.30494 0
M  V30 3511 H 314.323 0.232503 0.634758 0
M  V30 3512 H 316.877 1.2789 1.60728 0
M  V30 3513 H 315.107 0.0854903 3.86605 0
M  V30 3514 H 316.796 0.47023 4.03167 0
M  V30 3515 H 317.562 2.94715 3.85186 0
M  V30 3516 H 313.441 1.78719 4.24948 0
M  V30 3517 H 316.985 5.21835 4.62962 0
M  V30 3518 H 312.882 4.04936 5.0269 0
M  V30 3519 H 313.65 6.0736 5.48685 0
M  V30 3520 N 316.313 -1.40141 0.720998 0
M  V30 3521 C 317.543 -2.04798 0.27226 0
M  V30 3522 C 317.951 -1.54442 -1.09289 0
M  V30 3523 O 317.294 -0.698342 -1.69908 0
M  V30 3524 C 317.356 -3.59048 0.18027 0
M  V30 3525 C 317.02 -4.32317 1.48159 0
M  V30 3526 C 318.017 -4.59902 2.42458 0
M  V30 3527 C 315.702 -4.71125 1.74202 0
M  V30 3528 C 317.696 -5.25288 3.61042 0
M  V30 3529 C 315.383 -5.36242 2.93066 0
M  V30 3530 C 316.381 -5.63254 3.86308 0
M  V30 3531 O 316.069 -6.27024 5.03086 0
M  V30 3532 H 315.801 -0.665419 0.119139 0
M  V30 3533 H 318.355 -1.80436 0.981432 0
M  V30 3534 H 316.585 -3.82251 -0.58489 0
M  V30 3535 H 318.274 -4.05221 -0.234618 0
M  V30 3536 H 319.04 -4.30379 2.23604 0
M  V30 3537 H 314.919 -4.49466 1.02477 0
M  V30 3538 H 318.463 -5.46289 4.33837 0
M  V30 3539 H 314.36 -5.65185 3.11826 0
M  V30 3540 H 315.128 -6.4552 5.03235 0
M  V30 3541 N 317.792 -0.46758 -1.50504 0
M  V30 3542 C 318.755 0.317059 -2.26996 0
M  V30 3543 C 319.755 0.923513 -1.31635 0
M  V30 3544 O 320.945 0.793239 -1.55091 0
M  V30 3545 C 318.077 1.45134 -3.08462 0
M  V30 3546 H 319.27 -0.353723 -2.97807 0
M  V30 3547 H 316.823 -0.221545 -1.54722 0
M  V30 3548 H 317.558 2.15728 -2.4214 0
M  V30 3549 H 317.343 1.02232 -3.78538 0
M  V30 3550 H 318.833 2.00493 -3.66323 0
M  V30 3551 N 319.27 1.56325 -0.20005 0
M  V30 3552 C 320.233 2.18084 0.705132 0
M  V30 3553 C 321.233 1.13666 1.1374 0
M  V30 3554 O 322.423 1.39023 1.04968 0
M  V30 3555 C 319.555 2.78689 1.96329 0
M  V30 3556 H 320.748 2.99435 0.167023 0
M  V30 3557 H 318.301 1.56221 0.0495725 0
M  V30 3558 H 319.036 2.0115 2.5438 0
M  V30 3559 H 318.821 3.55133 1.66202 0
M  V30 3560 H 320.311 3.26096 2.60866 0
M  V30 3561 N 320.748 -0.0735177 1.57428 0
M  V30 3562 C 321.997 -0.771809 1.86349 0
M  V30 3563 C 322.31 -1.78828 0.792452 0
M  V30 3564 O 323.516 -2.53602 0.96945 0
M  V30 3565 C 321.972 -1.42358 3.30548 0
M  V30 3566 C 321.58 -0.445761 4.45777 0
M  V30 3567 C 323.324 -2.10434 3.6867 0
M  V30 3568 C 321.231 -1.10335 5.81016 0
M  V30 3569 H 320.161 -0.291999 0.695164 0
M  V30 3570 H 322.812 -0.0250749 1.83483 0
M  V30 3571 H 321.194 -2.21852 3.28021 0
M  V30 3572 H 322.368 0.319239 4.59693 0
M  V30 3573 H 320.683 0.130457 4.16196 0
M  V30 3574 H 323.28 -2.60405 4.67004 0
M  V30 3575 H 323.623 -2.90298 2.98383 0
M  V30 3576 H 324.156 -1.37773 3.7318 0
M  V30 3577 H 320.895 -0.345061 6.54591 0
M  V30 3578 H 320.415 -1.83925 5.70904 0
M  V30 3579 H 322.094 -1.62367 6.26295 0
M  V30 3580 N 322.226 -1.5378 -0.344866 0
M  V30 3581 C 323.189 -1.80981 -1.40637 0
M  V30 3582 C 324.189 -0.680816 -1.45676 0
M  V30 3583 O 325.379 -0.949095 -1.46075 0
M  V30 3584 C 322.511 -1.95063 -2.79577 0
M  V30 3585 H 323.704 -2.75803 -1.17783 0
M  V30 3586 H 321.257 -1.45173 -0.579181 0
M  V30 3587 H 321.992 -1.02379 -3.07716 0
M  V30 3588 H 321.777 -2.77198 -2.77315 0
M  V30 3589 H 323.267 -2.17629 -3.56409 0
M  V30 3590 N 323.704 0.605807 -1.45491 0
M  V30 3591 C 324.614 1.74466 -1.56839 0
M  V30 3592 C 325.63 1.68006 -0.452772 0
M  V30 3593 O 326.806 1.8833 -0.713708 0
M  V30 3594 C 323.871 3.10931 -1.53371 0
M  V30 3595 C 322.932 3.28832 -2.75986 0
M  V30 3596 C 322.165 4.58787 -2.72673 0
M  V30 3597 O 322.388 5.4122 -1.80102 0
M  V30 3598 O 321.322 4.79438 -3.63899 0
M  V30 3599 H 325.148 1.67843 -2.53106 0
M  V30 3600 H 322.733 0.770108 -1.28022 0
M  V30 3601 H 324.615 3.92233 -1.54051 0
M  V30 3602 H 323.29 3.18042 -0.602572 0
M  V30 3603 H 322.197 2.47112 -2.80867 0
M  V30 3604 H 323.53 3.26599 -3.68231 0
M  V30 3605 N 325.182 1.32811 0.848464 0
M  V30 3606 C 326.129 1.22265 1.95755 0
M  V30 3607 C 327.099 0.103413 1.65778 0
M  V30 3608 O 328.284 0.280033 1.88734 0
M  V30 3609 C 325.424 0.958014 3.31536 0
M  V30 3610 C 324.537 2.16262 3.73971 0
M  V30 3611 C 323.672 1.83295 4.98575 0
M  V30 3612 C 322.711 3.00041 5.33518 0
M  V30 3613 N 321.848 2.67125 6.49299 0
M  V30 3614 H 326.688 2.17128 2.04107 0
M  V30 3615 H 324.225 1.07982 0.998913 0
M  V30 3616 H 326.183 0.785052 4.09747 0
M  V30 3617 H 324.813 0.046159 3.22767 0
M  V30 3618 H 323.865 2.44565 2.91362 0
M  V30 3619 H 325.177 3.03572 3.95785 0
M  V30 3620 H 324.331 1.62586 5.84509 0
M  V30 3621 H 323.07 0.932078 4.7871 0
M  V30 3622 H 322.075 3.21374 4.46093 0
M  V30 3623 H 323.3 3.90869 5.55336 0
M  V30 3624 H 321.246 1.79586 6.3094 0
M  V30 3625 H 321.163 3.47965 6.71161 0
M  V30 3626 H 322.431 2.49861 7.3837 0
M  V30 3627 N 326.66 -1.06551 1.16123 0
M  V30 3628 C 327.937 -1.76097 0.85142 0
M  V30 3629 C 328.317 -2.00802 -0.6513 0
M  V30 3630 O 327.665 -1.63302 -1.59827 0
M  V30 3631 C 327.875 -3.06384 1.67122 0
M  V30 3632 C 329.223 -3.80585 1.88255 0
M  V30 3633 O 330.247 -3.16218 1.63966 0
M  V30 3634 O 329.106 -4.96212 2.2899 0
M  V30 3635 H 326.2 -0.765102 0.313923 0
M  V30 3636 H 328.746 -1.12844 1.26745 0
M  V30 3637 H 327.518 -2.84071 2.69108 0
M  V30 3638 H 327.141 -3.77371 1.25206 0
M  V30 3639 N 328.138 -0.959301 -1.25041 0
M  V30 3640 C 329.385 -0.616611 -1.92884 0
M  V30 3641 C 329.713 0.847036 -1.75087 0
M  V30 3642 O 328.968 1.62374 -1.09239 0
M  V30 3643 C 329.267 -0.927136 -3.45165 0
M  V30 3644 C 328.933 -2.37757 -3.83122 0
M  V30 3645 C 327.595 -2.77402 -3.93194 0
M  V30 3646 C 329.947 -3.31929 -4.01836 0
M  V30 3647 C 327.275 -4.10277 -4.19392 0
M  V30 3648 C 329.627 -4.64423 -4.29528 0
M  V30 3649 C 328.291 -5.03857 -4.37818 0
M  V30 3650 H 327.561 -0.225634 -0.705812 0
M  V30 3651 H 330.208 -1.20921 -1.48493 0
M  V30 3652 H 328.513 -0.252195 -3.90987 0
M  V30 3653 H 330.21 -0.6405 -3.95852 0
M  V30 3654 H 326.8 -2.06013 -3.75841 0
M  V30 3655 H 330.984 -3.02488 -3.93465 0
M  V30 3656 H 326.24 -4.40467 -4.24027 0
M  V30 3657 H 330.414 -5.37369 -4.42953 0
M  V30 3658 H 328.041 -6.06843 -4.57871 0
M  V30 3659 N 329.616 1.39756 -0.72842 0
M  V30 3660 C 331.032 1.5442 -0.403308 0
M  V30 3661 C 331.232 1.69694 1.08656 0
M  V30 3662 O 330.288 1.69373 1.87267 0
M  V30 3663 C 331.601 2.76555 -1.18058 0
M  V30 3664 C 333.149 2.90384 -1.16815 0
M  V30 3665 C 333.624 4.15449 -1.92785 0
M  V30 3666 N 335.115 4.22475 -1.89918 0
M  V30 3667 C 335.85 5.1818 -2.45514 0
M  V30 3668 N 335.346 6.19714 -3.09719 0
M  V30 3669 N 337.139 5.1035 -2.35584 0
M  V30 3670 H 329.29 1.28089 -1.69431 0
M  V30 3671 H 331.553 0.620327 -0.716867 0
M  V30 3672 H 331.259 2.7159 -2.23455 0
M  V30 3673 H 331.133 3.69033 -0.780662 0
M  V30 3674 H 333.52 2.94846 -0.12234 0
M  V30 3675 H 333.601 1.98988 -1.6074 0
M  V30 3676 H 333.245 4.11749 -2.97364 0
M  V30 3677 H 333.175 5.05877 -1.46272 0
M  V30 3678 H 335.666 3.49743 -1.43138 0
M  V30 3679 H 335.979 6.8919 -3.49625 0
M  V30 3680 H 334.324 6.20121 -3.13807 0
M  V30 3681 H 337.515 4.2996 -1.85072 0
M  V30 3682 H 337.688 5.84761 -2.79211 0
M  V30 3683 N 331.094 0.475555 1.50254 0
M  V30 3684 C 332.371 -0.139685 1.95101 0
M  V30 3685 C 332.751 -1.56555 1.41611 0
M  V30 3686 O 332.099 -2.19956 0.618993 0
M  V30 3687 C 332.309 -0.0784298 3.48912 0
M  V30 3688 C 333.657 -0.265095 4.23772 0
M  V30 3689 O 334.681 -0.154808 3.55863 0
M  V30 3690 O 333.54 -0.488327 5.44314 0
M  V30 3691 H 330.634 -0.109236 0.819754 0
M  V30 3692 H 333.18 0.536276 1.61004 0
M  V30 3693 H 331.952 0.916918 3.80405 0
M  V30 3694 H 331.575 -0.795655 3.89558 0
M  V30 3695 N 332.573 -1.56217 0.208337 0
M  V30 3696 C 333.819 -1.98242 -0.427552 0
M  V30 3697 C 334.152 -1.09554 -1.60348 0
M  V30 3698 O 333.427 -0.15035 -1.93918 0
M  V30 3699 C 333.71 -3.4931 -0.874907 0
M  V30 3700 C 333.563 -4.48773 0.303751 0
M  V30 3701 C 334.882 -4.04424 -1.73577 0
M  V30 3702 H 332.001 -0.720744 -0.153936 0
M  V30 3703 H 334.643 -1.87586 0.30192 0
M  V30 3704 H 332.793 -3.58522 -1.49648 0
M  V30 3705 H 334.465 -4.51586 0.941682 0
M  V30 3706 H 332.708 -4.23194 0.953375 0
M  V30 3707 H 333.379 -5.51976 -0.0519883 0
M  V30 3708 H 335.855 -3.98075 -1.21143 0
M  V30 3709 H 334.731 -5.1047 -2.01771 0
M  V30 3710 H 334.992 -3.50494 -2.69456 0
M  V30 3711 N 334.051 0.0651679 -1.57465 0
M  V30 3712 C 334.984 1.10876 -1.99453 0
M  V30 3713 C 335.962 1.37205 -0.872555 0
M  V30 3714 O 337.146 1.50468 -1.13542 0
M  V30 3715 C 334.273 2.45167 -2.3369 0
M  V30 3716 C 333.319 2.3493 -3.55964 0
M  V30 3717 S 334.152 1.73708 -5.06543 0
M  V30 3718 C 335.308 3.09563 -5.43987 0
M  V30 3719 H 335.541 0.750967 -2.87659 0
M  V30 3720 H 333.074 0.273933 -1.51951 0
M  V30 3721 H 335.032 3.22412 -2.54088 0
M  V30 3722 H 333.693 2.78105 -1.46001 0
M  V30 3723 H 332.886 3.3398 -3.77457 0
M  V30 3724 H 332.488 1.65823 -3.3523 0
M  V30 3725 H 334.78 4.05882 -5.42463 0
M  V30 3726 H 335.723 2.92843 -6.44708 0
M  V30 3727 H 336.131 3.10474 -4.71451 0
M  V30 3728 N 335.529 1.53961 0.336706 0
M  V30 3729 C 336.806 1.62171 1.09361 0
M  V30 3730 C 337.186 0.447263 2.06307 0
M  V30 3731 O 336.534 -0.559802 2.21537 0
M  V30 3732 C 336.744 2.98565 1.80721 0
M  V30 3733 C 338.092 3.54157 2.34218 0
M  V30 3734 O 339.116 3.00784 1.90807 0
M  V30 3735 O 337.975 4.47528 3.13657 0
M  V30 3736 H 335.069 0.6562 0.503319 0
M  V30 3737 H 337.615 1.66307 0.33765 0
M  V30 3738 H 336.387 3.75482 1.10132 0
M  V30 3739 H 336.01 2.9805 2.63158 0
M  V30 3740 N 337.007 -0.598083 1.45811 0
M  V30 3741 C 337.939 -1.72231 1.51225 0
M  V30 3742 C 338.952 -1.57757 0.402059 0
M  V30 3743 O 340.141 -1.65464 0.669624 0
M  V30 3744 C 337.241 -3.10331 1.3619 0
M  V30 3745 C 336.414 -3.50955 2.61054 0
M  V30 3746 C 335.473 -4.68055 2.40439 0
M  V30 3747 O 334.499 -4.74691 3.14097 0
M  V30 3748 N 335.701 -5.61941 1.45612 0
M  V30 3749 H 338.466 -1.68046 2.48154 0
M  V30 3750 H 336.027 -0.783637 1.41671 0
M  V30 3751 H 338.019 -3.86439 1.20195 0
M  V30 3752 H 336.589 -3.0897 0.475015 0
M  V30 3753 H 335.809 -2.64711 2.92099 0
M  V30 3754 H 337.097 -3.74858 3.44034 0
M  V30 3755 H 336.495 -5.59301 0.848431 0
M  V30 3756 H 335.052 -6.37542 1.35585 0
M  V30 3757 N 338.485 -1.33259 -0.841409 0
M  V30 3758 C 339.734 -1.23921 -1.59143 0
M  V30 3759 C 340.047 0.1941 -1.94635 0
M  V30 3760 O 341.253 0.409474 -2.68394 0
M  V30 3761 C 339.709 -2.17119 -2.87032 0
M  V30 3762 C 339.317 -3.65606 -2.58914 0
M  V30 3763 C 341.061 -2.16648 -3.65053 0
M  V30 3764 C 338.968 -4.50726 -3.82884 0
M  V30 3765 H 337.898 -0.460264 -0.597221 0
M  V30 3766 H 340.549 -1.58307 -0.927959 0
M  V30 3767 H 338.931 -1.75663 -3.54906 0
M  V30 3768 H 340.105 -4.15487 -1.99267 0
M  V30 3769 H 338.42 -3.68341 -1.942 0
M  V30 3770 H 341.017 -2.77474 -4.57069 0
M  V30 3771 H 341.36 -1.16088 -3.99787 0
M  V30 3772 H 341.893 -2.56453 -3.041 0
M  V30 3773 H 338.632 -5.52151 -3.53283 0
M  V30 3774 H 338.152 -4.0559 -4.41879 0
M  V30 3775 H 339.831 -4.64401 -4.50489 0
M  V30 3776 N 339.963 1.05934 -1.16686 0
M  V30 3777 C 340.91 2.13499 -0.876748 0
M  V30 3778 C 341.88 1.65162 0.176299 0
M  V30 3779 O 343.065 1.90757 0.0407143 0
M  V30 3780 C 340.205 3.42912 -0.387967 0
M  V30 3781 C 339.318 4.04964 -1.50426 0
M  V30 3782 C 338.453 5.22266 -0.970125 0
M  V30 3783 C 337.492 5.76309 -2.06238 0
M  V30 3784 N 336.629 6.84922 -1.54356 0
M  V30 3785 H 341.469 2.37654 -1.7979 0
M  V30 3786 H 339.006 1.16598 -0.896843 0
M  V30 3787 H 340.964 4.17111 -0.086186 0
M  V30 3788 H 339.594 3.18963 0.496235 0
M  V30 3789 H 338.646 3.28277 -1.92193 0
M  V30 3790 H 339.958 4.41122 -2.32836 0
M  V30 3791 H 339.112 6.03506 -0.621743 0
M  V30 3792 H 337.851 4.87564 -0.115377 0
M  V30 3793 H 336.856 4.93704 -2.41942 0
M  V30 3794 H 338.081 6.13062 -2.92115 0
M  V30 3795 H 336.027 6.52131 -0.711406 0
M  V30 3796 H 335.944 7.20043 -2.30379 0
M  V30 3797 H 337.212 7.69832 -1.22387 0
M  V30 3798 N 341.441 0.965919 1.2453 0
M  V30 3799 C 342.687 0.62776 1.92839 0
M  V30 3800 C 343.02 -0.834694 1.75347 0
M  V30 3801 O 342.295 -1.60031 1.10546 0
M  V30 3802 C 342.578 1.00109 3.45905 0
M  V30 3803 C 342.431 2.52011 3.72573 0
M  V30 3804 C 343.75 0.53435 4.36844 0
M  V30 3805 H 340.869 0.229537 0.700344 0
M  V30 3806 H 343.511 1.2046 1.46933 0
M  V30 3807 H 341.661 0.510238 3.85135 0
M  V30 3808 H 343.333 3.08559 3.42912 0
M  V30 3809 H 341.576 2.95287 3.17786 0
M  V30 3810 H 342.247 2.73183 4.79661 0
M  V30 3811 H 344.723 0.955565 4.04979 0
M  V30 3812 H 343.599 0.824152 5.42678 0
M  V30 3813 H 343.86 -0.565589 4.38467 0
M  V30 3814 N 342.919 -1.39368 0.735821 0
M  V30 3815 C 344.166 -2.00497 0.284123 0
M  V30 3816 C 344.494 -1.58387 -1.12889 0
M  V30 3817 O 343.749 -0.804359 -1.78406 0
M  V30 3818 C 344.048 -3.5583 0.334651 0
M  V30 3819 C 343.714 -4.17593 1.7008 0
M  V30 3820 C 342.376 -4.34176 2.07472 0
M  V30 3821 C 344.728 -4.51848 2.59775 0
M  V30 3822 C 342.056 -4.82304 3.34065 0
M  V30 3823 C 344.408 -5.01384 3.85741 0
M  V30 3824 C 343.072 -5.16175 4.23225 0
M  V30 3825 H 342.342 -0.73367 0.103968 0
M  V30 3826 H 344.989 -1.66683 0.942825 0
M  V30 3827 H 343.294 -3.89674 -0.407625 0
M  V30 3828 H 344.991 -4.00986 -0.0329927 0
M  V30 3829 H 341.581 -4.05087 1.40008 0
M  V30 3830 H 345.765 -4.38653 2.32157 0
M  V30 3831 H 341.021 -4.91941 3.63049 0
M  V30 3832 H 345.195 -5.26863 4.55399 0
M  V30 3833 H 342.822 -5.5323 5.21384 0
M  V30 3834 N 344.397 -0.483516 -1.5 0
M  V30 3835 C 345.622 0.0667119 -2.07293 0
M  V30 3836 C 346.047 1.3164 -1.3436 0
M  V30 3837 O 345.405 1.76945 -0.394987 0
M  V30 3838 C 345.453 0.321126 -3.59167 0
M  V30 3839 O 344.557 1.39927 -3.87936 0
M  V30 3840 H 343.898 -0.0184758 -0.663743 0
M  V30 3841 H 346.428 -0.678125 -1.93035 0
M  V30 3842 H 346.438 0.557906 -4.04168 0
M  V30 3843 H 345.113 -0.592007 -4.11665 0
M  V30 3844 H 343.69 1.14882 -3.54763 0
M  V30 3845 N 345.875 1.56104 -0.216619 0
M  V30 3846 C 347.124 1.97348 0.416744 0
M  V30 3847 C 347.437 1.10715 1.6125 0
M  V30 3848 O 348.643 1.41836 2.31506 0
M  V30 3849 C 347.099 3.51059 0.792835 0
M  V30 3850 C 346.707 4.46387 -0.379828 0
M  V30 3851 C 348.451 4.01026 1.39208 0
M  V30 3852 C 346.358 5.91397 0.0184223 0
M  V30 3853 H 345.288 0.736942 0.159475 0
M  V30 3854 H 347.939 1.80827 -0.31205 0
M  V30 3855 H 346.321 3.63162 1.57891 0
M  V30 3856 H 347.495 4.46029 -1.15737 0
M  V30 3857 H 345.81 4.06734 -0.891979 0
M  V30 3858 H 348.407 5.0686 1.70286 0
M  V30 3859 H 348.75 3.46587 2.30614 0
M  V30 3860 H 349.283 3.92125 0.669537 0
M  V30 3861 H 346.022 6.49807 -0.862002 0
M  V30 3862 H 345.542 5.94961 0.760384 0
M  V30 3863 H 347.221 6.45455 0.446818 0
M  V30 3864 N 347.353 -0.0568162 1.57498 0
M  V30 3865 C 348.263 -1.08346 2.08083 0
M  V30 3866 C 349.279 -1.41439 1.01346 0
M  V30 3867 O 350.455 -1.51316 1.32912 0
M  V30 3868 C 347.52 -2.37352 2.52715 0
M  V30 3869 C 346.581 -2.11093 3.73816 0
M  V30 3870 C 345.814 -3.33949 4.1631 0
M  V30 3871 O 346.037 -4.43622 3.58547 0
M  V30 3872 O 344.971 -3.21279 5.08983 0
M  V30 3873 H 348.797 -0.683667 2.95905 0
M  V30 3874 H 346.382 -0.271965 1.46904 0
M  V30 3875 H 348.264 -3.13246 2.81877 0
M  V30 3876 H 346.939 -2.76681 1.68016 0
M  V30 3877 H 345.846 -1.32856 3.49714 0
M  V30 3878 H 347.179 -1.76637 4.59413 0
M  V30 3879 N 348.832 -1.54138 -0.328536 0
M  V30 3880 C 349.795 -1.82462 -1.38709 0
M  V30 3881 C 350.795 -0.696229 -1.44946 0
M  V30 3882 O 351.985 -0.964535 -1.4506 0
M  V30 3883 C 349.117 -1.98018 -2.77492 0
M  V30 3884 H 350.31 -2.77037 -1.14851 0
M  V30 3885 H 347.863 -1.45779 -0.563751 0
M  V30 3886 H 348.598 -1.05637 -3.06613 0
M  V30 3887 H 348.383 -2.80124 -2.74359 0
M  V30 3888 H 349.873 -2.21396 -3.54081 0
M  V30 3889 N 350.31 0.590341 -1.46126 0
M  V30 3890 C 351.242 1.71427 -1.52136 0
M  V30 3891 C 352.255 1.57542 -0.41042 0
M  V30 3892 O 353.444 1.65106 -0.678389 0
M  V30 3893 C 350.544 3.09605 -1.37834 0
M  V30 3894 C 349.717 3.49566 -2.62912 0
M  V30 3895 C 348.776 4.66773 -2.42918 0
M  V30 3896 O 347.802 4.73019 -3.1661 0
M  V30 3897 N 349.004 5.61161 -1.4859 0
M  V30 3898 H 351.769 1.66728 -2.49042 0
M  V30 3899 H 349.33 0.776113 -1.42085 0
M  V30 3900 H 351.322 3.85796 -1.22243 0
M  V30 3901 H 349.892 3.08714 -0.491393 0
M  V30 3902 H 349.112 2.63158 -2.93499 0
M  V30 3903 H 350.4 3.73028 -3.46017 0
M  V30 3904 H 349.798 5.58844 -0.87808 0
M  V30 3905 H 348.355 6.36814 -1.38965 0
M  V30 3906 N 351.788 1.33704 0.83433 0
M  V30 3907 C 353.199 1.22813 1.4062 0
M  V30 3908 C 353.55 -0.151107 1.95617 0
M  V30 3909 O 352.675 -1.05092 1.89168 0
M  V30 3910 C 353.27 2.22355 2.55624 0
M  V30 3911 C 351.829 2.1529 3.08751 0
M  V30 3912 C 350.976 2.09589 1.8157 0
M  V30 3913 H 353.927 1.45236 0.639702 0
M  V30 3914 H 353.948 1.83391 3.33389 0
M  V30 3915 H 353.46 3.22728 2.15566 0
M  V30 3916 H 351.561 1.18235 3.53343 0
M  V30 3917 H 351.674 3.06038 3.68616 0
M  V30 3918 H 350.038 1.55134 2.02004 0
M  V30 3919 H 350.821 3.11777 1.43701 0
M  V30 3920 N 353.266 -1.05314 1.17247 0
M  V30 3921 C 354.515 -1.77685 0.954521 0
M  V30 3922 C 354.828 -1.88616 -0.518025 0
M  V30 3923 O 356.034 -2.57714 -0.854144 0
M  V30 3924 C 354.49 -3.19402 1.65863 0
M  V30 3925 C 354.098 -3.16605 3.16963 0
M  V30 3926 C 355.842 -3.96237 1.52303 0
M  V30 3927 C 353.749 -4.53103 3.80068 0
M  V30 3928 H 352.679 -0.666 0.353496 0
M  V30 3929 H 355.33 -1.1805 1.40486 0
M  V30 3930 H 353.712 -3.79355 1.13602 0
M  V30 3931 H 354.886 -2.66176 3.76148 0
M  V30 3932 H 353.201 -2.53268 3.30521 0
M  V30 3933 H 355.798 -4.97157 1.96822 0
M  V30 3934 H 356.141 -4.136 0.473401 0
M  V30 3935 H 356.674 -3.42829 2.01775 0
M  V30 3936 H 353.413 -4.40946 4.85023 0
M  V30 3937 H 352.933 -5.03686 3.2567 0
M  V30 3938 H 354.612 -5.22045 3.82202 0
M  V30 3939 N 354.744 -0.972509 -1.24016 0
M  V30 3940 C 355.993 -0.632603 -1.91523 0
M  V30 3941 C 356.306 0.836641 -1.76804 0
M  V30 3942 O 357.512 1.28728 -2.39043 0
M  V30 3943 C 355.968 -1.08082 -3.43287 0
M  V30 3944 C 355.576 -2.57386 -3.66683 0
M  V30 3945 C 357.32 -0.814288 -4.16617 0
M  V30 3946 C 355.227 -2.95915 -5.12043 0
M  V30 3947 H 354.157 -0.232898 -0.717129 0
M  V30 3948 H 356.808 -1.17936 -1.40582 0
M  V30 3949 H 355.19 -0.462339 -3.93292 0
M  V30 3950 H 356.364 -3.24405 -3.27258 0
M  V30 3951 H 354.679 -2.81701 -3.06649 0
M  V30 3952 H 357.276 -1.0781 -5.23718 0
M  V30 3953 H 357.619 0.24955 -4.15551 0
M  V30 3954 H 358.152 -1.39397 -3.72577 0
M  V30 3955 H 354.891 -4.0139 -5.18234 0
M  V30 3956 H 354.411 -2.33584 -5.52448 0
M  V30 3957 H 356.09 -2.86086 -5.80314 0
M  V30 3958 N 356.222 1.38976 -0.743202 0
M  V30 3959 C 357.132 2.3434 -0.110399 0
M  V30 3960 C 358.148 1.58741 0.712559 0
M  V30 3961 O 359.324 1.9099 0.639125 0
M  V30 3962 C 356.389 3.37812 0.780012 0
M  V30 3963 C 355.45 4.29263 -0.0561319 0
M  V30 3964 C 354.683 5.27793 0.791875 0
M  V30 3965 O 354.906 5.33043 2.03031 0
M  V30 3966 O 353.84 6.01512 0.216183 0
M  V30 3967 H 357.666 2.90129 -0.897714 0
M  V30 3968 H 355.251 1.40643 -0.503966 0
M  V30 3969 H 357.133 4.01194 1.28923 0
M  V30 3970 H 355.808 2.84395 1.546 0
M  V30 3971 H 354.715 3.69076 -0.611056 0
M  V30 3972 H 356.048 4.85907 -0.784531 0
M  V30 3973 N 357.7 0.491464 1.49741 0
M  V30 3974 C 358.63 -0.28154 2.31796 0
M  V30 3975 C 359.611 -0.971473 1.3963 0
M  V30 3976 O 360.796 -0.964719 1.68543 0
M  V30 3977 C 357.926 -1.35203 3.19902 0
M  V30 3978 C 356.88 -0.782529 4.20786 0
M  V30 3979 C 356.206 -1.95283 4.97764 0
M  V30 3980 C 357.506 0.21999 5.21837 0
M  V30 3981 H 359.2 0.403355 2.96671 0
M  V30 3982 H 356.746 0.195425 1.42668 0
M  V30 3983 H 358.699 -1.90045 3.76113 0
M  V30 3984 H 357.423 -2.06598 2.52953 0
M  V30 3985 H 356.082 -0.255928 3.65706 0
M  V30 3986 H 355.73 -2.65423 4.2727 0
M  V30 3987 H 355.43 -1.57789 5.66018 0
M  V30 3988 H 356.954 -2.50577 5.56816 0
M  V30 3989 H 358.368 -0.23996 5.72798 0
M  V30 3990 H 356.765 0.51026 5.97927 0
M  V30 3991 H 357.835 1.13911 4.7133 0
M  V30 3992 N 359.178 -1.55987 0.224894 0
M  V30 3993 C 360.141 -2.19178 -0.670348 0
M  V30 3994 C 361.141 -1.15461 -1.11917 0
M  V30 3995 O 362.331 -1.40675 -1.02743 0
M  V30 3996 C 359.463 -2.81777 -1.9187 0
M  V30 3997 H 360.656 -2.99662 -0.119364 0
M  V30 3998 H 358.209 -1.5628 -0.0247128 0
M  V30 3999 H 358.944 -2.05172 -2.51147 0
M  V30 4000 H 358.729 -3.57732 -1.60531 0
M  V30 4001 H 360.219 -3.30205 -2.55645 0
M  V30 4002 N 360.656 0.0484629 -1.57525 0
M  V30 4003 C 361.619 1.03956 -2.04269 0
M  V30 4004 C 362.619 1.30211 -0.943496 0
M  V30 4005 O 363.809 1.25539 -1.20771 0
M  V30 4006 C 360.941 2.37742 -2.44319 0
M  V30 4007 H 362.134 0.636182 -2.93075 0
M  V30 4008 H 359.687 0.294811 -1.53494 0
M  V30 4009 H 360.422 2.82866 -1.5861 0
M  V30 4010 H 360.207 2.20021 -3.24551 0
M  V30 4011 H 361.697 3.08936 -2.80978 0
M  V30 4012 N 362.134 1.5431 0.320358 0
M  V30 4013 C 363.55 1.45091 0.664889 0
M  V30 4014 C 363.75 0.626382 1.91517 0
M  V30 4015 O 362.806 0.126443 2.52183 0
M  V30 4016 C 364.119 2.88848 0.83591 0
M  V30 4017 C 365.667 2.9877 0.933046 0
M  V30 4018 C 366.142 4.43683 1.13621 0
M  V30 4019 N 367.633 4.47309 1.20287 0
M  V30 4020 C 368.368 5.56595 1.37801 0
M  V30 4021 N 367.864 6.75844 1.52338 0
M  V30 4022 N 369.657 5.44248 1.40535 0
M  V30 4023 H 361.808 2.06398 -0.501374 0
M  V30 4024 H 364.071 0.933963 -0.162534 0
M  V30 4025 H 363.777 3.51698 -0.0116092 0
M  V30 4026 H 363.651 3.35148 1.73078 0
M  V30 4027 H 366.038 2.36045 1.77107 0
M  V30 4028 H 366.119 2.55796 0.0145782 0
M  V30 4029 H 365.763 5.06995 0.303032 0
M  V30 4030 H 365.693 4.84269 2.0686 0
M  V30 4031 H 368.184 3.61388 1.10485 0
M  V30 4032 H 368.497 7.54892 1.65403 0
M  V30 4033 H 366.842 6.78746 1.4943 0
M  V30 4034 H 370.033 4.50038 1.28777 0
M  V30 4035 H 370.206 6.29473 1.53842 0
M  V30 4036 N 363.613 -0.582584 1.46437 0
M  V30 4037 C 364.862 -1.337 1.5102 0
M  V30 4038 C 365.175 -1.94891 0.166359 0
M  V30 4039 O 366.381 -2.71351 0.0899954 0
M  V30 4040 C 364.837 -2.42315 2.66104 0
M  V30 4041 C 364.445 -1.87427 4.06909 0
M  V30 4042 C 366.189 -3.19099 2.79958 0
M  V30 4043 C 364.096 -2.93672 5.13333 0
M  V30 4044 H 363.026 -0.502619 0.562041 0
M  V30 4045 H 365.677 -0.621701 1.72647 0
M  V30 4046 H 364.059 -3.16645 2.37807 0
M  V30 4047 H 365.233 -1.19639 4.44998 0
M  V30 4048 H 363.548 -1.2331 3.97723 0
M  V30 4049 H 366.145 -3.9839 3.56636 0
M  V30 4050 H 366.488 -3.71695 1.87479 0
M  V30 4051 H 367.021 -2.51875 3.07902 0
M  V30 4052 H 363.76 -2.45962 6.07604 0
M  V30 4053 H 363.28 -3.59948 4.79789 0
M  V30 4054 H 364.959 -3.5762 5.39182 0
M  V30 4055 N 365.091 -1.34144 -0.827227 0
M  V30 4056 C 366.321 -1.29138 -1.61267 0
M  V30 4057 C 366.729 0.137597 -1.88699 0
M  V30 4058 O 366.072 1.09379 -1.47587 0
M  V30 4059 C 366.134 -2.0097 -2.9808 0
M  V30 4060 C 365.798 -3.50242 -2.93563 0
M  V30 4061 C 366.795 -4.4523 -2.68452 0
M  V30 4062 C 364.48 -3.92592 -3.13331 0
M  V30 4063 C 366.474 -5.80542 -2.63154 0
M  V30 4064 C 364.161 -5.28005 -3.07658 0
M  V30 4065 C 365.159 -6.21792 -2.82602 0
M  V30 4066 O 364.847 -7.54723 -2.76853 0
M  V30 4067 H 364.579 -0.445851 -0.508127 0
M  V30 4068 H 367.133 -1.77263 -1.03763 0
M  V30 4069 H 365.363 -1.47451 -3.57484 0
M  V30 4070 H 367.052 -1.89309 -3.5905 0
M  V30 4071 H 367.818 -4.13832 -2.52919 0
M  V30 4072 H 363.697 -3.19994 -3.31851 0
M  V30 4073 H 367.241 -6.53717 -2.43516 0
M  V30 4074 H 363.138 -5.59023 -3.22743 0
M  V30 4075 H 363.906 -7.64409 -2.92611 0
M  V30 4076 N 366.569 1.04691 -1.17803 0
M  V30 4077 C 367.818 1.77176 -0.963931 0
M  V30 4078 C 368.131 1.88888 0.508015 0
M  V30 4079 O 369.337 2.58164 0.840465 0
M  V30 4080 C 367.793 3.18518 -1.67555 0
M  V30 4081 C 367.401 3.14919 -3.18637 0
M  V30 4082 C 369.145 3.95424 -1.54402 0
M  V30 4083 C 367.052 4.51081 -3.82466 0
M  V30 4084 H 365.982 0.664116 -0.357023 0
M  V30 4085 H 368.633 1.17303 -1.4111 0
M  V30 4086 H 367.015 3.78748 -1.15613 0
M  V30 4087 H 368.189 2.64178 -3.77554 0
M  V30 4088 H 366.504 2.51512 -3.31859 0
M  V30 4089 H 369.101 4.96106 -1.99456 0
M  V30 4090 H 369.444 4.13343 -0.495329 0
M  V30 4091 H 369.977 3.41754 -2.0359 0
M  V30 4092 H 366.716 4.38368 -4.87354 0
M  V30 4093 H 366.236 5.01951 -3.28337 0
M  V30 4094 H 367.915 5.2001 -3.84965 0
M  V30 4095 N 368.047 0.979072 1.23499 0
M  V30 4096 C 368.957 0.526431 2.28617 0
M  V30 4097 C 369.973 -0.418126 1.68901 0
M  V30 4098 O 371.149 -0.288372 1.99325 0
M  V30 4099 C 368.214 -0.165235 3.46306 0
M  V30 4100 C 367.275 0.82056 4.21385 0
M  V30 4101 C 366.508 0.161807 5.33455 0
M  V30 4102 O 366.731 -1.04742 5.60701 0
M  V30 4103 O 365.665 0.859708 5.95729 0
M  V30 4104 H 369.491 1.4006 2.69475 0
M  V30 4105 H 367.076 0.746643 1.29405 0
M  V30 4106 H 368.958 -0.553287 4.17752 0
M  V30 4107 H 367.633 -1.01419 3.07402 0
M  V30 4108 H 366.54 1.25929 3.52268 0
M  V30 4109 H 367.873 1.63828 4.64135 0
M  V30 4110 N 369.525 -1.3858 0.750561 0
M  V30 4111 C 370.774 -1.99424 0.302172 0
M  V30 4112 C 371.087 -1.60254 -1.12152 0
M  V30 4113 O 372.293 -2.14046 -1.67023 0
M  V30 4114 C 370.749 -3.56558 0.489307 0
M  V30 4115 C 370.357 -4.04682 1.92189 0
M  V30 4116 C 372.101 -4.24374 0.103478 0
M  V30 4117 C 370.008 -5.54446 2.05775 0
M  V30 4118 H 368.938 -0.746046 0.10923 0
M  V30 4119 H 371.589 -1.58383 0.92667 0
M  V30 4120 H 369.971 -3.95472 -0.204329 0
M  V30 4121 H 371.145 -3.77065 2.64875 0
M  V30 4122 H 369.46 -3.4958 2.26236 0
M  V30 4123 H 372.057 -5.34384 0.183787 0
M  V30 4124 H 372.4 -4.05468 -0.943481 0
M  V30 4125 H 372.933 -3.90688 0.748854 0
M  V30 4126 H 369.672 -5.78252 3.08714 0
M  V30 4127 H 369.192 -5.83816 1.37546 0
M  V30 4128 H 370.871 -6.20099 1.84626 0
M  V30 4129 N 371.003 -0.499398 -1.49478 0
M  V30 4130 C 371.933 0.269244 -2.31943 0
M  V30 4131 C 372.914 0.964054 -1.40143 0
M  V30 4132 O 374.099 0.955767 -1.69052 0
M  V30 4133 C 371.229 1.33504 -3.20615 0
M  V30 4134 C 370.183 0.760202 -4.21195 0
M  V30 4135 C 369.509 1.9264 -4.98792 0
M  V30 4136 C 370.809 -0.247661 -5.21712 0
M  V30 4137 H 372.503 -0.419082 -2.96452 0
M  V30 4138 H 370.049 -0.202988 -1.42562 0
M  V30 4139 H 372.002 1.88048 -3.77115 0
M  V30 4140 H 370.726 2.05253 -2.54045 0
M  V30 4141 H 369.385 0.23653 -3.65836 0
M  V30 4142 H 369.033 2.63154 -4.28671 0
M  V30 4143 H 368.733 1.54785 -5.66847 0
M  V30 4144 H 370.257 2.4762 -5.58137 0
M  V30 4145 H 371.671 0.209579 -5.72917 0
M  V30 4146 H 370.068 -0.541962 -5.97648 0
M  V30 4147 H 371.138 -1.16409 -4.7072 0
M  V30 4148 N 372.481 1.55866 -0.233164 0
M  V30 4149 C 373.758 1.90471 0.444988 0
M  V30 4150 C 374.138 1.15209 1.7689 0
M  V30 4151 O 373.486 0.265119 2.26957 0
M  V30 4152 C 373.696 3.4333 0.626559 0
M  V30 4153 C 375.044 4.14319 0.92871 0
M  V30 4154 O 376.068 3.48993 0.712926 0
M  V30 4155 O 374.927 5.29846 1.33887 0
M  V30 4156 H 372.021 0.792347 0.236885 0
M  V30 4157 H 374.567 1.67437 -0.276211 0
M  V30 4158 H 373.339 3.90095 -0.306822 0
M  V30 4159 H 372.962 3.72181 1.39881 0
M  V30 4160 N 373.959 -0.0401083 1.57549 0
M  V30 4161 C 374.869 -1.06133 2.0922 0
M  V30 4162 C 375.885 -1.40356 1.0284 0
M  V30 4163 O 377.061 -1.49897 1.34509 0
M  V30 4164 C 374.126 -2.34658 2.55218 0
M  V30 4165 C 373.187 -2.07117 3.76033 0
M  V30 4166 C 372.42 -3.29514 4.19829 0
M  V30 4167 O 372.643 -4.39794 3.63232 0
M  V30 4168 O 371.577 -3.15863 5.12362 0
M  V30 4169 H 375.403 -0.652244 2.96613 0
M  V30 4170 H 372.988 -0.256368 1.47184 0
M  V30 4171 H 374.87 -3.10239 2.85184 0
M  V30 4172 H 373.545 -2.74883 1.70941 0
M  V30 4173 H 372.452 -1.29139 3.51104 0
M  V30 4174 H 373.785 -1.71754 4.61261 0
M  V30 4175 N 375.437 -1.54477 -0.31217 0
M  V30 4176 C 376.683 -1.73483 -1.0503 0
M  V30 4177 C 377.016 -0.513125 -1.87298 0
M  V30 4178 O 376.291 0.489864 -1.8823 0
M  V30 4179 C 376.574 -3.01723 -1.96558 0
M  V30 4180 C 376.427 -4.3417 -1.17545 0
M  V30 4181 C 377.746 -3.25772 -2.95907 0
M  V30 4182 H 374.865 -0.631222 -0.380432 0
M  V30 4183 H 377.507 -1.87184 -0.325932 0
M  V30 4184 H 375.657 -2.90174 -2.58324 0
M  V30 4185 H 377.329 -4.5762 -0.581513 0
M  V30 4186 H 375.572 -4.31159 -0.477925 0
M  V30 4187 H 376.243 -5.20143 -1.84811 0
M  V30 4188 H 378.719 -3.36857 -2.44267 0
M  V30 4189 H 377.595 -4.16838 -3.57123 0
M  V30 4190 H 377.856 -2.43537 -3.68974 0
M  V30 4191 N 376.915 0.57481 -1.46744 0
M  V30 4192 C 378.331 0.898981 -1.31873 0
M  V30 4193 C 378.531 1.99313 -0.29605 0
M  V30 4194 O 377.587 2.50728 0.298621 0
M  V30 4195 C 378.9 1.30886 -2.7072 0
M  V30 4196 C 380.448 1.42127 -2.78871 0
M  V30 4197 C 380.923 1.86478 -4.18318 0
M  V30 4198 N 382.414 1.93658 -4.20774 0
M  V30 4199 C 383.149 2.29267 -5.2557 0
M  V30 4200 N 382.645 2.63612 -6.40688 0
M  V30 4201 N 384.438 2.29889 -5.1294 0
M  V30 4202 H 376.589 -0.147839 -2.11885 0
M  V30 4203 H 378.852 -0.00347013 -0.947994 0
M  V30 4204 H 378.558 0.578853 -3.46904 0
M  V30 4205 H 378.432 2.26874 -3.01343 0
M  V30 4206 H 380.819 2.14213 -2.0297 0
M  V30 4207 H 380.9 0.443705 -2.51922 0
M  V30 4208 H 380.544 1.14968 -4.94717 0
M  V30 4209 H 380.474 2.85207 -4.42679 0
M  V30 4210 H 382.965 1.69574 -3.37718 0
M  V30 4211 H 383.278 2.89759 -7.16421 0
M  V30 4212 H 381.623 2.61232 -6.44036 0
M  V30 4213 H 384.814 2.02485 -4.22039 0
M  V30 4214 H 384.987 2.57312 -5.94722 0
M  V30 4215 N 378.394 1.34581 0.820102 0
M  V30 4216 C 379.326 1.22236 1.93884 0
M  V30 4217 C 380.339 0.148776 1.62119 0
M  V30 4218 O 381.528 0.400877 1.7394 0
M  V30 4219 C 378.628 0.856542 3.27897 0
M  V30 4220 C 377.801 2.02569 3.87666 0
M  V30 4221 C 376.86 1.63782 5.00062 0
M  V30 4222 O 375.886 2.35477 5.18208 0
M  V30 4223 N 377.088 0.553611 5.77854 0
M  V30 4224 H 379.853 2.18615 2.05006 0
M  V30 4225 H 377.414 1.27573 0.99683 0
M  V30 4226 H 379.406 0.578806 4.0054 0
M  V30 4227 H 377.976 -0.0171518 3.12595 0
M  V30 4228 H 377.196 2.468 3.07382 0
M  V30 4229 H 378.484 2.80752 4.24329 0
M  V30 4230 H 377.882 -0.0423528 5.65684 0
M  V30 4231 H 376.439 0.335614 6.50935 0
M  V30 4232 N 379.872 -1.04064 1.18357 0
M  V30 4233 C 380.835 -2.10243 0.912707 0
M  V30 4234 C 381.835 -1.60477 -0.101928 0
M  V30 4235 O 383.025 -1.73703 0.131517 0
M  V30 4236 C 380.157 -3.38893 0.369387 0
M  V30 4237 H 381.35 -2.35706 1.85426 0
M  V30 4238 H 378.903 -1.20489 0.995594 0
M  V30 4239 H 379.638 -3.19094 -0.578776 0
M  V30 4240 H 379.423 -3.76331 1.1008 0
M  V30 4241 H 380.913 -4.17128 0.198575 0
M  V30 4242 N 381.35 -0.985608 -1.22978 0
M  V30 4243 C 382.298 -0.522631 -2.26652 0
M  V30 4244 C 383.292 0.422998 -1.64034 0
M  V30 4245 O 384.498 0.296319 -1.77544 0
M  V30 4246 H 380.873 -0.150597 -0.736766 0
M  V30 4247 H 382.844 -1.40863 -2.63059 0
M  V30 4248 C 381.593 0.154238 -3.47358 0
M  V30 4249 H 380.916 -0.564329 -3.95797 0
M  V30 4250 H 382.356 0.441744 -4.21693 0
M  V30 4251 C 380.815 1.38719 -3.07016 0
M  V30 4252 O 381.345 2.48307 -3.15764 0
M  V30 4253 N 379.551 1.25975 -2.61875 0
M  V30 4254 H 379.098 0.368068 -2.54957 0
M  V30 4255 H 379.056 2.08578 -2.3525 0
M  V30 4256 N 382.828 1.3818 -0.7579 0
M  V30 4257 C 384.058 2.04004 -0.326463 0
M  V30 4258 C 384.466 1.57286 1.05156 0
M  V30 4259 O 383.809 0.743144 1.67997 0
M  V30 4260 C 383.871 3.58444 -0.275402 0
M  V30 4261 C 383.535 4.28237 -1.59569 0
M  V30 4262 C 384.532 4.53312 -2.54566 0
M  V30 4263 C 382.217 4.66341 -1.86631 0
M  V30 4264 C 384.211 5.15531 -3.74842 0
M  V30 4265 C 381.898 5.28283 -3.0718 0
M  V30 4266 C 382.896 5.52814 -4.01106 0
M  V30 4267 O 382.584 6.13465 -5.19534 0
M  V30 4268 H 382.316 0.662026 -0.136739 0
M  V30 4269 H 384.87 1.7777 -1.02893 0
M  V30 4270 H 383.1 3.83667 0.483337 0
M  V30 4271 H 384.789 4.05701 0.127099 0
M  V30 4272 H 385.555 4.24299 -2.34936 0
M  V30 4273 H 381.434 4.46591 -1.14358 0
M  V30 4274 H 384.978 5.34594 -4.48168 0
M  V30 4275 H 380.875 5.56719 -3.26702 0
M  V30 4276 H 381.643 6.31951 -5.20173 0
M  V30 4277 N 384.306 0.507319 1.49211 0
M  V30 4278 C 385.534 -0.0315749 2.06876 0
M  V30 4279 C 385.949 -1.30241 1.36685 0
M  V30 4280 O 385.306 -1.76937 0.447152 0
M  V30 4281 C 385.357 -0.282627 3.60393 0
M  V30 4282 O 385.078 0.937835 4.27944 0
M  V30 4283 C 386.579 -0.864453 4.3479 0
M  V30 4284 H 383.799 0.0233048 0.670595 0
M  V30 4285 H 386.343 0.706484 1.91909 0
M  V30 4286 H 384.498 -0.97068 3.75042 0
M  V30 4287 H 384.912 0.704567 5.19746 0
M  V30 4288 H 386.386 -0.989664 5.43056 0
M  V30 4289 H 386.863 -1.86382 3.97692 0
M  V30 4290 H 387.469 -0.213672 4.24763 0
M  V30 4291 N 385.784 -1.5574 0.241426 0
M  V30 4292 C 386.714 -2.24133 -0.654722 0
M  V30 4293 C 387.695 -1.21974 -1.1856 0
M  V30 4294 O 388.88 -1.50612 -1.22595 0
M  V30 4295 C 386.01 -2.93659 -1.85423 0
M  V30 4296 C 384.964 -4.0246 -1.45636 0
M  V30 4297 C 384.29 -4.59383 -2.73626 0
M  V30 4298 C 385.59 -5.18468 -0.631506 0
M  V30 4299 H 387.284 -2.99281 -0.0844353 0
M  V30 4300 H 384.83 -1.43947 -0.0391707 0
M  V30 4301 H 386.783 -3.40203 -2.48676 0
M  V30 4302 H 385.507 -2.15991 -2.44981 0
M  V30 4303 H 384.166 -3.56676 -0.847202 0
M  V30 4304 H 383.814 -3.78422 -3.3137 0
M  V30 4305 H 383.514 -5.32826 -2.4773 0
M  V30 4306 H 385.038 -5.08658 -3.37786 0
M  V30 4307 H 386.452 -5.61272 -1.1682 0
M  V30 4308 H 384.849 -5.98266 -0.468831 0
M  V30 4309 H 385.919 -4.8358 0.357506 0
M  V30 4310 N 387.262 0.0317525 -1.57568 0
M  V30 4311 C 388.212 1.04101 -2.02847 0
M  V30 4312 C 389.196 1.3219 -0.917317 0
M  V30 4313 O 390.388 1.31819 -1.18121 0
M  V30 4314 C 387.517 2.34295 -2.5092 0
M  V30 4315 C 386.603 2.09308 -3.68851 0
M  V30 4316 N 386.994 1.5437 -4.81667 0
M  V30 4317 C 385.292 2.39604 -3.76172 0
M  V30 4318 C 385.993 1.45126 -5.63306 0
M  V30 4319 N 384.969 1.92589 -5.08341 0
M  V30 4320 H 388.771 0.610217 -2.87495 0
M  V30 4321 H 386.285 0.238108 -1.60645 0
M  V30 4322 H 388.282 3.07404 -2.81617 0
M  V30 4323 H 386.942 2.78055 -1.67677 0
M  V30 4324 H 387.953 1.22678 -5.03161 0
M  V30 4325 H 384.63 2.86457 -3.03724 0
M  V30 4326 H 386.02 1.03163 -6.63933 0
M  V30 4327 N 388.74 1.54641 0.303973 0
M  V30 4328 C 389.65 1.88439 1.39743 0
M  V30 4329 C 390.666 0.778239 1.55626 0
M  V30 4330 O 391.842 1.07442 1.70347 0
M  V30 4331 C 388.907 2.12212 2.74166 0
M  V30 4332 C 387.968 3.35936 2.67293 0
M  V30 4333 C 387.201 3.58566 3.95305 0
M  V30 4334 O 387.424 2.84263 4.9452 0
M  V30 4335 O 386.358 4.52078 3.97378 0
M  V30 4336 H 390.184 2.81458 1.14083 0
M  V30 4337 H 387.769 1.40793 0.499768 0
M  V30 4338 H 389.651 2.29067 3.53704 0
M  V30 4339 H 388.326 1.22379 2.99675 0
M  V30 4340 H 387.233 3.24448 1.86237 0
M  V30 4341 H 388.566 4.2589 2.46736 0
M  V30 4342 N 390.218 -0.567019 1.47046 0
M  V30 4343 C 391.634 -0.891975 1.32348 0
M  V30 4344 C 391.834 -1.99154 0.306616 0
M  V30 4345 O 390.89 -2.50883 -0.28532 0
M  V30 4346 C 392.203 -1.29449 2.7141 0
M  V30 4347 C 393.751 -1.40646 2.79621 0
M  V30 4348 C 394.226 -1.84257 4.19301 0
M  V30 4349 N 395.717 -1.91424 4.21795 0
M  V30 4350 C 396.452 -2.26476 5.26779 0
M  V30 4351 N 395.948 -2.60211 6.42077 0
M  V30 4352 N 397.741 -2.27166 5.14152 0
M  V30 4353 H 389.892 0.159074 2.11803 0
M  V30 4354 H 392.155 0.00849752 0.947962 0
M  V30 4355 H 391.861 -0.560448 3.47206 0
M  V30 4356 H 391.735 -2.25273 3.02542 0
M  V30 4357 H 394.122 -2.13133 2.04104 0
M  V30 4358 H 394.203 -0.430339 2.52154 0
M  V30 4359 H 393.847 -1.12343 4.95319 0
M  V30 4360 H 393.777 -2.82855 4.44185 0
M  V30 4361 H 396.268 -1.6778 3.38612 0
M  V30 4362 H 396.581 -2.85956 7.17948 0
M  V30 4363 H 394.926 -2.57813 6.45413 0
M  V30 4364 H 398.117 -2.00244 4.23107 0
M  V30 4365 H 398.29 -2.54154 5.96079 0
M  V30 4366 N 391.696 -1.35014 -0.812953 0
M  V30 4367 C 392.942 -1.2812 -1.57204 0
M  V30 4368 C 393.275 0.145869 -1.93651 0
M  V30 4369 O 392.55 1.0937 -1.60836 0
M  V30 4370 C 392.833 -2.18162 -2.86492 0
M  V30 4371 C 392.686 -3.69454 -2.56561 0
M  V30 4372 C 394.005 -2.07439 -3.88145 0
M  V30 4373 H 391.124 -0.466746 -0.570366 0
M  V30 4374 H 393.766 -1.65357 -0.935783 0
M  V30 4375 H 391.916 -1.86535 -3.40789 0
M  V30 4376 H 393.588 -4.11493 -2.08497 0
M  V30 4377 H 391.831 -3.9005 -1.89851 0
M  V30 4378 H 392.502 -4.27835 -3.48799 0
M  V30 4379 H 394.978 -2.35228 -3.4323 0
M  V30 4380 H 393.854 -2.7265 -4.76396 0
M  V30 4381 H 394.115 -1.05439 -4.29343 0
M  V30 4382 N 393.175 1.03435 -1.18907 0
M  V30 4383 C 394.422 1.76743 -0.988334 0
M  V30 4384 C 394.75 1.88447 0.481441 0
M  V30 4385 O 394.005 1.39383 1.37371 0
M  V30 4386 C 394.304 3.19792 -1.59586 0
M  V30 4387 C 393.97 3.28108 -3.09283 0
M  V30 4388 C 392.632 3.30084 -3.5014 0
M  V30 4389 C 394.984 3.27696 -4.05296 0
M  V30 4390 C 392.312 3.29299 -4.85571 0
M  V30 4391 C 394.664 3.28451 -5.4065 0
M  V30 4392 C 393.328 3.28723 -5.80946 0
M  V30 4393 H 392.598 0.64675 -0.361657 0
M  V30 4394 H 395.245 1.21442 -1.48068 0
M  V30 4395 H 393.55 3.78136 -1.02568 0
M  V30 4396 H 395.247 3.75171 -1.41589 0
M  V30 4397 H 391.837 3.27294 -2.76725 0
M  V30 4398 H 396.021 3.25354 -3.74778 0
M  V30 4399 H 391.277 3.2783 -5.16079 0
M  V30 4400 H 395.451 3.27082 -6.14809 0
M  V30 4401 H 393.078 3.27868 -6.85862 0
M  V30 4402 N 394.653 0.992116 1.22453 0
M  V30 4403 C 395.899 0.668523 1.91464 0
M  V30 4404 C 396.232 -0.797313 1.77078 0
M  V30 4405 O 395.507 -1.5765 1.13916 0
M  V30 4406 C 395.79 1.07424 3.43703 0
M  V30 4407 C 395.643 2.59857 3.67143 0
M  V30 4408 C 396.962 0.626891 4.35612 0
M  V30 4409 H 394.081 0.244341 0.695318 0
M  V30 4410 H 396.723 1.2355 1.44345 0
M  V30 4411 H 394.873 0.591816 3.83966 0
M  V30 4412 H 396.545 3.15764 3.3629 0
M  V30 4413 H 394.788 3.01961 3.11451 0
M  V30 4414 H 395.459 2.83296 4.73759 0
M  V30 4415 H 397.935 1.04125 4.02861 0
M  V30 4416 H 396.811 0.939076 5.40807 0
M  V30 4417 H 397.072 -0.472457 4.39568 0
M  V30 4418 N 396.131 -1.37776 0.765217 0
M  V30 4419 C 397.041 -2.34135 0.147666 0
M  V30 4420 C 398.057 -1.59854 -0.687215 0
M  V30 4421 O 399.233 -1.91983 -0.608659 0
M  V30 4422 C 396.298 -3.3901 -0.72617 0
M  V30 4423 C 395.359 -4.2912 0.124417 0
M  V30 4424 C 394.592 -5.28986 -0.707807 0
M  V30 4425 O 394.815 -5.36205 -1.94525 0
M  V30 4426 O 393.749 -6.01779 -0.12046 0
M  V30 4427 H 397.575 -2.88664 0.943758 0
M  V30 4428 H 395.16 -1.39824 0.526277 0
M  V30 4429 H 397.042 -4.03195 -1.22524 0
M  V30 4430 H 395.717 -2.86819 -1.50056 0
M  V30 4431 H 394.624 -3.68057 0.669696 0
M  V30 4432 H 395.957 -4.84598 0.861736 0
M  V30 4433 N 397.609 -0.515225 -1.4894 0
M  V30 4434 C 398.556 0.255567 -2.29381 0
M  V30 4435 C 399.526 0.947387 -1.36432 0
M  V30 4436 O 400.711 0.951288 -1.65394 0
M  V30 4437 C 397.851 1.30551 -3.19453 0
M  V30 4438 C 396.964 0.624029 -4.27469 0
M  V30 4439 C 396.099 1.65563 -5.0474 0
M  V30 4440 C 395.138 0.956802 -6.04576 0
M  V30 4441 N 394.275 1.93326 -6.74959 0
M  V30 4442 H 399.115 -0.436607 -2.94784 0
M  V30 4443 H 396.652 -0.227154 -1.45336 0
M  V30 4444 H 398.61 1.92639 -3.70062 0
M  V30 4445 H 397.24 1.96626 -2.56004 0
M  V30 4446 H 396.292 -0.110459 -3.8024 0
M  V30 4447 H 397.604 0.0746092 -4.98744 0
M  V30 4448 H 396.758 2.35119 -5.59289 0
M  V30 4449 H 395.497 2.23893 -4.3327 0
M  V30 4450 H 394.502 0.247097 -5.49244 0
M  V30 4451 H 395.727 0.379814 -6.78037 0
M  V30 4452 H 393.673 2.50591 -6.06251 0
M  V30 4453 H 393.59 1.43489 -7.42258 0
M  V30 4454 H 394.858 2.62126 -7.34105 0
M  V30 4455 N 399.087 1.5561 -0.249682 0
M  V30 4456 C 400.503 1.59254 0.105103 0
M  V30 4457 C 400.703 1.26685 1.56694 0
M  V30 4458 O 399.759 1.0155 2.31179 0
M  V30 4459 C 401.072 2.99687 -0.246592 0
M  V30 4460 C 402.62 3.12416 -0.191118 0
M  V30 4461 C 403.095 4.55074 -0.516885 0
M  V30 4462 N 404.586 4.60835 -0.467489 0
M  V30 4463 C 405.321 5.69201 -0.69268 0
M  V30 4464 N 404.817 6.85817 -0.981146 0
M  V30 4465 N 406.61 5.58635 -0.623198 0
M  V30 4466 H 398.761 1.75049 -1.20298 0
M  V30 4467 H 401.024 0.815003 -0.484225 0
M  V30 4468 H 400.73 3.28267 -1.26228 0
M  V30 4469 H 400.604 3.74798 0.424962 0
M  V30 4470 H 402.991 2.83615 0.815247 0
M  V30 4471 H 403.072 2.39573 -0.896563 0
M  V30 4472 H 402.716 4.84596 -1.52082 0
M  V30 4473 H 402.646 5.26181 0.210068 0
M  V30 4474 H 405.137 3.7705 -0.253373 0
M  V30 4475 H 405.45 7.64341 -1.14032 0
M  V30 4476 H 403.795 6.87494 -1.01865 0
M  V30 4477 H 406.986 4.66406 -0.397863 0
M  V30 4478 H 407.159 6.43017 -0.802093 0
M  V30 4479 N 400.565 -0.0233959 1.57583 0
M  V30 4480 C 401.512 -1.02224 2.06927 0
M  V30 4481 C 402.482 -1.35575 0.959617 0
M  V30 4482 O 403.667 -1.45815 1.23055 0
M  V30 4483 C 400.807 -2.31636 2.5581 0
M  V30 4484 C 399.92 -2.04394 3.80588 0
M  V30 4485 C 399.055 -3.27717 4.18061 0
M  V30 4486 C 398.094 -2.96056 5.3574 0
M  V30 4487 N 397.231 -4.11847 5.68618 0
M  V30 4488 H 402.071 -0.594504 2.9201 0
M  V30 4489 H 399.608 -0.281921 1.44373 0
M  V30 4490 H 401.566 -3.07258 2.82221 0
M  V30 4491 H 400.196 -2.72122 1.73636 0
M  V30 4492 H 399.248 -1.19244 3.61227 0
M  V30 4493 H 400.56 -1.77042 4.66323 0
M  V30 4494 H 399.714 -4.11702 4.4563 0
M  V30 4495 H 398.453 -3.58188 3.30988 0
M  V30 4496 H 397.458 -2.10474 5.07918 0
M  V30 4497 H 398.683 -2.66857 6.24471 0
M  V30 4498 H 396.629 -4.42258 4.84504 0
M  V30 4499 H 396.546 -3.87938 6.48876 0
M  V30 4500 H 397.814 -4.96689 6.00766 0
M  V30 4501 N 402.043 -1.548 -0.295768 0
M  V30 4502 C 402.99 -1.86113 -1.36494 0
M  V30 4503 C 403.96 -0.7105 -1.50137 0
M  V30 4504 O 405.145 -0.959626 -1.64912 0
M  V30 4505 C 402.285 -2.11861 -2.72413 0
M  V30 4506 C 401.398 -3.39471 -2.67177 0
M  V30 4507 C 400.533 -3.55035 -3.95125 0
M  V30 4508 C 399.572 -4.76418 -3.84308 0
M  V30 4509 N 398.709 -4.8876 -5.04042 0
M  V30 4510 H 403.549 -2.77314 -1.09091 0
M  V30 4511 H 401.086 -1.37315 -0.52753 0
M  V30 4512 H 403.044 -2.24786 -3.51464 0
M  V30 4513 H 401.674 -1.2392 -2.98066 0
M  V30 4514 H 400.726 -3.35139 -1.79962 0
M  V30 4515 H 402.038 -4.28646 -2.55076 0
M  V30 4516 H 401.192 -3.67653 -4.82614 0
M  V30 4517 H 399.931 -2.64002 -4.10066 0
M  V30 4518 H 398.936 -4.63827 -2.95202 0
M  V30 4519 H 400.161 -5.68863 -3.70906 0
M  V30 4520 H 398.107 -4.00652 -5.19436 0
M  V30 4521 H 398.024 -5.71945 -4.94384 0
M  V30 4522 H 399.292 -5.0574 -5.93167 0
M  V30 4523 N 403.521 0.559213 -1.47345 0
M  V30 4524 C 404.484 1.64854 -1.59235 0
M  V30 4525 C 405.484 1.53851 -0.467607 0
M  V30 4526 O 406.674 1.58045 -0.732617 0
M  V30 4527 C 403.806 3.04388 -1.53496 0
M  V30 4528 H 404.999 1.55662 -2.56339 0
M  V30 4529 H 402.552 0.778973 -1.35505 0
M  V30 4530 H 403.287 3.19115 -0.577604 0
M  V30 4531 H 403.072 3.13783 -2.35123 0
M  V30 4532 H 404.562 3.83642 -1.6495 0
M  V30 4533 N 404.999 1.35443 0.805782 0
M  V30 4534 C 405.946 1.28431 1.91766 0
M  V30 4535 C 406.916 0.156102 1.65365 0
M  V30 4536 O 408.101 0.339936 1.87747 0
M  V30 4537 C 405.241 1.06301 3.2832 0
M  V30 4538 C 404.354 2.2805 3.66902 0
M  V30 4539 C 403.489 1.99064 4.92491 0
M  V30 4540 C 402.528 3.16863 5.23703 0
M  V30 4541 N 401.665 2.87647 6.40471 0
M  V30 4542 H 406.505 2.23511 1.97096 0
M  V30 4543 H 404.042 1.11105 0.964054 0
M  V30 4544 H 406 0.915012 4.07042 0
M  V30 4545 H 404.63 0.148822 3.22457 0
M  V30 4546 H 403.682 2.53711 2.83434 0
M  V30 4547 H 404.994 3.1601 3.85927 0
M  V30 4548 H 404.148 1.81099 5.7904 0
M  V30 4549 H 402.887 1.0839 4.75503 0
M  V30 4550 H 401.892 3.35404 4.35642 0
M  V30 4551 H 403.117 4.08339 5.4262 0
M  V30 4552 H 401.063 1.99568 6.24907 0
M  V30 4553 H 400.98 3.69141 6.59751 0
M  V30 4554 H 402.248 2.73226 7.30047 0
M  V30 4555 N 406.477 -1.02803 1.19454 0
M  V30 4556 C 407.407 -2.12999 0.956758 0
M  V30 4557 C 408.388 -1.69743 -0.110188 0
M  V30 4558 O 409.573 -1.94148 0.0450038 0
M  V30 4559 C 406.703 -3.43746 0.495553 0
M  V30 4560 C 405.657 -4.00688 1.50443 0
M  V30 4561 C 404.983 -5.27067 0.900275 0
M  V30 4562 C 406.283 -4.35397 2.8849 0
M  V30 4563 H 407.977 -2.33148 1.87836 0
M  V30 4564 H 405.523 -1.12045 0.904539 0
M  V30 4565 H 407.476 -4.2021 0.316493 0
M  V30 4566 H 406.2 -3.23321 -0.461646 0
M  V30 4567 H 404.859 -3.2632 1.67065 0
M  V30 4568 H 404.507 -5.02959 -0.064503 0
M  V30 4569 H 404.207 -5.66127 1.57397 0
M  V30 4570 H 405.731 -6.06196 0.73203 0
M  V30 4571 H 407.145 -5.02795 2.75446 0
M  V30 4572 H 405.542 -4.85541 3.52661 0
M  V30 4573 H 406.612 -3.44662 3.41081 0
M  V30 4574 N 407.956 -0.998596 -1.21925 0
M  V30 4575 C 409.203 -0.677663 -1.90824 0
M  V30 4576 C 409.531 0.790905 -1.77693 0
M  V30 4577 O 408.786 1.58817 -1.14349 0
M  V30 4578 C 409.085 -1.03648 -3.42041 0
M  V30 4579 C 408.751 -2.49825 -3.75364 0
M  V30 4580 C 407.413 -2.8977 -3.8417 0
M  V30 4581 C 409.765 -3.44545 -3.91073 0
M  V30 4582 C 407.093 -4.23412 -4.06127 0
M  V30 4583 C 409.445 -4.77853 -4.14535 0
M  V30 4584 C 408.109 -5.17531 -4.21566 0
M  V30 4585 H 407.379 -0.247975 -0.698276 0
M  V30 4586 H 410.026 -1.25584 -1.44571 0
M  V30 4587 H 408.331 -0.376457 -3.89987 0
M  V30 4588 H 410.028 -0.766113 -3.93614 0
M  V30 4589 H 406.618 -2.17866 -3.69097 0
M  V30 4590 H 410.802 -3.14853 -3.83642 0
M  V30 4591 H 406.058 -4.53734 -4.09799 0
M  V30 4592 H 410.232 -5.51189 -4.25633 0
M  V30 4593 H 407.859 -6.21102 -4.38333 0
M  V30 4594 N 409.434 1.37368 -0.772513 0
M  V30 4595 C 410.384 2.27613 -0.132823 0
M  V30 4596 C 411.368 1.46138 0.673247 0
M  V30 4597 O 412.56 1.68686 0.536095 0
M  V30 4598 C 409.689 3.35122 0.744864 0
M  V30 4599 C 408.775 4.24044 -0.0690771 0
M  V30 4600 N 409.166 4.93355 -1.1151 0
M  V30 4601 C 407.464 4.45731 0.154782 0
M  V30 4602 C 408.165 5.59 -1.60917 0
M  V30 4603 N 407.141 5.35737 -0.921222 0
M  V30 4604 H 410.943 2.78675 -0.933681 0
M  V30 4605 H 408.457 1.50494 -0.610342 0
M  V30 4606 H 410.454 3.98683 1.21892 0
M  V30 4607 H 409.114 2.85616 1.54446 0
M  V30 4608 H 410.125 4.95785 -1.49726 0
M  V30 4609 H 406.802 4.07096 0.926224 0
M  V30 4610 H 408.192 6.24395 -2.48153 0
M  V30 4611 N 410.912 0.523116 1.48665 0
M  V30 4612 C 411.822 -0.247406 2.33292 0
M  V30 4613 C 412.838 -0.945769 1.46052 0
M  V30 4614 O 414.014 -0.922253 1.79043 0
M  V30 4615 C 411.079 -1.28487 3.22012 0
M  V30 4616 C 410.14 -0.597592 4.2512 0
M  V30 4617 C 409.373 -1.58563 5.09601 0
M  V30 4618 O 409.596 -2.81763 4.95949 0
M  V30 4619 O 408.53 -1.12879 5.91221 0
M  V30 4620 H 412.356 0.445869 3.00409 0
M  V30 4621 H 409.941 0.284128 1.46673 0
M  V30 4622 H 411.823 -1.88459 3.7691 0
M  V30 4623 H 410.498 -1.96068 2.57564 0
M  V30 4624 H 409.405 0.0424407 3.74076 0
M  V30 4625 H 410.738 0.0361517 4.92187 0
M  V30 4626 N 412.39 -1.55475 0.257931 0
M  V30 4627 C 413.639 -1.98383 -0.364275 0
M  V30 4628 C 413.952 -1.14952 -1.58258 0
M  V30 4629 O 415.158 -1.47924 -2.27664 0
M  V30 4630 C 413.614 -3.53037 -0.699479 0
M  V30 4631 C 413.222 -4.45223 0.498046 0
M  V30 4632 C 414.966 -4.04575 -1.28526 0
M  V30 4633 C 412.873 -5.91238 0.138383 0
M  V30 4634 H 411.803 -0.740911 -0.13988 0
M  V30 4635 H 414.454 -1.79936 0.359883 0
M  V30 4636 H 412.836 -3.6722 -1.48207 0
M  V30 4637 H 414.01 -4.42803 1.27522 0
M  V30 4638 H 412.325 -4.04226 0.999503 0
M  V30 4639 H 414.922 -5.11196 -1.56788 0
M  V30 4640 H 415.265 -3.5258 -2.21344 0
M  V30 4641 H 415.798 -3.93762 -0.565337 0
M  V30 4642 H 412.537 -6.47294 1.03398 0
M  V30 4643 H 412.057 -5.96768 -0.602374 0
M  V30 4644 H 413.736 -6.46413 -0.27553 0
M  V30 4645 N 413.868 0.0150385 -1.57593 0
M  V30 4646 C 414.816 1.02958 -2.08572 0
M  V30 4647 C 415.81 1.36554 -1.00246 0
M  V30 4648 O 417.016 1.35295 -1.18724 0
M  V30 4649 H 413.391 0.349619 -0.665786 0
M  V30 4650 H 415.362 0.573932 -2.92829 0
M  V30 4651 C 414.111 2.31752 -2.59203 0
M  V30 4652 H 413.434 2.06765 -3.42182 0
M  V30 4653 H 414.874 3.01053 -2.98568 0
M  V30 4654 C 413.333 3.01692 -1.49945 0
M  V30 4655 O 413.863 3.92083 -0.873704 0
M  V30 4656 N 412.069 2.6326 -1.23056 0
M  V30 4657 H 411.616 1.89838 -1.74125 0
M  V30 4658 H 411.574 3.10372 -0.501685 0
M  V30 4659 N 415.346 1.54954 0.287554 0
M  V30 4660 C 416.571 1.79209 1.04397 0
M  V30 4661 C 416.996 0.556431 1.79682 0
M  V30 4662 O 416.354 -0.493518 1.74454 0
M  V30 4663 C 416.402 3.00739 1.98969 0
M  V30 4664 O 415.506 2.74805 3.075 0
M  V30 4665 H 414.847 0.592755 0.299227 0
M  V30 4666 H 417.377 2.02068 0.320886 0
M  V30 4667 H 417.387 3.29077 2.4119 0
M  V30 4668 H 416.062 3.90329 1.43582 0
M  V30 4669 H 414.639 2.57523 2.69697 0
M  V30 4670 N 416.824 -0.551391 1.4764 0
M  V30 4671 C 417.771 -1.65796 1.60563 0
M  V30 4672 C 418.741 -1.59932 0.448428 0
M  V30 4673 O 419.926 -1.78679 0.669222 0
M  V30 4674 C 417.066 -3.04108 1.63133 0
M  V30 4675 C 416.179 -3.20365 2.89811 0
M  V30 4676 C 415.314 -4.49109 2.8368 0
M  V30 4677 C 414.353 -4.58819 4.05156 0
M  V30 4678 N 413.49 -5.78926 3.97227 0
M  V30 4679 H 418.33 -1.54088 2.5507 0
M  V30 4680 H 415.867 -0.75052 1.26513 0
M  V30 4681 H 417.825 -3.84207 1.62606 0
M  V30 4682 H 416.455 -3.14637 0.721341 0
M  V30 4683 H 415.507 -2.33659 3.00179 0
M  V30 4684 H 416.819 -3.23402 3.79753 0
M  V30 4685 H 415.973 -5.37475 2.81434 0
M  V30 4686 H 414.712 -4.4856 1.91431 0
M  V30 4687 H 413.717 -3.68864 4.077 0
M  V30 4688 H 414.942 -4.61124 4.98539 0
M  V30 4689 H 412.888 -5.79314 3.07785 0
M  V30 4690 H 412.805 -5.83367 4.80853 0
M  V30 4691 H 414.073 -6.69637 3.99007 0
M  V30 4692 N 418.302 -1.35869 -0.798587 0
M  V30 4693 C 419.532 -1.32529 -1.58491 0
M  V30 4694 C 419.94 0.0975405 -1.88948 0
M  V30 4695 O 419.283 1.06224 -1.49874 0
M  V30 4696 C 419.345 -2.07247 -2.9375 0
M  V30 4697 C 419.009 -3.56391 -2.86068 0
M  V30 4698 C 420.006 -4.50824 -2.58947 0
M  V30 4699 C 417.691 -3.9915 -3.04933 0
M  V30 4700 C 419.685 -5.85993 -2.5078 0
M  V30 4701 C 417.372 -5.34413 -2.96389 0
M  V30 4702 C 418.37 -6.27646 -2.69349 0
M  V30 4703 O 418.058 -7.60426 -2.60782 0
M  V30 4704 H 417.79 -0.456529 -0.498556 0
M  V30 4705 H 420.344 -1.79425 -0.999799 0
M  V30 4706 H 418.574 -1.55001 -3.54276 0
M  V30 4707 H 420.263 -1.96883 -3.54954 0
M  V30 4708 H 421.029 -4.19104 -2.44084 0
M  V30 4709 H 416.908 -3.26961 -3.24989 0
M  V30 4710 H 420.452 -6.58735 -2.29595 0
M  V30 4711 H 416.349 -5.65743 -3.10813 0
M  V30 4712 H 417.117 -7.70444 -2.76331 0
M  V30 4713 N 419.78 1.02168 -1.19998 0
M  V30 4714 C 420.73 2.08969 -0.911921 0
M  V30 4715 C 421.714 1.60404 0.12621 0
M  V30 4716 O 422.906 1.76817 -0.0804706 0
M  V30 4717 C 420.035 3.402 -0.460277 0
M  V30 4718 C 419.121 3.9548 -1.53155 0
M  V30 4719 N 419.512 4.24332 -2.75275 0
M  V30 4720 C 417.81 4.23572 -1.39653 0
M  V30 4721 C 418.511 4.68834 -3.44339 0
M  V30 4722 N 417.487 4.70804 -2.71744 0
M  V30 4723 H 421.289 2.29178 -1.83997 0
M  V30 4724 H 418.803 1.20094 -1.09322 0
M  V30 4725 H 420.8 4.16235 -0.235337 0
M  V30 4726 H 419.46 3.21408 0.4612 0
M  V30 4727 H 420.471 4.13393 -3.11973 0
M  V30 4728 H 417.148 4.14005 -0.539067 0
M  V30 4729 H 418.538 5.00019 -4.4881 0
M  V30 4730 N 421.258 1.00505 1.21394 0
M  V30 4731 C 422.674 0.717873 1.42544 0
M  V30 4732 C 422.874 -0.706936 1.88692 0
M  V30 4733 O 421.93 -1.47627 2.04847 0
M  V30 4734 C 423.243 1.73377 2.45684 0
M  V30 4735 C 424.791 1.75059 2.59467 0
M  V30 4736 C 425.266 2.75545 3.6584 0
M  V30 4737 N 426.757 2.74213 3.73311 0
M  V30 4738 C 427.492 3.48626 4.55245 0
M  V30 4739 N 426.988 4.32678 5.41075 0
M  V30 4740 N 428.781 3.37276 4.49668 0
M  V30 4741 H 420.932 1.92506 0.897503 0
M  V30 4742 H 423.195 0.830919 0.456375 0
M  V30 4743 H 422.901 2.75395 2.18748 0
M  V30 4744 H 422.775 1.53647 3.44489 0
M  V30 4745 H 425.162 0.737337 2.8574 0
M  V30 4746 H 425.243 1.98861 1.60897 0
M  V30 4747 H 424.887 3.77028 3.40313 0
M  V30 4748 H 424.817 2.49009 4.64007 0
M  V30 4749 H 427.308 2.13234 3.11993 0
M  V30 4750 H 427.621 4.86253 6.00648 0
M  V30 4751 H 425.966 4.3676 5.40616 0
M  V30 4752 H 429.157 2.71043 3.81646 0
M  V30 4753 H 429.33 3.95524 5.13288 0
M  V30 4754 N 422.737 -1.36956 0.779787 0
M  V30 4755 C 423.986 -1.98738 0.344405 0
M  V30 4756 C 424.299 -1.62596 -1.08728 0
M  V30 4757 O 425.505 -2.1754 -1.62445 0
M  V30 4758 C 423.961 -3.5544 0.564829 0
M  V30 4759 C 423.569 -4.00514 2.0073 0
M  V30 4760 C 425.313 -4.24059 0.193471 0
M  V30 4761 C 423.22 -5.49957 2.17489 0
M  V30 4762 H 422.15 -0.743561 0.12503 0
M  V30 4763 H 424.801 -1.56381 0.960057 0
M  V30 4764 H 423.183 -3.95817 -0.120397 0
M  V30 4765 H 424.357 -3.71362 2.72814 0
M  V30 4766 H 422.672 -3.44703 2.336 0
M  V30 4767 H 425.269 -5.33874 0.297097 0
M  V30 4768 H 425.612 -4.07378 -0.857263 0
M  V30 4769 H 426.145 -3.89012 0.831556 0
M  V30 4770 H 422.884 -5.71574 3.2091 0
M  V30 4771 H 422.404 -5.80767 1.49899 0
M  V30 4772 H 424.083 -6.16043 1.97738 0
M  V30 4773 O 424.254 -0.672348 -1.46839 0
M  V30 4774 H 424.945 -0.203759 -1.92625 0
M  V30 END ATOM
M  V30 BEGIN BOND
M  V30 END BOND
M  V30 END CTAB
M  END
$$$$
