drugbank_target|Q9Y6H6 Potassium voltage-gated channel subfamily E member 3 (DB00228; DB01069; DB01110)
 OpenBabel12092121213D

  0  0  0     0  0            999 V3000
M  V30 BEGIN CTAB
M  V30 COUNTS 1644 1662 0 0 0
M  V30 BEGIN ATOM
M  V30 1 H -0.908 1.98254 -0.117106 0
M  V30 2 N 0 1.576 0 0
M  V30 3 C 0.933 2.03868 1.02534 0
M  V30 4 C 1.911 0.928543 1.3348 0
M  V30 5 O 3.095 1.19667 1.45644 0
M  V30 6 C 0.222 2.43627 2.35294 0
M  V30 7 C -0.732 3.65373 2.2001 0
M  V30 8 S 0.101 5.13292 1.52614 0
M  V30 9 C 1.257 5.56322 2.86805 0
M  V30 10 H 1.49 2.90518 0.631377 0
M  V30 11 H -0.977 1.52953 0.210867 0
M  V30 12 H 0.981 2.67203 3.11629 0
M  V30 13 H -0.358 1.57376 2.7183 0
M  V30 14 H -1.165 3.90944 3.18086 0
M  V30 15 H -1.563 3.418 1.51819 0
M  V30 16 H 0.729 5.58782 3.83104 0
M  V30 17 H 1.672 6.56266 2.65933 0
M  V30 18 H 2.08 4.83886 2.90714 0
M  V30 19 N 1.4781 -0.272755 1.55222 0
M  V30 20 C 2.3881 -1.35918 1.91216 0
M  V30 21 C 3.4041 -1.54026 0.809436 0
M  V30 22 O 4.5801 -1.68148 1.10852 0
M  V30 23 C 1.6451 -2.69834 2.17693 0
M  V30 24 C 0.7061 -2.6047 3.41253 0
M  V30 25 C -0.0609 -3.88 3.66458 0
M  V30 26 O 0.1621 -4.88693 2.94169 0
M  V30 27 O -0.9039 -3.88189 4.59992 0
M  V30 28 H 2.9221 -1.0839 2.83699 0
M  V30 29 H 0.5071 -0.471301 1.41771 0
M  V30 30 H 2.3891 -3.49017 2.36147 0
M  V30 31 H 1.0641 -2.97148 1.28392 0
M  V30 32 H -0.0289 -1.79663 3.28134 0
M  V30 33 H 1.3041 -2.38106 4.30774 0
M  V30 34 N 2.9562 -1.48159 -0.537278 0
M  V30 35 C 4.1842 -1.59454 -1.31841 0
M  V30 36 C 4.5992 -0.252065 -1.8711 0
M  V30 37 O 3.9562 0.757621 -1.66031 0
M  V30 38 C 4.0072 -2.63546 -2.47439 0
M  V30 39 O 3.7282 -3.92583 -1.94449 0
M  V30 40 C 5.2292 -2.85212 -3.39366 0
M  V30 41 H 2.4492 -0.53785 -0.401196 0
M  V30 42 H 4.9932 -1.93932 -0.648891 0
M  V30 43 H 3.1482 -2.31946 -3.1029 0
M  V30 44 H 3.5622 -4.49629 -2.70063 0
M  V30 45 H 5.0362 -3.61863 -4.16844 0
M  V30 46 H 5.5132 -1.93765 -3.94147 0
M  V30 47 H 6.1192 -3.18086 -2.82314 0
M  V30 48 N 4.4343 0.785586 -1.36625 0
M  V30 49 C 5.6623 1.57448 -1.3423 0
M  V30 50 C 6.0773 1.88649 0.0755653 0
M  V30 51 O 5.4343 1.50414 1.03354 0
M  V30 52 C 5.4853 2.89316 -2.16745 0
M  V30 53 O 5.2063 2.59459 -3.53005 0
M  V30 54 C 6.7073 3.83606 -2.22174 0
M  V30 55 H 3.9273 0.488226 -0.4603 0
M  V30 56 H 6.4713 0.974733 -1.79775 0
M  V30 57 H 4.6263 3.4575 -1.74745 0
M  V30 58 H 5.0403 3.43804 -3.96105 0
M  V30 59 H 6.5143 4.73181 -2.8426 0
M  V30 60 H 6.9913 4.21734 -1.22627 0
M  V30 61 H 7.5973 3.33104 -2.64427 0
M  V30 62 N 5.9124 1.20967 1.01018 0
M  V30 63 C 6.8604 0.961223 2.1181 0
M  V30 64 C 7.8544 -0.0897034 1.69162 0
M  V30 65 O 9.0604 0.0612271 1.79896 0
M  V30 66 H 5.4354 0.29355 0.692338 0
M  V30 67 H 7.4064 1.90178 2.29946 0
M  V30 68 C 6.1554 0.536854 3.4353 0
M  V30 69 H 5.4784 1.33713 3.76777 0
M  V30 70 H 6.9184 0.402286 4.22087 0
M  V30 71 C 5.3774 -0.751574 3.2841 0
M  V30 72 O 5.9074 -1.80841 3.58691 0
M  V30 73 N 4.1134 -0.716079 2.81639 0
M  V30 74 H 3.6604 0.144236 2.57196 0
M  V30 75 H 3.6184 -1.57847 2.71904 0
M  V30 76 N 7.3905 -1.2043 1.01659 0
M  V30 77 C 8.6385 -1.89423 0.704522 0
M  V30 78 C 8.9595 -1.79231 -0.768197 0
M  V30 79 O 8.2295 -1.1947 -1.55254 0
M  V30 80 H 6.8095 -0.701178 0.257602 0
M  V30 81 H 9.4715 -1.4626 1.28818 0
M  V30 82 H 8.5675 -2.96052 0.987916 0
M  V30 83 N 8.8686 -0.792821 -1.36206 0
M  V30 84 C 10.0966 -0.378825 -2.03402 0
M  V30 85 C 10.5116 1.00586 -1.59774 0
M  V30 86 O 9.8686 1.64574 -0.788764 0
M  V30 87 C 9.9196 -0.43683 -3.58851 0
M  V30 88 O 9.6406 -1.76691 -4.00889 0
M  V30 89 C 11.1416 -0.0138943 -4.43298 0
M  V30 90 H 8.3616 -0.155673 -0.652692 0
M  V30 91 H 10.9056 -1.07261 -1.74113 0
M  V30 92 H 9.0606 0.208575 -3.86838 0
M  V30 93 H 9.4746 -1.72011 -4.95492 0
M  V30 94 H 10.9486 -0.105615 -5.51899 0
M  V30 95 H 11.4256 1.03915 -4.2673 0
M  V30 96 H 12.0316 -0.63192 -4.20579 0
M  V30 97 N 10.3467 1.47872 -0.545128 0
M  V30 98 C 11.2567 2.33633 0.212746 0
M  V30 99 C 12.2727 1.4744 0.923983 0
M  V30 100 O 13.4487 1.80393 0.895572 0
M  V30 101 C 10.5137 3.23884 1.23693 0
M  V30 102 C 9.5747 4.25961 0.534417 0
M  V30 103 C 8.8077 5.11899 1.5098 0
M  V30 104 O 9.0307 5.00077 2.7437 0
M  V30 105 O 7.9647 5.92831 1.0409 0
M  V30 106 H 11.7907 2.99714 -0.490416 0
M  V30 107 H 9.3757 1.46235 -0.305871 0
M  V30 108 H 11.2577 3.79666 1.82843 0
M  V30 109 H 9.9327 2.60446 1.92222 0
M  V30 110 H 8.8397 3.73972 -0.0979679 0
M  V30 111 H 10.1727 4.92079 -0.109213 0
M  V30 112 N 11.8248 0.280983 1.55075 0
M  V30 113 C 13.0528 -0.337293 2.04132 0
M  V30 114 C 13.4678 -1.4903 1.15912 0
M  V30 115 O 12.8248 -1.81606 0.180459 0
M  V30 116 C 12.8758 -0.812706 3.52246 0
M  V30 117 O 12.5968 0.294387 4.3711 0
M  V30 118 C 14.0978 -1.4982 4.17216 0
M  V30 119 H 11.3178 -0.0761638 0.666663 0
M  V30 120 H 13.8618 0.414787 2.00249 0
M  V30 121 H 12.0168 -1.51486 3.56554 0
M  V30 122 H 12.4308 -0.0721325 5.2445 0
M  V30 123 H 13.9048 -1.7822 5.22438 0
M  V30 124 H 14.3818 -2.43168 3.65741 0
M  V30 125 H 14.9878 -0.839742 4.16927 0
M  V30 126 N 13.3029 -1.57598 0.00835791 0
M  V30 127 C 14.5489 -1.92046 -0.670055 0
M  V30 128 C 14.9039 -0.88351 -1.70915 0
M  V30 129 O 14.1969 0.103223 -1.91322 0
M  V30 130 C 14.3909 -3.3101 -1.34787 0
M  V30 131 C 14.2199 -4.48126 -0.375945 0
M  V30 132 C 12.9899 -5.05297 0.0166914 0
M  V30 133 C 15.1879 -5.1303 0.361272 0
M  V30 134 N 13.1699 -6.05931 0.985952 0
M  V30 135 C 14.5409 -6.08571 1.18495 0
M  V30 136 C 16.5959 -4.9609 0.42421 0
M  V30 137 C 15.2989 -6.88996 2.06584 0
M  V30 138 C 17.3249 -5.77107 1.29236 0
M  V30 139 C 16.6869 -6.72248 2.10386 0
M  V30 140 H 12.7859 -0.75096 -0.218136 0
M  V30 141 H 15.3699 -1.94572 0.0706669 0
M  V30 142 H 13.5409 -3.29342 -2.05884 0
M  V30 143 H 15.2729 -3.52864 -1.98164 0
M  V30 144 H 12.0279 -4.72279 -0.353435 0
M  V30 145 H 12.4519 -6.60932 1.4662 0
M  V30 146 H 17.0939 -4.22378 -0.188915 0
M  V30 147 H 14.8119 -7.62028 2.6896 0
M  V30 148 H 18.3979 -5.66038 1.34508 0
M  V30 149 H 17.2779 -7.33846 2.76476 0
M  V30 150 N 14.781 0.264519 -1.55364 0
M  V30 151 C 16.011 1.01153 -1.80143 0
M  V30 152 C 16.419 1.80115 -0.579253 0
M  V30 153 O 15.762 1.77813 0.46132 0
M  V30 154 C 15.824 2.01098 -2.97993 0
M  V30 155 C 15.488 1.40995 -4.34706 0
M  V30 156 C 16.485 0.821316 -5.13372 0
M  V30 157 C 14.17 1.43461 -4.81378 0
M  V30 158 C 16.164 0.265339 -6.36847 0
M  V30 159 C 13.851 0.874771 -6.04807 0
M  V30 160 C 14.849 0.291146 -6.82379 0
M  V30 161 O 14.537 -0.260093 -8.03479 0
M  V30 162 H 14.269 0.304125 -0.603725 0
M  V30 163 H 16.823 0.298089 -2.03225 0
M  V30 164 H 15.053 2.76224 -2.70623 0
M  V30 165 H 16.742 2.61997 -3.1002 0
M  V30 166 H 17.508 0.794903 -4.78442 0
M  V30 167 H 13.387 1.87826 -4.21002 0
M  V30 168 H 16.931 -0.190837 -6.97339 0
M  V30 169 H 12.828 0.898452 -6.39217 0
M  V30 170 H 13.596 -0.150265 -8.18362 0
M  V30 171 N 16.2591 1.48442 0.529413 0
M  V30 172 C 17.1691 1.6569 1.66084 0
M  V30 173 C 18.1851 0.539432 1.65427 0
M  V30 174 O 19.3611 0.810572 1.84368 0
M  V30 175 C 16.4261 1.69315 3.02545 0
M  V30 176 C 15.4871 2.92694 3.14052 0
M  V30 177 C 14.7201 2.96137 4.44003 0
M  V30 178 O 14.9431 2.07973 5.31134 0
M  V30 179 O 13.8771 3.88312 4.59888 0
M  V30 180 H 17.7031 2.61483 1.54469 0
M  V30 181 H 15.2881 1.3185 0.702567 0
M  V30 182 H 17.1701 1.74217 3.83701 0
M  V30 183 H 15.8451 0.766966 3.14483 0
M  V30 184 H 14.7521 2.93324 2.32189 0
M  V30 185 H 16.0851 3.84699 3.0703 0
M  V30 186 N 17.7372 -0.778329 1.37039 0
M  V30 187 C 18.9622 -1.57248 1.35233 0
M  V30 188 C 19.3872 -1.87999 -0.0615568 0
M  V30 189 O 18.7452 -1.48734 -1.03672 0
M  V30 190 C 18.7932 -2.86353 2.19167 0
M  V30 191 O 17.8972 -3.80442 1.59178 0
M  V30 192 H 17.2382 -0.476569 0.462362 0
M  V30 193 H 19.7682 -0.963853 1.80474 0
M  V30 194 H 19.7782 -3.35519 2.32145 0
M  V30 195 H 18.4532 -2.63299 3.21942 0
M  V30 196 H 17.0302 -3.39067 1.55203 0
M  V30 197 N 19.2153 -1.21501 -1.00376 0
M  V30 198 C 20.1453 -0.999478 -2.11028 0
M  V30 199 C 21.1263 0.0759671 -1.6993 0
M  V30 200 O 22.3113 -0.0841106 -1.94018 0
M  V30 201 C 19.4413 -0.564709 -3.42678 0
M  V30 202 C 18.3953 -1.58486 -3.97576 0
M  V30 203 C 17.7213 -1.00628 -5.25146 0
M  V30 204 C 19.0213 -2.97204 -4.29496 0
M  V30 205 H 20.7153 -1.92495 -2.29317 0
M  V30 206 H 18.2613 -0.92693 -1.102 0
M  V30 207 H 20.2143 -0.401091 -4.19487 0
M  V30 208 H 18.9383 0.396411 -3.24185 0
M  V30 209 H 17.5973 -1.73606 -3.22888 0
M  V30 210 H 17.2453 -0.0368439 -5.02987 0
M  V30 211 H 16.9453 -1.68771 -5.62841 0
M  V30 212 H 18.4693 -0.854015 -6.04598 0
M  V30 213 H 19.8833 -2.8552 -4.97143 0
M  V30 214 H 18.2803 -3.62372 -4.78338 0
M  V30 215 H 19.3503 -3.47956 -3.3772 0
M  V30 216 N 20.6934 1.19889 -1.02296 0
M  V30 217 C 21.6434 2.20777 -0.56934 0
M  V30 218 C 22.6274 1.56379 0.378741 0
M  V30 219 O 23.8194 1.75859 0.200673 0
M  V30 220 C 20.9484 3.43196 0.0845077 0
M  V30 221 C 20.0344 4.14749 -0.88566 0
M  V30 222 N 20.4254 4.62584 -2.04573 0
M  V30 223 C 18.7234 4.40347 -0.707835 0
M  V30 224 C 19.4244 5.17466 -2.65714 0
M  V30 225 N 18.4004 5.0791 -1.93723 0
M  V30 226 H 22.2024 2.55434 -1.45365 0
M  V30 227 H 19.7164 1.35897 -0.88915 0
M  V30 228 H 21.7134 4.14707 0.427067 0
M  V30 229 H 20.3734 3.10042 0.964574 0
M  V30 230 H 21.3844 4.57597 -2.4254 0
M  V30 231 H 18.0614 4.17317 0.12364 0
M  V30 232 H 19.4514 5.64808 -3.63925 0
M  V30 233 N 22.1715 0.800033 1.35784 0
M  V30 234 C 23.1345 0.211565 2.28221 0
M  V30 235 C 24.1345 -0.59728 1.49296 0
M  V30 236 O 25.3245 -0.416721 1.69142 0
M  V30 237 C 22.4565 -0.705846 3.33513 0
M  V30 238 H 23.6495 1.02677 2.81776 0
M  V30 239 H 21.2025 0.570211 1.45528 0
M  V30 240 H 21.9375 -1.54498 2.85133 0
M  V30 241 H 21.7225 -0.127655 3.91892 0
M  V30 242 H 23.2125 -1.11211 4.02519 0
M  V30 243 N 23.6496 -1.47581 0.552962 0
M  V30 244 C 24.8956 -2.02782 0.0273648 0
M  V30 245 C 25.2286 -1.42687 -1.31734 0
M  V30 246 O 24.5036 -0.580897 -1.85623 0
M  V30 247 C 24.7866 -3.60031 -0.0702371 0
M  V30 248 C 24.6396 -4.30566 1.30126 0
M  V30 249 C 25.9586 -4.33028 -0.785771 0
M  V30 250 H 23.0776 -0.736912 0.0114185 0
M  V30 251 H 25.7196 -1.76056 0.714432 0
M  V30 252 H 23.8696 -3.82932 -0.655382 0
M  V30 253 H 25.5416 -4.19018 1.92929 0
M  V30 254 H 23.7846 -3.91086 1.87709 0
M  V30 255 H 24.4556 -5.39114 1.18573 0
M  V30 256 H 26.9316 -4.15095 -0.288982 0
M  V30 257 H 25.8076 -5.42695 -0.823013 0
M  V30 258 H 26.0686 -4.01945 -1.841 0
M  V30 259 N 25.1277 -0.289203 -1.54924 0
M  V30 260 C 26.0577 0.58549 -2.2604 0
M  V30 261 C 27.0387 1.14753 -1.25562 0
M  V30 262 O 28.2237 1.17906 -1.54311 0
M  V30 263 C 25.3537 1.76305 -2.99222 0
M  V30 264 C 24.3077 1.33191 -4.06748 0
M  V30 265 C 23.6337 2.5937 -4.6758 0
M  V30 266 C 24.9337 0.471775 -5.20165 0
M  V30 267 H 26.6277 -0.00763532 -2.99399 0
M  V30 268 H 24.1737 -0.00511229 -1.43999 0
M  V30 269 H 26.1267 2.38097 -3.47689 0
M  V30 270 H 24.8507 2.38223 -2.23422 0
M  V30 271 H 23.5097 0.737121 -3.59113 0
M  V30 272 H 23.1577 3.19576 -3.88433 0
M  V30 273 H 22.8577 2.31228 -5.40192 0
M  V30 274 H 24.3817 3.21985 -5.18804 0
M  V30 275 H 25.7957 0.995056 -5.64599 0
M  V30 276 H 24.1927 0.284639 -5.99425 0
M  V30 277 H 25.2627 -0.506041 -4.82252 0
M  V30 278 N 26.6058 1.57591 -0.0167156 0
M  V30 279 C 27.5528 2.09462 0.969251 0
M  V30 280 C 28.5228 0.99381 1.33089 0
M  V30 281 O 29.7078 1.26726 1.42636 0
M  V30 282 C 26.8478 2.61622 2.25051 0
M  V30 283 C 25.9608 3.85666 1.94642 0
M  V30 284 C 25.0958 4.26266 3.16972 0
M  V30 285 C 24.1348 5.43101 2.82326 0
M  V30 286 N 23.2718 5.78915 3.97243 0
M  V30 287 H 28.1118 2.93428 0.519997 0
M  V30 288 H 25.6488 1.45044 0.245087 0
M  V30 289 H 27.6068 2.89949 2.99976 0
M  V30 290 H 26.2368 1.80505 2.67615 0
M  V30 291 H 25.2888 3.64145 1.10013 0
M  V30 292 H 26.6008 4.70678 1.65117 0
M  V30 293 H 25.7548 4.55963 4.00228 0
M  V30 294 H 24.4938 3.39996 3.49648 0
M  V30 295 H 23.4988 5.1311 1.97479 0
M  V30 296 H 24.7238 6.3106 2.50879 0
M  V30 297 H 22.6698 4.95602 4.29785 0
M  V30 298 H 22.5868 6.58539 3.71299 0
M  V30 299 H 23.8548 6.13212 4.81239 0
M  V30 300 N 28.0839 -0.256276 1.55502 0
M  V30 301 C 29.0469 -1.30047 1.88734 0
M  V30 302 C 30.0469 -1.4154 0.763086 0
M  V30 303 O 31.2369 -1.40403 1.03115 0
M  V30 304 C 28.3689 -2.67953 2.10747 0
M  V30 305 H 29.5619 -1.01802 2.82093 0
M  V30 306 H 27.1149 -0.495134 1.4825 0
M  V30 307 H 27.8499 -3.01351 1.19825 0
M  V30 308 H 27.6349 -2.60993 2.92617 0
M  V30 309 H 29.1249 -3.43368 2.37673 0
M  V30 310 N 29.562 -1.4872 -0.521534 0
M  V30 311 C 30.492 -1.66771 -1.63431 0
M  V30 312 C 31.473 -0.516499 -1.62069 0
M  V30 313 O 32.658 -0.750013 -1.79132 0
M  V30 314 C 29.788 -1.71515 -3.01993 0
M  V30 315 C 28.742 -2.86222 -3.18216 0
M  V30 316 C 28.068 -2.76061 -4.57924 0
M  V30 317 C 29.368 -4.27419 -3.00184 0
M  V30 318 H 31.062 -2.59932 -1.48579 0
M  V30 319 H 28.608 -1.25089 -0.713358 0
M  V30 320 H 30.561 -1.82731 -3.7972 0
M  V30 321 H 29.285 -0.749393 -3.17886 0
M  V30 322 H 27.944 -2.74575 -2.42908 0
M  V30 323 H 27.592 -1.77437 -4.70665 0
M  V30 324 H 27.292 -3.53037 -4.69722 0
M  V30 325 H 28.816 -2.89256 -5.37739 0
M  V30 326 H 30.23 -4.39855 -3.67697 0
M  V30 327 H 28.627 -5.05458 -3.2347 0
M  V30 328 H 29.697 -4.43293 -1.96518 0
M  V30 329 N 31.0401 0.771051 -1.3745 0
M  V30 330 C 31.9881 1.90574 -1.33358 0
M  V30 331 C 32.9821 1.67936 -0.22224 0
M  V30 332 O 34.1881 1.75717 -0.390304 0
M  V30 333 H 30.5631 0.626714 -0.415612 0
M  V30 334 H 32.5341 1.91142 -2.29144 0
M  V30 335 C 31.2831 3.27845 -1.15813 0
M  V30 336 H 30.6061 3.45842 -2.00583 0
M  V30 337 H 32.0461 4.07538 -1.17 0
M  V30 338 C 30.5051 3.36625 0.136165 0
M  V30 339 O 31.0351 3.85785 1.11949 0
M  V30 340 N 29.2411 2.89997 0.187099 0
M  V30 341 H 28.7881 2.50182 -0.613753 0
M  V30 342 H 28.7461 2.96252 1.05272 0
M  V30 343 N 32.5182 1.22032 0.997298 0
M  V30 344 C 33.4812 0.987909 2.06816 0
M  V30 345 C 34.4812 -0.0440084 1.6074 0
M  V30 346 O 35.6712 0.194053 1.73116 0
M  V30 347 C 32.8032 0.49132 3.37341 0
M  V30 348 H 33.9962 1.93803 2.28868 0
M  V30 349 H 31.5492 1.03838 1.16822 0
M  V30 350 H 32.2842 -0.463364 3.20973 0
M  V30 351 H 32.0692 1.23575 3.72118 0
M  V30 352 H 33.5592 0.348824 4.16141 0
M  V30 353 N 33.9963 -1.19345 1.0293 0
M  V30 354 C 35.2243 -1.92997 0.745644 0
M  V30 355 C 35.6393 -1.75519 -0.695589 0
M  V30 356 O 34.9963 -1.07737 -1.47306 0
M  V30 357 C 35.0473 -3.44741 1.08792 0
M  V30 358 O 34.7683 -3.61658 2.47256 0
M  V30 359 C 36.2693 -4.35515 0.827129 0
M  V30 360 H 33.4893 -0.613042 0.272801 0
M  V30 361 H 36.0333 -1.51473 1.3739 0
M  V30 362 H 34.1883 -3.84097 0.504832 0
M  V30 363 H 34.6023 -4.55514 2.60015 0
M  V30 364 H 36.0763 -5.40589 1.11658 0
M  V30 365 H 36.5533 -4.38552 -0.238436 0
M  V30 366 H 37.1593 -4.01841 1.39297 0
M  V30 367 N 35.4744 -0.807222 -1.35358 0
M  V30 368 C 36.4044 -0.232509 -2.3234 0
M  V30 369 C 37.3854 0.642386 -1.57504 0
M  V30 370 O 38.5704 0.572526 -1.85569 0
M  V30 371 C 35.7004 0.619238 -3.41735 0
M  V30 372 C 34.6544 -0.157215 -4.27711 0
M  V30 373 C 33.9804 0.816273 -5.28433 0
M  V30 374 C 35.2804 -1.35656 -5.04376 0
M  V30 375 H 36.9744 -1.04276 -2.80654 0
M  V30 376 H 34.5204 -0.50288 -1.34934 0
M  V30 377 H 36.4734 1.03137 -4.08584 0
M  V30 378 H 35.1974 1.46239 -2.92031 0
M  V30 379 H 33.8564 -0.550525 -3.62443 0
M  V30 380 H 33.5044 1.65494 -4.74996 0
M  V30 381 H 33.2044 0.301067 -5.86828 0
M  V30 382 H 34.7284 1.22659 -5.98153 0
M  V30 383 H 36.1424 -1.01927 -5.64166 0
M  V30 384 H 34.5394 -1.8063 -5.7227 0
M  V30 385 H 35.6094 -2.14288 -4.34981 0
M  V30 386 N 36.9525 1.47285 -0.560781 0
M  V30 387 C 37.9025 2.27073 0.205384 0
M  V30 388 C 38.8865 1.34569 0.882044 0
M  V30 389 O 40.0785 1.58899 0.77976 0
M  V30 390 C 37.2075 3.20414 1.23247 0
M  V30 391 C 36.2935 4.20399 0.559041 0
M  V30 392 N 36.6845 5.04423 -0.372927 0
M  V30 393 C 34.9825 4.38536 0.812522 0
M  V30 394 C 35.6835 5.76655 -0.764446 0
M  V30 395 N 34.6595 5.43471 -0.11848 0
M  V30 396 H 38.4615 2.89422 -0.511117 0
M  V30 397 H 35.9755 1.57868 -0.380975 0
M  V30 398 H 37.9725 3.76262 1.79534 0
M  V30 399 H 36.6325 2.59623 1.95002 0
M  V30 400 H 37.6435 5.1248 -0.747287 0
M  V30 401 H 34.3205 3.88913 1.51832 0
M  V30 402 H 35.7105 6.54238 -1.53045 0
M  V30 403 N 38.4306 0.297415 1.54768 0
M  V30 404 C 39.6556 -0.318435 2.04941 0
M  V30 405 C 40.0806 -1.4701 1.17345 0
M  V30 406 O 39.4386 -1.80436 0.176758 0
M  V30 407 C 39.4866 -0.755749 3.52592 0
M  V30 408 O 38.5906 -1.86088 3.68028 0
M  V30 409 H 37.9316 -0.062421 0.661059 0
M  V30 410 H 40.4616 0.438215 1.99852 0
M  V30 411 H 40.4716 -1.04552 3.94376 0
M  V30 412 H 39.1466 0.0867233 4.1581 0
M  V30 413 H 37.7236 -1.57193 3.38149 0
M  V30 414 N 39.9087 -1.5758 0.0250728 0
M  V30 415 C 40.8567 -2.11125 -0.97617 0
M  V30 416 C 41.8507 -1.03689 -1.33959 0
M  V30 417 O 43.0567 -1.22128 -1.3223 0
M  V30 418 H 39.4317 -0.674468 -0.332561 0
M  V30 419 H 41.4027 -2.94194 -0.499223 0
M  V30 420 C 40.1517 -2.65017 -2.2508 0
M  V30 421 H 39.4747 -3.47333 -1.9799 0
M  V30 422 H 40.9147 -3.06133 -2.93357 0
M  V30 423 C 39.3737 -1.57574 -2.97779 0
M  V30 424 O 39.9037 -0.973203 -3.89733 0
M  V30 425 N 38.1097 -1.29716 -2.60043 0
M  V30 426 H 37.6567 -1.789 -1.85345 0
M  V30 427 H 37.6147 -0.58051 -3.08994 0
M  V30 428 N 41.3868 0.248026 -1.55636 0
M  V30 429 C 42.3168 1.31079 -1.93237 0
M  V30 430 C 43.2978 1.50264 -0.797174 0
M  V30 431 O 44.4828 1.62891 -1.05737 0
M  V30 432 C 41.6128 2.66575 -2.22609 0
M  V30 433 C 40.5668 2.62087 -3.3837 0
M  V30 434 C 39.8928 4.01369 -3.53281 0
M  V30 435 C 41.1928 2.19171 -4.7409 0
M  V30 436 H 42.8868 0.998556 -2.82257 0
M  V30 437 H 40.4328 0.47891 -1.35803 0
M  V30 438 H 42.3858 3.41057 -2.47503 0
M  V30 439 H 41.1098 2.99432 -1.30414 0
M  V30 440 H 39.7688 1.90063 -3.13483 0
M  V30 441 H 39.4168 4.31489 -2.58508 0
M  V30 442 H 39.1168 3.99254 -4.31127 0
M  V30 443 H 40.6408 4.77552 -3.80495 0
M  V30 444 H 42.0548 2.83384 -4.98363 0
M  V30 445 H 40.4518 2.2817 -5.5503 0
M  V30 446 H 41.5218 1.14336 -4.71227 0
M  V30 447 N 42.8649 1.48995 0.513639 0
M  V30 448 C 43.7949 1.67636 1.62544 0
M  V30 449 C 44.7759 0.525087 1.61793 0
M  V30 450 O 45.9609 0.759502 1.78732 0
M  V30 451 C 43.0909 1.73114 3.01079 0
M  V30 452 C 42.0449 2.87905 3.16693 0
M  V30 453 C 41.3709 2.78486 4.56453 0
M  V30 454 C 42.6709 4.29005 2.97913 0
M  V30 455 H 44.3649 2.60716 1.47198 0
M  V30 456 H 41.9109 1.25465 0.706714 0
M  V30 457 H 43.8639 1.84742 3.78746 0
M  V30 458 H 42.5879 0.766241 3.17484 0
M  V30 459 H 41.2469 2.75859 2.41448 0
M  V30 460 H 40.8949 1.7993 4.69717 0
M  V30 461 H 40.5949 3.55523 4.67843 0
M  V30 462 H 42.1189 2.92104 5.36197 0
M  V30 463 H 43.5329 4.41798 3.65359 0
M  V30 464 H 41.9299 5.07166 3.20785 0
M  V30 465 H 42.9999 4.44329 1.94165 0
M  V30 466 N 44.343 -0.763751 1.37857 0
M  V30 467 C 45.583 -1.53551 1.34913 0
M  V30 468 C 45.947 -1.91895 -0.0635882 0
M  V30 469 O 47.148 -2.67916 -0.217825 0
M  V30 470 C 45.419 -2.76126 2.26912 0
M  V30 471 S 46.978 -3.66105 2.41893 0
M  V30 472 H 43.796 -0.52559 0.478828 0
M  V30 473 H 46.398 -0.897435 1.73685 0
M  V30 474 H 45.102 -2.4605 3.28463 0
M  V30 475 H 44.633 -3.44887 1.89253 0
M  V30 476 H 46.648 -4.68473 1.63545 0
M  V30 477 N 45.8211 -1.22559 -0.990812 0
M  V30 478 C 47.2371 -0.985996 -1.255 0
M  V30 479 C 47.4371 0.319173 -1.98956 0
M  V30 480 O 46.4931 1.04127 -2.3003 0
M  V30 481 C 47.8061 -2.18607 -2.06474 0
M  V30 482 C 49.3541 -2.22985 -2.19651 0
M  V30 483 C 49.8291 -3.4255 -3.04012 0
M  V30 484 N 51.3201 -3.42725 -3.11599 0
M  V30 485 C 52.0551 -4.31892 -3.7717 0
M  V30 486 N 51.5511 -5.31279 -4.44651 0
M  V30 487 N 53.3441 -4.19662 -3.73952 0
M  V30 488 H 45.4951 -2.06469 -0.49841 0
M  V30 489 H 47.7581 -0.904853 -0.282747 0
M  V30 490 H 47.4641 -3.13267 -1.59865 0
M  V30 491 H 47.3381 -2.18838 -3.07229 0
M  V30 492 H 49.7251 -1.28871 -2.65474 0
M  V30 493 H 49.8061 -2.26791 -1.18319 0
M  V30 494 H 49.4501 -4.36965 -2.58889 0
M  V30 495 H 49.3801 -3.35984 -4.0549 0
M  V30 496 H 51.8711 -2.70807 -2.63575 0
M  V30 497 H 52.1841 -5.95593 -4.92431 0
M  V30 498 H 50.5291 -5.3519 -4.43392 0
M  V30 499 H 53.7201 -3.41268 -3.20396 0
M  V30 500 H 53.8931 -4.89358 -4.24774 0
M  V30 501 N 47.2992 1.18797 -1.03562 0
M  V30 502 C 48.7102 1.70322 -0.764676 0
M  V30 503 C 49.0612 1.82708 0.714996 0
M  V30 504 O 48.1862 1.50299 1.55689 0
M  V30 505 C 48.7812 3.09356 -1.38145 0
M  V30 506 C 47.3402 3.58114 -1.15895 0
M  V30 507 C 46.4872 2.34798 -1.4753 0
M  V30 508 H 49.4382 1.03543 -1.20268 0
M  V30 509 H 49.4592 3.72378 -0.781977 0
M  V30 510 H 48.9712 3.00309 -2.45837 0
M  V30 511 H 47.0722 3.72464 -0.100544 0
M  V30 512 H 47.1852 4.4184 -1.8524 0
M  V30 513 H 45.5492 2.38464 -0.894829 0
M  V30 514 H 46.3322 2.28375 -2.56319 0
M  V30 515 N 48.7773 0.814389 1.34928 0
M  V30 516 C 50.0253 0.397636 1.9815 0
M  V30 517 C 50.3463 -1.04069 1.64908 0
M  V30 518 O 49.6163 -1.72121 0.93548 0
M  V30 519 H 48.1963 0.144043 0.732981 0
M  V30 520 H 50.8583 1.04195 1.6471 0
M  V30 521 H 49.9543 0.509688 3.0791 0
M  V30 522 N 50.2554 -1.46986 0.568584 0
M  V30 523 C 51.6664 -1.86188 0.138219 0
M  V30 524 C 52.0174 -1.47388 -1.29504 0
M  V30 525 O 51.1424 -0.88219 -1.97602 0
M  V30 526 C 51.7374 -3.3792 0.244065 0
M  V30 527 C 50.2964 -3.76171 -0.131335 0
M  V30 528 C 49.4434 -2.71027 0.586465 0
M  V30 529 H 52.3944 -1.38342 0.777645 0
M  V30 530 H 52.4154 -3.76729 -0.534351 0
M  V30 531 H 51.9274 -3.66128 1.28731 0
M  V30 532 H 50.0284 -3.5358 -1.17526 0
M  V30 533 H 50.1414 -4.78523 0.235146 0
M  V30 534 H 48.5054 -2.54684 0.0282722 0
M  V30 535 H 49.2884 -3.02077 1.63109 0
M  V30 536 N 51.7335 -0.305618 -1.54608 0
M  V30 537 C 52.9815 0.301701 -1.99835 0
M  V30 538 C 53.3025 1.54054 -1.19551 0
M  V30 539 O 52.5725 1.93702 -0.292658 0
M  V30 540 H 51.1525 0.114468 -0.738178 0
M  V30 541 H 53.8145 -0.418016 -1.90364 0
M  V30 542 H 52.9105 0.570548 -3.06841 0
M  V30 543 N 53.2116 1.57565 -0.0334293 0
M  V30 544 C 54.1416 2.13511 0.945265 0
M  V30 545 C 55.1226 1.05231 1.33643 0
M  V30 546 O 56.3076 1.33084 1.41429 0
M  V30 547 C 53.4376 2.6657 2.22616 0
M  V30 548 C 52.3916 3.79676 1.97561 0
M  V30 549 C 51.7176 4.1918 3.31952 0
M  V30 550 C 53.0176 5.0557 1.31135 0
M  V30 551 H 54.7116 2.95538 0.479325 0
M  V30 552 H 52.2576 1.42166 0.229115 0
M  V30 553 H 54.2106 3.04344 2.91466 0
M  V30 554 H 52.9346 1.8171 2.71384 0
M  V30 555 H 51.5936 3.42347 1.31127 0
M  V30 556 H 51.2416 3.31296 3.78487 0
M  V30 557 H 50.9416 4.95402 3.15992 0
M  V30 558 H 52.4656 4.59541 4.02063 0
M  V30 559 H 53.8796 5.40903 1.89992 0
M  V30 560 H 52.2766 5.86818 1.25559 0
M  V30 561 H 53.3466 4.84062 0.284894 0
M  V30 562 N 54.6897 -0.239769 1.55765 0
M  V30 563 C 55.9377 -0.964892 1.77579 0
M  V30 564 C 56.2587 -1.85582 0.598699 0
M  V30 565 O 55.5287 -1.92075 -0.385226 0
M  V30 566 H 54.1087 -0.359265 0.654933 0
M  V30 567 H 56.7707 -0.256001 1.93211 0
M  V30 568 H 55.8667 -1.58243 2.69009 0
M  V30 569 N 56.1678 -1.49265 -0.50573 0
M  V30 570 C 57.5788 -1.51769 -1.08734 0
M  V30 571 C 57.9298 -0.301192 -1.93874 0
M  V30 572 O 57.0548 0.589456 -2.08217 0
M  V30 573 C 57.6498 -2.75017 -1.97867 0
M  V30 574 C 56.2088 -2.80314 -2.51199 0
M  V30 575 C 55.3558 -2.4562 -1.28709 0
M  V30 576 H 58.3068 -1.56031 -0.289855 0
M  V30 577 H 58.3278 -2.5491 -2.82491 0
M  V30 578 H 57.8398 -3.63539 -1.35873 0
M  V30 579 H 55.9408 -1.96061 -3.16845 0
M  V30 580 H 56.0538 -3.82366 -2.88675 0
M  V30 581 H 54.4178 -1.97297 -1.61078 0
M  V30 582 H 55.2008 -3.36411 -0.6843 0
M  V30 583 N 57.6459 0.756429 -1.3826 0
M  V30 584 C 58.9229 1.50584 -1.24835 0
M  V30 585 C 59.3029 2.10556 0.151485 0
M  V30 586 O 58.6509 1.96825 1.1607 0
M  V30 587 C 58.8609 2.57448 -2.3563 0
M  V30 588 C 60.2089 3.24429 -2.73917 0
M  V30 589 O 61.2329 2.67751 -2.34921 0
M  V30 590 O 60.0919 4.26937 -3.41156 0
M  V30 591 H 57.1859 0.667664 -0.48801 0
M  V30 592 H 59.7319 0.792083 -1.5008 0
M  V30 593 H 58.5039 2.11362 -3.29305 0
M  V30 594 H 58.1269 3.36408 -2.11933 0
M  V30 595 N 59.124 1.23083 0.984299 0
M  V30 596 C 60.072 1.00593 2.09723 0
M  V30 597 C 61.066 -0.0538014 1.69315 0
M  V30 598 O 62.272 0.0993719 1.79725 0
M  V30 599 H 58.647 0.30817 0.685956 0
M  V30 600 H 60.618 1.95012 2.2586 0
M  V30 601 C 59.367 0.609601 3.42314 0
M  V30 602 H 58.69 1.41675 3.73856 0
M  V30 603 H 60.13 0.491726 4.21139 0
M  V30 604 C 58.589 -0.681745 3.2993 0
M  V30 605 O 59.119 -1.73192 3.62446 0
M  V30 606 N 57.325 -0.656178 2.83095 0
M  V30 607 H 56.872 0.198759 2.56832 0
M  V30 608 H 56.83 -1.52044 2.75191 0
M  V30 609 N 60.6021 -1.18246 1.0419 0
M  V30 610 C 61.5341 -2.2142 0.592088 0
M  V30 611 C 62.5471 -1.59233 -0.338909 0
M  V30 612 O 63.7361 -1.78002 -0.133231 0
M  V30 613 C 60.8361 -3.38546 -0.154854 0
M  V30 614 C 60.0091 -4.3031 0.784328 0
M  V30 615 C 59.0681 -5.26138 0.0804583 0
M  V30 616 O 58.0941 -5.64738 0.711292 0
M  V30 617 N 59.2961 -5.68261 -1.18574 0
M  V30 618 H 62.0611 -2.60636 1.47949 0
M  V30 619 H 59.6221 -1.33044 0.922544 0
M  V30 620 H 61.6141 -3.99678 -0.635606 0
M  V30 621 H 60.1841 -2.98012 -0.943811 0
M  V30 622 H 59.4041 -3.66764 1.44491 0
M  V30 623 H 60.6921 -4.8852 1.42218 0
M  V30 624 H 60.0901 -5.38957 -1.71876 0
M  V30 625 H 58.6471 -6.31584 -1.61074 0
M  V30 626 N 62.0802 -0.821533 -1.34494 0
M  V30 627 C 63.3082 -0.421884 -2.02553 0
M  V30 628 C 63.7232 0.971745 -1.61872 0
M  V30 629 O 63.0802 1.62864 -0.823496 0
M  V30 630 C 63.1312 -0.51285 -3.57844 0
M  V30 631 O 62.8522 -1.85155 -3.97051 0
M  V30 632 C 64.3532 -0.107921 -4.43169 0
M  V30 633 H 61.5732 -0.169482 -0.649243 0
M  V30 634 H 64.1172 -1.1093 -1.71798 0
M  V30 635 H 62.2722 0.126474 -3.87193 0
M  V30 636 H 62.6862 -1.82482 -4.91732 0
M  V30 637 H 64.1602 -0.222657 -5.51551 0
M  V30 638 H 64.6372 0.948401 -4.28838 0
M  V30 639 H 65.2432 -0.720989 -4.19144 0
M  V30 640 N 63.5583 1.46682 -0.576371 0
M  V30 641 C 64.4683 2.34032 0.163141 0
M  V30 642 C 65.4843 1.49367 0.892501 0
M  V30 643 O 66.6603 1.82252 0.857106 0
M  V30 644 C 63.7253 3.26435 1.16795 0
M  V30 645 C 62.7863 4.26998 0.443944 0
M  V30 646 C 62.0193 5.14986 1.40088 0
M  V30 647 O 62.2423 5.05785 2.637 0
M  V30 648 O 61.1763 5.94906 0.914917 0
M  V30 649 H 65.0023 2.98607 -0.55388 0
M  V30 650 H 62.5873 1.45554 -0.336821 0
M  V30 651 H 64.4693 3.83459 1.74748 0
M  V30 652 H 63.1443 2.64465 1.86655 0
M  V30 653 H 62.0513 3.7368 -0.177271 0
M  V30 654 H 63.3843 4.91736 -0.213566 0
M  V30 655 N 65.0364 0.313813 1.54444 0
M  V30 656 C 65.9464 -0.565714 2.27677 0
M  V30 657 C 66.9624 -1.13754 1.31666 0
M  V30 658 O 68.1384 -1.15959 1.64668 0
M  V30 659 C 65.2034 -1.71528 3.01296 0
M  V30 660 C 64.2644 -1.17624 4.12872 0
M  V30 661 C 63.4974 -2.27102 4.8297 0
M  V30 662 O 63.7204 -3.47256 4.52514 0
M  V30 663 O 62.6544 -1.9307 5.70094 0
M  V30 664 H 66.4804 0.0287296 3.03686 0
M  V30 665 H 64.0654 0.0798312 1.49187 0
M  V30 666 H 65.9474 -2.38476 3.4743 0
M  V30 667 H 64.6224 -2.29608 2.2817 0
M  V30 668 H 63.5294 -0.472124 3.71109 0
M  V30 669 H 64.8624 -0.640695 4.88012 0
M  V30 670 N 66.5145 -1.57545 0.0417849 0
M  V30 671 C 67.9305 -1.56467 -0.314704 0
M  V30 672 C 68.1305 -1.04859 -1.72066 0
M  V30 673 O 67.1865 -0.700983 -2.42575 0
M  V30 674 C 68.4995 -3.00317 -0.15174 0
M  V30 675 C 70.0475 -3.12201 -0.223553 0
M  V30 676 C 70.5225 -4.57913 -0.0892295 0
M  V30 677 N 72.0135 -4.6297 -0.145808 0
M  V30 678 C 72.7485 -5.73362 -0.0658459 0
M  V30 679 N 72.2445 -6.92769 0.0659282 0
M  V30 680 N 74.0375 -5.6197 -0.12075 0
M  V30 681 H 66.1885 -1.89416 0.961014 0
M  V30 682 H 68.4515 -0.871862 0.372237 0
M  V30 683 H 68.1575 -3.42073 0.817254 0
M  V30 684 H 68.0315 -3.65892 -0.916692 0
M  V30 685 H 70.4185 -2.70349 -1.18301 0
M  V30 686 H 70.4995 -2.49323 0.571994 0
M  V30 687 H 70.1435 -5.00448 0.866867 0
M  V30 688 H 70.0735 -5.18786 -0.903802 0
M  V30 689 H 72.5645 -3.7709 -0.247286 0
M  V30 690 H 72.8775 -7.72707 0.119905 0
M  V30 691 H 71.2225 -6.94927 0.100885 0
M  V30 692 H 74.4135 -4.67572 -0.222187 0
M  V30 693 H 74.5865 -6.47977 -0.0549735 0
M  V30 694 N 67.9926 0.231505 -1.5589 0
M  V30 695 C 69.4086 0.580748 -1.48659 0
M  V30 696 C 69.6086 1.87617 -0.73498 0
M  V30 697 O 68.6646 2.51046 -0.270586 0
M  V30 698 C 69.9776 0.669202 -2.93159 0
M  V30 699 C 71.5256 0.760499 -3.03621 0
M  V30 700 C 72.0006 0.880383 -4.49459 0
M  V30 701 N 73.4916 0.944861 -4.53461 0
M  V30 702 C 74.2266 1.05716 -5.63571 0
M  V30 703 N 73.7226 1.13403 -6.83456 0
M  V30 704 N 75.5156 1.09152 -5.514 0
M  V30 705 H 67.6666 -0.618695 -2.03189 0
M  V30 706 H 69.9296 -0.215728 -0.923128 0
M  V30 707 H 69.6356 -0.212904 -3.51055 0
M  V30 708 H 69.5096 1.5361 -3.44505 0
M  V30 709 H 71.8966 1.63305 -2.45796 0
M  V30 710 H 71.9776 -0.131864 -2.5546 0
M  V30 711 H 71.6216 0.0123284 -5.07899 0
M  V30 712 H 71.5516 1.78802 -4.95316 0
M  V30 713 H 74.0426 0.896176 -3.6712 0
M  V30 714 H 74.3556 1.21921 -7.63122 0
M  V30 715 H 72.7006 1.10333 -6.86186 0
M  V30 716 H 75.8916 1.02805 -4.56671 0
M  V30 717 H 76.0646 1.17558 -6.37247 0
M  V30 718 N 69.4707 1.49531 0.497807 0
M  V30 719 C 70.4337 1.65916 1.58128 0
M  V30 720 C 71.4337 0.530825 1.51786 0
M  V30 721 O 72.6237 0.797342 1.54881 0
M  V30 722 C 69.7557 1.65951 2.9778 0
M  V30 723 H 70.9487 2.62556 1.44929 0
M  V30 724 H 68.5017 1.38611 0.722275 0
M  V30 725 H 69.2367 0.709065 3.16453 0
M  V30 726 H 69.0217 2.47897 3.03792 0
M  V30 727 H 70.5117 1.80673 3.76493 0
M  V30 728 N 70.9488 -0.749086 1.3866 0
M  V30 729 C 72.1738 -1.54344 1.38538 0
M  V30 730 C 72.5988 -1.88088 -0.0216655 0
M  V30 731 O 71.9568 -1.50899 -1.00494 0
M  V30 732 C 72.0048 -2.8164 2.25192 0
M  V30 733 O 71.1088 -3.7698 1.67212 0
M  V30 734 H 70.4498 -0.466654 0.472367 0
M  V30 735 H 72.9798 -0.925355 1.82478 0
M  V30 736 H 72.9898 -3.30519 2.3921 0
M  V30 737 H 71.6648 -2.56411 3.27454 0
M  V30 738 H 70.2418 -3.35699 1.6236 0
M  V30 739 N 72.4269 -1.23603 -0.977757 0
M  V30 740 C 73.3569 -1.04401 -2.0886 0
M  V30 741 C 74.3379 0.0399052 -1.70053 0
M  V30 742 O 75.5229 -0.125246 -1.93796 0
M  V30 743 C 72.6529 -0.637269 -3.41403 0
M  V30 744 C 71.6069 -1.66883 -3.94124 0
M  V30 745 C 70.9329 -1.11745 -5.22893 0
M  V30 746 C 72.2329 -3.06247 -4.23096 0
M  V30 747 H 73.9269 -1.97316 -2.25182 0
M  V30 748 H 71.4729 -0.950096 -1.08209 0
M  V30 749 H 73.4259 -0.48998 -4.18542 0
M  V30 750 H 72.1499 0.327557 -3.24953 0
M  V30 751 H 70.8089 -1.80416 -3.19133 0
M  V30 752 H 70.4569 -0.143527 -5.02795 0
M  V30 753 H 70.1569 -1.80672 -5.59134 0
M  V30 754 H 71.6809 -0.982067 -6.02651 0
M  V30 755 H 73.0949 -2.96001 -4.90975 0
M  V30 756 H 71.4919 -3.72436 -4.70544 0
M  V30 757 H 72.5619 -3.55041 -3.30263 0
M  V30 758 N 73.905 1.17692 -1.04816 0
M  V30 759 C 75.316 1.69501 -0.782698 0
M  V30 760 C 75.667 1.83456 0.695577 0
M  V30 761 O 74.792 1.51942 1.54086 0
M  V30 762 C 75.387 3.07874 -1.41419 0
M  V30 763 C 73.946 3.56864 -1.19686 0
M  V30 764 C 73.093 2.3322 -1.50012 0
M  V30 765 H 76.044 1.02262 -1.2136 0
M  V30 766 H 76.065 3.71528 -0.821428 0
M  V30 767 H 75.577 2.97685 -2.49009 0
M  V30 768 H 73.678 3.72337 -0.140043 0
M  V30 769 H 73.791 4.39851 -1.89916 0
M  V30 770 H 72.155 2.37501 -0.920071 0
M  V30 771 H 72.938 2.25644 -2.58727 0
M  V30 772 N 75.3831 0.828654 1.34056 0
M  V30 773 C 76.6311 0.41863 1.97717 0
M  V30 774 C 76.9521 -1.02314 1.66002 0
M  V30 775 O 76.2221 -1.71119 0.953683 0
M  V30 776 H 74.8021 0.151809 0.731412 0
M  V30 777 H 77.4641 1.05936 1.63596 0
M  V30 778 H 76.5601 0.542318 3.07352 0
M  V30 779 N 76.8612 -1.46375 0.584142 0
M  V30 780 C 78.2772 -1.57694 0.245929 0
M  V30 781 C 78.4772 -1.57903 -1.25175 0
M  V30 782 O 77.5332 -1.49676 -2.03355 0
M  V30 783 C 78.8462 -2.87028 0.896402 0
M  V30 784 C 80.3942 -3.00662 0.870127 0
M  V30 785 C 80.8692 -4.32734 1.50017 0
M  V30 786 N 82.3602 -4.39436 1.46458 0
M  V30 787 C 83.0952 -5.40248 1.92144 0
M  V30 788 N 82.5912 -6.47726 2.4581 0
M  V30 789 N 84.3842 -5.31459 1.83052 0
M  V30 790 H 76.5352 -1.44483 1.55687 0
M  V30 791 H 78.7982 -0.689291 0.650831 0
M  V30 792 H 78.5042 -2.9269 1.95002 0
M  V30 793 H 78.3782 -3.75014 0.405486 0
M  V30 794 H 80.7652 -2.94581 -0.174871 0
M  V30 795 H 80.8462 -2.14148 1.39908 0
M  V30 796 H 80.4902 -4.39573 2.54437 0
M  V30 797 H 80.4202 -5.18025 0.946432 0
M  V30 798 H 82.9112 -3.62367 1.07231 0
M  V30 799 H 83.2242 -7.20863 2.78525 0
M  V30 800 H 81.5692 -6.48542 2.49836 0
M  V30 801 H 84.7602 -4.46396 1.40883 0
M  V30 802 H 84.9332 -6.09881 2.18973 0
M  V30 803 N 78.3393 -0.321999 -1.54275 0
M  V30 804 C 79.6163 0.335232 -1.92706 0
M  V30 805 C 79.9963 1.70006 -1.25145 0
M  V30 806 O 79.3443 2.25067 -0.394596 0
M  V30 807 C 79.5543 0.429008 -3.46353 0
M  V30 808 C 80.9023 0.690029 -4.18956 0
M  V30 809 O 81.9263 0.511992 -3.52501 0
M  V30 810 O 80.7853 1.03338 -5.36641 0
M  V30 811 H 77.8793 0.191143 -0.804608 0
M  V30 812 H 80.4253 -0.3716 -1.65581 0
M  V30 813 H 79.1973 -0.529611 -3.87699 0
M  V30 814 H 78.8203 1.18348 -3.79578 0
M  V30 815 N 79.8174 1.5752 -0.0501392 0
M  V30 816 C 81.0944 1.83996 0.663685 0
M  V30 817 C 81.4744 0.938339 1.89099 0
M  V30 818 O 80.8224 -0.00087759 2.285 0
M  V30 819 C 81.0324 3.33702 1.02196 0
M  V30 820 C 82.3804 4.00691 1.40469 0
M  V30 821 O 83.4044 3.38321 1.11433 0
M  V30 822 O 82.2634 5.10658 1.94654 0
M  V30 823 H 79.3574 0.759385 0.32751 0
M  V30 824 H 81.9034 1.69514 -0.0794238 0
M  V30 825 H 80.6754 3.91015 0.149364 0
M  V30 826 H 80.2984 3.53368 1.82255 0
M  V30 827 N 81.2955 -0.223234 1.56011 0
M  V30 828 C 82.2435 -1.29627 1.93131 0
M  V30 829 C 83.2375 -1.48608 0.813146 0
M  V30 830 O 84.4435 -1.49802 0.997966 0
M  V30 831 H 80.8185 -0.434563 0.613726 0
M  V30 832 H 82.7895 -0.955995 2.82672 0
M  V30 833 C 81.5385 -2.63983 2.26292 0
M  V30 834 H 80.8615 -2.50185 3.11846 0
M  V30 835 H 82.3015 -3.3788 2.56151 0
M  V30 836 C 80.7605 -3.18866 1.08747 0
M  V30 837 O 81.2905 -4.00192 0.347727 0
M  V30 838 N 79.4965 -2.77217 0.871743 0
M  V30 839 H 79.0435 -2.1119 1.47501 0
M  V30 840 H 79.0015 -3.1428 0.0869905 0
M  V30 841 N 82.7736 -1.49793 -0.48987 0
M  V30 842 C 83.9986 -1.63836 -1.27172 0
M  V30 843 C 84.4236 -0.31402 -1.8546 0
M  V30 844 O 83.7816 0.719803 -1.66399 0
M  V30 845 C 83.8296 -2.71797 -2.36978 0
M  V30 846 O 82.9336 -2.31744 -3.41128 0
M  V30 847 H 82.2746 -0.547997 -0.37496 0
M  V30 848 H 84.8046 -1.96053 -0.585191 0
M  V30 849 H 84.8146 -2.94305 -2.82575 0
M  V30 850 H 83.4896 -3.67923 -1.93921 0
M  V30 851 H 82.0666 -2.1961 -3.01373 0
M  V30 852 N 84.2517 0.741722 -1.39055 0
M  V30 853 C 85.4817 1.52876 -1.3897 0
M  V30 854 C 85.8897 1.8919 0.0193266 0
M  V30 855 O 85.2327 1.54138 0.999356 0
M  V30 856 C 85.2947 2.84929 -2.19216 0
M  V30 857 C 84.9587 2.71086 -3.67915 0
M  V30 858 C 85.9557 2.40084 -4.61146 0
M  V30 859 C 83.6407 2.88168 -4.11418 0
M  V30 860 C 85.6347 2.26335 -5.95862 0
M  V30 861 C 83.3217 2.74037 -5.46211 0
M  V30 862 C 84.3197 2.43166 -6.38247 0
M  V30 863 O 84.0077 2.29115 -7.70559 0
M  V30 864 H 83.7397 0.479252 -0.476753 0
M  V30 865 H 86.2937 0.924751 -1.83405 0
M  V30 866 H 84.5237 3.47564 -1.69518 0
M  V30 867 H 86.2127 3.46509 -2.11392 0
M  V30 868 H 86.9787 2.26545 -4.28838 0
M  V30 869 H 82.8577 3.11191 -3.40119 0
M  V30 870 H 86.4017 2.0216 -6.67665 0
M  V30 871 H 82.2987 2.87153 -5.78112 0
M  V30 872 H 83.0667 2.44237 -7.81211 0
M  V30 873 N 85.7298 1.2412 0.971189 0
M  V30 874 C 86.6628 0.97373 2.06382 0
M  V30 875 C 87.6408 -0.0912662 1.62344 0
M  V30 876 O 88.8248 0.0449365 1.88446 0
M  V30 877 C 85.9518 0.468746 3.35441 0
M  V30 878 C 84.9978 1.52176 3.98428 0
M  V30 879 S 85.8308 3.10203 4.36503 0
M  V30 880 C 86.9868 2.61398 5.68702 0
M  V30 881 H 87.2198 1.89893 2.28753 0
M  V30 882 H 84.7528 1.07466 1.10862 0
M  V30 883 H 86.7108 0.184012 4.10087 0
M  V30 884 H 85.3718 -0.435688 3.11064 0
M  V30 885 H 84.5648 1.11876 4.91426 0
M  V30 886 H 84.1668 1.75632 3.30196 0
M  V30 887 H 86.4588 2.03992 6.4606 0
M  V30 888 H 87.4018 3.52972 6.13854 0
M  V30 889 H 87.8098 2.01941 5.27143 0
M  V30 890 N 87.2079 -1.17134 1.05439 0
M  V30 891 C 88.4379 -1.91094 0.785274 0
M  V30 892 C 88.8459 -1.77198 -0.663142 0
M  V30 893 O 88.1889 -1.10835 -1.46497 0
M  V30 894 C 88.2509 -3.42594 1.08949 0
M  V30 895 C 87.9149 -3.80274 2.53458 0
M  V30 896 C 88.9119 -3.82912 3.51673 0
M  V30 897 C 86.5969 -4.11162 2.88532 0
M  V30 898 C 88.5909 -4.15913 4.83006 0
M  V30 899 C 86.2779 -4.43831 4.20068 0
M  V30 900 C 87.2759 -4.46185 5.17115 0
M  V30 901 O 86.9639 -4.78083 6.46291 0
M  V30 902 H 86.6959 -0.613073 0.284811 0
M  V30 903 H 89.2499 -1.49461 1.40893 0
M  V30 904 H 87.4799 -3.84534 0.408741 0
M  V30 905 H 89.1689 -3.97817 0.805991 0
M  V30 906 H 89.9349 -3.5917 3.25917 0
M  V30 907 H 85.8139 -4.085 2.13656 0
M  V30 908 H 89.3579 -4.17665 5.5875 0
M  V30 909 H 85.2549 -4.67037 4.45586 0
M  V30 910 H 86.0229 -4.9593 6.51149 0
M  V30 911 N 88.686 -0.835752 -1.33615 0
M  V30 912 C 89.935 -0.426289 -1.97144 0
M  V30 913 C 90.248 1.01912 -1.66953 0
M  V30 914 O 91.454 1.53311 -2.24072 0
M  V30 915 C 89.91 -0.711321 -3.52801 0
M  V30 916 C 89.518 -2.1712 -3.91871 0
M  V30 917 C 91.262 -0.368654 -4.22896 0
M  V30 918 C 89.169 -2.40044 -5.40493 0
M  V30 919 H 88.099 -0.15567 -0.737755 0
M  V30 920 H 90.75 -1.0239 -1.52278 0
M  V30 921 H 89.132 -0.0433766 -3.95976 0
M  V30 922 H 90.306 -2.87936 -3.59763 0
M  V30 923 H 88.621 -2.47654 -3.34749 0
M  V30 924 H 91.218 -0.517601 -5.32189 0
M  V30 925 H 91.561 0.688078 -4.10574 0
M  V30 926 H 92.094 -0.991702 -3.8524 0
M  V30 927 H 88.833 -3.44271 -5.57815 0
M  V30 928 H 88.353 -1.73785 -5.74072 0
M  V30 929 H 90.032 -2.23042 -6.0734 0
M  V30 930 N 90.1641 1.46063 -0.591896 0
M  V30 931 C 91.0941 2.33172 0.123673 0
M  V30 932 C 92.0751 1.45897 0.87453 0
M  V30 933 O 93.2601 1.74698 0.848181 0
M  V30 934 C 90.3901 3.28336 1.13194 0
M  V30 935 C 89.3441 4.25124 0.495324 0
M  V30 936 C 88.6701 5.09863 1.61071 0
M  V30 937 C 89.9701 5.19143 -0.573425 0
M  V30 938 H 91.6641 2.93252 -0.603646 0
M  V30 939 H 89.2101 1.41014 -0.291741 0
M  V30 940 H 91.1631 3.88137 1.64097 0
M  V30 941 H 89.8871 2.66383 1.88965 0
M  V30 942 H 88.5461 3.66599 0.00729452 0
M  V30 943 H 88.1941 4.44288 2.35832 0
M  V30 944 H 87.8941 5.75417 1.19035 0
M  V30 945 H 89.4181 5.72529 2.12233 0
M  V30 946 H 90.8321 5.73106 -0.1491 0
M  V30 947 H 89.2291 5.93089 -0.914636 0
M  V30 948 H 90.2991 4.62519 -1.45617 0
M  V30 949 N 91.6422 0.330177 1.54103 0
M  V30 950 C 92.8892 -0.270405 2.00686 0
M  V30 951 C 93.2172 -1.51621 1.21825 0
M  V30 952 O 92.4722 -1.93536 0.29025 0
M  V30 953 C 92.7712 -0.643134 3.51566 0
M  V30 954 C 92.4372 0.504251 4.48072 0
M  V30 955 C 91.0992 0.819163 4.74176 0
M  V30 956 C 93.4512 1.27465 5.05373 0
M  V30 957 C 90.7792 1.90708 5.5484 0
M  V30 958 C 93.1312 2.35271 5.87223 0
M  V30 959 C 91.7952 2.67336 6.11627 0
M  V30 960 H 91.0652 -0.0989482 0.734364 0
M  V30 961 H 93.7122 0.455324 1.86008 0
M  V30 962 H 92.0172 -1.44938 3.64006 0
M  V30 963 H 93.7142 -1.11949 3.85056 0
M  V30 964 H 90.3042 0.248733 4.27878 0
M  V30 965 H 94.4882 1.04462 4.85182 0
M  V30 966 H 89.7442 2.15991 5.71977 0
M  V30 967 H 93.9182 2.95405 6.30641 0
M  V30 968 H 91.5452 3.51763 6.73919 0
M  V30 969 N 93.1203 -1.57491 0.0584922 0
M  V30 970 C 94.3663 -1.93264 -0.614558 0
M  V30 971 C 94.6993 -0.937717 -1.7006 0
M  V30 972 O 93.9743 0.0351652 -1.94468 0
M  V30 973 C 94.2573 -3.3938 -1.20386 0
M  V30 974 C 94.1103 -4.49625 -0.125375 0
M  V30 975 C 95.4293 -3.86039 -2.11334 0
M  V30 976 H 92.5483 -0.702791 -0.221933 0
M  V30 977 H 95.1903 -1.8961 0.12175 0
M  V30 978 H 93.3403 -3.42626 -1.83139 0
M  V30 979 H 95.0123 -4.58506 0.506971 0
M  V30 980 H 93.2553 -4.30354 0.545672 0
M  V30 981 H 93.9263 -5.48967 -0.577861 0
M  V30 982 H 96.4023 -3.84716 -1.58534 0
M  V30 983 H 95.2783 -4.88914 -2.49507 0
M  V30 984 H 95.5393 -3.23215 -3.01636 0
M  V30 985 N 94.5984 0.214957 -1.56127 0
M  V30 986 C 95.5314 1.29382 -1.87977 0
M  V30 987 C 96.5094 1.44897 -0.737807 0
M  V30 988 O 97.6934 1.60605 -0.986833 0
M  V30 989 C 94.8204 2.66325 -2.09258 0
M  V30 990 C 93.8664 2.67789 -3.31951 0
M  V30 991 S 94.6994 2.21198 -4.8768 0
M  V30 992 C 95.8554 3.60003 -5.12004 0
M  V30 993 H 96.0884 1.02173 -2.79192 0
M  V30 994 H 93.6214 0.417516 -1.48648 0
M  V30 995 H 95.5794 3.45162 -2.22201 0
M  V30 996 H 94.2404 2.90755 -1.18829 0
M  V30 997 H 93.4334 3.68436 -3.43906 0
M  V30 998 H 93.0354 1.9702 -3.17898 0
M  V30 999 H 95.3274 4.55739 -5.01307 0
M  V30 1000 H 96.2704 3.52959 -6.13861 0
M  V30 1001 H 96.6784 3.53996 -4.39712 0
M  V30 1002 N 96.0765 1.50051 0.48192 0
M  V30 1003 C 97.3235 1.60498 1.23477 0
M  V30 1004 C 97.6515 0.300331 1.92167 0
M  V30 1005 O 96.9065 -0.713094 1.82246 0
M  V30 1006 C 97.2055 2.72717 2.30998 0
M  V30 1007 C 96.8715 4.13572 1.79636 0
M  V30 1008 C 95.5335 4.519 1.65348 0
M  V30 1009 C 97.8855 5.01649 1.41412 0
M  V30 1010 C 95.2135 5.76057 1.11244 0
M  V30 1011 C 97.5655 6.26343 0.887538 0
M  V30 1012 C 96.2295 6.63483 0.731207 0
M  V30 1013 H 95.4995 0.587303 0.451836 0
M  V30 1014 H 98.1465 1.83948 0.532468 0
M  V30 1015 H 96.4515 2.43312 3.07094 0
M  V30 1016 H 98.1485 2.78006 2.88988 0
M  V30 1017 H 94.7385 3.83329 1.91721 0
M  V30 1018 H 98.9225 4.72679 1.51289 0
M  V30 1019 H 94.1785 6.03516 0.978686 0
M  V30 1020 H 98.3525 6.93958 0.582654 0
M  V30 1021 H 95.9795 7.59568 0.309806 0
M  V30 1022 N 97.5546 -0.734337 1.39446 0
M  V30 1023 C 98.4846 -1.86155 1.40955 0
M  V30 1024 C 99.4656 -1.67898 0.272827 0
M  V30 1025 O 100.651 -1.88207 0.478743 0
M  V30 1026 C 97.7806 -3.23912 1.25294 0
M  V30 1027 C 96.7346 -3.56808 2.36373 0
M  V30 1028 C 96.0606 -4.93508 2.058 0
M  V30 1029 C 97.3606 -3.59713 3.78687 0
M  V30 1030 H 99.0546 -1.8515 2.35287 0
M  V30 1031 H 96.6006 -0.889367 1.13253 0
M  V30 1032 H 98.5536 -4.02443 1.2497 0
M  V30 1033 H 97.2776 -3.25446 0.274308 0
M  V30 1034 H 95.9366 -2.80606 2.35914 0
M  V30 1035 H 95.5846 -4.91623 1.06374 0
M  V30 1036 H 95.2846 -5.16486 2.80208 0
M  V30 1037 H 96.8086 -5.74396 2.07128 0
M  V30 1038 H 98.2226 -4.2832 3.81071 0
M  V30 1039 H 96.6196 -3.94209 4.52459 0
M  V30 1040 H 97.6896 -2.59504 4.09617 0
M  V30 1041 N 99.0327 -1.24633 -0.964593 0
M  V30 1042 C 100.28 -1.08788 -1.70796 0
M  V30 1043 C 100.608 0.372783 -1.90894 0
M  V30 1044 O 99.8627 1.29167 -1.47018 0
M  V30 1045 C 100.162 -1.7763 -3.10133 0
M  V30 1046 C 99.8277 -3.27557 -3.09866 0
M  V30 1047 C 98.4897 -3.6846 -3.09501 0
M  V30 1048 C 100.842 -4.23389 -3.03959 0
M  V30 1049 C 98.1697 -5.03624 -3.00965 0
M  V30 1050 C 100.522 -5.58565 -2.96965 0
M  V30 1051 C 99.1857 -5.98809 -2.9493 0
M  V30 1052 H 98.4557 -0.398084 -0.624988 0
M  V30 1053 H 101.103 -1.54777 -1.12767 0
M  V30 1054 H 99.4077 -1.24044 -3.71645 0
M  V30 1055 H 101.105 -1.62832 -3.66451 0
M  V30 1056 H 97.6947 -2.95006 -3.10917 0
M  V30 1057 H 101.879 -3.92787 -3.03368 0
M  V30 1058 H 97.1347 -5.33998 -2.97752 0
M  V30 1059 H 101.309 -6.32523 -2.91354 0
M  V30 1060 H 98.9357 -7.03505 -2.88071 0
M  V30 1061 N 100.511 1.16574 -1.06058 0
M  V30 1062 C 101.474 2.19085 -0.673392 0
M  V30 1063 C 102.474 1.5835 0.279648 0
M  V30 1064 O 103.664 1.74088 0.0623488 0
M  V30 1065 C 100.796 3.40899 0.00954234 0
M  V30 1066 H 101.989 2.54853 -1.58081 0
M  V30 1067 H 99.5418 1.30808 -0.855516 0
M  V30 1068 H 100.277 3.10684 0.929826 0
M  V30 1069 H 100.062 3.86233 -0.67573 0
M  V30 1070 H 101.552 4.1675 0.266245 0
M  V30 1071 N 101.989 0.842826 1.3317 0
M  V30 1072 C 103.235 0.441099 1.97945 0
M  V30 1073 C 103.568 -0.998024 1.66593 0
M  V30 1074 O 102.843 -1.69839 0.947898 0
M  V30 1075 C 103.126 0.666841 3.53872 0
M  V30 1076 C 102.979 2.15352 3.94897 0
M  V30 1077 C 104.298 0.115544 4.39948 0
M  V30 1078 H 101.417 0.161739 0.719034 0
M  V30 1079 H 104.059 1.05907 1.57746 0
M  V30 1080 H 102.209 0.140828 3.88245 0
M  V30 1081 H 103.881 2.7447 3.70761 0
M  V30 1082 H 102.124 2.63653 3.44484 0
M  V30 1083 H 102.795 2.26221 5.03516 0
M  V30 1084 H 105.271 0.565213 4.12243 0
M  V30 1085 H 104.147 0.303152 5.48062 0
M  V30 1086 H 104.408 -0.980935 4.3108 0
M  V30 1087 N 103.467 -1.45747 0.599634 0
M  V30 1088 C 104.695 -2.06668 0.0978551 0
M  V30 1089 C 105.11 -1.44562 -1.21439 0
M  V30 1090 O 104.467 -0.556923 -1.73795 0
M  V30 1091 C 104.518 -3.61456 -0.0567044 0
M  V30 1092 O 104.239 -4.21242 1.20361 0
M  V30 1093 C 105.74 -4.39345 -0.590869 0
M  V30 1094 H 102.96 -0.667825 0.0651943 0
M  V30 1095 H 105.504 -1.87115 0.82511 0
M  V30 1096 H 103.659 -3.80378 -0.734251 0
M  V30 1097 H 104.073 -5.14323 1.02821 0
M  V30 1098 H 105.547 -5.48182 -0.648131 0
M  V30 1099 H 106.024 -4.08568 -1.61147 0
M  V30 1100 H 106.63 -4.25268 0.0523679 0
M  V30 1101 N 104.945 -0.338344 -1.53925 0
M  V30 1102 C 106.191 0.260143 -2.01125 0
M  V30 1103 C 106.524 1.50617 -1.22589 0
M  V30 1104 O 105.799 1.91979 -0.312113 0
M  V30 1105 C 106.082 0.579499 -3.55407 0
M  V30 1106 C 105.935 -0.678264 -4.44657 0
M  V30 1107 C 107.254 1.39122 -4.17532 0
M  V30 1108 H 104.373 0.0930772 -0.731099 0
M  V30 1109 H 107.015 -0.457852 -1.84401 0
M  V30 1110 H 105.165 1.19118 -3.69788 0
M  V30 1111 H 106.837 -1.31631 -4.42121 0
M  V30 1112 H 105.08 -1.3042 -4.13731 0
M  V30 1113 H 105.751 -0.410143 -5.50474 0
M  V30 1114 H 108.227 0.874035 -4.06817 0
M  V30 1115 H 107.103 1.58342 -5.25565 0
M  V30 1116 H 107.364 2.39178 -3.71815 0
M  V30 1117 N 106.423 1.57458 -0.0668435 0
M  V30 1118 C 107.671 1.92919 0.602214 0
M  V30 1119 C 107.992 0.947215 1.70449 0
M  V30 1120 O 107.262 -0.00544117 1.95899 0
M  V30 1121 H 105.842 0.71217 0.22544 0
M  V30 1122 H 108.504 1.94508 -0.123535 0
M  V30 1123 H 107.6 2.94589 1.03073 0
M  V30 1124 N 107.901 -0.206675 1.56239 0
M  V30 1125 C 109.126 -0.949474 1.8439 0
M  V30 1126 C 109.551 -1.76549 0.649016 0
M  V30 1127 O 108.909 -1.76782 -0.402231 0
M  V30 1128 C 108.957 -1.83078 3.10668 0
M  V30 1129 O 108.061 -2.9281 2.90407 0
M  V30 1130 H 107.402 -0.268033 0.607499 0
M  V30 1131 H 109.932 -0.215488 2.03462 0
M  V30 1132 H 109.942 -2.2377 3.41161 0
M  V30 1133 H 108.617 -1.23112 3.97261 0
M  V30 1134 H 107.194 -2.55956 2.71184 0
M  V30 1135 N 109.379 -1.50304 -0.473955 0
M  V30 1136 C 110.309 -1.71886 -1.58042 0
M  V30 1137 C 111.29 -0.567799 -1.60344 0
M  V30 1138 O 112.475 -0.806623 -1.76656 0
M  V30 1139 C 109.605 -1.81036 -2.96384 0
M  V30 1140 C 108.559 -2.962 -3.08949 0
M  V30 1141 C 107.885 -2.9049 -4.48909 0
M  V30 1142 C 109.185 -4.36752 -2.86434 0
M  V30 1143 H 110.879 -2.64527 -1.40234 0
M  V30 1144 H 108.425 -1.27295 -0.673201 0
M  V30 1145 H 110.378 -1.94719 -3.73714 0
M  V30 1146 H 109.102 -0.850147 -3.15341 0
M  V30 1147 H 107.761 -2.82164 -2.3405 0
M  V30 1148 H 107.409 -1.92321 -4.64781 0
M  V30 1149 H 107.109 -3.67802 -4.58253 0
M  V30 1150 H 108.633 -3.06218 -5.28264 0
M  V30 1151 H 110.047 -4.5133 -3.53517 0
M  V30 1152 H 108.444 -5.15493 -3.07225 0
M  V30 1153 H 109.514 -4.49321 -1.82316 0
M  V30 1154 N 110.857 0.726932 -1.39834 0
M  V30 1155 C 112.106 1.48214 -1.36805 0
M  V30 1156 C 112.419 1.95576 0.0305291 0
M  V30 1157 O 113.625 2.7088 0.183417 0
M  V30 1158 C 112.081 2.67854 -2.40379 0
M  V30 1159 C 111.689 2.27408 -3.85992 0
M  V30 1160 C 113.433 3.45641 -2.46439 0
M  V30 1161 C 111.34 3.43819 -4.81189 0
M  V30 1162 H 110.27 0.556606 -0.508631 0
M  V30 1163 H 112.921 0.792216 -1.65518 0
M  V30 1164 H 111.303 3.3896 -2.04749 0
M  V30 1165 H 112.477 1.63795 -4.30706 0
M  V30 1166 H 110.792 1.62692 -3.83302 0
M  V30 1167 H 113.389 4.32244 -3.14753 0
M  V30 1168 H 113.732 3.88669 -1.49139 0
M  V30 1169 H 114.265 2.8157 -2.81004 0
M  V30 1170 H 111.004 3.05834 -5.79781 0
M  V30 1171 H 110.524 4.06385 -4.41148 0
M  V30 1172 H 112.203 4.10043 -5.00474 0
M  V30 1173 N 112.336 1.25143 0.95797 0
M  V30 1174 C 113.266 1.07711 2.07173 0
M  V30 1175 C 114.247 -0.0128462 1.70095 0
M  V30 1176 O 115.432 0.156061 1.93572 0
M  V30 1177 C 112.562 0.691503 3.40346 0
M  V30 1178 C 111.516 1.73132 3.9142 0
M  V30 1179 C 110.842 1.20049 5.21049 0
M  V30 1180 C 112.142 3.1294 4.1817 0
M  V30 1181 H 113.836 2.00873 2.22014 0
M  V30 1182 H 111.382 0.967191 1.06684 0
M  V30 1183 H 113.335 0.556505 4.17709 0
M  V30 1184 H 112.059 -0.275819 3.25433 0
M  V30 1185 H 110.718 1.8547 3.16222 0
M  V30 1186 H 110.366 0.223499 5.02503 0
M  V30 1187 H 110.066 1.89545 5.56189 0
M  V30 1188 H 111.59 1.07782 6.01012 0
M  V30 1189 H 113.004 3.03775 4.86203 0
M  V30 1190 H 111.401 3.79875 4.64559 0
M  V30 1191 H 112.471 3.6025 3.24573 0
M  V30 1192 N 113.814 -1.1601 1.06675 0
M  V30 1193 C 115.062 -1.86264 0.784229 0
M  V30 1194 C 115.383 -1.82328 -0.691488 0
M  V30 1195 O 114.653 -1.25947 -1.50047 0
M  V30 1196 H 113.233 -0.689621 0.28711 0
M  V30 1197 H 115.895 -1.40664 1.34906 0
M  V30 1198 H 114.991 -2.91595 1.11259 0
M  V30 1199 N 115.292 -0.849877 -1.32721 0
M  V30 1200 C 116.522 -0.46408 -2.0132 0
M  V30 1201 C 116.93 0.94246 -1.64056 0
M  V30 1202 O 116.273 1.6257 -0.855379 0
M  V30 1203 C 116.335 -0.517887 -3.5575 0
M  V30 1204 C 115.999 -1.88248 -4.16427 0
M  V30 1205 C 116.996 -2.84726 -4.35002 0
M  V30 1206 C 114.681 -2.17832 -4.52609 0
M  V30 1207 C 116.675 -4.08945 -4.8892 0
M  V30 1208 C 114.362 -3.42304 -5.06232 0
M  V30 1209 C 115.36 -4.37677 -5.24335 0
M  V30 1210 O 115.048 -5.59946 -5.76815 0
M  V30 1211 H 114.78 -0.181327 -0.651227 0
M  V30 1212 H 117.334 -1.14713 -1.70382 0
M  V30 1213 H 115.564 0.221997 -3.86062 0
M  V30 1214 H 117.253 -0.148366 -4.05629 0
M  V30 1215 H 118.019 -2.63174 -4.07388 0
M  V30 1216 H 113.898 -1.44385 -4.37806 0
M  V30 1217 H 117.442 -4.83396 -5.02966 0
M  V30 1218 H 113.339 -3.63709 -5.33278 0
M  V30 1219 H 114.107 -5.61838 -5.95214 0
M  V30 1220 N 116.77 1.45427 -0.607355 0
M  V30 1221 C 117.998 2.06614 -0.108814 0
M  V30 1222 C 118.413 1.45204 1.2067 0
M  V30 1223 O 117.77 0.566132 1.73497 0
M  V30 1224 C 117.821 3.61481 0.0375347 0
M  V30 1225 O 117.542 4.20598 -1.22593 0
M  V30 1226 C 119.043 4.39652 0.567561 0
M  V30 1227 H 116.263 0.66747 -0.0687351 0
M  V30 1228 H 118.807 1.86675 -0.835022 0
M  V30 1229 H 116.962 3.80762 0.714068 0
M  V30 1230 H 117.376 5.1377 -1.05547 0
M  V30 1231 H 118.85 5.48518 0.61905 0
M  V30 1232 H 119.327 4.09417 1.58978 0
M  V30 1233 H 119.933 4.25234 -0.0749202 0
M  V30 1234 N 118.248 0.346503 1.53744 0
M  V30 1235 C 119.664 -0.00530975 1.59599 0
M  V30 1236 C 119.864 -1.48465 1.36236 0
M  V30 1237 O 118.92 -2.24376 1.15808 0
M  V30 1238 C 120.233 0.433516 2.97559 0
M  V30 1239 C 121.781 0.386111 3.10609 0
M  V30 1240 C 122.256 0.800451 4.50951 0
M  V30 1241 N 123.747 0.754753 4.5701 0
M  V30 1242 C 124.482 1.04727 5.63755 0
M  V30 1243 N 123.978 1.4081 6.7834 0
M  V30 1244 N 125.771 0.971316 5.53644 0
M  V30 1245 H 117.922 1.31009 1.67184 0
M  V30 1246 H 120.185 0.534242 0.783128 0
M  V30 1247 H 119.891 1.46509 3.19731 0
M  V30 1248 H 119.765 -0.189753 3.76722 0
M  V30 1249 H 122.152 -0.636295 2.88158 0
M  V30 1250 H 122.233 1.04462 2.33498 0
M  V30 1251 H 121.877 1.82088 4.74137 0
M  V30 1252 H 121.807 0.119386 5.26465 0
M  V30 1253 H 124.298 0.488662 3.74727 0
M  V30 1254 H 124.611 1.61607 7.55714 0
M  V30 1255 H 122.956 1.44657 6.79779 0
M  V30 1256 H 126.147 0.688748 4.63005 0
M  V30 1257 H 126.32 1.20263 6.36742 0
M  V30 1258 N 119.726 -1.57421 0.075193 0
M  V30 1259 C 120.951 -1.98364 -0.605515 0
M  V30 1260 C 121.376 -0.953383 -1.62149 0
M  V30 1261 O 120.734 0.0806053 -1.81121 0
M  V30 1262 C 120.782 -3.38332 -1.24756 0
M  V30 1263 O 119.886 -3.37959 -2.36342 0
M  V30 1264 H 119.227 -0.645553 -0.155428 0
M  V30 1265 H 121.757 -2.04044 0.150714 0
M  V30 1266 H 121.767 -3.75591 -1.5936 0
M  V30 1267 H 120.442 -4.12846 -0.503129 0
M  V30 1268 H 119.019 -3.12474 -2.03506 0
M  V30 1269 N 121.204 0.198386 -1.56346 0
M  V30 1270 C 122.62 0.549085 -1.49857 0
M  V30 1271 C 122.82 1.86016 -0.774611 0
M  V30 1272 O 121.876 2.50416 -0.323776 0
M  V30 1273 C 123.189 0.606868 -2.94512 0
M  V30 1274 C 124.737 0.695925 -3.05165 0
M  V30 1275 C 125.212 0.784848 -4.51225 0
M  V30 1276 N 126.703 0.848463 -4.55363 0
M  V30 1277 C 127.438 0.937378 -5.65686 0
M  V30 1278 N 126.934 0.9888 -6.85707 0
M  V30 1279 N 128.727 0.974312 -5.53592 0
M  V30 1280 H 120.878 -0.661655 -2.01831 0
M  V30 1281 H 123.141 -0.235261 -0.918344 0
M  V30 1282 H 122.847 -0.28732 -3.50524 0
M  V30 1283 H 122.721 1.46268 -3.47686 0
M  V30 1284 H 125.108 1.58055 -2.49204 0
M  V30 1285 H 125.189 -0.186022 -2.55123 0
M  V30 1286 H 124.833 -0.0954072 -5.0781 0
M  V30 1287 H 124.763 1.68255 -4.98997 0
M  V30 1288 H 127.254 0.818103 -3.68938 0
M  V30 1289 H 127.567 1.05707 -7.65536 0
M  V30 1290 H 125.912 0.957534 -6.88372 0
M  V30 1291 H 129.103 0.930954 -4.58749 0
M  V30 1292 H 129.276 1.04015 -6.39597 0
M  V30 1293 N 122.682 1.50554 0.465978 0
M  V30 1294 C 123.629 1.6979 1.56333 0
M  V30 1295 C 124.599 0.539239 1.57103 0
M  V30 1296 O 125.784 0.770401 1.74555 0
M  V30 1297 C 122.924 1.80273 2.94271 0
M  V30 1298 C 122.037 3.07674 3.0325 0
M  V30 1299 C 121.172 3.08922 4.32135 0
M  V30 1300 C 120.211 4.30755 4.34875 0
M  V30 1301 N 119.348 4.29714 5.55239 0
M  V30 1302 H 124.188 2.63472 1.39235 0
M  V30 1303 H 121.725 1.30602 0.676873 0
M  V30 1304 H 123.683 1.84332 3.74269 0
M  V30 1305 H 122.313 0.900258 3.09992 0
M  V30 1306 H 121.365 3.13062 2.16094 0
M  V30 1307 H 122.677 3.97642 3.01135 0
M  V30 1308 H 121.831 3.11738 5.20485 0
M  V30 1309 H 120.57 2.16792 4.36866 0
M  V30 1310 H 119.575 4.28146 3.44922 0
M  V30 1311 H 120.8 5.24117 4.31831 0
M  V30 1312 H 118.746 3.4044 5.60746 0
M  V30 1313 H 118.663 5.13456 5.54886 0
M  V30 1314 H 119.931 4.36683 6.457 0
M  V30 1315 N 124.16 -0.719506 1.40217 0
M  V30 1316 C 125.406 -1.48152 1.38488 0
M  V30 1317 C 125.739 -1.94195 -0.0141867 0
M  V30 1318 O 125.014 -1.67884 -0.982096 0
M  V30 1319 C 125.297 -2.71035 2.37091 0
M  V30 1320 C 125.15 -2.30912 3.86005 0
M  V30 1321 C 126.469 -3.73182 2.33288 0
M  V30 1322 H 123.588 -0.537395 0.504357 0
M  V30 1323 H 126.23 -0.821472 1.71324 0
M  V30 1324 H 124.38 -3.27352 2.0922 0
M  V30 1325 H 126.052 -1.80107 4.24687 0
M  V30 1326 H 124.295 -1.62958 4.02029 0
M  V30 1327 H 124.966 -3.18978 4.50508 0
M  V30 1328 H 127.442 -3.26485 2.57966 0
M  V30 1329 H 126.318 -4.56806 3.04334 0
M  V30 1330 H 126.579 -4.21202 1.34317 0
M  V30 1331 N 125.638 -1.25649 -0.95132 0
M  V30 1332 C 126.915 -1.01361 -1.67288 0
M  V30 1333 C 127.295 0.459135 -2.06046 0
M  V30 1334 O 126.643 1.43723 -1.7764 0
M  V30 1335 C 126.853 -1.95256 -2.89268 0
M  V30 1336 C 128.201 -2.23289 -3.61147 0
M  V30 1337 O 129.225 -1.93041 -2.99355 0
M  V30 1338 O 128.084 -2.74741 -4.72419 0
M  V30 1339 H 125.178 -0.38464 -0.732107 0
M  V30 1340 H 127.724 -1.36817 -1.00395 0
M  V30 1341 H 126.496 -2.94685 -2.57442 0
M  V30 1342 H 126.119 -1.60218 -3.6389 0
M  V30 1343 N 127.117 1.15442 -1.07289 0
M  V30 1344 C 128.064 2.20161 -0.692653 0
M  V30 1345 C 129.034 1.63073 0.31564 0
M  V30 1346 O 130.219 1.89725 0.202235 0
M  V30 1347 C 127.359 3.44967 -0.0959509 0
M  V30 1348 C 126.472 4.16256 -1.15564 0
M  V30 1349 C 125.607 5.28609 -0.524011 0
M  V30 1350 C 124.646 5.91715 -1.56653 0
M  V30 1351 N 123.783 6.9554 -0.957531 0
M  V30 1352 H 128.623 2.52037 -1.59002 0
M  V30 1353 H 126.16 1.2378 -0.794798 0
M  V30 1354 H 128.118 4.16341 0.267628 0
M  V30 1355 H 126.748 3.1361 0.764772 0
M  V30 1356 H 125.8 3.43385 -1.6368 0
M  V30 1357 H 127.112 4.59268 -1.94613 0
M  V30 1358 H 126.266 6.06604 -0.108032 0
M  V30 1359 H 125.005 4.86787 0.29825 0
M  V30 1360 H 124.01 5.12433 -1.9923 0
M  V30 1361 H 125.235 6.35614 -2.39107 0
M  V30 1362 H 123.181 6.55814 -0.156162 0
M  V30 1363 H 123.098 7.36977 -1.68526 0
M  V30 1364 H 124.366 7.77435 -0.567032 0
M  V30 1365 N 128.595 0.856903 1.32268 0
M  V30 1366 C 130.011 0.547061 1.49931 0
M  V30 1367 C 130.211 -0.921781 1.7918 0
M  V30 1368 O 129.267 -1.70469 1.8627 0
M  V30 1369 C 130.58 1.43599 2.64196 0
M  V30 1370 C 132.128 1.43665 2.78081 0
M  V30 1371 C 132.603 2.31085 3.95428 0
M  V30 1372 N 134.094 2.28893 4.02694 0
M  V30 1373 C 134.829 2.93262 4.92732 0
M  V30 1374 N 134.325 3.66751 5.87763 0
M  V30 1375 N 136.118 2.82638 4.85873 0
M  V30 1376 H 128.269 1.8075 1.11549 0
M  V30 1377 H 130.532 0.772144 0.549997 0
M  V30 1378 H 130.238 2.48058 2.49319 0
M  V30 1379 H 130.112 1.12502 3.60032 0
M  V30 1380 H 132.499 0.399701 2.92381 0
M  V30 1381 H 132.58 1.7878 1.82952 0
M  V30 1382 H 132.224 3.34849 3.81888 0
M  V30 1383 H 132.154 1.93302 4.89839 0
M  V30 1384 H 134.645 1.75466 3.34694 0
M  V30 1385 H 134.958 4.13027 6.53168 0
M  V30 1386 H 133.303 3.70859 5.87783 0
M  V30 1387 H 136.494 2.24774 4.10602 0
M  V30 1388 H 136.667 3.33084 5.55841 0
M  V30 1389 N 130.073 -1.45103 0.615059 0
M  V30 1390 C 131.298 -2.07064 0.117988 0
M  V30 1391 C 131.723 -1.4554 -1.19163 0
M  V30 1392 O 131.081 -0.550855 -1.72729 0
M  V30 1393 C 131.129 -3.606 -0.000288387 0
M  V30 1394 O 130.233 -3.98847 -1.04856 0
M  V30 1395 H 129.574 -0.659467 0.0774581 0
M  V30 1396 H 132.104 -1.86236 0.847186 0
M  V30 1397 H 132.114 -4.07529 -0.196091 0
M  V30 1398 H 130.789 -4.04765 0.955932 0
M  V30 1399 H 129.366 -3.63577 -0.828619 0
M  V30 1400 N 131.551 -0.354651 -1.53558 0
M  V30 1401 C 132.828 0.294281 -1.93374 0
M  V30 1402 C 133.208 1.67313 -1.28723 0
M  V30 1403 O 132.556 2.24179 -0.442247 0
M  V30 1404 C 132.766 0.355445 -3.47185 0
M  V30 1405 C 134.114 0.601007 -4.20325 0
M  V30 1406 O 135.138 0.437106 -3.53508 0
M  V30 1407 O 133.997 0.919322 -5.38712 0
M  V30 1408 H 131.091 0.174033 -0.808481 0
M  V30 1409 H 133.637 -0.406638 -1.64756 0
M  V30 1410 H 132.409 -0.611729 -3.86489 0
M  V30 1411 H 132.032 1.1027 -3.82003 0
M  V30 1412 N 133.029 1.57378 -0.0835403 0
M  V30 1413 C 134.44 1.81261 0.447358 0
M  V30 1414 C 134.791 0.998331 1.68902 0
M  V30 1415 O 133.916 0.224282 2.15235 0
M  V30 1416 C 134.511 3.28767 0.818386 0
M  V30 1417 C 133.07 3.53455 1.29409 0
M  V30 1418 C 132.217 2.75831 0.285024 0
M  V30 1419 H 135.168 1.5566 -0.309115 0
M  V30 1420 H 135.189 3.41459 1.67887 0
M  V30 1421 H 134.701 3.88006 -0.0855019 0
M  V30 1422 H 132.802 2.99534 2.21608 0
M  V30 1423 H 132.915 4.62128 1.2639 0
M  V30 1424 H 131.279 2.42947 0.764767 0
M  V30 1425 H 132.062 3.37813 -0.611341 0
M  V30 1426 N 134.507 -0.190092 1.56449 0
M  V30 1427 C 135.737 -0.92443 1.84764 0
M  V30 1428 C 136.145 -1.77146 0.664529 0
M  V30 1429 O 135.488 -1.79812 -0.375957 0
M  V30 1430 C 135.55 -1.86651 3.07248 0
M  V30 1431 C 135.214 -1.20094 4.40938 0
M  V30 1432 C 136.211 -0.575445 5.16706 0
M  V30 1433 C 133.896 -1.2033 4.87674 0
M  V30 1434 C 135.89 0.0388111 6.37388 0
M  V30 1435 C 133.577 -0.585214 6.08291 0
M  V30 1436 C 134.575 0.0347578 6.82991 0
M  V30 1437 O 134.263 0.643147 8.01323 0
M  V30 1438 H 133.995 -0.274974 0.617548 0
M  V30 1439 H 136.549 -0.200788 2.04416 0
M  V30 1440 H 134.779 -2.62998 2.83494 0
M  V30 1441 H 136.468 -2.46907 3.22167 0
M  V30 1442 H 137.234 -0.565728 4.81689 0
M  V30 1443 H 133.113 -1.67526 4.29484 0
M  V30 1444 H 136.657 0.523329 6.95634 0
M  V30 1445 H 132.554 -0.592451 6.42775 0
M  V30 1446 H 133.322 0.540545 8.16713 0
M  V30 1447 N 135.985 -1.50799 -0.457987 0
M  V30 1448 C 136.935 -1.67003 -1.55222 0
M  V30 1449 C 137.919 -0.52434 -1.52117 0
M  V30 1450 O 139.111 -0.779345 -1.58919 0
M  V30 1451 C 136.24 -1.77956 -2.93576 0
M  V30 1452 C 135.326 -2.98243 -3.01516 0
M  V30 1453 N 135.717 -4.21732 -2.79241 0
M  V30 1454 C 134.015 -2.97072 -3.32662 0
M  V30 1455 C 134.716 -5.02817 -2.92489 0
M  V30 1456 N 133.692 -4.37038 -3.23262 0
M  V30 1457 H 137.494 -2.60163 -1.36721 0
M  V30 1458 H 135.008 -1.48163 -0.664952 0
M  V30 1459 H 137.005 -1.87671 -3.72271 0
M  V30 1460 H 135.665 -0.859634 -3.13114 0
M  V30 1461 H 136.676 -4.51016 -2.54567 0
M  V30 1462 H 133.353 -2.14631 -3.58106 0
M  V30 1463 H 134.743 -6.11054 -2.79396 0
M  V30 1464 N 137.463 0.71206 -1.40597 0
M  V30 1465 C 138.709 1.47416 -1.39271 0
M  V30 1466 C 139.042 1.942 0.00388791 0
M  V30 1467 O 138.317 1.68403 0.973179 0
M  V30 1468 C 138.6 2.69774 -2.38525 0
M  V30 1469 C 138.453 2.28861 -3.87224 0
M  V30 1470 C 139.772 3.71939 -2.35264 0
M  V30 1471 H 136.891 0.534713 -0.5072 0
M  V30 1472 H 139.533 0.812375 -1.71757 0
M  V30 1473 H 137.683 3.26238 -2.10953 0
M  V30 1474 H 139.355 1.77852 -4.25636 0
M  V30 1475 H 137.598 1.60824 -4.02887 0
M  V30 1476 H 138.269 3.16584 -4.52193 0
M  V30 1477 H 140.745 3.25113 -2.59694 0
M  V30 1478 H 139.621 4.55186 -3.06753 0
M  V30 1479 H 139.882 4.20484 -1.36549 0
M  V30 1480 N 138.941 1.26152 0.944643 0
M  V30 1481 C 140.171 1.14094 1.72239 0
M  V30 1482 C 140.579 -0.306931 1.86694 0
M  V30 1483 O 139.922 -1.22222 1.3714 0
M  V30 1484 C 139.984 1.73316 3.14963 0
M  V30 1485 C 139.648 3.2239 3.23904 0
M  V30 1486 C 140.645 4.19252 3.07447 0
M  V30 1487 C 138.33 3.62788 3.47405 0
M  V30 1488 C 140.324 5.54491 3.14353 0
M  V30 1489 C 138.011 4.98162 3.53947 0
M  V30 1490 C 139.009 5.93823 3.37436 0
M  V30 1491 O 138.697 7.26732 3.43679 0
M  V30 1492 H 138.429 0.398292 0.546205 0
M  V30 1493 H 140.983 1.67201 1.19301 0
M  V30 1494 H 139.213 1.14667 3.69308 0
M  V30 1495 H 140.902 1.56214 3.74636 0
M  V30 1496 H 141.668 3.8938 2.8915 0
M  V30 1497 H 137.547 2.88816 3.59313 0
M  V30 1498 H 141.091 6.29137 3.01384 0
M  V30 1499 H 136.988 5.27695 3.71763 0
M  V30 1500 H 137.756 7.3496 3.60245 0
M  V30 1501 N 140.419 -1.14872 1.07899 0
M  V30 1502 C 141.668 -1.85135 0.800499 0
M  V30 1503 C 141.981 -1.83547 -0.676014 0
M  V30 1504 O 143.187 -2.49548 -1.06948 0
M  V30 1505 C 141.643 -3.3231 1.38197 0
M  V30 1506 C 141.251 -3.42329 2.8899 0
M  V30 1507 C 142.995 -4.0772 1.18174 0
M  V30 1508 C 140.902 -4.83684 3.403 0
M  V30 1509 H 139.832 -0.693563 0.29578 0
M  V30 1510 H 142.483 -1.29532 1.29976 0
M  V30 1511 H 140.865 -3.87618 0.810431 0
M  V30 1512 H 142.039 -2.97097 3.52236 0
M  V30 1513 H 140.354 -2.80369 3.07867 0
M  V30 1514 H 142.951 -5.12049 1.5398 0
M  V30 1515 H 143.294 -4.16124 0.12117 0
M  V30 1516 H 143.827 -3.58696 1.71994 0
M  V30 1517 H 140.566 -4.80465 4.45907 0
M  V30 1518 H 140.086 -5.29474 2.81811 0
M  V30 1519 H 141.765 -5.52558 3.36584 0
M  V30 1520 N 141.898 -0.863906 -1.31812 0
M  V30 1521 C 142.845 -0.313303 -2.28664 0
M  V30 1522 C 143.815 0.584868 -1.55462 0
M  V30 1523 O 145 0.517805 -1.83639 0
M  V30 1524 C 142.14 0.48441 -3.41683 0
M  V30 1525 C 141.253 -0.440594 -4.29747 0
M  V30 1526 C 140.388 0.370652 -5.29905 0
M  V30 1527 C 139.427 -0.551164 -6.09613 0
M  V30 1528 N 138.564 0.223462 -7.01744 0
M  V30 1529 H 143.404 -1.14444 -2.75148 0
M  V30 1530 H 140.941 -0.575769 -1.35364 0
M  V30 1531 H 142.899 0.962627 -4.05943 0
M  V30 1532 H 141.529 1.28029 -2.96325 0
M  V30 1533 H 140.581 -1.03724 -3.65986 0
M  V30 1534 H 141.893 -1.14767 -4.85417 0
M  V30 1535 H 141.047 0.911638 -5.99812 0
M  V30 1536 H 139.786 1.11105 -4.74876 0
M  V30 1537 H 138.791 -1.10396 -5.38603 0
M  V30 1538 H 140.016 -1.29032 -6.66729 0
M  V30 1539 H 137.962 0.946787 -6.49132 0
M  V30 1540 H 137.879 -0.424399 -7.54808 0
M  V30 1541 H 139.147 0.745876 -7.75923 0
M  V30 1542 N 143.376 1.44774 -0.622745 0
M  V30 1543 C 144.324 2.32387 0.0994683 0
M  V30 1544 C 145.318 1.46859 0.844326 0
M  V30 1545 O 146.524 1.63254 0.758174 0
M  V30 1546 H 142.899 0.750273 0.0509291 0
M  V30 1547 H 144.87 2.91062 -0.65767 0
M  V30 1548 C 143.619 3.30723 1.07319 0
M  V30 1549 H 142.942 3.96541 0.509462 0
M  V30 1550 H 144.382 3.94725 1.54817 0
M  V30 1551 C 142.841 2.59021 2.15429 0
M  V30 1552 O 143.371 2.38286 3.23393 0
M  V30 1553 N 141.577 2.189 1.91131 0
M  V30 1554 H 141.124 2.35964 1.03337 0
M  V30 1555 H 141.082 1.71251 2.63668 0
M  V30 1556 N 144.854 0.36279 1.53368 0
M  V30 1557 C 146.27 0.0116182 1.59596 0
M  V30 1558 C 146.47 -1.47012 1.37803 0
M  V30 1559 O 145.526 -2.23136 1.18181 0
M  V30 1560 C 146.839 0.465052 2.97082 0
M  V30 1561 C 148.387 0.419033 3.10182 0
M  V30 1562 C 148.862 0.848235 4.50077 0
M  V30 1563 N 150.353 0.803183 4.56183 0
M  V30 1564 C 151.088 1.107 5.62613 0
M  V30 1565 N 150.584 1.47996 6.76808 0
M  V30 1566 N 152.377 1.02998 5.52583 0
M  V30 1567 H 144.528 1.32775 1.65785 0
M  V30 1568 H 146.791 0.542518 0.777417 0
M  V30 1569 H 146.497 1.49892 3.18159 0
M  V30 1570 H 146.371 -0.149786 3.76902 0
M  V30 1571 H 148.758 -0.605696 2.88817 0
M  V30 1572 H 148.839 1.06933 2.32377 0
M  V30 1573 H 148.483 1.87107 4.7218 0
M  V30 1574 H 148.413 0.175218 5.26308 0
M  V30 1575 H 150.904 0.52838 3.74188 0
M  V30 1576 H 151.217 1.69613 7.53957 0
M  V30 1577 H 149.562 1.51859 6.78206 0
M  V30 1578 H 152.753 0.737817 4.62249 0
M  V30 1579 H 152.926 1.2701 6.35431 0
M  V30 1580 N 146.332 -1.57332 0.0918853 0
M  V30 1581 C 147.578 -1.94524 -0.573425 0
M  V30 1582 C 147.911 -0.973578 -1.68033 0
M  V30 1583 O 147.186 -0.00609226 -1.94499 0
M  V30 1584 C 147.469 -3.41858 -1.13161 0
M  V30 1585 C 147.322 -4.4979 -0.0299747 0
M  V30 1586 C 148.641 -3.90435 -2.03098 0
M  V30 1587 H 145.76 -0.70734 -0.206975 0
M  V30 1588 H 148.402 -1.89309 0.161942 0
M  V30 1589 H 146.552 -3.46433 -1.7583 0
M  V30 1590 H 148.224 -4.57327 0.604112 0
M  V30 1591 H 146.467 -4.291 0.636833 0
M  V30 1592 H 147.138 -5.50069 -0.461287 0
M  V30 1593 H 149.614 -3.87992 -1.50338 0
M  V30 1594 H 148.49 -4.94097 -2.39081 0
M  V30 1595 H 148.751 -3.29541 -2.94712 0
M  V30 1596 N 147.81 0.181792 -1.56548 0
M  V30 1597 C 149.035 0.920019 -1.85877 0
M  V30 1598 C 149.46 1.75494 -0.677021 0
M  V30 1599 O 148.818 1.77399 0.374056 0
M  V30 1600 C 148.866 1.78112 -3.13542 0
M  V30 1601 O 147.97 2.88152 -2.95029 0
M  V30 1602 H 147.311 0.258334 -0.611686 0
M  V30 1603 H 149.841 0.183092 -2.03779 0
M  V30 1604 H 149.851 2.18314 -3.44678 0
M  V30 1605 H 148.526 1.16777 -3.99169 0
M  V30 1606 H 147.103 2.51609 -2.75222 0
M  V30 1607 N 149.288 1.51039 0.449983 0
M  V30 1608 C 150.221 1.66105 1.56474 0
M  V30 1609 C 151.199 0.508776 1.54435 0
M  V30 1610 O 152.383 0.731005 1.73749 0
M  V30 1611 C 149.51 1.66304 2.9506 0
M  V30 1612 C 148.556 2.87346 3.15174 0
M  V30 1613 S 149.389 4.4835 2.92818 0
M  V30 1614 C 150.545 4.51274 4.33708 0
M  V30 1615 H 150.778 2.60397 1.43459 0
M  V30 1616 H 148.311 1.40565 0.638805 0
M  V30 1617 H 150.269 1.67103 3.74949 0
M  V30 1618 H 148.93 0.732108 3.05449 0
M  V30 1619 H 148.123 2.83849 4.16468 0
M  V30 1620 H 147.725 2.84223 2.43091 0
M  V30 1621 H 150.017 4.26136 5.26701 0
M  V30 1622 H 150.96 5.53017 4.42242 0
M  V30 1623 H 151.368 3.80738 4.16772 0
M  V30 1624 N 150.766 -0.704594 1.40972 0
M  V30 1625 C 152.015 -1.46018 1.39146 0
M  V30 1626 C 152.328 -1.956 0.000589254 0
M  V30 1627 O 153.534 -2.71137 -0.1403 0
M  V30 1628 C 151.99 -2.63996 2.4461 0
M  V30 1629 C 151.598 -2.21238 3.89561 0
M  V30 1630 C 153.342 -3.41677 2.51907 0
M  V30 1631 C 151.249 -3.3612 4.86598 0
M  V30 1632 H 150.179 -0.548444 0.517422 0
M  V30 1633 H 152.83 -0.765784 1.66757 0
M  V30 1634 H 151.212 -3.3566 2.10115 0
M  V30 1635 H 152.386 -1.56923 4.33257 0
M  V30 1636 H 150.701 -1.56574 3.85841 0
M  V30 1637 H 153.298 -4.27182 3.2159 0
M  V30 1638 H 153.641 -3.86247 1.55303 0
M  V30 1639 H 154.174 -2.77064 2.85448 0
M  V30 1640 H 150.913 -2.96572 5.84573 0
M  V30 1641 H 150.433 -3.99315 4.47557 0
M  V30 1642 H 152.112 -4.02029 5.06934 0
M  V30 1643 O 152.283 -1.37539 -0.846478 0
M  V30 1644 H 152.974 -1.24057 -1.4876 0
M  V30 END ATOM
M  V30 BEGIN BOND
M  V30 END BOND
M  V30 END CTAB
M  END
$$$$
