drugbank_target|Q6FEW8 Phosphoenolpyruvate-protein phosphotransferase (DB08357)
 OpenBabel12092120503D

  0  0  0     0  0            999 V3000
M  V30 BEGIN CTAB
M  V30 COUNTS 12057 12153 0 0 0
M  V30 BEGIN ATOM
M  V30 1 H -0.908 1.98254 -0.117106 0
M  V30 2 N 0 1.576 0 0
M  V30 3 C 0.933 2.03868 1.02534 0
M  V30 4 C 1.911 0.928543 1.3348 0
M  V30 5 O 3.095 1.19667 1.45644 0
M  V30 6 C 0.222 2.43627 2.35294 0
M  V30 7 C -0.732 3.65373 2.2001 0
M  V30 8 S 0.101 5.13292 1.52614 0
M  V30 9 C 1.257 5.56322 2.86805 0
M  V30 10 H 1.49 2.90518 0.631377 0
M  V30 11 H -0.977 1.52953 0.210867 0
M  V30 12 H 0.981 2.67203 3.11629 0
M  V30 13 H -0.358 1.57376 2.7183 0
M  V30 14 H -1.165 3.90944 3.18086 0
M  V30 15 H -1.563 3.418 1.51819 0
M  V30 16 H 0.729 5.58782 3.83104 0
M  V30 17 H 1.672 6.56266 2.65933 0
M  V30 18 H 2.08 4.83886 2.90714 0
M  V30 19 N 1.4781 -0.272755 1.55222 0
M  V30 20 C 2.7031 -1.02683 1.80197 0
M  V30 21 C 3.1281 -1.79142 0.573551 0
M  V30 22 O 2.4861 -1.74917 -0.476849 0
M  V30 23 C 2.5341 -1.9609 3.02624 0
M  V30 24 O 1.6381 -3.04863 2.77727 0
M  V30 25 H 0.9791 -0.293557 0.595584 0
M  V30 26 H 3.5091 -0.30159 2.02365 0
M  V30 27 H 3.5191 -2.38039 3.31363 0
M  V30 28 H 2.1941 -1.39851 3.91682 0
M  V30 29 H 0.7711 -2.67228 2.60084 0
M  V30 30 N 2.9562 -1.48159 -0.537278 0
M  V30 31 C 3.9042 -1.62573 -1.66352 0
M  V30 32 C 4.8982 -0.492366 -1.62087 0
M  V30 33 O 6.1042 -0.670847 -1.67032 0
M  V30 34 H 2.4792 -0.511992 -0.550789 0
M  V30 35 H 4.4502 -2.57176 -1.51337 0
M  V30 36 C 3.1992 -1.67583 -3.04649 0
M  V30 37 H 2.5222 -2.54151 -3.08622 0
M  V30 38 H 3.9622 -1.81713 -3.83088 0
M  V30 39 C 2.4212 -0.413039 -3.34358 0
M  V30 40 O 2.9512 0.477259 -3.98855 0
M  V30 41 N 1.1572 -0.286961 -2.8918 0
M  V30 42 H 0.7042 -1.01241 -2.36871 0
M  V30 43 H 0.6622 0.556963 -3.09427 0
M  V30 44 N 4.4343 0.785586 -1.36625 0
M  V30 45 C 5.3673 1.90509 -1.25625 0
M  V30 46 C 6.3453 1.62 -0.139607 0
M  V30 47 O 7.5293 1.8591 -0.31141 0
M  V30 48 C 4.6563 3.25419 -0.939158 0
M  V30 49 C 3.7023 3.72856 -2.07077 0
M  V30 50 S 4.5353 3.88162 -3.68904 0
M  V30 51 C 5.6913 5.25942 -3.39317 0
M  V30 52 H 5.9243 1.99549 -2.20381 0
M  V30 53 H 3.4573 0.945226 -1.22085 0
M  V30 54 H 5.4153 4.03346 -0.763029 0
M  V30 55 H 4.0763 3.14099 -0.00931402 0
M  V30 56 H 3.2693 4.70624 -1.80357 0
M  V30 57 H 2.8713 3.01989 -2.20632 0
M  V30 58 H 5.1633 6.10651 -2.93447 0
M  V30 59 H 6.1063 5.57668 -4.36363 0
M  V30 60 H 6.5143 4.93224 -2.74573 0
M  V30 61 N 5.9124 1.20967 1.01018 0
M  V30 62 C 6.8444 0.922059 2.09835 0
M  V30 63 C 7.8574 -0.0927106 1.62536 0
M  V30 64 O 9.0464 0.139127 1.77957 0
M  V30 65 C 6.1464 0.362004 3.36961 0
M  V30 66 C 5.3194 1.42986 4.13369 0
M  V30 67 C 4.3784 0.879976 5.1879 0
M  V30 68 O 3.4044 1.56219 5.47343 0
M  V30 69 N 4.6064 -0.307396 5.79686 0
M  V30 70 H 7.3714 1.8588 2.35093 0
M  V30 71 H 4.9324 1.11422 1.1746 0
M  V30 72 H 6.9244 -0.0201474 4.04695 0
M  V30 73 H 5.4944 -0.479437 3.08902 0
M  V30 74 H 4.7144 1.98608 3.40512 0
M  V30 75 H 6.0024 2.14885 4.61196 0
M  V30 76 H 5.4004 -0.878796 5.58832 0
M  V30 77 H 3.9574 -0.631115 6.48737 0
M  V30 78 N 7.3905 -1.2043 1.01659 0
M  V30 79 C 8.3205 -2.25466 0.607226 0
M  V30 80 C 9.3015 -1.65853 -0.377716 0
M  V30 81 O 10.4865 -1.92409 -0.263149 0
M  V30 82 C 7.6165 -3.47256 -0.0552949 0
M  V30 83 C 6.5705 -4.19462 0.850632 0
M  V30 84 C 5.8965 -5.34673 0.0538859 0
M  V30 85 C 7.1965 -4.75603 2.15868 0
M  V30 86 H 8.8905 -2.59962 1.48526 0
M  V30 87 H 6.4365 -1.2496 0.715605 0
M  V30 88 H 8.3895 -4.19917 -0.353233 0
M  V30 89 H 7.1135 -3.11924 -0.968045 0
M  V30 90 H 5.7725 -3.48667 1.13257 0
M  V30 91 H 5.4205 -4.95585 -0.860514 0
M  V30 92 H 5.1205 -5.83913 0.657192 0
M  V30 93 H 6.6445 -6.10138 -0.237598 0
M  V30 94 H 8.0585 -5.40083 1.92311 0
M  V30 95 H 6.4555 -5.3528 2.71284 0
M  V30 96 H 7.5255 -3.94346 2.82169 0
M  V30 97 N 8.8686 -0.792821 -1.36206 0
M  V30 98 C 10.1456 -0.290627 -1.93429 0
M  V30 99 C 10.5256 1.21773 -1.72437 0
M  V30 100 O 9.8736 2.0108 -1.08531 0
M  V30 101 C 10.0836 -0.686973 -3.42172 0
M  V30 102 C 11.4316 -0.668643 -4.19302 0
M  V30 103 O 12.4556 -0.627658 -3.50626 0
M  V30 104 O 11.3146 -0.714597 -5.41808 0
M  V30 105 H 8.4086 -0.0727927 -0.82379 0
M  V30 106 H 10.9546 -0.875593 -1.45367 0
M  V30 107 H 9.7266 -1.72711 -3.51122 0
M  V30 108 H 9.3496 -0.0760733 -3.97527 0
M  V30 109 N 10.3467 1.47872 -0.545128 0
M  V30 110 C 11.5747 2.06889 -0.021084 0
M  V30 111 C 11.9897 1.39955 1.2672 0
M  V30 112 O 11.3467 0.492036 1.75742 0
M  V30 113 C 11.3977 3.60996 0.190817 0
M  V30 114 O 11.1187 4.25419 -1.04644 0
M  V30 115 C 12.6197 4.36849 0.753521 0
M  V30 116 H 9.8397 0.669785 -0.0403635 0
M  V30 117 H 12.3837 1.90049 -0.755095 0
M  V30 118 H 10.5387 3.77391 0.87492 0
M  V30 119 H 10.9527 5.17785 -0.836611 0
M  V30 120 H 12.4267 5.45399 0.851139 0
M  V30 121 H 12.9037 4.02306 1.762 0
M  V30 122 H 13.5097 4.25169 0.105503 0
M  V30 123 N 11.8248 0.280983 1.55075 0
M  V30 124 C 12.7548 -0.597469 2.25727 0
M  V30 125 C 13.7358 -1.15417 1.24952 0
M  V30 126 O 14.9208 -1.18722 1.53684 0
M  V30 127 C 12.0508 -1.7789 2.98283 0
M  V30 128 C 11.0048 -1.35347 4.06036 0
M  V30 129 C 10.3308 -2.61846 4.66198 0
M  V30 130 C 11.6308 -0.499354 5.19907 0
M  V30 131 H 13.3248 -0.00824265 2.99399 0
M  V30 132 H 10.8708 -0.0025244 1.44 0
M  V30 133 H 12.8238 -2.39937 3.46422 0
M  V30 134 H 11.5478 -2.39405 2.22155 0
M  V30 135 H 10.2068 -0.756156 3.58717 0
M  V30 136 H 9.8548 -3.21632 3.86732 0
M  V30 137 H 9.5548 -2.3409 5.38958 0
M  V30 138 H 11.0788 -3.24732 5.1709 0
M  V30 139 H 12.4928 -1.02498 5.64063 0
M  V30 140 H 10.8898 -0.316424 5.99265 0
M  V30 141 H 11.9598 0.480459 4.82514 0
M  V30 142 N 13.3029 -1.57598 0.00835791 0
M  V30 143 C 14.7189 -1.55764 -0.347822 0
M  V30 144 C 14.9189 -1.01186 -1.74252 0
M  V30 145 O 13.9749 -0.649371 -2.44007 0
M  V30 146 C 15.2879 -2.99927 -0.215407 0
M  V30 147 C 16.8359 -3.11656 -0.289725 0
M  V30 148 C 17.3109 -4.57621 -0.18634 0
M  V30 149 N 18.8019 -4.62557 -0.243978 0
M  V30 150 C 19.5369 -5.73094 -0.18745 0
M  V30 151 N 19.0329 -6.92753 -0.0810331 0
M  V30 152 N 20.8259 -5.61588 -0.239925 0
M  V30 153 H 12.9769 -1.91411 0.92062 0
M  V30 154 H 15.2399 -0.879562 0.353659 0
M  V30 155 H 14.9459 -3.43729 0.744512 0
M  V30 156 H 14.8199 -3.63865 -0.994097 0
M  V30 157 H 17.2069 -2.67779 -1.24009 0
M  V30 158 H 17.2879 -2.5048 0.51898 0
M  V30 159 H 16.9319 -5.02174 0.760519 0
M  V30 160 H 16.8619 -5.16752 -1.01364 0
M  V30 161 H 19.3529 -3.76481 -0.327217 0
M  V30 162 H 19.6659 -7.72787 -0.0440241 0
M  V30 163 H 18.0109 -6.94984 -0.0465419 0
M  V30 164 H 21.2019 -4.66996 -0.321317 0
M  V30 165 H 21.3749 -6.47714 -0.192407 0
M  V30 166 N 14.781 0.264519 -1.55364 0
M  V30 167 C 16.197 0.61215 -1.47394 0
M  V30 168 C 16.397 1.89134 -0.695018 0
M  V30 169 O 15.453 2.51563 -0.217275 0
M  V30 170 C 16.766 0.731235 -2.91674 0
M  V30 171 C 18.314 0.82473 -3.01939 0
M  V30 172 C 18.789 0.975522 -4.4749 0
M  V30 173 N 20.28 1.04083 -4.51354 0
M  V30 174 C 21.015 1.17646 -5.61201 0
M  V30 175 N 20.511 1.27874 -6.80896 0
M  V30 176 N 22.304 1.20823 -5.48961 0
M  V30 177 H 14.455 -0.575456 -2.04456 0
M  V30 178 H 16.718 -0.196099 -0.927496 0
M  V30 179 H 16.424 -0.138392 -3.51428 0
M  V30 180 H 16.298 1.60883 -3.41169 0
M  V30 181 H 18.685 1.68482 -2.42276 0
M  V30 182 H 18.766 -0.0776479 -2.55682 0
M  V30 183 H 18.41 0.120058 -5.07758 0
M  V30 184 H 18.34 1.89268 -4.91412 0
M  V30 185 H 20.831 0.973846 -3.65136 0
M  V30 186 H 21.144 1.38081 -7.60364 0
M  V30 187 H 19.489 1.24863 -6.83692 0
M  V30 188 H 22.68 1.12469 -4.54388 0
M  V30 189 H 22.853 1.31049 -6.3461 0
M  V30 190 N 16.2591 1.48442 0.529413 0
M  V30 191 C 17.5081 1.55742 1.28169 0
M  V30 192 C 17.8211 0.236511 1.94165 0
M  V30 193 O 19.0271 0.187761 2.7085 0
M  V30 194 C 17.4831 2.74667 2.32564 0
M  V30 195 C 17.0911 4.13402 1.72636 0
M  V30 196 C 18.8351 2.9128 3.08798 0
M  V30 197 C 16.7421 5.23587 2.74975 0
M  V30 198 H 15.6721 0.579796 0.48203 0
M  V30 199 H 18.3231 1.74776 0.559056 0
M  V30 200 H 16.7051 2.49067 3.07866 0
M  V30 201 H 17.8791 4.49022 1.03519 0
M  V30 202 H 16.1941 4.0191 1.08892 0
M  V30 203 H 18.7911 3.70767 3.85274 0
M  V30 204 H 19.1341 2.00757 3.64695 0
M  V30 205 H 19.6671 3.16782 2.40611 0
M  V30 206 H 16.4061 6.16076 2.23897 0
M  V30 207 H 15.9261 4.92454 3.42417 0
M  V30 208 H 17.6051 5.51724 3.37949 0
M  V30 209 N 17.7372 -0.778329 1.37039 0
M  V30 210 C 18.9832 -1.53892 1.32079 0
M  V30 211 C 19.3162 -1.9396 -0.0965386 0
M  V30 212 O 18.5912 -1.63568 -1.05242 0
M  V30 213 C 18.8742 -2.80847 2.25382 0
M  V30 214 C 18.7272 -2.47076 3.75864 0
M  V30 215 C 20.0462 -3.82741 2.1725 0
M  V30 216 H 17.1652 -0.558303 0.48111 0
M  V30 217 H 19.8072 -0.893397 1.67685 0
M  V30 218 H 17.9572 -3.35931 1.95148 0
M  V30 219 H 19.6292 -1.97957 4.16666 0
M  V30 220 H 17.8722 -1.79863 3.94755 0
M  V30 221 H 18.5432 -3.37798 4.36574 0
M  V30 222 H 21.0192 -3.37133 2.43887 0
M  V30 223 H 19.8952 -4.69303 2.84686 0
M  V30 224 H 20.1562 -4.2652 1.16331 0
M  V30 225 N 19.2153 -1.21501 -1.00376 0
M  V30 226 C 20.1473 -0.933174 -2.09343 0
M  V30 227 C 21.1603 0.0840896 -1.62583 0
M  V30 228 O 22.3493 -0.148563 -1.77881 0
M  V30 229 C 19.4493 -0.379869 -3.36764 0
M  V30 230 C 18.6223 -1.45176 -4.12605 0
M  V30 231 C 17.6813 -0.907476 -5.18316 0
M  V30 232 O 16.7073 -1.5912 -5.46507 0
M  V30 233 N 17.9093 0.276649 -5.7984 0
M  V30 234 H 20.6743 -1.87124 -2.34104 0
M  V30 235 H 18.2353 -1.12043 -1.16867 0
M  V30 236 H 20.2273 -0.00131488 -4.047 0
M  V30 237 H 18.7973 0.463048 -3.09151 0
M  V30 238 H 18.0173 -2.00411 -3.39454 0
M  V30 239 H 19.3053 -2.17328 -4.6005 0
M  V30 240 H 18.7033 0.849147 -5.59291 0
M  V30 241 H 17.2603 0.596702 -6.49063 0
M  V30 242 N 20.6934 1.19889 -1.02296 0
M  V30 243 C 21.6034 2.26571 -0.608508 0
M  V30 244 C 22.6194 1.70299 0.356964 0
M  V30 245 O 23.7954 2.00235 0.216326 0
M  V30 246 C 20.8604 3.46677 0.0402814 0
M  V30 247 C 19.9214 4.18153 -0.97194 0
M  V30 248 C 19.1544 5.32525 -0.354016 0
M  V30 249 O 19.3774 5.64112 0.844604 0
M  V30 250 O 18.3114 5.92242 -1.07391 0
M  V30 251 H 22.1374 2.64251 -1.49684 0
M  V30 252 H 19.7224 1.26629 -0.792809 0
M  V30 253 H 21.6044 4.19475 0.402324 0
M  V30 254 H 20.2794 3.10858 0.902707 0
M  V30 255 H 19.1864 3.47499 -1.38546 0
M  V30 256 H 20.5194 4.57927 -1.80454 0
M  V30 257 N 22.1715 0.800033 1.35784 0
M  V30 258 C 23.4205 0.37387 1.98205 0
M  V30 259 C 23.7335 -1.06302 1.64193 0
M  V30 260 O 24.9395 -1.59198 2.19928 0
M  V30 261 C 23.3955 0.617532 3.54562 0
M  V30 262 C 23.0035 2.06654 3.9749 0
M  V30 263 C 24.7475 0.256401 4.23725 0
M  V30 264 C 22.6545 2.2563 5.46667 0
M  V30 265 H 21.5845 0.136055 0.741623 0
M  V30 266 H 24.2355 0.983166 1.54939 0
M  V30 267 H 22.6175 -0.0616248 3.95952 0
M  V30 268 H 23.7915 2.78296 3.67271 0
M  V30 269 H 22.1065 2.38691 3.41197 0
M  V30 270 H 24.7035 0.376318 5.33374 0
M  V30 271 H 25.0465 -0.796692 4.08606 0
M  V30 272 H 25.5795 0.889214 3.87734 0
M  V30 273 H 22.3185 3.2936 5.66747 0
M  V30 274 H 21.8385 1.58504 5.78478 0
M  V30 275 H 23.5175 2.06861 6.1304 0
M  V30 276 N 23.6496 -1.47581 0.552962 0
M  V30 277 C 24.5976 -2.31648 -0.21023 0
M  V30 278 C 25.5916 -1.42663 -0.913432 0
M  V30 279 O 26.7976 -1.5945 -0.835201 0
M  V30 280 H 23.1726 -0.746989 -0.0866676 0
M  V30 281 H 25.1436 -2.93869 0.518051 0
M  V30 282 C 23.8926 -3.25226 -1.22976 0
M  V30 283 H 23.2156 -3.93658 -0.698077 0
M  V30 284 H 24.6556 -3.86889 -1.73473 0
M  V30 285 C 23.1146 -2.48448 -2.27542 0
M  V30 286 O 23.6446 -2.22585 -3.34393 0
M  V30 287 N 21.8506 -2.09532 -2.01357 0
M  V30 288 H 21.3976 -2.30765 -1.14478 0
M  V30 289 H 21.3556 -1.58476 -2.71538 0
M  V30 290 N 25.1277 -0.289203 -1.54924 0
M  V30 291 C 26.3527 0.329299 -2.04769 0
M  V30 292 C 26.7777 1.4763 -1.16564 0
M  V30 293 O 26.1357 1.80527 -0.167186 0
M  V30 294 C 26.1837 0.774438 -3.52186 0
M  V30 295 O 25.2877 1.88038 -3.67036 0
M  V30 296 H 24.6287 0.0659259 -0.660719 0
M  V30 297 H 27.1587 -0.42761 -2.00082 0
M  V30 298 H 27.1687 1.06642 -3.93816 0
M  V30 299 H 25.8437 -0.0646707 -4.1585 0
M  V30 300 H 24.4207 1.58985 -3.3731 0
M  V30 301 N 26.6058 1.57591 -0.0167156 0
M  V30 302 C 27.8308 1.9598 0.67872 0
M  V30 303 C 28.2558 0.892546 1.65575 0
M  V30 304 O 27.6138 -0.147772 1.80697 0
M  V30 305 C 27.6618 3.33468 1.37227 0
M  V30 306 O 26.7658 3.28954 2.48722 0
M  V30 307 H 26.1068 0.639339 0.17928 0
M  V30 308 H 28.6368 2.04463 -0.0748802 0
M  V30 309 H 28.6468 3.69417 1.7319 0
M  V30 310 H 27.3218 4.10694 0.656007 0
M  V30 311 H 25.8988 3.04705 2.14963 0
M  V30 312 N 28.0839 -0.256276 1.55502 0
M  V30 313 C 29.3299 -0.987079 1.77157 0
M  V30 314 C 29.6629 -1.85327 0.580315 0
M  V30 315 O 28.9379 -1.89874 -0.421686 0
M  V30 316 C 29.2209 -1.85553 3.08613 0
M  V30 317 C 29.0739 -1.01816 4.38125 0
M  V30 318 C 30.3929 -2.8397 3.36228 0
M  V30 319 H 27.5119 -0.357428 0.644526 0
M  V30 320 H 30.1539 -0.258239 1.88237 0
M  V30 321 H 28.3039 -2.47695 2.99298 0
M  V30 322 H 29.9759 -0.416159 4.59419 0
M  V30 323 H 28.2189 -0.322178 4.32602 0
M  V30 324 H 28.8899 -1.65939 5.26468 0
M  V30 325 H 31.3659 -2.31964 3.45445 0
M  V30 326 H 30.2419 -3.41864 4.29442 0
M  V30 327 H 30.5029 -3.59955 2.56681 0
M  V30 328 N 29.562 -1.4872 -0.521534 0
M  V30 329 C 30.787 -1.61101 -1.30618 0
M  V30 330 C 31.212 -0.274611 -1.86085 0
M  V30 331 O 30.57 0.754937 -1.64834 0
M  V30 332 C 30.618 -2.66709 -2.4269 0
M  V30 333 O 29.722 -2.24456 -3.45967 0
M  V30 334 H 29.063 -0.539921 -0.386499 0
M  V30 335 H 31.593 -1.94767 -0.626645 0
M  V30 336 H 31.603 -2.88245 -2.88754 0
M  V30 337 H 30.278 -3.63727 -2.01682 0
M  V30 338 H 28.855 -2.13168 -3.05964 0
M  V30 339 N 31.0401 0.771051 -1.3745 0
M  V30 340 C 31.9701 1.89827 -1.3597 0
M  V30 341 C 32.9511 1.68562 -0.228216 0
M  V30 342 O 34.1361 1.8941 -0.428675 0
M  V30 343 C 31.2661 3.2712 -1.16662 0
M  V30 344 C 30.2201 3.6295 -2.2683 0
M  V30 345 C 29.5461 4.98791 -1.92644 0
M  V30 346 C 30.8461 3.69627 -3.69017 0
M  V30 347 H 32.5401 1.91323 -2.30295 0
M  V30 348 H 30.0861 0.919082 -1.10855 0
M  V30 349 H 32.0391 4.05615 -1.14256 0
M  V30 350 H 30.7631 3.26059 -0.187926 0
M  V30 351 H 29.4221 2.86763 -2.28392 0
M  V30 352 H 29.0701 4.94271 -0.933021 0
M  V30 353 H 28.7701 5.23733 -2.66416 0
M  V30 354 H 30.2941 5.79685 -1.91826 0
M  V30 355 H 31.7081 4.38273 -3.69581 0
M  V30 356 H 30.1051 4.06067 -4.41848 0
M  V30 357 H 31.1751 2.70273 -4.02592 0
M  V30 358 N 32.5182 1.22032 0.997298 0
M  V30 359 C 33.4682 0.953838 2.07089 0
M  V30 360 C 34.4522 -0.0938669 1.60626 0
M  V30 361 O 35.6442 0.116078 1.76619 0
M  V30 362 C 32.7732 0.528726 3.39204 0
M  V30 363 C 31.8592 1.61092 3.92314 0
M  V30 364 N 32.2502 2.83768 4.18699 0
M  V30 365 C 30.5482 1.48158 4.20672 0
M  V30 366 C 31.2492 3.53715 4.61802 0
M  V30 367 N 30.2252 2.81174 4.65233 0
M  V30 368 H 34.0272 1.88577 2.25424 0
M  V30 369 H 31.5412 1.11719 1.17867 0
M  V30 370 H 33.5382 0.31915 4.15677 0
M  V30 371 H 32.1982 -0.39635 3.22272 0
M  V30 372 H 33.2092 3.20238 4.07023 0
M  V30 373 H 29.8862 0.622369 4.12835 0
M  V30 374 H 31.2762 4.58793 4.90875 0
M  V30 375 N 33.9963 -1.19345 1.0293 0
M  V30 376 C 35.2733 -1.84811 0.640642 0
M  V30 377 C 35.6533 -1.91855 -0.88062 0
M  V30 378 O 35.0013 -1.43587 -1.7775 0
M  V30 379 C 35.2113 -3.23755 1.30321 0
M  V30 380 C 36.5593 -3.99912 1.42673 0
M  V30 381 O 37.5833 -3.33155 1.26041 0
M  V30 382 O 36.4423 -5.19494 1.6967 0
M  V30 383 H 33.5363 -0.796443 0.222726 0
M  V30 384 H 36.0823 -1.26831 1.12748 0
M  V30 385 H 34.8543 -3.13466 2.34211 0
M  V30 386 H 34.4773 -3.89381 0.804261 0
M  V30 387 N 35.4744 -0.807222 -1.35358 0
M  V30 388 C 36.6994 -0.399309 -2.0352 0
M  V30 389 C 37.1244 0.981986 -1.60433 0
M  V30 390 O 36.4824 1.63601 -0.781299 0
M  V30 391 C 36.5304 -0.491552 -3.57234 0
M  V30 392 O 35.6344 0.494754 -4.09421 0
M  V30 393 H 34.9754 -0.166682 -0.642739 0
M  V30 394 H 37.5054 -1.09328 -1.72941 0
M  V30 395 H 37.5154 -0.361588 -4.06395 0
M  V30 396 H 36.1904 -1.49907 -3.87944 0
M  V30 397 H 34.7674 0.324977 -3.71481 0
M  V30 398 N 36.9525 1.47285 -0.560781 0
M  V30 399 C 37.8825 2.32857 0.173105 0
M  V30 400 C 38.8635 1.44009 0.905281 0
M  V30 401 O 40.0485 1.7286 0.885046 0
M  V30 402 C 37.1785 3.25861 1.20133 0
M  V30 403 C 36.1325 4.23978 0.585388 0
M  V30 404 C 35.4585 5.06332 1.7185 0
M  V30 405 C 36.7585 5.20242 -0.463178 0
M  V30 406 H 38.4525 2.94466 -0.541307 0
M  V30 407 H 35.9985 1.41601 -0.261764 0
M  V30 408 H 37.9515 3.84569 1.72293 0
M  V30 409 H 36.6755 2.62315 1.94573 0
M  V30 410 H 35.3345 3.66501 0.085054 0
M  V30 411 H 34.9825 4.39186 2.45203 0
M  V30 412 H 34.6825 5.72762 1.31213 0
M  V30 413 H 36.2065 5.67899 2.24329 0
M  V30 414 H 37.6205 5.73293 -0.027502 0
M  V30 415 H 36.0175 5.94896 -0.788627 0
M  V30 416 H 37.0875 4.65504 -1.35773 0
M  V30 417 N 38.4306 0.297415 1.54768 0
M  V30 418 C 39.7076 -0.365847 1.92148 0
M  V30 419 C 40.0876 -1.71975 1.22424 0
M  V30 420 O 39.4356 -2.25666 0.358739 0
M  V30 421 C 39.6456 -0.484056 3.45627 0
M  V30 422 C 40.9936 -0.756594 4.17805 0
M  V30 423 O 42.0176 -0.568007 3.51642 0
M  V30 424 O 40.8766 -1.11863 5.34929 0
M  V30 425 H 37.9706 -0.203919 0.801465 0
M  V30 426 H 40.5166 0.34521 1.66152 0
M  V30 427 H 39.2886 0.467865 3.88493 0
M  V30 428 H 38.9116 -1.24372 3.77647 0
M  V30 429 N 39.9087 -1.5758 0.0250728 0
M  V30 430 C 41.1577 -1.90811 -0.653767 0
M  V30 431 C 41.4707 -0.90273 -1.73523 0
M  V30 432 O 42.6767 -1.12614 -2.47043 0
M  V30 433 C 41.1327 -3.38804 -1.21409 0
M  V30 434 C 40.7407 -4.47692 -0.166126 0
M  V30 435 C 42.4847 -3.81108 -1.86967 0
M  V30 436 C 40.3917 -5.86779 -0.737856 0
M  V30 437 H 39.3217 -0.712063 -0.247956 0
M  V30 438 H 41.9727 -1.83281 0.0897137 0
M  V30 439 H 40.3547 -3.41252 -2.00905 0
M  V30 440 H 41.5287 -4.56797 0.606079 0
M  V30 441 H 39.8437 -4.14565 0.390466 0
M  V30 442 H 42.4407 -4.82375 -2.30692 0
M  V30 443 H 42.7837 -3.15953 -2.71071 0
M  V30 444 H 43.3167 -3.81065 -1.14167 0
M  V30 445 H 40.0557 -6.55468 0.0649577 0
M  V30 446 H 39.5757 -5.81288 -1.47864 0
M  V30 447 H 41.2547 -6.35223 -1.22884 0
M  V30 448 N 41.3868 0.248026 -1.55636 0
M  V30 449 C 42.3198 1.3334 -1.85191 0
M  V30 450 C 43.2978 1.46429 -0.706906 0
M  V30 451 O 44.4818 1.62662 -0.952544 0
M  V30 452 C 41.6088 2.70703 -2.03562 0
M  V30 453 C 40.6548 2.7477 -3.26196 0
M  V30 454 S 41.4878 2.31493 -4.82878 0
M  V30 455 C 42.6438 3.70783 -5.04253 0
M  V30 456 H 42.8768 1.08072 -2.76962 0
M  V30 457 H 40.4098 0.448952 -1.47729 0
M  V30 458 H 42.3678 3.49798 -2.1483 0
M  V30 459 H 41.0288 2.9321 -1.12635 0
M  V30 460 H 40.2218 3.75648 -3.36013 0
M  V30 461 H 39.8238 2.03719 -3.13647 0
M  V30 462 H 42.1158 4.6627 -4.91527 0
M  V30 463 H 43.0588 3.65901 -6.06236 0
M  V30 464 H 43.4668 3.63244 -4.32105 0
M  V30 465 N 42.8649 1.48995 0.513639 0
M  V30 466 C 44.1109 1.58076 1.27042 0
M  V30 467 C 44.4439 0.261026 1.92438 0
M  V30 468 O 43.7189 -0.734393 1.80103 0
M  V30 469 C 44.0019 2.73091 2.34719 0
M  V30 470 C 43.8549 4.14821 1.73907 0
M  V30 471 C 45.1739 2.83796 3.36375 0
M  V30 472 H 42.2929 0.575391 0.460536 0
M  V30 473 H 44.9349 1.81232 0.570516 0
M  V30 474 H 43.0849 2.53479 2.94416 0
M  V30 475 H 44.7569 4.45917 1.18135 0
M  V30 476 H 42.9999 4.21058 1.0437 0
M  V30 477 H 43.6709 4.91147 2.51949 0
M  V30 478 H 46.1469 3.01611 2.86653 0
M  V30 479 H 45.0229 3.65971 4.09093 0
M  V30 480 H 45.2839 1.92624 3.9793 0
M  V30 481 N 44.343 -0.763751 1.37857 0
M  V30 482 C 45.291 -1.89864 1.34367 0
M  V30 483 C 46.285 -1.67816 0.231143 0
M  V30 484 O 47.491 -1.75508 0.399617 0
M  V30 485 H 43.866 -0.624501 0.41893 0
M  V30 486 H 45.837 -1.89925 2.30155 0
M  V30 487 C 44.586 -3.27227 1.1755 0
M  V30 488 H 43.909 -3.44773 2.02414 0
M  V30 489 H 45.349 -4.06911 1.1916 0
M  V30 490 C 43.808 -3.36692 -0.118311 0
M  V30 491 O 44.338 -3.86374 -1.09902 0
M  V30 492 N 42.544 -2.90092 -0.171717 0
M  V30 493 H 42.091 -2.49853 0.627012 0
M  V30 494 H 42.049 -2.96806 -1.03699 0
M  V30 495 N 45.8211 -1.22559 -0.990812 0
M  V30 496 C 46.7531 -0.955325 -2.08342 0
M  V30 497 C 47.7661 0.0668408 -1.62663 0
M  V30 498 O 48.9551 -0.167421 -1.77713 0
M  V30 499 C 46.0551 -0.415566 -3.36342 0
M  V30 500 C 45.2281 -1.49544 -4.11042 0
M  V30 501 C 44.2871 -0.962399 -5.17324 0
M  V30 502 O 43.3131 -1.64907 -5.44788 0
M  V30 503 N 44.5151 0.215134 -5.80101 0
M  V30 504 H 47.2801 -1.89596 -2.32106 0
M  V30 505 H 44.8411 -1.13276 -1.15673 0
M  V30 506 H 46.8331 -0.0442386 -4.04676 0
M  V30 507 H 45.4031 0.430232 -3.09625 0
M  V30 508 H 44.6231 -2.04 -3.37309 0
M  V30 509 H 45.9111 -2.22195 -4.57719 0
M  V30 510 H 45.3091 0.789779 -5.6016 0
M  V30 511 H 43.8661 0.527826 -6.49659 0
M  V30 512 N 47.2992 1.18797 -1.03562 0
M  V30 513 C 48.5452 1.8893 -0.737113 0
M  V30 514 C 48.8782 1.79837 0.732956 0
M  V30 515 O 48.1532 1.19525 1.5344 0
M  V30 516 C 48.4362 3.39607 -1.19745 0
M  V30 517 C 48.2892 3.57537 -2.72924 0
M  V30 518 C 49.6082 4.33069 -0.783526 0
M  V30 519 H 46.7272 0.686057 -0.269249 0
M  V30 520 H 49.3692 1.39797 -1.28673 0
M  V30 521 H 47.5192 3.81583 -0.729855 0
M  V30 522 H 49.1912 3.24688 -3.27682 0
M  V30 523 H 47.4342 3.00363 -3.12993 0
M  V30 524 H 48.1052 4.63238 -3.00191 0
M  V30 525 H 50.5812 3.98846 -1.18581 0
M  V30 526 H 49.4572 5.3707 -1.13343 0
M  V30 527 H 49.7182 4.40986 0.313681 0
M  V30 528 N 48.7773 0.814389 1.34928 0
M  V30 529 C 49.7403 0.235759 2.27984 0
M  V30 530 C 50.7403 -0.581412 1.49921 0
M  V30 531 O 51.9303 -0.398758 1.69575 0
M  V30 532 C 49.0623 -0.670433 3.34242 0
M  V30 533 H 50.2553 1.05659 2.80671 0
M  V30 534 H 47.8083 0.585614 1.44915 0
M  V30 535 H 48.5433 -1.51466 2.86755 0
M  V30 536 H 48.3283 -0.0860822 3.92005 0
M  V30 537 H 49.8183 -1.06935 4.03676 0
M  V30 538 N 50.2554 -1.46986 0.568584 0
M  V30 539 C 51.5324 -1.95592 -0.0174074 0
M  V30 540 C 51.9124 -1.51124 -1.47393 0
M  V30 541 O 51.2604 -0.755329 -2.15655 0
M  V30 542 C 51.4704 -3.48719 0.139913 0
M  V30 543 C 52.8184 -4.246 0.000426376 0
M  V30 544 O 53.8424 -3.56135 0.0680316 0
M  V30 545 O 52.7014 -5.46302 -0.146988 0
M  V30 546 H 49.7954 -0.82498 -0.0577599 0
M  V30 547 H 52.3414 -1.57335 0.635909 0
M  V30 548 H 51.1134 -3.73927 1.15301 0
M  V30 549 H 50.7364 -3.93771 -0.550491 0
M  V30 550 N 51.7335 -0.305618 -1.54608 0
M  V30 551 C 52.6965 0.555591 -2.22364 0
M  V30 552 C 53.6965 1.05768 -1.21119 0
M  V30 553 O 54.8865 0.952972 -1.45822 0
M  V30 554 C 52.0185 1.76974 -2.91364 0
M  V30 555 H 53.2115 -0.0364572 -2.99878 0
M  V30 556 H 50.7645 -0.0565007 -1.56198 0
M  V30 557 H 51.4995 2.40151 -2.17941 0
M  V30 558 H 51.2845 1.41732 -3.65588 0
M  V30 559 H 52.7745 2.38148 -3.43038 0
M  V30 560 N 53.2116 1.57565 -0.0334293 0
M  V30 561 C 54.1446 2.05997 0.981866 0
M  V30 562 C 55.1226 0.956647 1.3148 0
M  V30 563 O 56.3066 1.22729 1.43073 0
M  V30 564 C 53.4336 2.48564 2.30074 0
M  V30 565 C 52.4796 3.69958 2.12211 0
M  V30 566 S 53.3126 5.16414 1.41692 0
M  V30 567 C 54.4686 5.6228 2.7494 0
M  V30 568 H 54.7016 2.91792 0.569612 0
M  V30 569 H 52.2346 1.53366 0.178376 0
M  V30 570 H 54.1926 2.73753 3.05892 0
M  V30 571 H 52.8536 1.63106 2.68431 0
M  V30 572 H 52.0466 3.97603 3.09722 0
M  V30 573 H 51.6486 3.44943 1.44535 0
M  V30 574 H 53.9406 5.66783 3.71165 0
M  V30 575 H 54.8836 6.61759 2.51953 0
M  V30 576 H 55.2916 4.89944 2.80384 0
M  V30 577 N 54.6897 -0.239769 1.55765 0
M  V30 578 C 55.6367 -1.29696 1.90913 0
M  V30 579 C 56.6067 -1.47478 0.764164 0
M  V30 580 O 57.7917 -1.61345 1.01845 0
M  V30 581 C 54.9317 -2.64598 2.21544 0
M  V30 582 C 54.0447 -2.54765 3.48882 0
M  V30 583 C 53.1797 -3.82069 3.69049 0
M  V30 584 C 52.2187 -3.66883 4.89963 0
M  V30 585 N 51.3557 -4.86094 5.06614 0
M  V30 586 H 56.1957 -0.990224 2.81067 0
M  V30 587 H 53.7327 -0.477684 1.39128 0
M  V30 588 H 55.6907 -3.43132 2.3731 0
M  V30 589 H 54.3207 -2.93405 1.34585 0
M  V30 590 H 53.3727 -1.67763 3.41409 0
M  V30 591 H 54.6847 -2.39457 4.37563 0
M  V30 592 H 53.8387 -4.69046 3.84812 0
M  V30 593 H 52.5777 -4.00282 2.78614 0
M  V30 594 H 51.5827 -2.78289 4.74168 0
M  V30 595 H 52.8077 -3.50157 5.81865 0
M  V30 596 H 50.7537 -5.04655 4.19117 0
M  V30 597 H 50.6707 -4.73443 5.89396 0
M  V30 598 H 51.9387 -5.74549 5.26795 0
M  V30 599 N 56.1678 -1.49265 -0.50573 0
M  V30 600 C 57.4138 -1.58748 -1.26202 0
M  V30 601 C 57.7468 -0.271227 -1.92297 0
M  V30 602 O 57.0218 0.724831 -1.80489 0
M  V30 603 C 57.3048 -2.74332 -2.33268 0
M  V30 604 C 57.1578 -4.15737 -1.71705 0
M  V30 605 C 58.4768 -2.85576 -3.34865 0
M  V30 606 H 55.5958 -0.577826 -0.457478 0
M  V30 607 H 58.2378 -1.81532 -0.560897 0
M  V30 608 H 56.3878 -2.55036 -2.93068 0
M  V30 609 H 58.0598 -4.46537 -1.15769 0
M  V30 610 H 56.3028 -4.21605 -1.02135 0
M  V30 611 H 56.9738 -4.92477 -2.49341 0
M  V30 612 H 59.4498 -3.03127 -2.8505 0
M  V30 613 H 58.3258 -3.68135 -4.07146 0
M  V30 614 H 58.5868 -1.94732 -3.96903 0
M  V30 615 N 57.6459 0.756429 -1.3826 0
M  V30 616 C 58.9229 1.50584 -1.24835 0
M  V30 617 C 59.3029 2.10556 0.151485 0
M  V30 618 O 58.6509 1.96825 1.1607 0
M  V30 619 C 58.8609 2.57448 -2.3563 0
M  V30 620 C 60.2089 3.24429 -2.73917 0
M  V30 621 O 61.2329 2.67751 -2.34921 0
M  V30 622 O 60.0919 4.26937 -3.41156 0
M  V30 623 H 57.1859 0.667664 -0.48801 0
M  V30 624 H 59.7319 0.792083 -1.5008 0
M  V30 625 H 58.5039 2.11362 -3.29305 0
M  V30 626 H 58.1269 3.36408 -2.11933 0
M  V30 627 N 59.124 1.23083 0.984299 0
M  V30 628 C 60.37 1.06214 1.72761 0
M  V30 629 C 60.703 -0.400584 1.90024 0
M  V30 630 O 59.978 -1.29672 1.44967 0
M  V30 631 C 60.261 1.78375 3.12817 0
M  V30 632 C 60.114 3.32296 3.03149 0
M  V30 633 C 61.433 1.54309 4.12161 0
M  V30 634 H 58.552 0.387251 0.627061 0
M  V30 635 H 61.194 1.51536 1.14616 0
M  V30 636 H 59.344 1.39848 3.62457 0
M  V30 637 H 61.016 3.8032 2.61064 0
M  V30 638 H 59.259 3.6153 2.39747 0
M  V30 639 H 59.93 3.77972 4.02295 0
M  V30 640 H 62.406 1.87791 3.71314 0
M  V30 641 H 61.282 2.07281 5.08258 0
M  V30 642 H 61.543 0.477572 4.39513 0
M  V30 643 N 60.6021 -1.18246 1.0419 0
M  V30 644 C 61.8421 -1.89948 0.754916 0
M  V30 645 C 62.2061 -1.78608 -0.70451 0
M  V30 646 O 63.4071 -2.4503 -1.10516 0
M  V30 647 C 61.6781 -3.36305 1.20969 0
M  V30 648 S 63.2371 -4.26088 1.04854 0
M  V30 649 H 60.0551 -0.655897 0.274446 0
M  V30 650 H 62.6571 -1.42873 1.33445 0
M  V30 651 H 61.3611 -3.42089 2.26722 0
M  V30 652 H 60.8921 -3.8842 0.624004 0
M  V30 653 H 62.9071 -4.96189 -0.0332896 0
M  V30 654 N 62.0802 -0.821533 -1.34494 0
M  V30 655 C 63.3052 -0.420873 -2.03085 0
M  V30 656 C 63.7302 0.964915 -1.61465 0
M  V30 657 O 63.0882 1.62763 -0.798607 0
M  V30 658 C 63.1362 -0.529414 -3.56693 0
M  V30 659 O 62.2402 0.451302 -4.09923 0
M  V30 660 H 61.5812 -0.173489 -0.640935 0
M  V30 661 H 64.1112 -1.11157 -1.71771 0
M  V30 662 H 64.1212 -0.404671 -4.05988 0
M  V30 663 H 62.7962 -1.54014 -3.86332 0
M  V30 664 H 61.3732 0.285558 -3.71805 0
M  V30 665 N 63.5583 1.46682 -0.576371 0
M  V30 666 C 64.8073 2.01619 -0.0572825 0
M  V30 667 C 65.1203 1.45417 1.30818 0
M  V30 668 O 66.3263 1.92133 1.91825 0
M  V30 669 C 64.7823 3.59863 -0.0518371 0
M  V30 670 C 64.3903 4.25059 -1.41523 0
M  V30 671 C 66.1343 4.2248 0.413639 0
M  V30 672 C 64.0413 5.75364 -1.36785 0
M  V30 673 H 62.9713 0.753794 -0.0176448 0
M  V30 674 H 65.6223 1.68481 -0.727076 0
M  V30 675 H 64.0043 3.90048 0.683994 0
M  V30 676 H 65.1783 4.06491 -2.17029 0
M  V30 677 H 63.4933 3.7451 -1.8202 0
M  V30 678 H 66.0903 5.3265 0.467779 0
M  V30 679 H 66.4333 3.90976 1.42982 0
M  V30 680 H 66.9663 3.96897 -0.267929 0
M  V30 681 H 63.7053 6.11518 -2.36063 0
M  V30 682 H 63.2253 5.96214 -0.654895 0
M  V30 683 H 64.9043 6.37955 -1.07805 0
M  V30 684 N 65.0364 0.313813 1.54444 0
M  V30 685 C 66.2664 -0.293491 2.04505 0
M  V30 686 C 66.6744 -1.47086 1.19005 0
M  V30 687 O 66.0174 -1.82481 0.211257 0
M  V30 688 C 66.0794 -0.800455 3.50475 0
M  V30 689 C 65.7434 0.253322 4.56297 0
M  V30 690 C 66.7404 1.08612 5.08428 0
M  V30 691 C 64.4254 0.398708 5.00715 0
M  V30 692 C 66.4194 2.05013 6.0353 0
M  V30 693 C 64.1064 1.36614 5.95634 0
M  V30 694 C 65.1044 2.19033 6.46926 0
M  V30 695 O 64.7924 3.14134 7.39983 0
M  V30 696 H 64.5244 -0.0658325 0.672787 0
M  V30 697 H 67.0784 0.455177 2.00293 0
M  V30 698 H 65.3084 -1.59987 3.52053 0
M  V30 699 H 66.9974 -1.32504 3.83663 0
M  V30 700 H 67.7634 0.984736 4.74898 0
M  V30 701 H 63.6424 -0.23289 4.60411 0
M  V30 702 H 67.1864 2.69382 6.4349 0
M  V30 703 H 63.0834 1.4682 6.28581 0
M  V30 704 H 63.8514 3.0926 7.57826 0
M  V30 705 N 66.5145 -1.57545 0.0417849 0
M  V30 706 C 67.4445 -2.14009 -0.933929 0
M  V30 707 C 68.4255 -1.05938 -1.33083 0
M  V30 708 O 69.6105 -1.33833 -1.40721 0
M  V30 709 C 66.7405 -2.67747 -2.21199 0
M  V30 710 C 65.6945 -3.80718 -1.95544 0
M  V30 711 C 65.0205 -4.20935 -3.29724 0
M  V30 712 C 66.3205 -5.06258 -1.28452 0
M  V30 713 H 68.0145 -2.95788 -0.463645 0
M  V30 714 H 65.5605 -1.42285 -0.221573 0
M  V30 715 H 67.5135 -3.05886 -2.89848 0
M  V30 716 H 66.2375 -1.83147 -2.70416 0
M  V30 717 H 64.8965 -3.43037 -1.2931 0
M  V30 718 H 64.5445 -3.33298 -3.76724 0
M  V30 719 H 64.2445 -4.9707 -3.13361 0
M  V30 720 H 65.7685 -4.61666 -3.9962 0
M  V30 721 H 67.1825 -5.41903 -1.8712 0
M  V30 722 H 65.5795 -5.87475 -1.22445 0
M  V30 723 H 66.6495 -4.84207 -0.259219 0
M  V30 724 N 67.9926 0.231505 -1.5589 0
M  V30 725 C 68.9226 1.29022 -1.94617 0
M  V30 726 C 69.9036 1.4941 -0.813067 0
M  V30 727 O 71.0886 1.6176 -1.07459 0
M  V30 728 C 68.2186 2.64199 -2.25424 0
M  V30 729 C 67.1726 2.58484 -3.41131 0
M  V30 730 C 66.4986 3.97599 -3.57518 0
M  V30 731 C 67.7986 2.1413 -4.76388 0
M  V30 732 H 69.4926 0.968563 -2.83301 0
M  V30 733 H 67.0386 0.464479 -1.36303 0
M  V30 734 H 68.9916 3.38413 -2.51107 0
M  V30 735 H 67.7156 2.98032 -1.33583 0
M  V30 736 H 66.3746 1.86727 -3.15481 0
M  V30 737 H 66.0226 4.28723 -2.6307 0
M  V30 738 H 65.7226 3.94659 -4.35337 0
M  V30 739 H 67.2466 4.7349 -3.85538 0
M  V30 740 H 68.6606 2.78083 -5.01341 0
M  V30 741 H 67.0576 2.2227 -5.57419 0
M  V30 742 H 68.1276 1.09331 -4.72414 0
M  V30 743 N 69.4707 1.49531 0.497807 0
M  V30 744 C 70.7477 1.49682 1.25915 0
M  V30 745 C 71.1277 0.226339 2.09883 0
M  V30 746 O 70.4757 -0.791189 2.14365 0
M  V30 747 C 70.6857 2.77755 2.11313 0
M  V30 748 C 72.0337 3.27371 2.70395 0
M  V30 749 O 73.0577 2.78894 2.21578 0
M  V30 750 O 71.9167 4.11808 3.59272 0
M  V30 751 H 69.0107 0.599228 0.56996 0
M  V30 752 H 71.5567 1.61798 0.511816 0
M  V30 753 H 70.3287 3.61713 1.49264 0
M  V30 754 H 69.9517 2.68515 2.93233 0
M  V30 755 N 70.9488 -0.749086 1.3866 0
M  V30 756 C 71.8588 -1.89358 1.38494 0
M  V30 757 C 72.8748 -1.71708 0.281476 0
M  V30 758 O 74.0508 -1.94554 0.520643 0
M  V30 759 C 71.1158 -3.24782 1.21316 0
M  V30 760 C 70.1768 -3.54926 2.41508 0
M  V30 761 C 69.4098 -4.83888 2.2514 0
M  V30 762 O 69.6328 -5.56592 1.24746 0
M  V30 763 O 68.5668 -5.13612 3.13826 0
M  V30 764 H 72.3928 -1.92452 2.34938 0
M  V30 765 H 69.9778 -0.894981 1.19626 0
M  V30 766 H 71.8598 -4.05739 1.13814 0
M  V30 767 H 70.5348 -3.2249 0.279592 0
M  V30 768 H 69.4418 -2.74112 2.54585 0
M  V30 769 H 70.7748 -3.61983 3.3351 0
M  V30 770 N 72.4269 -1.23603 -0.977757 0
M  V30 771 C 73.8429 -0.999251 -1.24447 0
M  V30 772 C 74.0429 0.298053 -1.99283 0
M  V30 773 O 73.0989 1.01681 -2.31122 0
M  V30 774 C 74.4119 -2.20784 -2.04144 0
M  V30 775 C 75.9599 -2.25303 -2.17273 0
M  V30 776 C 76.4349 -3.45755 -3.00362 0
M  V30 777 N 77.9259 -3.4601 -3.07947 0
M  V30 778 C 78.6609 -4.35868 -3.72568 0
M  V30 779 N 78.1569 -5.35966 -4.38991 0
M  V30 780 N 79.9499 -4.23605 -3.6948 0
M  V30 781 H 72.1009 -2.06986 -0.476483 0
M  V30 782 H 74.3639 -0.907801 -0.273134 0
M  V30 783 H 74.0699 -3.14945 -1.56533 0
M  V30 784 H 73.9439 -2.22085 -3.04891 0
M  V30 785 H 76.3309 -1.3168 -2.64092 0
M  V30 786 H 76.4119 -2.28033 -1.15907 0
M  V30 787 H 76.0559 -4.39687 -2.5424 0
M  V30 788 H 75.9859 -3.40266 -4.01904 0
M  V30 789 H 78.4769 -2.73588 -2.60688 0
M  V30 790 H 78.7899 -6.00783 -4.86086 0
M  V30 791 H 77.1349 -5.39863 -4.37691 0
M  V30 792 H 80.3259 -3.44647 -3.16759 0
M  V30 793 H 80.4989 -4.93836 -4.1956 0
M  V30 794 N 73.905 1.17692 -1.04816 0
M  V30 795 C 74.853 2.23632 -0.63966 0
M  V30 796 C 75.847 1.6601 0.337219 0
M  V30 797 O 77.053 1.78844 0.203693 0
M  V30 798 H 73.428 0.727949 -0.188665 0
M  V30 799 H 75.399 2.55387 -1.54337 0
M  V30 800 C 74.148 3.4769 -0.0264051 0
M  V30 801 H 73.471 3.92331 -0.769164 0
M  V30 802 H 74.911 4.23418 0.222098 0
M  V30 803 C 73.37 3.13807 1.22584 0
M  V30 804 O 73.9 3.28236 2.31569 0
M  V30 805 N 72.106 2.68065 1.12202 0
M  V30 806 H 71.653 2.56525 0.235133 0
M  V30 807 H 71.611 2.45767 1.96076 0
M  V30 808 N 75.3831 0.828654 1.34056 0
M  V30 809 C 76.3151 0.212052 2.28217 0
M  V30 810 C 77.3281 -0.601362 1.51286 0
M  V30 811 O 78.5171 -0.430104 1.73241 0
M  V30 812 C 75.6171 -0.72088 3.31144 0
M  V30 813 C 74.7901 0.0509587 4.3737 0
M  V30 814 C 73.8491 -0.803766 5.20025 0
M  V30 815 O 72.8751 -0.246667 5.68665 0
M  V30 816 N 74.0771 -2.1227 5.40298 0
M  V30 817 H 76.8421 1.02105 2.81771 0
M  V30 818 H 74.4031 0.686153 1.46641 0
M  V30 819 H 76.3951 -1.29742 3.8334 0
M  V30 820 H 74.9651 -1.43061 2.77943 0
M  V30 821 H 74.1851 0.808831 3.85813 0
M  V30 822 H 75.4731 0.582065 5.0546 0
M  V30 823 H 74.8711 -2.59898 5.02464 0
M  V30 824 H 73.4281 -2.64796 5.95589 0
M  V30 825 N 76.8612 -1.46375 0.584142 0
M  V30 826 C 78.2772 -1.57694 0.245929 0
M  V30 827 C 78.4772 -1.57903 -1.25175 0
M  V30 828 O 77.5332 -1.49676 -2.03355 0
M  V30 829 C 78.8462 -2.87028 0.896402 0
M  V30 830 C 80.3942 -3.00662 0.870127 0
M  V30 831 C 80.8692 -4.32734 1.50017 0
M  V30 832 N 82.3602 -4.39436 1.46458 0
M  V30 833 C 83.0952 -5.40248 1.92144 0
M  V30 834 N 82.5912 -6.47726 2.4581 0
M  V30 835 N 84.3842 -5.31459 1.83052 0
M  V30 836 H 76.5352 -1.44483 1.55687 0
M  V30 837 H 78.7982 -0.689291 0.650831 0
M  V30 838 H 78.5042 -2.9269 1.95002 0
M  V30 839 H 78.3782 -3.75014 0.405486 0
M  V30 840 H 80.7652 -2.94581 -0.174871 0
M  V30 841 H 80.8462 -2.14148 1.39908 0
M  V30 842 H 80.4902 -4.39573 2.54437 0
M  V30 843 H 80.4202 -5.18025 0.946432 0
M  V30 844 H 82.9112 -3.62367 1.07231 0
M  V30 845 H 83.2242 -7.20863 2.78525 0
M  V30 846 H 81.5692 -6.48542 2.49836 0
M  V30 847 H 84.7602 -4.46396 1.40883 0
M  V30 848 H 84.9332 -6.09881 2.18973 0
M  V30 849 N 78.3393 -0.321999 -1.54275 0
M  V30 850 C 79.5693 0.282642 -2.04658 0
M  V30 851 C 79.9773 1.46453 -1.19784 0
M  V30 852 O 79.3203 1.82367 -0.220932 0
M  V30 853 C 79.3823 0.781857 -3.50895 0
M  V30 854 C 79.0463 -0.277517 -4.56157 0
M  V30 855 C 80.0433 -1.11307 -5.07845 0
M  V30 856 C 77.7283 -0.425256 -5.00497 0
M  V30 857 C 79.7223 -2.08211 -6.02434 0
M  V30 858 C 77.4093 -1.39771 -5.94901 0
M  V30 859 C 78.4073 -2.2246 -6.45756 0
M  V30 860 O 78.0953 -3.18054 -7.38307 0
M  V30 861 H 77.8273 0.0622636 -0.673126 0
M  V30 862 H 80.3813 -0.465792 -2.00049 0
M  V30 863 H 78.6113 1.58118 -3.52896 0
M  V30 864 H 80.3003 1.30467 -3.84361 0
M  V30 865 H 81.0663 -1.00991 -4.74369 0
M  V30 866 H 76.9453 0.20847 -4.60528 0
M  V30 867 H 80.4893 -2.72791 -6.42052 0
M  V30 868 H 76.3863 -1.50152 -6.27794 0
M  V30 869 H 77.1543 -3.13275 -7.56175 0
M  V30 870 N 79.8174 1.5752 -0.0501392 0
M  V30 871 C 80.7474 2.14502 0.922566 0
M  V30 872 C 81.7284 1.06642 1.3252 0
M  V30 873 O 82.9134 1.34577 1.4001 0
M  V30 874 C 80.0434 2.68916 2.19776 0
M  V30 875 C 78.9974 3.8175 1.93523 0
M  V30 876 C 78.3234 4.22677 3.27487 0
M  V30 877 C 79.6234 5.06932 1.25765 0
M  V30 878 H 81.3174 2.9603 0.447952 0
M  V30 879 H 78.8634 1.42401 0.214024 0
M  V30 880 H 80.8164 3.07419 2.88222 0
M  V30 881 H 79.5404 1.84578 2.69441 0
M  V30 882 H 78.1994 3.43718 1.27489 0
M  V30 883 H 77.8474 3.35291 3.74952 0
M  V30 884 H 77.5474 4.98725 3.1072 0
M  V30 885 H 79.0714 4.63779 3.97166 0
M  V30 886 H 80.4854 5.42888 1.84244 0
M  V30 887 H 78.8824 5.88116 1.19328 0
M  V30 888 H 79.9524 4.84337 0.233536 0
M  V30 889 N 81.2955 -0.223234 1.56011 0
M  V30 890 C 82.2255 -1.27988 1.95298 0
M  V30 891 C 83.2065 -1.48976 0.820979 0
M  V30 892 O 84.3915 -1.61188 1.08315 0
M  V30 893 C 81.5215 -2.63 2.26822 0
M  V30 894 C 80.4755 -2.56671 3.42497 0
M  V30 895 C 79.8015 -3.95697 3.59622 0
M  V30 896 C 81.1015 -2.11601 4.77517 0
M  V30 897 H 82.7955 -0.953525 2.8381 0
M  V30 898 H 80.3415 -0.457244 1.36548 0
M  V30 899 H 82.2945 -3.37077 2.52898 0
M  V30 900 H 81.0185 -2.9732 1.35161 0
M  V30 901 H 79.6775 -1.85051 3.16467 0
M  V30 902 H 79.3255 -4.27322 2.6534 0
M  V30 903 H 79.0255 -3.92345 4.37424 0
M  V30 904 H 80.5495 -4.71438 3.88044 0
M  V30 905 H 81.9635 -2.7542 5.02809 0
M  V30 906 H 80.3605 -2.19311 5.5859 0
M  V30 907 H 81.4305 -1.06824 4.72987 0
M  V30 908 N 82.7736 -1.49793 -0.48987 0
M  V30 909 C 83.7066 -1.61898 -1.60823 0
M  V30 910 C 84.6846 -0.467651 -1.5573 0
M  V30 911 O 85.8686 -0.684682 -1.75626 0
M  V30 912 C 82.9956 -1.58422 -2.99366 0
M  V30 913 C 82.0416 -2.78889 -3.22682 0
M  V30 914 S 82.8746 -4.40429 -3.04602 0
M  V30 915 C 84.0306 -4.39617 -4.4552 0
M  V30 916 H 84.2636 -2.56502 -1.50312 0
M  V30 917 H 81.7966 -1.38822 -0.675849 0
M  V30 918 H 83.7546 -1.57103 -3.79248 0
M  V30 919 H 82.4156 -0.650866 -3.07283 0
M  V30 920 H 81.6086 -2.72708 -4.23847 0
M  V30 921 H 81.2106 -2.77678 -2.50541 0
M  V30 922 H 83.5026 -4.12022 -5.37814 0
M  V30 923 H 84.4456 -5.41097 -4.56749 0
M  V30 924 H 84.8536 -3.69554 -4.2672 0
M  V30 925 N 84.2517 0.741722 -1.39055 0
M  V30 926 C 85.2147 1.83733 -1.37021 0
M  V30 927 C 86.2147 1.58542 -0.268534 0
M  V30 928 O 87.4047 1.66067 -0.526076 0
M  V30 929 C 84.5367 3.2141 -1.13617 0
M  V30 930 H 85.7297 1.86941 -2.34506 0
M  V30 931 H 83.2827 0.944676 -1.24521 0
M  V30 932 H 84.0177 3.23865 -0.167863 0
M  V30 933 H 83.8027 3.4109 -1.93391 0
M  V30 934 H 85.2927 4.01477 -1.14918 0
M  V30 935 N 85.7298 1.2412 0.971189 0
M  V30 936 C 86.9548 1.10667 1.75407 0
M  V30 937 C 87.3798 -0.337048 1.85056 0
M  V30 938 O 86.7378 -1.24396 1.31892 0
M  V30 939 C 86.7858 1.74726 3.15441 0
M  V30 940 O 85.8898 1.01566 3.99697 0
M  V30 941 H 85.2308 0.387341 0.539317 0
M  V30 942 H 87.7608 1.64358 1.2185 0
M  V30 943 H 87.7708 1.80341 3.6598 0
M  V30 944 H 86.4458 2.79773 3.07734 0
M  V30 945 H 85.0228 1.03713 3.58187 0
M  V30 946 N 87.2079 -1.17134 1.05439 0
M  V30 947 C 88.1549 -2.21235 0.657539 0
M  V30 948 C 89.1249 -1.62551 -0.341543 0
M  V30 949 O 90.3099 -1.89379 -0.232393 0
M  V30 950 C 87.4499 -3.45076 0.0410575 0
M  V30 951 C 86.5629 -4.18042 1.08927 0
M  V30 952 C 85.6979 -5.29376 0.439848 0
M  V30 953 C 84.7369 -5.94132 1.4722 0
M  V30 954 N 83.8739 -6.96975 0.846756 0
M  V30 955 H 88.7139 -2.54534 1.54972 0
M  V30 956 H 86.2509 -1.25028 0.775006 0
M  V30 957 H 88.2089 -4.15862 -0.33383 0
M  V30 958 H 86.8389 -3.12353 -0.814568 0
M  V30 959 H 85.8909 -3.45945 1.58196 0
M  V30 960 H 87.2029 -4.62306 1.87282 0
M  V30 961 H 86.3569 -6.06699 0.0115125 0
M  V30 962 H 85.0959 -4.86251 -0.375656 0
M  V30 963 H 84.1009 -5.15538 1.91052 0
M  V30 964 H 85.3259 -6.39337 2.28965 0
M  V30 965 H 83.2719 -6.5598 0.0518075 0
M  V30 966 H 83.1889 -7.39565 1.5678 0
M  V30 967 H 84.4569 -7.78239 0.443277 0
M  V30 968 N 88.686 -0.835752 -1.33615 0
M  V30 969 C 89.934 -0.429109 -1.97492 0
M  V30 970 C 90.255 1.01433 -1.66543 0
M  V30 971 O 89.525 1.70611 -0.962744 0
M  V30 972 H 88.105 -0.155686 -0.730596 0
M  V30 973 H 90.767 -1.06802 -1.63031 0
M  V30 974 H 89.863 -0.55861 -3.0706 0
M  V30 975 N 90.1641 1.46063 -0.591896 0
M  V30 976 C 91.0941 2.33172 0.123673 0
M  V30 977 C 92.0751 1.45897 0.87453 0
M  V30 978 O 93.2601 1.74698 0.848181 0
M  V30 979 C 90.3901 3.28336 1.13194 0
M  V30 980 C 89.3441 4.25124 0.495324 0
M  V30 981 C 88.6701 5.09863 1.61071 0
M  V30 982 C 89.9701 5.19143 -0.573425 0
M  V30 983 H 91.6641 2.93252 -0.603646 0
M  V30 984 H 89.2101 1.41014 -0.291741 0
M  V30 985 H 91.1631 3.88137 1.64097 0
M  V30 986 H 89.8871 2.66383 1.88965 0
M  V30 987 H 88.5461 3.66599 0.00729452 0
M  V30 988 H 88.1941 4.44288 2.35832 0
M  V30 989 H 87.8941 5.75417 1.19035 0
M  V30 990 H 89.4181 5.72529 2.12233 0
M  V30 991 H 90.8321 5.73106 -0.1491 0
M  V30 992 H 89.2291 5.93089 -0.914636 0
M  V30 993 H 90.2991 4.62519 -1.45617 0
M  V30 994 N 91.6422 0.330177 1.54103 0
M  V30 995 C 92.5902 -0.548226 2.26047 0
M  V30 996 C 93.5842 -1.11309 1.27698 0
M  V30 997 O 94.7902 -1.06036 1.45452 0
M  V30 998 H 91.1652 -0.195456 0.726155 0
M  V30 999 H 93.1362 0.0807567 2.98291 0
M  V30 1000 C 91.8852 -1.69415 3.03634 0
M  V30 1001 H 91.2082 -1.26876 3.79134 0
M  V30 1002 H 92.6482 -2.28423 3.5721 0
M  V30 1003 C 91.1072 -2.61569 2.12328 0
M  V30 1004 O 91.6372 -3.63462 1.7105 0
M  V30 1005 N 89.8432 -2.29952 1.77681 0
M  V30 1006 H 89.3902 -1.47134 2.11446 0
M  V30 1007 H 89.3482 -2.91871 1.16869 0
M  V30 1008 N 93.1203 -1.57491 0.0584922 0
M  V30 1009 C 94.5313 -1.80526 -0.476138 0
M  V30 1010 C 94.8823 -0.971334 -1.70469 0
M  V30 1011 O 94.0073 -0.190012 -2.15564 0
M  V30 1012 C 94.6023 -3.27424 -0.870587 0
M  V30 1013 C 93.1613 -3.51351 -1.35015 0
M  V30 1014 C 92.3083 -2.75343 -0.32887 0
M  V30 1015 H 95.2593 -1.56133 0.284312 0
M  V30 1016 H 95.2803 -3.38745 -1.73299 0
M  V30 1017 H 94.7923 -3.88093 0.0237627 0
M  V30 1018 H 92.8933 -2.95971 -2.26345 0
M  V30 1019 H 93.0063 -4.60059 -1.33726 0
M  V30 1020 H 91.3703 -2.417 -0.803321 0
M  V30 1021 H 92.1533 -3.38743 0.557521 0
M  V30 1022 N 94.5984 0.214957 -1.56127 0
M  V30 1023 C 95.5084 1.28727 -1.96129 0
M  V30 1024 C 96.5244 1.50916 -0.866044 0
M  V30 1025 O 97.7004 1.63918 -1.17016 0
M  V30 1026 C 94.7654 2.61569 -2.27558 0
M  V30 1027 C 93.8264 2.47625 -3.50685 0
M  V30 1028 C 93.0594 3.74132 -3.80606 0
M  V30 1029 O 93.2824 4.77438 -3.12104 0
M  V30 1030 O 92.2164 3.70849 -4.74083 0
M  V30 1031 H 96.0424 0.977855 -2.87527 0
M  V30 1032 H 93.6274 0.418358 -1.43423 0
M  V30 1033 H 95.5094 3.40012 -2.48938 0
M  V30 1034 H 94.1844 2.92178 -1.39332 0
M  V30 1035 H 93.0914 1.67361 -3.34576 0
M  V30 1036 H 94.4244 2.21954 -4.39315 0
M  V30 1037 N 96.0765 1.50051 0.48192 0
M  V30 1038 C 97.3015 1.64508 1.26301 0
M  V30 1039 C 97.7265 0.323851 1.85291 0
M  V30 1040 O 97.0845 -0.710969 1.66778 0
M  V30 1041 C 97.1325 2.7305 2.35533 0
M  V30 1042 O 96.2365 2.3355 3.39895 0
M  V30 1043 H 95.5775 0.549978 0.372048 0
M  V30 1044 H 98.1075 1.9636 0.574786 0
M  V30 1045 H 98.1175 2.95799 2.8101 0
M  V30 1046 H 96.7925 3.68946 1.91967 0
M  V30 1047 H 95.3695 2.21205 3.00204 0
M  V30 1048 N 97.5546 -0.734337 1.39446 0
M  V30 1049 C 98.8006 -1.49613 1.36908 0
M  V30 1050 C 99.1336 -1.94169 -0.0347829 0
M  V30 1051 O 98.4086 -1.66833 -0.999847 0
M  V30 1052 C 98.6916 -2.73534 2.34203 0
M  V30 1053 C 98.5446 -2.34993 3.83534 0
M  V30 1054 C 99.8636 -3.75635 2.29317 0
M  V30 1055 H 96.9826 -0.542714 0.498629 0
M  V30 1056 H 99.6246 -0.839597 1.70443 0
M  V30 1057 H 97.7746 -3.29553 2.05736 0
M  V30 1058 H 99.4466 -1.84601 4.22753 0
M  V30 1059 H 97.6896 -1.67213 4.00278 0
M  V30 1060 H 98.3606 -3.23738 4.47099 0
M  V30 1061 H 100.837 -3.29203 2.54489 0
M  V30 1062 H 99.7126 -4.60008 2.99472 0
M  V30 1063 H 99.9736 -4.22603 1.29842 0
M  V30 1064 N 99.0327 -1.24633 -0.964593 0
M  V30 1065 C 100.281 -1.08573 -1.70459 0
M  V30 1066 C 100.602 0.375655 -1.91347 0
M  V30 1067 O 99.8717 1.26779 -1.49345 0
M  V30 1068 H 98.4517 -0.398784 -0.631649 0
M  V30 1069 H 101.114 -1.56601 -1.16026 0
M  V30 1070 H 100.21 -1.58623 -2.68785 0
M  V30 1071 N 100.511 1.16574 -1.06058 0
M  V30 1072 C 101.461 2.18854 -0.63929 0
M  V30 1073 C 102.445 1.57505 0.328798 0
M  V30 1074 O 103.637 1.76408 0.144623 0
M  V30 1075 C 100.766 3.43291 -0.0247203 0
M  V30 1076 C 99.8518 4.11722 -1.01716 0
M  V30 1077 N 100.243 4.55841 -2.19186 0
M  V30 1078 C 98.5408 4.37872 -0.847569 0
M  V30 1079 C 99.2418 5.08751 -2.82042 0
M  V30 1080 N 98.2178 5.01489 -2.09784 0
M  V30 1081 H 102.02 2.5068 -1.53417 0
M  V30 1082 H 99.5338 1.32999 -0.931935 0
M  V30 1083 H 101.531 4.15856 0.294915 0
M  V30 1084 H 100.191 3.12954 0.865448 0
M  V30 1085 H 101.202 4.49649 -2.56975 0
M  V30 1086 H 97.8788 4.17499 -0.00918848 0
M  V30 1087 H 99.2688 5.52944 -3.81709 0
M  V30 1088 N 101.989 0.842826 1.3317 0
M  V30 1089 C 103.235 0.441099 1.97945 0
M  V30 1090 C 103.568 -0.998024 1.66593 0
M  V30 1091 O 102.843 -1.69839 0.947898 0
M  V30 1092 C 103.126 0.666841 3.53872 0
M  V30 1093 C 102.979 2.15352 3.94897 0
M  V30 1094 C 104.298 0.115544 4.39948 0
M  V30 1095 H 101.417 0.161739 0.719034 0
M  V30 1096 H 104.059 1.05907 1.57746 0
M  V30 1097 H 102.209 0.140828 3.88245 0
M  V30 1098 H 103.881 2.7447 3.70761 0
M  V30 1099 H 102.124 2.63653 3.44484 0
M  V30 1100 H 102.795 2.26221 5.03516 0
M  V30 1101 H 105.271 0.565213 4.12243 0
M  V30 1102 H 104.147 0.303152 5.48062 0
M  V30 1103 H 104.408 -0.980935 4.3108 0
M  V30 1104 N 103.467 -1.45747 0.599634 0
M  V30 1105 C 104.692 -2.07178 0.0960198 0
M  V30 1106 C 105.117 -1.44268 -1.207 0
M  V30 1107 O 104.475 -0.532503 -1.73303 0
M  V30 1108 C 104.523 -3.60579 -0.0385348 0
M  V30 1109 O 103.627 -3.97713 -1.0908 0
M  V30 1110 H 102.968 -0.660251 0.0704593 0
M  V30 1111 H 105.498 -1.87124 0.827385 0
M  V30 1112 H 105.508 -4.07298 -0.239304 0
M  V30 1113 H 104.183 -4.05756 0.912947 0
M  V30 1114 H 102.76 -3.62678 -0.867135 0
M  V30 1115 N 104.945 -0.338344 -1.53925 0
M  V30 1116 C 105.875 0.51328 -2.27789 0
M  V30 1117 C 106.856 1.107 -1.29149 0
M  V30 1118 O 108.041 1.12937 -1.57984 0
M  V30 1119 C 105.171 1.66697 -3.04679 0
M  V30 1120 C 104.125 1.20183 -4.1078 0
M  V30 1121 C 103.451 2.44363 -4.75595 0
M  V30 1122 C 104.751 0.30605 -5.21403 0
M  V30 1123 H 106.445 -0.102883 -2.99223 0
M  V30 1124 H 103.991 -0.0509219 -1.4391 0
M  V30 1125 H 105.944 2.26915 -3.55088 0
M  V30 1126 H 104.668 2.30995 -2.30887 0
M  V30 1127 H 103.327 0.622499 -3.61276 0
M  V30 1128 H 102.975 3.07057 -3.98403 0
M  V30 1129 H 102.675 2.13925 -5.47275 0
M  V30 1130 H 104.199 3.05317 -5.28786 0
M  V30 1131 H 105.613 0.814929 -5.67478 0
M  V30 1132 H 104.01 0.0937929 -6.00027 0
M  V30 1133 H 105.08 -0.65921 -4.80398 0
M  V30 1134 N 106.423 1.57458 -0.0668435 0
M  V30 1135 C 107.355 2.09413 0.931601 0
M  V30 1136 C 108.368 1.02522 1.26464 0
M  V30 1137 O 109.557 1.30049 1.22269 0
M  V30 1138 C 106.657 2.53537 2.24882 0
M  V30 1139 C 105.83 3.83944 2.09537 0
M  V30 1140 C 104.889 4.14214 3.2452 0
M  V30 1141 O 103.915 4.83891 2.9973 0
M  V30 1142 N 105.117 3.67367 4.49469 0
M  V30 1143 H 107.882 2.95699 0.488048 0
M  V30 1144 H 105.443 1.61462 0.119009 0
M  V30 1145 H 107.435 2.70853 3.00701 0
M  V30 1146 H 106.005 1.72415 2.60753 0
M  V30 1147 H 105.225 3.76057 1.18215 0
M  V30 1148 H 106.513 4.69312 1.96529 0
M  V30 1149 H 105.911 3.11068 4.72497 0
M  V30 1150 H 104.468 3.89891 5.2233 0
M  V30 1151 N 107.901 -0.206675 1.56239 0
M  V30 1152 C 108.831 -1.25909 1.96645 0
M  V30 1153 C 109.812 -1.48097 0.836734 0
M  V30 1154 O 110.997 -1.6003 1.10019 0
M  V30 1155 C 108.127 -2.6058 2.29599 0
M  V30 1156 C 107.081 -2.53024 3.452 0
M  V30 1157 C 106.407 -3.91861 3.63798 0
M  V30 1158 C 107.707 -2.06524 4.79734 0
M  V30 1159 H 109.401 -0.923369 2.84806 0
M  V30 1160 H 106.947 -0.442735 1.37025 0
M  V30 1161 H 108.9 -3.34375 2.56459 0
M  V30 1162 H 107.624 -2.95869 1.38307 0
M  V30 1163 H 106.283 -1.81684 3.18412 0
M  V30 1164 H 105.931 -4.24483 2.69857 0
M  V30 1165 H 105.631 -3.87683 4.4156 0
M  V30 1166 H 107.155 -4.67296 3.93022 0
M  V30 1167 H 108.569 -2.70072 5.05702 0
M  V30 1168 H 106.966 -2.13374 5.60885 0
M  V30 1169 H 108.036 -1.01802 4.74093 0
M  V30 1170 N 109.379 -1.50304 -0.473955 0
M  V30 1171 C 110.604 -1.65175 -1.25427 0
M  V30 1172 C 111.029 -0.333673 -1.85117 0
M  V30 1173 O 110.387 0.702114 -1.67153 0
M  V30 1174 C 110.435 -2.74295 -2.34082 0
M  V30 1175 O 109.539 -2.35349 -3.38651 0
M  V30 1176 H 108.88 -0.551944 -0.369126 0
M  V30 1177 H 111.41 -1.96662 -0.564364 0
M  V30 1178 H 111.42 -2.97285 -2.79438 0
M  V30 1179 H 110.095 -3.69959 -1.90008 0
M  V30 1180 H 108.672 -2.22794 -2.99027 0
M  V30 1181 N 110.857 0.726932 -1.39834 0
M  V30 1182 C 111.767 1.87131 -1.41489 0
M  V30 1183 C 112.783 1.71239 -0.308757 0
M  V30 1184 O 113.959 1.93701 -0.551529 0
M  V30 1185 C 111.024 3.22811 -1.26468 0
M  V30 1186 C 110.085 3.51039 -2.47124 0
M  V30 1187 C 109.318 4.80245 -2.3281 0
M  V30 1188 O 109.541 5.54537 -1.33585 0
M  V30 1189 O 108.475 5.08554 -3.21957 0
M  V30 1190 H 112.301 1.8869 -2.3797 0
M  V30 1191 H 109.886 0.875837 -1.21035 0
M  V30 1192 H 111.768 4.03877 -1.20255 0
M  V30 1193 H 110.443 3.22005 -0.330862 0
M  V30 1194 H 109.35 2.70027 -2.58914 0
M  V30 1195 H 110.683 3.56632 -3.39227 0
M  V30 1196 N 112.336 1.25143 0.95797 0
M  V30 1197 C 113.584 1.09476 1.69881 0
M  V30 1198 C 113.905 -0.365502 1.91544 0
M  V30 1199 O 113.175 -1.25985 1.50015 0
M  V30 1200 H 111.755 0.402128 0.629525 0
M  V30 1201 H 114.417 1.57214 1.15194 0
M  V30 1202 H 113.513 1.60046 2.6794 0
M  V30 1203 N 113.814 -1.1601 1.06675 0
M  V30 1204 C 114.744 -2.22688 0.702307 0
M  V30 1205 C 115.725 -1.67306 -0.307032 0
M  V30 1206 O 116.91 -1.93352 -0.181305 0
M  V30 1207 C 114.04 -3.47178 0.092038 0
M  V30 1208 C 112.994 -4.15477 1.02777 0
M  V30 1209 C 112.32 -5.33963 0.28061 0
M  V30 1210 C 113.62 -4.66019 2.35846 0
M  V30 1211 H 115.314 -2.53429 1.59419 0
M  V30 1212 H 112.86 -1.21813 0.767961 0
M  V30 1213 H 114.813 -4.21037 -0.174814 0
M  V30 1214 H 113.537 -3.15749 -0.834877 0
M  V30 1215 H 112.196 -3.43549 1.27944 0
M  V30 1216 H 111.844 -4.98788 -0.649545 0
M  V30 1217 H 111.544 -5.806 0.904258 0
M  V30 1218 H 113.068 -6.10596 0.021396 0
M  V30 1219 H 114.482 -5.3144 2.15045 0
M  V30 1220 H 112.879 -5.23293 2.93743 0
M  V30 1221 H 113.949 -3.82023 2.98641 0
M  V30 1222 N 115.292 -0.849877 -1.32721 0
M  V30 1223 C 116.538 -0.451591 -1.97708 0
M  V30 1224 C 116.871 0.989175 -1.6712 0
M  V30 1225 O 116.146 1.69334 -0.956891 0
M  V30 1226 C 116.429 -0.685598 -3.53513 0
M  V30 1227 C 116.282 -2.17444 -3.93749 0
M  V30 1228 C 117.601 -0.138874 -4.39881 0
M  V30 1229 H 114.72 -0.16555 -0.718166 0
M  V30 1230 H 117.362 -1.06742 -1.57182 0
M  V30 1231 H 115.512 -0.161416 -3.88165 0
M  V30 1232 H 117.184 -2.76433 -3.693 0
M  V30 1233 H 115.427 -2.65476 -3.43081 0
M  V30 1234 H 116.098 -2.28888 -5.02309 0
M  V30 1235 H 118.574 -0.587068 -4.11938 0
M  V30 1236 H 117.45 -0.332213 -5.47894 0
M  V30 1237 H 117.711 0.95806 -4.31594 0
M  V30 1238 N 116.77 1.45427 -0.607355 0
M  V30 1239 C 118.018 2.01841 -0.102253 0
M  V30 1240 C 118.339 1.47832 1.27164 0
M  V30 1241 O 117.609 0.672497 1.83995 0
M  V30 1242 H 116.189 0.746188 -0.0348101 0
M  V30 1243 H 118.851 1.78229 -0.7887 0
M  V30 1244 H 117.947 3.12057 -0.0518585 0
M  V30 1245 N 118.248 0.346503 1.53744 0
M  V30 1246 C 119.178 -0.501193 2.28058 0
M  V30 1247 C 120.159 -1.10014 1.29734 0
M  V30 1248 O 121.344 -1.12097 1.58581 0
M  V30 1249 C 118.474 -1.65078 3.05559 0
M  V30 1250 C 117.428 -1.18003 4.11411 0
M  V30 1251 C 116.754 -2.41837 4.76884 0
M  V30 1252 C 118.054 -0.278394 5.21558 0
M  V30 1253 H 119.748 0.11875 2.99164 0
M  V30 1254 H 117.294 0.0585531 1.43881 0
M  V30 1255 H 119.247 -2.25028 3.56287 0
M  V30 1256 H 117.971 -2.29767 2.32109 0
M  V30 1257 H 116.63 -0.603331 3.61601 0
M  V30 1258 H 116.278 -3.0494 4.00026 0
M  V30 1259 H 115.978 -2.1102 5.48402 0
M  V30 1260 H 117.502 -3.02508 5.30397 0
M  V30 1261 H 118.916 -0.784823 5.67903 0
M  V30 1262 H 117.313 -0.0619707 6.00068 0
M  V30 1263 H 118.383 0.684677 4.80042 0
M  V30 1264 N 119.726 -1.57421 0.075193 0
M  V30 1265 C 120.972 -1.93905 -0.594025 0
M  V30 1266 C 121.305 -0.955701 -1.69056 0
M  V30 1267 O 120.58 0.0145373 -1.94495 0
M  V30 1268 C 120.863 -3.40638 -1.1678 0
M  V30 1269 C 120.716 -4.49733 -0.0776792 0
M  V30 1270 C 122.035 -3.88259 -2.07228 0
M  V30 1271 H 119.154 -0.705105 -0.214466 0
M  V30 1272 H 121.796 -1.8947 0.141854 0
M  V30 1273 H 119.946 -3.44549 -1.79494 0
M  V30 1274 H 121.618 -4.57942 0.555573 0
M  V30 1275 H 119.861 -4.29751 0.591286 0
M  V30 1276 H 120.532 -5.49549 -0.519603 0
M  V30 1277 H 123.008 -3.86376 -1.54445 0
M  V30 1278 H 121.884 -4.91533 -2.44308 0
M  V30 1279 H 122.145 -3.26396 -2.98191 0
M  V30 1280 N 121.204 0.198386 -1.56346 0
M  V30 1281 C 122.452 0.91747 -1.80075 0
M  V30 1282 C 122.773 1.83929 -0.647692 0
M  V30 1283 O 122.043 1.93029 0.334166 0
M  V30 1284 H 120.623 0.341774 -0.664228 0
M  V30 1285 H 123.285 0.204684 -1.93822 0
M  V30 1286 H 122.381 1.51055 -2.7311 0
M  V30 1287 N 122.682 1.50554 0.465978 0
M  V30 1288 C 123.614 1.65949 1.58093 0
M  V30 1289 C 124.627 0.540827 1.53554 0
M  V30 1290 O 125.816 0.814187 1.5885 0
M  V30 1291 C 122.916 1.63261 2.96983 0
M  V30 1292 C 122.089 2.91245 3.26336 0
M  V30 1293 C 121.148 2.8113 4.44806 0
M  V30 1294 O 120.174 3.55086 4.44862 0
M  V30 1295 N 121.376 1.95032 5.46756 0
M  V30 1296 H 124.141 2.62122 1.45301 0
M  V30 1297 H 121.702 1.48082 0.65448 0
M  V30 1298 H 123.694 1.54101 3.74212 0
M  V30 1299 H 122.264 0.748032 3.03518 0
M  V30 1300 H 121.484 3.14493 2.37672 0
M  V30 1301 H 122.772 3.76022 3.42761 0
M  V30 1302 H 122.17 1.3427 5.49534 0
M  V30 1303 H 120.727 1.91772 6.2295 0
M  V30 1304 N 124.16 -0.719506 1.40217 0
M  V30 1305 C 125.576 -1.02707 1.22161 0
M  V30 1306 C 125.776 -2.0128 0.0940557 0
M  V30 1307 O 124.832 -2.46452 -0.549318 0
M  V30 1308 C 126.145 -1.57454 2.56181 0
M  V30 1309 C 127.693 -1.69458 2.63159 0
M  V30 1310 C 128.168 -2.27611 3.97438 0
M  V30 1311 N 129.659 -2.35002 3.99159 0
M  V30 1312 C 130.394 -2.80972 4.99842 0
M  V30 1313 N 129.89 -3.26723 6.10921 0
M  V30 1314 N 131.683 -2.80321 4.87213 0
M  V30 1315 H 123.834 -0.0660492 2.12297 0
M  V30 1316 H 126.097 -0.0919077 0.943534 0
M  V30 1317 H 125.803 -0.924873 3.39321 0
M  V30 1318 H 125.677 -2.56036 2.76993 0
M  V30 1319 H 128.064 -2.33543 1.80393 0
M  V30 1320 H 128.145 -0.694867 2.46181 0
M  V30 1321 H 127.789 -1.6415 4.80643 0
M  V30 1322 H 127.719 -3.2829 4.11744 0
M  V30 1323 H 130.21 -2.02685 3.18947 0
M  V30 1324 H 130.523 -3.60355 6.8364 0
M  V30 1325 H 128.868 -3.24692 6.14492 0
M  V30 1326 H 132.059 -2.43912 3.9953 0
M  V30 1327 H 132.232 -3.15831 5.65822 0
M  V30 1328 N 125.638 -1.25649 -0.95132 0
M  V30 1329 C 126.548 -1.08073 -2.08224 0
M  V30 1330 C 127.564 -0.0169666 -1.73992 0
M  V30 1331 O 128.74 -0.218593 -2.0021 0
M  V30 1332 C 125.805 -0.704922 -3.39458 0
M  V30 1333 C 124.866 -1.84699 -3.87537 0
M  V30 1334 C 124.099 -1.48902 -5.12508 0
M  V30 1335 O 124.322 -0.386156 -5.69091 0
M  V30 1336 O 123.256 -2.32033 -5.55378 0
M  V30 1337 H 127.082 -2.02924 -2.25954 0
M  V30 1338 H 124.667 -1.04618 -1.06656 0
M  V30 1339 H 126.549 -0.507609 -4.18332 0
M  V30 1340 H 125.224 0.214291 -3.2299 0
M  V30 1341 H 124.131 -2.09919 -3.09653 0
M  V30 1342 H 125.464 -2.74557 -4.08509 0
M  V30 1343 N 127.117 1.15442 -1.07289 0
M  V30 1344 C 128.027 2.23786 -0.704057 0
M  V30 1345 C 129.043 1.7166 0.284413 0
M  V30 1346 O 130.219 2.00972 0.131205 0
M  V30 1347 C 127.284 3.46535 -0.106792 0
M  V30 1348 C 126.345 4.13654 -1.14842 0
M  V30 1349 C 125.578 5.30544 -0.57956 0
M  V30 1350 O 125.801 5.67187 0.604585 0
M  V30 1351 O 124.735 5.87154 -1.32414 0
M  V30 1352 H 128.561 2.57664 -1.60757 0
M  V30 1353 H 126.146 1.23152 -0.845803 0
M  V30 1354 H 128.028 4.20804 0.224048 0
M  V30 1355 H 126.703 3.14407 0.770049 0
M  V30 1356 H 125.61 3.4131 -1.5316 0
M  V30 1357 H 126.943 4.49861 -1.99714 0
M  V30 1358 N 128.595 0.856903 1.32268 0
M  V30 1359 C 129.844 0.457599 1.96441 0
M  V30 1360 C 130.157 -0.992426 1.68553 0
M  V30 1361 O 131.363 -1.49727 2.26482 0
M  V30 1362 C 129.819 0.767358 3.51624 0
M  V30 1363 C 129.427 2.23326 3.88367 0
M  V30 1364 C 131.171 0.435887 4.22256 0
M  V30 1365 C 129.078 2.48613 5.36606 0
M  V30 1366 H 128.008 0.167387 0.735185 0
M  V30 1367 H 130.659 1.048 1.5063 0
M  V30 1368 H 129.041 0.106367 3.95857 0
M  V30 1369 H 130.215 2.93623 3.55137 0
M  V30 1370 H 128.53 2.52948 3.30766 0
M  V30 1371 H 131.127 0.602202 5.31298 0
M  V30 1372 H 131.47 -0.622672 4.11617 0
M  V30 1373 H 132.003 1.05286 3.83614 0
M  V30 1374 H 128.742 3.53101 5.52268 0
M  V30 1375 H 128.262 1.82896 5.71235 0
M  V30 1376 H 129.941 2.32676 6.03714 0
M  V30 1377 N 130.073 -1.45103 0.615059 0
M  V30 1378 C 131.319 -2.02483 0.113347 0
M  V30 1379 C 131.652 -1.48146 -1.25564 0
M  V30 1380 O 130.927 -0.659104 -1.82992 0
M  V30 1381 C 131.21 -3.60005 0.0825278 0
M  V30 1382 C 131.063 -4.2466 1.48271 0
M  V30 1383 C 132.382 -4.35972 -0.601401 0
M  V30 1384 H 129.501 -0.735764 0.0426632 0
M  V30 1385 H 132.143 -1.72868 0.788461 0
M  V30 1386 H 130.293 -3.85367 -0.492378 0
M  V30 1387 H 131.965 -4.10458 2.10527 0
M  V30 1388 H 130.208 -3.82772 2.04127 0
M  V30 1389 H 130.879 -5.336 1.41332 0
M  V30 1390 H 133.355 -4.15947 -0.112666 0
M  V30 1391 H 132.231 -5.45697 -0.592097 0
M  V30 1392 H 132.492 -4.09391 -1.66887 0
M  V30 1393 N 131.551 -0.354651 -1.53558 0
M  V30 1394 C 132.499 0.512195 -2.26891 0
M  V30 1395 C 133.493 1.09263 -1.29452 0
M  V30 1396 O 134.699 1.03709 -1.47121 0
M  V30 1397 H 131.074 0.183878 -0.729173 0
M  V30 1398 H 133.045 -0.128202 -2.98124 0
M  V30 1399 C 131.794 1.64563 -3.06291 0
M  V30 1400 H 131.117 1.20829 -3.81104 0
M  V30 1401 H 132.557 2.22711 -3.60799 0
M  V30 1402 C 131.016 2.58158 -2.16462 0
M  V30 1403 O 131.546 3.60695 -1.76811 0
M  V30 1404 N 129.752 2.27096 -1.81317 0
M  V30 1405 H 129.299 1.43751 -2.1376 0
M  V30 1406 H 129.257 2.89975 -1.21498 0
M  V30 1407 N 133.029 1.57378 -0.0835403 0
M  V30 1408 C 133.959 2.1641 0.87686 0
M  V30 1409 C 134.94 1.09429 1.30228 0
M  V30 1410 O 136.125 1.37516 1.37124 0
M  V30 1411 C 133.255 2.73517 2.14022 0
M  V30 1412 C 132.209 3.85769 1.85381 0
M  V30 1413 C 131.535 4.29529 3.18448 0
M  V30 1414 C 132.835 5.09486 1.14984 0
M  V30 1415 H 134.529 2.96914 0.385059 0
M  V30 1416 H 132.075 1.42823 0.18377 0
M  V30 1417 H 134.028 3.13463 2.81636 0
M  V30 1418 H 132.752 1.90252 2.65465 0
M  V30 1419 H 131.411 3.46345 1.20169 0
M  V30 1420 H 131.059 3.43169 3.67755 0
M  V30 1421 H 130.759 5.05204 3.00071 0
M  V30 1422 H 132.283 4.72099 3.8724 0
M  V30 1423 H 133.697 5.46674 1.72687 0
M  V30 1424 H 132.094 5.90515 1.06826 0
M  V30 1425 H 133.164 4.84724 0.130749 0
M  V30 1426 N 134.507 -0.190092 1.56449 0
M  V30 1427 C 135.417 -1.25591 1.98152 0
M  V30 1428 C 136.433 -1.49519 0.889944 0
M  V30 1429 O 137.609 -1.62036 1.19609 0
M  V30 1430 C 134.674 -2.57916 2.3169 0
M  V30 1431 C 133.735 -2.42015 3.5458 0
M  V30 1432 C 132.968 -3.6803 3.8651 0
M  V30 1433 O 133.191 -4.72413 3.1966 0
M  V30 1434 O 132.125 -3.6326 4.79923 0
M  V30 1435 H 135.951 -0.931988 2.89046 0
M  V30 1436 H 133.536 -0.395488 1.4407 0
M  V30 1437 H 135.418 -3.36008 2.54316 0
M  V30 1438 H 134.093 -2.89925 1.43963 0
M  V30 1439 H 133 -1.62017 3.37196 0
M  V30 1440 H 134.333 -2.14937 4.4279 0
M  V30 1441 N 135.985 -1.50799 -0.457987 0
M  V30 1442 C 136.933 -1.71162 -1.575 0
M  V30 1443 C 137.927 -0.577592 -1.59249 0
M  V30 1444 O 139.133 -0.758443 -1.63241 0
M  V30 1445 H 135.508 -0.540468 -0.522875 0
M  V30 1446 H 137.479 -2.64837 -1.37492 0
M  V30 1447 C 136.228 -1.83496 -2.95338 0
M  V30 1448 H 135.551 -2.70153 -2.94716 0
M  V30 1449 H 136.991 -2.01765 -3.72917 0
M  V30 1450 C 135.45 -0.589694 -3.31699 0
M  V30 1451 O 135.98 0.265163 -4.00824 0
M  V30 1452 N 134.186 -0.439845 -2.87252 0
M  V30 1453 H 133.733 -1.13655 -2.31172 0
M  V30 1454 H 133.691 0.392159 -3.11945 0
M  V30 1455 N 137.463 0.71206 -1.40597 0
M  V30 1456 C 138.426 1.80785 -1.40888 0
M  V30 1457 C 139.426 1.57937 -0.302103 0
M  V30 1458 O 140.616 1.64913 -0.561182 0
M  V30 1459 C 137.748 3.18927 -1.20409 0
M  V30 1460 H 138.941 1.81924 -2.38419 0
M  V30 1461 H 136.494 0.91805 -1.26497 0
M  V30 1462 H 137.229 3.23436 -0.236522 0
M  V30 1463 H 137.014 3.36911 -2.00582 0
M  V30 1464 H 138.504 3.98949 -1.23408 0
M  V30 1465 N 138.941 1.26152 0.944643 0
M  V30 1466 C 140.166 1.14363 1.7302 0
M  V30 1467 C 140.591 -0.29772 1.85729 0
M  V30 1468 O 139.949 -1.2157 1.34501 0
M  V30 1469 C 139.997 1.81378 3.11664 0
M  V30 1470 O 139.101 1.10022 3.97453 0
M  V30 1471 H 138.442 0.398694 0.53098 0
M  V30 1472 H 140.972 1.66906 1.18337 0
M  V30 1473 H 140.982 1.88064 3.62072 0
M  V30 1474 H 139.657 2.86237 3.0173 0
M  V30 1475 H 138.234 1.11287 3.55907 0
M  V30 1476 N 140.419 -1.14872 1.07899 0
M  V30 1477 C 141.366 -2.19791 0.704319 0
M  V30 1478 C 142.336 -1.63238 -0.306987 0
M  V30 1479 O 143.521 -1.8983 -0.192171 0
M  V30 1480 C 140.661 -3.44911 0.114244 0
M  V30 1481 C 139.774 -4.15637 1.1777 0
M  V30 1482 C 138.909 -5.28324 0.552037 0
M  V30 1483 C 137.948 -5.90875 1.59789 0
M  V30 1484 N 137.085 -6.95022 0.994404 0
M  V30 1485 H 141.925 -2.5119 1.60336 0
M  V30 1486 H 139.462 -1.23356 0.801352 0
M  V30 1487 H 141.42 -4.16477 -0.245544 0
M  V30 1488 H 140.05 -3.14011 -0.74813 0
M  V30 1489 H 139.102 -3.42512 1.65499 0
M  V30 1490 H 140.414 -4.5823 1.97046 0
M  V30 1491 H 139.568 -6.06538 0.1402 0
M  V30 1492 H 138.307 -4.86939 -0.272431 0
M  V30 1493 H 137.312 -5.11369 2.01945 0
M  V30 1494 H 138.537 -6.34337 2.42474 0
M  V30 1495 H 136.483 -6.55722 0.190939 0
M  V30 1496 H 136.4 -7.36073 1.72432 0
M  V30 1497 H 137.668 -7.77123 0.608253 0
M  V30 1498 N 141.898 -0.863906 -1.31812 0
M  V30 1499 C 142.848 -0.286898 -2.26188 0
M  V30 1500 C 143.832 0.572577 -1.50367 0
M  V30 1501 O 145.024 0.420447 -1.71934 0
M  V30 1502 C 142.153 0.515849 -3.39402 0
M  V30 1503 C 141.239 -0.356531 -4.22599 0
M  V30 1504 N 141.63 -1.44716 -4.84656 0
M  V30 1505 C 139.928 -0.147898 -4.45755 0
M  V30 1506 C 140.629 -1.98462 -5.46798 0
M  V30 1507 N 139.605 -1.28247 -5.28255 0
M  V30 1508 H 143.407 -1.12055 -2.717 0
M  V30 1509 H 140.921 -0.711012 -1.46008 0
M  V30 1510 H 142.918 0.945701 -4.06032 0
M  V30 1511 H 141.578 1.34718 -2.95434 0
M  V30 1512 H 142.589 -1.83008 -4.84488 0
M  V30 1513 H 139.266 0.647973 -4.12441 0
M  V30 1514 H 140.656 -2.89932 -6.06126 0
M  V30 1515 N 143.376 1.44774 -0.622745 0
M  V30 1516 C 144.286 2.34433 0.0886031 0
M  V30 1517 C 145.302 1.52131 0.844529 0
M  V30 1518 O 146.478 1.84886 0.798691 0
M  V30 1519 C 143.543 3.29986 1.0635 0
M  V30 1520 C 142.604 4.28195 0.307873 0
M  V30 1521 C 141.837 5.19183 1.23633 0
M  V30 1522 O 142.06 5.13918 2.47476 0
M  V30 1523 O 140.994 5.97515 0.725189 0
M  V30 1524 H 144.82 2.96693 -0.648599 0
M  V30 1525 H 142.405 1.44408 -0.382957 0
M  V30 1526 H 144.287 3.88825 1.6246 0
M  V30 1527 H 142.962 2.70269 1.78146 0
M  V30 1528 H 141.869 3.72927 -0.296064 0
M  V30 1529 H 143.202 4.90808 -0.3699 0
M  V30 1530 N 144.854 0.36279 1.53368 0
M  V30 1531 C 146.27 0.0116182 1.59596 0
M  V30 1532 C 146.47 -1.47012 1.37803 0
M  V30 1533 O 145.526 -2.23136 1.18181 0
M  V30 1534 C 146.839 0.465052 2.97082 0
M  V30 1535 C 148.387 0.419033 3.10182 0
M  V30 1536 C 148.862 0.848235 4.50077 0
M  V30 1537 N 150.353 0.803183 4.56183 0
M  V30 1538 C 151.088 1.107 5.62613 0
M  V30 1539 N 150.584 1.47996 6.76808 0
M  V30 1540 N 152.377 1.02998 5.52583 0
M  V30 1541 H 144.528 1.32775 1.65785 0
M  V30 1542 H 146.791 0.542518 0.777417 0
M  V30 1543 H 146.497 1.49892 3.18159 0
M  V30 1544 H 146.371 -0.149786 3.76902 0
M  V30 1545 H 148.758 -0.605696 2.88817 0
M  V30 1546 H 148.839 1.06933 2.32377 0
M  V30 1547 H 148.483 1.87107 4.7218 0
M  V30 1548 H 148.413 0.175218 5.26308 0
M  V30 1549 H 150.904 0.52838 3.74188 0
M  V30 1550 H 151.217 1.69613 7.53957 0
M  V30 1551 H 149.562 1.51859 6.78206 0
M  V30 1552 H 152.753 0.737817 4.62249 0
M  V30 1553 H 152.926 1.2701 6.35431 0
M  V30 1554 N 146.332 -1.57332 0.0918853 0
M  V30 1555 C 147.579 -1.94236 -0.572577 0
M  V30 1556 C 147.907 -0.973398 -1.6839 0
M  V30 1557 O 147.162 0.00756912 -1.95699 0
M  V30 1558 C 147.461 -3.37689 -1.17051 0
M  V30 1559 C 147.127 -4.50527 -0.183304 0
M  V30 1560 C 145.789 -4.81119 0.0882276 0
M  V30 1561 C 148.141 -5.18883 0.49095 0
M  V30 1562 C 145.469 -5.77395 1.04076 0
M  V30 1563 C 147.821 -6.1618 1.43193 0
M  V30 1564 C 146.485 -6.45179 1.71173 0
M  V30 1565 H 145.755 -0.710762 -0.209521 0
M  V30 1566 H 148.402 -1.9077 0.167036 0
M  V30 1567 H 146.707 -3.37718 -1.9863 0
M  V30 1568 H 148.404 -3.63543 -1.69227 0
M  V30 1569 H 144.994 -4.26681 -0.405124 0
M  V30 1570 H 149.178 -4.95427 0.294312 0
M  V30 1571 H 144.434 -5.98179 1.26457 0
M  V30 1572 H 148.608 -6.68243 1.96023 0
M  V30 1573 H 146.235 -7.1959 2.4514 0
M  V30 1574 N 147.81 0.181792 -1.56548 0
M  V30 1575 C 148.773 1.20894 -1.94724 0
M  V30 1576 C 149.773 1.37738 -0.829747 0
M  V30 1577 O 150.963 1.35323 -1.09697 0
M  V30 1578 C 148.095 2.57593 -2.23291 0
M  V30 1579 H 149.288 0.882275 -2.86629 0
M  V30 1580 H 146.841 0.423838 -1.50444 0
M  V30 1581 H 147.576 2.95291 -1.34067 0
M  V30 1582 H 147.361 2.46735 -3.04736 0
M  V30 1583 H 148.851 3.31637 -2.53785 0
M  V30 1584 N 149.288 1.51039 0.449983 0
M  V30 1585 C 150.518 1.66627 1.22143 0
M  V30 1586 C 150.926 0.357776 1.85786 0
M  V30 1587 O 150.269 -0.672424 1.70951 0
M  V30 1588 C 150.331 2.71562 2.35573 0
M  V30 1589 C 149.995 4.14526 1.92399 0
M  V30 1590 C 150.992 4.99717 1.43453 0
M  V30 1591 C 148.677 4.60559 2.00475 0
M  V30 1592 C 150.671 6.28998 1.03155 0
M  V30 1593 C 148.358 5.8984 1.59788 0
M  V30 1594 C 149.356 6.73886 1.11208 0
M  V30 1595 O 149.044 8.0075 0.710935 0
M  V30 1596 H 148.776 0.562635 0.374724 0
M  V30 1597 H 151.33 1.98146 0.541036 0
M  V30 1598 H 149.56 2.3533 3.06849 0
M  V30 1599 H 151.249 2.76156 2.97478 0
M  V30 1600 H 152.015 4.65361 1.36618 0
M  V30 1601 H 147.894 3.95273 2.37235 0
M  V30 1602 H 151.438 6.9455 0.651663 0
M  V30 1603 H 147.335 6.23713 1.66289 0
M  V30 1604 H 148.103 8.142 0.837913 0
M  V30 1605 N 150.766 -0.704594 1.40972 0
M  V30 1606 C 151.696 -1.83124 1.44872 0
M  V30 1607 C 152.677 -1.67281 0.30838 0
M  V30 1608 O 153.862 -1.87149 0.518556 0
M  V30 1609 C 150.992 -3.21181 1.32136 0
M  V30 1610 C 149.946 -3.51714 2.43888 0
M  V30 1611 C 149.272 -4.89032 2.16222 0
M  V30 1612 C 150.572 -3.516 3.86232 0
M  V30 1613 H 152.266 -1.80117 2.39161 0
M  V30 1614 H 149.812 -0.865145 1.15114 0
M  V30 1615 H 151.765 -3.99702 1.33479 0
M  V30 1616 H 150.489 -3.24791 0.343279 0
M  V30 1617 H 149.148 -2.75539 2.41813 0
M  V30 1618 H 148.796 -4.89256 1.16778 0
M  V30 1619 H 148.496 -5.10426 2.911 0
M  V30 1620 H 150.02 -5.69873 2.19265 0
M  V30 1621 H 151.434 -4.2014 3.9007 0
M  V30 1622 H 149.831 -3.84523 4.60719 0
M  V30 1623 H 150.901 -2.50757 4.15029 0
M  V30 1624 N 152.244 -1.26651 -0.937939 0
M  V30 1625 C 153.655 -1.1125 -1.49934 0
M  V30 1626 C 154.006 0.306077 -1.93798 0
M  V30 1627 O 153.131 1.19792 -1.80219 0
M  V30 1628 C 153.726 -2.01339 -2.72485 0
M  V30 1629 C 152.285 -1.90074 -3.24883 0
M  V30 1630 C 151.432 -1.94498 -1.97651 0
M  V30 1631 H 154.383 -1.39693 -0.753091 0
M  V30 1632 H 154.404 -1.56319 -3.46907 0
M  V30 1633 H 153.916 -3.04577 -2.40529 0
M  V30 1634 H 152.017 -0.897827 -3.61621 0
M  V30 1635 H 152.13 -2.75778 -3.9177 0
M  V30 1636 H 150.494 -1.38591 -2.13693 0
M  V30 1637 H 151.277 -2.99372 -1.68022 0
M  V30 1638 N 153.722 1.14298 -1.08507 0
M  V30 1639 C 154.632 2.23027 -0.727753 0
M  V30 1640 C 155.648 1.71952 0.26619 0
M  V30 1641 O 156.824 2.011 0.109882 0
M  V30 1642 C 153.889 3.46403 -0.143541 0
M  V30 1643 C 152.95 4.12413 -1.19223 0
M  V30 1644 C 152.183 5.29899 -0.635798 0
M  V30 1645 O 152.406 5.67796 0.544393 0
M  V30 1646 O 151.34 5.85717 -1.38634 0
M  V30 1647 H 155.166 2.55945 -1.63481 0
M  V30 1648 H 152.751 1.22248 -0.858817 0
M  V30 1649 H 154.633 4.21018 0.179404 0
M  V30 1650 H 153.308 3.15206 0.736659 0
M  V30 1651 H 152.215 3.39667 -1.56772 0
M  V30 1652 H 153.548 4.47718 -2.04474 0
M  V30 1653 N 155.201 0.870884 1.31352 0
M  V30 1654 C 156.429 0.49677 2.00848 0
M  V30 1655 C 156.844 -0.910998 1.65367 0
M  V30 1656 O 156.201 -1.59696 0.883374 0
M  V30 1657 C 156.252 0.645308 3.55694 0
M  V30 1658 O 155.973 1.99764 3.89905 0
M  V30 1659 C 157.474 0.272326 4.42463 0
M  V30 1660 H 154.694 0.193462 0.642506 0
M  V30 1661 H 157.238 1.1723 1.67563 0
M  V30 1662 H 155.393 0.0173176 3.87396 0
M  V30 1663 H 155.807 2.00607 4.84621 0
M  V30 1664 H 157.281 0.427208 5.50344 0
M  V30 1665 H 157.758 -0.788587 4.32062 0
M  V30 1666 H 158.364 0.876054 4.1618 0
M  V30 1667 N 156.679 -1.44442 0.630414 0
M  V30 1668 C 157.927 -2.01653 0.134351 0
M  V30 1669 C 158.248 -1.49836 -1.24796 0
M  V30 1670 O 157.518 -0.701684 -1.82902 0
M  V30 1671 H 156.098 -0.74554 0.0466769 0
M  V30 1672 H 158.76 -1.76952 0.816955 0
M  V30 1673 H 157.856 -3.11935 0.101498 0
M  V30 1674 N 158.157 -0.370918 -1.53173 0
M  V30 1675 C 159.067 0.480823 -2.2962 0
M  V30 1676 C 160.083 1.08789 -1.35798 0
M  V30 1677 O 161.259 1.09768 -1.68858 0
M  V30 1678 C 158.324 1.60227 -3.07454 0
M  V30 1679 C 157.385 1.0222 -4.16953 0
M  V30 1680 C 156.618 2.0902 -4.91066 0
M  V30 1681 O 156.841 3.30222 -4.65091 0
M  V30 1682 O 155.775 1.71778 -5.76867 0
M  V30 1683 H 159.601 -0.141421 -3.03371 0
M  V30 1684 H 157.186 -0.135146 -1.48787 0
M  V30 1685 H 159.068 2.25417 -3.56041 0
M  V30 1686 H 157.743 2.20982 -2.36535 0
M  V30 1687 H 156.65 0.334064 -3.72605 0
M  V30 1688 H 157.983 0.459131 -4.90054 0
M  V30 1689 N 159.635 1.57281 -0.100228 0
M  V30 1690 C 160.545 2.17833 0.870965 0
M  V30 1691 C 161.561 1.14921 1.30649 0
M  V30 1692 O 162.737 1.47313 1.37335 0
M  V30 1693 C 159.802 2.75085 2.1102 0
M  V30 1694 C 158.863 3.9297 1.72838 0
M  V30 1695 C 158.096 4.47482 2.90854 0
M  V30 1696 O 158.319 4.00922 4.05731 0
M  V30 1697 O 157.253 5.38433 2.69023 0
M  V30 1698 H 161.079 3.0124 0.38575 0
M  V30 1699 H 158.664 1.48881 0.124397 0
M  V30 1700 H 160.546 3.11656 2.83634 0
M  V30 1701 H 159.221 1.94721 2.58584 0
M  V30 1702 H 158.128 3.61201 0.973883 0
M  V30 1703 H 159.461 4.74713 1.30033 0
M  V30 1704 N 161.113 -0.173488 1.56642 0
M  V30 1705 C 162.362 -0.888758 1.81063 0
M  V30 1706 C 162.675 -1.83506 0.67712 0
M  V30 1707 O 163.881 -2.59254 0.806206 0
M  V30 1708 C 162.337 -1.63091 3.20826 0
M  V30 1709 C 161.945 -0.728357 4.4204 0
M  V30 1710 C 163.689 -2.33454 3.54541 0
M  V30 1711 C 161.596 -1.47062 5.72823 0
M  V30 1712 H 160.526 -0.335618 0.675186 0
M  V30 1713 H 163.177 -0.141712 1.82952 0
M  V30 1714 H 161.559 -2.42263 3.13248 0
M  V30 1715 H 162.733 0.0262449 4.60793 0
M  V30 1716 H 161.048 -0.134492 4.16183 0
M  V30 1717 H 163.645 -2.89578 4.49498 0
M  V30 1718 H 163.988 -3.08687 2.79317 0
M  V30 1719 H 164.521 -1.61227 3.63663 0
M  V30 1720 H 161.26 -0.760658 6.51072 0
M  V30 1721 H 160.78 -2.1986 5.58052 0
M  V30 1722 H 162.459 -2.01868 6.14702 0
M  V30 1723 N 162.591 -1.51276 -0.441967 0
M  V30 1724 C 163.821 -1.67273 -1.21257 0
M  V30 1725 C 164.229 -0.367624 -1.85594 0
M  V30 1726 O 163.572 0.663349 -1.71305 0
M  V30 1727 C 163.634 -2.72807 -2.34129 0
M  V30 1728 C 163.298 -4.1554 -1.90198 0
M  V30 1729 C 164.295 -5.00471 -1.40801 0
M  V30 1730 C 161.98 -4.61616 -1.9803 0
M  V30 1731 C 163.974 -6.29536 -0.998174 0
M  V30 1732 C 161.661 -5.90679 -1.56658 0
M  V30 1733 C 162.659 -6.74466 -1.07633 0
M  V30 1734 O 162.347 -8.01116 -0.668459 0
M  V30 1735 H 162.079 -0.564614 -0.371734 0
M  V30 1736 H 164.633 -1.9843 -0.530521 0
M  V30 1737 H 162.863 -2.36954 -3.05597 0
M  V30 1738 H 164.552 -2.77729 -2.96009 0
M  V30 1739 H 165.318 -4.66079 -1.34148 0
M  V30 1740 H 161.197 -3.96526 -2.35135 0
M  V30 1741 H 164.741 -6.94885 -0.61482 0
M  V30 1742 H 160.638 -6.24586 -1.62979 0
M  V30 1743 H 161.406 -8.14633 -0.794722 0
M  V30 1744 N 164.069 0.697108 -1.41344 0
M  V30 1745 C 165.017 1.83237 -1.43272 0
M  V30 1746 C 166.011 1.66522 -0.310947 0
M  V30 1747 O 167.217 1.73402 -0.482899 0
M  V30 1748 H 163.592 0.603802 -0.448249 0
M  V30 1749 H 165.563 1.78727 -2.38954 0
M  V30 1750 C 164.312 3.21245 -1.33029 0
M  V30 1751 H 163.635 3.34723 -2.18633 0
M  V30 1752 H 165.075 4.00763 -1.38439 0
M  V30 1753 C 163.534 3.36873 -0.0424635 0
M  V30 1754 O 164.064 3.91177 0.913421 0
M  V30 1755 N 162.27 2.90581 0.0331145 0
M  V30 1756 H 161.817 2.46577 -0.745506 0
M  V30 1757 H 161.775 3.01416 0.894199 0
M  V30 1758 N 165.547 1.27147 0.931209 0
M  V30 1759 C 166.772 1.16191 1.71797 0
M  V30 1760 C 167.197 -0.278004 1.86034 0
M  V30 1761 O 166.555 -1.20137 1.35782 0
M  V30 1762 C 166.603 1.84673 3.09723 0
M  V30 1763 O 165.707 1.14231 3.96264 0
M  V30 1764 H 165.048 0.404303 0.526721 0
M  V30 1765 H 167.578 1.68152 1.1656 0
M  V30 1766 H 167.588 1.91893 3.60057 0
M  V30 1767 H 166.263 2.89421 2.98677 0
M  V30 1768 H 164.84 1.15056 3.54706 0
M  V30 1769 N 167.025 -1.13721 1.09112 0
M  V30 1770 C 168.272 -1.84924 0.825192 0
M  V30 1771 C 168.6 -1.83347 -0.649151 0
M  V30 1772 O 167.855 -1.26449 -1.49362 0
M  V30 1773 C 168.154 -3.32861 1.30146 0
M  V30 1774 C 167.82 -3.54621 2.78486 0
M  V30 1775 C 166.482 -3.60268 3.18999 0
M  V30 1776 C 168.834 -3.62855 3.74146 0
M  V30 1777 C 166.162 -3.71679 4.53951 0
M  V30 1778 C 168.514 -3.75793 5.08883 0
M  V30 1779 C 167.178 -3.79692 5.4899 0
M  V30 1780 H 166.448 -0.676684 0.301959 0
M  V30 1781 H 169.095 -1.3428 1.36533 0
M  V30 1782 H 167.4 -3.85835 0.681064 0
M  V30 1783 H 169.097 -3.86395 1.07236 0
M  V30 1784 H 165.687 -3.50879 2.46134 0
M  V30 1785 H 169.871 -3.57775 3.43963 0
M  V30 1786 H 165.127 -3.72963 4.84467 0
M  V30 1787 H 169.301 -3.81107 5.82864 0
M  V30 1788 H 166.928 -3.88287 6.53558 0
M  V30 1789 N 168.503 -0.877838 -1.30888 0
M  V30 1790 C 169.433 -0.35534 -2.3078 0
M  V30 1791 C 170.414 0.557994 -1.60687 0
M  V30 1792 O 171.599 0.473355 -1.88343 0
M  V30 1793 C 168.729 0.437221 -3.44537 0
M  V30 1794 C 167.683 -0.383715 -4.26276 0
M  V30 1795 C 167.009 0.535014 -5.32017 0
M  V30 1796 C 168.309 -1.62201 -4.96476 0
M  V30 1797 H 170.003 -1.19007 -2.74732 0
M  V30 1798 H 167.549 -0.573698 -1.32078 0
M  V30 1799 H 169.502 0.813334 -4.13477 0
M  V30 1800 H 168.226 1.30553 -2.99372 0
M  V30 1801 H 166.885 -0.741874 -3.59015 0
M  V30 1802 H 166.533 1.40083 -4.831 0
M  V30 1803 H 166.233 -0.0104211 -5.87599 0
M  V30 1804 H 167.757 0.907799 -6.03814 0
M  V30 1805 H 169.171 -1.31689 -5.5797 0
M  V30 1806 H 167.568 -2.10711 -5.61891 0
M  V30 1807 H 168.638 -2.37044 -4.23011 0
M  V30 1808 N 169.982 1.44106 -0.638065 0
M  V30 1809 C 171.23 2.01579 -0.145043 0
M  V30 1810 C 171.551 1.50496 1.24 0
M  V30 1811 O 170.821 0.711374 1.82527 0
M  V30 1812 H 169.401 0.745282 -0.05063 0
M  V30 1813 H 172.063 1.76516 -0.826327 0
M  V30 1814 H 171.159 3.11877 -0.118039 0
M  V30 1815 N 171.46 0.379036 1.52974 0
M  V30 1816 C 172.706 -0.206727 2.01744 0
M  V30 1817 C 173.039 -1.47314 1.26539 0
M  V30 1818 O 172.314 -1.91084 0.362903 0
M  V30 1819 C 172.597 -0.485066 3.56818 0
M  V30 1820 C 172.45 0.795919 4.42702 0
M  V30 1821 C 173.769 -1.28003 4.21074 0
M  V30 1822 H 170.888 -0.0736607 0.73331 0
M  V30 1823 H 173.53 0.506581 1.83122 0
M  V30 1824 H 171.68 -1.09272 3.72816 0
M  V30 1825 H 173.352 1.43307 4.38476 0
M  V30 1826 H 171.595 1.41344 4.10127 0
M  V30 1827 H 172.266 0.555947 5.49193 0
M  V30 1828 H 174.742 -0.765867 4.08991 0
M  V30 1829 H 173.618 -1.44352 5.29579 0
M  V30 1830 H 173.879 -2.29236 3.78026 0
M  V30 1831 N 172.938 -1.57226 0.108567 0
M  V30 1832 C 174.349 -1.8195 -0.418464 0
M  V30 1833 C 174.7 -1.02508 -1.67292 0
M  V30 1834 O 173.825 -0.258496 -2.14851 0
M  V30 1835 C 174.42 -3.30028 -0.765979 0
M  V30 1836 C 172.979 -3.55469 -1.23769 0
M  V30 1837 C 172.126 -2.7625 -0.241106 0
M  V30 1838 H 175.077 -1.55149 0.33384 0
M  V30 1839 H 175.098 -3.44086 -1.62434 0
M  V30 1840 H 174.61 -3.87821 0.147219 0
M  V30 1841 H 172.711 -3.03022 -2.16814 0
M  V30 1842 H 172.824 -4.6408 -1.19022 0
M  V30 1843 H 171.188 -2.44133 -0.72602 0
M  V30 1844 H 171.971 -3.36797 0.665007 0
M  V30 1845 N 174.416 0.165178 -1.56732 0
M  V30 1846 C 175.662 0.882112 -1.82611 0
M  V30 1847 C 175.995 1.81628 -0.687378 0
M  V30 1848 O 175.27 1.92009 0.310267 0
M  V30 1849 C 175.553 1.67245 -3.18906 0
M  V30 1850 C 175.406 0.760987 -4.43316 0
M  V30 1851 C 176.725 2.63884 -3.52212 0
M  V30 1852 H 173.844 0.319242 -0.664269 0
M  V30 1853 H 176.486 0.148052 -1.89422 0
M  V30 1854 H 174.636 2.29824 -3.1323 0
M  V30 1855 H 176.308 0.147596 -4.61064 0
M  V30 1856 H 174.551 0.0694102 -4.33744 0
M  V30 1857 H 175.222 1.34962 -5.35247 0
M  V30 1858 H 177.698 2.11429 -3.58381 0
M  V30 1859 H 176.574 3.16245 -4.48643 0
M  V30 1860 H 176.835 3.44377 -2.77231 0
M  V30 1861 N 175.894 1.51508 0.433938 0
M  V30 1862 C 176.827 1.67756 1.54704 0
M  V30 1863 C 177.805 0.525127 1.53887 0
M  V30 1864 O 178.989 0.749393 1.72963 0
M  V30 1865 C 176.116 1.69424 2.9328 0
M  V30 1866 C 175.162 2.90673 3.12108 0
M  V30 1867 S 175.995 4.51431 2.88046 0
M  V30 1868 C 177.151 4.55849 4.28897 0
M  V30 1869 H 177.384 2.61904 1.40689 0
M  V30 1870 H 174.917 1.41235 0.62386 0
M  V30 1871 H 176.875 1.7107 3.73156 0
M  V30 1872 H 175.536 0.764464 3.04655 0
M  V30 1873 H 174.729 2.88251 4.13434 0
M  V30 1874 H 174.331 2.86786 2.40062 0
M  V30 1875 H 176.623 4.31699 5.22152 0
M  V30 1876 H 177.566 5.57676 4.36351 0
M  V30 1877 H 177.974 3.85137 4.12711 0
M  V30 1878 N 177.372 -0.689602 1.41712 0
M  V30 1879 C 178.602 -1.47613 1.44548 0
M  V30 1880 C 179.01 -1.89132 0.0509034 0
M  V30 1881 O 178.353 -1.57741 -0.94146 0
M  V30 1882 C 178.415 -2.76596 2.2964 0
M  V30 1883 C 178.079 -2.57245 3.77722 0
M  V30 1884 C 179.076 -2.22804 4.69739 0
M  V30 1885 C 176.761 -2.727 4.2183 0
M  V30 1886 C 178.755 -2.04064 6.03851 0
M  V30 1887 C 176.442 -2.53576 5.56006 0
M  V30 1888 C 177.44 -2.1931 6.46832 0
M  V30 1889 O 177.128 -2.00359 7.78532 0
M  V30 1890 H 176.86 -0.461227 0.494212 0
M  V30 1891 H 179.414 -0.856045 1.86711 0
M  V30 1892 H 177.644 -3.41033 1.82301 0
M  V30 1893 H 179.333 -3.38424 2.24107 0
M  V30 1894 H 180.099 -2.10473 4.36951 0
M  V30 1895 H 175.978 -2.98353 3.51435 0
M  V30 1896 H 179.522 -1.77241 6.74708 0
M  V30 1897 H 175.419 -2.65499 5.88371 0
M  V30 1898 H 176.187 -2.15075 7.89737 0
M  V30 1899 N 178.85 -1.27639 -0.924453 0
M  V30 1900 C 180.266 -1.05113 -1.20097 0
M  V30 1901 C 180.466 0.213262 -2.00368 0
M  V30 1902 O 179.522 0.91787 -2.35226 0
M  V30 1903 C 180.835 -2.29244 -1.94596 0
M  V30 1904 C 182.383 -2.34315 -2.07522 0
M  V30 1905 C 182.858 -3.58183 -2.85427 0
M  V30 1906 N 184.349 -3.5876 -2.92994 0
M  V30 1907 C 185.084 -4.51277 -3.53746 0
M  V30 1908 N 184.58 -5.54102 -4.15863 0
M  V30 1909 N 186.373 -4.38894 -3.51181 0
M  V30 1910 H 178.524 -2.08821 -0.388264 0
M  V30 1911 H 180.787 -0.918568 -0.234385 0
M  V30 1912 H 180.493 -3.21301 -1.43034 0
M  V30 1913 H 180.367 -2.34816 -2.95197 0
M  V30 1914 H 182.754 -1.42762 -2.58269 0
M  V30 1915 H 182.835 -2.32744 -1.06131 0
M  V30 1916 H 182.479 -4.50074 -2.35363 0
M  V30 1917 H 182.409 -3.57006 -3.8711 0
M  V30 1918 H 184.9 -2.84398 -2.4885 0
M  V30 1919 H 185.213 -6.20859 -4.60168 0
M  V30 1920 H 183.558 -5.57941 -4.144 0
M  V30 1921 H 186.749 -3.57772 -3.01856 0
M  V30 1922 H 186.922 -5.11186 -3.98237 0
M  V30 1923 N 180.328 1.1314 -1.09713 0
M  V30 1924 C 181.744 1.36477 -0.827423 0
M  V30 1925 C 181.944 1.93654 0.556817 0
M  V30 1926 O 181 2.15791 1.31112 0
M  V30 1927 C 182.313 2.31334 -1.92106 0
M  V30 1928 C 183.861 2.44943 -1.94864 0
M  V30 1929 C 184.336 3.4311 -3.0338 0
M  V30 1930 N 185.827 3.50662 -3.02639 0
M  V30 1931 C 186.562 4.2651 -3.83246 0
M  V30 1932 N 186.058 5.05485 -4.73768 0
M  V30 1933 N 187.851 4.2184 -3.71493 0
M  V30 1934 H 180.002 0.743807 -1.9895 0
M  V30 1935 H 182.265 0.389823 -0.864143 0
M  V30 1936 H 181.971 1.96483 -2.91698 0
M  V30 1937 H 181.845 3.31381 -1.80184 0
M  V30 1938 H 184.232 2.79079 -0.959099 0
M  V30 1939 H 184.313 1.4481 -2.10864 0
M  V30 1940 H 183.957 3.09704 -4.02549 0
M  V30 1941 H 183.887 4.43055 -2.84622 0
M  V30 1942 H 186.378 2.94315 -2.37039 0
M  V30 1943 H 186.691 5.60675 -5.3185 0
M  V30 1944 H 185.036 5.04708 -4.77802 0
M  V30 1945 H 188.227 3.5922 -3.00131 0
M  V30 1946 H 188.4 4.80697 -4.3455 0
M  V30 1947 N 181.806 0.884767 1.30421 0
M  V30 1948 C 182.753 0.349642 2.28136 0
M  V30 1949 C 183.723 -0.560061 1.56373 0
M  V30 1950 O 184.908 -0.488524 1.8444 0
M  V30 1951 C 182.048 -0.42999 3.42411 0
M  V30 1952 C 181.161 0.508907 4.28992 0
M  V30 1953 C 180.296 -0.286301 5.30428 0
M  V30 1954 C 179.335 0.648079 6.08659 0
M  V30 1955 N 178.472 -0.111792 7.02011 0
M  V30 1956 H 183.312 1.18807 2.73293 0
M  V30 1957 H 180.849 0.597231 1.3443 0
M  V30 1958 H 182.807 -0.897923 4.07423 0
M  V30 1959 H 181.437 -1.23299 2.98324 0
M  V30 1960 H 180.489 1.09533 3.64289 0
M  V30 1961 H 181.801 1.22475 4.8353 0
M  V30 1962 H 180.955 -0.816098 6.01186 0
M  V30 1963 H 179.694 -1.03536 4.76583 0
M  V30 1964 H 178.699 1.18951 5.36778 0
M  V30 1965 H 179.924 1.39623 6.64592 0
M  V30 1966 H 177.87 -0.843395 6.50556 0
M  V30 1967 H 177.787 0.544429 7.54037 0
M  V30 1968 H 179.055 -0.622339 7.77012 0
M  V30 1969 N 183.284 -1.43765 0.645699 0
M  V30 1970 C 184.53 -2.02197 0.156271 0
M  V30 1971 C 184.863 -1.50776 -1.22393 0
M  V30 1972 O 184.138 -0.697771 -1.81553 0
M  V30 1973 C 184.421 -3.59749 0.158872 0
M  V30 1974 C 184.274 -4.21419 1.57245 0
M  V30 1975 C 185.593 -4.37149 -0.50879 0
M  V30 1976 H 182.712 -0.734694 0.0582602 0
M  V30 1977 H 185.354 -1.71157 0.824951 0
M  V30 1978 H 183.504 -3.86325 -0.410525 0
M  V30 1979 H 185.176 -4.059 2.19186 0
M  V30 1980 H 183.419 -3.78356 2.122 0
M  V30 1981 H 184.09 -5.30482 1.52619 0
M  V30 1982 H 186.566 -4.16093 -0.024412 0
M  V30 1983 H 185.442 -5.4683 -0.476213 0
M  V30 1984 H 185.703 -4.12839 -1.58165 0
M  V30 1985 N 184.763 -0.387143 -1.52771 0
M  V30 1986 C 185.696 0.493123 -2.22808 0
M  V30 1987 C 186.674 1.0658 -1.22798 0
M  V30 1988 O 187.858 1.11785 -1.51777 0
M  V30 1989 C 184.985 1.68238 -2.93962 0
M  V30 1990 C 184.031 1.23515 -4.08223 0
M  V30 1991 S 184.864 0.21848 -5.35054 0
M  V30 1992 C 186.02 1.41357 -6.09729 0
M  V30 1993 H 186.253 -0.101625 -2.97126 0
M  V30 1994 H 183.786 -0.171323 -1.53447 0
M  V30 1995 H 185.744 2.36443 -3.35567 0
M  V30 1996 H 184.405 2.24842 -2.19328 0
M  V30 1997 H 183.598 2.12304 -4.57103 0
M  V30 1998 H 183.2 0.632044 -3.68621 0
M  V30 1999 H 185.492 2.34101 -6.3577 0
M  V30 2000 H 186.435 0.965736 -7.01484 0
M  V30 2001 H 186.843 1.6294 -5.40473 0
M  V30 2002 N 186.241 1.57166 -0.116904 0
M  V30 2003 C 187.489 1.94737 0.540533 0
M  V30 2004 C 187.81 1.00096 1.67349 0
M  V30 2005 O 187.08 0.0568854 1.95817 0
M  V30 2006 H 185.66 0.718981 0.202669 0
M  V30 2007 H 188.322 1.94017 -0.185353 0
M  V30 2008 H 187.418 2.97719 0.936483 0
M  V30 2009 N 187.719 -0.156864 1.56817 0
M  V30 2010 C 188.965 -0.872416 1.83076 0
M  V30 2011 C 189.298 -1.81261 0.697001 0
M  V30 2012 O 188.573 -1.92171 -0.30008 0
M  V30 2013 C 188.856 -1.65551 3.19789 0
M  V30 2014 C 188.709 -0.737467 4.43713 0
M  V30 2015 C 190.028 -2.62012 3.53606 0
M  V30 2016 H 187.147 -0.315715 0.665953 0
M  V30 2017 H 189.789 -0.138004 1.89498 0
M  V30 2018 H 187.939 -2.28159 3.14445 0
M  V30 2019 H 189.611 -0.123143 4.61136 0
M  V30 2020 H 187.854 -0.0464067 4.33775 0
M  V30 2021 H 188.525 -1.32122 5.35955 0
M  V30 2022 H 191.001 -2.09525 3.59497 0
M  V30 2023 H 189.877 -3.13861 4.50314 0
M  V30 2024 H 190.138 -3.42902 2.79053 0
M  V30 2025 N 189.197 -1.51736 -0.425897 0
M  V30 2026 C 190.127 -1.76827 -1.52494 0
M  V30 2027 C 191.108 -0.618524 -1.58456 0
M  V30 2028 O 192.293 -0.862416 -1.74 0
M  V30 2029 C 189.423 -1.90374 -2.90474 0
M  V30 2030 C 188.377 -3.0588 -2.99369 0
M  V30 2031 C 187.703 -3.04625 -4.3944 0
M  V30 2032 C 189.003 -4.45644 -2.72394 0
M  V30 2033 H 190.697 -2.68855 -1.31748 0
M  V30 2034 H 188.243 -1.29372 -0.632362 0
M  V30 2035 H 190.196 -2.0651 -3.6733 0
M  V30 2036 H 188.92 -0.95004 -3.12477 0
M  V30 2037 H 187.579 -2.89467 -2.24954 0
M  V30 2038 H 187.227 -2.0701 -4.58428 0
M  V30 2039 H 186.927 -3.82195 -4.46319 0
M  V30 2040 H 188.451 -3.22869 -5.18255 0
M  V30 2041 H 189.865 -4.62348 -3.38979 0
M  V30 2042 H 188.262 -5.25006 -2.9067 0
M  V30 2043 H 189.332 -4.54893 -1.67929 0
M  V30 2044 N 190.675 0.682077 -1.42076 0
M  V30 2045 C 191.921 1.44428 -1.42367 0
M  V30 2046 C 192.254 1.94164 -0.0373056 0
M  V30 2047 O 191.529 1.70429 0.937239 0
M  V30 2048 C 191.812 2.64654 -2.44194 0
M  V30 2049 C 191.665 2.20596 -3.91991 0
M  V30 2050 C 192.984 3.66865 -2.431 0
M  V30 2051 H 190.103 0.523834 -0.518428 0
M  V30 2052 H 192.745 0.77576 -1.73442 0
M  V30 2053 H 190.895 3.2169 -2.17826 0
M  V30 2054 H 192.567 1.68783 -4.29313 0
M  V30 2055 H 190.81 1.52242 -4.06208 0
M  V30 2056 H 191.481 3.06921 -4.58807 0
M  V30 2057 H 193.957 3.19531 -2.66532 0
M  V30 2058 H 192.833 4.48577 -3.16339 0
M  V30 2059 H 193.094 4.17493 -1.45437 0
M  V30 2060 N 192.153 1.28127 0.917671 0
M  V30 2061 C 193.399 1.15223 1.66888 0
M  V30 2062 C 193.732 -0.299293 1.9188 0
M  V30 2063 O 193.007 -1.21805 1.51637 0
M  V30 2064 C 193.29 1.94706 3.02922 0
M  V30 2065 C 193.143 3.47898 2.85109 0
M  V30 2066 C 194.462 1.75939 4.03402 0
M  V30 2067 H 191.581 0.419946 0.605652 0
M  V30 2068 H 194.223 1.57398 1.06423 0
M  V30 2069 H 192.373 1.58864 3.54534 0
M  V30 2070 H 194.045 3.93624 2.40537 0
M  V30 2071 H 192.288 3.7373 2.20246 0
M  V30 2072 H 192.959 3.98765 3.81694 0
M  V30 2073 H 195.435 2.07209 3.60837 0
M  V30 2074 H 194.311 2.33931 4.96556 0
M  V30 2075 H 194.572 0.709877 4.36364 0
M  V30 2076 N 193.631 -1.12557 1.10312 0
M  V30 2077 C 194.563 -2.17971 0.708625 0
M  V30 2078 C 195.576 -1.60806 -0.254027 0
M  V30 2079 O 196.765 -1.78458 -0.0386891 0
M  V30 2080 C 193.865 -3.38891 0.0248198 0
M  V30 2081 C 193.038 -4.25548 1.01132 0
M  V30 2082 C 192.097 -5.24972 0.35924 0
M  V30 2083 O 191.123 -5.60174 1.00965 0
M  V30 2084 N 192.325 -5.73747 -0.882847 0
M  V30 2085 H 195.09 -2.52427 1.61557 0
M  V30 2086 H 192.651 -1.27967 0.991771 0
M  V30 2087 H 194.643 -4.02485 -0.422852 0
M  V30 2088 H 193.213 -3.02596 -0.784514 0
M  V30 2089 H 192.433 -3.58589 1.6373 0
M  V30 2090 H 193.721 -4.80294 1.67914 0
M  V30 2091 H 193.119 -5.4731 -1.43065 0
M  V30 2092 H 191.676 -6.39234 -1.27369 0
M  V30 2093 N 195.109 -0.891671 -1.2995 0
M  V30 2094 C 196.057 -0.353066 -2.29905 0
M  V30 2095 C 197.051 0.543509 -1.60444 0
M  V30 2096 O 198.257 0.4272 -1.74857 0
M  V30 2097 H 194.632 -0.095531 -0.745907 0
M  V30 2098 H 196.603 -1.20961 -2.72784 0
M  V30 2099 C 195.352 0.411475 -3.45257 0
M  V30 2100 H 194.675 -0.269182 -3.98893 0
M  V30 2101 H 196.115 0.753328 -4.17254 0
M  V30 2102 C 194.574 1.6111 -2.9588 0
M  V30 2103 O 195.104 2.71045 -2.96475 0
M  V30 2104 N 193.31 1.45054 -2.51809 0
M  V30 2105 H 192.857 0.556175 -2.51524 0
M  V30 2106 H 192.815 2.25453 -2.1913 0
M  V30 2107 N 196.587 1.43421 -0.653314 0
M  V30 2108 C 197.534 2.30768 0.0382271 0
M  V30 2109 C 198.504 1.44755 0.814576 0
M  V30 2110 O 199.689 1.73624 0.791162 0
M  V30 2111 C 196.829 3.30336 0.998599 0
M  V30 2112 C 195.942 4.31448 0.218342 0
M  V30 2113 C 195.077 5.18098 1.17252 0
M  V30 2114 C 194.116 6.10902 0.382702 0
M  V30 2115 N 193.253 6.90176 1.28848 0
M  V30 2116 H 198.093 2.89357 -0.712511 0
M  V30 2117 H 195.63 1.42548 -0.363128 0
M  V30 2118 H 197.588 3.86572 1.56901 0
M  V30 2119 H 196.218 2.73397 1.71621 0
M  V30 2120 H 195.27 3.77506 -0.46836 0
M  V30 2121 H 196.582 4.97227 -0.395812 0
M  V30 2122 H 195.736 5.7896 1.81356 0
M  V30 2123 H 194.475 4.52444 1.82058 0
M  V30 2124 H 193.48 5.49128 -0.27169 0
M  V30 2125 H 194.705 6.78598 -0.260957 0
M  V30 2126 H 192.651 6.27171 1.92334 0
M  V30 2127 H 192.568 7.52478 0.728887 0
M  V30 2128 H 193.836 7.55543 1.91766 0
M  V30 2129 N 198.065 0.39524 1.52563 0
M  V30 2130 C 198.997 -0.472201 2.24283 0
M  V30 2131 C 200.01 -1.02178 1.26742 0
M  V30 2132 O 201.199 -0.923097 1.52778 0
M  V30 2133 C 198.299 -1.66775 2.95024 0
M  V30 2134 C 197.472 -1.2445 4.19322 0
M  V30 2135 C 196.531 -2.30539 4.7301 0
M  V30 2136 O 195.557 -1.91702 5.35947 0
M  V30 2137 N 196.759 -3.6253 4.53379 0
M  V30 2138 H 199.524 0.142282 2.99362 0
M  V30 2139 H 197.085 0.2219 1.60372 0
M  V30 2140 H 199.077 -2.37283 3.27839 0
M  V30 2141 H 197.647 -2.18845 2.23217 0
M  V30 2142 H 196.867 -0.368069 3.92478 0
M  V30 2143 H 198.155 -0.938457 5.0007 0
M  V30 2144 H 197.553 -3.96841 4.03154 0
M  V30 2145 H 196.11 -4.29055 4.90668 0
M  V30 2146 N 199.544 -1.57102 0.125237 0
M  V30 2147 C 200.955 -1.82384 -0.399142 0
M  V30 2148 C 201.306 -1.04276 -1.66195 0
M  V30 2149 O 200.431 -0.281269 -2.14564 0
M  V30 2150 C 201.026 -3.30821 -0.730932 0
M  V30 2151 C 199.585 -3.56762 -1.19992 0
M  V30 2152 C 198.732 -2.7649 -0.211792 0
M  V30 2153 H 201.683 -1.54786 0.350277 0
M  V30 2154 H 201.704 -3.4579 -1.58775 0
M  V30 2155 H 201.216 -3.87643 0.188345 0
M  V30 2156 H 199.317 -3.05305 -2.13588 0
M  V30 2157 H 199.43 -4.65317 -1.14093 0
M  V30 2158 H 197.794 -2.4489 -0.700085 0
M  V30 2159 H 198.577 -3.36073 0.700691 0
M  V30 2160 N 201.022 0.148545 -1.56898 0
M  V30 2161 C 201.954 1.20852 -1.9475 0
M  V30 2162 C 202.967 1.39265 -0.843152 0
M  V30 2163 O 204.156 1.38864 -1.12156 0
M  V30 2164 C 201.256 2.57362 -2.20495 0
M  V30 2165 C 200.429 2.59947 -3.51776 0
M  V30 2166 C 199.488 3.77984 -3.6608 0
M  V30 2167 O 198.514 3.62929 -4.38487 0
M  V30 2168 N 199.716 4.95375 -3.02629 0
M  V30 2169 H 202.481 0.886804 -2.86279 0
M  V30 2170 H 200.042 0.338121 -1.5833 0
M  V30 2171 H 202.034 3.34833 -2.27307 0
M  V30 2172 H 200.604 2.81832 -1.35238 0
M  V30 2173 H 199.824 1.68403 -3.56419 0
M  V30 2174 H 201.112 2.58704 -4.38121 0
M  V30 2175 H 200.51 5.10509 -2.43715 0
M  V30 2176 H 199.067 5.70627 -3.15004 0
M  V30 2177 N 202.5 1.5196 0.417844 0
M  V30 2178 C 203.777 1.56146 1.17803 0
M  V30 2179 C 204.157 0.337275 2.08388 0
M  V30 2180 O 203.505 -0.676447 2.18258 0
M  V30 2181 C 203.715 2.88566 1.96293 0
M  V30 2182 C 205.063 3.41244 2.52662 0
M  V30 2183 O 206.087 2.90247 2.06483 0
M  V30 2184 O 204.946 4.30273 3.36938 0
M  V30 2185 H 202.04 0.628598 0.537395 0
M  V30 2186 H 204.586 1.64283 0.425331 0
M  V30 2187 H 203.358 3.69116 1.2988 0
M  V30 2188 H 202.981 2.83681 2.78587 0
M  V30 2189 N 203.978 -0.674533 1.42435 0
M  V30 2190 C 205.225 -1.43459 1.42919 0
M  V30 2191 C 205.553 -1.94446 0.0457312 0
M  V30 2192 O 204.808 -1.7132 -0.94593 0
M  V30 2193 C 205.107 -2.64767 2.40069 0
M  V30 2194 C 204.773 -2.3232 3.86443 0
M  V30 2195 C 203.435 -2.23182 4.26314 0
M  V30 2196 C 205.787 -2.05977 4.78773 0
M  V30 2197 C 203.115 -1.85827 5.56494 0
M  V30 2198 C 205.467 -1.70125 6.09295 0
M  V30 2199 C 204.131 -1.59498 6.48164 0
M  V30 2200 H 203.401 -0.524952 0.522978 0
M  V30 2201 H 206.048 -0.769097 1.75377 0
M  V30 2202 H 204.353 -3.36349 2.00939 0
M  V30 2203 H 206.05 -3.22949 2.37707 0
M  V30 2204 H 202.64 -2.40334 3.54877 0
M  V30 2205 H 206.824 -2.11969 4.48757 0
M  V30 2206 H 202.08 -1.76168 5.8547 0
M  V30 2207 H 206.254 -1.48767 6.80324 0
M  V30 2208 H 203.881 -1.30322 7.48946 0
M  V30 2209 N 205.456 -1.28612 -0.910864 0
M  V30 2210 C 206.681 -1.1891 -1.69927 0
M  V30 2211 C 207.106 0.248372 -1.86453 0
M  V30 2212 O 206.464 1.17961 -1.37676 0
M  V30 2213 C 206.512 -1.89578 -3.06745 0
M  V30 2214 O 205.616 -1.20521 -3.94396 0
M  V30 2215 H 204.957 -0.412632 -0.520222 0
M  V30 2216 H 207.487 -1.69985 -1.1387 0
M  V30 2217 H 207.497 -1.97597 -3.56958 0
M  V30 2218 H 206.172 -2.94136 -2.94035 0
M  V30 2219 H 204.749 -1.20684 -3.52831 0
M  V30 2220 N 206.934 1.1197 -1.10907 0
M  V30 2221 C 207.844 2.21433 -0.774896 0
M  V30 2222 C 208.86 1.72478 0.229657 0
M  V30 2223 O 210.036 2.01288 0.0672008 0
M  V30 2224 C 207.101 3.4602 -0.216986 0
M  V30 2225 C 206.162 4.09791 -1.27944 0
M  V30 2226 C 205.395 5.28431 -0.748055 0
M  V30 2227 O 205.618 5.68823 0.423833 0
M  V30 2228 O 204.552 5.82644 -1.51027 0
M  V30 2229 H 208.378 2.5242 -1.68873 0
M  V30 2230 H 205.963 1.20399 -0.884555 0
M  V30 2231 H 207.845 4.21304 0.090059 0
M  V30 2232 H 206.52 3.16698 0.669633 0
M  V30 2233 H 205.427 3.36265 -1.63941 0
M  V30 2234 H 206.76 4.4328 -2.13925 0
M  V30 2235 N 208.412 0.89855 1.29475 0
M  V30 2236 C 209.375 0.380272 2.26023 0
M  V30 2237 C 210.375 -0.484891 1.53315 0
M  V30 2238 O 211.565 -0.290108 1.71767 0
M  V30 2239 C 208.697 -0.45651 3.3783 0
M  V30 2240 H 209.89 1.23295 2.73383 0
M  V30 2241 H 207.443 0.676589 1.40897 0
M  V30 2242 H 208.178 -1.32922 2.95808 0
M  V30 2243 H 207.963 0.163393 3.91759 0
M  V30 2244 H 209.453 -0.810466 4.0966 0
M  V30 2245 N 209.89 -1.43072 0.660911 0
M  V30 2246 C 210.853 -2.29194 -0.0166406 0
M  V30 2247 C 211.853 -1.42609 -0.742912 0
M  V30 2248 O 213.043 -1.64155 -0.583004 0
M  V30 2249 C 210.175 -3.24831 -1.0343 0
M  V30 2250 H 211.368 -2.90596 0.741208 0
M  V30 2251 H 208.921 -1.5048 0.422532 0
M  V30 2252 H 209.656 -2.68339 -1.82111 0
M  V30 2253 H 209.441 -3.88676 -0.517082 0
M  V30 2254 H 210.931 -3.89451 -1.50723 0
M  V30 2255 N 211.368 -0.403325 -1.52352 0
M  V30 2256 C 212.278 0.432009 -2.30588 0
M  V30 2257 C 213.294 1.05884 -1.38075 0
M  V30 2258 O 214.47 1.06161 -1.71148 0
M  V30 2259 C 211.535 1.53669 -3.10784 0
M  V30 2260 C 210.596 0.933525 -4.19027 0
M  V30 2261 C 209.829 1.98557 -4.9539 0
M  V30 2262 O 210.052 3.20283 -4.71991 0
M  V30 2263 O 208.986 1.59504 -5.80381 0
M  V30 2264 H 212.812 -0.205739 -3.03002 0
M  V30 2265 H 210.397 -0.166675 -1.48467 0
M  V30 2266 H 212.279 2.17814 -3.60742 0
M  V30 2267 H 210.954 2.15915 -2.41169 0
M  V30 2268 H 209.861 0.254954 -3.7323 0
M  V30 2269 H 211.194 0.35508 -4.90918 0
M  V30 2270 N 212.846 1.57033 -0.133567 0
M  V30 2271 C 214.071 2.00475 0.531477 0
M  V30 2272 C 214.496 1.01291 1.58499 0
M  V30 2273 O 213.854 -0.0133279 1.81295 0
M  V30 2274 C 213.902 3.42729 1.12113 0
M  V30 2275 O 213.006 3.46498 2.23636 0
M  V30 2276 H 212.347 0.650876 0.131362 0
M  V30 2277 H 214.877 2.03344 -0.22634 0
M  V30 2278 H 214.887 3.81246 1.4531 0
M  V30 2279 H 213.562 4.14428 0.349557 0
M  V30 2280 H 212.139 3.19811 1.91769 0
M  V30 2281 N 214.325 -0.140222 1.56975 0
M  V30 2282 C 215.572 -0.851687 1.83719 0
M  V30 2283 C 215.9 -1.80862 0.715485 0
M  V30 2284 O 215.155 -1.93464 -0.294956 0
M  V30 2285 C 215.454 -1.65386 3.16832 0
M  V30 2286 C 215.12 -0.843112 4.42947 0
M  V30 2287 C 213.782 -0.619464 4.77196 0
M  V30 2288 C 216.134 -0.276582 5.20466 0
M  V30 2289 C 213.462 0.181312 5.8642 0
M  V30 2290 C 215.814 0.51127 6.30531 0
M  V30 2291 C 214.478 0.745432 6.63325 0
M  V30 2292 H 213.748 -0.311654 0.672274 0
M  V30 2293 H 216.395 -0.115006 1.91154 0
M  V30 2294 H 214.7 -2.46084 3.04877 0
M  V30 2295 H 216.397 -2.20793 3.34741 0
M  V30 2296 H 212.987 -1.0275 4.16101 0
M  V30 2297 H 217.171 -0.436632 4.94376 0
M  V30 2298 H 212.427 0.372165 6.10266 0
M  V30 2299 H 216.601 0.957354 6.89788 0
M  V30 2300 H 214.228 1.36778 7.47794 0
M  V30 2301 N 215.803 -1.52179 -0.40978 0
M  V30 2302 C 216.733 -1.78435 -1.5061 0
M  V30 2303 C 217.714 -0.635295 -1.57791 0
M  V30 2304 O 218.899 -0.880823 -1.73076 0
M  V30 2305 C 216.029 -1.93444 -2.88439 0
M  V30 2306 C 214.983 -3.09038 -2.96108 0
M  V30 2307 C 214.309 -3.09268 -4.36185 0
M  V30 2308 C 215.609 -4.48508 -2.67652 0
M  V30 2309 H 217.303 -2.70237 -1.28889 0
M  V30 2310 H 214.849 -1.30036 -0.618605 0
M  V30 2311 H 216.802 -2.10394 -3.65119 0
M  V30 2312 H 215.526 -0.983129 -3.11452 0
M  V30 2313 H 214.185 -2.91837 -2.21872 0
M  V30 2314 H 213.833 -2.11861 -4.56206 0
M  V30 2315 H 213.533 -3.86907 -4.42241 0
M  V30 2316 H 215.057 -3.28348 -5.14801 0
M  V30 2317 H 216.471 -4.65918 -3.34056 0
M  V30 2318 H 214.868 -5.28059 -2.85085 0
M  V30 2319 H 215.938 -4.56649 -1.63095 0
M  V30 2320 N 217.281 0.66697 -1.42791 0
M  V30 2321 C 218.527 1.4291 -1.43891 0
M  V30 2322 C 218.86 1.94114 -0.0578972 0
M  V30 2323 O 218.135 1.71414 0.91911 0
M  V30 2324 C 218.418 2.62049 -2.46987 0
M  V30 2325 C 218.271 2.16426 -3.94309 0
M  V30 2326 C 219.59 3.64266 -2.46978 0
M  V30 2327 H 216.709 0.518306 -0.523954 0
M  V30 2328 H 219.351 0.757321 -1.74255 0
M  V30 2329 H 217.501 3.19361 -2.21225 0
M  V30 2330 H 219.173 1.64221 -4.31079 0
M  V30 2331 H 217.416 1.47925 -4.078 0
M  V30 2332 H 218.087 3.02038 -4.62036 0
M  V30 2333 H 220.563 3.16686 -2.69906 0
M  V30 2334 H 219.439 4.45196 -3.21079 0
M  V30 2335 H 219.7 4.15927 -1.49857 0
M  V30 2336 N 218.759 1.29093 0.90403 0
M  V30 2337 C 219.987 1.19689 1.68766 0
M  V30 2338 C 220.402 -0.243113 1.87228 0
M  V30 2339 O 219.759 -1.16326 1.40621 0
M  V30 2340 C 219.81 1.90144 3.07453 0
M  V30 2341 O 219.531 3.2852 2.89838 0
M  V30 2342 C 221.032 1.87162 4.01852 0
M  V30 2343 H 218.252 0.415035 0.527244 0
M  V30 2344 H 220.796 1.7039 1.13082 0
M  V30 2345 H 218.951 1.43289 3.59926 0
M  V30 2346 H 219.365 3.63944 3.77684 0
M  V30 2347 H 220.839 2.41032 4.96596 0
M  V30 2348 H 221.316 0.84617 4.30972 0
M  V30 2349 H 221.922 2.33741 3.5531 0
M  V30 2350 N 220.237 -1.11381 1.11499 0
M  V30 2351 C 221.167 -2.19509 0.796125 0
M  V30 2352 C 222.148 -1.68458 -0.235796 0
M  V30 2353 O 223.333 -1.93947 -0.0991344 0
M  V30 2354 C 220.463 -3.46475 0.239205 0
M  V30 2355 C 219.417 -4.10744 1.20307 0
M  V30 2356 C 218.743 -5.32293 0.50683 0
M  V30 2357 C 220.043 -4.55597 2.55399 0
M  V30 2358 H 221.737 -2.46439 1.70024 0
M  V30 2359 H 219.283 -1.18446 0.818935 0
M  V30 2360 H 221.236 -4.214 0.00392006 0
M  V30 2361 H 219.96 -3.19006 -0.700206 0
M  V30 2362 H 218.619 -3.37813 1.42399 0
M  V30 2363 H 218.267 -5.01095 -0.437408 0
M  V30 2364 H 217.967 -5.76243 1.1497 0
M  V30 2365 H 219.491 -6.09956 0.280351 0
M  V30 2366 H 220.905 -5.21841 2.37391 0
M  V30 2367 H 219.302 -5.10363 3.15673 0
M  V30 2368 H 220.372 -3.69013 3.14575 0
M  V30 2369 N 221.715 -0.905404 -1.28997 0
M  V30 2370 C 222.955 -0.541232 -1.97104 0
M  V30 2371 C 223.319 0.896841 -1.69767 0
M  V30 2372 O 224.52 1.36817 -2.31375 0
M  V30 2373 C 222.791 -0.832134 -3.47578 0
M  V30 2374 S 224.35 -0.573127 -4.35041 0
M  V30 2375 H 221.168 -0.200576 -0.682122 0
M  V30 2376 H 223.77 -1.16906 -1.56694 0
M  V30 2377 H 222.474 -1.87687 -3.64968 0
M  V30 2378 H 222.005 -0.192636 -3.92928 0
M  V30 2379 H 224.02 0.579297 -4.92807 0
M  V30 2380 N 223.193 1.4272 -0.668489 0
M  V30 2381 C 224.156 2.292 0.00448567 0
M  V30 2382 C 225.156 1.43001 0.735339 0
M  V30 2383 O 226.346 1.64461 0.57429 0
M  V30 2384 C 223.478 3.25375 1.01705 0
M  V30 2385 H 224.671 2.90199 -0.756608 0
M  V30 2386 H 222.224 1.50254 -0.430506 0
M  V30 2387 H 222.959 2.69301 1.80686 0
M  V30 2388 H 222.744 3.88944 0.496463 0
M  V30 2389 H 224.234 3.90245 1.48655 0
M  V30 2390 N 224.671 0.411399 1.52136 0
M  V30 2391 C 225.603 -0.448386 2.24771 0
M  V30 2392 C 226.616 -1.00828 1.27818 0
M  V30 2393 O 227.805 -0.906841 1.53749 0
M  V30 2394 C 224.905 -1.63636 2.96777 0
M  V30 2395 C 224.078 -1.19995 4.20618 0
M  V30 2396 C 223.137 -2.25509 4.75428 0
M  V30 2397 O 222.163 -1.86007 5.3795 0
M  V30 2398 N 223.365 -3.577 4.57199 0
M  V30 2399 H 226.13 0.174025 2.99194 0
M  V30 2400 H 223.691 0.238897 1.60128 0
M  V30 2401 H 225.683 -2.33793 3.30338 0
M  V30 2402 H 224.253 -2.16465 2.25526 0
M  V30 2403 H 223.473 -0.326421 3.92846 0
M  V30 2404 H 224.761 -0.885365 5.01038 0
M  V30 2405 H 224.159 -3.92543 4.07341 0
M  V30 2406 H 222.716 -4.23827 4.95191 0
M  V30 2407 N 226.149 -1.5696 0.141893 0
M  V30 2408 C 227.079 -2.19516 -0.795936 0
M  V30 2409 C 228.06 -1.14187 -1.26077 0
M  V30 2410 O 229.245 -1.42511 -1.31925 0
M  V30 2411 C 226.375 -2.81272 -2.03723 0
M  V30 2412 C 225.329 -3.92384 -1.70936 0
M  V30 2413 C 224.655 -4.41052 -3.02287 0
M  V30 2414 C 225.955 -5.13403 -0.959954 0
M  V30 2415 H 227.649 -2.98138 -0.274596 0
M  V30 2416 H 225.195 -1.43406 -0.130636 0
M  V30 2417 H 227.148 -3.237 -2.69808 0
M  V30 2418 H 225.872 -1.99973 -2.58221 0
M  V30 2419 H 224.531 -3.50566 -1.07232 0
M  V30 2420 H 224.179 -3.56582 -3.54765 0
M  V30 2421 H 223.879 -5.15993 -2.81114 0
M  V30 2422 H 225.403 -4.86146 -3.69451 0
M  V30 2423 H 226.817 -5.52706 -1.52279 0
M  V30 2424 H 225.214 -5.94073 -0.848357 0
M  V30 2425 H 226.284 -4.84875 0.0492434 0
M  V30 2426 N 227.627 0.131896 -1.57047 0
M  V30 2427 C 228.852 0.860418 -1.8871 0
M  V30 2428 C 229.277 1.73251 -0.73251 0
M  V30 2429 O 228.635 1.785 0.317429 0
M  V30 2430 C 228.683 1.68047 -3.19049 0
M  V30 2431 O 227.787 2.7862 -3.04047 0
M  V30 2432 H 227.128 0.238743 -0.619595 0
M  V30 2433 H 229.658 0.118169 -2.04258 0
M  V30 2434 H 229.668 2.07238 -3.51449 0
M  V30 2435 H 228.343 1.04018 -4.02682 0
M  V30 2436 H 226.92 2.42726 -2.83088 0
M  V30 2437 N 229.106 1.52395 0.401703 0
M  V30 2438 C 230.354 1.66488 1.14569 0
M  V30 2439 C 230.675 0.400897 1.90835 0
M  V30 2440 O 229.945 -0.584415 1.8698 0
M  V30 2441 H 228.525 0.613672 0.425929 0
M  V30 2442 H 231.187 1.89464 0.457093 0
M  V30 2443 H 230.283 2.50942 1.85566 0
M  V30 2444 N 230.584 -0.659388 1.43143 0
M  V30 2445 C 231.83 -1.42145 1.44647 0
M  V30 2446 C 232.163 -1.9408 0.0681907 0
M  V30 2447 O 231.438 -1.71899 -0.910007 0
M  V30 2448 C 231.721 -2.60735 2.48373 0
M  V30 2449 C 231.574 -2.14332 3.95451 0
M  V30 2450 C 232.893 -3.62951 2.48906 0
M  V30 2451 H 230.012 -0.51552 0.526696 0
M  V30 2452 H 232.654 -0.748069 1.74654 0
M  V30 2453 H 230.804 -3.18184 2.22916 0
M  V30 2454 H 232.476 -1.61932 4.31944 0
M  V30 2455 H 230.719 -1.4576 4.08578 0
M  V30 2456 H 231.39 -2.99583 4.63631 0
M  V30 2457 H 233.866 -3.1525 2.71582 0
M  V30 2458 H 232.742 -4.43487 3.23435 0
M  V30 2459 H 233.003 -4.15126 1.52061 0
M  V30 2460 N 232.062 -1.29571 -0.897171 0
M  V30 2461 C 233.311 -1.1706 -1.64256 0
M  V30 2462 C 233.624 0.276476 -1.93636 0
M  V30 2463 O 234.83 0.52294 -2.66416 0
M  V30 2464 C 233.286 -2.0475 -2.95982 0
M  V30 2465 C 232.894 -3.54295 -2.74187 0
M  V30 2466 C 234.638 -2.0097 -3.73914 0
M  V30 2467 C 232.545 -4.34081 -4.01656 0
M  V30 2468 H 231.475 -0.43452 -0.616205 0
M  V30 2469 H 234.126 -1.54229 -0.994268 0
M  V30 2470 H 232.508 -1.60452 -3.62038 0
M  V30 2471 H 233.682 -4.06662 -2.1671 0
M  V30 2472 H 231.997 -3.59773 -2.09648 0
M  V30 2473 H 234.594 -2.57838 -4.68427 0
M  V30 2474 H 234.937 -0.990273 -4.0435 0
M  V30 2475 H 235.47 -2.43325 -3.14703 0
M  V30 2476 H 232.209 -5.36671 -3.76384 0
M  V30 2477 H 231.729 -3.86483 -4.58684 0
M  V30 2478 H 233.408 -4.44877 -4.69781 0
M  V30 2479 N 233.54 1.10788 -1.12088 0
M  V30 2480 C 234.503 2.15207 -0.788577 0
M  V30 2481 C 235.503 1.59609 0.195317 0
M  V30 2482 O 236.693 1.74174 -0.0300193 0
M  V30 2483 C 233.825 3.4047 -0.171174 0
M  V30 2484 H 235.018 2.46116 -1.71368 0
M  V30 2485 H 232.571 1.26089 -0.923652 0
M  V30 2486 H 233.306 3.15176 0.763832 0
M  V30 2487 H 233.091 3.82109 -0.879514 0
M  V30 2488 H 234.581 4.17576 0.04496 0
M  V30 2489 N 235.018 0.912232 1.28515 0
M  V30 2490 C 235.968 0.370649 2.24967 0
M  V30 2491 C 236.952 -0.516375 1.52389 0
M  V30 2492 O 238.144 -0.356345 1.73376 0
M  V30 2493 C 235.273 -0.389526 3.41083 0
M  V30 2494 C 234.359 0.51313 4.20984 0
M  V30 2495 N 234.75 1.62604 4.78951 0
M  V30 2496 C 233.048 0.313235 4.44899 0
M  V30 2497 C 233.749 2.18619 5.39055 0
M  V30 2498 N 232.725 1.47765 5.23132 0
M  V30 2499 H 236.527 1.22061 2.67354 0
M  V30 2500 H 234.041 0.764712 1.43269 0
M  V30 2501 H 236.038 -0.794353 4.09262 0
M  V30 2502 H 234.698 -1.2366 3.0023 0
M  V30 2503 H 235.709 2.00864 4.77362 0
M  V30 2504 H 232.386 -0.494452 4.14562 0
M  V30 2505 H 233.776 3.12228 5.94948 0
M  V30 2506 N 236.496 -1.42363 0.676048 0
M  V30 2507 C 237.459 -2.29199 0.00766941 0
M  V30 2508 C 238.459 -1.43389 -0.727745 0
M  V30 2509 O 239.649 -1.64764 -0.56556 0
M  V30 2510 C 236.781 -3.2591 -0.999785 0
M  V30 2511 H 237.974 -2.89794 0.771988 0
M  V30 2512 H 235.527 -1.50024 0.438468 0
M  V30 2513 H 236.262 -2.70256 -1.79255 0
M  V30 2514 H 236.047 -3.89202 -0.475829 0
M  V30 2515 H 237.537 -3.91028 -1.46583 0
M  V30 2516 N 237.974 -0.419461 -1.51915 0
M  V30 2517 C 238.924 0.418496 -2.24126 0
M  V30 2518 C 239.908 1.00495 -1.25656 0
M  V30 2519 O 241.1 0.926058 -1.50842 0
M  V30 2520 C 238.229 1.52899 -3.07371 0
M  V30 2521 C 237.315 0.952797 -4.13258 0
M  V30 2522 N 237.706 0.104175 -5.05693 0
M  V30 2523 C 236.004 1.22224 -4.28926 0
M  V30 2524 C 236.705 -0.21752 -5.81293 0
M  V30 2525 N 235.681 0.394293 -5.42168 0
M  V30 2526 H 239.483 -0.236048 -2.92951 0
M  V30 2527 H 236.997 -0.230481 -1.60756 0
M  V30 2528 H 238.994 2.14199 -3.57665 0
M  V30 2529 H 237.654 2.18605 -2.40088 0
M  V30 2530 H 238.665 -0.260924 -5.17242 0
M  V30 2531 H 235.342 1.87812 -3.72871 0
M  V30 2532 H 236.732 -0.906992 -6.6575 0
M  V30 2533 N 239.452 1.56882 -0.150215 0
M  V30 2534 C 240.415 2.1573 0.774157 0
M  V30 2535 C 241.415 1.0999 1.17298 0
M  V30 2536 O 242.605 1.35613 1.09338 0
M  V30 2537 C 239.737 2.72302 2.05096 0
M  V30 2538 H 240.93 2.98752 0.262201 0
M  V30 2539 H 238.483 1.55985 0.099248 0
M  V30 2540 H 239.218 1.92956 2.6065 0
M  V30 2541 H 239.003 3.49665 1.77416 0
M  V30 2542 H 240.493 3.17632 2.71109 0
M  V30 2543 N 240.93 -0.123565 1.57115 0
M  V30 2544 C 242.176 -0.833386 1.84885 0
M  V30 2545 C 242.509 -1.79742 0.735292 0
M  V30 2546 O 241.784 -1.92764 -0.25925 0
M  V30 2547 C 242.067 -1.5873 3.23228 0
M  V30 2548 C 241.92 -0.643183 4.45178 0
M  V30 2549 C 243.239 -2.54453 3.59085 0
M  V30 2550 H 240.358 -0.301518 0.6725 0
M  V30 2551 H 243 -0.097778 1.89748 0
M  V30 2552 H 241.15 -2.21438 3.19214 0
M  V30 2553 H 242.822 -0.0253015 4.61293 0
M  V30 2554 H 241.065 0.0456139 4.33776 0
M  V30 2555 H 241.736 -1.20724 5.38637 0
M  V30 2556 H 244.212 -2.01853 3.63861 0
M  V30 2557 H 243.088 -3.04238 4.5687 0
M  V30 2558 H 243.349 -3.36906 2.86264 0
M  V30 2559 N 242.408 -1.52605 -0.393616 0
M  V30 2560 C 243.656 -1.67093 -1.13685 0
M  V30 2561 C 243.977 -0.411011 -1.90619 0
M  V30 2562 O 243.247 0.574491 -1.87287 0
M  V30 2563 H 241.827 -0.615923 -0.422668 0
M  V30 2564 H 244.489 -1.89704 -0.447039 0
M  V30 2565 H 243.585 -2.51922 -1.84232 0
M  V30 2566 N 243.887 0.651787 -1.4349 0
M  V30 2567 C 244.835 1.78586 -1.49029 0
M  V30 2568 C 245.829 1.65448 -0.363767 0
M  V30 2569 O 247.035 1.71777 -0.537821 0
M  V30 2570 H 243.41 0.589236 -0.467231 0
M  V30 2571 H 245.381 1.71035 -2.44519 0
M  V30 2572 C 244.13 3.16851 -1.43181 0
M  V30 2573 H 243.453 3.27598 -2.29171 0
M  V30 2574 H 244.893 3.96156 -1.51118 0
M  V30 2575 C 243.352 3.36568 -0.149616 0
M  V30 2576 O 243.882 3.93885 0.788509 0
M  V30 2577 N 242.088 2.90539 -0.0593484 0
M  V30 2578 H 241.635 2.4408 -0.823575 0
M  V30 2579 H 241.593 3.04108 0.797853 0
M  V30 2580 N 245.365 1.30045 0.890287 0
M  V30 2581 C 246.614 1.17929 1.63633 0
M  V30 2582 C 246.927 -0.266204 1.9378 0
M  V30 2583 O 248.133 -0.508804 2.6669 0
M  V30 2584 C 246.589 2.06317 2.94892 0
M  V30 2585 C 246.197 3.55745 2.72305 0
M  V30 2586 C 247.941 2.0295 3.72843 0
M  V30 2587 C 245.848 4.36205 3.99348 0
M  V30 2588 H 244.778 0.437782 0.613892 0
M  V30 2589 H 247.429 1.54754 0.986075 0
M  V30 2590 H 245.811 1.6237 3.61182 0
M  V30 2591 H 246.985 4.07805 2.1455 0
M  V30 2592 H 245.3 3.6088 2.07737 0
M  V30 2593 H 247.897 2.60319 4.67053 0
M  V30 2594 H 248.24 1.0117 4.0382 0
M  V30 2595 H 248.773 2.4499 3.13408 0
M  V30 2596 H 245.512 5.38659 3.73533 0
M  V30 2597 H 245.032 3.8891 4.56628 0
M  V30 2598 H 246.711 4.47362 4.67415 0
M  V30 2599 N 246.843 -1.10192 1.12674 0
M  V30 2600 C 248.12 -1.78717 0.794965 0
M  V30 2601 C 248.5 -1.98628 -0.714853 0
M  V30 2602 O 247.848 -1.58135 -1.64941 0
M  V30 2603 C 248.058 -3.11546 1.5729 0
M  V30 2604 C 249.406 -3.86382 1.76052 0
M  V30 2605 O 250.43 -3.21274 1.53823 0
M  V30 2606 O 249.289 -5.03246 2.13087 0
M  V30 2607 H 246.383 -0.774702 0.289423 0
M  V30 2608 H 248.929 -1.16819 1.23091 0
M  V30 2609 H 247.701 -2.92489 2.59935 0
M  V30 2610 H 247.324 -3.81164 1.13137 0
M  V30 2611 N 248.321 -0.919034 -1.28029 0
M  V30 2612 C 249.567 -0.555757 -1.95036 0
M  V30 2613 C 249.9 0.899198 -1.72128 0
M  V30 2614 O 249.175 1.64023 -1.04531 0
M  V30 2615 C 249.458 -0.872024 -3.49382 0
M  V30 2616 C 249.311 -2.3801 -3.81669 0
M  V30 2617 C 250.63 -0.37185 -4.38526 0
M  V30 2618 H 247.749 -0.203386 -0.708381 0
M  V30 2619 H 250.391 -1.14924 -1.51303 0
M  V30 2620 H 248.541 -0.366946 -3.86763 0
M  V30 2621 H 250.213 -2.9562 -3.54128 0
M  V30 2622 H 248.456 -2.83289 -3.28526 0
M  V30 2623 H 249.127 -2.55192 -4.8947 0
M  V30 2624 H 251.603 -0.804602 -4.08247 0
M  V30 2625 H 250.479 -0.622173 -5.45362 0
M  V30 2626 H 250.74 0.727934 -4.36066 0
M  V30 2627 N 249.799 1.42003 -0.683588 0
M  V30 2628 C 251.046 2.01413 -0.209514 0
M  V30 2629 C 251.374 1.54088 1.1869 0
M  V30 2630 O 250.629 0.737591 1.81268 0
M  V30 2631 C 250.928 3.56827 -0.202357 0
M  V30 2632 C 250.594 4.23617 -1.54464 0
M  V30 2633 C 249.256 4.41577 -1.91215 0
M  V30 2634 C 251.608 4.61178 -2.42826 0
M  V30 2635 C 248.936 4.9437 -3.15935 0
M  V30 2636 C 251.288 5.15355 -3.66867 0
M  V30 2637 C 249.952 5.31528 -4.03776 0
M  V30 2638 H 249.222 0.737023 -0.0766668 0
M  V30 2639 H 251.869 1.70067 -0.880312 0
M  V30 2640 H 250.174 3.87892 0.551969 0
M  V30 2641 H 251.871 4.00588 0.181793 0
M  V30 2642 H 248.461 4.10004 -1.24877 0
M  V30 2643 H 252.645 4.46968 -2.15717 0
M  V30 2644 H 247.901 5.05076 -3.44541 0
M  V30 2645 H 252.075 5.43402 -4.35531 0
M  V30 2646 H 249.702 5.72199 -5.00492 0
M  V30 2647 N 251.277 0.427512 1.51691 0
M  V30 2648 C 252.693 0.0792977 1.59403 0
M  V30 2649 C 252.893 -1.41035 1.43914 0
M  V30 2650 O 251.949 -2.17922 1.27539 0
M  V30 2651 C 253.262 0.590636 2.94842 0
M  V30 2652 C 254.81 0.550215 3.08126 0
M  V30 2653 C 255.285 1.03836 4.46074 0
M  V30 2654 N 256.776 0.995943 4.52366 0
M  V30 2655 C 257.511 1.34463 5.57411 0
M  V30 2656 N 257.007 1.76569 6.69922 0
M  V30 2657 N 258.8 1.26343 5.47717 0
M  V30 2658 H 250.951 1.39687 1.60004 0
M  V30 2659 H 253.214 0.575003 0.753708 0
M  V30 2660 H 252.92 1.63251 3.11516 0
M  V30 2661 H 252.794 0.0102061 3.77199 0
M  V30 2662 H 255.181 -0.482654 2.91126 0
M  V30 2663 H 255.262 1.16693 2.27632 0
M  V30 2664 H 254.906 2.06965 4.63819 0
M  V30 2665 H 254.836 0.398286 5.25092 0
M  V30 2666 H 257.327 0.68661 3.7161 0
M  V30 2667 H 257.64 2.01438 7.46085 0
M  V30 2668 H 255.985 1.80488 6.71155 0
M  V30 2669 H 259.176 0.933209 4.58703 0
M  V30 2670 H 259.349 1.53846 6.29472 0
M  V30 2671 N 252.755 -1.56801 0.158532 0
M  V30 2672 C 253.702 -2.17337 -0.776729 0
M  V30 2673 C 254.672 -1.1096 -1.23601 0
M  V30 2674 O 255.857 -1.39054 -1.30647 0
M  V30 2675 C 252.997 -2.80822 -2.00582 0
M  V30 2676 C 252.11 -4.01624 -1.59129 0
M  V30 2677 C 251.245 -4.53072 -2.77306 0
M  V30 2678 C 250.284 -5.66314 -2.32282 0
M  V30 2679 N 249.421 -6.12329 -3.43508 0
M  V30 2680 H 254.261 -2.96918 -0.253701 0
M  V30 2681 H 251.798 -1.46661 -0.113504 0
M  V30 2682 H 253.756 -3.15779 -2.72652 0
M  V30 2683 H 252.386 -2.03866 -2.50277 0
M  V30 2684 H 251.438 -3.72571 -0.767806 0
M  V30 2685 H 252.75 -4.83633 -1.2207 0
M  V30 2686 H 251.904 -4.90145 -3.57551 0
M  V30 2687 H 250.643 -3.70095 -3.17617 0
M  V30 2688 H 249.648 -5.28806 -1.5048 0
M  V30 2689 H 250.873 -6.51085 -1.93043 0
M  V30 2690 H 248.819 -5.32284 -3.83418 0
M  V30 2691 H 248.736 -6.89293 -3.105 0
M  V30 2692 H 250.004 -6.5405 -4.24075 0
M  V30 2693 N 254.233 0.115231 -1.57178 0
M  V30 2694 C 255.644 0.67197 -1.74188 0
M  V30 2695 C 255.995 1.80125 -0.777777 0
M  V30 2696 O 255.12 2.16346 0.0484376 0
M  V30 2697 C 255.715 1.22573 -3.1585 0
M  V30 2698 C 254.274 1.72872 -3.34353 0
M  V30 2699 C 253.421 0.629972 -2.70049 0
M  V30 2700 H 256.372 -0.110712 -1.58313 0
M  V30 2701 H 256.393 2.09535 -3.17609 0
M  V30 2702 H 255.905 0.403598 -3.85996 0
M  V30 2703 H 254.006 2.5755 -2.69256 0
M  V30 2704 H 254.119 1.83557 -4.42542 0
M  V30 2705 H 252.483 1.0645 -2.31388 0
M  V30 2706 H 253.266 -0.181241 -3.42821 0
M  V30 2707 N 255.711 1.52812 0.385517 0
M  V30 2708 C 256.936 1.72207 1.15583 0
M  V30 2709 C 257.361 0.441034 1.82857 0
M  V30 2710 O 256.719 -0.603465 1.70962 0
M  V30 2711 C 256.767 2.87476 2.17692 0
M  V30 2712 O 255.871 2.54693 3.24354 0
M  V30 2713 H 255.212 0.572526 0.336319 0
M  V30 2714 H 257.742 1.99618 0.448744 0
M  V30 2715 H 257.752 3.13072 2.6163 0
M  V30 2716 H 256.427 3.80408 1.68115 0
M  V30 2717 H 255.004 2.3985 2.85529 0
M  V30 2718 N 257.189 -0.644168 1.43834 0
M  V30 2719 C 258.137 -1.77793 1.49974 0
M  V30 2720 C 259.131 -1.65253 0.372536 0
M  V30 2721 O 260.337 -1.7149 0.546924 0
M  V30 2722 H 256.712 -0.58675 0.47035 0
M  V30 2723 H 258.683 -1.69736 2.45423 0
M  V30 2724 C 257.432 -3.16087 1.4486 0
M  V30 2725 H 256.755 -3.26378 2.30905 0
M  V30 2726 H 258.195 -3.95349 1.53217 0
M  V30 2727 C 256.654 -3.36484 0.167463 0
M  V30 2728 O 257.184 -3.94298 -0.767609 0
M  V30 2729 N 255.39 -2.90504 0.0747556 0
M  V30 2730 H 254.937 -2.4364 0.836507 0
M  V30 2731 H 254.895 -3.04527 -0.781714 0
M  V30 2732 N 258.668 -1.30515 -0.883378 0
M  V30 2733 C 259.916 -1.19194 -1.63209 0
M  V30 2734 C 260.237 0.253205 -1.93349 0
M  V30 2735 O 259.507 1.17025 -1.57105 0
M  V30 2736 H 258.087 -0.438148 -0.605009 0
M  V30 2737 H 260.749 -1.63663 -1.05832 0
M  V30 2738 H 259.845 -1.75396 -2.58153 0
M  V30 2739 N 260.146 1.09593 -1.13257 0
M  V30 2740 C 261.109 2.14359 -0.811358 0
M  V30 2741 C 262.109 1.59808 0.178377 0
M  V30 2742 O 263.299 1.74132 -0.0484911 0
M  V30 2743 C 260.431 3.40269 -0.207276 0
M  V30 2744 H 261.624 2.44284 -1.73969 0
M  V30 2745 H 259.177 1.25102 -0.936973 0
M  V30 2746 H 259.912 3.15969 0.73036 0
M  V30 2747 H 259.697 3.81154 -0.919992 0
M  V30 2748 H 261.187 4.176 0.000667944 0
M  V30 2749 N 261.624 0.925811 1.2754 0
M  V30 2750 C 262.852 0.581509 1.9856 0
M  V30 2751 C 263.267 -0.840041 1.69082 0
M  V30 2752 O 262.624 -1.55805 0.950312 0
M  V30 2753 C 262.675 0.795589 3.52637 0
M  V30 2754 O 262.396 2.16121 3.81082 0
M  V30 2755 C 263.897 0.459744 4.4091 0
M  V30 2756 H 261.117 0.220538 0.633722 0
M  V30 2757 H 263.661 1.24232 1.6244 0
M  V30 2758 H 261.816 0.18161 3.86974 0
M  V30 2759 H 262.23 2.2098 4.75676 0
M  V30 2760 H 263.704 0.660244 5.48037 0
M  V30 2761 H 264.181 -0.604625 4.35018 0
M  V30 2762 H 264.787 1.05178 4.12089 0
M  V30 2763 N 263.102 -1.41638 0.69111 0
M  V30 2764 C 264.332 -2.0533 0.228758 0
M  V30 2765 C 264.74 -1.52089 -1.12541 0
M  V30 2766 O 264.083 -0.662145 -1.71351 0
M  V30 2767 C 264.145 -3.59349 0.10407 0
M  V30 2768 C 263.809 -4.35362 1.38956 0
M  V30 2769 C 264.806 -4.64942 2.32648 0
M  V30 2770 C 262.491 -4.74714 1.64169 0
M  V30 2771 C 264.485 -5.32828 3.49818 0
M  V30 2772 C 262.172 -5.42338 2.81625 0
M  V30 2773 C 263.17 -5.71322 3.74273 0
M  V30 2774 O 262.858 -6.37554 4.89673 0
M  V30 2775 H 262.59 -0.667796 0.104997 0
M  V30 2776 H 265.144 -1.82477 0.942938 0
M  V30 2777 H 263.374 -3.80924 -0.665839 0
M  V30 2778 H 265.063 -4.04633 -0.320519 0
M  V30 2779 H 265.829 -4.35025 2.14425 0
M  V30 2780 H 261.708 -4.51538 0.929202 0
M  V30 2781 H 265.252 -5.55368 4.22152 0
M  V30 2782 H 261.149 -5.71673 2.99768 0
M  V30 2783 H 261.917 -6.56049 4.8943 0
M  V30 2784 N 264.58 -0.43555 -1.51462 0
M  V30 2785 C 265.527 0.376797 -2.27703 0
M  V30 2786 C 266.497 1.01838 -1.31219 0
M  V30 2787 O 267.682 1.03762 -1.60119 0
M  V30 2788 C 264.822 1.47301 -3.12084 0
M  V30 2789 C 263.935 0.849744 -4.2356 0
M  V30 2790 C 263.07 1.92086 -4.95254 0
M  V30 2791 C 262.109 1.27593 -5.98654 0
M  V30 2792 N 261.246 2.28833 -6.63762 0
M  V30 2793 H 266.086 -0.279734 -2.96684 0
M  V30 2794 H 263.623 -0.149795 -1.46335 0
M  V30 2795 H 265.581 2.11984 -3.59331 0
M  V30 2796 H 264.211 2.0992 -2.45221 0
M  V30 2797 H 263.263 0.0912529 -3.80291 0
M  V30 2798 H 264.575 0.338878 -4.97648 0
M  V30 2799 H 263.729 2.64435 -5.46039 0
M  V30 2800 H 262.468 2.46545 -4.20793 0
M  V30 2801 H 261.473 0.537893 -5.47162 0
M  V30 2802 H 262.698 0.738693 -6.7507 0
M  V30 2803 H 260.644 2.82375 -5.92115 0
M  V30 2804 H 260.561 1.82632 -7.33608 0
M  V30 2805 H 261.829 3.00671 -7.19178 0
M  V30 2806 N 266.058 1.56714 -0.166846 0
M  V30 2807 C 267.286 2.0112 0.485644 0
M  V30 2808 C 267.701 1.04705 1.57106 0
M  V30 2809 O 267.058 0.0471923 1.82439 0
M  V30 2810 C 267.109 3.45361 1.06808 0
M  V30 2811 O 266.83 4.38092 0.0259995 0
M  V30 2812 C 268.331 4.05145 1.79924 0
M  V30 2813 H 265.551 0.65931 0.124704 0
M  V30 2814 H 268.095 2.02746 -0.267262 0
M  V30 2815 H 266.25 3.44524 1.7715 0
M  V30 2816 H 266.664 5.22519 0.455398 0
M  V30 2817 H 268.138 5.08009 2.15942 0
M  V30 2818 H 268.615 3.46982 2.69258 0
M  V30 2819 H 269.221 4.09672 1.14234 0
M  V30 2820 N 267.536 -0.106894 1.57237 0
M  V30 2821 C 268.783 -0.812526 1.85484 0
M  V30 2822 C 269.111 -1.79304 0.753687 0
M  V30 2823 O 268.366 -1.94047 -0.253853 0
M  V30 2824 C 268.665 -1.58628 3.20268 0
M  V30 2825 C 268.331 -0.748967 4.44636 0
M  V30 2826 C 266.993 -0.518104 4.78403 0
M  V30 2827 C 269.345 -0.166122 5.20935 0
M  V30 2828 C 266.673 0.305659 5.85903 0
M  V30 2829 C 269.025 0.644899 6.29304 0
M  V30 2830 C 267.689 0.885965 6.61594 0
M  V30 2831 H 266.959 -0.297324 0.678734 0
M  V30 2832 H 269.606 -0.0744332 1.91355 0
M  V30 2833 H 267.911 -2.39562 3.10028 0
M  V30 2834 H 269.608 -2.13643 3.39349 0
M  V30 2835 H 266.198 -0.939006 4.18187 0
M  V30 2836 H 270.382 -0.33167 4.95191 0
M  V30 2837 H 265.638 0.501528 6.0934 0
M  V30 2838 H 269.812 1.10345 6.87602 0
M  V30 2839 H 267.439 1.52609 7.44725 0
M  V30 2840 N 269.014 -1.53014 -0.377408 0
M  V30 2841 C 269.946 -1.74884 -1.48149 0
M  V30 2842 C 270.959 -0.629433 -1.5014 0
M  V30 2843 O 272.148 -0.905416 -1.53833 0
M  V30 2844 C 269.248 -1.80299 -2.86959 0
M  V30 2845 C 268.421 -3.09776 -3.08801 0
M  V30 2846 C 267.48 -3.06586 -4.27658 0
M  V30 2847 O 266.506 -3.80419 -4.23403 0
M  V30 2848 N 267.708 -2.26578 -5.34455 0
M  V30 2849 H 270.473 -2.70147 -1.29771 0
M  V30 2850 H 268.034 -1.51646 -0.56703 0
M  V30 2851 H 270.026 -1.75657 -3.64591 0
M  V30 2852 H 268.596 -0.92372 -2.98641 0
M  V30 2853 H 267.816 -3.27815 -2.18931 0
M  V30 2854 H 269.104 -3.95366 -3.20255 0
M  V30 2855 H 268.502 -1.66081 -5.40771 0
M  V30 2856 H 267.059 -2.27766 -6.10709 0
M  V30 2857 N 270.492 0.636531 -1.44174 0
M  V30 2858 C 271.74 1.39343 -1.46383 0
M  V30 2859 C 272.061 1.94766 -0.0955715 0
M  V30 2860 O 271.331 1.75452 0.871395 0
M  V30 2861 H 269.911 0.517199 -0.538994 0
M  V30 2862 H 272.573 0.74957 -1.7991 0
M  V30 2863 H 271.669 2.22746 -2.18611 0
M  V30 2864 N 271.97 1.30982 0.876444 0
M  V30 2865 C 273.216 1.20474 1.63138 0
M  V30 2866 C 273.549 -0.238096 1.92735 0
M  V30 2867 O 272.824 -1.1692 1.55435 0
M  V30 2868 C 273.107 2.04244 2.96574 0
M  V30 2869 C 272.96 3.56793 2.73896 0
M  V30 2870 C 274.279 1.88684 3.97601 0
M  V30 2871 H 271.398 0.439001 0.591985 0
M  V30 2872 H 274.04 1.60704 1.01361 0
M  V30 2873 H 272.19 1.70063 3.493 0
M  V30 2874 H 273.862 4.01077 2.27892 0
M  V30 2875 H 272.105 3.80548 2.08245 0
M  V30 2876 H 272.776 4.10706 3.68815 0
M  V30 2877 H 275.252 2.18584 3.54062 0
M  V30 2878 H 274.128 2.4961 4.88862 0
M  V30 2879 H 274.389 0.848343 4.33884 0
M  V30 2880 N 273.449 -1.08991 1.13837 0
M  V30 2881 C 274.86 -1.62746 0.914917 0
M  V30 2882 C 275.211 -1.88403 -0.547594 0
M  V30 2883 O 274.336 -1.63706 -1.41525 0
M  V30 2884 C 274.931 -2.95662 1.65437 0
M  V30 2885 C 273.49 -3.46225 1.47666 0
M  V30 2886 C 272.637 -2.20562 1.6807 0
M  V30 2887 H 275.588 -0.922946 1.29102 0
M  V30 2888 H 275.609 -3.63825 1.11407 0
M  V30 2889 H 275.121 -2.76956 2.71877 0
M  V30 2890 H 273.222 -3.70046 0.435478 0
M  V30 2891 H 273.335 -4.23368 2.24268 0
M  V30 2892 H 271.699 -2.29439 1.10589 0
M  V30 2893 H 272.482 -2.0437 2.7584 0
M  V30 2894 N 274.927 -0.932562 -1.27047 0
M  V30 2895 C 276.175 -0.574422 -1.93765 0
M  V30 2896 C 276.496 0.887993 -1.73608 0
M  V30 2897 O 275.766 1.62999 -1.08665 0
M  V30 2898 H 274.346 -0.209451 -0.717035 0
M  V30 2899 H 277.008 -1.18601 -1.5466 0
M  V30 2900 H 276.104 -0.784841 -3.02071 0
M  V30 2901 N 276.405 1.4127 -0.698611 0
M  V30 2902 C 277.63 2.06024 -0.238512 0
M  V30 2903 C 278.055 1.5224 1.10475 0
M  V30 2904 O 277.413 0.650623 1.69223 0
M  V30 2905 C 277.461 3.59988 -0.209952 0
M  V30 2906 O 276.565 4.04282 0.814235 0
M  V30 2907 H 275.906 0.653829 -0.115775 0
M  V30 2908 H 278.436 1.8098 -0.954326 0
M  V30 2909 H 278.446 4.07979 -0.0418436 0
M  V30 2910 H 277.121 3.98503 -1.1903 0
M  V30 2911 H 275.698 3.6779 0.615234 0
M  V30 2912 N 277.883 0.443576 1.51229 0
M  V30 2913 C 279.131 -0.120557 2.0174 0
M  V30 2914 C 279.452 -1.42665 1.32935 0
M  V30 2915 O 278.722 -1.9028 0.465866 0
M  V30 2916 H 277.302 -0.0475426 0.745486 0
M  V30 2917 H 279.964 0.587711 1.85828 0
M  V30 2918 H 279.06 -0.291972 3.10731 0
M  V30 2919 N 279.361 -1.56624 0.175154 0
M  V30 2920 C 280.609 -1.96609 -0.467885 0
M  V30 2921 C 280.93 -1.06238 -1.63519 0
M  V30 2922 O 280.2 -0.129523 -1.95471 0
M  V30 2923 H 278.78 -0.726008 -0.175845 0
M  V30 2924 H 281.442 -1.93195 0.257234 0
M  V30 2925 H 280.538 -3.00989 -0.825342 0
M  V30 2926 N 280.839 0.0985539 -1.57292 0
M  V30 2927 C 282.088 0.801358 -1.85098 0
M  V30 2928 C 282.401 1.80066 -0.763902 0
M  V30 2929 O 283.607 2.55112 -0.928981 0
M  V30 2930 C 282.063 1.47599 -3.28242 0
M  V30 2931 C 281.671 0.516624 -4.45011 0
M  V30 2932 C 283.415 2.16272 -3.65276 0
M  V30 2933 C 281.322 1.19564 -5.79188 0
M  V30 2934 H 280.252 0.303022 -0.69043 0
M  V30 2935 H 282.903 0.0542623 -1.8342 0
M  V30 2936 H 281.285 2.27042 -3.2445 0
M  V30 2937 H 282.459 -0.246065 -4.60143 0
M  V30 2938 H 280.774 -0.064227 -4.1635 0
M  V30 2939 H 283.371 2.67802 -4.62803 0
M  V30 2940 H 283.714 2.95009 -2.93727 0
M  V30 2941 H 284.247 1.43693 -3.70941 0
M  V30 2942 H 280.986 0.449157 -6.53959 0
M  V30 2943 H 280.506 1.92984 -5.67906 0
M  V30 2944 H 282.185 1.7231 -6.23633 0
M  V30 2945 N 282.317 1.53212 0.369288 0
M  V30 2946 C 283.28 1.7872 1.43498 0
M  V30 2947 C 284.28 0.657554 1.46741 0
M  V30 2948 O 285.47 0.925736 1.47566 0
M  V30 2949 C 282.602 1.90591 2.82645 0
M  V30 2950 H 283.795 2.73894 1.22156 0
M  V30 2951 H 281.348 1.44233 0.602203 0
M  V30 2952 H 282.083 0.974709 3.09306 0
M  V30 2953 H 281.868 2.72751 2.8169 0
M  V30 2954 H 283.358 2.11931 3.59826 0
M  V30 2955 N 283.795 -0.628877 1.44509 0
M  V30 2956 C 284.725 -1.75187 1.54376 0
M  V30 2957 C 285.706 -1.65411 0.396618 0
M  V30 2958 O 286.891 -1.84137 0.617031 0
M  V30 2959 C 284.021 -3.13725 1.48976 0
M  V30 2960 C 282.975 -3.38291 2.62189 0
M  V30 2961 C 282.301 -4.76883 2.41841 0
M  V30 2962 C 283.601 -3.30632 4.04326 0
M  V30 2963 H 285.295 -1.67187 2.48373 0
M  V30 2964 H 282.841 -0.802909 1.19538 0
M  V30 2965 H 284.794 -3.92064 1.54478 0
M  V30 2966 H 283.518 -3.22515 0.514961 0
M  V30 2967 H 282.177 -2.62334 2.56079 0
M  V30 2968 H 281.825 -4.82378 1.42548 0
M  V30 2969 H 281.525 -4.94278 3.17747 0
M  V30 2970 H 283.049 -5.57449 2.49165 0
M  V30 2971 H 284.463 -3.98873 4.11793 0
M  V30 2972 H 282.86 -3.59561 4.80454 0
M  V30 2973 H 283.93 -2.28404 4.27738 0
M  V30 2974 N 285.273 -1.31445 -0.869486 0
M  V30 2975 C 286.521 -1.20918 -1.61936 0
M  V30 2976 C 286.842 0.232683 -1.93607 0
M  V30 2977 O 286.112 1.15352 -1.58338 0
M  V30 2978 H 284.692 -0.44454 -0.600328 0
M  V30 2979 H 287.354 -1.64776 -1.0409 0
M  V30 2980 H 286.45 -1.78124 -2.56278 0
M  V30 2981 N 286.751 1.08385 -1.14413 0
M  V30 2982 C 288.167 1.32844 -0.884563 0
M  V30 2983 C 288.367 1.95841 0.474181 0
M  V30 2984 O 287.423 2.21158 1.21842 0
M  V30 2985 C 288.736 2.22978 -2.01745 0
M  V30 2986 C 290.284 2.36458 -2.05077 0
M  V30 2987 C 290.759 3.29934 -3.1766 0
M  V30 2988 N 292.25 3.37511 -3.17239 0
M  V30 2989 C 292.985 4.09871 -4.0099 0
M  V30 2990 N 292.481 4.84936 -4.94781 0
M  V30 2991 N 294.274 4.05704 -3.89051 0
M  V30 2992 H 286.425 0.658756 -2.01926 0
M  V30 2993 H 288.688 0.352821 -0.879899 0
M  V30 2994 H 288.394 1.83934 -2.99769 0
M  V30 2995 H 288.268 3.23441 -1.94077 0
M  V30 2996 H 290.655 2.7476 -1.0766 0
M  V30 2997 H 290.736 1.35736 -2.16816 0
M  V30 2998 H 290.38 2.92352 -4.15322 0
M  V30 2999 H 290.31 4.30584 -3.03158 0
M  V30 3000 H 292.801 2.83996 -2.49308 0
M  V30 3001 H 293.114 5.37612 -5.55151 0
M  V30 3002 H 291.459 4.83988 -4.98779 0
M  V30 3003 H 294.65 3.46167 -3.15097 0
M  V30 3004 H 294.823 4.61834 -4.54547 0
M  V30 3005 N 288.23 0.939286 1.26551 0
M  V30 3006 C 289.193 0.451987 2.24699 0
M  V30 3007 C 290.193 -0.435869 1.5478 0
M  V30 3008 O 291.383 -0.235314 1.72603 0
M  V30 3009 C 288.515 -0.348801 3.39111 0
M  V30 3010 H 289.708 1.3193 2.69322 0
M  V30 3011 H 287.261 0.721072 1.38673 0
M  V30 3012 H 287.996 -1.23444 2.99887 0
M  V30 3013 H 287.781 0.287945 3.91041 0
M  V30 3014 H 289.271 -0.679726 4.12031 0
M  V30 3015 N 289.708 -1.40897 0.706093 0
M  V30 3016 C 290.957 -2.00284 0.238574 0
M  V30 3017 C 291.27 -1.56604 -1.17194 0
M  V30 3018 O 292.476 -2.08624 -1.73748 0
M  V30 3019 C 290.932 -3.57934 0.375623 0
M  V30 3020 C 290.54 -4.10591 1.79217 0
M  V30 3021 C 292.284 -4.24488 -0.0315857 0
M  V30 3022 C 290.191 -5.60712 1.88032 0
M  V30 3023 H 289.121 -0.749144 0.0854398 0
M  V30 3024 H 291.772 -1.61251 0.875813 0
M  V30 3025 H 290.154 -3.94622 -0.330042 0
M  V30 3026 H 291.328 -3.85301 2.52745 0
M  V30 3027 H 289.643 -3.56601 2.15 0
M  V30 3028 H 292.24 -5.34698 0.0136842 0
M  V30 3029 H 292.583 -4.02261 -1.072 0
M  V30 3030 H 293.116 -3.92873 0.624181 0
M  V30 3031 H 289.855 -5.87781 2.90161 0
M  V30 3032 H 289.375 -5.87896 1.18903 0
M  V30 3033 H 291.054 -6.25658 1.64805 0
M  V30 3034 N 291.186 -0.45159 -1.50991 0
M  V30 3035 C 292.432 0.110237 -2.025 0
M  V30 3036 C 292.765 1.41109 -1.33424 0
M  V30 3037 O 292.04 1.89135 -0.453659 0
M  V30 3038 C 292.323 0.314271 -3.58726 0
M  V30 3039 C 292.176 -1.00623 -4.38401 0
M  V30 3040 C 293.495 1.07767 -4.26702 0
M  V30 3041 H 290.614 0.0385897 -0.735989 0
M  V30 3042 H 293.256 -0.593374 -1.80497 0
M  V30 3043 H 291.406 0.913601 -3.77605 0
M  V30 3044 H 293.078 -1.64064 -4.31139 0
M  V30 3045 H 291.321 -1.6075 -4.02917 0
M  V30 3046 H 291.992 -0.817341 -5.45915 0
M  V30 3047 H 294.468 0.56986 -4.12179 0
M  V30 3048 H 293.344 1.18921 -5.35863 0
M  V30 3049 H 293.605 2.10939 -3.88532 0
M  V30 3050 N 292.664 1.56529 -0.183458 0
M  V30 3051 C 293.594 2.21549 0.737456 0
M  V30 3052 C 294.575 1.17489 1.23005 0
M  V30 3053 O 295.76 1.45959 1.281 0
M  V30 3054 C 292.89 2.86575 1.96194 0
M  V30 3055 C 291.844 3.96778 1.60473 0
M  V30 3056 C 291.17 4.48911 2.90487 0
M  V30 3057 C 292.47 5.15767 0.823497 0
M  V30 3058 H 294.164 2.98761 0.195453 0
M  V30 3059 H 291.71 1.43702 0.0925686 0
M  V30 3060 H 293.663 3.30739 2.61131 0
M  V30 3061 H 292.387 2.06749 2.52828 0
M  V30 3062 H 291.046 3.53286 0.978997 0
M  V30 3063 H 290.694 3.65862 3.45186 0
M  V30 3064 H 290.394 5.23265 2.67335 0
M  V30 3065 H 291.918 4.95771 3.56432 0
M  V30 3066 H 293.332 5.56549 1.37571 0
M  V30 3067 H 291.729 5.96114 0.690551 0
M  V30 3068 H 292.799 4.84574 -0.177782 0
M  V30 3069 N 294.142 -0.090211 1.57342 0
M  V30 3070 C 295.372 -0.805055 1.90269 0
M  V30 3071 C 295.78 -1.72561 0.775842 0
M  V30 3072 O 295.123 -1.81839 -0.260843 0
M  V30 3073 C 295.185 -1.66734 3.18497 0
M  V30 3074 C 294.849 -0.918092 4.47683 0
M  V30 3075 C 295.846 -0.245674 5.19319 0
M  V30 3076 C 293.531 -0.890724 4.94339 0
M  V30 3077 C 295.525 0.444088 6.35851 0
M  V30 3078 C 293.212 -0.197179 6.10782 0
M  V30 3079 C 294.21 0.469044 6.81388 0
M  V30 3080 O 293.898 1.15146 7.95611 0
M  V30 3081 H 293.63 -0.235143 0.633785 0
M  V30 3082 H 296.184 -0.0703805 2.05279 0
M  V30 3083 H 294.414 -2.44437 2.99646 0
M  V30 3084 H 296.103 -2.25919 3.37217 0
M  V30 3085 H 296.869 -0.258246 4.84312 0
M  V30 3086 H 292.748 -1.39873 4.39268 0
M  V30 3087 H 296.292 0.964667 6.90898 0
M  V30 3088 H 292.189 -0.18247 6.45242 0
M  V30 3089 H 292.957 1.05885 8.11622 0
M  V30 3090 N 295.62 -1.53406 -0.361157 0
M  V30 3091 C 297.031 -1.61442 -0.937728 0
M  V30 3092 C 297.382 -0.48461 -1.90121 0
M  V30 3093 O 296.507 0.388312 -2.12888 0
M  V30 3094 C 297.102 -2.92624 -1.70753 0
M  V30 3095 C 295.661 -3.02981 -2.23337 0
M  V30 3096 C 294.808 -2.5677 -1.04712 0
M  V30 3097 H 297.759 -1.58083 -0.139816 0
M  V30 3098 H 297.78 -2.80675 -2.56908 0
M  V30 3099 H 297.292 -3.74834 -1.00604 0
M  V30 3100 H 295.393 -2.25368 -2.96715 0
M  V30 3101 H 295.506 -4.0814 -2.50916 0
M  V30 3102 H 293.87 -2.11752 -1.41539 0
M  V30 3103 H 294.653 -3.41402 -0.360539 0
M  V30 3104 N 297.098 0.621204 -1.44841 0
M  V30 3105 C 298.509 1.20298 -1.42777 0
M  V30 3106 C 298.86 1.95639 -0.148259 0
M  V30 3107 O 297.985 2.02955 0.750892 0
M  V30 3108 C 298.58 2.1882 -2.58657 0
M  V30 3109 C 297.139 2.72403 -2.59756 0
M  V30 3110 C 296.286 1.4757 -2.34773 0
M  V30 3111 H 299.237 0.411297 -1.53278 0
M  V30 3112 H 299.258 3.01607 -2.31977 0
M  V30 3113 H 298.77 1.63957 -3.51766 0
M  V30 3114 H 296.871 3.31242 -1.70615 0
M  V30 3115 H 296.984 3.17765 -3.58556 0
M  V30 3116 H 295.348 1.76051 -1.8406 0
M  V30 3117 H 296.131 0.945954 -3.3001 0
M  V30 3118 N 298.576 1.31904 0.862503 0
M  V30 3119 C 299.539 1.20131 1.95195 0
M  V30 3120 C 300.539 0.126409 1.60302 0
M  V30 3121 O 301.729 0.376234 1.70089 0
M  V30 3122 C 298.861 0.845691 3.30244 0
M  V30 3123 H 300.054 2.16943 2.07064 0
M  V30 3124 H 297.607 1.15622 1.05172 0
M  V30 3125 H 298.342 -0.120957 3.24074 0
M  V30 3126 H 298.127 1.62276 3.56944 0
M  V30 3127 H 299.617 0.787418 4.10109 0
M  V30 3128 N 300.054 -1.07777 1.14986 0
M  V30 3129 C 301.331 -1.7699 0.832695 0
M  V30 3130 C 301.711 -2.001 -0.672561 0
M  V30 3131 O 301.059 -1.61598 -1.6155 0
M  V30 3132 C 301.269 -3.08139 1.63863 0
M  V30 3133 C 302.617 -3.8256 1.84208 0
M  V30 3134 O 303.641 -3.17939 1.60603 0
M  V30 3135 O 302.5 -4.98612 2.23714 0
M  V30 3136 H 299.594 -0.768389 0.305791 0
M  V30 3137 H 302.14 -1.14182 1.25541 0
M  V30 3138 H 300.912 -2.86909 2.6608 0
M  V30 3139 H 300.535 -3.78678 1.21197 0
M  V30 3140 N 301.532 -0.945985 -1.26051 0
M  V30 3141 C 302.462 -0.477172 -2.28572 0
M  V30 3142 C 303.443 0.472032 -1.63419 0
M  V30 3143 O 304.628 0.372853 -1.90587 0
M  V30 3144 C 301.758 0.253975 -3.4637 0
M  V30 3145 C 300.712 -0.609135 -4.23643 0
M  V30 3146 C 300.038 0.252252 -5.34105 0
M  V30 3147 C 301.338 -1.8829 -4.8718 0
M  V30 3148 H 303.032 -1.33402 -2.68038 0
M  V30 3149 H 300.578 -0.642904 -1.28852 0
M  V30 3150 H 302.531 0.593016 -4.17207 0
M  V30 3151 H 301.255 1.145 -3.05871 0
M  V30 3152 H 299.914 -0.931138 -3.54578 0
M  V30 3153 H 299.562 1.14278 -4.89846 0
M  V30 3154 H 299.262 -0.32188 -5.86718 0
M  V30 3155 H 300.786 0.586454 -6.07777 0
M  V30 3156 H 302.2 -1.61081 -5.50205 0
M  V30 3157 H 300.597 -2.40199 -5.49931 0
M  V30 3158 H 301.667 -2.59134 -4.09851 0
M  V30 3159 N 303.011 1.40521 -0.713556 0
M  V30 3160 C 303.974 2.29098 -0.0684347 0
M  V30 3161 C 304.974 1.45268 0.689472 0
M  V30 3162 O 306.164 1.66205 0.521677 0
M  V30 3163 C 303.296 3.28446 0.913024 0
M  V30 3164 H 304.489 2.87645 -0.84855 0
M  V30 3165 H 302.042 1.48809 -0.47809 0
M  V30 3166 H 302.777 2.74913 1.72027 0
M  V30 3167 H 302.562 3.90327 0.372472 0
M  V30 3168 H 304.052 3.94777 1.36165 0
M  V30 3169 N 304.489 0.459591 1.5075 0
M  V30 3170 C 305.714 -0.0996819 2.0716 0
M  V30 3171 C 306.139 -1.33761 1.32249 0
M  V30 3172 O 305.497 -1.77551 0.366786 0
M  V30 3173 C 305.545 -0.378226 3.58611 0
M  V30 3174 O 304.649 -1.46081 3.85661 0
M  V30 3175 H 303.99 0.00791392 0.663953 0
M  V30 3176 H 306.52 0.647329 1.9409 0
M  V30 3177 H 306.53 -0.622135 4.03229 0
M  V30 3178 H 305.205 0.526439 4.12555 0
M  V30 3179 H 303.782 -1.20511 3.5289 0
M  V30 3180 N 305.967 -1.56429 0.191757 0
M  V30 3181 C 307.213 -1.97777 -0.448554 0
M  V30 3182 C 307.546 -1.07847 -1.61501 0
M  V30 3183 O 306.821 -0.129774 -1.94067 0
M  V30 3184 C 307.104 -3.48362 -0.911906 0
M  V30 3185 C 306.957 -4.4907 0.256136 0
M  V30 3186 C 308.276 -4.02561 -1.77857 0
M  V30 3187 H 305.395 -0.719071 -0.161572 0
M  V30 3188 H 308.037 -1.87896 0.282007 0
M  V30 3189 H 306.187 -3.56914 -1.53442 0
M  V30 3190 H 307.859 -4.5256 0.893733 0
M  V30 3191 H 306.102 -4.24181 0.908436 0
M  V30 3192 H 306.773 -5.51889 -0.11053 0
M  V30 3193 H 309.249 -3.96767 -1.25359 0
M  V30 3194 H 308.125 -5.08301 -2.07174 0
M  V30 3195 H 308.386 -3.47616 -2.73158 0
M  V30 3196 N 307.445 0.0818655 -1.57387 0
M  V30 3197 C 308.856 0.634871 -1.75574 0
M  V30 3198 C 309.207 1.78435 -0.815809 0
M  V30 3199 O 308.332 2.164 0.0025366 0
M  V30 3200 C 308.927 1.15845 -3.18379 0
M  V30 3201 C 307.486 1.65741 -3.37945 0
M  V30 3202 C 306.633 0.572549 -2.71325 0
M  V30 3203 H 309.584 -0.144268 -1.58043 0
M  V30 3204 H 309.605 2.02751 -3.21982 0
M  V30 3205 H 309.117 0.321631 -3.86765 0
M  V30 3206 H 307.218 2.51781 -2.74658 0
M  V30 3207 H 307.331 1.74129 -4.46336 0
M  V30 3208 H 305.695 1.01518 -2.33594 0
M  V30 3209 H 306.478 -0.253918 -3.4236 0
M  V30 3210 N 308.923 1.53595 0.353017 0
M  V30 3211 C 310.2 1.61002 1.11075 0
M  V30 3212 C 310.58 0.425356 2.0677 0
M  V30 3213 O 309.928 -0.583267 2.2093 0
M  V30 3214 C 310.138 2.96631 1.83877 0
M  V30 3215 C 311.486 3.51653 2.37961 0
M  V30 3216 O 312.51 2.98743 1.93987 0
M  V30 3217 O 311.369 4.44177 3.18386 0
M  V30 3218 H 308.463 0.650825 0.510251 0
M  V30 3219 H 311.009 1.6594 0.35527 0
M  V30 3220 H 309.781 3.74293 1.14108 0
M  V30 3221 H 309.404 2.95242 2.66304 0
M  V30 3222 N 310.401 -0.613514 1.45168 0
M  V30 3223 C 311.817 -0.933629 1.29443 0
M  V30 3224 C 312.017 -2.00028 0.243101 0
M  V30 3225 O 311.073 -2.49848 -0.364992 0
M  V30 3226 C 312.386 -1.38018 2.67155 0
M  V30 3227 C 313.934 -1.49471 2.75004 0
M  V30 3228 C 314.409 -1.97503 4.13227 0
M  V30 3229 N 315.9 -2.04746 4.15491 0
M  V30 3230 C 316.635 -2.43121 5.19307 0
M  V30 3231 N 316.131 -2.80506 6.33473 0
M  V30 3232 N 317.924 -2.43408 5.06664 0
M  V30 3233 H 310.075 0.0916097 2.12202 0
M  V30 3234 H 312.338 -0.0216655 0.947752 0
M  V30 3235 H 312.044 -0.670625 3.45247 0
M  V30 3236 H 311.918 -2.34784 2.95222 0
M  V30 3237 H 314.305 -2.19519 1.9722 0
M  V30 3238 H 314.386 -0.510342 2.50657 0
M  V30 3239 H 314.03 -1.28045 4.91495 0
M  V30 3240 H 313.96 -2.96843 4.34962 0
M  V30 3241 H 316.451 -1.78468 3.33103 0
M  V30 3242 H 316.764 -3.08652 7.08487 0
M  V30 3243 H 315.109 -2.78216 6.36884 0
M  V30 3244 H 318.3 -2.13604 4.16523 0
M  V30 3245 H 318.473 -2.72989 5.87691 0
M  V30 3246 N 311.879 -1.3236 -0.855495 0
M  V30 3247 C 312.789 -1.23221 -1.99634 0
M  V30 3248 C 313.805 -0.145983 -1.73387 0
M  V30 3249 O 314.981 -0.366502 -1.98037 0
M  V30 3250 C 312.046 -0.954782 -3.33294 0
M  V30 3251 C 311.107 -2.12937 -3.72769 0
M  V30 3252 C 310.34 -1.86508 -5.00051 0
M  V30 3253 O 310.563 -0.807231 -5.64659 0
M  V30 3254 O 309.497 -2.72591 -5.36636 0
M  V30 3255 H 313.323 -2.19126 -2.1028 0
M  V30 3256 H 310.908 -1.12241 -0.986018 0
M  V30 3257 H 312.79 -0.816519 -4.13414 0
M  V30 3258 H 311.465 -0.0258854 -3.2369 0
M  V30 3259 H 310.372 -2.3231 -2.93228 0
M  V30 3260 H 311.705 -3.04102 -3.87018 0
M  V30 3261 N 313.357 1.07166 -1.15556 0
M  V30 3262 C 314.32 2.12589 -0.856644 0
M  V30 3263 C 315.32 1.6015 0.14444 0
M  V30 3264 O 316.51 1.7399 -0.0854163 0
M  V30 3265 C 313.642 3.39753 -0.279405 0
M  V30 3266 H 314.835 2.40539 -1.79112 0
M  V30 3267 H 312.388 1.23086 -0.963298 0
M  V30 3268 H 313.123 3.17447 0.663174 0
M  V30 3269 H 312.908 3.79117 -1.00063 0
M  V30 3270 H 314.398 4.17507 -0.0879113 0
M  V30 3271 N 314.835 0.952656 1.25548 0
M  V30 3272 C 315.745 0.47782 2.29682 0
M  V30 3273 C 316.761 -0.453859 1.67977 0
M  V30 3274 O 317.937 -0.330587 1.98668 0
M  V30 3275 C 315.002 -0.238655 3.45878 0
M  V30 3276 C 314.063 0.730994 4.23031 0
M  V30 3277 C 313.296 0.0486165 5.33678 0
M  V30 3278 O 313.519 -1.16612 5.58353 0
M  V30 3279 O 312.453 0.733152 5.97418 0
M  V30 3280 H 316.279 1.34312 2.72386 0
M  V30 3281 H 313.864 0.719026 1.30959 0
M  V30 3282 H 315.746 -0.641774 4.16484 0
M  V30 3283 H 314.421 -1.07916 3.05181 0
M  V30 3284 H 313.328 1.18428 3.5486 0
M  V30 3285 H 314.661 1.53946 4.67506 0
M  V30 3286 N 316.313 -1.40141 0.720998 0
M  V30 3287 C 317.59 -1.94677 0.189757 0
M  V30 3288 C 317.97 -1.65879 -1.30566 0
M  V30 3289 O 317.318 -0.979391 -2.06447 0
M  V30 3290 C 317.528 -3.45279 0.508304 0
M  V30 3291 C 318.876 -4.22209 0.449934 0
M  V30 3292 O 319.9 -3.53413 0.444677 0
M  V30 3293 O 318.759 -5.44788 0.432189 0
M  V30 3294 H 315.853 -0.826459 0.0299026 0
M  V30 3295 H 318.399 -1.49719 0.7989 0
M  V30 3296 H 317.171 -3.59619 1.54239 0
M  V30 3297 H 316.794 -3.97386 -0.130525 0
M  V30 3298 N 317.792 -0.46758 -1.50504 0
M  V30 3299 C 319.041 0.0902868 -2.01498 0
M  V30 3300 C 319.354 1.411 -1.35463 0
M  V30 3301 O 320.56 2.0536 -1.77594 0
M  V30 3302 C 319.016 0.21142 -3.59278 0
M  V30 3303 C 318.624 -1.10065 -4.34269 0
M  V30 3304 C 320.368 0.721433 -4.18325 0
M  V30 3305 C 318.275 -0.943505 -5.83825 0
M  V30 3306 H 317.205 0.037517 -0.753066 0
M  V30 3307 H 319.856 -0.601943 -1.73346 0
M  V30 3308 H 318.238 0.967352 -3.84003 0
M  V30 3309 H 319.412 -1.86726 -4.21272 0
M  V30 3310 H 317.727 -1.5415 -3.86816 0
M  V30 3311 H 320.324 0.85598 -5.27804 0
M  V30 3312 H 320.667 1.71186 -3.79475 0
M  V30 3313 H 321.2 0.0229843 -3.97793 0
M  V30 3314 H 317.939 -1.90719 -6.27141 0
M  V30 3315 H 317.459 -0.217213 -5.99407 0
M  V30 3316 H 319.138 -0.608715 -6.4413 0
M  V30 3317 N 319.27 1.56325 -0.20005 0
M  V30 3318 C 320.495 2.02548 0.44597 0
M  V30 3319 C 320.92 1.07922 1.5406 0
M  V30 3320 O 320.278 0.0635775 1.81188 0
M  V30 3321 C 320.326 3.47175 0.974761 0
M  V30 3322 O 319.43 3.55671 2.08739 0
M  V30 3323 H 318.771 0.655862 0.103638 0
M  V30 3324 H 321.301 2.02201 -0.312381 0
M  V30 3325 H 321.311 3.87067 1.2901 0
M  V30 3326 H 319.986 4.15538 0.17347 0
M  V30 3327 H 318.563 3.27657 1.78032 0
M  V30 3328 N 320.748 -0.0735177 1.57428 0
M  V30 3329 C 322.025 -0.805903 1.78226 0
M  V30 3330 C 322.405 -1.95874 0.787189 0
M  V30 3331 O 321.753 -2.2779 -0.180029 0
M  V30 3332 C 321.963 -1.28045 3.24662 0
M  V30 3333 C 323.311 -1.71453 3.88444 0
M  V30 3334 O 324.335 -1.37616 3.28543 0
M  V30 3335 O 323.194 -2.34093 4.93825 0
M  V30 3336 H 320.288 -0.386041 0.73137 0
M  V30 3337 H 322.834 -0.0537269 1.69615 0
M  V30 3338 H 321.606 -0.455476 3.8864 0
M  V30 3339 H 321.229 -2.094 3.37991 0
M  V30 3340 N 322.226 -1.5378 -0.344866 0
M  V30 3341 C 323.136 -1.84667 -1.4469 0
M  V30 3342 C 324.152 -0.736704 -1.57635 0
M  V30 3343 O 325.328 -1.02888 -1.73136 0
M  V30 3344 C 322.393 -2.04869 -2.79696 0
M  V30 3345 C 321.454 -3.28731 -2.76106 0
M  V30 3346 C 320.687 -3.4796 -4.04673 0
M  V30 3347 O 320.91 -2.71052 -5.01883 0
M  V30 3348 O 319.844 -4.41383 -4.09224 0
M  V30 3349 H 323.67 -2.78334 -1.21506 0
M  V30 3350 H 321.255 -1.39418 -0.536921 0
M  V30 3351 H 323.137 -2.19609 -3.59652 0
M  V30 3352 H 321.812 -1.14391 -3.02814 0
M  V30 3353 H 320.719 -3.19396 -1.94774 0
M  V30 3354 H 322.052 -4.19198 -2.57941 0
M  V30 3355 N 323.704 0.605807 -1.45491 0
M  V30 3356 C 324.634 1.72709 -1.57143 0
M  V30 3357 C 325.615 1.6476 -0.422884 0
M  V30 3358 O 326.8 1.83132 -0.646247 0
M  V30 3359 C 323.93 3.11316 -1.53948 0
M  V30 3360 C 322.884 3.34077 -2.67537 0
M  V30 3361 C 322.21 4.72975 -2.49397 0
M  V30 3362 C 323.51 3.24158 -4.09535 0
M  V30 3363 H 325.204 1.63214 -2.51001 0
M  V30 3364 H 322.75 0.78379 -1.208 0
M  V30 3365 H 324.703 3.89557 -1.60696 0
M  V30 3366 H 323.427 3.21655 -0.566205 0
M  V30 3367 H 322.086 2.58227 -2.6022 0
M  V30 3368 H 321.734 4.8005 -1.50205 0
M  V30 3369 H 321.434 4.8916 -3.25571 0
M  V30 3370 H 322.958 5.53414 -2.58002 0
M  V30 3371 H 324.372 3.92271 -4.18086 0
M  V30 3372 H 322.769 3.51872 -4.86113 0
M  V30 3373 H 323.839 2.2157 -4.31317 0
M  V30 3374 N 325.182 1.32811 0.848464 0
M  V30 3375 C 326.114 1.18095 1.96433 0
M  V30 3376 C 327.127 0.114354 1.62398 0
M  V30 3377 O 328.316 0.363892 1.74751 0
M  V30 3378 C 325.416 0.786798 3.2964 0
M  V30 3379 C 324.589 1.943 3.91875 0
M  V30 3380 C 323.648 1.53138 5.03423 0
M  V30 3381 O 322.674 2.24432 5.23086 0
M  V30 3382 N 323.876 0.430915 5.78898 0
M  V30 3383 H 326.641 2.14218 2.09597 0
M  V30 3384 H 324.202 1.2543 1.02367 0
M  V30 3385 H 326.194 0.493715 4.01677 0
M  V30 3386 H 324.764 -0.0834541 3.12489 0
M  V30 3387 H 323.984 2.40224 3.12547 0
M  V30 3388 H 325.272 2.71689 4.30189 0
M  V30 3389 H 324.67 -0.162333 5.65467 0
M  V30 3390 H 323.227 0.197466 6.51501 0
M  V30 3391 N 326.66 -1.06551 1.16123 0
M  V30 3392 C 327.59 -2.15935 0.88851 0
M  V30 3393 C 328.571 -1.69306 -0.164135 0
M  V30 3394 O 329.756 -1.94193 -0.0167857 0
M  V30 3395 C 326.886 -3.45149 0.385942 0
M  V30 3396 C 325.84 -4.05271 1.3762 0
M  V30 3397 C 325.166 -5.29664 0.732137 0
M  V30 3398 C 326.466 -4.44355 2.74493 0
M  V30 3399 H 328.16 -2.39006 1.80323 0
M  V30 3400 H 325.706 -1.14866 0.868435 0
M  V30 3401 H 327.659 -4.21004 0.182647 0
M  V30 3402 H 326.383 -3.21689 -0.564274 0
M  V30 3403 H 325.042 -3.3147 1.56599 0
M  V30 3404 H 324.69 -5.02499 -0.224483 0
M  V30 3405 H 324.39 -5.70848 1.39307 0
M  V30 3406 H 325.914 -6.08218 0.538802 0
M  V30 3407 H 327.328 -5.11303 2.59311 0
M  V30 3408 H 325.725 -4.96515 3.37035 0
M  V30 3409 H 326.795 -3.55339 3.29943 0
M  V30 3410 N 328.138 -0.959301 -1.25041 0
M  V30 3411 C 329.068 -0.501388 -2.28053 0
M  V30 3412 C 330.049 0.454673 -1.63911 0
M  V30 3413 O 331.234 0.352618 -1.90972 0
M  V30 3414 C 328.364 0.217224 -3.4662 0
M  V30 3415 C 327.318 -0.654034 -4.22973 0
M  V30 3416 C 326.644 0.195589 -5.34342 0
M  V30 3417 C 327.944 -1.93447 -4.85155 0
M  V30 3418 H 329.638 -1.36238 -2.66608 0
M  V30 3419 H 327.184 -0.656534 -1.28163 0
M  V30 3420 H 329.137 0.548732 -4.17812 0
M  V30 3421 H 327.861 1.1125 -3.07068 0
M  V30 3422 H 326.52 -0.968693 -3.5357 0
M  V30 3423 H 326.168 1.09076 -4.91031 0
M  V30 3424 H 325.868 -0.384091 -5.86343 0
M  V30 3425 H 327.392 0.521958 -6.08365 0
M  V30 3426 H 328.806 -1.66908 -5.48466 0
M  V30 3427 H 327.203 -2.46018 -5.47353 0
M  V30 3428 H 328.273 -2.63466 -4.07079 0
M  V30 3429 N 329.616 1.39756 -0.72842 0
M  V30 3430 C 330.893 1.94574 -0.200079 0
M  V30 3431 C 331.273 1.66569 1.29684 0
M  V30 3432 O 330.621 0.990326 2.05924 0
M  V30 3433 C 330.831 3.45004 -0.526608 0
M  V30 3434 C 332.179 4.21965 -0.472318 0
M  V30 3435 O 333.203 3.53173 -0.463413 0
M  V30 3436 O 332.062 5.44552 -0.461075 0
M  V30 3437 H 329.156 0.826289 -0.0342851 0
M  V30 3438 H 331.702 1.49293 -0.806829 0
M  V30 3439 H 330.474 3.58796 -1.56144 0
M  V30 3440 H 330.097 3.97449 0.109449 0
M  V30 3441 N 331.094 0.475555 1.50254 0
M  V30 3442 C 332.026 -0.352649 2.26471 0
M  V30 3443 C 333.039 -0.953165 1.3198 0
M  V30 3444 O 334.228 -0.840815 1.57457 0
M  V30 3445 C 331.328 -1.50902 3.0345 0
M  V30 3446 C 330.501 -1.02047 4.25329 0
M  V30 3447 C 329.56 -2.05142 4.84565 0
M  V30 3448 O 328.586 -1.63023 5.45355 0
M  V30 3449 N 329.788 -3.37987 4.71959 0
M  V30 3450 H 332.553 0.300767 2.98187 0
M  V30 3451 H 330.114 0.306598 1.5897 0
M  V30 3452 H 332.106 -2.19572 3.39956 0
M  V30 3453 H 330.676 -2.06705 2.34504 0
M  V30 3454 H 329.896 -0.159507 3.93877 0
M  V30 3455 H 331.184 -0.672061 5.04342 0
M  V30 3456 H 330.582 -3.74913 4.23623 0
M  V30 3457 H 329.139 -4.02443 5.12721 0
M  V30 3458 N 332.573 -1.56217 0.208337 0
M  V30 3459 C 333.536 -2.18455 -0.693557 0
M  V30 3460 C 334.536 -1.14268 -1.13135 0
M  V30 3461 O 335.726 -1.39577 -1.0423 0
M  V30 3462 C 332.858 -2.79727 -1.94848 0
M  V30 3463 H 334.051 -2.99519 -0.15114 0
M  V30 3464 H 331.604 -1.56245 -0.041287 0
M  V30 3465 H 332.339 -2.02497 -2.53309 0
M  V30 3466 H 332.124 -3.56009 -1.64316 0
M  V30 3467 H 333.614 -3.27475 -2.59133 0
M  V30 3468 N 334.051 0.0651679 -1.57465 0
M  V30 3469 C 335.297 0.764193 -1.87851 0
M  V30 3470 C 335.63 1.76889 -0.801495 0
M  V30 3471 O 334.905 1.93594 0.187528 0
M  V30 3472 C 335.188 1.46625 -3.28897 0
M  V30 3473 C 335.041 0.477515 -4.47258 0
M  V30 3474 C 336.36 2.4095 -3.68281 0
M  V30 3475 H 333.479 0.276351 -0.683227 0
M  V30 3476 H 336.121 0.0272868 -1.8998 0
M  V30 3477 H 334.271 2.09438 -3.27212 0
M  V30 3478 H 335.943 -0.145922 -4.61069 0
M  V30 3479 H 334.186 -0.206576 -4.33308 0
M  V30 3480 H 334.857 1.0065 -5.42746 0
M  V30 3481 H 337.333 1.88209 -3.71102 0
M  V30 3482 H 336.209 2.87072 -4.67847 0
M  V30 3483 H 336.47 3.26049 -2.98571 0
M  V30 3484 N 335.529 1.53961 0.336706 0
M  V30 3485 C 336.754 1.75797 1.10046 0
M  V30 3486 C 337.179 0.498985 1.81361 0
M  V30 3487 O 336.537 -0.548769 1.72795 0
M  V30 3488 C 336.585 2.94257 2.08436 0
M  V30 3489 O 335.689 2.64883 3.16087 0
M  V30 3490 H 335.03 0.582936 0.317934 0
M  V30 3491 H 337.56 2.00945 0.38501 0
M  V30 3492 H 337.57 3.21237 2.51537 0
M  V30 3493 H 336.245 3.85564 1.55927 0
M  V30 3494 H 334.822 2.48812 2.77753 0
M  V30 3495 N 337.007 -0.598083 1.45811 0
M  V30 3496 C 338.232 -1.3881 1.54099 0
M  V30 3497 C 338.657 -1.8726 0.177578 0
M  V30 3498 O 338.015 -1.6069 -0.839541 0
M  V30 3499 C 338.063 -2.56217 2.53743 0
M  V30 3500 O 337.167 -3.5716 2.06182 0
M  V30 3501 H 336.508 -0.414024 0.519115 0
M  V30 3502 H 339.038 -0.726971 1.91249 0
M  V30 3503 H 339.048 -3.03337 2.72856 0
M  V30 3504 H 337.723 -2.20303 3.5276 0
M  V30 3505 H 336.3 -3.16624 1.96987 0
M  V30 3506 N 338.485 -1.33259 -0.841409 0
M  V30 3507 C 339.731 -1.24757 -1.59886 0
M  V30 3508 C 340.064 0.186913 -1.93298 0
M  V30 3509 O 339.339 1.12757 -1.5848 0
M  V30 3510 C 339.622 -2.12036 -2.91055 0
M  V30 3511 C 339.475 -3.63929 -2.6434 0
M  V30 3512 C 340.794 -1.9916 -3.92458 0
M  V30 3513 H 337.913 -0.454542 -0.580138 0
M  V30 3514 H 340.555 -1.63335 -0.970647 0
M  V30 3515 H 338.705 -1.79265 -3.44669 0
M  V30 3516 H 340.377 -4.06978 -2.17178 0
M  V30 3517 H 338.62 -3.85935 -1.98082 0
M  V30 3518 H 339.291 -4.20341 -3.57796 0
M  V30 3519 H 341.767 -2.27895 -3.48143 0
M  V30 3520 H 340.643 -2.62484 -4.82072 0
M  V30 3521 H 340.904 -0.963082 -4.31482 0
M  V30 3522 N 339.963 1.05934 -1.16686 0
M  V30 3523 C 341.379 1.30938 -0.912542 0
M  V30 3524 C 341.579 1.96803 0.432533 0
M  V30 3525 O 340.635 2.23693 1.17123 0
M  V30 3526 C 341.948 2.18649 -2.06429 0
M  V30 3527 C 343.496 2.32055 -2.10047 0
M  V30 3528 C 343.971 3.23122 -3.24586 0
M  V30 3529 N 345.462 3.30706 -3.24327 0
M  V30 3530 C 346.197 4.01273 -4.09594 0
M  V30 3531 N 345.693 4.74332 -5.04956 0
M  V30 3532 N 347.486 3.97361 -3.97569 0
M  V30 3533 H 339.637 0.615777 -2.03278 0
M  V30 3534 H 341.9 0.334077 -0.887185 0
M  V30 3535 H 341.606 1.77534 -3.03603 0
M  V30 3536 H 341.48 3.19252 -2.00894 0
M  V30 3537 H 343.867 2.72415 -1.13464 0
M  V30 3538 H 343.948 1.31107 -2.19647 0
M  V30 3539 H 343.592 2.83477 -4.2143 0
M  V30 3540 H 343.522 4.24057 -3.12223 0
M  V30 3541 H 346.013 2.78644 -2.55276 0
M  V30 3542 H 346.326 5.25716 -5.6643 0
M  V30 3543 H 344.671 4.733 -5.08933 0
M  V30 3544 H 347.862 3.39405 -3.22369 0
M  V30 3545 H 348.035 4.52089 -4.64241 0
M  V30 3546 N 341.441 0.965919 1.2453 0
M  V30 3547 C 342.669 0.644385 1.96609 0
M  V30 3548 C 343.084 -0.785823 1.71669 0
M  V30 3549 O 342.441 -1.52703 0.999399 0
M  V30 3550 C 342.492 0.907375 3.49927 0
M  V30 3551 O 342.213 2.28136 3.74013 0
M  V30 3552 C 343.714 0.599784 4.39224 0
M  V30 3553 H 340.934 0.240588 0.626385 0
M  V30 3554 H 343.478 1.29337 1.58405 0
M  V30 3555 H 341.633 0.304631 3.862 0
M  V30 3556 H 342.047 2.36002 4.68405 0
M  V30 3557 H 343.521 0.834263 5.45659 0
M  V30 3558 H 343.998 -0.465921 4.36722 0
M  V30 3559 H 344.604 1.18235 4.08535 0
M  V30 3560 N 342.919 -1.39368 0.735821 0
M  V30 3561 C 343.829 -2.34395 0.0979693 0
M  V30 3562 C 344.845 -1.58361 -0.720968 0
M  V30 3563 O 346.021 -1.90648 -0.649245 0
M  V30 3564 C 343.086 -3.37393 -0.797916 0
M  V30 3565 C 342.147 -4.29287 0.0333662 0
M  V30 3566 C 341.38 -5.27365 -0.819854 0
M  V30 3567 O 341.603 -5.31959 -2.05855 0
M  V30 3568 O 340.537 -6.01389 -0.248079 0
M  V30 3569 H 344.363 -2.90601 0.882315 0
M  V30 3570 H 341.948 -1.40909 0.4965 0
M  V30 3571 H 343.83 -4.00505 -1.31048 0
M  V30 3572 H 342.505 -2.83571 -1.56106 0
M  V30 3573 H 341.412 -3.69395 0.591475 0
M  V30 3574 H 342.745 -4.86317 0.758752 0
M  V30 3575 N 344.397 -0.483516 -1.5 0
M  V30 3576 C 345.646 0.0689102 -2.01582 0
M  V30 3577 C 345.959 1.39655 -1.36952 0
M  V30 3578 O 347.165 2.03465 -1.79762 0
M  V30 3579 C 345.621 0.173302 -3.59483 0
M  V30 3580 C 345.229 -1.14665 -4.33077 0
M  V30 3581 C 346.973 0.677024 -4.19066 0
M  V30 3582 C 344.88 -1.00537 -5.82792 0
M  V30 3583 H 343.81 0.0295277 -0.753422 0
M  V30 3584 H 346.461 -0.620295 -1.72698 0
M  V30 3585 H 344.843 0.926569 -3.85007 0
M  V30 3586 H 346.017 -1.91184 -4.19268 0
M  V30 3587 H 344.332 -1.58244 -3.85159 0
M  V30 3588 H 346.929 0.799952 -5.28682 0
M  V30 3589 H 347.272 1.67151 -3.81269 0
M  V30 3590 H 347.805 -0.0192083 -3.97795 0
M  V30 3591 H 344.544 -1.9736 -6.25083 0
M  V30 3592 H 344.064 -0.280776 -5.99142 0
M  V30 3593 H 345.743 -0.677 -6.43448 0
M  V30 3594 N 345.875 1.56104 -0.216619 0
M  V30 3595 C 346.807 2.17339 0.72776 0
M  V30 3596 C 347.82 1.14109 1.16116 0
M  V30 3597 O 349.009 1.4111 1.09317 0
M  V30 3598 C 346.109 2.73818 1.99693 0
M  V30 3599 C 345.282 4.02168 1.71988 0
M  V30 3600 C 344.341 4.43259 2.83562 0
M  V30 3601 O 343.367 5.10257 2.52244 0
M  V30 3602 N 344.569 4.08535 4.12407 0
M  V30 3603 H 347.334 2.99005 0.203983 0
M  V30 3604 H 344.895 1.61861 -0.0354289 0
M  V30 3605 H 346.887 2.9828 2.73516 0
M  V30 3606 H 345.457 1.96483 2.43132 0
M  V30 3607 H 344.677 3.85612 0.818337 0
M  V30 3608 H 345.965 4.85907 1.50903 0
M  V30 3609 H 345.363 3.54687 4.40696 0
M  V30 3610 H 343.92 4.37901 4.8279 0
M  V30 3611 N 347.353 -0.0568162 1.57498 0
M  V30 3612 C 348.285 -1.09292 2.01464 0
M  V30 3613 C 349.298 -1.34112 0.922913 0
M  V30 3614 O 350.487 -1.32089 1.20062 0
M  V30 3615 C 347.587 -2.44068 2.35125 0
M  V30 3616 C 346.76 -2.38995 3.66333 0
M  V30 3617 C 345.819 -3.55997 3.87495 0
M  V30 3618 O 344.845 -3.36746 4.58901 0
M  V30 3619 N 346.047 -4.76888 3.30996 0
M  V30 3620 H 348.812 -0.718386 2.90963 0
M  V30 3621 H 346.373 -0.245235 1.60032 0
M  V30 3622 H 348.365 -3.21011 2.46443 0
M  V30 3623 H 346.935 -2.73468 1.5144 0
M  V30 3624 H 346.155 -1.47336 3.65631 0
M  V30 3625 H 347.443 -2.3272 4.52458 0
M  V30 3626 H 346.841 -4.95431 2.73065 0
M  V30 3627 H 345.398 -5.51291 3.47738 0
M  V30 3628 N 348.832 -1.54138 -0.328536 0
M  V30 3629 C 349.762 -1.86167 -1.40939 0
M  V30 3630 C 350.743 -0.718044 -1.54202 0
M  V30 3631 O 351.928 -0.971328 -1.68163 0
M  V30 3632 C 349.058 -2.08461 -2.77779 0
M  V30 3633 C 348.012 -3.24299 -2.7931 0
M  V30 3634 C 347.338 -3.31955 -4.19178 0
M  V30 3635 C 348.638 -4.62065 -2.43502 0
M  V30 3636 H 350.332 -2.76689 -1.14383 0
M  V30 3637 H 347.878 -1.33132 -0.548806 0
M  V30 3638 H 349.831 -2.29453 -3.53454 0
M  V30 3639 H 348.555 -1.14684 -3.05802 0
M  V30 3640 H 347.214 -3.03187 -2.0609 0
M  V30 3641 H 346.862 -2.35745 -4.44335 0
M  V30 3642 H 346.562 -4.09805 -4.2111 0
M  V30 3643 H 348.086 -3.55175 -4.96672 0
M  V30 3644 H 349.5 -4.8297 -3.08889 0
M  V30 3645 H 347.897 -5.42429 -2.56693 0
M  V30 3646 H 348.967 -4.64652 -1.38659 0
M  V30 3647 N 350.31 0.590341 -1.46126 0
M  V30 3648 C 351.587 1.35029 -1.41515 0
M  V30 3649 C 351.967 2.10888 -0.0946472 0
M  V30 3650 O 351.315 2.08998 0.923693 0
M  V30 3651 C 351.525 2.28269 -2.63997 0
M  V30 3652 C 352.873 2.90338 -3.09821 0
M  V30 3653 O 353.897 2.38585 -2.64492 0
M  V30 3654 O 352.756 3.84321 -3.88535 0
M  V30 3655 H 349.85 0.606317 -0.562413 0
M  V30 3656 H 352.396 0.611994 -1.58281 0
M  V30 3657 H 351.168 1.71591 -3.51671 0
M  V30 3658 H 350.791 3.0945 -2.49652 0
M  V30 3659 N 351.788 1.33704 0.83433 0
M  V30 3660 C 352.698 1.26382 1.97648 0
M  V30 3661 C 353.714 0.173548 1.73132 0
M  V30 3662 O 354.89 0.397962 1.97429 0
M  V30 3663 C 351.955 1.00769 3.31733 0
M  V30 3664 C 351.016 2.1884 3.69334 0
M  V30 3665 C 350.249 1.9444 4.9702 0
M  V30 3666 O 350.472 0.896961 5.63303 0
M  V30 3667 O 349.406 2.81093 5.32231 0
M  V30 3668 H 353.232 2.22444 2.06767 0
M  V30 3669 H 350.817 1.13795 0.968037 0
M  V30 3670 H 352.699 0.882186 4.12062 0
M  V30 3671 H 351.374 0.0773783 3.23608 0
M  V30 3672 H 350.281 2.36946 2.89495 0
M  V30 3673 H 351.614 3.10221 3.82131 0
M  V30 3674 N 353.266 -1.05314 1.17247 0
M  V30 3675 C 354.213 -2.13031 0.888058 0
M  V30 3676 C 355.183 -1.65253 -0.167537 0
M  V30 3677 O 356.368 -1.90775 -0.0305974 0
M  V30 3678 C 353.508 -3.42702 0.406147 0
M  V30 3679 C 352.621 -4.04161 1.52572 0
M  V30 3680 C 351.756 -5.21744 0.997808 0
M  V30 3681 C 350.795 -5.75207 2.09291 0
M  V30 3682 N 349.932 -6.84094 1.57986 0
M  V30 3683 H 354.772 -2.36698 1.81048 0
M  V30 3684 H 352.309 -1.16121 0.903013 0
M  V30 3685 H 354.267 -4.17059 0.108305 0
M  V30 3686 H 352.897 -3.19222 -0.479313 0
M  V30 3687 H 351.949 -3.27253 1.93931 0
M  V30 3688 H 353.261 -4.39881 2.35172 0
M  V30 3689 H 352.415 -6.03168 0.653739 0
M  V30 3690 H 351.154 -4.87495 0.141232 0
M  V30 3691 H 350.159 -4.92414 2.44557 0
M  V30 3692 H 351.384 -6.11505 2.95362 0
M  V30 3693 H 349.33 -6.51745 0.74598 0
M  V30 3694 H 349.247 -7.18811 2.34195 0
M  V30 3695 H 350.515 -7.69172 1.26468 0
M  V30 3696 N 354.744 -0.972509 -1.24016 0
M  V30 3697 C 355.677 -0.45117 -2.23696 0
M  V30 3698 C 356.655 0.477378 -1.55434 0
M  V30 3699 O 357.839 0.407647 -1.84039 0
M  V30 3700 C 354.966 0.34818 -3.36906 0
M  V30 3701 C 354.012 -0.523355 -4.23277 0
M  V30 3702 S 354.845 -1.96647 -4.98087 0
M  V30 3703 C 356.001 -1.17604 -6.14752 0
M  V30 3704 H 356.234 -1.29588 -2.67571 0
M  V30 3705 H 353.767 -0.777903 -1.33372 0
M  V30 3706 H 355.725 0.803387 -4.02562 0
M  V30 3707 H 354.386 1.16792 -2.91579 0
M  V30 3708 H 353.579 0.0906181 -5.03919 0
M  V30 3709 H 353.181 -0.914485 -3.62647 0
M  V30 3710 H 355.473 -0.433434 -6.76112 0
M  V30 3711 H 356.416 -1.95701 -6.8052 0
M  V30 3712 H 356.824 -0.698295 -5.60164 0
M  V30 3713 N 356.222 1.38976 -0.743202 0
M  V30 3714 C 357.154 2.29096 -0.0689228 0
M  V30 3715 C 358.167 1.47229 0.694791 0
M  V30 3716 O 359.356 1.70212 0.537597 0
M  V30 3717 C 356.456 3.25988 0.926548 0
M  V30 3718 C 355.629 4.36833 0.222647 0
M  V30 3719 C 354.688 5.13981 1.12739 0
M  V30 3720 O 353.714 5.6601 0.601795 0
M  V30 3721 N 354.916 5.25966 2.45641 0
M  V30 3722 H 357.681 2.87604 -0.842846 0
M  V30 3723 H 355.242 1.50645 -0.593109 0
M  V30 3724 H 357.234 3.74476 1.5346 0
M  V30 3725 H 355.804 2.68453 1.60162 0
M  V30 3726 H 355.024 3.90116 -0.565983 0
M  V30 3727 H 356.312 5.0811 -0.264841 0
M  V30 3728 H 355.71 4.85228 2.9081 0
M  V30 3729 H 354.267 5.77865 3.01522 0
M  V30 3730 N 357.7 0.491464 1.49741 0
M  V30 3731 C 358.977 -0.118984 1.95238 0
M  V30 3732 C 359.357 -1.55044 1.43264 0
M  V30 3733 O 358.705 -2.19287 0.642287 0
M  V30 3734 C 358.915 -0.0414187 3.48975 0
M  V30 3735 C 360.263 -0.220133 4.24029 0
M  V30 3736 O 361.287 -0.117055 3.56008 0
M  V30 3737 O 360.146 -0.430567 5.44801 0
M  V30 3738 H 357.24 -0.100536 0.820866 0
M  V30 3739 H 359.786 0.553322 1.60426 0
M  V30 3740 H 358.558 0.957214 3.79412 0
M  V30 3741 H 358.181 -0.754292 3.9038 0
M  V30 3742 N 359.178 -1.55987 0.224894 0
M  V30 3743 C 360.403 -2.03232 -0.41369 0
M  V30 3744 C 360.828 -1.10359 -1.52323 0
M  V30 3745 O 360.186 -0.092395 -1.81064 0
M  V30 3746 C 360.234 -3.48682 -0.919405 0
M  V30 3747 O 359.338 -3.58947 -2.03054 0
M  V30 3748 H 358.679 -0.657428 -0.0931903 0
M  V30 3749 H 361.209 -2.01679 0.34451 0
M  V30 3750 H 361.219 -3.8907 -1.22835 0
M  V30 3751 H 359.894 -4.15761 -0.107339 0
M  V30 3752 H 358.471 -3.30448 -1.72796 0
M  V30 3753 N 360.656 0.0484629 -1.57525 0
M  V30 3754 C 361.586 1.0549 -2.08313 0
M  V30 3755 C 362.567 1.38929 -0.981463 0
M  V30 3756 O 363.752 1.48151 -1.25558 0
M  V30 3757 C 360.882 2.36162 -2.54646 0
M  V30 3758 C 359.836 2.17016 -3.68901 0
M  V30 3759 C 359.162 3.53278 -4.01371 0
M  V30 3760 C 360.462 1.57219 -4.98076 0
M  V30 3761 H 362.156 0.632195 -2.92649 0
M  V30 3762 H 359.702 0.302654 -1.40784 0
M  V30 3763 H 361.655 3.06882 -2.88793 0
M  V30 3764 H 360.379 2.80456 -1.67368 0
M  V30 3765 H 359.038 1.48733 -3.35073 0
M  V30 3766 H 358.686 3.95185 -3.11188 0
M  V30 3767 H 358.386 3.41299 -4.78318 0
M  V30 3768 H 359.91 4.25391 -4.38035 0
M  V30 3769 H 361.324 2.17832 -5.30304 0
M  V30 3770 H 359.721 1.55871 -5.79503 0
M  V30 3771 H 360.791 0.535956 -4.81929 0
M  V30 3772 N 362.134 1.5431 0.320358 0
M  V30 3773 C 363.067 1.78769 1.41834 0
M  V30 3774 C 364.045 0.63783 1.49568 0
M  V30 3775 O 365.229 0.875628 1.66928 0
M  V30 3776 C 362.356 1.90712 2.79905 0
M  V30 3777 C 361.402 3.13023 2.89687 0
M  V30 3778 S 362.235 4.71554 2.53766 0
M  V30 3779 C 363.391 4.86408 3.93902 0
M  V30 3780 H 363.624 2.71619 1.20874 0
M  V30 3781 H 361.157 1.45474 0.517377 0
M  V30 3782 H 363.115 1.98279 3.59438 0
M  V30 3783 H 361.776 0.988343 2.98145 0
M  V30 3784 H 360.969 3.18124 3.90913 0
M  V30 3785 H 360.571 3.03803 2.18128 0
M  V30 3786 H 362.863 4.69241 4.88691 0
M  V30 3787 H 363.806 5.88508 3.93782 0
M  V30 3788 H 364.214 4.14689 3.83005 0
M  V30 3789 N 363.613 -0.582584 1.46437 0
M  V30 3790 C 364.838 -1.37168 1.55563 0
M  V30 3791 C 365.263 -1.87061 0.19743 0
M  V30 3792 O 364.621 -1.61572 -0.822451 0
M  V30 3793 C 364.669 -2.53511 2.56446 0
M  V30 3794 O 363.773 -3.54953 2.09958 0
M  V30 3795 H 363.114 -0.408494 0.523477 0
M  V30 3796 H 365.644 -0.706646 1.9201 0
M  V30 3797 H 365.654 -3.00426 2.76058 0
M  V30 3798 H 364.329 -2.16549 3.55076 0
M  V30 3799 H 362.906 -3.14516 2.00334 0
M  V30 3800 N 365.091 -1.34144 -0.827227 0
M  V30 3801 C 366.001 -1.27428 -1.96975 0
M  V30 3802 C 367.017 -0.182728 -1.73038 0
M  V30 3803 O 368.193 -0.408426 -1.97215 0
M  V30 3804 C 365.258 -1.02526 -3.31194 0
M  V30 3805 C 364.319 -2.20796 -3.68168 0
M  V30 3806 C 363.552 -1.97073 -4.95982 0
M  V30 3807 O 363.775 -0.926822 -5.6282 0
M  V30 3808 O 362.709 -2.83912 -5.30733 0
M  V30 3809 H 366.535 -2.23537 -2.05584 0
M  V30 3810 H 364.12 -1.14307 -0.961989 0
M  V30 3811 H 366.002 -0.904026 -4.11589 0
M  V30 3812 H 364.677 -0.0945389 -3.23562 0
M  V30 3813 H 363.584 -2.38477 -2.88235 0
M  V30 3814 H 364.917 -3.12243 -3.8048 0
M  V30 3815 N 366.569 1.04691 -1.17803 0
M  V30 3816 C 367.479 2.16057 -0.914151 0
M  V30 3817 C 368.495 1.73589 0.119503 0
M  V30 3818 O 369.671 2.01308 -0.0609468 0
M  V30 3819 C 366.736 3.4394 -0.436603 0
M  V30 3820 C 365.797 4.00825 -1.53746 0
M  V30 3821 C 365.03 5.22604 -1.0826 0
M  V30 3822 O 365.253 5.70367 0.0612244 0
M  V30 3823 O 364.187 5.7186 -1.87775 0
M  V30 3824 H 368.013 2.41169 -1.84584 0
M  V30 3825 H 365.598 1.1453 -0.959334 0
M  V30 3826 H 367.48 4.21024 -0.178057 0
M  V30 3827 H 366.155 3.20316 0.466869 0
M  V30 3828 H 365.062 3.25158 -1.84995 0
M  V30 3829 H 366.395 4.28778 -2.41683 0
M  V30 3830 N 368.047 0.979072 1.23499 0
M  V30 3831 C 369.463 0.687475 1.44034 0
M  V30 3832 C 369.663 -0.746801 1.8715 0
M  V30 3833 O 368.719 -1.51939 2.0167 0
M  V30 3834 C 370.032 1.68127 2.49307 0
M  V30 3835 C 371.58 1.69516 2.63122 0
M  V30 3836 C 372.055 2.67723 3.71603 0
M  V30 3837 N 373.546 2.66233 3.79044 0
M  V30 3838 C 374.281 3.38891 4.62537 0
M  V30 3839 N 373.777 4.21103 5.50131 0
M  V30 3840 N 375.57 3.27661 4.56721 0
M  V30 3841 H 367.721 1.90559 0.938135 0
M  V30 3842 H 369.984 0.821051 0.473897 0
M  V30 3843 H 369.69 2.70693 2.2454 0
M  V30 3844 H 369.564 1.46306 3.4767 0
M  V30 3845 H 371.951 0.676561 2.8724 0
M  V30 3846 H 372.032 1.95404 1.65079 0
M  V30 3847 H 371.676 3.69724 3.48233 0
M  V30 3848 H 371.606 2.39111 4.69184 0
M  V30 3849 H 374.097 2.06568 3.16446 0
M  V30 3850 H 374.41 4.73403 6.10827 0
M  V30 3851 H 372.755 4.25195 5.49759 0
M  V30 3852 H 375.946 2.62887 3.87309 0
M  V30 3853 H 376.119 3.84547 5.21562 0
M  V30 3854 N 369.525 -1.3858 0.750561 0
M  V30 3855 C 370.488 -2.28836 0.129152 0
M  V30 3856 C 371.488 -1.47045 -0.650714 0
M  V30 3857 O 372.678 -1.6753 -0.477428 0
M  V30 3858 C 369.81 -3.30751 -0.825622 0
M  V30 3859 H 371.003 -2.85294 0.924516 0
M  V30 3860 H 368.556 -1.47489 0.517376 0
M  V30 3861 H 369.291 -2.79378 -1.64677 0
M  V30 3862 H 369.076 -3.91177 -0.268852 0
M  V30 3863 H 370.566 -3.98249 -1.2565 0
M  V30 3864 N 371.003 -0.499398 -1.49478 0
M  V30 3865 C 371.933 0.269244 -2.31943 0
M  V30 3866 C 372.914 0.964054 -1.40143 0
M  V30 3867 O 374.099 0.955767 -1.69052 0
M  V30 3868 C 371.229 1.33504 -3.20615 0
M  V30 3869 C 370.183 0.760202 -4.21195 0
M  V30 3870 C 369.509 1.9264 -4.98792 0
M  V30 3871 C 370.809 -0.247661 -5.21712 0
M  V30 3872 H 372.503 -0.419082 -2.96452 0
M  V30 3873 H 370.049 -0.202988 -1.42562 0
M  V30 3874 H 372.002 1.88048 -3.77115 0
M  V30 3875 H 370.726 2.05253 -2.54045 0
M  V30 3876 H 369.385 0.23653 -3.65836 0
M  V30 3877 H 369.033 2.63154 -4.28671 0
M  V30 3878 H 368.733 1.54785 -5.66847 0
M  V30 3879 H 370.257 2.4762 -5.58137 0
M  V30 3880 H 371.671 0.209579 -5.72917 0
M  V30 3881 H 370.068 -0.541962 -5.97648 0
M  V30 3882 H 371.138 -1.16409 -4.7072 0
M  V30 3883 N 372.481 1.55866 -0.233164 0
M  V30 3884 C 373.728 1.98603 0.395374 0
M  V30 3885 C 374.056 1.12105 1.58942 0
M  V30 3886 O 373.311 0.168656 1.94972 0
M  V30 3887 C 373.61 3.46856 0.861724 0
M  V30 3888 C 373.276 4.50348 -0.223066 0
M  V30 3889 C 371.938 4.78371 -0.521038 0
M  V30 3890 C 374.29 5.12355 -0.956124 0
M  V30 3891 C 371.618 5.6568 -1.55638 0
M  V30 3892 C 373.97 6.00786 -1.98089 0
M  V30 3893 C 372.634 6.27148 -2.28565 0
M  V30 3894 H 371.904 0.726739 0.144677 0
M  V30 3895 H 374.551 1.88491 -0.338114 0
M  V30 3896 H 372.856 3.5423 1.67418 0
M  V30 3897 H 374.553 3.77302 1.35809 0
M  V30 3898 H 371.143 4.28596 0.0193234 0
M  V30 3899 H 375.327 4.90765 -0.739166 0
M  V30 3900 H 370.583 5.84365 -1.798 0
M  V30 3901 H 374.757 6.4788 -2.55391 0
M  V30 3902 H 372.384 6.94597 -3.08932 0
M  V30 3903 N 373.959 -0.0401083 1.57549 0
M  V30 3904 C 375.184 -0.748931 1.93406 0
M  V30 3905 C 375.609 -1.68686 0.832274 0
M  V30 3906 O 374.967 -1.80047 -0.212818 0
M  V30 3907 C 375.015 -1.4916 3.28304 0
M  V30 3908 O 374.119 -2.6042 3.19774 0
M  V30 3909 H 373.46 -0.202212 0.63246 0
M  V30 3910 H 375.99 0.00112086 2.046 0
M  V30 3911 H 376 -1.86395 3.62934 0
M  V30 3912 H 374.675 -0.80364 4.08062 0
M  V30 3913 H 373.252 -2.25808 2.96758 0
M  V30 3914 N 375.437 -1.54477 -0.31217 0
M  V30 3915 C 376.683 -1.73483 -1.0503 0
M  V30 3916 C 377.016 -0.513125 -1.87298 0
M  V30 3917 O 376.291 0.489864 -1.8823 0
M  V30 3918 C 376.574 -3.01723 -1.96558 0
M  V30 3919 C 376.427 -4.3417 -1.17545 0
M  V30 3920 C 377.746 -3.25772 -2.95907 0
M  V30 3921 H 374.865 -0.631222 -0.380432 0
M  V30 3922 H 377.507 -1.87184 -0.325932 0
M  V30 3923 H 375.657 -2.90174 -2.58324 0
M  V30 3924 H 377.329 -4.5762 -0.581513 0
M  V30 3925 H 375.572 -4.31159 -0.477925 0
M  V30 3926 H 376.243 -5.20143 -1.84811 0
M  V30 3927 H 378.719 -3.36857 -2.44267 0
M  V30 3928 H 377.595 -4.16838 -3.57123 0
M  V30 3929 H 377.856 -2.43537 -3.68974 0
M  V30 3930 N 376.915 0.57481 -1.46744 0
M  V30 3931 C 378.162 1.33272 -1.52462 0
M  V30 3932 C 378.49 1.93669 -0.179572 0
M  V30 3933 O 377.745 1.7743 0.825664 0
M  V30 3934 C 378.044 2.476 -2.57738 0
M  V30 3935 C 377.71 2.05146 -4.01529 0
M  V30 3936 C 376.372 1.93284 -4.40676 0
M  V30 3937 C 378.724 1.72506 -4.91824 0
M  V30 3938 C 376.052 1.47049 -5.67973 0
M  V30 3939 C 378.404 1.27748 -6.19567 0
M  V30 3940 C 377.068 1.14468 -6.57612 0
M  V30 3941 H 376.338 0.487678 -0.557899 0
M  V30 3942 H 378.985 0.646456 -1.80259 0
M  V30 3943 H 377.29 3.21708 -2.23632 0
M  V30 3944 H 378.987 3.05807 -2.5939 0
M  V30 3945 H 375.577 2.15316 -3.7059 0
M  V30 3946 H 379.761 1.80552 -4.62293 0
M  V30 3947 H 375.017 1.35417 -5.96215 0
M  V30 3948 H 379.191 1.01547 -6.88957 0
M  V30 3949 H 376.818 0.78419 -7.56145 0
M  V30 3950 N 378.394 1.34581 0.820102 0
M  V30 3951 C 379.324 1.29038 1.94606 0
M  V30 3952 C 380.305 0.1673 1.69275 0
M  V30 3953 O 381.49 0.360112 1.90832 0
M  V30 3954 C 378.62 1.04793 3.31113 0
M  V30 3955 C 377.574 2.13597 3.70891 0
M  V30 3956 C 376.9 1.74537 5.05412 0
M  V30 3957 C 378.2 3.55451 3.8269 0
M  V30 3958 H 379.894 2.23248 1.99501 0
M  V30 3959 H 377.44 1.0747 0.958449 0
M  V30 3960 H 379.393 0.995592 4.0947 0
M  V30 3961 H 378.117 0.0702565 3.26524 0
M  V30 3962 H 376.776 2.17905 2.9481 0
M  V30 3963 H 376.424 0.754226 4.97313 0
M  V30 3964 H 376.124 2.47361 5.32997 0
M  V30 3965 H 377.648 1.70803 5.86224 0
M  V30 3966 H 379.062 3.5354 4.51312 0
M  V30 3967 H 377.459 4.26922 4.21732 0
M  V30 3968 H 378.529 3.92587 2.84611 0
M  V30 3969 N 379.872 -1.04064 1.18357 0
M  V30 3970 C 381.288 -1.2947 0.933258 0
M  V30 3971 C 381.488 -1.97466 -0.401169 0
M  V30 3972 O 380.544 -2.25528 -1.13549 0
M  V30 3973 C 381.857 -2.15337 2.09882 0
M  V30 3974 C 383.405 -2.28683 2.13712 0
M  V30 3975 C 383.88 -3.17917 3.29686 0
M  V30 3976 N 385.371 -3.25504 3.29547 0
M  V30 3977 C 386.106 -3.94706 4.15926 0
M  V30 3978 N 385.602 -4.66239 5.12439 0
M  V30 3979 N 387.395 -3.90986 4.0384 0
M  V30 3980 H 379.546 -0.583359 2.04232 0
M  V30 3981 H 381.809 -0.319921 0.892387 0
M  V30 3982 H 381.515 -1.72682 3.06389 0
M  V30 3983 H 381.389 -3.16015 2.05947 0
M  V30 3984 H 383.776 -2.70575 1.17784 0
M  V30 3985 H 383.857 -1.27596 2.21705 0
M  V30 3986 H 383.501 -2.76736 4.25887 0
M  V30 3987 H 383.431 -4.19036 3.1893 0
M  V30 3988 H 385.922 -2.74547 2.59677 0
M  V30 3989 H 386.235 -5.16638 5.74722 0
M  V30 3990 H 384.58 -4.65143 5.16398 0
M  V30 3991 H 387.771 -3.34234 3.27727 0
M  V30 3992 H 387.944 -4.44646 4.71375 0
M  V30 3993 N 381.35 -0.985608 -1.22978 0
M  V30 3994 C 382.283 -0.47487 -2.23204 0
M  V30 3995 C 383.261 0.460865 -1.55932 0
M  V30 3996 O 384.445 0.388105 -1.84461 0
M  V30 3997 C 381.572 0.312427 -3.37256 0
M  V30 3998 C 380.618 -0.568219 -4.22698 0
M  V30 3999 S 381.451 -2.01919 -4.95973 0
M  V30 4000 C 382.607 -1.24118 -6.1347 0
M  V30 4001 H 382.84 -1.32419 -2.66181 0
M  V30 4002 H 380.373 -0.792005 -1.32539 0
M  V30 4003 H 382.331 0.760645 -4.03391 0
M  V30 4004 H 380.992 1.13693 -2.92801 0
M  V30 4005 H 380.185 0.0371657 -5.03986 0
M  V30 4006 H 379.787 -0.952897 -3.61657 0
M  V30 4007 H 382.079 -0.505121 -6.75614 0
M  V30 4008 H 383.022 -2.02907 -6.78406 0
M  V30 4009 H 383.43 -0.757669 -5.59392 0
M  V30 4010 N 382.828 1.3818 -0.7579 0
M  V30 4011 C 383.758 2.33027 -0.148597 0
M  V30 4012 C 384.739 1.55085 0.69875 0
M  V30 4013 O 385.924 1.83384 0.639053 0
M  V30 4014 C 383.054 3.3928 0.742034 0
M  V30 4015 C 382.008 4.28 -0.00291946 0
M  V30 4016 C 381.334 5.25146 1.00625 0
M  V30 4017 C 382.634 5.08938 -1.17385 0
M  V30 4018 H 384.328 2.84231 -0.940909 0
M  V30 4019 H 381.874 1.36659 -0.453908 0
M  V30 4020 H 383.827 4.046 1.17799 0
M  V30 4021 H 382.551 2.86569 1.56671 0
M  V30 4022 H 381.21 3.64192 -0.419504 0
M  V30 4023 H 380.858 4.68721 1.8251 0
M  V30 4024 H 380.558 5.85361 0.512428 0
M  V30 4025 H 382.082 5.93342 1.44143 0
M  V30 4026 H 383.496 5.67474 -0.815224 0
M  V30 4027 H 381.893 5.7841 -1.59882 0
M  V30 4028 H 382.963 4.42424 -1.98468 0
M  V30 4029 N 384.306 0.507319 1.49211 0
M  V30 4030 C 385.583 -0.0982702 1.95353 0
M  V30 4031 C 385.963 -1.53516 1.449 0
M  V30 4032 O 385.311 -2.18594 0.66551 0
M  V30 4033 C 385.521 -0.00440283 3.49 0
M  V30 4034 C 386.869 -0.175147 4.24239 0
M  V30 4035 O 387.893 -0.0792891 3.56112 0
M  V30 4036 O 386.752 -0.37276 5.45227 0
M  V30 4037 H 383.846 -0.0918236 0.821887 0
M  V30 4038 H 386.392 0.570307 1.5983 0
M  V30 4039 H 385.164 0.997402 3.78375 0
M  V30 4040 H 384.787 -0.712845 3.91158 0
M  V30 4041 N 385.784 -1.5574 0.241426 0
M  V30 4042 C 386.694 -2.2479 -0.671305 0
M  V30 4043 C 387.71 -1.26217 -1.19772 0
M  V30 4044 O 388.886 -1.59079 -1.23514 0
M  V30 4045 C 385.951 -2.92966 -1.85396 0
M  V30 4046 C 385.012 -4.06935 -1.36756 0
M  V30 4047 C 384.245 -4.71851 -2.49384 0
M  V30 4048 O 384.468 -4.35823 -3.67987 0
M  V30 4049 O 383.402 -5.60467 -2.19454 0
M  V30 4050 H 387.228 -3.0349 -0.112966 0
M  V30 4051 H 384.813 -1.49397 0.0101513 0
M  V30 4052 H 386.695 -3.35927 -2.54423 0
M  V30 4053 H 385.37 -2.17211 -2.40002 0
M  V30 4054 H 384.277 -3.68503 -0.644726 0
M  V30 4055 H 385.61 -4.84492 -0.867647 0
M  V30 4056 N 387.262 0.0317525 -1.57568 0
M  V30 4057 C 388.21 1.05165 -2.07468 0
M  V30 4058 C 389.204 1.3761 -0.98792 0
M  V30 4059 O 390.41 1.36546 -1.17282 0
M  V30 4060 H 386.785 0.35666 -0.66204 0
M  V30 4061 H 388.756 0.604958 -2.92203 0
M  V30 4062 C 387.505 2.34488 -2.56731 0
M  V30 4063 H 386.828 2.10383 -3.39969 0
M  V30 4064 H 388.268 3.04203 -2.95358 0
M  V30 4065 C 386.727 3.03266 -1.46736 0
M  V30 4066 O 387.257 3.92988 -0.832069 0
M  V30 4067 N 385.463 2.6455 -1.20256 0
M  V30 4068 H 385.01 1.91674 -1.72102 0
M  V30 4069 H 384.968 3.10886 -0.468737 0
M  V30 4070 N 388.74 1.54641 0.303973 0
M  V30 4071 C 389.703 1.84646 1.35789 0
M  V30 4072 C 390.703 0.7192 1.4382 0
M  V30 4073 O 391.893 0.987491 1.43507 0
M  V30 4074 C 389.025 2.02407 2.74307 0
M  V30 4075 H 390.218 2.78829 1.10429 0
M  V30 4076 H 387.771 1.46658 0.540487 0
M  V30 4077 H 388.506 1.10502 3.04893 0
M  V30 4078 H 388.291 2.84453 2.69868 0
M  V30 4079 H 389.781 2.27002 3.50514 0
M  V30 4080 N 390.218 -0.567019 1.47046 0
M  V30 4081 C 391.148 -1.68482 1.61667 0
M  V30 4082 C 392.129 -1.6358 0.466418 0
M  V30 4083 O 393.314 -1.81354 0.694574 0
M  V30 4084 C 390.444 -3.07124 1.62148 0
M  V30 4085 C 389.398 -3.26867 2.76301 0
M  V30 4086 C 388.724 -4.66196 2.61849 0
M  V30 4087 C 390.024 -3.13186 4.17986 0
M  V30 4088 H 391.718 -1.56502 2.5524 0
M  V30 4089 H 389.264 -0.751486 1.22836 0
M  V30 4090 H 391.217 -3.8516 1.70968 0
M  V30 4091 H 389.941 -3.2004 0.651287 0
M  V30 4092 H 388.6 -2.51237 2.66975 0
M  V30 4093 H 388.248 -4.75898 1.62879 0
M  V30 4094 H 387.948 -4.80356 3.38425 0
M  V30 4095 H 389.472 -5.46379 2.72584 0
M  V30 4096 H 390.886 -3.81049 4.2834 0
M  V30 4097 H 389.283 -3.3886 4.95272 0
M  V30 4098 H 390.353 -2.10057 4.3704 0
M  V30 4099 N 391.696 -1.35014 -0.812953 0
M  V30 4100 C 393.107 -1.25035 -1.38648 0
M  V30 4101 C 393.458 0.119967 -1.95833 0
M  V30 4102 O 392.583 1.02069 -1.90816 0
M  V30 4103 C 393.178 -2.26394 -2.52054 0
M  V30 4104 C 391.737 -2.20175 -3.05287 0
M  V30 4105 C 390.884 -2.12451 -1.78213 0
M  V30 4106 H 393.835 -1.46235 -0.616516 0
M  V30 4107 H 393.856 -1.88672 -3.30429 0
M  V30 4108 H 393.368 -3.26116 -2.10404 0
M  V30 4109 H 391.469 -1.23841 -3.51417 0
M  V30 4110 H 391.582 -3.11863 -3.63701 0
M  V30 4111 H 389.946 -1.58328 -1.9951 0
M  V30 4112 H 390.729 -3.14024 -1.38723 0
M  V30 4113 N 393.175 1.03435 -1.18907 0
M  V30 4114 C 394.138 2.09756 -0.923844 0
M  V30 4115 C 395.138 1.60528 0.093416 0
M  V30 4116 O 396.328 1.73631 -0.140727 0
M  V30 4117 C 393.46 3.38692 -0.387354 0
M  V30 4118 H 394.653 2.34719 -1.86674 0
M  V30 4119 H 392.206 1.19959 -1.00197 0
M  V30 4120 H 392.941 3.19396 0.561845 0
M  V30 4121 H 392.726 3.75742 -1.12074 0
M  V30 4122 H 394.216 4.17016 -0.220694 0
M  V30 4123 N 394.653 0.992116 1.22453 0
M  V30 4124 C 395.563 0.55065 2.28046 0
M  V30 4125 C 396.579 -0.400189 1.69335 0
M  V30 4126 O 397.755 -0.267215 1.99619 0
M  V30 4127 C 394.82 -0.128496 3.46462 0
M  V30 4128 C 393.881 0.865208 4.20491 0
M  V30 4129 C 393.114 0.218377 5.33253 0
M  V30 4130 O 393.337 -0.987894 5.6178 0
M  V30 4131 O 392.271 0.922845 5.94783 0
M  V30 4132 H 396.097 1.4291 2.67975 0
M  V30 4133 H 393.682 0.760326 1.28606 0
M  V30 4134 H 395.564 -0.508947 4.18315 0
M  V30 4135 H 394.239 -0.981526 3.0846 0
M  V30 4136 H 393.146 1.29658 3.50913 0
M  V30 4137 H 394.479 1.68741 4.62371 0
M  V30 4138 N 396.131 -1.37776 0.765217 0
M  V30 4139 C 397.38 -1.99092 0.323307 0
M  V30 4140 C 397.693 -1.61434 -1.10446 0
M  V30 4141 O 398.899 -2.15805 -1.64743 0
M  V30 4142 C 397.355 -3.56019 0.527098 0
M  V30 4143 C 396.963 -4.0262 1.96471 0
M  V30 4144 C 398.707 -4.2424 0.148483 0
M  V30 4145 C 396.614 -5.52233 2.11644 0
M  V30 4146 H 395.544 -0.744846 0.117137 0
M  V30 4147 H 398.195 -1.57391 0.943417 0
M  V30 4148 H 396.577 -3.95667 -0.162372 0
M  V30 4149 H 397.751 -3.74234 2.68859 0
M  V30 4150 H 396.066 -3.47161 2.29931 0
M  V30 4151 H 398.663 -5.34159 0.240456 0
M  V30 4152 H 399.006 -4.06446 -0.900422 0
M  V30 4153 H 399.539 -3.89872 0.79025 0
M  V30 4154 H 396.278 -5.74945 3.1483 0
M  V30 4155 H 395.798 -5.82324 1.4373 0
M  V30 4156 H 397.477 -6.18106 1.91193 0
M  V30 4157 N 397.609 -0.515225 -1.4894 0
M  V30 4158 C 398.556 0.255567 -2.29381 0
M  V30 4159 C 399.526 0.947387 -1.36432 0
M  V30 4160 O 400.711 0.951288 -1.65394 0
M  V30 4161 C 397.851 1.30551 -3.19453 0
M  V30 4162 C 396.964 0.624029 -4.27469 0
M  V30 4163 C 396.099 1.65563 -5.0474 0
M  V30 4164 C 395.138 0.956802 -6.04576 0
M  V30 4165 N 394.275 1.93326 -6.74959 0
M  V30 4166 H 399.115 -0.436607 -2.94784 0
M  V30 4167 H 396.652 -0.227154 -1.45336 0
M  V30 4168 H 398.61 1.92639 -3.70062 0
M  V30 4169 H 397.24 1.96626 -2.56004 0
M  V30 4170 H 396.292 -0.110459 -3.8024 0
M  V30 4171 H 397.604 0.0746092 -4.98744 0
M  V30 4172 H 396.758 2.35119 -5.59289 0
M  V30 4173 H 395.497 2.23893 -4.3327 0
M  V30 4174 H 394.502 0.247097 -5.49244 0
M  V30 4175 H 395.727 0.379814 -6.78037 0
M  V30 4176 H 393.673 2.50591 -6.06251 0
M  V30 4177 H 393.59 1.43489 -7.42258 0
M  V30 4178 H 394.858 2.62126 -7.34105 0
M  V30 4179 N 399.087 1.5561 -0.249682 0
M  V30 4180 C 399.997 2.25143 0.659375 0
M  V30 4181 C 401.013 1.2685 1.19101 0
M  V30 4182 O 402.189 1.59732 1.22669 0
M  V30 4183 C 399.254 2.93945 1.8384 0
M  V30 4184 C 398.315 4.07655 1.34596 0
M  V30 4185 C 397.548 4.73167 2.46878 0
M  V30 4186 O 397.771 4.37768 3.65671 0
M  V30 4187 O 396.705 5.61623 2.16478 0
M  V30 4188 H 400.531 3.03545 0.0968698 0
M  V30 4189 H 398.116 1.49389 -0.018074 0
M  V30 4190 H 399.998 3.37271 2.52638 0
M  V30 4191 H 398.673 2.18481 2.38847 0
M  V30 4192 H 397.58 3.68839 0.625174 0
M  V30 4193 H 398.913 4.84946 0.841941 0
M  V30 4194 N 400.565 -0.0233959 1.57583 0
M  V30 4195 C 401.495 -1.02162 2.09965 0
M  V30 4196 C 402.476 -1.3735 1.00344 0
M  V30 4197 O 403.661 -1.46135 1.27899 0
M  V30 4198 C 400.791 -2.32081 2.58371 0
M  V30 4199 C 399.745 -2.1112 3.72307 0
M  V30 4200 C 399.071 -3.46848 4.06941 0
M  V30 4201 C 400.371 -1.49276 5.00514 0
M  V30 4202 H 402.065 -0.585557 2.93618 0
M  V30 4203 H 399.611 -0.280218 1.41247 0
M  V30 4204 H 401.564 -3.02249 2.93639 0
M  V30 4205 H 400.288 -2.77758 1.71808 0
M  V30 4206 H 398.947 -1.43384 3.37397 0
M  V30 4207 H 398.595 -3.90184 3.17436 0
M  V30 4208 H 398.295 -3.33646 4.83688 0
M  V30 4209 H 399.819 -4.18369 4.44747 0
M  V30 4210 H 401.233 -2.09368 5.33702 0
M  V30 4211 H 399.63 -1.46632 5.8191 0
M  V30 4212 H 400.7 -0.459217 4.82721 0
M  V30 4213 N 402.043 -1.548 -0.295768 0
M  V30 4214 C 403.292 -1.73538 -1.02798 0
M  V30 4215 C 403.605 -0.531159 -1.8825 0
M  V30 4216 O 404.811 -0.600458 -2.64777 0
M  V30 4217 C 403.267 -3.07051 -1.87744 0
M  V30 4218 C 402.875 -4.34968 -1.07269 0
M  V30 4219 C 404.619 -3.35146 -2.60533 0
M  V30 4220 C 402.526 -5.5953 -1.91521 0
M  V30 4221 H 401.456 -0.646794 -0.387522 0
M  V30 4222 H 404.107 -1.81278 -0.284718 0
M  V30 4223 H 402.489 -2.93289 -2.66078 0
M  V30 4224 H 403.663 -4.5958 -0.335117 0
M  V30 4225 H 401.978 -4.13847 -0.460384 0
M  V30 4226 H 404.575 -4.2541 -3.23929 0
M  V30 4227 H 404.918 -2.54255 -3.29636 0
M  V30 4228 H 405.451 -3.49902 -1.89244 0
M  V30 4229 H 402.19 -6.43103 -1.26878 0
M  V30 4230 H 401.71 -5.39096 -2.62937 0
M  V30 4231 H 403.389 -5.96982 -2.49442 0
M  V30 4232 N 403.521 0.559213 -1.47345 0
M  V30 4233 C 404.937 0.884943 -1.32819 0
M  V30 4234 C 405.137 1.98988 -0.317173 0
M  V30 4235 O 404.193 2.51031 0.272011 0
M  V30 4236 C 405.506 1.28007 -2.72093 0
M  V30 4237 C 407.054 1.39161 -2.80363 0
M  V30 4238 C 407.529 1.82031 -4.20272 0
M  V30 4239 N 409.02 1.89185 -4.22804 0
M  V30 4240 C 409.755 2.2368 -5.27973 0
M  V30 4241 N 409.251 2.56802 -6.43447 0
M  V30 4242 N 411.044 2.24436 -5.15349 0
M  V30 4243 H 403.195 -0.170304 -2.11716 0
M  V30 4244 H 405.458 -0.0135247 -0.947904 0
M  V30 4245 H 405.164 0.542027 -3.47498 0
M  V30 4246 H 405.038 2.23665 -3.03733 0
M  V30 4247 H 407.425 2.12048 -2.05231 0
M  V30 4248 H 407.506 0.41696 -2.52379 0
M  V30 4249 H 407.15 1.09715 -4.95908 0
M  V30 4250 H 407.08 2.80495 -4.45679 0
M  V30 4251 H 409.571 1.65982 -3.39497 0
M  V30 4252 H 409.884 2.82144 -7.19454 0
M  V30 4253 H 408.229 2.54387 -6.46771 0
M  V30 4254 H 411.42 1.97998 -4.24163 0
M  V30 4255 H 411.593 2.50989 -5.97418 0
M  V30 4256 N 404.999 1.35443 0.805782 0
M  V30 4257 C 405.962 1.28301 1.89925 0
M  V30 4258 C 406.962 0.194285 1.59622 0
M  V30 4259 O 408.152 0.448036 1.6834 0
M  V30 4260 C 405.284 0.984997 3.2636 0
M  V30 4261 H 406.477 2.2553 1.97677 0
M  V30 4262 H 404.03 1.19979 1.00173 0
M  V30 4263 H 404.765 0.016603 3.24296 0
M  V30 4264 H 404.55 1.77269 3.4974 0
M  V30 4265 H 406.04 0.960651 4.064 0
M  V30 4266 N 406.477 -1.02803 1.19454 0
M  V30 4267 C 407.725 -1.75869 0.995722 0
M  V30 4268 C 408.046 -1.89138 -0.474543 0
M  V30 4269 O 407.316 -1.42558 -1.34366 0
M  V30 4270 H 405.896 -0.651511 0.365435 0
M  V30 4271 H 408.558 -1.24004 1.50363 0
M  V30 4272 H 407.654 -2.76661 1.44447 0
M  V30 4273 N 407.956 -0.998596 -1.21925 0
M  V30 4274 C 408.904 -0.546641 -2.26085 0
M  V30 4275 C 409.898 0.405576 -1.64473 0
M  V30 4276 O 411.104 0.277471 -1.77849 0
M  V30 4277 H 407.479 -0.158403 -0.735127 0
M  V30 4278 H 409.45 -1.43645 -2.61551 0
M  V30 4279 C 408.199 0.117388 -3.47502 0
M  V30 4280 H 407.522 -0.606277 -3.95176 0
M  V30 4281 H 408.962 0.396993 -4.22137 0
M  V30 4282 C 407.421 1.35455 -3.0847 0
M  V30 4283 O 407.951 2.44944 -3.18379 0
M  V30 4284 N 406.157 1.23191 -2.63196 0
M  V30 4285 H 405.704 0.341006 -2.55333 0
M  V30 4286 H 405.662 2.06071 -2.37449 0
M  V30 4287 N 409.434 1.37368 -0.772513 0
M  V30 4288 C 410.68 2.00423 -0.3467 0
M  V30 4289 C 411.035 1.60224 1.06518 0
M  V30 4290 O 410.328 0.838712 1.72268 0
M  V30 4291 C 410.522 3.54817 -0.428876 0
M  V30 4292 C 410.351 4.10011 -1.84719 0
M  V30 4293 C 409.121 4.40927 -2.46803 0
M  V30 4294 C 411.319 4.30955 -2.80681 0
M  V30 4295 N 409.301 4.8184 -3.80399 0
M  V30 4296 C 410.672 4.74486 -3.99078 0
M  V30 4297 C 412.727 4.1309 -2.77958 0
M  V30 4298 C 411.43 5.02023 -5.15136 0
M  V30 4299 C 413.456 4.41764 -3.9319 0
M  V30 4300 C 412.818 4.85535 -5.10328 0
M  V30 4301 H 408.917 0.762413 -0.173927 0
M  V30 4302 H 411.501 1.66666 -1.00651 0
M  V30 4303 H 409.672 3.87881 0.200757 0
M  V30 4304 H 411.404 4.04696 0.0190668 0
M  V30 4305 H 408.159 4.30033 -1.98415 0
M  V30 4306 H 408.583 5.06604 -4.49089 0
M  V30 4307 H 413.225 3.7842 -1.88568 0
M  V30 4308 H 410.943 5.35582 -6.05126 0
M  V30 4309 H 414.529 4.29528 -3.92425 0
M  V30 4310 H 413.409 5.07296 -5.98013 0
M  V30 4311 N 410.912 0.523116 1.48665 0
M  V30 4312 C 411.875 -0.232592 2.28017 0
M  V30 4313 C 412.875 -0.874021 1.34972 0
M  V30 4314 O 414.065 -0.735132 1.57929 0
M  V30 4315 C 411.197 -1.33586 3.13636 0
M  V30 4316 H 412.39 0.464008 2.96289 0
M  V30 4317 H 409.943 0.278816 1.53793 0
M  V30 4318 H 410.678 -2.06593 2.4998 0
M  V30 4319 H 410.463 -0.881125 3.82071 0
M  V30 4320 H 411.953 -1.86759 3.73511 0
M  V30 4321 N 412.39 -1.55475 0.257931 0
M  V30 4322 C 413.322 -2.19192 -0.669881 0
M  V30 4323 C 414.335 -1.17148 -1.1305 0
M  V30 4324 O 415.524 -1.43959 -1.05537 0
M  V30 4325 C 412.624 -2.79016 -1.92363 0
M  V30 4326 C 411.797 -4.06586 -1.61265 0
M  V30 4327 C 410.856 -4.50622 -2.7171 0
M  V30 4328 O 409.882 -5.16765 -2.38627 0
M  V30 4329 N 411.084 -4.19325 -4.01431 0
M  V30 4330 H 413.849 -2.99441 -0.124635 0
M  V30 4331 H 411.41 -1.6171 0.0783311 0
M  V30 4332 H 413.402 -3.05427 -2.65511 0
M  V30 4333 H 411.972 -2.0286 -2.37837 0
M  V30 4334 H 411.192 -3.87646 -0.715811 0
M  V30 4335 H 412.48 -4.89737 -1.37967 0
M  V30 4336 H 411.878 -3.66247 -4.31138 0
M  V30 4337 H 410.435 -4.50547 -4.7101 0
M  V30 4338 N 413.868 0.0150385 -1.57593 0
M  V30 4339 C 415.116 0.701613 -1.8953 0
M  V30 4340 C 415.437 1.75139 -0.857396 0
M  V30 4341 O 414.707 1.95607 0.107194 0
M  V30 4342 H 413.287 0.26213 -0.699498 0
M  V30 4343 H 415.949 -0.0223304 -1.94887 0
M  V30 4344 H 415.045 1.18236 -2.88837 0
M  V30 4345 N 415.346 1.54954 0.287554 0
M  V30 4346 C 416.309 1.86076 1.33823 0
M  V30 4347 C 417.309 0.734414 1.43049 0
M  V30 4348 O 418.499 1.00266 1.42452 0
M  V30 4349 C 415.631 2.05305 2.72144 0
M  V30 4350 H 416.824 2.79984 1.07465 0
M  V30 4351 H 414.377 1.47223 0.524902 0
M  V30 4352 H 415.112 1.1373 3.03704 0
M  V30 4353 H 414.897 2.873 2.66836 0
M  V30 4354 H 416.387 2.30706 3.48087 0
M  V30 4355 N 416.824 -0.551391 1.4764 0
M  V30 4356 C 418.07 -1.31024 1.54792 0
M  V30 4357 C 418.403 -1.9304 0.211967 0
M  V30 4358 O 417.678 -1.78175 -0.77999 0
M  V30 4359 C 417.961 -2.41593 2.67029 0
M  V30 4360 C 417.814 -1.84408 4.10261 0
M  V30 4361 C 419.133 -3.43488 2.75143 0
M  V30 4362 H 416.252 -0.475031 0.563485 0
M  V30 4363 H 418.894 -0.616454 1.79722 0
M  V30 4364 H 417.044 -3.00772 2.45904 0
M  V30 4365 H 418.716 -1.29445 4.42766 0
M  V30 4366 H 416.959 -1.15051 4.18265 0
M  V30 4367 H 417.63 -2.64367 4.84576 0
M  V30 4368 H 420.106 -2.94236 2.94218 0
M  V30 4369 H 418.982 -4.18274 3.55441 0
M  V30 4370 H 419.243 -4.02703 1.82435 0
M  V30 4371 N 418.302 -1.35869 -0.798587 0
M  V30 4372 C 419.718 -1.16082 -1.09532 0
M  V30 4373 C 419.918 0.0213124 -2.01489 0
M  V30 4374 O 418.974 0.689488 -2.42904 0
M  V30 4375 C 420.287 -2.46748 -1.7186 0
M  V30 4376 C 421.835 -2.53028 -1.84244 0
M  V30 4377 C 422.31 -3.83758 -2.49988 0
M  V30 4378 N 423.801 -3.85053 -2.57465 0
M  V30 4379 C 424.536 -4.8294 -3.09122 0
M  V30 4380 N 424.032 -5.91217 -3.61157 0
M  V30 4381 N 425.825 -4.70369 -3.0775 0
M  V30 4382 H 417.976 -2.11571 -0.187461 0
M  V30 4383 H 420.239 -0.936726 -0.145765 0
M  V30 4384 H 419.945 -3.33471 -1.11759 0
M  V30 4385 H 419.819 -2.61883 -2.71472 0
M  V30 4386 H 422.206 -1.66729 -2.43486 0
M  V30 4387 H 422.287 -2.418 -0.834643 0
M  V30 4388 H 421.931 -4.70459 -1.91393 0
M  V30 4389 H 421.861 -3.92278 -3.5132 0
M  V30 4390 H 424.352 -3.06822 -2.20609 0
M  V30 4391 H 424.665 -6.61892 -3.98896 0
M  V30 4392 H 423.01 -5.94899 -3.59333 0
M  V30 4393 H 426.201 -3.84914 -2.66381 0
M  V30 4394 H 426.374 -5.46816 -3.47701 0
M  V30 4395 N 419.78 1.02168 -1.19998 0
M  V30 4396 C 421.196 1.27969 -0.953737 0
M  V30 4397 C 421.396 1.98079 0.369703 0
M  V30 4398 O 420.452 2.27306 1.09947 0
M  V30 4399 C 421.765 2.11971 -2.13281 0
M  V30 4400 C 423.313 2.25255 -2.17323 0
M  V30 4401 C 423.788 3.12632 -3.34702 0
M  V30 4402 N 425.279 3.2022 -3.34684 0
M  V30 4403 C 426.014 3.88039 -4.22153 0
M  V30 4404 N 425.51 4.58027 -5.19791 0
M  V30 4405 N 427.303 3.84511 -4.10009 0
M  V30 4406 H 419.454 0.550794 -2.05134 0
M  V30 4407 H 421.717 0.305683 -0.897364 0
M  V30 4408 H 421.423 1.67785 -3.09097 0
M  V30 4409 H 421.297 3.12699 -2.10949 0
M  V30 4410 H 423.684 2.68667 -1.22073 0
M  V30 4411 H 423.765 1.24053 -2.23706 0
M  V30 4412 H 423.409 2.69926 -4.30235 0
M  V30 4413 H 423.339 4.13909 -3.25556 0
M  V30 4414 H 425.83 2.70382 -2.64012 0
M  V30 4415 H 426.143 5.07429 -5.82868 0
M  V30 4416 H 424.488 4.56869 -5.23733 0
M  V30 4417 H 427.679 3.28978 -3.33003 0
M  V30 4418 H 427.852 4.3709 -4.78389 0
M  V30 4419 N 421.258 1.00505 1.21394 0
M  V30 4420 C 422.504 0.688793 1.90745 0
M  V30 4421 C 422.837 -0.778486 1.77914 0
M  V30 4422 O 422.112 -1.56433 1.15581 0
M  V30 4423 C 422.395 1.11063 3.42545 0
M  V30 4424 C 422.248 2.63737 3.64367 0
M  V30 4425 C 423.567 0.673059 4.34923 0
M  V30 4426 H 420.686 0.251702 0.692687 0
M  V30 4427 H 423.328 1.25074 1.43026 0
M  V30 4428 H 421.478 0.632508 3.83317 0
M  V30 4429 H 423.15 3.19313 3.32922 0
M  V30 4430 H 421.393 3.05248 3.08231 0
M  V30 4431 H 422.064 2.88305 4.70727 0
M  V30 4432 H 424.54 1.08392 4.01734 0
M  V30 4433 H 423.416 0.996383 5.39781 0
M  V30 4434 H 423.677 -0.425808 4.40045 0
M  V30 4435 N 422.737 -1.36956 0.779787 0
M  V30 4436 C 423.986 -1.98738 0.344405 0
M  V30 4437 C 424.299 -1.62596 -1.08728 0
M  V30 4438 O 425.505 -2.1754 -1.62445 0
M  V30 4439 C 423.961 -3.5544 0.564829 0
M  V30 4440 C 423.569 -4.00514 2.0073 0
M  V30 4441 C 425.313 -4.24059 0.193471 0
M  V30 4442 C 423.22 -5.49957 2.17489 0
M  V30 4443 H 422.15 -0.743561 0.12503 0
M  V30 4444 H 424.801 -1.56381 0.960057 0
M  V30 4445 H 423.183 -3.95817 -0.120397 0
M  V30 4446 H 424.357 -3.71362 2.72814 0
M  V30 4447 H 422.672 -3.44703 2.336 0
M  V30 4448 H 425.269 -5.33874 0.297097 0
M  V30 4449 H 425.612 -4.07378 -0.857263 0
M  V30 4450 H 426.145 -3.89012 0.831556 0
M  V30 4451 H 422.884 -5.71574 3.2091 0
M  V30 4452 H 422.404 -5.80767 1.49899 0
M  V30 4453 H 424.083 -6.16043 1.97738 0
M  V30 4454 N 424.215 -0.530993 -1.48385 0
M  V30 4455 C 425.492 0.0671788 -1.95485 0
M  V30 4456 C 425.872 1.51191 -1.47324 0
M  V30 4457 O 425.22 2.17507 -0.700202 0
M  V30 4458 C 425.43 -0.0511206 -3.48963 0
M  V30 4459 C 426.778 0.107632 -4.24464 0
M  V30 4460 O 427.802 0.0226248 -3.56193 0
M  V30 4461 O 426.661 0.285972 -5.45751 0
M  V30 4462 H 423.755 0.0787365 -0.823243 0
M  V30 4463 H 426.301 -0.595662 -1.58902 0
M  V30 4464 H 425.073 -1.05747 -3.7674 0
M  V30 4465 H 424.696 0.650525 -3.92242 0
M  V30 4466 N 425.693 1.55336 -0.266172 0
M  V30 4467 C 426.64 2.22172 0.625165 0
M  V30 4468 C 427.61 1.19211 1.15663 0
M  V30 4469 O 428.795 1.47723 1.20758 0
M  V30 4470 C 425.935 2.93972 1.8076 0
M  V30 4471 C 425.048 4.11632 1.31084 0
M  V30 4472 C 424.183 4.71099 2.45436 0
M  V30 4473 C 423.222 5.8097 1.92718 0
M  V30 4474 N 422.359 6.34538 3.00509 0
M  V30 4475 H 427.199 2.9796 0.0485582 0
M  V30 4476 H 424.736 1.47095 0.0122024 0
M  V30 4477 H 426.694 3.33811 2.50251 0
M  V30 4478 H 425.324 2.20623 2.35638 0
M  V30 4479 H 424.376 3.76975 0.509326 0
M  V30 4480 H 425.688 4.90893 0.884633 0
M  V30 4481 H 424.842 5.13612 3.22936 0
M  V30 4482 H 423.581 3.91096 2.91368 0
M  V30 4483 H 422.586 5.37916 1.13695 0
M  V30 4484 H 423.811 6.62836 1.47733 0
M  V30 4485 H 421.757 5.57433 3.45839 0
M  V30 4486 H 421.674 7.09046 2.62279 0
M  V30 4487 H 422.942 6.81709 3.78011 0
M  V30 4488 N 427.171 -0.0066808 1.57599 0
M  V30 4489 C 428.121 -1.0086 2.04478 0
M  V30 4490 C 429.105 -1.30714 0.938231 0
M  V30 4491 O 430.297 -1.29924 1.20203 0
M  V30 4492 C 427.426 -2.30273 2.54615 0
M  V30 4493 C 426.512 -2.03413 3.72134 0
M  V30 4494 N 426.903 -1.46688 4.84062 0
M  V30 4495 C 425.201 -2.33589 3.79937 0
M  V30 4496 C 425.902 -1.36146 5.65543 0
M  V30 4497 N 424.878 -1.84477 5.1134 0
M  V30 4498 H 428.68 -0.564402 2.8843 0
M  V30 4499 H 426.194 -0.212521 1.61003 0
M  V30 4500 H 428.191 -3.02885 2.86472 0
M  V30 4501 H 426.851 -2.75352 1.72079 0
M  V30 4502 H 427.862 -1.14658 5.05049 0
M  V30 4503 H 424.539 -2.81589 3.08243 0
M  V30 4504 H 425.929 -0.925873 6.6549 0
M  V30 4505 N 428.649 -1.55105 -0.279332 0
M  V30 4506 C 429.898 -1.74618 -1.00952 0
M  V30 4507 C 430.211 -0.551096 -1.87676 0
M  V30 4508 O 431.417 -0.628507 -2.64125 0
M  V30 4509 C 429.873 -3.09025 -1.84476 0
M  V30 4510 C 429.481 -4.36081 -1.0265 0
M  V30 4511 C 431.225 -3.37891 -2.56963 0
M  V30 4512 C 429.132 -5.6153 -1.85576 0
M  V30 4513 H 428.062 -0.650868 -0.38064 0
M  V30 4514 H 430.713 -1.81569 -0.265475 0
M  V30 4515 H 429.095 -2.96095 -2.62952 0
M  V30 4516 H 430.269 -4.59909 -0.286354 0
M  V30 4517 H 428.584 -4.14312 -0.416464 0
M  V30 4518 H 431.181 -4.28822 -3.19399 0
M  V30 4519 H 431.524 -2.57737 -3.26921 0
M  V30 4520 H 432.057 -3.5189 -1.85522 0
M  V30 4521 H 428.796 -6.44413 -1.2005 0
M  V30 4522 H 428.316 -5.41854 -2.57204 0
M  V30 4523 H 429.995 -5.99594 -2.43096 0
M  V30 4524 N 430.127 0.543554 -1.4793 0
M  V30 4525 C 431.355 1.32516 -1.58894 0
M  V30 4526 C 431.77 1.87215 -0.244131 0
M  V30 4527 O 431.127 1.65709 0.764652 0
M  V30 4528 C 431.178 2.48554 -2.62494 0
M  V30 4529 O 430.899 1.96112 -3.91755 0
M  V30 4530 C 432.4 3.40572 -2.8377 0
M  V30 4531 H 429.62 0.403472 -0.536145 0
M  V30 4532 H 432.164 0.657106 -1.93655 0
M  V30 4533 H 430.319 3.1127 -2.30629 0
M  V30 4534 H 430.733 2.71967 -4.4848 0
M  V30 4535 H 432.207 4.18375 -3.60093 0
M  V30 4536 H 432.684 3.94965 -1.92092 0
M  V30 4537 H 433.29 2.8366 -3.16887 0
M  V30 4538 N 431.605 1.3629 0.791371 0
M  V30 4539 C 432.535 1.33137 1.91825 0
M  V30 4540 C 433.516 0.203168 1.68882 0
M  V30 4541 O 434.701 0.400509 1.90025 0
M  V30 4542 C 431.831 1.11793 3.28816 0
M  V30 4543 C 430.785 2.21417 3.66277 0
M  V30 4544 C 430.111 1.85218 5.01596 0
M  V30 4545 C 431.411 3.63489 3.75064 0
M  V30 4546 H 433.105 2.2743 1.9472 0
M  V30 4547 H 430.651 1.09479 0.935437 0
M  V30 4548 H 432.604 1.08222 4.07266 0
M  V30 4549 H 431.328 0.139501 3.26302 0
M  V30 4550 H 429.987 2.2411 2.90121 0
M  V30 4551 H 429.635 0.859544 4.95602 0
M  V30 4552 H 429.335 2.58611 5.27631 0
M  V30 4553 H 430.859 1.832 5.82469 0
M  V30 4554 H 432.273 3.63034 4.43711 0
M  V30 4555 H 430.67 4.35771 4.12582 0
M  V30 4556 H 431.74 3.98536 2.76219 0
M  V30 4557 N 433.083 -1.0153 1.20538 0
M  V30 4558 C 434.33 -1.75149 1.01633 0
M  V30 4559 C 434.658 -1.89189 -0.451399 0
M  V30 4560 O 433.913 -1.41551 -1.35136 0
M  V30 4561 C 434.212 -3.17213 1.64654 0
M  V30 4562 C 433.878 -3.23146 3.14464 0
M  V30 4563 C 432.54 -3.24472 3.55347 0
M  V30 4564 C 434.892 -3.21207 4.10458 0
M  V30 4565 C 432.22 -3.21532 4.90748 0
M  V30 4566 C 434.572 -3.19808 5.45807 0
M  V30 4567 C 433.236 -3.19439 5.86102 0
M  V30 4568 H 432.506 -0.640914 0.3719 0
M  V30 4569 H 435.153 -1.19071 1.49981 0
M  V30 4570 H 433.458 -3.76457 1.08571 0
M  V30 4571 H 435.155 -3.72871 1.4754 0
M  V30 4572 H 431.745 -3.2285 2.81897 0
M  V30 4573 H 435.929 -3.19351 3.79906 0
M  V30 4574 H 431.185 -3.19578 5.21229 0
M  V30 4575 H 435.359 -3.1726 6.19935 0
M  V30 4576 H 432.986 -3.16915 6.90991 0
M  V30 4577 N 434.561 -1.01147 -1.20859 0
M  V30 4578 C 435.524 -0.582224 -2.21682 0
M  V30 4579 C 436.524 0.344887 -1.57058 0
M  V30 4580 O 437.714 0.134281 -1.73682 0
M  V30 4581 C 434.846 0.150496 -3.40568 0
M  V30 4582 H 436.039 -1.47408 -2.61172 0
M  V30 4583 H 433.592 -0.800695 -1.34233 0
M  V30 4584 H 434.327 1.0575 -3.06574 0
M  V30 4585 H 434.112 -0.515444 -3.88697 0
M  V30 4586 H 435.602 0.438344 -4.15293 0
M  V30 4587 N 436.039 1.36541 -0.78704 0
M  V30 4588 C 436.971 2.28761 -0.141773 0
M  V30 4589 C 437.984 1.49365 0.647599 0
M  V30 4590 O 439.173 1.71836 0.483173 0
M  V30 4591 C 436.273 3.28771 0.822368 0
M  V30 4592 C 435.446 4.3732 0.0835594 0
M  V30 4593 C 434.505 5.17307 0.963296 0
M  V30 4594 O 433.531 5.67638 0.421419 0
M  V30 4595 N 434.733 5.33515 2.28784 0
M  V30 4596 H 437.498 2.84777 -0.933919 0
M  V30 4597 H 435.059 1.48682 -0.640735 0
M  V30 4598 H 437.051 3.79169 1.41468 0
M  V30 4599 H 435.621 2.73412 1.5154 0
M  V30 4600 H 434.841 3.88118 -0.689809 0
M  V30 4601 H 436.129 5.0701 -0.426358 0
M  V30 4602 H 435.527 4.94234 2.75226 0
M  V30 4603 H 434.084 5.87165 2.82985 0
M  V30 4604 N 437.518 0.538854 1.48102 0
M  V30 4605 C 438.451 -0.266495 2.26639 0
M  V30 4606 C 439.429 -0.93687 1.32897 0
M  V30 4607 O 440.613 -0.959507 1.62252 0
M  V30 4608 C 437.74 -1.37814 3.09394 0
M  V30 4609 C 436.786 -0.818247 4.18577 0
M  V30 4610 S 437.619 0.320848 5.34538 0
M  V30 4611 C 438.775 -0.793059 6.20855 0
M  V30 4612 H 439.008 0.399994 2.94597 0
M  V30 4613 H 436.541 0.324808 1.50945 0
M  V30 4614 H 438.499 -2.01488 3.57649 0
M  V30 4615 H 437.16 -2.01639 2.40833 0
M  V30 4616 H 436.353 -1.65247 4.7614 0
M  V30 4617 H 435.955 -0.258036 3.73109 0
M  V30 4618 H 438.247 -1.68961 6.56093 0
M  V30 4619 H 439.19 -0.255204 7.0764 0
M  V30 4620 H 439.598 -1.07746 5.54122 0
M  V30 4621 N 438.996 -1.55193 0.274407 0
M  V30 4622 C 439.906 -2.26164 -0.623473 0
M  V30 4623 C 440.922 -1.28729 -1.17068 0
M  V30 4624 O 442.098 -1.61663 -1.20112 0
M  V30 4625 C 439.163 -2.96833 -1.7914 0
M  V30 4626 C 438.224 -4.09745 -1.28093 0
M  V30 4627 C 437.457 -4.77034 -2.3932 0
M  V30 4628 O 437.68 -4.4353 -3.5866 0
M  V30 4629 O 436.614 -5.64996 -2.07516 0
M  V30 4630 H 440.44 -3.03661 -0.0485661 0
M  V30 4631 H 438.025 -1.49341 0.0418382 0
M  V30 4632 H 439.907 -3.41248 -2.4724 0
M  V30 4633 H 438.582 -2.22253 -2.35341 0
M  V30 4634 H 437.489 -3.69787 -0.566416 0
M  V30 4635 H 438.822 -4.86224 -0.764683 0
M  V30 4636 N 440.474 -0.00167713 -1.576 0
M  V30 4637 C 441.751 0.719951 -1.81868 0
M  V30 4638 C 442.131 1.91895 -0.879747 0
M  V30 4639 O 441.479 2.28389 0.0711423 0
M  V30 4640 C 441.689 1.12409 -3.30402 0
M  V30 4641 C 443.037 1.52724 -3.96182 0
M  V30 4642 O 444.061 1.21784 -3.34734 0
M  V30 4643 O 442.92 2.10265 -5.04431 0
M  V30 4644 H 440.014 0.350707 -0.748955 0
M  V30 4645 H 442.56 -0.0272597 -1.69678 0
M  V30 4646 H 441.332 0.269532 -3.90371 0
M  V30 4647 H 440.955 1.93035 -3.47596 0
M  V30 4648 N 441.952 1.55251 0.271103 0
M  V30 4649 C 443.229 1.66664 1.02384 0
M  V30 4650 C 443.609 0.534363 2.04225 0
M  V30 4651 O 442.957 -0.465337 2.23712 0
M  V30 4652 C 443.167 3.05961 1.67895 0
M  V30 4653 C 444.515 3.63772 2.18986 0
M  V30 4654 O 445.539 3.08606 1.77878 0
M  V30 4655 O 444.398 4.60429 2.94393 0
M  V30 4656 H 441.492 0.676957 0.475035 0
M  V30 4657 H 444.038 1.67589 0.26681 0
M  V30 4658 H 442.81 3.79815 0.941071 0
M  V30 4659 H 442.433 3.08943 2.5028 0
M  V30 4660 N 443.43 -0.535701 1.48216 0
M  V30 4661 C 444.66 -1.3148 1.59363 0
M  V30 4662 C 445.068 -1.8753 0.250844 0
M  V30 4663 O 444.411 -1.66821 -0.769174 0
M  V30 4664 C 444.473 -2.50731 2.57632 0
M  V30 4665 C 444.137 -2.15811 4.02833 0
M  V30 4666 C 445.134 -1.71822 4.90686 0
M  V30 4667 C 442.819 -2.26509 4.48329 0
M  V30 4668 C 444.813 -1.3899 6.22062 0
M  V30 4669 C 442.5 -1.93289 5.79726 0
M  V30 4670 C 443.498 -1.49599 6.66415 0
M  V30 4671 O 443.186 -1.16812 7.95368 0
M  V30 4672 H 442.918 -0.406315 0.540263 0
M  V30 4673 H 445.472 -0.653569 1.94725 0
M  V30 4674 H 443.702 -3.19817 2.1738 0
M  V30 4675 H 445.391 -3.12797 2.58675 0
M  V30 4676 H 446.157 -1.63031 4.56778 0
M  V30 4677 H 442.036 -2.59471 3.81045 0
M  V30 4678 H 445.58 -1.04816 6.89681 0
M  V30 4679 H 441.477 -2.01718 6.13172 0
M  V30 4680 H 442.245 -1.30259 8.08069 0
M  V30 4681 N 444.908 -1.36708 -0.784132 0
M  V30 4682 C 445.838 -1.34153 -1.91116 0
M  V30 4683 C 446.819 -0.212121 -1.68772 0
M  V30 4684 O 448.004 -0.410581 -1.8981 0
M  V30 4685 C 445.134 -1.13535 -3.28218 0
M  V30 4686 C 444.088 -2.23356 -3.65097 0
M  V30 4687 C 443.414 -1.87875 -5.00607 0
M  V30 4688 C 444.714 -3.65473 -3.73131 0
M  V30 4689 H 446.408 -2.28459 -1.93512 0
M  V30 4690 H 443.954 -1.09973 -0.929618 0
M  V30 4691 H 445.907 -1.10381 -4.06687 0
M  V30 4692 H 444.631 -0.156804 -3.26223 0
M  V30 4693 H 443.29 -2.25645 -2.88929 0
M  V30 4694 H 442.938 -0.885814 -4.95139 0
M  V30 4695 H 442.638 -2.61406 -5.26252 0
M  V30 4696 H 444.162 -1.86286 -5.81489 0
M  V30 4697 H 445.576 -3.65382 -4.41779 0
M  V30 4698 H 443.973 -4.37953 -4.10265 0
M  V30 4699 H 445.043 -3.99995 -2.74102 0
M  V30 4700 N 446.386 1.0089 -1.21074 0
M  V30 4701 C 447.802 1.2695 -0.967257 0
M  V30 4702 C 448.002 1.9846 0.348673 0
M  V30 4703 O 447.058 2.28459 1.0753 0
M  V30 4704 C 448.371 2.09697 -2.15517 0
M  V30 4705 C 449.919 2.22937 -2.197 0
M  V30 4706 C 450.394 3.09064 -3.37999 0
M  V30 4707 N 451.885 3.16653 -3.38061 0
M  V30 4708 C 452.62 3.8354 -4.26245 0
M  V30 4709 N 452.116 4.52488 -5.2462 0
M  V30 4710 N 453.909 3.80141 -4.14064 0
M  V30 4711 H 446.06 0.529005 -2.05707 0
M  V30 4712 H 448.323 0.296148 -0.900556 0
M  V30 4713 H 448.029 1.64497 -3.10859 0
M  V30 4714 H 447.903 3.10444 -2.14253 0
M  V30 4715 H 450.29 2.67357 -1.24916 0
M  V30 4716 H 450.371 1.21673 -2.2501 0
M  V30 4717 H 450.015 2.65347 -4.33074 0
M  V30 4718 H 449.945 4.10433 -3.29928 0
M  V30 4719 H 452.436 2.67566 -2.66865 0
M  V30 4720 H 452.749 5.01219 -5.88217 0
M  V30 4721 H 451.094 4.51288 -5.28549 0
M  V30 4722 H 454.285 3.25427 -3.36474 0
M  V30 4723 H 454.458 4.31992 -4.82998 0
M  V30 4724 N 447.864 1.01787 1.20321 0
M  V30 4725 C 448.774 0.598898 2.26827 0
M  V30 4726 C 449.79 -0.36418 1.70146 0
M  V30 4727 O 450.966 -0.224812 2.00141 0
M  V30 4728 C 448.031 -0.0549769 3.46656 0
M  V30 4729 C 447.092 0.954205 4.18561 0
M  V30 4730 C 446.325 0.331439 5.3267 0
M  V30 4731 O 446.548 -0.86851 5.63749 0
M  V30 4732 O 445.482 1.0488 5.92692 0
M  V30 4733 H 449.308 1.48562 2.64883 0
M  V30 4734 H 446.893 0.787434 1.26964 0
M  V30 4735 H 448.775 -0.420102 4.19301 0
M  V30 4736 H 447.45 -0.915876 3.10473 0
M  V30 4737 H 446.357 1.37072 3.48083 0
M  V30 4738 H 447.69 1.78511 4.58688 0
M  V30 4739 N 449.342 -1.36122 0.79427 0
M  V30 4740 C 450.758 -1.5232 0.476525 0
M  V30 4741 C 450.958 -1.74685 -1.00436 0
M  V30 4742 O 450.014 -1.78115 -1.78973 0
M  V30 4743 C 451.327 -2.70607 1.31119 0
M  V30 4744 C 452.875 -2.8448 1.30537 0
M  V30 4745 C 453.35 -4.05778 2.12387 0
M  V30 4746 N 454.841 -4.12933 2.09859 0
M  V30 4747 C 455.576 -5.05876 2.69957 0
M  V30 4748 N 455.072 -6.04232 3.38934 0
M  V30 4749 N 456.865 -4.98528 2.59665 0
M  V30 4750 H 449.016 -1.1986 1.75349 0
M  V30 4751 H 451.279 -0.585418 0.745647 0
M  V30 4752 H 450.985 -2.60619 2.36158 0
M  V30 4753 H 450.859 -3.64888 0.955843 0
M  V30 4754 H 453.246 -2.93927 0.262876 0
M  V30 4755 H 453.327 -1.91093 1.70051 0
M  V30 4756 H 452.971 -3.97092 3.1667 0
M  V30 4757 H 452.901 -4.98323 1.70242 0
M  V30 4758 H 455.392 -3.42515 1.59662 0
M  V30 4759 H 455.705 -6.71724 3.82109 0
M  V30 4760 H 454.05 -6.04443 3.43036 0
M  V30 4761 H 457.241 -4.20641 2.05375 0
M  V30 4762 H 457.414 -5.70773 3.06793 0
M  V30 4763 N 450.82 -0.546701 -1.47814 0
M  V30 4764 C 452.066 -0.0187684 -2.02791 0
M  V30 4765 C 452.399 1.32338 -1.42128 0
M  V30 4766 O 451.674 1.85867 -0.573023 0
M  V30 4767 C 451.957 0.0854985 -3.59998 0
M  V30 4768 C 451.81 -1.283 -4.31114 0
M  V30 4769 C 453.129 0.80412 -4.32691 0
M  V30 4770 H 450.248 -0.0082946 -0.736953 0
M  V30 4771 H 452.89 -0.706962 -1.76358 0
M  V30 4772 H 451.04 0.671609 -3.82651 0
M  V30 4773 H 452.712 -1.91151 -4.19832 0
M  V30 4774 H 450.955 -1.86049 -3.91878 0
M  V30 4775 H 451.626 -1.16287 -5.39612 0
M  V30 4776 H 454.102 0.306576 -4.14969 0
M  V30 4777 H 452.978 0.846011 -5.42341 0
M  V30 4778 H 453.239 1.85802 -4.01161 0
M  V30 4779 N 452.299 1.55045 -0.282633 0
M  V30 4780 C 453.524 2.04628 0.337977 0
M  V30 4781 C 453.949 1.15937 1.48123 0
M  V30 4782 O 453.307 0.159532 1.80597 0
M  V30 4783 C 453.355 3.51854 0.78936 0
M  V30 4784 O 452.459 3.66236 1.89592 0
M  V30 4785 H 451.8 0.660434 0.0687261 0
M  V30 4786 H 454.33 2.00261 -0.419124 0
M  V30 4787 H 454.34 3.93361 1.08311 0
M  V30 4788 H 453.015 4.15873 -0.0470419 0
M  V30 4789 H 451.592 3.36633 1.60413 0
M  V30 4790 N 453.777 0.010035 1.57597 0
M  V30 4791 C 455.054 -0.710296 1.82248 0
M  V30 4792 C 455.434 -1.91426 0.889911 0
M  V30 4793 O 454.782 -2.28424 -0.0590292 0
M  V30 4794 C 454.992 -1.10655 3.30993 0
M  V30 4795 C 456.34 -1.50621 3.96987 0
M  V30 4796 O 457.364 -1.20007 3.35375 0
M  V30 4797 O 456.223 -2.07587 5.05539 0
M  V30 4798 H 453.317 -0.34673 0.750804 0
M  V30 4799 H 455.863 0.0362578 1.69661 0
M  V30 4800 H 454.635 -0.248826 3.90508 0
M  V30 4801 H 454.258 -1.91189 3.48615 0
M  V30 4802 N 455.255 -1.55392 -0.262866 0
M  V30 4803 C 456.185 -1.91978 -1.32917 0
M  V30 4804 C 457.166 -0.7828 -1.51017 0
M  V30 4805 O 458.351 -1.04178 -1.63892 0
M  V30 4806 C 455.481 -2.20055 -2.68687 0
M  V30 4807 C 454.435 -3.35854 -2.65304 0
M  V30 4808 C 453.761 -3.49435 -4.04721 0
M  V30 4809 C 455.061 -4.71977 -2.23685 0
M  V30 4810 H 456.755 -2.81292 -1.02544 0
M  V30 4811 H 454.301 -1.3534 -0.491846 0
M  V30 4812 H 456.254 -2.44237 -3.43404 0
M  V30 4813 H 454.978 -1.27551 -3.00663 0
M  V30 4814 H 453.637 -3.11655 -1.93045 0
M  V30 4815 H 453.285 -2.54379 -4.33936 0
M  V30 4816 H 452.985 -4.27297 -4.0335 0
M  V30 4817 H 454.509 -3.7592 -4.81161 0
M  V30 4818 H 455.923 -4.95637 -2.88127 0
M  V30 4819 H 454.32 -5.52828 -2.33456 0
M  V30 4820 H 455.39 -4.70115 -1.18827 0
M  V30 4821 N 456.733 0.527833 -1.48498 0
M  V30 4822 C 457.68 1.6322 -1.6318 0
M  V30 4823 C 458.65 1.59199 -0.473815 0
M  V30 4824 O 459.835 1.77591 -0.697563 0
M  V30 4825 C 456.975 3.01474 -1.67951 0
M  V30 4826 C 456.088 3.15713 -2.94871 0
M  V30 4827 C 455.223 4.44539 -2.90789 0
M  V30 4828 C 454.262 4.52315 -4.12404 0
M  V30 4829 N 453.399 5.72533 -4.06387 0
M  V30 4830 H 458.239 1.50011 -2.57489 0
M  V30 4831 H 455.776 0.730298 -1.27691 0
M  V30 4832 H 457.734 3.81572 -1.68698 0
M  V30 4833 H 456.364 3.1345 -0.771306 0
M  V30 4834 H 455.416 2.28854 -3.03859 0
M  V30 4835 H 456.728 3.1732 -3.8485 0
M  V30 4836 H 455.882 5.3293 -2.89949 0
M  V30 4837 H 454.621 4.45457 -1.98542 0
M  V30 4838 H 453.626 3.62331 -4.13517 0
M  V30 4839 H 454.851 4.53134 -5.05812 0
M  V30 4840 H 452.797 5.74344 -3.16962 0
M  V30 4841 H 452.714 5.75643 -4.90073 0
M  V30 4842 H 453.982 6.63204 -4.0961 0
M  V30 4843 N 458.211 1.37122 0.776871 0
M  V30 4844 C 459.488 1.22586 1.52421 0
M  V30 4845 C 459.868 -0.182726 2.10308 0
M  V30 4846 O 459.216 -1.18979 1.9508 0
M  V30 4847 C 459.426 2.31782 2.60918 0
M  V30 4848 C 460.774 2.69071 3.2846 0
M  V30 4849 O 461.798 2.3092 2.71209 0
M  V30 4850 O 460.657 3.3478 4.31954 0
M  V30 4851 H 457.751 0.478045 0.674835 0
M  V30 4852 H 460.297 1.48888 0.814275 0
M  V30 4853 H 459.069 3.26131 2.16227 0
M  V30 4854 H 458.692 2.06916 3.39517 0
M  V30 4855 N 459.689 -1.00246 1.21608 0
M  V30 4856 C 460.619 -2.10921 1.00172 0
M  V30 4857 C 461.6 -1.69938 -0.0741587 0
M  V30 4858 O 462.785 -1.94009 0.0861753 0
M  V30 4859 C 459.915 -3.42618 0.568355 0
M  V30 4860 C 458.869 -3.97407 1.58909 0
M  V30 4861 C 458.195 -5.25038 1.01187 0
M  V30 4862 C 459.495 -4.2918 2.97661 0
M  V30 4863 H 461.189 -2.29112 1.92739 0
M  V30 4864 H 458.735 -1.10101 0.928102 0
M  V30 4865 H 460.688 -4.19444 0.405555 0
M  V30 4866 H 459.412 -3.24227 -0.392961 0
M  V30 4867 H 458.071 -3.22703 1.73949 0
M  V30 4868 H 457.719 -5.02982 0.0421965 0
M  V30 4869 H 457.419 -5.62661 1.6937 0
M  V30 4870 H 458.943 -6.04507 0.860448 0
M  V30 4871 H 460.357 -4.96839 2.86049 0
M  V30 4872 H 458.754 -4.77952 3.6288 0
M  V30 4873 H 459.824 -3.3735 3.48315 0
M  V30 4874 N 461.167 -1.02423 -1.1978 0
M  V30 4875 C 462.415 -0.716569 -1.8897 0
M  V30 4876 C 462.736 0.756769 -1.79716 0
M  V30 4877 O 462.006 1.5449 -1.20456 0
M  V30 4878 H 460.586 -0.262062 -0.699523 0
M  V30 4879 H 463.248 -1.29747 -1.45436 0
M  V30 4880 H 462.344 -1.00675 -2.95417 0
M  V30 4881 N 462.645 1.35699 -0.801477 0
M  V30 4882 C 464.061 1.52065 -0.484596 0
M  V30 4883 C 464.261 1.75215 0.995084 0
M  V30 4884 O 463.317 1.79061 1.78026 0
M  V30 4885 C 464.63 2.69908 -1.32552 0
M  V30 4886 C 466.178 2.83784 -1.32044 0
M  V30 4887 C 466.653 4.04646 -2.14536 0
M  V30 4888 N 468.144 4.11814 -2.12046 0
M  V30 4889 C 468.879 5.04437 -2.72636 0
M  V30 4890 N 468.375 6.02426 -3.42133 0
M  V30 4891 N 470.168 4.97144 -2.62305 0
M  V30 4892 H 462.319 1.18928 -1.75983 0
M  V30 4893 H 464.582 0.581455 -0.748741 0
M  V30 4894 H 464.288 2.59363 -2.37537 0
M  V30 4895 H 464.162 3.64376 -0.975181 0
M  V30 4896 H 466.549 2.93783 -0.27846 0
M  V30 4897 H 466.63 1.90188 -1.71062 0
M  V30 4898 H 466.274 3.95407 -3.18772 0
M  V30 4899 H 466.204 4.97413 -1.72882 0
M  V30 4900 H 468.695 3.41664 -1.61476 0
M  V30 4901 H 469.008 6.69688 -3.85666 0
M  V30 4902 H 467.353 6.02615 -3.46237 0
M  V30 4903 H 470.544 4.19546 -2.07603 0
M  V30 4904 H 470.717 5.69138 -3.09815 0
M  V30 4905 N 464.123 0.554532 1.47522 0
M  V30 4906 C 465.539 0.214107 1.58157 0
M  V30 4907 C 465.739 -1.28331 1.55349 0
M  V30 4908 O 464.795 -2.06329 1.45549 0
M  V30 4909 C 466.108 0.838391 2.88776 0
M  V30 4910 C 467.656 0.809374 3.02354 0
M  V30 4911 C 468.131 1.41268 4.35669 0
M  V30 4912 N 469.622 1.37574 4.42298 0
M  V30 4913 C 470.357 1.8122 5.4401 0
M  V30 4914 N 469.853 2.3271 6.52547 0
M  V30 4915 N 471.646 1.72307 5.35039 0
M  V30 4916 H 463.797 1.52744 1.4759 0
M  V30 4917 H 466.06 0.636812 0.702264 0
M  V30 4918 H 465.766 1.89065 2.96559 0
M  V30 4919 H 465.64 0.329847 3.75755 0
M  V30 4920 H 468.027 -0.234187 2.94169 0
M  V30 4921 H 468.108 1.35565 2.16924 0
M  V30 4922 H 467.752 2.45529 4.4461 0
M  V30 4923 H 467.682 0.841871 5.19827 0
M  V30 4924 H 470.173 0.999081 3.64454 0
M  V30 4925 H 470.486 2.63944 7.26329 0
M  V30 4926 H 468.831 2.36719 6.53444 0
M  V30 4927 H 472.022 1.3186 4.49144 0
M  V30 4928 H 472.195 2.06641 6.14169 0
M  V30 4929 N 465.601 -1.54893 0.290851 0
M  V30 4930 C 466.85 -1.99111 -0.322113 0
M  V30 4931 C 467.163 -1.18283 -1.55784 0
M  V30 4932 O 468.369 -1.5272 -2.24475 0
M  V30 4933 C 466.825 -3.54442 -0.624438 0
M  V30 4934 C 466.433 -4.44066 0.592373 0
M  V30 4935 C 468.177 -4.07211 -1.19916 0
M  V30 4936 C 466.084 -5.90812 0.263762 0
M  V30 4937 H 465.014 -0.743712 -0.124133 0
M  V30 4938 H 467.665 -1.79132 0.39797 0
M  V30 4939 H 466.047 -3.70281 -1.40384 0
M  V30 4940 H 467.221 -4.39999 1.36886 0
M  V30 4941 H 465.536 -4.02015 1.08502 0
M  V30 4942 H 468.133 -5.14407 -1.45909 0
M  V30 4943 H 468.476 -3.57196 -2.13815 0
M  V30 4944 H 469.009 -3.94873 -0.481687 0
M  V30 4945 H 465.748 -6.44955 1.17105 0
M  V30 4946 H 465.268 -5.97911 -0.475655 0
M  V30 4947 H 466.947 -6.46852 -0.138354 0
M  V30 4948 N 467.08 -0.0183926 -1.57589 0
M  V30 4949 C 468.01 0.965596 -2.12599 0
M  V30 4950 C 468.991 1.34641 -1.0395 0
M  V30 4951 O 470.176 1.42693 -1.31729 0
M  V30 4952 C 467.306 2.25149 -2.64434 0
M  V30 4953 C 466.26 2.01175 -3.77773 0
M  V30 4954 C 465.586 3.35937 -4.15994 0
M  V30 4955 C 466.886 1.35953 -5.04296 0
M  V30 4956 H 468.58 0.507504 -2.95067 0
M  V30 4957 H 466.126 0.242671 -1.41941 0
M  V30 4958 H 468.079 2.94357 -3.01549 0
M  V30 4959 H 466.803 2.73105 -1.79112 0
M  V30 4960 H 465.462 1.34388 -3.4108 0
M  V30 4961 H 465.11 3.81631 -3.27669 0
M  V30 4962 H 464.81 3.20705 -4.92364 0
M  V30 4963 H 466.334 4.0643 -4.55683 0
M  V30 4964 H 467.748 1.95144 -5.39065 0
M  V30 4965 H 466.145 1.31152 -5.85593 0
M  V30 4966 H 467.215 0.331071 -4.83768 0
M  V30 4967 N 468.558 1.5553 0.254621 0
M  V30 4968 C 469.521 1.88872 1.29846 0
M  V30 4969 C 470.521 0.764591 1.41459 0
M  V30 4970 O 471.711 1.03265 1.40293 0
M  V30 4971 C 468.843 2.11032 2.67728 0
M  V30 4972 H 470.036 2.82201 1.01502 0
M  V30 4973 H 467.589 1.48303 0.493556 0
M  V30 4974 H 468.324 1.20146 3.01223 0
M  V30 4975 H 468.109 2.92895 2.60682 0
M  V30 4976 H 469.599 2.38038 3.43115 0
M  V30 4977 N 470.036 -0.519951 1.48776 0
M  V30 4978 C 471.261 -1.30447 1.6124 0
M  V30 4979 C 471.686 -1.86055 0.276591 0
M  V30 4980 O 471.044 -1.64915 -0.753183 0
M  V30 4981 C 471.092 -2.42406 2.66967 0
M  V30 4982 O 470.196 -3.45728 2.24824 0
M  V30 4983 H 469.537 -0.385924 0.540332 0
M  V30 4984 H 472.067 -0.624572 1.94834 0
M  V30 4985 H 472.077 -2.88447 2.88552 0
M  V30 4986 H 470.752 -2.01294 3.63941 0
M  V30 4987 H 469.329 -3.05737 2.13494 0
M  V30 4988 N 471.514 -1.37532 -0.769588 0
M  V30 4989 C 472.444 -1.36172 -1.89682 0
M  V30 4990 C 473.425 -0.23001 -1.68538 0
M  V30 4991 O 474.61 -0.43069 -1.89364 0
M  V30 4992 C 471.74 -1.1701 -3.26995 0
M  V30 4993 C 470.694 -2.27216 -3.62708 0
M  V30 4994 C 470.02 -1.93174 -4.98586 0
M  V30 4995 C 471.32 -3.6941 -3.69234 0
M  V30 4996 H 473.014 -2.30499 -1.91078 0
M  V30 4997 H 470.56 -1.10953 -0.917902 0
M  V30 4998 H 472.513 -1.14688 -4.05493 0
M  V30 4999 H 471.237 -0.191395 -3.26039 0
M  V30 5000 H 469.896 -2.28697 -2.86519 0
M  V30 5001 H 469.544 -0.938281 -4.94171 0
M  V30 5002 H 469.244 -2.66973 -5.23449 0
M  V30 5003 H 470.768 -1.92443 -5.79481 0
M  V30 5004 H 472.182 -3.70047 -4.37879 0
M  V30 5005 H 470.579 -4.4228 -4.05597 0
M  V30 5006 H 471.649 -4.0288 -2.69844 0
M  V30 5007 N 472.992 0.995999 -1.22138 0
M  V30 5008 C 473.924 2.08745 -0.946485 0
M  V30 5009 C 474.937 1.62633 0.0737356 0
M  V30 5010 O 476.126 1.77782 -0.159886 0
M  V30 5011 C 473.226 3.36516 -0.401305 0
M  V30 5012 C 472.399 4.11672 -1.47801 0
M  V30 5013 C 471.458 5.17728 -0.940461 0
M  V30 5014 O 470.484 5.45482 -1.62596 0
M  V30 5015 N 471.686 5.80005 0.239723 0
M  V30 5016 H 474.451 2.32908 -1.88611 0
M  V30 5017 H 472.012 1.16152 -1.12785 0
M  V30 5018 H 474.004 4.04691 -0.0270837 0
M  V30 5019 H 472.574 3.0944 0.443354 0
M  V30 5020 H 471.794 3.38171 -2.02568 0
M  V30 5021 H 473.082 4.58657 -2.20253 0
M  V30 5022 H 472.48 5.5982 0.813518 0
M  V30 5023 H 471.037 6.4943 0.555361 0
M  V30 5024 N 474.47 1.03057 1.19235 0
M  V30 5025 C 475.38 0.622922 2.26179 0
M  V30 5026 C 476.396 -0.346113 1.70523 0
M  V30 5027 O 477.572 -0.203572 2.00369 0
M  V30 5028 C 474.637 -0.0182063 3.46695 0
M  V30 5029 C 473.698 0.998546 4.17526 0
M  V30 5030 C 472.931 0.387917 5.32288 0
M  V30 5031 O 473.154 -0.808668 5.64639 0
M  V30 5032 O 472.088 1.1116 5.91546 0
M  V30 5033 H 475.914 1.51363 2.63292 0
M  V30 5034 H 473.499 0.800856 1.26122 0
M  V30 5035 H 475.381 -0.375606 4.19723 0
M  V30 5036 H 474.056 -0.882895 3.11427 0
M  V30 5037 H 472.963 1.40756 3.4661 0
M  V30 5038 H 474.296 1.83366 4.56769 0
M  V30 5039 N 475.948 -1.35272 0.808662 0
M  V30 5040 C 476.911 -2.28082 0.226093 0
M  V30 5041 C 477.911 -1.49673 -0.587762 0
M  V30 5042 O 479.101 -1.69404 -0.405943 0
M  V30 5043 C 476.233 -3.33955 -0.684596 0
M  V30 5044 H 477.426 -2.81116 1.04469 0
M  V30 5045 H 474.979 -1.45162 0.579466 0
M  V30 5046 H 475.714 -2.86111 -1.5268 0
M  V30 5047 H 475.499 -3.91965 -0.102699 0
M  V30 5048 H 476.989 -4.03219 -1.08646 0
M  V30 5049 N 477.426 -0.562348 -1.47226 0
M  V30 5050 C 478.703 0.0256985 -1.95583 0
M  V30 5051 C 479.083 1.48032 -1.50498 0
M  V30 5052 O 478.431 2.15973 -0.746181 0
M  V30 5053 C 478.641 -0.125129 -3.48776 0
M  V30 5054 C 479.989 0.0175728 -4.24596 0
M  V30 5055 O 481.013 -0.0529341 -3.56161 0
M  V30 5056 O 479.872 0.170145 -5.46235 0
M  V30 5057 H 476.966 0.0612565 -0.824728 0
M  V30 5058 H 479.512 -0.629233 -1.57603 0
M  V30 5059 H 478.284 -1.13715 -3.74412 0
M  V30 5060 H 477.907 0.567178 -3.93534 0
M  V30 5061 N 478.904 1.54736 -0.299062 0
M  V30 5062 C 480.129 2.04975 0.316254 0
M  V30 5063 C 480.554 1.17501 1.46885 0
M  V30 5064 O 479.912 0.178678 1.80417 0
M  V30 5065 C 479.96 3.52672 0.751997 0
M  V30 5066 O 479.064 3.68226 1.85697 0
M  V30 5067 H 478.405 0.661126 0.0617175 0
M  V30 5068 H 480.935 1.99805 -0.440341 0
M  V30 5069 H 480.945 3.94488 1.04133 0
M  V30 5070 H 479.62 4.158 -0.0911482 0
M  V30 5071 H 478.197 3.38316 1.56834 0
M  V30 5072 N 480.382 0.0267497 1.57577 0
M  V30 5073 C 481.607 -0.666227 1.96408 0
M  V30 5074 C 482.032 -1.65004 0.903071 0
M  V30 5075 O 481.39 -1.80787 -0.136263 0
M  V30 5076 C 481.438 -1.35101 3.34335 0
M  V30 5077 O 480.542 -2.46623 3.30531 0
M  V30 5078 H 479.883 -0.175206 0.640468 0
M  V30 5079 H 482.413 0.0878977 2.04411 0
M  V30 5080 H 482.423 -1.70834 3.70513 0
M  V30 5081 H 481.098 -0.629844 4.11103 0
M  V30 5082 H 479.675 -2.13019 3.06068 0
M  V30 5083 N 481.861 -1.55662 -0.24637 0
M  V30 5084 C 482.811 -1.86753 -1.30795 0
M  V30 5085 C 483.795 -0.728445 -1.43466 0
M  V30 5086 O 484.987 -0.99038 -1.46699 0
M  V30 5087 C 482.116 -2.16618 -2.66329 0
M  V30 5088 C 481.202 -3.36855 -2.57661 0
M  V30 5089 N 481.593 -4.56111 -2.18624 0
M  V30 5090 C 479.891 -3.39976 -2.88673 0
M  V30 5091 C 480.592 -5.38247 -2.20601 0
M  V30 5092 N 479.568 -4.77322 -2.60124 0
M  V30 5093 H 483.37 -2.76486 -0.996642 0
M  V30 5094 H 480.884 -1.55896 -0.454994 0
M  V30 5095 H 482.881 -2.37057 -3.42942 0
M  V30 5096 H 481.541 -1.28185 -2.98327 0
M  V30 5097 H 482.552 -4.81726 -1.9016 0
M  V30 5098 H 479.229 -2.61815 -3.25206 0
M  V30 5099 H 480.619 -6.43657 -1.92756 0
M  V30 5100 N 483.339 0.512053 -1.4905 0
M  V30 5101 C 484.755 0.84224 -1.35567 0
M  V30 5102 C 484.955 1.97878 -0.380319 0
M  V30 5103 O 484.011 2.51769 0.19201 0
M  V30 5104 C 485.324 1.19286 -2.76028 0
M  V30 5105 C 486.872 1.30171 -2.84648 0
M  V30 5106 C 487.347 1.68568 -4.25851 0
M  V30 5107 N 488.838 1.75638 -4.28609 0
M  V30 5108 C 489.573 2.06769 -5.34821 0
M  V30 5109 N 489.069 2.36201 -6.51292 0
M  V30 5110 N 490.862 2.07927 -5.22229 0
M  V30 5111 H 483.013 -0.237574 -2.11067 0
M  V30 5112 H 485.276 -0.0436747 -0.946993 0
M  V30 5113 H 484.982 0.431199 -3.49047 0
M  V30 5114 H 484.856 2.13889 -3.10695 0
M  V30 5115 H 487.243 2.05411 -2.11873 0
M  V30 5116 H 487.324 0.336457 -2.53578 0
M  V30 5117 H 486.968 0.938824 -4.99148 0
M  V30 5118 H 486.898 2.66174 -4.54377 0
M  V30 5119 H 489.389 1.55097 -3.44606 0
M  V30 5120 H 489.702 2.59112 -7.28066 0
M  V30 5121 H 488.047 2.33681 -6.54536 0
M  V30 5122 H 491.238 1.84403 -4.30248 0
M  V30 5123 H 491.411 2.31856 -6.05101 0
M  V30 5124 N 484.817 1.37938 0.762283 0
M  V30 5125 C 485.727 1.36681 1.90671 0
M  V30 5126 C 486.743 0.265078 1.71969 0
M  V30 5127 O 487.919 0.502055 1.95042 0
M  V30 5128 C 484.984 1.18211 3.25925 0
M  V30 5129 C 484.045 2.3811 3.57214 0
M  V30 5130 C 483.278 2.20512 4.86014 0
M  V30 5131 O 483.501 1.19429 5.57757 0
M  V30 5132 O 482.435 3.08911 5.16583 0
M  V30 5133 H 486.261 2.33091 1.94685 0
M  V30 5134 H 483.846 1.18767 0.906356 0
M  V30 5135 H 485.728 1.09937 4.06807 0
M  V30 5136 H 484.403 0.248807 3.22742 0
M  V30 5137 H 483.31 2.51958 2.76529 0
M  V30 5138 H 484.643 3.30041 3.65149 0
M  V30 5139 N 486.295 -0.989507 1.22664 0
M  V30 5140 C 487.544 -1.72375 1.04737 0
M  V30 5141 C 487.857 -1.91096 -0.417316 0
M  V30 5142 O 489.063 -2.6188 -0.716334 0
M  V30 5143 C 487.519 -3.10161 1.82561 0
M  V30 5144 C 487.127 -2.99358 3.333 0
M  V30 5145 C 488.871 -3.87607 1.73093 0
M  V30 5146 C 486.778 -4.32319 4.03552 0
M  V30 5147 H 485.708 -0.646326 0.388302 0
M  V30 5148 H 488.359 -1.10437 1.46546 0
M  V30 5149 H 486.741 -3.728 1.33552 0
M  V30 5150 H 487.915 -2.45863 3.89728 0
M  V30 5151 H 486.23 -2.35392 3.43481 0
M  V30 5152 H 488.827 -4.86025 2.22899 0
M  V30 5153 H 489.17 -4.10509 0.691976 0
M  V30 5154 H 489.703 -3.31652 2.19663 0
M  V30 5155 H 486.442 -4.14616 5.07714 0
M  V30 5156 H 485.962 -4.85714 3.51911 0
M  V30 5157 H 487.641 -5.01051 4.09337 0
M  V30 5158 N 487.773 -1.03688 -1.18687 0
M  V30 5159 C 488.998 -0.757819 -1.93059 0
M  V30 5160 C 489.423 0.678353 -1.75442 0
M  V30 5161 O 488.781 1.46938 -1.06203 0
M  V30 5162 C 488.829 -1.12423 -3.42627 0
M  V30 5163 O 487.933 -0.247505 -4.11657 0
M  V30 5164 H 487.274 -0.279245 -0.602427 0
M  V30 5165 H 489.804 -1.3857 -1.5053 0
M  V30 5166 H 489.814 -1.08454 -3.93322 0
M  V30 5167 H 488.489 -2.17049 -3.54771 0
M  V30 5168 H 487.066 -0.34649 -3.71287 0
M  V30 5169 N 489.251 1.34841 -0.815825 0
M  V30 5170 C 490.662 1.80937 -0.46029 0
M  V30 5171 C 491.013 1.67685 1.01863 0
M  V30 5172 O 490.138 1.21277 1.79223 0
M  V30 5173 C 490.733 3.28509 -0.828708 0
M  V30 5174 C 489.292 3.72712 -0.525644 0
M  V30 5175 C 488.439 2.56676 -1.04941 0
M  V30 5176 H 491.39 1.22688 -1.00664 0
M  V30 5177 H 491.411 3.80279 -0.129757 0
M  V30 5178 H 490.923 3.38122 -1.90513 0
M  V30 5179 H 489.024 3.68642 0.541666 0
M  V30 5180 H 489.137 4.67119 -1.06474 0
M  V30 5181 H 487.501 2.50302 -0.471286 0
M  V30 5182 H 488.284 2.69063 -2.13214 0
M  V30 5183 N 490.729 0.570148 1.46925 0
M  V30 5184 C 492.006 -0.0153259 1.95594 0
M  V30 5185 C 492.386 -1.47232 1.51281 0
M  V30 5186 O 491.734 -2.15574 0.757624 0
M  V30 5187 C 491.944 0.143624 3.48704 0
M  V30 5188 C 493.292 0.00494484 4.246 0
M  V30 5189 O 494.316 0.0718214 3.56128 0
M  V30 5190 O 493.175 -0.141175 5.46318 0
M  V30 5191 H 490.269 -0.0568819 0.825041 0
M  V30 5192 H 492.815 0.637583 1.57267 0
M  V30 5193 H 491.587 1.15699 3.73804 0
M  V30 5194 H 491.21 -0.5463 3.93829 0
M  V30 5195 N 492.207 -1.54576 0.307264 0
M  V30 5196 C 493.432 -2.05139 -0.305379 0
M  V30 5197 C 493.857 -1.18278 -1.46259 0
M  V30 5198 O 493.215 -0.188243 -1.8032 0
M  V30 5199 C 493.263 -3.53066 -0.733283 0
M  V30 5200 O 492.367 -3.69206 -1.83741 0
M  V30 5201 H 491.708 -0.661444 -0.0582105 0
M  V30 5202 H 494.238 -1.99569 0.450931 0
M  V30 5203 H 494.248 -3.95034 -1.02039 0
M  V30 5204 H 492.923 -4.15746 0.113198 0
M  V30 5205 H 491.5 -3.39143 -1.55037 0
M  V30 5206 N 493.685 -0.035106 -1.57561 0
M  V30 5207 C 494.934 0.641604 -1.91223 0
M  V30 5208 C 495.247 1.72944 -0.913761 0
M  V30 5209 O 496.453 2.46321 -1.14185 0
M  V30 5210 C 494.909 1.19249 -3.3957 0
M  V30 5211 C 494.517 0.137616 -4.47789 0
M  V30 5212 C 496.261 1.84537 -3.82291 0
M  V30 5213 C 494.168 0.700478 -5.87237 0
M  V30 5214 H 493.098 0.243417 -0.713627 0
M  V30 5215 H 495.749 -0.101382 -1.8322 0
M  V30 5216 H 494.131 1.98728 -3.42525 0
M  V30 5217 H 495.305 -0.635153 -4.56402 0
M  V30 5218 H 493.62 -0.416855 -4.14308 0
M  V30 5219 H 496.217 2.27616 -4.83834 0
M  V30 5220 H 496.56 2.69054 -3.17672 0
M  V30 5221 H 497.093 1.11739 -3.81784 0
M  V30 5222 H 493.832 -0.106693 -6.55413 0
M  V30 5223 H 493.352 1.4416 -5.82218 0
M  V30 5224 H 495.031 1.18837 -6.35993 0
M  V30 5225 N 495.163 1.55791 0.238111 0
M  V30 5226 C 496.412 1.77234 0.962868 0
M  V30 5227 C 496.725 0.600661 1.86149 0
M  V30 5228 O 497.931 0.698315 2.62366 0
M  V30 5229 C 496.387 3.13808 1.76218 0
M  V30 5230 C 495.995 4.3865 0.910518 0
M  V30 5231 C 497.739 3.44585 2.47914 0
M  V30 5232 C 495.646 5.66252 1.70623 0
M  V30 5233 H 494.576 0.660731 0.36325 0
M  V30 5234 H 497.227 1.8221 0.217242 0
M  V30 5235 H 495.609 3.02963 2.55009 0
M  V30 5236 H 496.783 4.60507 0.164316 0
M  V30 5237 H 495.098 4.15271 0.30647 0
M  V30 5238 H 497.695 4.3714 3.07917 0
M  V30 5239 H 498.038 2.66314 3.19973 0
M  V30 5240 H 498.571 3.56685 1.76127 0
M  V30 5241 H 495.31 6.47369 1.02923 0
M  V30 5242 H 494.83 5.48483 2.42748 0
M  V30 5243 H 496.509 6.05829 2.27114 0
M  V30 5244 N 496.642 -0.504142 1.49319 0
M  V30 5245 C 497.891 -1.25507 1.57895 0
M  V30 5246 C 498.204 -1.93735 0.269433 0
M  V30 5247 O 499.41 -2.70492 0.233706 0
M  V30 5248 C 497.866 -2.27869 2.78574 0
M  V30 5249 C 497.474 -1.65594 4.16272 0
M  V30 5250 C 499.218 -3.0381 2.96479 0
M  V30 5251 C 497.125 -2.66048 5.28178 0
M  V30 5252 H 496.055 -0.47212 0.587894 0
M  V30 5253 H 498.706 -0.52931 1.757 0
M  V30 5254 H 497.088 -3.03594 2.54257 0
M  V30 5255 H 498.262 -0.958826 4.50714 0
M  V30 5256 H 496.577 -1.02055 4.037 0
M  V30 5257 H 499.174 -3.78925 3.77253 0
M  V30 5258 H 499.517 -3.61235 2.06918 0
M  V30 5259 H 500.05 -2.352 3.20821 0
M  V30 5260 H 496.789 -2.13408 6.19788 0
M  V30 5261 H 496.309 -3.34009 4.98195 0
M  V30 5262 H 497.988 -3.28536 5.57381 0
M  V30 5263 N 498.12 -1.38341 -0.754957 0
M  V30 5264 C 499.368 -1.34208 -1.51105 0
M  V30 5265 C 499.689 0.0677634 -1.94882 0
M  V30 5266 O 498.959 1.01517 -1.67544 0
M  V30 5267 H 497.539 -0.493819 -0.560493 0
M  V30 5268 H 500.201 -1.73005 -0.897507 0
M  V30 5269 H 499.297 -1.99203 -2.4026 0
M  V30 5270 N 499.598 0.982988 -1.23187 0
M  V30 5271 C 500.508 2.10907 -1.02739 0
M  V30 5272 C 501.524 1.73979 0.0273188 0
M  V30 5273 O 502.7 2.00702 -0.16757 0
M  V30 5274 C 499.765 3.41142 -0.618304 0
M  V30 5275 C 498.826 3.92112 -1.74777 0
M  V30 5276 C 498.059 5.16131 -1.3581 0
M  V30 5277 O 498.282 5.6989 -0.241201 0
M  V30 5278 O 497.216 5.61103 -2.17824 0
M  V30 5279 H 501.042 2.31046 -1.97108 0
M  V30 5280 H 498.627 1.09284 -1.01869 0
M  V30 5281 H 500.509 4.19488 -0.400982 0
M  V30 5282 H 499.184 3.2234 0.296421 0
M  V30 5283 H 498.091 3.14895 -2.0197 0
M  V30 5284 H 499.424 4.15364 -2.64071 0
M  V30 5285 N 501.076 1.04316 1.18135 0
M  V30 5286 C 501.986 0.646876 2.25505 0
M  V30 5287 C 503.002 -0.328008 1.7088 0
M  V30 5288 O 504.178 -0.182309 2.00573 0
M  V30 5289 C 501.243 0.0185664 3.46695 0
M  V30 5290 C 500.304 1.04277 4.16443 0
M  V30 5291 C 499.537 0.444352 5.31847 0
M  V30 5292 O 499.76 -0.748735 5.65465 0
M  V30 5293 O 498.694 1.17428 5.90334 0
M  V30 5294 H 502.52 1.54147 2.61672 0
M  V30 5295 H 500.105 0.814188 1.25265 0
M  V30 5296 H 501.987 -0.331068 4.20097 0
M  V30 5297 H 500.662 -0.849814 3.12346 0
M  V30 5298 H 499.569 1.44425 3.45098 0
M  V30 5299 H 500.902 1.882 4.54798 0
M  V30 5300 N 502.554 -1.34406 0.822964 0
M  V30 5301 C 503.803 -1.97542 0.407458 0
M  V30 5302 C 504.116 -1.65973 -1.035 0
M  V30 5303 O 505.322 -2.22598 -1.55442 0
M  V30 5304 C 503.778 -3.53463 0.677623 0
M  V30 5305 C 503.386 -3.93925 2.1337 0
M  V30 5306 C 505.13 -4.23229 0.328284 0
M  V30 5307 C 503.037 -5.42759 2.34876 0
M  V30 5308 H 501.967 -0.739207 0.148623 0
M  V30 5309 H 504.618 -1.53248 1.00932 0
M  V30 5310 H 503 -3.96 0.00558965 0
M  V30 5311 H 504.174 -3.62494 2.8449 0
M  V30 5312 H 502.489 -3.37097 2.44448 0
M  V30 5313 H 505.086 -5.32659 0.466794 0
M  V30 5314 H 505.429 -4.09899 -0.727224 0
M  V30 5315 H 505.962 -3.86169 0.954896 0
M  V30 5316 H 502.701 -5.61075 3.38932 0
M  V30 5317 H 502.221 -5.75704 1.68299 0
M  V30 5318 H 503.9 -6.0944 2.17236 0
M  V30 5319 N 504.032 -0.577932 -1.46621 0
M  V30 5320 C 505.257 -0.0652536 -2.07297 0
M  V30 5321 C 505.682 1.22828 -1.4246 0
M  V30 5322 O 505.04 1.74075 -0.506718 0
M  V30 5323 C 505.088 0.0920589 -3.60482 0
M  V30 5324 O 504.192 1.14972 -3.96049 0
M  V30 5325 H 503.533 -0.06065 -0.661224 0
M  V30 5326 H 506.063 -0.799515 -1.88332 0
M  V30 5327 H 506.073 0.299741 -4.06897 0
M  V30 5328 H 504.748 -0.852612 -4.07067 0
M  V30 5329 H 503.325 0.920879 -3.61351 0
M  V30 5330 N 505.51 1.54411 -0.315457 0
M  V30 5331 C 506.738 2.04833 0.291738 0
M  V30 5332 C 507.153 1.19203 1.46411 0
M  V30 5333 O 506.51 0.220867 1.81159 0
M  V30 5334 C 506.561 3.53969 0.73404 0
M  V30 5335 O 506.282 4.36346 -0.391682 0
M  V30 5336 C 507.783 4.2045 1.40489 0
M  V30 5337 H 505.003 0.668195 0.0612947 0
M  V30 5338 H 507.547 1.99276 -0.45929 0
M  V30 5339 H 505.702 3.5984 1.43506 0
M  V30 5340 H 506.116 5.24481 -0.0447088 0
M  V30 5341 H 507.59 5.26278 1.66539 0
M  V30 5342 H 508.067 3.71067 2.3496 0
M  V30 5343 H 508.673 4.18694 0.746662 0
M  V30 5344 N 506.988 0.0434614 1.5754 0
M  V30 5345 C 507.951 -0.918696 2.09982 0
M  V30 5346 C 508.951 -1.24488 1.01781 0
M  V30 5347 O 510.141 -1.18284 1.27885 0
M  V30 5348 C 507.273 -2.23093 2.57764 0
M  V30 5349 H 508.466 -0.464229 2.96285 0
M  V30 5350 H 506.019 -0.204818 1.54952 0
M  V30 5351 H 506.754 -2.73137 1.74832 0
M  V30 5352 H 506.539 -2.00724 3.36827 0
M  V30 5353 H 508.029 -2.92028 2.98512 0
M  V30 5354 N 508.466 -1.55915 -0.229846 0
M  V30 5355 C 509.429 -1.90914 -1.26824 0
M  V30 5356 C 510.429 -0.786999 -1.40225 0
M  V30 5357 O 511.619 -1.05484 -1.38632 0
M  V30 5358 C 508.751 -2.15264 -2.64337 0
M  V30 5359 H 509.944 -2.8378 -0.969998 0
M  V30 5360 H 507.497 -1.49069 -0.4699 0
M  V30 5361 H 508.232 -1.24923 -2.99274 0
M  V30 5362 H 508.017 -2.97005 -2.55989 0
M  V30 5363 H 509.507 -2.43467 -3.39284 0
M  V30 5364 N 509.944 0.496216 -1.49584 0
M  V30 5365 C 510.874 1.60576 -1.69521 0
M  V30 5366 C 511.855 1.61169 -0.543933 0
M  V30 5367 O 513.04 1.77834 -0.78031 0
M  V30 5368 C 510.17 2.99038 -1.76616 0
M  V30 5369 C 509.124 3.13312 -2.91581 0
M  V30 5370 C 508.45 4.53172 -2.83794 0
M  V30 5371 C 509.75 2.92886 -4.32452 0
M  V30 5372 H 511.444 1.44146 -2.62416 0
M  V30 5373 H 508.99 0.692024 -1.26282 0
M  V30 5374 H 510.943 3.76564 -1.8915 0
M  V30 5375 H 509.667 3.16568 -0.80324 0
M  V30 5376 H 508.326 2.38213 -2.78658 0
M  V30 5377 H 507.974 4.67585 -1.854 0
M  V30 5378 H 507.674 4.63662 -3.60958 0
M  V30 5379 H 509.198 5.32752 -2.98342 0
M  V30 5380 H 510.612 3.60178 -4.46032 0
M  V30 5381 H 509.009 3.14844 -5.10875 0
M  V30 5382 H 510.079 1.88966 -4.46565 0
M  V30 5383 N 511.423 1.38739 0.74761 0
M  V30 5384 C 512.669 1.35475 1.50912 0
M  V30 5385 C 513.002 -0.0533093 1.94127 0
M  V30 5386 O 512.277 -1.01572 1.65871 0
M  V30 5387 C 512.56 2.31582 2.75757 0
M  V30 5388 C 512.413 3.81274 2.38642 0
M  V30 5389 C 513.732 2.25722 3.77806 0
M  V30 5390 H 510.851 0.493427 0.547447 0
M  V30 5391 H 513.493 1.69634 0.855823 0
M  V30 5392 H 511.643 2.02582 3.31501 0
M  V30 5393 H 513.315 4.20972 1.88626 0
M  V30 5394 H 511.558 3.98664 1.71025 0
M  V30 5395 H 512.229 4.4399 3.27989 0
M  V30 5396 H 514.705 2.51336 3.31616 0
M  V30 5397 H 513.581 2.95069 4.62845 0
M  V30 5398 H 513.842 1.25803 4.23823 0
M  V30 5399 N 512.901 -0.976442 1.23707 0
M  V30 5400 C 513.811 -2.10359 1.03856 0
M  V30 5401 C 514.827 -1.73991 -0.0180919 0
M  V30 5402 O 516.003 -2.0061 0.178211 0
M  V30 5403 C 513.068 -3.40809 0.636387 0
M  V30 5404 C 512.129 -3.91179 1.76854 0
M  V30 5405 C 511.362 -5.15404 1.38546 0
M  V30 5406 O 511.585 -5.69754 0.27142 0
M  V30 5407 O 510.519 -5.5994 2.20797 0
M  V30 5408 H 514.345 -2.29997 1.98331 0
M  V30 5409 H 511.93 -1.08742 1.02448 0
M  V30 5410 H 513.812 -4.19269 0.423223 0
M  V30 5411 H 512.487 -3.22493 -0.279322 0
M  V30 5412 H 511.394 -3.13819 2.03638 0
M  V30 5413 H 512.727 -4.13958 2.6627 0
M  V30 5414 N 514.379 -1.04941 -1.1758 0
M  V30 5415 C 515.309 -0.669172 -2.23706 0
M  V30 5416 C 516.29 0.331835 -1.66832 0
M  V30 5417 O 517.475 0.209988 -1.93061 0
M  V30 5418 C 514.605 -0.0404889 -3.47276 0
M  V30 5419 C 513.559 -0.965983 -4.16957 0
M  V30 5420 C 512.885 -0.201312 -5.34321 0
M  V30 5421 C 514.185 -2.28902 -4.69469 0
M  V30 5422 H 515.879 -1.55639 -2.55767 0
M  V30 5423 H 513.425 -0.749793 -1.22939 0
M  V30 5424 H 515.378 0.237298 -4.20731 0
M  V30 5425 H 514.102 0.881658 -3.14475 0
M  V30 5426 H 512.761 -1.22829 -3.45411 0
M  V30 5427 H 512.409 0.723519 -4.97769 0
M  V30 5428 H 512.109 -0.817968 -5.81879 0
M  V30 5429 H 513.633 0.0692499 -6.10561 0
M  V30 5430 H 515.047 -2.07132 -5.34574 0
M  V30 5431 H 513.444 -2.85942 -5.27596 0
M  V30 5432 H 514.514 -2.92937 -3.86414 0
M  V30 5433 N 515.857 1.33968 -0.830081 0
M  V30 5434 C 517.268 1.80439 -0.479455 0
M  V30 5435 C 517.619 1.68756 1.00079 0
M  V30 5436 O 516.744 1.23171 1.77927 0
M  V30 5437 C 517.339 3.27611 -0.863505 0
M  V30 5438 C 515.898 3.72133 -0.565145 0
M  V30 5439 C 515.045 2.55549 -1.07657 0
M  V30 5440 H 517.996 1.21614 -1.0196 0
M  V30 5441 H 518.017 3.8012 -0.170083 0
M  V30 5442 H 517.529 3.36082 -1.94089 0
M  V30 5443 H 515.63 3.69196 0.502536 0
M  V30 5444 H 515.743 4.65963 -1.11422 0
M  V30 5445 H 514.107 2.49788 -0.497807 0
M  V30 5446 H 514.89 2.66786 -2.16055 0
M  V30 5447 N 517.335 0.585699 1.46312 0
M  V30 5448 C 518.581 0.0725284 2.0267 0
M  V30 5449 C 518.914 -1.28523 1.45586 0
M  V30 5450 O 518.189 -1.84283 0.622101 0
M  V30 5451 C 518.472 0.0099788 3.60099 0
M  V30 5452 C 518.325 1.39685 4.27561 0
M  V30 5453 C 519.644 -0.689117 4.34671 0
M  V30 5454 H 516.763 0.0278307 0.736474 0
M  V30 5455 H 519.405 0.753472 1.74421 0
M  V30 5456 H 517.555 -0.56992 3.84297 0
M  V30 5457 H 519.227 2.02215 4.14617 0
M  V30 5458 H 517.47 1.96374 3.86807 0
M  V30 5459 H 518.141 1.30553 5.36339 0
M  V30 5460 H 520.617 -0.196446 4.15636 0
M  V30 5461 H 519.493 -0.701921 5.44393 0
M  V30 5462 H 519.754 -1.75101 4.05946 0
M  V30 5463 N 518.813 -1.54241 0.323641 0
M  V30 5464 C 520.09 -1.92741 -0.333181 0
M  V30 5465 C 520.47 -1.25326 -1.69872 0
M  V30 5466 O 519.818 -0.396991 -2.25025 0
M  V30 5467 C 520.028 -3.46399 -0.425322 0
M  V30 5468 C 521.376 -4.19029 -0.68557 0
M  V30 5469 O 522.4 -3.52555 -0.50824 0
M  V30 5470 O 521.259 -5.36751 -1.02767 0
M  V30 5471 H 518.353 -0.804811 -0.190286 0
M  V30 5472 H 520.899 -1.65542 0.373361 0
M  V30 5473 H 519.671 -3.87643 0.533737 0
M  V30 5474 H 519.294 -3.79704 -1.17944 0
M  V30 5475 N 520.291 -0.0518155 -1.57515 0
M  V30 5476 C 521.239 0.940195 -2.12751 0
M  V30 5477 C 522.233 1.3218 -1.05948 0
M  V30 5478 O 523.439 1.30138 -1.24355 0
M  V30 5479 H 519.814 0.321066 -0.680015 0
M  V30 5480 H 521.785 0.449217 -2.94999 0
M  V30 5481 C 520.534 2.2055 -2.68799 0
M  V30 5482 H 519.857 1.92066 -3.50643 0
M  V30 5483 H 521.297 2.88119 -3.11068 0
M  V30 5484 C 519.756 2.95061 -1.62605 0
M  V30 5485 O 520.286 3.88025 -1.03921 0
M  V30 5486 N 518.492 2.57804 -1.34111 0
M  V30 5487 H 518.039 1.82281 -1.8202 0
M  V30 5488 H 517.997 3.07964 -0.632872 0
M  V30 5489 N 521.769 1.56035 0.221574 0
M  V30 5490 C 523.018 1.78245 0.944016 0
M  V30 5491 C 523.331 0.620371 1.85501 0
M  V30 5492 O 524.537 0.726103 2.6161 0
M  V30 5493 C 522.993 3.15659 1.7288 0
M  V30 5494 C 522.601 4.39591 0.863942 0
M  V30 5495 C 524.345 3.47195 2.44246 0
M  V30 5496 C 522.252 5.6803 1.64607 0
M  V30 5497 H 521.182 0.664547 0.356222 0
M  V30 5498 H 523.833 1.8243 0.197904 0
M  V30 5499 H 522.215 3.0565 2.51781 0
M  V30 5500 H 523.389 4.60655 0.115464 0
M  V30 5501 H 521.704 4.15572 0.262407 0
M  V30 5502 H 524.301 4.40381 3.03263 0
M  V30 5503 H 524.644 2.69693 3.1713 0
M  V30 5504 H 525.177 3.58533 1.72334 0
M  V30 5505 H 521.916 6.48425 0.960507 0
M  V30 5506 H 521.436 5.51027 2.36917 0
M  V30 5507 H 523.115 6.08203 2.20675 0
M  V30 5508 N 523.247 -0.488276 1.49845 0
M  V30 5509 C 524.21 -1.57069 1.66919 0
M  V30 5510 C 525.21 -1.51445 0.540479 0
M  V30 5511 O 526.4 -1.5437 0.807188 0
M  V30 5512 C 523.532 -2.96718 1.67844 0
M  V30 5513 H 524.725 -1.43254 2.63474 0
M  V30 5514 H 522.278 -0.713435 1.39068 0
M  V30 5515 H 523.013 -3.15996 0.7292 0
M  V30 5516 H 522.798 -3.02208 2.49826 0
M  V30 5517 H 524.288 -3.75335 1.83066 0
M  V30 5518 N 524.725 -1.39134 -0.740242 0
M  V30 5519 C 525.688 -1.37217 -1.83587 0
M  V30 5520 C 526.688 -0.270221 -1.58513 0
M  V30 5521 O 527.878 -0.527843 -1.6601 0
M  V30 5522 C 525.01 -1.13959 -3.21288 0
M  V30 5523 H 526.203 -2.34705 -1.86691 0
M  V30 5524 H 523.756 -1.24622 -0.94335 0
M  V30 5525 H 524.491 -0.17131 -3.23847 0
M  V30 5526 H 524.276 -1.93754 -3.40884 0
M  V30 5527 H 525.766 -1.15346 -4.01354 0
M  V30 5528 N 526.204 0.969867 -1.24223 0
M  V30 5529 C 527.453 1.70687 -1.07466 0
M  V30 5530 C 527.766 1.91736 0.386861 0
M  V30 5531 O 528.972 2.62986 0.674581 0
M  V30 5532 C 527.428 3.07217 -1.87472 0
M  V30 5533 C 527.036 2.94018 -3.3802 0
M  V30 5534 C 528.78 3.84804 -1.79237 0
M  V30 5535 C 526.687 4.25844 -4.10379 0
M  V30 5536 H 525.617 0.640067 -0.398536 0
M  V30 5537 H 528.268 1.08092 -1.48285 0
M  V30 5538 H 526.65 3.70628 -1.39466 0
M  V30 5539 H 527.824 2.39632 -3.9359 0
M  V30 5540 H 526.139 2.29898 -3.47183 0
M  V30 5541 H 528.736 4.82417 -2.30603 0
M  V30 5542 H 529.079 4.09356 -0.757197 0
M  V30 5543 H 529.612 3.28115 -2.24912 0
M  V30 5544 H 526.351 4.06486 -5.14246 0
M  V30 5545 H 525.871 4.80054 -3.59594 0
M  V30 5546 H 527.55 4.94475 -4.17257 0
M  V30 5547 N 527.682 1.05563 1.17022 0
M  V30 5548 C 528.928 0.769074 1.87652 0
M  V30 5549 C 529.261 -0.702326 1.81055 0
M  V30 5550 O 528.536 -1.5139 1.22112 0
M  V30 5551 C 528.819 1.25492 3.37526 0
M  V30 5552 C 528.672 2.78953 3.52853 0
M  V30 5553 C 529.991 0.856919 4.31677 0
M  V30 5554 H 527.11 0.280854 0.681388 0
M  V30 5555 H 529.752 1.31027 1.37593 0
M  V30 5556 H 527.902 0.794516 3.80289 0
M  V30 5557 H 529.574 3.33146 3.19079 0
M  V30 5558 H 527.817 3.18046 2.95007 0
M  V30 5559 H 528.488 3.08011 4.58076 0
M  V30 5560 H 530.964 1.25334 3.96775 0
M  V30 5561 H 529.84 1.22443 5.35069 0
M  V30 5562 H 530.101 -0.238787 4.41455 0
M  V30 5563 N 529.16 -1.33526 0.837174 0
M  V30 5564 C 530.388 -2.02047 0.445494 0
M  V30 5565 C 530.803 -1.62995 -0.952788 0
M  V30 5566 O 530.16 -0.842447 -1.61892 0
M  V30 5567 C 530.211 -3.57221 0.554577 0
M  V30 5568 O 529.932 -3.94863 1.89776 0
M  V30 5569 C 531.433 -4.43012 0.159634 0
M  V30 5570 H 528.653 -0.647221 0.177048 0
M  V30 5571 H 531.197 -1.70492 1.12928 0
M  V30 5572 H 529.352 -3.87315 -0.0812781 0
M  V30 5573 H 529.766 -4.89569 1.88208 0
M  V30 5574 H 531.24 -5.51253 0.28701 0
M  V30 5575 H 531.717 -4.29916 -0.898289 0
M  V30 5576 H 532.323 -4.18274 0.769855 0
M  V30 5577 N 530.638 -0.59345 -1.46 0
M  V30 5578 C 531.866 -0.0890934 -2.06708 0
M  V30 5579 C 532.281 1.2205 -1.44046 0
M  V30 5580 O 531.638 1.74029 -0.549551 0
M  V30 5581 C 531.689 0.0720263 -3.61428 0
M  V30 5582 O 531.41 -1.18574 -4.21748 0
M  V30 5583 C 532.911 0.609487 -4.3909 0
M  V30 5584 H 530.131 -0.0623628 -0.668096 0
M  V30 5585 H 532.675 -0.817171 -1.87464 0
M  V30 5586 H 530.83 0.750369 -3.80063 0
M  V30 5587 H 531.244 -1.0064 -5.14754 0
M  V30 5588 H 532.718 0.671363 -5.47902 0
M  V30 5589 H 533.195 1.62878 -4.07882 0
M  V30 5590 H 533.801 -0.03434 -4.25286 0
M  V30 5591 N 532.116 1.54067 -0.331816 0
M  V30 5592 C 533.026 2.28322 0.539104 0
M  V30 5593 C 534.042 1.32985 1.1221 0
M  V30 5594 O 535.218 1.6601 1.1403 0
M  V30 5595 C 532.283 3.03277 1.68 0
M  V30 5596 C 531.344 4.14216 1.12798 0
M  V30 5597 C 530.577 4.85588 2.2145 0
M  V30 5598 O 530.8 4.56536 3.41952 0
M  V30 5599 O 529.734 5.72309 1.86404 0
M  V30 5600 H 533.56 3.03632 -0.0641692 0
M  V30 5601 H 531.145 1.49083 -0.0972365 0
M  V30 5602 H 533.027 3.50189 2.34405 0
M  V30 5603 H 531.702 2.30834 2.2693 0
M  V30 5604 H 530.609 3.71635 0.428782 0
M  V30 5605 H 531.942 4.88727 0.583698 0
M  V30 5606 N 533.594 0.0601682 1.57485 0
M  V30 5607 C 534.842 -0.610386 1.92662 0
M  V30 5608 C 535.163 -1.70849 0.939981 0
M  V30 5609 O 534.433 -1.95895 -0.0137455 0
M  V30 5610 H 533.013 -0.228457 0.711208 0
M  V30 5611 H 535.675 0.115288 1.94559 0
M  V30 5612 H 534.771 -1.0432 2.94149 0
M  V30 5613 N 535.072 -1.5615 -0.213296 0
M  V30 5614 C 536.035 -1.92249 -1.24792 0
M  V30 5615 C 537.035 -0.801828 -1.39382 0
M  V30 5616 O 538.225 -1.06948 -1.37506 0
M  V30 5617 C 535.357 -2.18056 -2.62039 0
M  V30 5618 H 536.55 -2.84793 -0.939845 0
M  V30 5619 H 534.103 -1.49559 -0.454062 0
M  V30 5620 H 534.838 -1.2809 -2.97932 0
M  V30 5621 H 534.623 -2.99703 -2.52825 0
M  V30 5622 H 536.113 -2.47051 -3.36683 0
M  V30 5623 N 536.55 0.480323 -1.50102 0
M  V30 5624 C 537.513 1.56181 -1.6775 0
M  V30 5625 C 538.513 1.51156 -0.548503 0
M  V30 5626 O 539.703 1.5394 -0.815363 0
M  V30 5627 C 536.835 2.95823 -1.69415 0
M  V30 5628 H 538.028 1.41855 -2.6423 0
M  V30 5629 H 535.581 0.70605 -1.39444 0
M  V30 5630 H 536.316 3.15604 -0.745948 0
M  V30 5631 H 536.101 3.00878 -2.51425 0
M  V30 5632 H 537.591 3.74359 -1.85054 0
M  V30 5633 N 538.028 1.39524 0.732853 0
M  V30 5634 C 538.976 1.38563 1.86824 0
M  V30 5635 C 539.97 0.268467 1.67259 0
M  V30 5636 O 541.176 0.438613 1.74574 0
M  V30 5637 H 537.551 0.432737 0.615014 0
M  V30 5638 H 539.522 2.34328 1.84751 0
M  V30 5639 C 538.271 1.2481 3.24527 0
M  V30 5640 H 537.594 2.10044 3.40179 0
M  V30 5641 H 539.034 1.28194 4.04156 0
M  V30 5642 C 537.493 -0.0432825 3.36872 0
M  V30 5643 O 538.023 -1.01268 3.88726 0
M  V30 5644 N 536.229 -0.107055 2.90403 0
M  V30 5645 H 535.776 0.682512 2.48394 0
M  V30 5646 H 535.734 -0.970618 2.99042 0
M  V30 5647 N 539.506 -0.963266 1.24736 0
M  V30 5648 C 540.731 -1.74699 1.11781 0
M  V30 5649 C 541.156 -1.85267 -0.325258 0
M  V30 5650 O 540.514 -1.32681 -1.23553 0
M  V30 5651 C 540.562 -3.14322 1.76731 0
M  V30 5652 O 539.666 -3.99043 1.04109 0
M  V30 5653 H 539.007 -0.53684 0.390767 0
M  V30 5654 H 541.537 -1.20801 1.65131 0
M  V30 5655 H 541.547 -3.64824 1.82668 0
M  V30 5656 H 540.222 -3.05946 2.81726 0
M  V30 5657 H 538.799 -3.5752 1.05991 0
M  V30 5658 N 540.985 -1.06182 -1.16461 0
M  V30 5659 C 541.935 -0.641619 -2.18786 0
M  V30 5660 C 542.919 0.327122 -1.5754 0
M  V30 5661 O 544.111 0.142746 -1.76423 0
M  V30 5662 C 541.24 -0.0283734 -3.43288 0
M  V30 5663 C 540.326 -1.02154 -4.11613 0
M  V30 5664 N 540.717 -2.19671 -4.55608 0
M  V30 5665 C 539.015 -0.852229 -4.37782 0
M  V30 5666 C 539.716 -2.82583 -5.0845 0
M  V30 5667 N 538.692 -2.10318 -5.01266 0
M  V30 5668 H 542.494 -1.53684 -2.50516 0
M  V30 5669 H 540.008 -0.933349 -1.329 0
M  V30 5670 H 542.005 0.29049 -4.15887 0
M  V30 5671 H 540.665 0.862118 -3.13046 0
M  V30 5672 H 541.676 -2.57453 -4.49375 0
M  V30 5673 H 538.353 -0.0136314 -4.17498 0
M  V30 5674 H 539.743 -3.82298 -5.52538 0
M  V30 5675 N 542.463 1.3308 -0.844243 0
M  V30 5676 C 543.396 2.27075 -0.226279 0
M  V30 5677 C 544.374 1.49911 0.629716 0
M  V30 5678 O 545.558 1.79068 0.588803 0
M  V30 5679 C 542.685 3.31767 0.681782 0
M  V30 5680 C 541.731 4.26384 -0.0994565 0
M  V30 5681 S 542.564 5.15186 -1.46094 0
M  V30 5682 C 543.72 6.23405 -0.558319 0
M  V30 5683 H 543.953 2.79141 -1.02312 0
M  V30 5684 H 541.486 1.40452 -0.641292 0
M  V30 5685 H 543.444 3.92566 1.20008 0
M  V30 5686 H 542.105 2.78507 1.45234 0
M  V30 5687 H 541.298 5.00514 0.591733 0
M  V30 5688 H 540.9 3.69949 -0.548991 0
M  V30 5689 H 543.192 6.77069 0.241672 0
M  V30 5690 H 544.135 6.96619 -1.26995 0
M  V30 5691 H 544.543 5.64333 -0.13728 0
M  V30 5692 N 543.941 0.601185 1.45683 0
M  V30 5693 C 545.187 0.0940202 2.02582 0
M  V30 5694 C 545.52 -1.26972 1.46941 0
M  V30 5695 O 544.795 -1.83613 0.641612 0
M  V30 5696 C 545.078 0.0481715 3.60068 0
M  V30 5697 C 544.931 1.44212 4.26055 0
M  V30 5698 C 546.25 -0.642975 4.35378 0
M  V30 5699 H 543.369 0.0356404 0.736138 0
M  V30 5700 H 546.011 0.771929 1.73612 0
M  V30 5701 H 544.161 -0.529128 3.8488 0
M  V30 5702 H 545.833 2.06601 4.12449 0
M  V30 5703 H 544.076 2.00465 3.84703 0
M  V30 5704 H 544.747 1.36234 5.34925 0
M  V30 5705 H 547.223 -0.152351 4.15821 0
M  V30 5706 H 546.099 -0.644141 5.45107 0
M  V30 5707 H 546.36 -1.70785 4.0778 0
M  V30 5708 N 545.419 -1.53889 0.339982 0
M  V30 5709 C 546.668 -2.00035 -0.258604 0
M  V30 5710 C 546.981 -1.23179 -1.51942 0
M  V30 5711 O 548.187 -1.59784 -2.19503 0
M  V30 5712 C 546.643 -3.56249 -0.511359 0
M  V30 5713 C 546.251 -4.41957 0.733349 0
M  V30 5714 C 547.995 -4.1082 -1.069 0
M  V30 5715 C 545.902 -5.89673 0.451591 0
M  V30 5716 H 544.832 -0.747284 -0.10041 0
M  V30 5717 H 547.483 -1.77776 0.454758 0
M  V30 5718 H 545.865 -3.7456 -1.28533 0
M  V30 5719 H 547.039 -4.35421 1.50815 0
M  V30 5720 H 545.354 -3.9836 1.21237 0
M  V30 5721 H 547.951 -5.18789 -1.2947 0
M  V30 5722 H 548.294 -3.63817 -2.02343 0
M  V30 5723 H 548.827 -3.96205 -0.355817 0
M  V30 5724 H 545.566 -6.40903 1.37565 0
M  V30 5725 H 545.086 -5.99122 -0.285193 0
M  V30 5726 H 546.765 -6.46965 0.0675067 0
M  V30 5727 N 546.897 -0.0685191 -1.57451 0
M  V30 5728 C 548.143 0.602239 -1.93652 0
M  V30 5729 C 548.476 1.6946 -0.948526 0
M  V30 5730 O 547.751 1.94487 0.022782 0
M  V30 5731 C 548.034 1.18223 -3.4014 0
M  V30 5732 C 547.887 0.0967431 -4.49696 0
M  V30 5733 C 549.206 2.08872 -3.87377 0
M  V30 5734 H 546.325 0.217453 -0.70419 0
M  V30 5735 H 548.967 -0.133821 -1.89528 0
M  V30 5736 H 547.117 1.80953 -3.43785 0
M  V30 5737 H 548.789 -0.536155 -4.58174 0
M  V30 5738 H 547.032 -0.573063 -4.29998 0
M  V30 5739 H 547.703 0.542894 -5.49324 0
M  V30 5740 H 550.179 1.56081 -3.85717 0
M  V30 5741 H 549.055 2.46389 -4.90493 0
M  V30 5742 H 549.316 2.99572 -3.25129 0
M  V30 5743 N 548.375 1.56261 0.205012 0
M  V30 5744 C 549.338 1.92908 1.23771 0
M  V30 5745 C 550.338 0.809208 1.38955 0
M  V30 5746 O 551.528 1.07676 1.36936 0
M  V30 5747 C 548.66 2.19442 2.60879 0
M  V30 5748 H 549.853 2.85287 0.924728 0
M  V30 5749 H 547.406 1.49798 0.446125 0
M  V30 5750 H 548.141 1.29668 2.97248 0
M  V30 5751 H 547.926 3.0104 2.51232 0
M  V30 5752 H 549.416 2.48833 3.35368 0
M  V30 5753 N 549.853 -0.472356 1.50355 0
M  V30 5754 C 551.269 -0.806001 1.37753 0
M  V30 5755 C 551.469 -1.968 0.432649 0
M  V30 5756 O 550.525 -2.52189 -0.12519 0
M  V30 5757 C 551.838 -1.11926 2.79093 0
M  V30 5758 C 553.386 -1.22579 2.87999 0
M  V30 5759 C 553.861 -1.57218 4.3017 0
M  V30 5760 N 555.352 -1.64212 4.33115 0
M  V30 5761 C 556.087 -1.92517 5.40116 0
M  V30 5762 N 555.583 -2.1885 6.57325 0
M  V30 5763 N 557.376 -1.94008 5.27558 0
M  V30 5764 H 549.527 0.293451 2.10363 0
M  V30 5765 H 551.79 0.0687672 0.945503 0
M  V30 5766 H 551.496 -0.338504 3.50067 0
M  V30 5767 H 551.37 -2.05577 3.16256 0
M  V30 5768 H 553.757 -1.99722 2.17245 0
M  V30 5769 H 553.838 -0.269107 2.54381 0
M  V30 5770 H 553.482 -0.806154 5.01461 0
M  V30 5771 H 553.412 -2.54034 4.61275 0
M  V30 5772 H 555.903 -1.45906 3.48597 0
M  V30 5773 H 556.216 -2.39718 7.3468 0
M  V30 5774 H 554.561 -2.16245 6.60502 0
M  V30 5775 H 557.752 -1.72931 4.34986 0
M  V30 5776 H 557.925 -2.15731 6.11035 0
M  V30 5777 N 551.331 -1.39911 -0.725443 0
M  V30 5778 C 552.294 -1.39156 -1.82121 0
M  V30 5779 C 553.294 -0.287018 -1.58218 0
M  V30 5780 O 554.484 -0.545421 -1.65441 0
M  V30 5781 C 551.616 -1.1736 -3.20062 0
M  V30 5782 H 552.809 -2.36672 -1.84191 0
M  V30 5783 H 550.362 -1.25615 -0.930079 0
M  V30 5784 H 551.097 -0.205648 -3.23647 0
M  V30 5785 H 550.882 -1.97358 -3.3881 0
M  V30 5786 H 552.372 -1.19596 -4.00108 0
M  V30 5787 N 552.809 0.956637 -1.25245 0
M  V30 5788 C 553.739 2.07058 -1.07931 0
M  V30 5789 C 554.72 1.70096 0.0110361 0
M  V30 5790 O 555.905 1.93555 -0.158121 0
M  V30 5791 C 553.035 3.40272 -0.695124 0
M  V30 5792 C 551.989 3.91235 -1.73549 0
M  V30 5793 C 551.315 5.20921 -1.20604 0
M  V30 5794 C 552.615 4.17837 -3.13385 0
M  V30 5795 H 554.309 2.218 -2.01109 0
M  V30 5796 H 551.855 1.06581 -0.968326 0
M  V30 5797 H 553.808 4.1765 -0.560949 0
M  V30 5798 H 552.532 3.25462 0.272355 0
M  V30 5799 H 551.191 3.16025 -1.85807 0
M  V30 5800 H 550.839 5.02479 -0.228846 0
M  V30 5801 H 550.539 5.55987 -1.90136 0
M  V30 5802 H 552.063 6.00897 -1.08421 0
M  V30 5803 H 553.477 4.8588 -3.04292 0
M  V30 5804 H 551.874 4.64154 -3.80369 0
M  V30 5805 H 552.944 3.2419 -3.60595 0
M  V30 5806 N 554.287 1.06798 1.15896 0
M  V30 5807 C 555.535 0.786211 1.8618 0
M  V30 5808 C 555.856 -0.689547 1.82401 0
M  V30 5809 O 555.126 -1.49913 1.26107 0
M  V30 5810 H 553.706 0.287843 0.689315 0
M  V30 5811 H 556.368 1.35055 1.40521 0
M  V30 5812 H 555.464 1.1157 2.91477 0
M  V30 5813 N 555.766 -1.3263 0.851289 0
M  V30 5814 C 557.015 -1.96633 0.449267 0
M  V30 5815 C 557.328 -1.68131 -0.999562 0
M  V30 5816 O 558.534 -2.25845 -1.50685 0
M  V30 5817 C 556.99 -3.51946 0.752446 0
M  V30 5818 C 556.598 -3.89311 2.21678 0
M  V30 5819 C 558.342 -4.22437 0.417983 0
M  V30 5820 C 556.249 -5.37655 2.46336 0
M  V30 5821 H 555.179 -0.735888 0.164269 0
M  V30 5822 H 557.83 -1.51073 1.0416 0
M  V30 5823 H 556.212 -3.95899 0.0895858 0
M  V30 5824 H 557.386 -3.56378 2.92115 0
M  V30 5825 H 555.701 -3.31836 2.51543 0
M  V30 5826 H 558.298 -5.31549 0.579674 0
M  V30 5827 H 558.641 -4.11349 -0.640115 0
M  V30 5828 H 559.174 -3.84057 1.03659 0
M  V30 5829 H 555.913 -5.5376 3.50757 0
M  V30 5830 H 555.433 -5.72005 1.80473 0
M  V30 5831 H 557.112 -6.04695 2.30115 0
M  V30 5832 N 557.244 -0.608902 -1.45362 0
M  V30 5833 C 558.655 -0.189511 -1.85736 0
M  V30 5834 C 559.006 1.2539 -1.50903 0
M  V30 5835 O 558.131 1.95094 -0.936347 0
M  V30 5836 C 558.726 -0.33716 -3.37118 0
M  V30 5837 C 557.285 0.0275487 -3.7639 0
M  V30 5838 C 556.432 -0.660983 -2.69307 0
M  V30 5839 H 559.383 -0.815499 -1.36144 0
M  V30 5840 H 559.404 0.430257 -3.7806 0
M  V30 5841 H 558.916 -1.38779 -3.62439 0
M  V30 5842 H 557.017 1.0773 -3.56686 0
M  V30 5843 H 557.13 -0.367018 -4.77692 0
M  V30 5844 H 555.494 -0.0984958 -2.54509 0
M  V30 5845 H 556.277 -1.71377 -2.97464 0
M  V30 5846 N 558.722 1.53707 -0.348139 0
M  V30 5847 C 559.95 2.05406 0.248224 0
M  V30 5848 C 560.365 1.22282 1.43849 0
M  V30 5849 O 559.722 0.259244 1.80649 0
M  V30 5850 C 559.773 3.55446 0.658793 0
M  V30 5851 O 559.494 4.35417 -0.484149 0
M  V30 5852 C 560.995 4.23335 1.31539 0
M  V30 5853 H 558.215 0.669344 0.0471075 0
M  V30 5854 H 560.759 1.98257 -0.501456 0
M  V30 5855 H 558.914 3.62803 1.35841 0
M  V30 5856 H 559.328 5.24268 -0.155949 0
M  V30 5857 H 560.802 5.29692 1.55338 0
M  V30 5858 H 561.279 3.75967 2.27036 0
M  V30 5859 H 561.885 4.20184 0.657683 0
M  V30 5860 N 560.2 0.0768682 1.57412 0
M  V30 5861 C 561.446 -0.591961 1.93968 0
M  V30 5862 C 561.779 -1.68954 0.9575 0
M  V30 5863 O 561.054 -1.94496 -0.0124675 0
M  V30 5864 C 561.337 -1.16418 3.40762 0
M  V30 5865 C 561.19 -0.0728933 4.49741 0
M  V30 5866 C 562.509 -2.06814 3.88479 0
M  V30 5867 H 559.628 -0.213716 0.705333 0
M  V30 5868 H 562.27 0.14387 1.89455 0
M  V30 5869 H 560.42 -1.79128 3.4474 0
M  V30 5870 H 562.092 0.560446 4.57883 0
M  V30 5871 H 560.335 0.595859 4.29688 0
M  V30 5872 H 561.006 -0.513755 5.49604 0
M  V30 5873 H 563.482 -1.54033 3.8654 0
M  V30 5874 H 562.358 -2.43785 4.91793 0
M  V30 5875 H 562.619 -2.97844 3.26713 0
M  V30 5876 N 561.678 -1.56367 -0.196722 0
M  V30 5877 C 562.924 -1.80796 -0.918725 0
M  V30 5878 C 563.257 -0.650645 -1.82976 0
M  V30 5879 O 562.532 0.348889 -1.91345 0
M  V30 5880 C 562.815 -3.15472 -1.73636 0
M  V30 5881 C 562.668 -4.41693 -0.85015 0
M  V30 5882 C 563.987 -3.46824 -2.70927 0
M  V30 5883 H 561.106 -0.657702 -0.332561 0
M  V30 5884 H 563.748 -1.89086 -0.186186 0
M  V30 5885 H 561.898 -3.08536 -2.36088 0
M  V30 5886 H 563.57 -4.60673 -0.240459 0
M  V30 5887 H 561.813 -4.33517 -0.156785 0
M  V30 5888 H 562.484 -5.32419 -1.45719 0
M  V30 5889 H 564.96 -3.54049 -2.18607 0
M  V30 5890 H 563.836 -4.4218 -3.25219 0
M  V30 5891 H 564.097 -2.70236 -3.49893 0
M  V30 5892 N 563.156 0.464375 -1.50603 0
M  V30 5893 C 564.404 1.21356 -1.61608 0
M  V30 5894 C 564.725 1.92329 -0.321643 0
M  V30 5895 O 563.995 1.84403 0.661232 0
M  V30 5896 H 562.575 0.45094 -0.595535 0
M  V30 5897 H 565.237 0.535046 -1.87412 0
M  V30 5898 H 564.333 1.95783 -2.43054 0
M  V30 5899 N 564.634 1.40294 0.718013 0
M  V30 5900 C 565.88 1.38645 1.48005 0
M  V30 5901 C 566.213 -0.0121202 1.94196 0
M  V30 5902 O 565.488 -0.980309 1.67989 0
M  V30 5903 C 565.771 2.37379 2.70782 0
M  V30 5904 C 565.624 3.8625 2.30501 0
M  V30 5905 C 566.943 2.33685 3.72933 0
M  V30 5906 H 564.062 0.504928 0.536858 0
M  V30 5907 H 566.704 1.71411 0.819649 0
M  V30 5908 H 564.854 2.09568 3.27129 0
M  V30 5909 H 566.526 4.24879 1.79655 0
M  V30 5910 H 564.769 4.02202 1.6253 0
M  V30 5911 H 565.44 4.50847 3.18498 0
M  V30 5912 H 567.916 2.58314 3.2621 0
M  V30 5913 H 566.792 3.0482 4.56482 0
M  V30 5914 H 567.053 1.34765 4.21059 0
M  V30 5915 N 566.112 -0.949982 1.2575 0
M  V30 5916 C 567.34 -1.72972 1.13527 0
M  V30 5917 C 567.755 -1.8623 -0.310453 0
M  V30 5918 O 567.112 -1.36336 -1.2132 0
M  V30 5919 C 567.163 -3.14108 1.78936 0
M  V30 5920 O 566.884 -3.01493 3.17858 0
M  V30 5921 C 568.385 -4.08338 1.72554 0
M  V30 5922 H 565.605 -0.541864 0.395758 0
M  V30 5923 H 568.149 -1.19151 1.66202 0
M  V30 5924 H 566.304 -3.64858 1.30221 0
M  V30 5925 H 566.718 -3.90559 3.50092 0
M  V30 5926 H 568.192 -5.04963 2.22973 0
M  V30 5927 H 568.669 -4.33742 0.690251 0
M  V30 5928 H 569.275 -3.63506 2.2078 0
M  V30 5929 N 567.59 -1.07411 -1.15328 0
M  V30 5930 C 568.5 -0.706438 -2.23711 0
M  V30 5931 C 569.516 0.282586 -1.7169 0
M  V30 5932 O 570.692 0.129066 -2.00986 0
M  V30 5933 C 567.757 -0.11048 -3.46524 0
M  V30 5934 C 566.818 -1.15282 -4.13532 0
M  V30 5935 C 566.051 -0.585205 -5.30482 0
M  V30 5936 O 566.274 0.598549 -5.67251 0
M  V30 5937 O 565.208 -1.33039 -5.87013 0
M  V30 5938 H 569.034 -1.61031 -2.57493 0
M  V30 5939 H 566.619 -0.847113 -1.23062 0
M  V30 5940 H 568.501 0.21957 -4.20828 0
M  V30 5941 H 567.176 0.766703 -3.14489 0
M  V30 5942 H 566.083 -1.53523 -3.41147 0
M  V30 5943 H 567.416 -2.00192 -4.49649 0
M  V30 5944 N 569.068 1.32177 -0.85831 0
M  V30 5945 C 569.998 2.31282 -0.321041 0
M  V30 5946 C 570.979 1.59841 0.581786 0
M  V30 5947 O 572.164 1.87619 0.501262 0
M  V30 5948 C 569.294 3.4385 0.48832 0
M  V30 5949 C 568.248 4.26799 -0.320391 0
M  V30 5950 C 567.574 5.31164 0.613934 0
M  V30 5951 C 568.874 4.98829 -1.54813 0
M  V30 5952 H 570.568 2.76469 -1.14915 0
M  V30 5953 H 568.114 1.32916 -0.554028 0
M  V30 5954 H 570.067 4.12224 0.874626 0
M  V30 5955 H 568.791 2.97401 1.34983 0
M  V30 5956 H 567.45 3.60077 -0.688497 0
M  V30 5957 H 567.098 4.80967 1.47239 0
M  V30 5958 H 566.798 5.8755 0.0768097 0
M  V30 5959 H 568.322 6.024 0.997336 0
M  V30 5960 H 569.736 5.59864 -1.23392 0
M  V30 5961 H 568.133 5.64957 -2.02346 0
M  V30 5962 H 569.203 4.26483 -2.30739 0
M  V30 5963 N 570.547 0.616602 1.45037 0
M  V30 5964 C 571.958 0.199359 1.85633 0
M  V30 5965 C 572.309 -1.24588 1.51566 0
M  V30 5966 O 571.434 -1.94594 0.94668 0
M  V30 5967 C 572.029 0.355033 3.36935 0
M  V30 5968 C 570.588 -0.00758748 3.76399 0
M  V30 5969 C 569.735 0.675256 2.68953 0
M  V30 5970 H 572.686 0.822708 1.3571 0
M  V30 5971 H 572.707 -0.410201 3.78282 0
M  V30 5972 H 572.219 1.40699 3.61698 0
M  V30 5973 H 570.32 -1.05837 3.57252 0
M  V30 5974 H 570.433 0.392346 4.77491 0
M  V30 5975 H 568.797 0.111992 2.54454 0
M  V30 5976 H 569.58 1.72952 2.96551 0
M  V30 5977 N 572.025 -1.5352 0.356285 0
M  V30 5978 C 573.274 -2.00298 -0.237373 0
M  V30 5979 C 573.587 -1.24784 -1.50627 0
M  V30 5980 O 574.793 -1.62103 -2.17795 0
M  V30 5981 C 573.249 -3.56771 -0.473545 0
M  V30 5982 C 572.857 -4.41154 0.780183 0
M  V30 5983 C 574.601 -4.1193 -1.02537 0
M  V30 5984 C 572.508 -5.89161 0.514108 0
M  V30 5985 H 571.438 -0.748307 -0.092478 0
M  V30 5986 H 574.089 -1.77283 0.473588 0
M  V30 5987 H 572.471 -3.75902 -1.24553 0
M  V30 5988 H 573.645 -4.33797 1.55425 0
M  V30 5989 H 571.96 -3.97052 1.25455 0
M  V30 5990 H 574.557 -5.20133 -1.2396 0
M  V30 5991 H 574.9 -3.65943 -1.98473 0
M  V30 5992 H 575.433 -3.96561 -0.313775 0
M  V30 5993 H 572.172 -6.39408 1.44355 0
M  V30 5994 H 571.692 -5.9939 -0.221632 0
M  V30 5995 H 573.371 -6.46857 0.136122 0
M  V30 5996 N 573.503 -0.0852151 -1.57369 0
M  V30 5997 C 574.451 0.894856 -2.14698 0
M  V30 5998 C 575.445 1.29903 -1.08727 0
M  V30 5999 O 576.651 1.27471 -1.27088 0
M  V30 6000 H 573.026 0.306569 -0.686673 0
M  V30 6001 H 574.997 0.386542 -2.95886 0
M  V30 6002 C 573.746 2.14798 -2.73417 0
M  V30 6003 H 573.069 1.84585 -3.54638 0
M  V30 6004 H 574.509 2.81456 -3.1711 0
M  V30 6005 C 572.968 2.91546 -1.68828 0
M  V30 6006 O 573.498 3.85733 -1.12129 0
M  V30 6007 N 571.704 2.54901 -1.39549 0
M  V30 6008 H 571.251 1.7838 -1.85845 0
M  V30 6009 H 571.209 3.06553 -0.698054 0
M  V30 6010 N 574.981 1.5647 0.188427 0
M  V30 6011 C 576.209 1.85131 0.923803 0
M  V30 6012 C 576.624 0.668537 1.76567 0
M  V30 6013 O 575.981 -0.362662 1.7886 0
M  V30 6014 C 576.032 3.12661 1.81453 0
M  V30 6015 O 575.753 4.26378 1.00665 0
M  V30 6016 C 577.254 3.54548 2.66103 0
M  V30 6017 H 574.474 0.614624 0.269218 0
M  V30 6018 H 577.018 2.03581 0.193671 0
M  V30 6019 H 575.173 2.96088 2.49821 0
M  V30 6020 H 575.587 4.99041 1.61425 0
M  V30 6021 H 577.061 4.4673 3.24247 0
M  V30 6022 H 577.538 2.77853 3.40139 0
M  V30 6023 H 578.144 3.73674 2.03096 0
M  V30 6024 N 576.459 -0.456382 1.50847 0
M  V30 6025 C 577.389 -1.56025 1.73719 0
M  V30 6026 C 578.37 -1.5967 0.586473 0
M  V30 6027 O 579.555 -1.75702 0.827185 0
M  V30 6028 C 576.685 -2.94251 1.84483 0
M  V30 6029 C 575.639 -3.05471 2.99786 0
M  V30 6030 C 574.965 -4.45489 2.95709 0
M  V30 6031 C 576.265 -2.81318 4.40065 0
M  V30 6032 H 577.959 -1.37138 2.66146 0
M  V30 6033 H 575.505 -0.658299 1.28072 0
M  V30 6034 H 577.458 -3.71417 1.99067 0
M  V30 6035 H 576.182 -3.14328 0.886891 0
M  V30 6036 H 574.841 -2.30741 2.84876 0
M  V30 6037 H 574.489 -4.62505 1.97732 0
M  V30 6038 H 574.189 -4.53929 3.73125 0
M  V30 6039 H 575.713 -5.24655 3.12362 0
M  V30 6040 H 577.127 -3.48226 4.55425 0
M  V30 6041 H 575.524 -3.01188 5.19043 0
M  V30 6042 H 576.594 -1.7706 4.51418 0
M  V30 6043 N 577.937 -1.40673 -0.710563 0
M  V30 6044 C 579.214 -1.29718 -1.46398 0
M  V30 6045 C 579.594 0.082177 -2.1094 0
M  V30 6046 O 578.942 1.09536 -2.00534 0
M  V30 6047 C 579.152 -2.43967 -2.49562 0
M  V30 6048 C 580.5 -2.84436 -3.15248 0
M  V30 6049 O 581.524 -2.43597 -2.59883 0
M  V30 6050 O 580.383 -3.55008 -4.1549 0
M  V30 6051 H 577.477 -0.509697 -0.651258 0
M  V30 6052 H 580.023 -1.52603 -0.742312 0
M  V30 6053 H 578.795 -3.36076 -2.0042 0
M  V30 6054 H 578.418 -2.22879 -3.29258 0
M  V30 6055 N 579.415 0.9433 -1.26252 0
M  V30 6056 C 580.692 1.66639 -1.02424 0
M  V30 6057 C 581.072 2.06335 0.446006 0
M  V30 6058 O 580.42 1.78551 1.42589 0
M  V30 6059 C 580.63 2.88019 -1.97094 0
M  V30 6060 C 581.978 3.59718 -2.25584 0
M  V30 6061 O 583.002 2.9812 -1.94943 0
M  V30 6062 O 581.861 4.7066 -2.77743 0
M  V30 6063 H 578.955 0.729643 -0.389294 0
M  V30 6064 H 581.501 0.995218 -1.37454 0
M  V30 6065 H 580.273 2.5556 -2.96319 0
M  V30 6066 H 579.896 3.62863 -1.62532 0
M  V30 6067 N 580.893 1.08022 1.14757 0
M  V30 6068 C 581.856 0.71048 2.1791 0
M  V30 6069 C 582.856 -0.252731 1.58801 0
M  V30 6070 O 584.046 -0.0327915 1.74169 0
M  V30 6071 C 581.178 0.0483203 3.40866 0
M  V30 6072 H 582.371 1.62384 2.52134 0
M  V30 6073 H 579.924 0.877595 1.29337 0
M  V30 6074 H 580.659 -0.876959 3.12218 0
M  V30 6075 H 580.444 0.741189 3.85031 0
M  V30 6076 H 581.934 -0.195471 4.17142 0
M  V30 6077 N 582.371 -1.3172 0.865308 0
M  V30 6078 C 583.281 -2.32394 0.320935 0
M  V30 6079 C 584.297 -1.64511 -0.566746 0
M  V30 6080 O 585.473 -1.95969 -0.464575 0
M  V30 6081 C 582.538 -3.43462 -0.472701 0
M  V30 6082 C 581.599 -4.27015 0.442385 0
M  V30 6083 C 580.832 -5.32779 -0.313469 0
M  V30 6084 O 581.055 -5.49158 -1.54214 0
M  V30 6085 O 579.989 -6.01015 0.326257 0
M  V30 6086 H 583.815 -2.80868 1.15528 0
M  V30 6087 H 581.4 -1.35535 0.628545 0
M  V30 6088 H 583.282 -4.11172 -0.922781 0
M  V30 6089 H 581.957 -2.97159 -1.28367 0
M  V30 6090 H 580.864 -3.62075 0.940866 0
M  V30 6091 H 582.197 -4.76871 1.21882 0
M  V30 6092 N 583.85 -0.624285 -1.44708 0
M  V30 6093 C 584.783 0.133905 -2.27807 0
M  V30 6094 C 585.76 0.857794 -1.38133 0
M  V30 6095 O 586.945 0.863277 -1.6757 0
M  V30 6096 C 584.072 1.19541 -3.16903 0
M  V30 6097 C 583.118 0.572813 -4.22636 0
M  V30 6098 S 583.951 -0.631953 -5.31758 0
M  V30 6099 C 585.106 0.429733 -6.24423 0
M  V30 6100 H 585.34 -0.571072 -2.91764 0
M  V30 6101 H 582.873 -0.412261 -1.48794 0
M  V30 6102 H 584.831 1.80293 -3.68788 0
M  V30 6103 H 583.492 1.87255 -2.5218 0
M  V30 6104 H 582.685 1.37205 -4.84965 0
M  V30 6105 H 582.287 0.0400641 -3.73979 0
M  V30 6106 H 584.579 1.30421 -6.64828 0
M  V30 6107 H 585.522 -0.157804 -7.07924 0
M  V30 6108 H 585.93 0.75256 -5.59461 0
M  V30 6109 N 585.328 1.53329 -0.364422 0
M  V30 6110 C 586.577 2.00421 0.226747 0
M  V30 6111 C 586.89 1.25581 1.49963 0
M  V30 6112 O 588.096 1.63256 2.16933 0
M  V30 6113 C 586.552 3.57017 0.454618 0
M  V30 6114 C 586.16 4.40734 -0.803568 0
M  V30 6115 C 587.904 4.12468 1.00351 0
M  V30 6116 C 585.811 5.8888 -0.545345 0
M  V30 6117 H 584.741 0.748787 0.0885082 0
M  V30 6118 H 587.392 1.7703 -0.482983 0
M  V30 6119 H 585.774 3.76558 1.22558 0
M  V30 6120 H 586.948 4.32967 -1.57723 0
M  V30 6121 H 585.263 3.96381 -1.27559 0
M  V30 6122 H 587.86 5.20783 1.212 0
M  V30 6123 H 588.203 3.6699 1.9653 0
M  V30 6124 H 588.736 3.96721 0.29274 0
M  V30 6125 H 585.475 6.38633 -1.47743 0
M  V30 6126 H 584.995 5.99499 0.189842 0
M  V30 6127 H 586.674 6.46776 -0.170425 0
M  V30 6128 N 586.806 0.0935595 1.57322 0
M  V30 6129 C 588.052 -0.571355 1.94585 0
M  V30 6130 C 588.385 -1.67929 0.975366 0
M  V30 6131 O 587.66 -1.94498 0.00816206 0
M  V30 6132 C 587.943 -1.12797 3.41978 0
M  V30 6133 C 587.796 -0.0251881 4.49793 0
M  V30 6134 C 589.115 -2.02682 3.90651 0
M  V30 6135 H 586.234 -0.206223 0.70756 0
M  V30 6136 H 588.876 0.163956 1.89291 0
M  V30 6137 H 587.026 -1.75461 3.4662 0
M  V30 6138 H 588.698 0.608979 4.57263 0
M  V30 6139 H 586.941 0.641399 4.29032 0
M  V30 6140 H 587.612 -0.455433 5.50118 0
M  V30 6141 H 590.088 -1.49925 3.88152 0
M  V30 6142 H 588.964 -2.38555 4.94351 0
M  V30 6143 H 589.225 -2.94362 3.29854 0
M  V30 6144 N 588.284 -1.56567 -0.180126 0
M  V30 6145 C 589.561 -1.7235 -0.924931 0
M  V30 6146 C 589.941 -0.652523 -2.00762 0
M  V30 6147 O 589.289 0.334115 -2.26044 0
M  V30 6148 C 589.499 -3.1523 -1.49771 0
M  V30 6149 C 590.847 -3.75921 -1.97405 0
M  V30 6150 O 591.871 -3.18452 -1.59583 0
M  V30 6151 O 590.73 -4.7681 -2.67048 0
M  V30 6152 H 587.824 -0.703502 -0.434758 0
M  V30 6153 H 590.37 -1.6886 -0.168647 0
M  V30 6154 H 589.142 -3.84656 -0.718027 0
M  V30 6155 H 588.765 -3.23009 -2.31842 0
M  V30 6156 N 589.762 0.448376 -1.51087 0
M  V30 6157 C 590.725 1.52588 -1.71025 0
M  V30 6158 C 591.725 1.49958 -0.580442 0
M  V30 6159 O 592.915 1.52176 -0.847833 0
M  V30 6160 C 590.047 2.92163 -1.75652 0
M  V30 6161 H 591.24 1.36218 -2.67179 0
M  V30 6162 H 588.793 0.676313 -1.4091 0
M  V30 6163 H 589.528 3.13951 -0.812724 0
M  V30 6164 H 589.313 2.95478 -2.57751 0
M  V30 6165 H 590.803 3.70349 -1.92953 0
M  V30 6166 N 591.24 1.41047 0.703093 0
M  V30 6167 C 592.47 1.43133 1.48985 0
M  V30 6168 C 592.878 0.0328537 1.89171 0
M  V30 6169 O 592.221 -0.956469 1.56835 0
M  V30 6170 C 592.283 2.26991 2.78775 0
M  V30 6171 C 591.947 3.7525 2.60837 0
M  V30 6172 C 592.944 4.67591 2.27276 0
M  V30 6173 C 590.629 4.19208 2.76712 0
M  V30 6174 C 592.623 6.01877 2.09817 0
M  V30 6175 C 590.31 5.53561 2.5887 0
M  V30 6176 C 591.308 6.4471 2.25472 0
M  V30 6177 O 590.996 7.76584 2.07778 0
M  V30 6178 H 590.728 0.489788 0.465922 0
M  V30 6179 H 593.282 1.85886 0.873822 0
M  V30 6180 H 591.512 1.79038 3.42757 0
M  V30 6181 H 593.201 2.20867 3.40547 0
M  V30 6182 H 593.967 4.34923 2.14633 0
M  V30 6183 H 589.846 3.48572 3.01693 0
M  V30 6184 H 593.39 6.72986 1.83671 0
M  V30 6185 H 589.287 5.85811 2.71102 0
M  V30 6186 H 590.055 7.87649 2.22601 0
M  V30 6187 N 592.718 -0.936591 1.26751 0
M  V30 6188 C 593.65 -2.03991 1.045 0
M  V30 6189 C 594.663 -1.628 0.00394261 0
M  V30 6190 O 595.852 -1.76817 0.244526 0
M  V30 6191 C 592.952 -3.34218 0.561403 0
M  V30 6192 C 592.125 -4.04151 1.67274 0
M  V30 6193 C 591.184 -5.12651 1.1864 0
M  V30 6194 O 590.21 -5.37104 1.88437 0
M  V30 6195 N 591.412 -5.80488 0.037278 0
M  V30 6196 H 594.177 -2.23644 1.99508 0
M  V30 6197 H 591.738 -1.10638 1.18198 0
M  V30 6198 H 593.73 -4.04101 0.220136 0
M  V30 6199 H 592.3 -3.11203 -0.295211 0
M  V30 6200 H 591.52 -3.28121 2.18472 0
M  V30 6201 H 592.808 -4.47626 2.41885 0
M  V30 6202 H 592.206 -5.63064 -0.545494 0
M  V30 6203 H 590.763 -6.5134 -0.244877 0
M  V30 6204 N 594.196 -1.08629 -1.14182 0
M  V30 6205 C 595.444 -0.815731 -1.84906 0
M  V30 6206 C 595.765 0.660441 -1.83475 0
M  V30 6207 O 595.035 1.47888 -1.28476 0
M  V30 6208 H 593.615 -0.298773 -0.684648 0
M  V30 6209 H 596.277 -1.37274 -1.38354 0
M  V30 6210 H 595.373 -1.16193 -2.89665 0
M  V30 6211 N 595.674 1.31259 -0.872281 0
M  V30 6212 C 597.09 1.49283 -0.564521 0
M  V30 6213 C 597.29 1.80243 0.900807 0
M  V30 6214 O 596.346 1.88246 1.68284 0
M  V30 6215 C 597.659 2.62503 -1.46673 0
M  V30 6216 C 599.207 2.76386 -1.46901 0
M  V30 6217 C 599.682 3.92705 -2.35684 0
M  V30 6218 N 601.173 3.99995 -2.33577 0
M  V30 6219 C 601.908 4.89276 -2.98992 0
M  V30 6220 N 601.404 5.83443 -3.73585 0
M  V30 6221 N 603.197 4.82541 -2.88289 0
M  V30 6222 H 595.348 1.09432 -1.82039 0
M  V30 6223 H 597.611 0.540949 -0.77851 0
M  V30 6224 H 597.317 2.46407 -2.50951 0
M  V30 6225 H 597.191 3.58695 -1.16696 0
M  V30 6226 H 599.578 2.91894 -0.433796 0
M  V30 6227 H 599.659 1.80853 -1.80903 0
M  V30 6228 H 599.303 3.77954 -3.39283 0
M  V30 6229 H 599.233 4.87549 -1.99006 0
M  V30 6230 H 601.724 3.32624 -1.7936 0
M  V30 6231 H 602.037 6.48303 -4.20622 0
M  V30 6232 H 600.382 5.83415 -3.77694 0
M  V30 6233 H 603.573 4.07951 -2.2955 0
M  V30 6234 H 603.746 5.51916 -3.39549 0
M  V30 6235 N 597.152 0.631951 1.44375 0
M  V30 6236 C 598.401 0.134214 2.01253 0
M  V30 6237 C 598.714 -1.25171 1.50305 0
M  V30 6238 O 599.92 -1.8435 1.99317 0
M  V30 6239 C 598.376 0.189187 3.59402 0
M  V30 6240 C 597.984 1.57647 4.19346 0
M  V30 6241 C 599.728 -0.252044 4.23751 0
M  V30 6242 C 597.635 1.58651 5.69722 0
M  V30 6243 H 596.565 0.0464101 0.75257 0
M  V30 6244 H 599.216 0.790868 1.65582 0
M  V30 6245 H 597.598 -0.534584 3.92375 0
M  V30 6246 H 598.772 2.32389 3.97909 0
M  V30 6247 H 597.087 1.96186 3.67288 0
M  V30 6248 H 599.684 -0.264084 5.34047 0
M  V30 6249 H 600.027 -1.27951 3.96149 0
M  V30 6250 H 600.56 0.41926 3.95584 0
M  V30 6251 H 597.299 2.59237 6.0206 0
M  V30 6252 H 596.819 0.882039 5.93279 0
M  V30 6253 H 598.498 1.32082 6.33375 0
M  V30 6254 N 598.631 -1.53133 0.372548 0
M  V30 6255 C 599.878 -2.01356 -0.214959 0
M  V30 6256 C 600.206 -1.2596 -1.48204 0
M  V30 6257 O 599.461 -0.343511 -1.92662 0
M  V30 6258 C 599.76 -3.53206 -0.545938 0
M  V30 6259 C 599.426 -4.46511 0.627624 0
M  V30 6260 C 598.088 -4.71737 0.949615 0
M  V30 6261 C 600.44 -5.01666 1.41353 0
M  V30 6262 C 597.768 -5.4937 2.05936 0
M  V30 6263 C 600.12 -5.80511 2.51375 0
M  V30 6264 C 598.784 -6.04022 2.84101 0
M  V30 6265 H 598.054 -0.736813 -0.078659 0
M  V30 6266 H 600.701 -1.84682 0.506447 0
M  V30 6267 H 599.006 -3.67864 -1.34845 0
M  V30 6268 H 600.703 -3.87997 -1.01287 0
M  V30 6269 H 597.293 -4.27029 0.366635 0
M  V30 6270 H 601.477 -4.82117 1.17802 0
M  V30 6271 H 596.733 -5.65803 2.31682 0
M  V30 6272 H 600.907 -6.22255 3.12684 0
M  V30 6273 H 598.534 -6.63962 3.70214 0
M  V30 6274 N 600.109 -0.101901 -1.5727 0
M  V30 6275 C 601.358 0.559922 -1.93772 0
M  V30 6276 C 601.671 1.68913 -0.98629 0
M  V30 6277 O 602.877 2.41256 -1.24529 0
M  V30 6278 C 601.333 1.04739 -3.44322 0
M  V30 6279 C 600.941 -0.05243 -4.47969 0
M  V30 6280 C 602.685 1.68157 -3.89774 0
M  V30 6281 C 600.592 0.450781 -5.8968 0
M  V30 6282 H 599.522 0.212931 -0.723309 0
M  V30 6283 H 602.173 -0.179001 -1.82625 0
M  V30 6284 H 600.555 1.84021 -3.50645 0
M  V30 6285 H 601.729 -0.828157 -4.53297 0
M  V30 6286 H 600.044 -0.592202 -4.12167 0
M  V30 6287 H 602.641 2.0689 -4.93052 0
M  V30 6288 H 602.984 2.55338 -3.28798 0
M  V30 6289 H 603.517 0.954453 -3.8618 0
M  V30 6290 H 600.256 -0.38458 -6.54371 0
M  V30 6291 H 599.776 1.19336 -5.87809 0
M  V30 6292 H 601.455 0.917555 -6.40461 0
M  V30 6293 N 601.587 1.56661 0.17182 0
M  V30 6294 C 602.535 1.97289 1.23207 0
M  V30 6295 C 603.529 0.861566 1.45854 0
M  V30 6296 O 604.735 1.04668 1.4644 0
M  V30 6297 H 601.11 0.627681 0.41415 0
M  V30 6298 H 603.081 2.85662 0.862542 0
M  V30 6299 C 601.83 2.34849 2.564 0
M  V30 6300 H 601.153 3.19903 2.39797 0
M  V30 6301 H 602.593 2.67121 3.29276 0
M  V30 6302 C 601.052 1.19172 3.15119 0
M  V30 6303 O 601.582 0.479113 3.98833 0
M  V30 6304 N 599.788 0.962415 2.74201 0
M  V30 6305 H 599.335 1.54365 2.06226 0
M  V30 6306 H 599.293 0.190272 3.13824 0
M  V30 6307 N 603.065 -0.440357 1.51323 0
M  V30 6308 C 604.476 -1.02032 1.56353 0
M  V30 6309 C 604.827 -1.92382 0.385197 0
M  V30 6310 O 603.952 -2.10583 -0.498373 0
M  V30 6311 C 604.547 -1.85723 2.83359 0
M  V30 6312 C 603.106 -2.38774 2.90971 0
M  V30 6313 C 602.253 -1.17908 2.50984 0
M  V30 6314 H 605.204 -0.221744 1.57143 0
M  V30 6315 H 605.225 -2.71141 2.66951 0
M  V30 6316 H 604.737 -1.19939 3.69102 0
M  V30 6317 H 602.838 -3.08021 2.09651 0
M  V30 6318 H 602.951 -2.71778 3.94555 0
M  V30 6319 H 601.315 -1.52347 2.04114 0
M  V30 6320 H 602.098 -0.537393 3.39068 0
M  V30 6321 N 604.543 -1.41418 -0.695603 0
M  V30 6322 C 605.954 -1.36335 -1.27552 0
M  V30 6323 C 606.305 -0.0464336 -1.96145 0
M  V30 6324 O 605.43 0.855304 -1.9878 0
M  V30 6325 C 606.025 -2.46941 -2.3196 0
M  V30 6326 C 604.584 -2.45256 -2.85529 0
M  V30 6327 C 603.731 -2.2679 -1.59566 0
M  V30 6328 H 606.682 -1.50934 -0.490362 0
M  V30 6329 H 606.703 -2.15997 -3.1325 0
M  V30 6330 H 606.215 -3.42775 -1.82008 0
M  V30 6331 H 604.316 -1.53179 -3.39657 0
M  V30 6332 H 604.429 -3.41565 -3.35961 0
M  V30 6333 H 602.793 -1.74667 -1.85374 0
M  V30 6334 H 603.576 -3.24651 -1.1161 0
M  V30 6335 N 606.021 0.929856 -1.27246 0
M  V30 6336 C 607.437 1.20542 -1.04603 0
M  V30 6337 C 607.637 2.00276 0.221754 0
M  V30 6338 O 606.693 2.34835 0.927833 0
M  V30 6339 C 608.006 1.95566 -2.28417 0
M  V30 6340 C 609.554 2.08513 -2.33433 0
M  V30 6341 C 610.029 2.86943 -3.5697 0
M  V30 6342 N 611.52 2.94512 -3.57515 0
M  V30 6343 C 612.255 3.55656 -4.49774 0
M  V30 6344 N 611.751 4.18209 -5.52334 0
M  V30 6345 N 613.544 3.53038 -4.37402 0
M  V30 6346 H 605.695 0.397113 -2.08655 0
M  V30 6347 H 607.958 0.238277 -0.917566 0
M  V30 6348 H 607.664 1.44395 -3.20691 0
M  V30 6349 H 607.538 2.9619 -2.33563 0
M  V30 6350 H 609.925 2.58872 -1.41666 0
M  V30 6351 H 610.006 1.07117 -2.32292 0
M  V30 6352 H 609.65 2.37268 -4.49072 0
M  V30 6353 H 609.58 3.8862 -3.55362 0
M  V30 6354 H 612.071 2.50053 -2.83341 0
M  V30 6355 H 612.384 4.62796 -6.18902 0
M  V30 6356 H 610.729 4.16761 -5.56179 0
M  V30 6357 H 613.92 3.0337 -3.56489 0
M  V30 6358 H 614.093 4.004 -5.09493 0
M  V30 6359 N 607.499 1.09233 1.13605 0
M  V30 6360 C 608.915 0.82163 1.36826 0
M  V30 6361 C 609.115 -0.565021 1.93416 0
M  V30 6362 O 608.171 -1.32026 2.15234 0
M  V30 6363 C 609.484 1.91124 2.32147 0
M  V30 6364 C 611.032 1.93824 2.45767 0
M  V30 6365 C 611.507 3.01923 3.44393 0
M  V30 6366 N 612.998 3.01149 3.51942 0
M  V30 6367 C 613.733 3.81434 4.2813 0
M  V30 6368 N 613.229 4.71621 5.07489 0
M  V30 6369 N 615.022 3.69702 4.23411 0
M  V30 6370 H 607.173 1.98633 0.752234 0
M  V30 6371 H 609.436 0.862482 0.393482 0
M  V30 6372 H 609.142 2.90862 1.97717 0
M  V30 6373 H 609.016 1.78777 3.32142 0
M  V30 6374 H 611.403 0.94726 2.79483 0
M  V30 6375 H 611.484 2.10248 1.45703 0
M  V30 6376 H 611.128 4.01232 3.11408 0
M  V30 6377 H 611.058 2.82742 4.44257 0
M  V30 6378 H 613.549 2.35789 2.95317 0
M  V30 6379 H 613.862 5.29468 5.62924 0
M  V30 6380 H 612.207 4.75658 5.06729 0
M  V30 6381 H 615.398 2.98606 3.60489 0
M  V30 6382 H 615.571 4.32509 4.82535 0
M  V30 6383 N 608.977 -1.30795 0.87923 0
M  V30 6384 C 609.91 -2.26396 0.286404 0
M  V30 6385 C 610.888 -1.51528 -0.589748 0
M  V30 6386 O 612.072 -1.80566 -0.541119 0
M  V30 6387 C 609.199 -3.33458 -0.593581 0
M  V30 6388 C 608.245 -4.2597 0.21247 0
M  V30 6389 S 609.078 -5.11132 1.59702 0
M  V30 6390 C 610.234 -6.21705 0.723408 0
M  V30 6391 H 610.467 -2.7633 1.09677 0
M  V30 6392 H 608 -1.38703 0.678305 0
M  V30 6393 H 609.958 -3.9561 -1.09557 0
M  V30 6394 H 608.619 -2.82259 -1.37799 0
M  V30 6395 H 607.812 -5.01907 -0.458822 0
M  V30 6396 H 607.414 -3.68363 0.646883 0
M  V30 6397 H 609.706 -6.77472 -0.0620739 0
M  V30 6398 H 610.649 -6.93007 1.4542 0
M  V30 6399 H 611.057 -5.63771 0.286855 0
M  V30 6400 N 610.455 -0.639598 -1.44038 0
M  V30 6401 C 611.871 -0.305953 -1.5664 0
M  V30 6402 C 612.071 1.19055 -1.62567 0
M  V30 6403 O 611.127 1.97492 -1.57331 0
M  V30 6404 C 612.44 -1.00533 -2.83397 0
M  V30 6405 C 613.988 -0.984278 -2.97121 0
M  V30 6406 C 614.463 -1.66428 -4.26691 0
M  V30 6407 N 615.954 -1.63127 -4.33525 0
M  V30 6408 C 616.689 -2.12629 -5.32519 0
M  V30 6409 N 616.185 -2.70359 -6.3787 0
M  V30 6410 N 617.978 -2.03208 -5.24083 0
M  V30 6411 H 610.129 -1.6109 -1.38434 0
M  V30 6412 H 612.392 -0.676672 -0.663942 0
M  V30 6413 H 612.098 -2.06034 -2.85032 0
M  V30 6414 H 611.972 -0.548362 -3.73193 0
M  V30 6415 H 614.359 0.0622792 -2.95034 0
M  V30 6416 H 614.44 -1.47981 -2.08651 0
M  V30 6417 H 614.084 -2.71034 -4.29538 0
M  V30 6418 H 614.014 -1.14351 -5.14034 0
M  V30 6419 H 616.505 -1.20987 -3.58009 0
M  V30 6420 H 616.818 -3.05842 -7.09704 0
M  V30 6421 H 615.163 -2.74414 -6.38531 0
M  V30 6422 H 618.354 -1.57823 -4.40692 0
M  V30 6423 H 618.527 -2.42097 -6.01077 0
M  V30 6424 N 611.933 1.52934 -0.380664 0
M  V30 6425 C 612.865 2.23822 0.493581 0
M  V30 6426 C 613.878 1.25761 1.03383 0
M  V30 6427 O 615.067 1.5189 0.937633 0
M  V30 6428 C 612.167 2.9342 1.69582 0
M  V30 6429 C 611.34 4.18115 1.28445 0
M  V30 6430 C 610.399 4.70788 2.35042 0
M  V30 6431 O 609.425 5.34093 1.96807 0
M  V30 6432 N 610.627 4.49899 3.66839 0
M  V30 6433 H 613.392 2.99484 -0.11371 0
M  V30 6434 H 610.953 1.60577 -0.206587 0
M  V30 6435 H 612.945 3.2556 2.40401 0
M  V30 6436 H 611.515 2.21119 2.20965 0
M  V30 6437 H 610.735 3.92109 0.405503 0
M  V30 6438 H 612.023 4.99152 0.986132 0
M  V30 6439 H 611.421 3.99349 4.0067 0
M  V30 6440 H 609.978 4.86551 4.33718 0
M  V30 6441 N 613.412 0.11024 1.57214 0
M  V30 6442 C 614.828 -0.24638 1.57687 0
M  V30 6443 C 615.028 -1.67344 1.12241 0
M  V30 6444 O 614.084 -2.39298 0.805783 0
M  V30 6445 C 615.397 -0.0210288 3.00693 0
M  V30 6446 C 616.945 -0.0876077 3.12877 0
M  V30 6447 C 617.42 0.10994 4.57868 0
M  V30 6448 N 618.911 0.0556135 4.63167 0
M  V30 6449 C 619.646 0.183495 5.73106 0
M  V30 6450 N 619.142 0.367058 6.91827 0
M  V30 6451 N 620.935 0.123689 5.61964 0
M  V30 6452 H 613.086 1.04246 1.85058 0
M  V30 6453 H 615.349 0.40979 0.854854 0
M  V30 6454 H 615.055 0.965203 3.38196 0
M  V30 6455 H 614.929 -0.756748 3.69531 0
M  V30 6456 H 617.316 -1.06436 2.75237 0
M  V30 6457 H 617.397 0.67985 2.466 0
M  V30 6458 H 617.041 1.08362 4.96206 0
M  V30 6459 H 616.971 -0.677397 5.22225 0
M  V30 6460 H 619.462 -0.0831062 3.77809 0
M  V30 6461 H 619.775 0.455739 7.71455 0
M  V30 6462 H 618.12 0.40292 6.93831 0
M  V30 6463 H 621.311 -0.0186928 4.68096 0
M  V30 6464 H 621.484 0.226797 6.47603 0
M  V30 6465 N 614.89 -1.56749 -0.16351 0
M  V30 6466 C 616.12 -1.86307 -0.892936 0
M  V30 6467 C 616.528 -0.6945 -1.75992 0
M  V30 6468 O 615.871 0.345384 -1.80424 0
M  V30 6469 C 615.933 -3.10372 -1.81409 0
M  V30 6470 C 615.597 -4.42913 -1.12593 0
M  V30 6471 C 616.594 -5.17608 -0.487661 0
M  V30 6472 C 614.279 -4.89646 -1.12035 0
M  V30 6473 C 616.273 -6.3723 0.14699 0
M  V30 6474 C 613.96 -6.09197 -0.481883 0
M  V30 6475 C 614.958 -6.82834 0.150678 0
M  V30 6476 O 614.646 -8.00116 0.779065 0
M  V30 6477 H 614.378 -0.622126 -0.264452 0
M  V30 6478 H 616.932 -2.04728 -0.166063 0
M  V30 6479 H 615.162 -2.87917 -2.58148 0
M  V30 6480 H 616.851 -3.26312 -2.41403 0
M  V30 6481 H 617.617 -4.8258 -0.483888 0
M  V30 6482 H 613.496 -4.32265 -1.60212 0
M  V30 6483 H 617.04 -6.94646 0.641325 0
M  V30 6484 H 612.937 -6.43688 -0.483266 0
M  V30 6485 H 613.705 -8.15678 0.679089 0
M  V30 6486 N 616.368 0.432326 -1.51554 0
M  V30 6487 C 617.315 1.52512 -1.7323 0
M  V30 6488 C 618.285 1.55863 -0.5741 0
M  V30 6489 O 619.47 1.72796 -0.809093 0
M  V30 6490 C 616.61 2.90183 -1.86783 0
M  V30 6491 C 615.723 2.96322 -3.14352 0
M  V30 6492 C 614.858 4.25147 -3.18471 0
M  V30 6493 C 613.897 4.25172 -4.40335 0
M  V30 6494 N 613.034 5.45529 -4.41975 0
M  V30 6495 H 617.874 1.33332 -2.66508 0
M  V30 6496 H 615.411 0.647613 -1.32077 0
M  V30 6497 H 617.369 3.70071 -1.92623 0
M  V30 6498 H 615.999 3.0791 -0.969087 0
M  V30 6499 H 615.051 2.09066 -3.17798 0
M  V30 6500 H 616.363 2.92203 -4.04251 0
M  V30 6501 H 615.517 5.13411 -3.23255 0
M  V30 6502 H 614.256 4.31929 -2.2647 0
M  V30 6503 H 613.261 3.353 -4.35723 0
M  V30 6504 H 614.486 4.20049 -5.33606 0
M  V30 6505 H 612.432 5.53024 -3.52847 0
M  V30 6506 H 612.349 5.43311 -5.25689 0
M  V30 6507 H 613.617 6.35812 -4.50958 0
M  V30 6508 N 617.846 1.41785 0.688094 0
M  V30 6509 C 618.756 1.46596 1.83158 0
M  V30 6510 C 619.772 0.355862 1.70322 0
M  V30 6511 O 620.948 0.604737 1.92106 0
M  V30 6512 C 618.013 1.35322 3.192 0
M  V30 6513 C 617.074 2.56711 3.4409 0
M  V30 6514 C 616.307 2.45965 4.73642 0
M  V30 6515 O 616.53 1.48827 5.50642 0
M  V30 6516 O 615.464 3.35859 4.99482 0
M  V30 6517 H 619.29 2.43083 1.82056 0
M  V30 6518 H 616.875 1.23404 0.842126 0
M  V30 6519 H 618.757 1.31347 4.00407 0
M  V30 6520 H 617.432 0.419536 3.2097 0
M  V30 6521 H 616.339 2.66262 2.62784 0
M  V30 6522 H 617.672 3.48933 3.47141 0
M  V30 6523 N 619.324 -0.923095 1.27737 0
M  V30 6524 C 620.573 -1.66581 1.13727 0
M  V30 6525 C 620.886 -1.9304 -0.315433 0
M  V30 6526 O 622.092 -2.65309 -0.57651 0
M  V30 6527 C 620.548 -3.00047 1.98745 0
M  V30 6528 C 620.156 -2.8127 3.48699 0
M  V30 6529 C 621.9 -3.77887 1.93395 0
M  V30 6530 C 619.807 -4.1032 4.25901 0
M  V30 6531 H 618.737 -0.624834 0.422017 0
M  V30 6532 H 621.388 -1.02514 1.52194 0
M  V30 6533 H 619.77 -3.65197 1.53125 0
M  V30 6534 H 620.944 -2.24859 4.02213 0
M  V30 6535 H 619.259 -2.16854 3.55476 0
M  V30 6536 H 621.856 -4.73526 2.48348 0
M  V30 6537 H 622.199 -4.06264 0.908605 0
M  V30 6538 H 622.732 -3.19541 2.36935 0
M  V30 6539 H 619.471 -3.8712 5.28978 0
M  V30 6540 H 618.991 -4.66377 3.77163 0
M  V30 6541 H 620.67 -4.78648 4.35321 0
M  V30 6542 N 620.802 -1.09834 -1.13024 0
M  V30 6543 C 621.734 -0.699379 -2.18269 0
M  V30 6544 C 622.747 0.260841 -1.60697 0
M  V30 6545 O 623.936 0.0462538 -1.7844 0
M  V30 6546 C 621.036 -0.0104537 -3.38898 0
M  V30 6547 C 620.209 -0.993275 -4.25973 0
M  V30 6548 C 619.268 -0.336982 -5.2512 0
M  V30 6549 O 618.294 -0.985892 -5.60597 0
M  V30 6550 N 619.496 0.90716 -5.73368 0
M  V30 6551 H 622.261 -1.60486 -2.5311 0
M  V30 6552 H 619.822 -0.986337 -1.28386 0
M  V30 6553 H 621.814 0.43991 -4.02302 0
M  V30 6554 H 620.384 0.797335 -3.0226 0
M  V30 6555 H 619.604 -1.62208 -3.5928 0
M  V30 6556 H 620.892 -1.65876 -4.81002 0
M  V30 6557 H 620.29 1.45384 -5.46699 0
M  V30 6558 H 618.847 1.30077 -6.38689 0
M  V30 6559 N 622.28 1.30327 -0.886154 0
M  V30 6560 C 623.227 2.28099 -0.352069 0
M  V30 6561 C 624.197 1.56433 0.558397 0
M  V30 6562 O 625.382 1.84492 0.486561 0
M  V30 6563 C 622.522 3.42456 0.426346 0
M  V30 6564 C 621.635 4.28938 -0.513472 0
M  V30 6565 C 620.77 5.30458 0.280657 0
M  V30 6566 C 619.809 6.0859 -0.654556 0
M  V30 6567 N 618.946 7.02022 0.104322 0
M  V30 6568 H 623.786 2.73166 -1.19097 0
M  V30 6569 H 621.323 1.34367 -0.598662 0
M  V30 6570 H 623.281 4.07518 0.893587 0
M  V30 6571 H 621.911 2.98455 1.22981 0
M  V30 6572 H 620.963 3.64173 -1.09921 0
M  V30 6573 H 622.275 4.83399 -1.2299 0
M  V30 6574 H 621.429 6.01273 0.8097 0
M  V30 6575 H 620.168 4.76693 1.03029 0
M  V30 6576 H 619.173 5.36651 -1.19522 0
M  V30 6577 H 620.398 6.64443 -1.4033 0
M  V30 6578 H 618.344 6.50645 0.836472 0
M  V30 6579 H 618.261 7.53979 -0.552453 0
M  V30 6580 H 619.529 7.77077 0.614069 0
M  V30 6581 N 623.758 0.647228 1.43697 0
M  V30 6582 C 624.668 -0.0487997 2.34549 0
M  V30 6583 C 625.684 -0.818586 1.53542 0
M  V30 6584 O 626.86 -0.767195 1.86215 0
M  V30 6585 C 623.925 -1.00734 3.31743 0
M  V30 6586 C 622.986 -0.23515 4.28655 0
M  V30 6587 C 622.219 -1.14803 5.21206 0
M  V30 6588 O 622.442 -2.38717 5.18045 0
M  V30 6589 O 621.376 -0.623667 5.9866 0
M  V30 6590 H 625.202 0.698863 2.9555 0
M  V30 6591 H 622.787 0.407412 1.43738 0
M  V30 6592 H 624.669 -1.55837 3.91526 0
M  V30 6593 H 623.344 -1.73534 2.73254 0
M  V30 6594 H 622.251 0.359319 3.7237 0
M  V30 6595 H 623.584 0.453152 4.9011 0
M  V30 6596 N 625.236 -1.5273 0.388769 0
M  V30 6597 C 626.146 -2.30165 -0.453993 0
M  V30 6598 C 627.162 -1.37058 -1.07197 0
M  V30 6599 O 628.338 -1.70127 -1.0779 0
M  V30 6600 C 625.403 -3.09303 -1.56628 0
M  V30 6601 C 624.464 -4.18117 -0.973467 0
M  V30 6602 C 623.697 -4.93472 -2.03275 0
M  V30 6603 O 623.92 -4.68913 -3.24772 0
M  V30 6604 O 622.854 -5.78833 -1.65034 0
M  V30 6605 H 626.68 -3.03185 0.176816 0
M  V30 6606 H 624.265 -1.4862 0.152501 0
M  V30 6607 H 626.147 -3.58648 -2.21246 0
M  V30 6608 H 624.822 -2.39098 -2.18206 0
M  V30 6609 H 623.729 -3.7297 -0.290556 0
M  V30 6610 H 625.062 -4.90556 -0.401908 0
M  V30 6611 N 626.714 -0.118576 -1.57153 0
M  V30 6612 C 627.624 0.845484 -2.18835 0
M  V30 6613 C 628.64 1.29299 -1.16438 0
M  V30 6614 O 629.816 1.35607 -1.48905 0
M  V30 6615 C 626.881 2.07795 -2.77529 0
M  V30 6616 C 625.942 1.6824 -3.9496 0
M  V30 6617 C 625.175 2.85612 -4.50845 0
M  V30 6618 O 625.398 4.01025 -4.05629 0
M  V30 6619 O 624.332 2.62721 -5.41536 0
M  V30 6620 H 628.158 0.350568 -3.0167 0
M  V30 6621 H 625.743 0.107013 -1.49016 0
M  V30 6622 H 627.625 2.79978 -3.14945 0
M  V30 6623 H 626.3 2.56294 -1.97725 0
M  V30 6624 H 625.207 0.931663 -3.62313 0
M  V30 6625 H 626.54 1.24484 -4.76198 0
M  V30 6626 N 628.193 1.56834 0.155195 0
M  V30 6627 C 629.125 1.94235 1.21677 0
M  V30 6628 C 630.138 0.83724 1.39621 0
M  V30 6629 O 631.327 1.11567 1.39338 0
M  V30 6630 C 628.427 2.19402 2.58294 0
M  V30 6631 C 627.6 3.50671 2.61436 0
M  V30 6632 C 626.659 3.64475 3.79532 0
M  V30 6633 O 625.685 4.36945 3.64784 0
M  V30 6634 N 626.887 3.00526 4.96653 0
M  V30 6635 H 629.652 2.85901 0.898932 0
M  V30 6636 H 627.213 1.58185 0.34483 0
M  V30 6637 H 629.205 2.25886 3.35794 0
M  V30 6638 H 627.775 1.34042 2.82403 0
M  V30 6639 H 626.995 3.55702 1.69912 0
M  V30 6640 H 628.283 4.3702 2.60559 0
M  V30 6641 H 627.681 2.41549 5.11538 0
M  V30 6642 H 626.238 3.12583 5.71958 0
M  V30 6643 N 629.671 -0.424282 1.51781 0
M  V30 6644 C 630.92 -1.16961 1.64326 0
M  V30 6645 C 631.233 -1.92035 0.371749 0
M  V30 6646 O 632.439 -2.68873 0.37676 0
M  V30 6647 C 630.895 -2.12782 2.90262 0
M  V30 6648 C 630.503 -1.43295 4.24465 0
M  V30 6649 C 632.247 -2.87667 3.12166 0
M  V30 6650 C 630.154 -2.37676 5.41538 0
M  V30 6651 H 629.084 -0.440293 0.612093 0
M  V30 6652 H 631.735 -0.435431 1.78259 0
M  V30 6653 H 630.117 -2.8969 2.69992 0
M  V30 6654 H 631.291 -0.718564 4.55163 0
M  V30 6655 H 629.606 -0.805118 4.08542 0
M  V30 6656 H 632.203 -3.58395 3.96808 0
M  V30 6657 H 632.546 -3.49758 2.25776 0
M  V30 6658 H 633.079 -2.17863 3.32837 0
M  V30 6659 H 629.818 -1.80255 6.30229 0
M  V30 6660 H 629.338 -3.07132 5.15199 0
M  V30 6661 H 631.017 -2.98529 5.74012 0
M  V30 6662 N 631.149 -1.42148 -0.680565 0
M  V30 6663 C 632.112 -1.4488 -1.77602 0
M  V30 6664 C 633.112 -0.337209 -1.57224 0
M  V30 6665 O 634.302 -0.597778 -1.63622 0
M  V30 6666 C 631.434 -1.27483 -3.16166 0
M  V30 6667 H 632.627 -2.42412 -1.76568 0
M  V30 6668 H 630.18 -1.28511 -0.889645 0
M  V30 6669 H 630.915 -0.30851 -3.22829 0
M  V30 6670 H 630.7 -2.08037 -3.3236 0
M  V30 6671 H 632.19 -1.32265 -3.96101 0
M  V30 6672 N 632.627 0.916307 -1.28225 0
M  V30 6673 C 633.574 2.01841 -1.11932 0
M  V30 6674 C 634.544 1.66091 -0.0171604 0
M  V30 6675 O 635.729 1.89934 -0.181617 0
M  V30 6676 C 632.869 3.36065 -0.784504 0
M  V30 6677 C 631.982 3.847 -1.96544 0
M  V30 6678 C 631.117 5.07423 -1.57149 0
M  V30 6679 C 630.156 5.48384 -2.71922 0
M  V30 6680 N 629.293 6.62298 -2.33037 0
M  V30 6681 H 634.133 2.1511 -2.06232 0
M  V30 6682 H 631.67 1.05366 -1.02647 0
M  V30 6683 H 633.628 4.13272 -0.571148 0
M  V30 6684 H 632.258 3.22571 0.121565 0
M  V30 6685 H 631.31 3.03673 -2.291 0
M  V30 6686 H 632.622 4.1102 -2.82603 0
M  V30 6687 H 631.776 5.92165 -1.32004 0
M  V30 6688 H 630.515 4.82906 -0.682153 0
M  V30 6689 H 629.52 4.62184 -2.97768 0
M  V30 6690 H 630.745 5.7489 -3.61494 0
M  V30 6691 H 628.691 6.39416 -1.4657 0
M  V30 6692 H 628.608 6.8833 -3.12631 0
M  V30 6693 H 629.876 7.50352 -2.11169 0
M  V30 6694 N 634.105 1.10431 1.1244 0
M  V30 6695 C 635.382 0.758797 1.80282 0
M  V30 6696 C 635.762 -0.754727 1.97147 0
M  V30 6697 O 635.11 -1.68094 1.54779 0
M  V30 6698 C 635.32 1.50982 3.14651 0
M  V30 6699 C 636.668 1.68232 3.8985 0
M  V30 6700 O 637.692 1.47319 3.24308 0
M  V30 6701 O 636.551 2.02905 5.07437 0
M  V30 6702 H 633.645 0.273756 0.780376 0
M  V30 6703 H 636.191 1.20713 1.19275 0
M  V30 6704 H 634.963 2.53989 2.97666 0
M  V30 6705 H 634.586 1.05435 3.83366 0
M  V30 6706 N 635.583 -1.29855 0.893053 0
M  V30 6707 C 636.513 -2.3035 0.382249 0
M  V30 6708 C 637.494 -1.61328 -0.539203 0
M  V30 6709 O 638.679 -1.88882 -0.451342 0
M  V30 6710 C 635.809 -3.45024 -0.396983 0
M  V30 6711 C 634.763 -4.258 0.433437 0
M  V30 6712 C 634.089 -5.32605 -0.472889 0
M  V30 6713 C 635.389 -4.94549 1.67984 0
M  V30 6714 H 637.083 -2.73325 1.22205 0
M  V30 6715 H 634.629 -1.314 0.589073 0
M  V30 6716 H 636.582 -4.14398 -0.765024 0
M  V30 6717 H 635.306 -3.00875 -1.2705 0
M  V30 6718 H 633.965 -3.58125 0.783723 0
M  V30 6719 H 633.613 -4.84702 -1.34435 0
M  V30 6720 H 633.313 -5.87547 0.0789958 0
M  V30 6721 H 634.837 -6.04832 -0.837269 0
M  V30 6722 H 636.251 -5.56395 1.38192 0
M  V30 6723 H 634.648 -5.59393 2.17254 0
M  V30 6724 H 635.718 -4.20215 2.41965 0
M  V30 6725 N 637.061 -0.65484 -1.43351 0
M  V30 6726 C 638.008 0.0357713 -2.30772 0
M  V30 6727 C 638.978 0.813035 -1.44841 0
M  V30 6728 O 640.163 0.789314 -1.73708 0
M  V30 6729 C 637.303 0.995084 -3.30442 0
M  V30 6730 C 636.416 0.21375 -4.31471 0
M  V30 6731 C 635.551 1.16701 -5.18222 0
M  V30 6732 C 634.59 0.376201 -6.10943 0
M  V30 6733 N 633.727 1.28113 -6.90313 0
M  V30 6734 H 638.567 -0.71559 -2.89281 0
M  V30 6735 H 636.104 -0.364645 -1.42509 0
M  V30 6736 H 638.062 1.5649 -3.86739 0
M  V30 6737 H 636.692 1.7133 -2.7358 0
M  V30 6738 H 635.744 -0.472377 -3.77456 0
M  V30 6739 H 637.056 -0.401103 -4.97185 0
M  V30 6740 H 636.21 1.8074 -5.79153 0
M  V30 6741 H 634.949 1.81577 -4.52638 0
M  V30 6742 H 633.954 -0.277534 -5.49099 0
M  V30 6743 H 635.179 -0.268178 -6.7857 0
M  V30 6744 H 633.125 1.91666 -6.27376 0
M  V30 6745 H 633.042 0.720879 -7.52555 0
M  V30 6746 H 634.31 1.90962 -7.55747 0
M  V30 6747 N 638.539 1.52521 -0.396863 0
M  V30 6748 C 639.471 2.24333 0.469814 0
M  V30 6749 C 640.484 1.2685 1.02043 0
M  V30 6750 O 641.673 1.52876 0.92147 0
M  V30 6751 C 638.773 2.95202 1.66461 0
M  V30 6752 C 637.946 4.19454 1.24003 0
M  V30 6753 C 637.005 4.73255 2.30036 0
M  V30 6754 O 636.031 5.36151 1.91131 0
M  V30 6755 N 637.233 4.53765 3.62047 0
M  V30 6756 H 639.998 2.99347 -0.145468 0
M  V30 6757 H 637.559 1.60348 -0.223606 0
M  V30 6758 H 639.551 3.28092 2.36934 0
M  V30 6759 H 638.121 2.2345 2.18607 0
M  V30 6760 H 637.341 3.92517 0.363892 0
M  V30 6761 H 638.629 5.0017 0.933135 0
M  V30 6762 H 638.027 4.03576 3.96412 0
M  V30 6763 H 636.584 4.91124 4.28533 0
M  V30 6764 N 640.017 0.126909 1.57088 0
M  V30 6765 C 641.247 -0.535892 1.99529 0
M  V30 6766 C 641.655 -1.60259 1.00566 0
M  V30 6767 O 640.998 -1.83698 -0.00843269 0
M  V30 6768 C 641.06 -1.21374 3.38391 0
M  V30 6769 C 640.724 -0.294044 4.56053 0
M  V30 6770 C 641.721 0.470454 5.17767 0
M  V30 6771 C 639.406 -0.202808 5.0189 0
M  V30 6772 C 641.4 1.31384 6.23712 0
M  V30 6773 C 639.087 0.644203 6.07695 0
M  V30 6774 C 640.085 1.40115 6.68473 0
M  V30 6775 O 639.773 2.23408 7.72233 0
M  V30 6776 H 639.505 -0.145799 0.66009 0
M  V30 6777 H 642.059 0.212441 2.04298 0
M  V30 6778 H 640.289 -2.00931 3.30399 0
M  V30 6779 H 641.978 -1.77424 3.65069 0
M  V30 6780 H 642.744 0.409884 4.83265 0
M  V30 6781 H 638.623 -0.781688 4.54324 0
M  V30 6782 H 642.167 1.90514 6.71081 0
M  V30 6783 H 638.064 0.706137 6.41626 0
M  V30 6784 H 638.832 2.16436 7.89365 0
M  V30 6785 N 641.495 -1.56914 -0.146875 0
M  V30 6786 C 642.405 -2.0154 -1.20079 0
M  V30 6787 C 643.421 -0.930838 -1.47008 0
M  V30 6788 O 644.597 -1.24032 -1.58676 0
M  V30 6789 C 641.662 -2.38715 -2.51428 0
M  V30 6790 C 640.723 -3.6112 -2.32145 0
M  V30 6791 C 639.956 -3.96512 -3.57231 0
M  V30 6792 O 640.179 -3.32566 -4.63418 0
M  V30 6793 O 639.113 -4.89758 -3.49887 0
M  V30 6794 H 642.939 -2.91506 -0.851924 0
M  V30 6795 H 640.524 -1.45106 -0.355607 0
M  V30 6796 H 642.406 -2.63485 -3.28867 0
M  V30 6797 H 641.081 -1.51903 -2.85845 0
M  V30 6798 H 639.988 -3.41536 -1.52656 0
M  V30 6799 H 641.321 -4.48549 -2.02644 0
M  V30 6800 N 642.974 0.416227 -1.52004 0
M  V30 6801 C 644.202 1.18573 -1.69553 0
M  V30 6802 C 644.617 1.84472 -0.401919 0
M  V30 6803 O 643.974 1.71593 0.621463 0
M  V30 6804 C 644.025 2.25413 -2.82615 0
M  V30 6805 O 643.746 1.62205 -4.06966 0
M  V30 6806 C 645.247 3.15297 -3.11613 0
M  V30 6807 H 642.467 0.356582 -0.56841 0
M  V30 6808 H 645.011 0.490618 -1.98528 0
M  V30 6809 H 643.166 2.90604 -2.56179 0
M  V30 6810 H 643.58 2.3298 -4.69916 0
M  V30 6811 H 645.054 3.86351 -3.94255 0
M  V30 6812 H 645.531 3.77264 -2.24874 0
M  V30 6813 H 646.137 2.55783 -3.39787 0
M  V30 6814 N 644.452 1.42507 0.673017 0
M  V30 6815 C 645.868 1.25472 0.986355 0
M  V30 6816 C 646.068 0.160181 2.00862 0
M  V30 6817 O 645.124 -0.467993 2.48125 0
M  V30 6818 C 646.437 2.61219 1.48947 0
M  V30 6819 C 647.985 2.68589 1.60715 0
M  V30 6820 C 648.46 4.04707 2.14422 0
M  V30 6821 N 649.951 4.0667 2.21752 0
M  V30 6822 C 650.686 5.0881 2.64386 0
M  V30 6823 N 650.182 6.21332 3.0646 0
M  V30 6824 N 651.975 4.96166 2.64151 0
M  V30 6825 H 644.126 2.124 -0.00378532 0
M  V30 6826 H 646.389 0.946046 0.0608367 0
M  V30 6827 H 646.095 3.42179 0.812812 0
M  V30 6828 H 645.969 2.85261 2.46791 0
M  V30 6829 H 648.356 1.87974 2.27486 0
M  V30 6830 H 648.437 2.48333 0.613552 0
M  V30 6831 H 648.081 4.8578 1.48258 0
M  V30 6832 H 648.011 4.22315 3.14575 0
M  V30 6833 H 650.502 3.25438 1.92089 0
M  V30 6834 H 650.815 6.95118 3.37684 0
M  V30 6835 H 649.16 6.24835 3.04313 0
M  V30 6836 H 652.351 4.07334 2.30644 0
M  V30 6837 H 652.524 5.759 2.97057 0
M  V30 6838 N 645.93 -0.909495 1.28709 0
M  V30 6839 C 647.207 -1.63865 1.06806 0
M  V30 6840 C 647.587 -2.07445 -0.391143 0
M  V30 6841 O 646.935 -1.82269 -1.37805 0
M  V30 6842 C 647.145 -2.82692 2.04661 0
M  V30 6843 C 648.493 -3.5361 2.35042 0
M  V30 6844 O 649.517 -2.92847 2.02779 0
M  V30 6845 O 648.376 -4.63131 2.90124 0
M  V30 6846 H 645.47 -0.719065 0.408502 0
M  V30 6847 H 648.016 -0.958424 1.40044 0
M  V30 6848 H 646.788 -2.47614 3.0299 0
M  V30 6849 H 646.411 -3.58426 1.72095 0
M  V30 6850 N 647.408 -1.11026 -1.11852 0
M  V30 6851 C 648.371 -0.768006 -2.1595 0
M  V30 6852 C 649.371 0.210538 -1.59416 0
M  V30 6853 O 650.561 -0.0133978 -1.74195 0
M  V30 6854 C 647.693 -0.138678 -3.40618 0
M  V30 6855 H 648.886 -1.69012 -2.4774 0
M  V30 6856 H 646.439 -0.911578 -1.26964 0
M  V30 6857 H 647.174 0.793872 -3.14433 0
M  V30 6858 H 646.959 -0.843012 -3.8293 0
M  V30 6859 H 648.449 0.0848039 -4.17514 0
M  V30 6860 N 648.886 1.2938 -0.899927 0
M  V30 6861 C 650.135 1.9483 -0.521937 0
M  V30 6862 C 650.448 1.71725 0.936473 0
M  V30 6863 O 651.654 2.31282 1.42199 0
M  V30 6864 C 650.11 3.48911 -0.88255 0
M  V30 6865 C 649.718 3.80815 -2.35974 0
M  V30 6866 C 651.462 4.20595 -0.57448 0
M  V30 6867 C 649.369 5.28142 -2.66121 0
M  V30 6868 H 648.299 0.729285 -0.191468 0
M  V30 6869 H 650.95 1.47103 -1.09695 0
M  V30 6870 H 649.332 3.95293 -0.236459 0
M  V30 6871 H 650.506 3.45291 -3.05141 0
M  V30 6872 H 648.821 3.22271 -2.63686 0
M  V30 6873 H 651.418 5.29031 -0.776556 0
M  V30 6874 H 651.761 4.13442 0.487005 0
M  V30 6875 H 652.294 3.79945 -1.17842 0
M  V30 6876 H 649.033 5.4036 -3.71068 0
M  V30 6877 H 648.553 5.64913 -2.01578 0
M  V30 6878 H 650.232 5.95738 -2.52399 0
M  V30 6879 N 650.364 0.662433 1.43002 0
M  V30 6880 C 651.592 0.187615 2.06048 0
M  V30 6881 C 652.007 -1.15039 1.49705 0
M  V30 6882 O 651.364 -1.71209 0.631956 0
M  V30 6883 C 651.415 0.100498 3.6136 0
M  V30 6884 O 651.136 1.38562 4.15611 0
M  V30 6885 C 652.637 -0.399298 4.41498 0
M  V30 6886 H 649.857 0.0941675 0.664359 0
M  V30 6887 H 652.401 0.905681 1.83351 0
M  V30 6888 H 650.556 -0.568181 3.83211 0
M  V30 6889 H 650.97 1.25084 5.09366 0
M  V30 6890 H 652.444 -0.409187 5.50481 0
M  V30 6891 H 652.921 -1.43232 4.15188 0
M  V30 6892 H 653.527 0.23721 4.24638 0
M  V30 6893 N 651.842 -1.52309 0.404946 0
M  V30 6894 C 653.253 -1.86585 -0.0655926 0
M  V30 6895 C 653.604 -1.3239 -1.44801 0
M  V30 6896 O 652.729 -0.6615 -2.06042 0
M  V30 6897 C 653.324 -3.38566 -0.125801 0
M  V30 6898 C 651.883 -3.72497 -0.540666 0
M  V30 6899 C 651.03 -2.75806 0.287487 0
M  V30 6900 H 653.981 -1.45995 0.622185 0
M  V30 6901 H 654.002 -3.68658 -0.941888 0
M  V30 6902 H 653.514 -3.77981 0.880473 0
M  V30 6903 H 651.615 -3.38659 -1.55373 0
M  V30 6904 H 651.728 -4.78234 -0.287956 0
M  V30 6905 H 650.092 -2.53474 -0.249561 0
M  V30 6906 H 650.875 -3.18059 1.29203 0
M  V30 6907 N 653.32 -0.135238 -1.57019 0
M  V30 6908 C 654.597 0.563227 -1.87316 0
M  V30 6909 C 654.977 1.83749 -1.03921 0
M  V30 6910 O 654.325 2.2817 -0.122675 0
M  V30 6911 C 654.535 0.840031 -3.3874 0
M  V30 6912 C 655.883 1.18598 -4.077 0
M  V30 6913 O 656.907 0.92977 -3.43851 0
M  V30 6914 O 655.766 1.66758 -5.20436 0
M  V30 6915 H 652.86 0.285971 -0.775983 0
M  V30 6916 H 655.406 -0.170965 -1.68837 0
M  V30 6917 H 654.178 -0.0622785 -3.9125 0
M  V30 6918 H 653.801 1.62882 -3.62706 0
M  V30 6919 N 654.798 1.5699 0.138552 0
M  V30 6920 C 656.046 1.83446 0.848053 0
M  V30 6921 C 656.367 0.71744 1.81322 0
M  V30 6922 O 655.637 -0.260228 1.94164 0
M  V30 6923 H 654.217 0.676792 0.316166 0
M  V30 6924 H 656.879 1.94462 0.130538 0
M  V30 6925 H 655.975 2.78677 1.40518 0
M  V30 6926 N 656.276 -0.40816 1.52223 0
M  V30 6927 C 657.522 -1.15673 1.66576 0
M  V30 6928 C 657.855 -1.90141 0.394996 0
M  V30 6929 O 657.13 -1.84798 -0.606613 0
M  V30 6930 C 657.413 -2.15042 2.88841 0
M  V30 6931 C 657.266 -1.44465 4.25969 0
M  V30 6932 C 658.585 -3.15699 3.0663 0
M  V30 6933 H 655.704 -0.41916 0.606196 0
M  V30 6934 H 658.346 -0.442348 1.84779 0
M  V30 6935 H 656.496 -2.75964 2.73452 0
M  V30 6936 H 658.168 -0.866544 4.53088 0
M  V30 6937 H 656.411 -0.746612 4.27327 0
M  V30 6938 H 657.082 -2.16976 5.07568 0
M  V30 6939 H 659.558 -2.64854 3.20923 0
M  V30 6940 H 658.434 -3.82491 3.9369 0
M  V30 6941 H 658.695 -3.83481 2.19987 0
M  V30 6942 N 657.755 -1.42862 -0.66545 0
M  V30 6943 C 658.718 -1.46756 -1.76055 0
M  V30 6944 C 659.718 -0.353866 -1.56858 0
M  V30 6945 O 660.908 -0.615099 -1.62979 0
M  V30 6946 C 658.04 -1.30829 -3.14796 0
M  V30 6947 H 659.233 -2.44271 -1.73987 0
M  V30 6948 H 656.786 -1.29447 -0.875965 0
M  V30 6949 H 657.521 -0.342733 -3.22484 0
M  V30 6950 H 657.306 -2.11551 -3.30134 0
M  V30 6951 H 658.796 -1.36458 -3.94676 0
M  V30 6952 N 659.233 0.902656 -1.29189 0
M  V30 6953 C 660.479 1.65532 -1.17163 0
M  V30 6954 C 660.812 1.92216 0.276879 0
M  V30 6955 O 660.087 1.53048 1.20027 0
M  V30 6956 C 660.37 3.00629 -1.98228 0
M  V30 6957 C 660.223 2.81029 -3.51202 0
M  V30 6958 C 661.542 4.01321 -1.80635 0
M  V30 6959 H 658.661 0.60071 -0.426985 0
M  V30 6960 H 661.303 1.04578 -1.5863 0
M  V30 6961 H 659.453 3.52656 -1.62991 0
M  V30 6962 H 661.125 2.35927 -3.96404 0
M  V30 6963 H 659.368 2.1587 -3.76275 0
M  V30 6964 H 660.039 3.77014 -4.03192 0
M  V30 6965 H 662.515 3.58394 -2.11406 0
M  V30 6966 H 661.391 4.93792 -2.3971 0
M  V30 6967 H 661.652 4.35505 -0.760754 0
M  V30 6968 N 660.711 1.11618 1.11262 0
M  V30 6969 C 662.127 0.850468 1.35053 0
M  V30 6970 C 662.327 -0.523868 1.94571 0
M  V30 6971 O 661.383 -1.2743 2.17986 0
M  V30 6972 C 662.696 1.96005 2.28041 0
M  V30 6973 C 664.244 1.98993 2.416 0
M  V30 6974 C 664.719 3.0916 3.37911 0
M  V30 6975 N 666.21 3.08547 3.45475 0
M  V30 6976 C 666.945 3.9043 4.19943 0
M  V30 6977 N 666.441 4.8228 4.97371 0
M  V30 6978 N 668.234 3.786 4.15474 0
M  V30 6979 H 660.385 2.00184 0.709932 0
M  V30 6980 H 662.648 0.870635 0.375099 0
M  V30 6981 H 662.354 2.9499 1.91503 0
M  V30 6982 H 662.228 1.85782 3.28275 0
M  V30 6983 H 664.615 1.00633 2.77411 0
M  V30 6984 H 664.696 2.13292 1.4121 0
M  V30 6985 H 664.34 4.07748 3.02827 0
M  V30 6986 H 664.27 2.92102 4.3816 0
M  V30 6987 H 666.761 2.42 2.90249 0
M  V30 6988 H 667.074 5.41289 5.51567 0
M  V30 6989 H 665.419 4.863 4.96525 0
M  V30 6990 H 668.61 3.06185 3.54074 0
M  V30 6991 H 668.783 4.42647 4.73253 0
M  V30 6992 N 662.189 -1.289 0.906776 0
M  V30 6993 C 663.119 -2.29932 0.406659 0
M  V30 6994 C 664.1 -1.6189 -0.522061 0
M  V30 6995 O 665.285 -1.8935 -0.431283 0
M  V30 6996 C 662.415 -3.45425 -0.360366 0
M  V30 6997 C 661.369 -4.25316 0.478574 0
M  V30 6998 C 660.695 -5.33076 -0.416373 0
M  V30 6999 C 661.995 -4.92739 1.7322 0
M  V30 7000 H 663.689 -2.72013 1.25097 0
M  V30 7001 H 661.235 -1.30768 0.602977 0
M  V30 7002 H 663.188 -4.15186 -0.721029 0
M  V30 7003 H 661.912 -3.02206 -1.23852 0
M  V30 7004 H 660.571 -3.57273 0.821662 0
M  V30 7005 H 660.219 -4.86101 -1.29287 0
M  V30 7006 H 659.919 -5.8743 0.141309 0
M  V30 7007 H 661.443 -6.05686 -0.773072 0
M  V30 7008 H 662.857 -5.54898 1.44086 0
M  V30 7009 H 661.254 -5.57057 2.23175 0
M  V30 7010 H 662.324 -4.17625 2.46408 0
M  V30 7011 N 663.667 -0.670007 -1.42649 0
M  V30 7012 C 664.897 -0.198252 -2.05647 0
M  V30 7013 C 665.305 1.14786 -1.50402 0
M  V30 7014 O 664.648 1.72316 -0.636634 0
M  V30 7015 C 664.71 -0.0507132 -3.59464 0
M  V30 7016 C 664.374 -1.32478 -4.37377 0
M  V30 7017 C 665.371 -2.2572 -4.68344 0
M  V30 7018 C 663.056 -1.57104 -4.77099 0
M  V30 7019 C 665.05 -3.4187 -5.37963 0
M  V30 7020 C 662.737 -2.73543 -5.46459 0
M  V30 7021 C 663.735 -3.65751 -5.76815 0
M  V30 7022 O 663.423 -4.80154 -6.44753 0
M  V30 7023 H 663.155 -0.0950721 -0.669281 0
M  V30 7024 H 665.709 -0.915745 -1.83857 0
M  V30 7025 H 663.939 0.722314 -3.79894 0
M  V30 7026 H 665.628 0.380552 -4.04112 0
M  V30 7027 H 666.394 -2.07943 -4.38161 0
M  V30 7028 H 662.273 -0.862069 -4.52868 0
M  V30 7029 H 665.817 -4.13861 -5.61574 0
M  V30 7030 H 661.714 -2.91248 -5.7606 0
M  V30 7031 H 662.482 -4.79637 -6.63243 0
M  V30 7032 N 665.145 1.52092 -0.413018 0
M  V30 7033 C 666.391 2.02154 0.161737 0
M  V30 7034 C 666.724 1.29789 1.44459 0
M  V30 7035 O 665.999 0.405378 1.90229 0
M  V30 7036 C 666.282 3.5781 0.405463 0
M  V30 7037 C 666.135 4.40819 -0.894335 0
M  V30 7038 C 667.454 4.23821 1.18591 0
M  V30 7039 H 664.573 0.734769 0.0573077 0
M  V30 7040 H 667.215 1.81948 -0.547247 0
M  V30 7041 H 665.365 3.75158 1.0094 0
M  V30 7042 H 667.037 4.35175 -1.53039 0
M  V30 7043 H 665.28 4.06877 -1.50444 0
M  V30 7044 H 665.951 5.47819 -0.678144 0
M  V30 7045 H 668.427 4.10596 0.674573 0
M  V30 7046 H 667.303 5.32663 1.3252 0
M  V30 7047 H 667.564 3.83038 2.20758 0
M  V30 7048 N 666.623 0.143563 1.56945 0
M  V30 7049 C 667.571 -0.814556 2.17871 0
M  V30 7050 C 668.565 -1.25778 1.13474 0
M  V30 7051 O 669.771 -1.22666 1.31731 0
M  V30 7052 H 666.146 -0.280873 0.697578 0
M  V30 7053 H 668.117 -0.276459 2.97117 0
M  V30 7054 C 666.866 -2.04503 2.81201 0
M  V30 7055 H 666.189 -1.71296 3.61245 0
M  V30 7056 H 667.629 -2.69493 3.27337 0
M  V30 7057 C 666.088 -2.85079 1.79532 0
M  V30 7058 O 666.618 -3.81306 1.26368 0
M  V30 7059 N 664.824 -2.49546 1.48913 0
M  V30 7060 H 664.371 -1.71359 1.92338 0
M  V30 7061 H 664.329 -3.03751 0.811348 0
M  V30 7062 N 668.101 -1.57061 -0.130224 0
M  V30 7063 C 669.329 -1.88432 -0.854456 0
M  V30 7064 C 669.744 -0.733608 -1.73964 0
M  V30 7065 O 669.101 0.296029 -1.80083 0
M  V30 7066 C 669.152 -3.1918 -1.69724 0
M  V30 7067 O 668.873 -4.2982 -0.847705 0
M  V30 7068 C 670.374 -3.6418 -2.5276 0
M  V30 7069 H 667.594 -0.624193 -0.246221 0
M  V30 7070 H 670.138 -2.04159 -0.11798 0
M  V30 7071 H 668.293 -3.05156 -2.3866 0
M  V30 7072 H 668.707 -5.04689 -1.42792 0
M  V30 7073 H 670.181 -4.58457 -3.07443 0
M  V30 7074 H 670.658 -2.90285 -3.29592 0
M  V30 7075 H 671.264 -3.80954 -1.89087 0
M  V30 7076 N 669.579 0.400081 -1.52437 0
M  V30 7077 C 670.827 1.14392 -1.6661 0
M  V30 7078 C 671.148 1.90792 -0.402927 0
M  V30 7079 O 670.418 1.87042 0.582425 0
M  V30 7080 H 668.998 0.425275 -0.614125 0
M  V30 7081 H 671.66 0.455076 -1.89513 0
M  V30 7082 H 670.756 1.85298 -2.51139 0
M  V30 7083 N 671.057 1.43213 0.657864 0
M  V30 7084 C 671.987 1.50815 1.78262 0
M  V30 7085 C 672.968 0.363211 1.66177 0
M  V30 7086 O 674.153 0.579806 1.85343 0
M  V30 7087 C 671.283 1.42625 3.16663 0
M  V30 7088 C 670.237 2.5532 3.43505 0
M  V30 7089 C 669.563 2.32184 4.81658 0
M  V30 7090 C 670.863 3.97583 3.38711 0
M  V30 7091 H 672.557 2.44954 1.72157 0
M  V30 7092 H 670.103 1.17896 0.82683 0
M  V30 7093 H 672.056 1.46548 3.95097 0
M  V30 7094 H 670.78 0.449877 3.23487 0
M  V30 7095 H 669.439 2.50742 2.6744 0
M  V30 7096 H 669.087 1.32801 4.85153 0
M  V30 7097 H 668.787 3.07724 5.00579 0
M  V30 7098 H 670.311 2.37883 5.62356 0
M  V30 7099 H 671.725 4.03673 4.07089 0
M  V30 7100 H 670.122 4.73112 3.69168 0
M  V30 7101 H 671.192 4.23049 2.36976 0
M  V30 7102 N 672.536 -0.895792 1.29666 0
M  V30 7103 C 673.469 -2.00238 1.09453 0
M  V30 7104 C 674.447 -1.62599 0.00527044 0
M  V30 7105 O 675.631 -1.87847 0.156729 0
M  V30 7106 C 672.758 -3.32066 0.667054 0
M  V30 7107 C 671.804 -3.88691 1.7556 0
M  V30 7108 S 672.637 -4.17317 3.35569 0
M  V30 7109 C 673.793 -5.52181 2.94698 0
M  V30 7110 H 674.026 -2.17076 2.03138 0
M  V30 7111 H 671.559 -1.04287 1.13858 0
M  V30 7112 H 673.517 -4.08272 0.427136 0
M  V30 7113 H 672.178 -3.13101 -0.250256 0
M  V30 7114 H 671.371 -4.83918 1.40853 0
M  V30 7115 H 670.973 -3.19187 1.94924 0
M  V30 7116 H 673.265 -6.3281 2.41986 0
M  V30 7117 H 674.208 -5.91817 3.88791 0
M  V30 7118 H 674.616 -5.14225 2.32879 0
M  V30 7119 N 674.014 -1.12206 -1.10668 0
M  V30 7120 C 675.263 -0.870595 -1.81944 0
M  V30 7121 C 675.576 0.605447 -1.85994 0
M  V30 7122 O 676.782 0.973433 -2.53449 0
M  V30 7123 C 675.238 -1.50783 -3.26791 0
M  V30 7124 C 674.846 -3.01849 -3.31046 0
M  V30 7125 C 676.59 -1.33653 -4.02911 0
M  V30 7126 C 674.497 -3.58518 -4.70339 0
M  V30 7127 H 673.427 -0.322043 -0.681765 0
M  V30 7128 H 676.078 -1.34827 -1.24475 0
M  V30 7129 H 674.46 -0.957825 -3.84242 0
M  V30 7130 H 675.634 -3.63321 -2.83433 0
M  V30 7131 H 673.949 -3.18346 -2.68411 0
M  V30 7132 H 676.546 -1.73416 -5.05797 0
M  V30 7133 H 676.889 -0.279949 -4.15358 0
M  V30 7134 H 677.422 -1.85562 -3.51868 0
M  V30 7135 H 674.161 -4.63925 -4.63091 0
M  V30 7136 H 673.681 -3.01819 -5.18329 0
M  V30 7137 H 675.36 -3.57434 -5.39305 0
M  V30 7138 N 675.492 1.28418 -0.913599 0
M  V30 7139 C 676.769 1.89977 -0.465619 0
M  V30 7140 C 677.149 1.82813 1.05559 0
M  V30 7141 O 676.497 1.26397 1.90358 0
M  V30 7142 C 676.707 3.34492 -0.995813 0
M  V30 7143 C 678.055 4.11468 -1.04782 0
M  V30 7144 O 679.079 3.43451 -0.944445 0
M  V30 7145 O 677.938 5.33046 -1.20518 0
M  V30 7146 H 675.032 0.813734 -0.147532 0
M  V30 7147 H 677.578 1.36786 -1.00437 0
M  V30 7148 H 676.35 3.33929 -2.03978 0
M  V30 7149 H 675.973 3.95181 -0.437878 0
M  V30 7150 N 676.97 0.677563 1.42291 0
M  V30 7151 C 678.216 0.201272 2.01799 0
M  V30 7152 C 678.549 -1.19004 1.53465 0
M  V30 7153 O 677.824 -1.79953 0.738039 0
M  V30 7154 C 678.107 0.238968 3.59306 0
M  V30 7155 C 677.96 1.66594 4.17812 0
M  V30 7156 C 679.279 -0.411287 4.38174 0
M  V30 7157 H 676.398 0.0746114 0.733214 0
M  V30 7158 H 679.04 0.862872 1.69276 0
M  V30 7159 H 677.19 -0.324368 3.87144 0
M  V30 7160 H 678.862 2.28173 4.00917 0
M  V30 7161 H 677.105 2.20576 3.73536 0
M  V30 7162 H 677.776 1.64398 5.26951 0
M  V30 7163 H 680.252 0.0682804 4.16044 0
M  V30 7164 H 679.128 -0.354286 5.47755 0
M  V30 7165 H 679.389 -1.4893 4.1626 0
M  V30 7166 N 678.448 -1.51871 0.421078 0
M  V30 7167 C 679.694 -2.02237 -0.151014 0
M  V30 7168 C 680.027 -1.30554 -1.43768 0
M  V30 7169 O 679.302 -0.41546 -1.90011 0
M  V30 7170 C 679.585 -3.5802 -0.386482 0
M  V30 7171 C 679.438 -4.40339 0.9177 0
M  V30 7172 C 680.757 -4.24444 -1.16342 0
M  V30 7173 H 677.876 -0.735062 -0.0534102 0
M  V30 7174 H 680.518 -1.81656 0.556888 0
M  V30 7175 H 678.668 -3.75688 -0.989494 0
M  V30 7176 H 680.34 -4.34357 1.55344 0
M  V30 7177 H 678.583 -4.06073 1.526 0
M  V30 7178 H 679.254 -5.47451 0.707187 0
M  V30 7179 H 681.73 -4.10948 -0.652788 0
M  V30 7180 H 680.606 -5.33358 -1.29693 0
M  V30 7181 H 680.867 -3.84204 -2.18724 0
M  V30 7182 N 679.926 -0.151884 -1.56866 0
M  V30 7183 C 681.342 0.204486 -1.58285 0
M  V30 7184 C 681.542 1.6431 -1.16639 0
M  V30 7185 O 680.598 2.37077 -0.868946 0
M  V30 7186 C 681.911 -0.0587019 -3.00643 0
M  V30 7187 C 683.459 0.00462303 -3.13 0
M  V30 7188 C 683.934 -0.231297 -4.57416 0
M  V30 7189 N 685.425 -0.178394 -4.62856 0
M  V30 7190 C 686.16 -0.335379 -5.72418 0
M  V30 7191 N 685.656 -0.550355 -6.90611 0
M  V30 7192 N 687.449 -0.272641 -5.61438 0
M  V30 7193 H 679.6 -1.09116 -1.82229 0
M  V30 7194 H 681.863 -0.432311 -0.843689 0
M  V30 7195 H 681.569 -1.05453 -3.35518 0
M  V30 7196 H 681.443 0.658508 -3.71407 0
M  V30 7197 H 683.83 0.991009 -2.77962 0
M  V30 7198 H 683.911 -0.744992 -2.44711 0
M  V30 7199 H 683.555 -1.2148 -4.93158 0
M  V30 7200 H 683.485 0.5387 -5.23837 0
M  V30 7201 H 685.976 -0.0170923 -3.77896 0
M  V30 7202 H 686.289 -0.660116 -7.69976 0
M  V30 7203 H 684.634 -0.586736 -6.92519 0
M  V30 7204 H 687.825 -0.105421 -4.67981 0
M  V30 7205 H 687.998 -0.398418 -6.46774 0
M  V30 7206 N 681.404 1.57128 0.121893 0
M  V30 7207 C 682.652 1.84335 0.828548 0
M  V30 7208 C 682.973 0.736632 1.80551 0
M  V30 7209 O 682.243 -0.23962 1.94429 0
M  V30 7210 H 680.823 0.680108 0.30897 0
M  V30 7211 H 683.485 1.9459 0.109906 0
M  V30 7212 H 682.581 2.80152 1.37554 0
M  V30 7213 N 682.882 -0.391992 1.52647 0
M  V30 7214 C 684.128 -1.139 1.67793 0
M  V30 7215 C 684.461 -1.89711 0.41514 0
M  V30 7216 O 683.736 -1.85431 -0.586979 0
M  V30 7217 C 684.019 -2.11966 2.91105 0
M  V30 7218 C 683.872 -1.39939 4.27478 0
M  V30 7219 C 685.191 -3.1243 3.09961 0
M  V30 7220 H 682.31 -0.412707 0.610608 0
M  V30 7221 H 684.952 -0.422725 1.85238 0
M  V30 7222 H 683.102 -2.73048 2.76364 0
M  V30 7223 H 684.774 -0.818439 4.53982 0
M  V30 7224 H 683.017 -0.701246 4.28095 0
M  V30 7225 H 683.688 -2.1158 5.09841 0
M  V30 7226 H 686.164 -2.61435 3.23714 0
M  V30 7227 H 685.04 -3.78294 3.97725 0
M  V30 7228 H 685.301 -3.81127 2.24042 0
M  V30 7229 N 684.36 -1.4356 -0.65026 0
M  V30 7230 C 685.292 -1.44918 -1.77571 0
M  V30 7231 C 686.305 -0.344925 -1.59104 0
M  V30 7232 O 687.494 -0.609537 -1.6777 0
M  V30 7233 C 684.594 -1.24914 -3.15039 0
M  V30 7234 C 683.767 -2.48232 -3.60138 0
M  V30 7235 C 682.826 -2.23409 -4.76419 0
M  V30 7236 O 681.852 -2.9678 -4.85706 0
M  V30 7237 N 683.054 -1.25259 -5.66825 0
M  V30 7238 H 685.819 -2.41935 -1.76883 0
M  V30 7239 H 683.38 -1.38754 -0.834202 0
M  V30 7240 H 685.372 -1.06185 -3.90521 0
M  V30 7241 H 683.942 -0.363319 -3.10481 0
M  V30 7242 H 683.162 -2.82366 -2.75069 0
M  V30 7243 H 684.45 -3.30296 -3.87017 0
M  V30 7244 H 683.848 -0.646246 -5.61997 0
M  V30 7245 H 682.405 -1.12513 -6.42016 0
M  V30 7246 N 685.838 0.888903 -1.30139 0
M  V30 7247 C 687.254 1.17153 -1.08385 0
M  V30 7248 C 687.454 2.0088 0.157925 0
M  V30 7249 O 686.51 2.37668 0.852652 0
M  V30 7250 C 687.823 1.882 -2.34523 0
M  V30 7251 C 689.371 2.00981 -2.39949 0
M  V30 7252 C 689.846 2.75441 -3.65918 0
M  V30 7253 N 691.337 2.82989 -3.66704 0
M  V30 7254 C 692.072 3.41167 -4.60861 0
M  V30 7255 N 691.568 4.00425 -5.6536 0
M  V30 7256 N 693.361 3.38944 -4.48412 0
M  V30 7257 H 685.512 0.33053 -2.09812 0
M  V30 7258 H 687.775 0.208964 -0.924683 0
M  V30 7259 H 687.481 1.34119 -3.25123 0
M  V30 7260 H 687.355 2.88609 -2.42868 0
M  V30 7261 H 689.742 2.54234 -1.4983 0
M  V30 7262 H 689.823 0.996725 -2.35582 0
M  V30 7263 H 689.467 2.22861 -4.56394 0
M  V30 7264 H 689.397 3.77118 -3.67546 0
M  V30 7265 H 691.888 2.40912 -2.91153 0
M  V30 7266 H 692.201 4.42871 -6.33313 0
M  V30 7267 H 690.546 3.98856 -5.69157 0
M  V30 7268 H 693.737 2.91875 -3.6596 0
M  V30 7269 H 693.91 3.83989 -5.21974 0
M  V30 7270 N 687.317 1.12792 1.10072 0
M  V30 7271 C 688.565 0.883796 1.81751 0
M  V30 7272 C 688.886 -0.591891 1.858 0
M  V30 7273 O 688.156 -1.43017 1.33876 0
M  V30 7274 H 686.736 0.323978 0.673088 0
M  V30 7275 H 689.398 1.42314 1.33164 0
M  V30 7276 H 688.494 1.26863 2.85153 0
M  V30 7277 N 688.795 -1.27931 0.920396 0
M  V30 7278 C 689.758 -2.25345 0.41858 0
M  V30 7279 C 690.758 -1.54116 -0.458798 0
M  V30 7280 O 691.948 -1.72235 -0.260912 0
M  V30 7281 C 689.08 -3.38556 -0.399104 0
M  V30 7282 H 690.273 -2.71251 1.27918 0
M  V30 7283 H 687.826 -1.39728 0.700406 0
M  V30 7284 H 688.561 -2.98021 -1.27882 0
M  V30 7285 H 688.346 -3.91426 0.229863 0
M  V30 7286 H 689.836 -4.10976 -0.740817 0
M  V30 7287 N 690.273 -0.685099 -1.4193 0
M  V30 7288 C 691.22 -0.0131869 -2.30796 0
M  V30 7289 C 692.19 0.782129 -1.46533 0
M  V30 7290 O 693.375 0.75229 -1.75343 0
M  V30 7291 C 690.515 0.924768 -3.32479 0
M  V30 7292 C 689.628 0.122181 -4.31827 0
M  V30 7293 C 688.763 1.05682 -5.20581 0
M  V30 7294 C 687.802 0.246526 -6.11603 0
M  V30 7295 N 686.939 1.13442 -6.92875 0
M  V30 7296 H 691.779 -0.776789 -2.87698 0
M  V30 7297 H 689.316 -0.394791 -1.41703 0
M  V30 7298 H 691.274 1.48251 -3.89971 0
M  V30 7299 H 689.904 1.65488 -2.77152 0
M  V30 7300 H 688.956 -0.552335 -3.76369 0
M  V30 7301 H 690.268 -0.506473 -4.96222 0
M  V30 7302 H 689.422 1.68415 -5.82856 0
M  V30 7303 H 688.161 1.71935 -4.56388 0
M  V30 7304 H 687.166 -0.393944 -5.48387 0
M  V30 7305 H 688.391 -0.412053 -6.77849 0
M  V30 7306 H 686.337 1.78316 -6.313 0
M  V30 7307 H 686.254 0.561089 -7.53915 0
M  V30 7308 H 687.522 1.74889 -7.59628 0
M  V30 7309 N 691.751 1.51645 -0.429126 0
M  V30 7310 C 692.999 2.01616 0.139802 0
M  V30 7311 C 693.32 1.31568 1.43927 0
M  V30 7312 O 692.59 0.447688 1.90716 0
M  V30 7313 H 691.17 0.744998 0.054654 0
M  V30 7314 H 693.832 1.8638 -0.569952 0
M  V30 7315 H 692.928 3.10439 0.321609 0
M  V30 7316 N 693.229 0.160201 1.56784 0
M  V30 7317 C 694.475 -0.48831 1.96833 0
M  V30 7318 C 694.808 -1.63641 1.04571 0
M  V30 7319 O 694.083 -1.94289 0.0906481 0
M  V30 7320 C 694.366 -0.981908 3.46454 0
M  V30 7321 C 694.219 0.165607 4.49495 0
M  V30 7322 C 695.538 -1.85931 3.98896 0
M  V30 7323 H 692.657 -0.176027 0.71567 0
M  V30 7324 H 695.299 0.244093 1.88426 0
M  V30 7325 H 693.449 -1.60602 3.5375 0
M  V30 7326 H 695.121 0.802372 4.54268 0
M  V30 7327 H 693.364 0.822789 4.25926 0
M  V30 7328 H 694.035 -0.221699 5.51555 0
M  V30 7329 H 696.511 -1.33327 3.94161 0
M  V30 7330 H 695.387 -2.17373 5.04024 0
M  V30 7331 H 695.648 -2.80106 3.42042 0
M  V30 7332 N 694.707 -1.5719 -0.113559 0
M  V30 7333 C 695.955 -1.84772 -0.818761 0
M  V30 7334 C 696.276 -0.746196 -1.80158 0
M  V30 7335 O 695.546 0.229305 -1.94553 0
M  V30 7336 H 694.126 -0.681737 -0.305359 0
M  V30 7337 H 696.788 -1.94645 -0.0995845 0
M  V30 7338 H 695.884 -2.80878 -1.36067 0
M  V30 7339 N 696.185 0.383891 -1.52853 0
M  V30 7340 C 697.115 1.47559 -1.80965 0
M  V30 7341 C 698.096 1.5669 -0.661986 0
M  V30 7342 O 699.281 1.71556 -0.910072 0
M  V30 7343 C 696.411 2.85114 -1.98312 0
M  V30 7344 C 695.365 2.9082 -3.14019 0
M  V30 7345 C 694.691 4.30873 -3.16627 0
M  V30 7346 C 695.991 2.60001 -4.52986 0
M  V30 7347 H 697.685 1.24283 -2.72386 0
M  V30 7348 H 695.231 0.596445 -1.31067 0
M  V30 7349 H 697.184 3.61496 -2.16561 0
M  V30 7350 H 695.908 3.09738 -1.03585 0
M  V30 7351 H 694.567 2.16886 -2.9556 0
M  V30 7352 H 694.215 4.52545 -2.19573 0
M  V30 7353 H 693.915 4.3561 -3.94357 0
M  V30 7354 H 695.439 5.09154 -3.37038 0
M  V30 7355 H 696.853 3.261 -4.71521 0
M  V30 7356 H 695.25 2.76081 -5.32822 0
M  V30 7357 H 696.32 1.5532 -4.59351 0
M  V30 7358 N 697.663 1.43903 0.642637 0
M  V30 7359 C 698.893 1.49323 1.4278 0
M  V30 7360 C 699.301 0.113058 1.88862 0
M  V30 7361 O 698.644 -0.889089 1.60751 0
M  V30 7362 C 698.706 2.3861 2.68897 0
M  V30 7363 C 698.37 3.85976 2.44687 0
M  V30 7364 C 699.367 4.7681 2.07239 0
M  V30 7365 C 697.052 4.30567 2.58683 0
M  V30 7366 C 699.046 6.10234 1.841 0
M  V30 7367 C 696.733 5.64042 2.35159 0
M  V30 7368 C 697.731 6.53693 1.97925 0
M  V30 7369 O 697.419 7.84698 1.74654 0
M  V30 7370 H 697.151 0.509109 0.444729 0
M  V30 7371 H 699.705 1.89425 0.794195 0
M  V30 7372 H 697.935 1.93415 3.34855 0
M  V30 7373 H 699.624 2.35112 3.30873 0
M  V30 7374 H 700.39 4.43635 1.95993 0
M  V30 7375 H 696.269 3.61054 2.86637 0
M  V30 7376 H 699.813 6.80171 1.54962 0
M  V30 7377 H 695.71 5.96782 2.46011 0
M  V30 7378 H 696.478 7.96382 1.88993 0
M  V30 7379 N 699.141 -0.881989 1.30609 0
M  V30 7380 C 700.557 -1.16576 1.09005 0
M  V30 7381 C 700.757 -2.00961 -0.14727 0
M  V30 7382 O 699.813 -2.38117 -0.840036 0
M  V30 7383 C 701.126 -1.86954 2.35518 0
M  V30 7384 C 702.674 -1.99706 2.41011 0
M  V30 7385 C 703.149 -2.73497 3.67374 0
M  V30 7386 N 704.64 -2.8104 3.68199 0
M  V30 7387 C 705.375 -3.38718 4.62664 0
M  V30 7388 N 704.871 -3.97421 5.67475 0
M  V30 7389 N 706.664 -3.36561 4.50203 0
M  V30 7390 H 698.815 -0.319398 2.09985 0
M  V30 7391 H 701.078 -0.204058 0.925778 0
M  V30 7392 H 700.784 -1.32393 3.2583 0
M  V30 7393 H 700.658 -2.87317 2.44395 0
M  V30 7394 H 703.045 -2.53436 1.51176 0
M  V30 7395 H 703.126 -0.984218 2.36108 0
M  V30 7396 H 702.77 -2.20438 4.57569 0
M  V30 7397 H 702.7 -3.75163 3.6954 0
M  V30 7398 H 705.191 -2.39365 2.92426 0
M  V30 7399 H 705.504 -4.39507 6.35652 0
M  V30 7400 H 703.849 -3.95832 5.71264 0
M  V30 7401 H 707.04 -2.8993 3.67503 0
M  V30 7402 H 707.213 -3.81215 5.24003 0
M  V30 7403 N 700.619 -1.13374 -1.09472 0
M  V30 7404 C 701.844 -0.918711 -1.85942 0
M  V30 7405 C 702.269 0.527225 -1.8056 0
M  V30 7406 O 701.627 1.37408 -1.18274 0
M  V30 7407 C 701.675 -1.41056 -3.31867 0
M  V30 7408 O 700.779 -0.595496 -4.08078 0
M  V30 7409 H 700.12 -0.329297 -0.576593 0
M  V30 7410 H 702.65 -1.50829 -1.38245 0
M  V30 7411 H 702.66 -1.41398 -3.82715 0
M  V30 7412 H 701.335 -2.46335 -3.35099 0
M  V30 7413 H 699.912 -0.659911 -3.67014 0
M  V30 7414 N 702.098 1.27442 -0.927168 0
M  V30 7415 C 703.008 2.30599 -0.431448 0
M  V30 7416 C 704.024 1.67028 0.48761 0
M  V30 7417 O 705.2 1.97962 0.370546 0
M  V30 7418 C 702.265 3.45327 0.308292 0
M  V30 7419 C 701.326 4.24418 -0.645615 0
M  V30 7420 C 700.559 5.33667 0.0589164 0
M  V30 7421 O 700.782 5.5589 1.27838 0
M  V30 7422 O 699.716 5.98774 -0.612638 0
M  V30 7423 H 703.542 2.75036 -1.28797 0
M  V30 7424 H 701.127 1.32382 -0.692495 0
M  V30 7425 H 703.009 4.15107 0.725555 0
M  V30 7426 H 701.684 3.02945 1.14043 0
M  V30 7427 H 700.591 3.57174 -1.11255 0
M  V30 7428 H 701.924 4.70512 -1.44496 0
M  V30 7429 N 703.576 0.692616 1.41565 0
M  V30 7430 C 704.825 0.219452 2.00503 0
M  V30 7431 C 705.138 -1.18683 1.55479 0
M  V30 7432 O 706.344 -1.75731 2.06956 0
M  V30 7433 C 704.8 0.341451 3.58277 0
M  V30 7434 C 704.408 1.75291 4.12283 0
M  V30 7435 C 706.152 -0.0720899 4.24439 0
M  V30 7436 C 704.059 1.82673 5.62481 0
M  V30 7437 H 702.989 0.0782874 0.749925 0
M  V30 7438 H 705.64 0.860386 1.62079 0
M  V30 7439 H 704.022 -0.367683 3.94289 0
M  V30 7440 H 705.196 2.49057 3.87695 0
M  V30 7441 H 703.511 2.11587 3.58636 0
M  V30 7442 H 706.108 -0.0373385 5.34687 0
M  V30 7443 H 706.451 -1.11034 4.0122 0
M  V30 7444 H 706.984 0.586663 3.9345 0
M  V30 7445 H 703.723 2.84539 5.90523 0
M  V30 7446 H 703.243 1.13288 5.89004 0
M  V30 7447 H 704.922 1.58827 6.27203 0
M  V30 7448 N 705.054 -1.51416 0.437162 0
M  V30 7449 C 706.465 -1.86682 -0.0260005 0
M  V30 7450 C 706.816 -1.35432 -1.4196 0
M  V30 7451 O 705.941 -0.705055 -2.04592 0
M  V30 7452 C 706.536 -3.38757 -0.0539577 0
M  V30 7453 C 705.095 -3.7356 -0.461532 0
M  V30 7454 C 704.242 -2.75134 0.345924 0
M  V30 7455 H 707.193 -1.44642 0.653013 0
M  V30 7456 H 707.214 -3.70573 -0.863478 0
M  V30 7457 H 706.726 -3.76028 0.96045 0
M  V30 7458 H 704.827 -3.41878 -1.48155 0
M  V30 7459 H 704.94 -4.78737 -0.186451 0
M  V30 7460 H 703.304 -2.53947 -0.195739 0
M  V30 7461 H 704.087 -3.15247 1.35921 0
M  V30 7462 N 706.532 -0.168513 -1.56696 0
M  V30 7463 C 707.779 0.477158 -1.96798 0
M  V30 7464 C 708.107 1.63442 -1.05437 0
M  V30 7465 O 707.362 1.95503 -0.0878903 0
M  V30 7466 C 707.661 1.00441 -3.42996 0
M  V30 7467 C 707.327 -0.0366556 -4.50885 0
M  V30 7468 C 705.989 -0.322785 -4.80116 0
M  V30 7469 C 708.341 -0.743447 -5.1587 0
M  V30 7470 C 705.669 -1.32114 -5.71632 0
M  V30 7471 C 708.021 -1.73077 -6.08463 0
M  V30 7472 C 706.685 -2.02437 -6.36062 0
M  V30 7473 H 705.955 0.174604 -0.720135 0
M  V30 7474 H 708.602 -0.259884 -1.89728 0
M  V30 7475 H 706.907 1.81922 -3.47004 0
M  V30 7476 H 708.604 1.51294 -3.71364 0
M  V30 7477 H 705.194 0.196532 -4.28149 0
M  V30 7478 H 709.378 -0.535602 -4.93401 0
M  V30 7479 H 704.634 -1.55482 -5.913 0
M  V30 7480 H 708.808 -2.28382 -6.57886 0
M  V30 7481 H 706.435 -2.79946 -7.06777 0
M  V30 7482 N 708.01 1.57248 0.105221 0
M  V30 7483 C 708.943 1.96567 1.15916 0
M  V30 7484 C 709.921 0.837355 1.39381 0
M  V30 7485 O 711.105 1.09676 1.53308 0
M  V30 7486 C 708.232 2.27375 2.51035 0
M  V30 7487 C 707.278 3.49869 2.43913 0
M  V30 7488 S 708.111 5.01958 1.86543 0
M  V30 7489 C 709.267 5.35932 3.23307 0
M  V30 7490 H 709.5 2.85655 0.823931 0
M  V30 7491 H 707.033 1.51204 0.312515 0
M  V30 7492 H 708.991 2.45801 3.28774 0
M  V30 7493 H 707.652 1.38876 2.81731 0
M  V30 7494 H 706.845 3.68835 3.43477 0
M  V30 7495 H 706.447 3.30901 1.743 0
M  V30 7496 H 708.739 5.31958 4.19556 0
M  V30 7497 H 709.682 6.37047 3.09155 0
M  V30 7498 H 710.09 4.63397 3.22372 0
M  V30 7499 N 709.488 -0.375779 1.53054 0
M  V30 7500 C 710.418 -1.46598 1.81745 0
M  V30 7501 C 711.399 -1.56337 0.670286 0
M  V30 7502 O 712.584 -1.71071 0.919158 0
M  V30 7503 C 709.714 -2.84058 1.99821 0
M  V30 7504 C 708.668 -2.8915 3.15557 0
M  V30 7505 C 707.994 -4.29187 3.18908 0
M  V30 7506 C 709.294 -2.57595 4.54359 0
M  V30 7507 H 710.988 -1.22837 2.73041 0
M  V30 7508 H 708.534 -0.589485 1.31381 0
M  V30 7509 H 710.487 -3.60342 2.18475 0
M  V30 7510 H 709.211 -3.09184 1.05226 0
M  V30 7511 H 707.87 -2.15316 2.96706 0
M  V30 7512 H 707.518 -4.51374 2.2197 0
M  V30 7513 H 707.218 -4.33512 3.96662 0
M  V30 7514 H 708.742 -5.07359 3.39734 0
M  V30 7515 H 710.156 -3.23595 4.73243 0
M  V30 7516 H 708.553 -2.73252 5.34279 0
M  V30 7517 H 709.623 -1.52882 4.60169 0
M  V30 7518 N 710.966 -1.44241 -0.634997 0
M  V30 7519 C 712.382 -1.28043 -0.952742 0
M  V30 7520 C 712.582 -0.21338 -2.00367 0
M  V30 7521 O 711.638 0.402042 -2.49279 0
M  V30 7522 C 712.951 -2.65076 -1.41968 0
M  V30 7523 C 714.499 -2.72755 -1.53537 0
M  V30 7524 C 714.974 -4.10249 -2.03616 0
M  V30 7525 N 716.465 -4.12406 -2.10892 0
M  V30 7526 C 717.2 -5.15641 -2.50803 0
M  V30 7527 N 716.696 -6.29239 -2.89879 0
M  V30 7528 N 718.489 -5.02995 -2.50903 0
M  V30 7529 H 710.64 -2.12315 0.060098 0
M  V30 7530 H 712.903 -0.947326 -0.0357325 0
M  V30 7531 H 712.609 -3.44213 -0.721804 0
M  V30 7532 H 712.483 -2.91704 -2.39141 0
M  V30 7533 H 714.87 -1.93939 -2.22422 0
M  V30 7534 H 714.951 -2.49872 -0.547496 0
M  V30 7535 H 714.595 -4.8954 -1.35327 0
M  V30 7536 H 714.525 -4.30507 -3.03268 0
M  V30 7537 H 717.016 -3.30417 -1.83393 0
M  V30 7538 H 717.329 -7.03827 -3.19135 0
M  V30 7539 H 715.674 -6.32683 -2.8764 0
M  V30 7540 H 718.865 -4.13306 -2.19763 0
M  V30 7541 H 719.038 -5.83574 -2.81683 0
M  V30 7542 N 712.444 0.87505 -1.31075 0
M  V30 7543 C 713.721 1.60976 -1.11113 0
M  V30 7544 C 714.101 2.08409 0.336006 0
M  V30 7545 O 713.449 1.85858 1.32924 0
M  V30 7546 C 713.659 2.77166 -2.12085 0
M  V30 7547 C 715.007 3.47254 -2.44335 0
M  V30 7548 O 716.031 2.87367 -2.10472 0
M  V30 7549 O 714.89 4.55276 -3.02301 0
M  V30 7550 H 711.984 0.707982 -0.427424 0
M  V30 7551 H 714.53 0.920957 -1.42536 0
M  V30 7552 H 713.302 2.39494 -3.09449 0
M  V30 7553 H 712.925 3.53737 -1.81538 0
M  V30 7554 N 713.922 1.13953 1.08869 0
M  V30 7555 C 715.338 0.878924 1.33218 0
M  V30 7556 C 715.538 -0.482478 1.95638 0
M  V30 7557 O 714.594 -1.22778 2.2064 0
M  V30 7558 C 715.907 2.00798 2.23832 0
M  V30 7559 C 717.455 2.04073 2.37325 0
M  V30 7560 C 717.93 3.16258 3.31278 0
M  V30 7561 N 719.421 3.15805 3.38853 0
M  V30 7562 C 720.156 3.99249 4.11567 0
M  V30 7563 N 719.652 4.92721 4.87029 0
M  V30 7564 N 721.445 3.87327 4.0735 0
M  V30 7565 H 713.596 2.01645 0.66731 0
M  V30 7566 H 715.859 0.878395 0.356547 0
M  V30 7567 H 715.565 2.98986 1.85203 0
M  V30 7568 H 715.439 1.92704 3.24261 0
M  V30 7569 H 717.826 1.06495 2.75214 0
M  V30 7570 H 717.907 2.16239 1.36654 0
M  V30 7571 H 717.551 4.14079 2.9411 0
M  V30 7572 H 717.481 3.0133 4.31866 0
M  V30 7573 H 719.972 2.48102 2.8505 0
M  V30 7574 H 720.285 5.52867 5.39961 0
M  V30 7575 H 718.63 4.96723 4.86098 0
M  V30 7576 H 721.821 3.13627 3.475 0
M  V30 7577 H 721.994 4.52585 4.63757 0
M  V30 7578 N 715.4 -1.26948 0.933913 0
M  V30 7579 C 716.647 -1.94087 0.577625 0
M  V30 7580 C 716.975 -1.73345 -0.88214 0
M  V30 7581 O 716.23 -1.05945 -1.64542 0
M  V30 7582 C 716.529 -3.46963 0.857406 0
M  V30 7583 C 716.195 -3.87834 2.2999 0
M  V30 7584 C 714.857 -3.98704 2.69423 0
M  V30 7585 C 717.209 -4.08442 3.23766 0
M  V30 7586 C 714.537 -4.27573 4.01744 0
M  V30 7587 C 716.889 -4.38798 4.55675 0
M  V30 7588 C 715.553 -4.47881 4.94934 0
M  V30 7589 H 714.823 -0.710215 0.211368 0
M  V30 7590 H 717.47 -1.50899 1.17905 0
M  V30 7591 H 715.775 -3.91416 0.173369 0
M  V30 7592 H 717.472 -3.97062 0.560615 0
M  V30 7593 H 714.062 -3.79916 1.98399 0
M  V30 7594 H 718.246 -3.99479 2.94499 0
M  V30 7595 H 713.502 -4.32815 4.31834 0
M  V30 7596 H 717.676 -4.5369 5.28335 0
M  V30 7597 H 715.303 -4.70005 5.97495 0
M  V30 7598 N 716.879 -0.700114 -1.41195 0
M  V30 7599 C 718.29 -0.307249 -1.84154 0
M  V30 7600 C 718.641 1.15539 -1.58572 0
M  V30 7601 O 717.766 1.88744 -1.05852 0
M  V30 7602 C 718.361 -0.550872 -3.34292 0
M  V30 7603 C 716.92 -0.211877 -3.75803 0
M  V30 7604 C 716.067 -0.830915 -2.64558 0
M  V30 7605 H 719.018 -0.900431 -1.30683 0
M  V30 7606 H 719.039 0.188954 -3.80031 0
M  V30 7607 H 718.551 -1.61548 -3.5288 0
M  V30 7608 H 716.652 0.848283 -3.62815 0
M  V30 7609 H 716.765 -0.67007 -4.74391 0
M  V30 7610 H 715.129 -0.260155 -2.53368 0
M  V30 7611 H 715.912 -1.89948 -2.85963 0
M  V30 7612 N 718.357 1.51182 -0.445186 0
M  V30 7613 C 719.605 2.01753 0.11841 0
M  V30 7614 C 719.926 1.33087 1.42523 0
M  V30 7615 O 719.196 0.467891 1.9023 0
M  V30 7616 H 717.776 0.745536 0.0467492 0
M  V30 7617 H 720.438 1.85765 -0.589688 0
M  V30 7618 H 719.534 3.10762 0.288665 0
M  V30 7619 N 719.835 0.176821 1.56605 0
M  V30 7620 C 720.745 -0.763682 2.21822 0
M  V30 7621 C 721.761 -1.24889 1.21156 0
M  V30 7622 O 722.937 -1.29987 1.53836 0
M  V30 7623 C 720.002 -1.97352 2.8505 0
M  V30 7624 C 719.063 -1.53466 4.00932 0
M  V30 7625 C 718.296 -2.68682 4.61135 0
M  V30 7626 O 718.519 -3.85694 4.20234 0
M  V30 7627 O 717.453 -2.42442 5.50913 0
M  V30 7628 H 721.279 -0.238363 3.02763 0
M  V30 7629 H 718.864 -0.0516331 1.49311 0
M  V30 7630 H 720.746 -2.68096 3.25119 0
M  V30 7631 H 719.421 -2.48779 2.07101 0
M  V30 7632 H 718.328 -0.796551 3.65521 0
M  V30 7633 H 719.661 -1.06724 4.8049 0
M  V30 7634 N 721.313 -1.57302 -0.09688 0
M  V30 7635 C 722.223 -2.05258 -1.13606 0
M  V30 7636 C 723.239 -0.977137 -1.43972 0
M  V30 7637 O 724.415 -1.29018 -1.54649 0
M  V30 7638 C 721.48 -2.46593 -2.43706 0
M  V30 7639 C 720.541 -3.68322 -2.20538 0
M  V30 7640 C 719.774 -4.07676 -3.44435 0
M  V30 7641 O 719.997 -3.47141 -4.52603 0
M  V30 7642 O 718.931 -5.00641 -3.34129 0
M  V30 7643 H 722.757 -2.94069 -0.758752 0
M  V30 7644 H 720.342 -1.46164 -0.309263 0
M  V30 7645 H 722.224 -2.73814 -3.20318 0
M  V30 7646 H 720.899 -1.6092 -2.80867 0
M  V30 7647 H 719.806 -3.4622 -1.41713 0
M  V30 7648 H 721.139 -4.54769 -1.88271 0
M  V30 7649 N 722.791 0.367657 -1.53252 0
M  V30 7650 C 723.701 1.47415 -1.82499 0
M  V30 7651 C 724.717 1.58711 -0.713222 0
M  V30 7652 O 725.893 1.74644 -1.00306 0
M  V30 7653 C 722.958 2.82706 -2.00694 0
M  V30 7654 C 722.019 2.80955 -3.24596 0
M  V30 7655 C 721.252 4.09793 -3.41914 0
M  V30 7656 O 721.475 5.05852 -2.63572 0
M  V30 7657 O 720.409 4.15731 -4.3526 0
M  V30 7658 H 724.235 1.25624 -2.765 0
M  V30 7659 H 721.82 0.557559 -1.38606 0
M  V30 7660 H 723.702 3.62873 -2.14246 0
M  V30 7661 H 722.377 3.04479 -1.09883 0
M  V30 7662 H 721.284 1.99494 -3.16469 0
M  V30 7663 H 722.617 2.64136 -4.15323 0
M  V30 7664 N 724.269 1.44576 0.627338 0
M  V30 7665 C 725.201 1.47724 1.75243 0
M  V30 7666 C 726.214 0.370193 1.58535 0
M  V30 7667 O 727.403 0.636151 1.66779 0
M  V30 7668 C 724.503 1.2991 3.13012 0
M  V30 7669 C 723.676 2.5393 3.56143 0
M  V30 7670 C 722.735 2.30961 4.72804 0
M  V30 7671 O 721.761 3.04469 4.80923 0
M  V30 7672 N 722.963 1.34261 5.6476 0
M  V30 7673 H 725.728 2.44718 1.73012 0
M  V30 7674 H 723.289 1.40064 0.812022 0
M  V30 7675 H 725.281 1.12385 3.88782 0
M  V30 7676 H 723.851 0.412668 3.09864 0
M  V30 7677 H 723.071 2.86707 2.70542 0
M  V30 7678 H 724.359 3.36411 3.81713 0
M  V30 7679 H 723.757 0.735573 5.60897 0
M  V30 7680 H 722.314 1.22713 6.40144 0
M  V30 7681 N 725.747 -0.868086 1.31537 0
M  V30 7682 C 727.163 -1.15414 1.10235 0
M  V30 7683 C 727.363 -2.01106 -0.125947 0
M  V30 7684 O 726.419 -2.38994 -0.814734 0
M  V30 7685 C 727.732 -1.84445 2.37488 0
M  V30 7686 C 729.28 -1.97139 2.43116 0
M  V30 7687 C 729.755 -2.69585 3.70254 0
M  V30 7688 N 731.246 -2.77119 3.71159 0
M  V30 7689 C 731.981 -3.33791 4.6623 0
M  V30 7690 N 731.477 -3.9138 5.71659 0
M  V30 7691 N 733.27 -3.31767 4.53747 0
M  V30 7692 H 725.421 -0.297109 2.10312 0
M  V30 7693 H 727.684 -0.194227 0.92789 0
M  V30 7694 H 727.39 -1.2893 3.27215 0
M  V30 7695 H 727.264 -2.84709 2.47428 0
M  V30 7696 H 729.651 -2.51818 1.53856 0
M  V30 7697 H 729.732 -0.95912 2.37138 0
M  V30 7698 H 729.376 -2.15572 4.59881 0
M  V30 7699 H 729.306 -3.71223 3.73499 0
M  V30 7700 H 731.797 -2.3625 2.94948 0
M  V30 7701 H 732.11 -4.3274 6.40278 0
M  V30 7702 H 730.455 -3.8975 5.7543 0
M  V30 7703 H 733.646 -2.86016 3.70557 0
M  V30 7704 H 733.819 -3.75636 5.28017 0
M  V30 7705 N 727.225 -1.14528 -1.08264 0
M  V30 7706 C 728.188 -0.83632 -2.13397 0
M  V30 7707 C 729.188 0.159715 -1.60005 0
M  V30 7708 O 730.378 -0.0688098 -1.74064 0
M  V30 7709 C 727.51 -0.246973 -3.40004 0
M  V30 7710 H 728.703 -1.76808 -2.42237 0
M  V30 7711 H 726.256 -0.951509 -1.24 0
M  V30 7712 H 726.991 0.693436 -3.168 0
M  V30 7713 H 726.776 -0.964412 -3.80055 0
M  V30 7714 H 728.266 -0.0480679 -4.17572 0
M  V30 7715 N 728.703 1.26451 -0.940633 0
M  V30 7716 C 729.636 2.24771 -0.394094 0
M  V30 7717 C 730.614 1.54169 0.516781 0
M  V30 7718 O 731.798 1.82942 0.454352 0
M  V30 7719 C 728.925 3.3591 0.433807 0
M  V30 7720 C 727.971 4.24472 -0.415464 0
M  V30 7721 S 728.804 5.0293 -1.83907 0
M  V30 7722 C 729.96 6.17546 -1.01921 0
M  V30 7723 H 730.193 2.70782 -1.22737 0
M  V30 7724 H 727.726 1.35308 -0.743709 0
M  V30 7725 H 729.684 4.00387 0.905576 0
M  V30 7726 H 728.345 2.88512 1.24175 0
M  V30 7727 H 727.538 5.03525 0.218833 0
M  V30 7728 H 727.14 3.64857 -0.821897 0
M  V30 7729 H 729.432 6.76996 -0.261227 0
M  V30 7730 H 730.375 6.8528 -1.78318 0
M  V30 7731 H 730.783 5.6176 -0.555511 0
M  V30 7732 N 730.181 0.707592 1.40822 0
M  V30 7733 C 731.411 0.252706 2.05049 0
M  V30 7734 C 731.819 -1.10758 1.53393 0
M  V30 7735 O 731.162 -1.70567 0.682097 0
M  V30 7736 C 731.224 0.146001 3.59203 0
M  V30 7737 C 730.888 1.44027 4.33711 0
M  V30 7738 C 731.885 2.38058 4.62195 0
M  V30 7739 C 729.57 1.69698 4.72766 0
M  V30 7740 C 731.564 3.56013 5.28709 0
M  V30 7741 C 729.251 2.87936 5.39014 0
M  V30 7742 C 730.249 3.80915 5.66915 0
M  V30 7743 O 729.937 4.9708 6.31796 0
M  V30 7744 H 729.669 0.112784 0.666525 0
M  V30 7745 H 732.223 0.96417 1.81364 0
M  V30 7746 H 730.453 -0.621338 3.81676 0
M  V30 7747 H 732.142 -0.273275 4.04979 0
M  V30 7748 H 732.908 2.19487 4.32493 0
M  V30 7749 H 728.787 0.981835 4.50423 0
M  V30 7750 H 732.331 4.28604 5.50404 0
M  V30 7751 H 728.228 3.06419 5.68135 0
M  V30 7752 H 728.996 4.97053 6.50293 0
M  V30 7753 N 731.66 -1.50943 0.453197 0
M  V30 7754 C 733.076 -1.59245 0.106342 0
M  V30 7755 C 733.276 -1.46287 -1.38572 0
M  V30 7756 O 732.332 -1.31219 -2.15726 0
M  V30 7757 C 733.645 -2.93797 0.640595 0
M  V30 7758 C 735.193 -3.07148 0.602435 0
M  V30 7759 C 735.668 -4.44247 1.11393 0
M  V30 7760 N 737.159 -4.50611 1.07258 0
M  V30 7761 C 737.894 -5.55049 1.43905 0
M  V30 7762 N 737.39 -6.66828 1.87914 0
M  V30 7763 N 739.183 -5.45494 1.35621 0
M  V30 7764 H 731.334 -1.5761 1.42382 0
M  V30 7765 H 733.597 -0.74384 0.587713 0
M  V30 7766 H 733.303 -3.087 1.68515 0
M  V30 7767 H 733.177 -3.77127 0.0742272 0
M  V30 7768 H 735.564 -2.91903 -0.433171 0
M  V30 7769 H 735.645 -2.25619 1.20539 0
M  V30 7770 H 735.289 -4.60239 2.14808 0
M  V30 7771 H 735.219 -5.2434 0.487353 0
M  V30 7772 H 737.71 -3.70391 0.749585 0
M  V30 7773 H 738.023 -7.42558 2.14072 0
M  V30 7774 H 736.368 -6.67995 1.91853 0
M  V30 7775 H 739.559 -4.57053 1.01093 0
M  V30 7776 H 739.732 -6.2677 1.64508 0
M  V30 7777 N 733.138 -0.185124 -1.56509 0
M  V30 7778 C 734.07 0.771401 -2.15829 0
M  V30 7779 C 735.083 1.18392 -1.11747 0
M  V30 7780 O 736.272 1.12137 -1.38879 0
M  V30 7781 C 733.372 2.05169 -2.69739 0
M  V30 7782 C 732.545 1.80056 -3.98621 0
M  V30 7783 C 731.604 2.92435 -4.37456 0
M  V30 7784 O 730.63 2.62473 -5.05071 0
M  V30 7785 N 731.832 4.20554 -4.00143 0
M  V30 7786 H 734.597 0.264184 -2.98533 0
M  V30 7787 H 732.158 -0.00281069 -1.619 0
M  V30 7788 H 734.15 2.7947 -2.92709 0
M  V30 7789 H 732.72 2.47041 -1.91545 0
M  V30 7790 H 731.94 0.895862 -3.83885 0
M  V30 7791 H 733.228 1.60662 -4.82768 0
M  V30 7792 H 732.626 4.47753 -3.45736 0
M  V30 7793 H 731.183 4.91514 -4.28085 0
M  V30 7794 N 734.616 1.57351 0.0885366 0
M  V30 7795 C 735.548 1.99221 1.13329 0
M  V30 7796 C 736.561 0.895705 1.35945 0
M  V30 7797 O 737.75 1.17376 1.34481 0
M  V30 7798 C 734.85 2.3016 2.48756 0
M  V30 7799 C 734.023 3.61444 2.46327 0
M  V30 7800 C 733.082 3.80244 3.63732 0
M  V30 7801 O 732.108 4.52024 3.45924 0
M  V30 7802 N 733.31 3.2132 4.8346 0
M  V30 7803 H 736.075 2.89456 0.776862 0
M  V30 7804 H 733.636 1.59505 0.277428 0
M  V30 7805 H 735.628 2.39925 3.25911 0
M  V30 7806 H 734.198 1.459 2.76464 0
M  V30 7807 H 733.418 3.62588 1.54673 0
M  V30 7808 H 734.706 4.47678 2.41789 0
M  V30 7809 H 734.104 2.63028 5.00832 0
M  V30 7810 H 732.661 3.3656 5.58185 0
M  V30 7811 N 736.094 -0.359525 1.53444 0
M  V30 7812 C 737.024 -1.44662 1.8329 0
M  V30 7813 C 738.005 -1.55617 0.68683 0
M  V30 7814 O 739.19 -1.70086 0.93725 0
M  V30 7815 C 736.32 -2.81923 2.02822 0
M  V30 7816 C 735.274 -2.85787 3.18606 0
M  V30 7817 C 734.6 -4.25781 3.23442 0
M  V30 7818 C 735.9 -2.52762 4.57065 0
M  V30 7819 H 737.594 -1.19934 2.74329 0
M  V30 7820 H 735.14 -0.575517 1.31999 0
M  V30 7821 H 737.093 -3.58005 2.22285 0
M  V30 7822 H 735.817 -3.08051 1.085 0
M  V30 7823 H 734.476 -2.12157 2.98973 0
M  V30 7824 H 734.124 -4.48994 2.26745 0
M  V30 7825 H 733.824 -4.29281 4.01238 0
M  V30 7826 H 735.348 -5.03727 3.45096 0
M  V30 7827 H 736.762 -3.18557 4.76649 0
M  V30 7828 H 735.159 -2.67569 5.37147 0
M  V30 7829 H 736.229 -1.47993 4.61764 0
M  V30 7830 N 737.572 -1.44907 -0.619662 0
M  V30 7831 C 738.797 -1.52021 -1.41083 0
M  V30 7832 C 739.222 -0.14976 -1.87503 0
M  V30 7833 O 738.58 0.863303 -1.59426 0
M  V30 7834 C 738.628 -2.49911 -2.59955 0
M  V30 7835 O 737.732 -2.00857 -3.60181 0
M  V30 7836 H 737.073 -0.512912 -0.421684 0
M  V30 7837 H 739.603 -1.90149 -0.755282 0
M  V30 7838 H 739.613 -2.68323 -3.07354 0
M  V30 7839 H 738.288 -3.4945 -2.25516 0
M  V30 7840 H 736.865 -1.92265 -3.19513 0
M  V30 7841 N 739.05 0.861098 -1.31996 0
M  V30 7842 C 740 1.95703 -1.1698 0
M  V30 7843 C 740.984 1.60709 -0.0784201 0
M  V30 7844 O 742.176 1.74365 -0.304262 0
M  V30 7845 C 739.305 3.31606 -0.888388 0
M  V30 7846 C 738.391 3.7284 -2.02117 0
M  V30 7847 N 738.782 3.85957 -3.26911 0
M  V30 7848 C 737.08 4.02419 -1.92289 0
M  V30 7849 C 737.781 4.21333 -4.01065 0
M  V30 7850 N 736.757 4.32502 -3.29307 0
M  V30 7851 H 740.559 2.03968 -2.11599 0
M  V30 7852 H 738.073 1.05245 -1.23682 0
M  V30 7853 H 740.07 4.09881 -0.761782 0
M  V30 7854 H 738.73 3.24662 0.0494898 0
M  V30 7855 H 739.741 3.70449 -3.61923 0
M  V30 7856 H 736.418 4.03814 -1.06022 0
M  V30 7857 H 737.808 4.39005 -5.08649 0
M  V30 7858 N 740.528 1.15101 1.07655 0
M  V30 7859 C 741.775 0.923974 1.80191 0
M  V30 7860 C 742.103 -0.549065 1.86589 0
M  V30 7861 O 741.358 -1.42307 1.3434 0
M  V30 7862 C 741.657 1.47954 3.25337 0
M  V30 7863 C 741.323 2.97253 3.39044 0
M  V30 7864 C 739.985 3.38012 3.42493 0
M  V30 7865 C 742.337 3.93219 3.42094 0
M  V30 7866 C 739.665 4.73384 3.4659 0
M  V30 7867 C 742.017 5.28458 3.47728 0
M  V30 7868 C 740.681 5.68717 3.49453 0
M  V30 7869 H 739.951 0.338106 0.659367 0
M  V30 7870 H 742.598 1.43594 1.26701 0
M  V30 7871 H 740.903 0.888691 3.81588 0
M  V30 7872 H 742.6 1.27972 3.80032 0
M  V30 7873 H 739.19 2.64746 3.37057 0
M  V30 7874 H 743.374 3.62805 3.38654 0
M  V30 7875 H 738.63 5.03925 3.46222 0
M  V30 7876 H 742.804 6.02618 3.49034 0
M  V30 7877 H 740.431 6.73596 3.5238 0
M  V30 7878 N 742.006 -1.2595 0.947325 0
M  V30 7879 C 742.969 -2.24407 0.466285 0
M  V30 7880 C 743.969 -1.55054 -0.426005 0
M  V30 7881 O 745.159 -1.7275 -0.224319 0
M  V30 7882 C 742.291 -3.39326 -0.327201 0
M  V30 7883 H 743.484 -2.68477 1.33642 0
M  V30 7884 H 741.037 -1.38211 0.729887 0
M  V30 7885 H 741.772 -3.00667 -1.21532 0
M  V30 7886 H 741.557 -3.9085 0.312839 0
M  V30 7887 H 743.047 -4.12455 -0.653477 0
M  V30 7888 N 743.484 -0.715051 -1.40445 0
M  V30 7889 C 744.432 -0.0509974 -2.32544 0
M  V30 7890 C 745.426 0.747602 -1.52011 0
M  V30 7891 O 746.632 0.651031 -1.67814 0
M  V30 7892 H 743.007 0.00231113 -0.751996 0
M  V30 7893 H 744.978 -0.84449 -2.86201 0
M  V30 7894 C 743.727 0.857101 -3.3697 0
M  V30 7895 H 743.05 0.252 -3.99005 0
M  V30 7896 H 744.49 1.28971 -4.03909 0
M  V30 7897 C 742.949 1.98231 -2.72408 0
M  V30 7898 O 743.479 3.07309 -2.58697 0
M  V30 7899 N 741.685 1.76577 -2.308 0
M  V30 7900 H 741.232 0.878641 -2.42152 0
M  V30 7901 H 741.19 2.52043 -1.87941 0
M  V30 7902 N 744.962 1.50701 -0.461195 0
M  V30 7903 C 745.909 2.2831 0.338094 0
M  V30 7904 C 746.879 1.32928 0.995957 0
M  V30 7905 O 748.064 1.61857 1.0103 0
M  V30 7906 C 745.204 3.14539 1.41983 0
M  V30 7907 C 744.317 4.24942 0.77773 0
M  V30 7908 C 743.452 4.98443 1.83652 0
M  V30 7909 C 742.491 6.00733 1.17413 0
M  V30 7910 N 741.628 6.6755 2.17533 0
M  V30 7911 H 746.468 2.96167 -0.330051 0
M  V30 7912 H 744.005 1.4606 -0.174611 0
M  V30 7913 H 745.963 3.62877 2.05855 0
M  V30 7914 H 744.593 2.48749 2.05727 0
M  V30 7915 H 743.645 3.80391 0.0266924 0
M  V30 7916 H 744.957 4.98151 0.254362 0
M  V30 7917 H 744.111 5.50449 2.55129 0
M  V30 7918 H 742.85 4.24917 2.39367 0
M  V30 7919 H 741.855 5.47997 0.444944 0
M  V30 7920 H 743.08 6.76227 0.624006 0
M  V30 7921 H 741.026 5.96823 2.72284 0
M  V30 7922 H 740.943 7.36603 1.70154 0
M  V30 7923 H 742.211 7.24178 2.88421 0
M  V30 7924 N 746.441 0.193421 1.56409 0
M  V30 7925 C 747.852 -0.319471 1.83946 0
M  V30 7926 C 748.203 -1.61505 1.11403 0
M  V30 7927 O 747.328 -2.13139 0.374289 0
M  V30 7928 C 747.923 -0.586411 3.33686 0
M  V30 7929 C 746.482 -1.04368 3.61641 0
M  V30 7930 C 745.629 -0.0913834 2.77149 0
M  V30 7931 H 748.58 0.417242 1.53117 0
M  V30 7932 H 748.601 -1.43591 3.52366 0
M  V30 7933 H 748.113 0.356701 3.86457 0
M  V30 7934 H 746.214 -2.00113 3.14302 0
M  V30 7935 H 746.327 -0.937549 4.69837 0
M  V30 7936 H 744.691 -0.592954 2.47702 0
M  V30 7937 H 745.474 0.846142 3.32709 0
M  V30 7938 N 747.919 -1.57396 -0.0801906 0
M  V30 7939 C 749.165 -1.87113 -0.782083 0
M  V30 7940 C 749.498 -0.78458 -1.77646 0
M  V30 7941 O 748.773 0.205993 -1.93406 0
M  V30 7942 C 749.056 -3.27483 -1.49756 0
M  V30 7943 C 748.909 -4.46782 -0.520171 0
M  V30 7944 C 750.228 -3.65965 -2.44454 0
M  V30 7945 H 747.347 -0.680559 -0.282858 0
M  V30 7946 H 749.989 -1.89946 -0.0454139 0
M  V30 7947 H 748.139 -3.25199 -2.12551 0
M  V30 7948 H 749.811 -4.61187 0.101919 0
M  V30 7949 H 748.054 -4.33485 0.165219 0
M  V30 7950 H 748.725 -5.41761 -1.05824 0
M  V30 7951 H 751.201 -3.69289 -1.91742 0
M  V30 7952 H 750.077 -4.65086 -2.91524 0
M  V30 7953 H 750.338 -2.95446 -3.28883 0
M  V30 7954 N 749.397 0.351382 -1.53633 0
M  V30 7955 C 750.625 1.11275 -1.74429 0
M  V30 7956 C 751.04 1.82602 -0.479798 0
M  V30 7957 O 750.397 1.74074 0.548125 0
M  V30 7958 C 750.448 2.13223 -2.91921 0
M  V30 7959 O 750.169 1.44798 -4.13479 0
M  V30 7960 C 751.67 3.01797 -3.24706 0
M  V30 7961 H 748.89 0.332153 -0.583023 0
M  V30 7962 H 751.434 0.405974 -2.0043 0
M  V30 7963 H 749.589 2.79477 -2.68274 0
M  V30 7964 H 750.003 2.12839 -4.79374 0
M  V30 7965 H 751.477 3.69282 -4.10286 0
M  V30 7966 H 751.954 3.67387 -2.40673 0
M  V30 7967 H 752.56 2.41141 -3.5033 0
M  V30 7968 N 750.875 1.45233 0.611969 0
M  V30 7969 C 751.808 1.48056 1.73651 0
M  V30 7970 C 752.786 0.337373 1.59061 0
M  V30 7971 O 753.97 0.537222 1.80683 0
M  V30 7972 C 751.097 1.33144 3.11433 0
M  V30 7973 C 750.143 2.51272 3.44623 0
M  V30 7974 S 750.976 4.13754 3.39953 0
M  V30 7975 C 752.132 4.013 4.80322 0
M  V30 7976 H 752.365 2.43205 1.70993 0
M  V30 7977 H 749.898 1.32763 0.788246 0
M  V30 7978 H 751.856 1.25228 3.90932 0
M  V30 7979 H 750.517 0.394734 3.1161 0
M  V30 7980 H 749.71 2.36753 4.44932 0
M  V30 7981 H 749.312 2.56027 2.72629 0
M  V30 7982 H 751.604 3.66174 5.7002 0
M  V30 7983 H 752.547 5.01506 4.99897 0
M  V30 7984 H 752.955 3.3303 4.55797 0
M  V30 7985 N 752.353 -0.854086 1.3245 0
M  V30 7986 C 753.769 -1.14238 1.11453 0
M  V30 7987 C 753.969 -2.01228 -0.10461 0
M  V30 7988 O 753.025 -2.39845 -0.789339 0
M  V30 7989 C 754.338 -1.81916 2.39431 0
M  V30 7990 C 755.886 -1.94549 2.45193 0
M  V30 7991 C 756.361 -2.65642 3.73093 0
M  V30 7992 N 757.852 -2.73167 3.74078 0
M  V30 7993 C 758.587 -3.28828 4.69744 0
M  V30 7994 N 758.083 -3.85295 5.75778 0
M  V30 7995 N 759.876 -3.26936 4.57241 0
M  V30 7996 H 752.027 -0.274786 2.10615 0
M  V30 7997 H 754.29 -0.184375 0.929898 0
M  V30 7998 H 753.996 -1.25452 3.28565 0
M  V30 7999 H 753.87 -2.82068 2.50434 0
M  V30 8000 H 756.257 -2.50172 1.56518 0
M  V30 8001 H 756.338 -0.933914 2.38142 0
M  V30 8002 H 755.982 -2.10683 4.62142 0
M  V30 8003 H 755.912 -3.6724 3.77415 0
M  V30 8004 H 758.403 -2.33108 2.97438 0
M  V30 8005 H 758.716 -4.25925 6.44832 0
M  V30 8006 H 757.061 -3.83625 5.79531 0
M  V30 8007 H 760.252 -2.8207 3.7357 0
M  V30 8008 H 760.425 -3.70014 5.31971 0
M  V30 8009 N 753.831 -1.1567 -1.07043 0
M  V30 8010 C 755.059 -0.957471 -1.83412 0
M  V30 8011 C 755.474 0.494271 -1.82215 0
M  V30 8012 O 754.831 1.34288 -1.23584 0
M  V30 8013 C 754.882 -1.46784 -3.30359 0
M  V30 8014 O 754.603 -2.86271 -3.31633 0
M  V30 8015 C 756.104 -1.31054 -4.23485 0
M  V30 8016 H 753.324 -0.33986 -0.578564 0
M  V30 8017 H 755.868 -1.53518 -1.35102 0
M  V30 8018 H 754.023 -0.932586 -3.76007 0
M  V30 8019 H 754.437 -3.0948 -4.23465 0
M  V30 8020 H 755.911 -1.71605 -5.24648 0
M  V30 8021 H 756.388 -0.255107 -4.38458 0
M  V30 8022 H 756.994 -1.83503 -3.83676 0
M  V30 8023 N 755.309 1.25446 -0.953992 0
M  V30 8024 C 756.239 2.28264 -0.491717 0
M  V30 8025 C 757.22 1.63717 0.461617 0
M  V30 8026 O 758.405 1.90821 0.36071 0
M  V30 8027 C 755.535 3.46525 0.231915 0
M  V30 8028 C 754.489 4.23247 -0.636098 0
M  V30 8029 C 753.815 5.34254 0.218238 0
M  V30 8030 C 755.115 4.85971 -1.91389 0
M  V30 8031 H 756.809 2.67183 -1.35106 0
M  V30 8032 H 754.355 1.2844 -0.651095 0
M  V30 8033 H 756.308 4.17576 0.566439 0
M  V30 8034 H 755.032 3.06594 1.12551 0
M  V30 8035 H 753.691 3.53978 -0.953696 0
M  V30 8036 H 753.339 4.90564 1.11156 0
M  V30 8037 H 753.039 5.86501 -0.359232 0
M  V30 8038 H 754.563 6.08138 0.547743 0
M  V30 8039 H 755.977 5.49168 -1.64581 0
M  V30 8040 H 754.374 5.48391 -2.43696 0
M  V30 8041 H 755.444 4.08192 -2.61738 0
M  V30 8042 N 756.787 0.722489 1.40064 0
M  V30 8043 C 758.064 0.191829 1.94657 0
M  V30 8044 C 758.444 -1.30389 1.66018 0
M  V30 8045 O 757.792 -2.06342 0.981588 0
M  V30 8046 C 758.002 0.511978 3.45224 0
M  V30 8047 C 759.35 0.454426 4.22161 0
M  V30 8048 O 760.374 0.448438 3.53366 0
M  V30 8049 O 759.233 0.437986 5.44742 0
M  V30 8050 H 756.327 0.0307821 0.826427 0
M  V30 8051 H 758.873 0.800493 1.49634 0
M  V30 8052 H 757.645 1.54622 3.59455 0
M  V30 8053 H 757.268 -0.126296 3.97399 0
M  V30 8054 N 758.265 -1.50454 0.469181 0
M  V30 8055 C 759.514 -2.01507 -0.0881425 0
M  V30 8056 C 759.827 -1.35613 -1.40956 0
M  V30 8057 O 761.033 -1.77812 -2.05171 0
M  V30 8058 C 759.489 -3.59301 -0.207596 0
M  V30 8059 C 759.097 -4.34152 1.10527 0
M  V30 8060 C 760.841 -4.18401 -0.716981 0
M  V30 8061 C 758.748 -5.83725 0.949717 0
M  V30 8062 H 757.678 -0.753106 -0.0367156 0
M  V30 8063 H 760.329 -1.73282 0.603788 0
M  V30 8064 H 758.711 -3.84106 -0.963265 0
M  V30 8065 H 759.885 -4.21073 1.87175 0
M  V30 8066 H 758.2 -3.86652 1.54562 0
M  V30 8067 H 760.797 -5.27895 -0.850363 0
M  V30 8068 H 761.14 -3.79657 -1.70782 0
M  V30 8069 H 761.673 -3.97796 -0.0187511 0
M  V30 8070 H 758.412 -6.26938 1.91387 0
M  V30 8071 H 757.932 -5.99383 0.223591 0
M  V30 8072 H 759.611 -6.44065 0.61557 0
M  V30 8073 N 759.743 -0.201713 -1.56304 0
M  V30 8074 C 760.991 0.434447 -1.97375 0
M  V30 8075 C 761.312 1.61692 -1.08998 0
M  V30 8076 O 760.582 1.95223 -0.162682 0
M  V30 8077 H 759.162 0.163497 -0.728888 0
M  V30 8078 H 761.824 -0.289988 -1.92731 0
M  V30 8079 H 760.92 0.774136 -3.02347 0
M  V30 8080 N 761.222 1.57436 0.0718424 0
M  V30 8081 C 762.185 2.02703 1.06977 0
M  V30 8082 C 763.185 0.924062 1.31597 0
M  V30 8083 O 764.375 1.18894 1.27318 0
M  V30 8084 C 761.507 2.40763 2.41342 0
M  V30 8085 H 762.7 2.92098 0.679619 0
M  V30 8086 H 760.253 1.5304 0.317565 0
M  V30 8087 H 760.988 1.54394 2.8519 0
M  V30 8088 H 760.773 3.21249 2.24814 0
M  V30 8089 H 762.263 2.76361 3.13073 0
M  V30 8090 N 762.7 -0.34323 1.53817 0
M  V30 8091 C 763.977 -1.10047 1.61706 0
M  V30 8092 C 764.357 -2.06495 0.438514 0
M  V30 8093 O 763.705 -2.21297 -0.569188 0
M  V30 8094 C 763.915 -1.81985 2.97796 0
M  V30 8095 C 765.263 -2.35717 3.53161 0
M  V30 8096 O 766.287 -1.9208 2.99973 0
M  V30 8097 O 765.146 -3.15551 4.46195 0
M  V30 8098 H 762.24 -0.506096 0.654061 0
M  V30 8099 H 764.786 -0.344697 1.66162 0
M  V30 8100 H 763.558 -1.11722 3.75012 0
M  V30 8101 H 763.181 -2.64419 2.96931 0
M  V30 8102 N 764.178 -1.45556 -0.604258 0
M  V30 8103 C 765.125 -1.54482 -1.71476 0
M  V30 8104 C 766.095 -0.390479 -1.61445 0
M  V30 8105 O 767.28 -0.604371 -1.80975 0
M  V30 8106 C 764.42 -1.52064 -3.09791 0
M  V30 8107 C 763.533 -2.78073 -3.30604 0
M  V30 8108 C 762.668 -2.67304 -4.59044 0
M  V30 8109 C 761.707 -3.88352 -4.73127 0
M  V30 8110 N 760.844 -3.76098 -5.9287 0
M  V30 8111 H 765.684 -2.49349 -1.63184 0
M  V30 8112 H 763.221 -1.23725 -0.795641 0
M  V30 8113 H 765.179 -1.48649 -3.89819 0
M  V30 8114 H 763.809 -0.607442 -3.17033 0
M  V30 8115 H 762.861 -2.91561 -2.44329 0
M  V30 8116 H 764.173 -3.67847 -3.36883 0
M  V30 8117 H 763.327 -2.61875 -5.47272 0
M  V30 8118 H 762.066 -1.75135 -4.55169 0
M  V30 8119 H 761.071 -3.94137 -3.83322 0
M  V30 8120 H 762.296 -4.81591 -4.78797 0
M  V30 8121 H 760.242 -2.867 -5.90033 0
M  V30 8122 H 760.159 -4.59509 -6.00323 0
M  V30 8123 H 761.427 -3.74607 -6.83586 0
M  V30 8124 N 765.656 0.84705 -1.32902 0
M  V30 8125 C 766.933 1.58583 -1.14503 0
M  V30 8126 C 767.313 2.09075 0.291724 0
M  V30 8127 O 766.661 1.88636 1.28952 0
M  V30 8128 C 766.871 2.72605 -2.17916 0
M  V30 8129 C 768.219 3.41993 -2.51646 0
M  V30 8130 O 769.243 2.82838 -2.1652 0
M  V30 8131 O 768.102 4.48761 -3.1189 0
M  V30 8132 H 765.196 0.698756 -0.442345 0
M  V30 8133 H 767.742 0.890516 -1.44457 0
M  V30 8134 H 766.514 2.32876 -3.14459 0
M  V30 8135 H 766.137 3.49807 -1.89 0
M  V30 8136 N 767.134 1.16236 1.06428 0
M  V30 8137 C 768.064 0.890807 2.1584 0
M  V30 8138 C 769.045 -0.162333 1.69324 0
M  V30 8139 O 770.23 -0.0147191 1.94194 0
M  V30 8140 C 767.36 0.389615 3.45108 0
M  V30 8141 C 766.314 1.38051 4.05125 0
M  V30 8142 C 765.64 0.737773 5.29586 0
M  V30 8143 C 766.94 2.74965 4.44062 0
M  V30 8144 H 768.634 1.80577 2.38814 0
M  V30 8145 H 766.18 0.869657 1.14774 0
M  V30 8146 H 768.133 0.187127 4.20984 0
M  V30 8147 H 766.857 -0.560851 3.21748 0
M  V30 8148 H 765.516 1.56952 3.31303 0
M  V30 8149 H 765.164 -0.219135 5.02522 0
M  V30 8150 H 764.864 1.39914 5.70699 0
M  V30 8151 H 766.388 0.545275 6.0816 0
M  V30 8152 H 767.802 2.59855 5.11027 0
M  V30 8153 H 766.199 3.37563 4.96156 0
M  V30 8154 H 767.269 3.30321 3.54987 0
M  V30 8155 N 768.612 -1.24939 0.960631 0
M  V30 8156 C 770.023 -1.74701 0.658529 0
M  V30 8157 C 770.374 -1.77967 -0.825959 0
M  V30 8158 O 769.499 -1.40444 -1.64634 0
M  V30 8159 C 770.094 -3.17263 1.18867 0
M  V30 8160 C 768.653 -3.64561 0.936614 0
M  V30 8161 C 767.8 -2.43423 1.32817 0
M  V30 8162 H 770.751 -1.10741 1.13676 0
M  V30 8163 H 770.772 -3.76481 0.551589 0
M  V30 8164 H 770.284 -3.14854 2.26912 0
M  V30 8165 H 768.385 -3.72378 -0.128608 0
M  V30 8166 H 768.498 -4.52392 1.57729 0
M  V30 8167 H 766.862 -2.43513 0.746548 0
M  V30 8168 H 767.645 -2.437 2.41796 0
M  V30 8169 N 770.09 -0.729906 -1.39679 0
M  V30 8170 C 771.32 -0.285295 -2.04621 0
M  V30 8171 C 771.728 1.08304 -1.55135 0
M  V30 8172 O 771.071 1.6946 -0.709146 0
M  V30 8173 C 771.133 -0.203129 -3.58926 0
M  V30 8174 C 770.797 -1.50909 -4.31365 0
M  V30 8175 C 771.794 -2.45381 -4.58349 0
M  V30 8176 C 769.479 -1.77198 -4.70007 0
M  V30 8177 C 771.473 -3.64379 -5.22979 0
M  V30 8178 C 769.16 -2.96474 -5.34365 0
M  V30 8179 C 770.158 -3.89886 -5.60783 0
M  V30 8180 O 769.846 -5.07069 -6.23808 0
M  V30 8181 H 769.578 -0.123373 -0.664647 0
M  V30 8182 H 772.132 -0.992901 -1.79807 0
M  V30 8183 H 770.362 0.560538 -3.82616 0
M  V30 8184 H 772.051 0.208811 -4.05363 0
M  V30 8185 H 772.817 -2.2634 -4.28947 0
M  V30 8186 H 768.696 -1.05337 -4.48804 0
M  V30 8187 H 772.24 -4.37307 -5.43515 0
M  V30 8188 H 768.137 -3.15419 -5.63188 0
M  V30 8189 H 768.905 -5.07335 -6.42303 0
M  V30 8190 N 771.568 1.50203 -0.477153 0
M  V30 8191 C 772.815 2.02358 0.0757385 0
M  V30 8192 C 773.143 1.3587 1.39174 0
M  V30 8193 O 772.398 0.475415 1.89838 0
M  V30 8194 C 772.697 3.56127 0.301325 0
M  V30 8195 C 772.363 4.41126 -0.933725 0
M  V30 8196 C 771.025 4.64075 -1.27233 0
M  V30 8197 C 773.377 4.90737 -1.75576 0
M  V30 8198 C 770.705 5.33878 -2.43292 0
M  V30 8199 C 773.057 5.61816 -2.90768 0
M  V30 8200 C 771.721 5.83016 -3.25036 0
M  V30 8201 H 770.991 0.740482 0.0277147 0
M  V30 8202 H 773.638 1.80754 -0.632467 0
M  V30 8203 H 771.943 3.76279 1.09183 0
M  V30 8204 H 773.64 3.94053 0.743184 0
M  V30 8205 H 770.23 4.23489 -0.659935 0
M  V30 8206 H 774.414 4.72856 -1.50734 0
M  V30 8207 H 769.67 5.48499 -2.70109 0
M  V30 8208 H 773.844 5.99237 -3.54807 0
M  V30 8209 H 771.471 6.36881 -4.15074 0
M  V30 8210 N 773.046 0.209999 1.56195 0
M  V30 8211 C 774.271 -0.433064 2.02828 0
M  V30 8212 C 774.696 -1.5337 1.08901 0
M  V30 8213 O 774.054 -1.81144 0.0751132 0
M  V30 8214 C 774.102 -0.952635 3.47789 0
M  V30 8215 O 773.206 -2.0647 3.56993 0
M  V30 8216 H 772.547 -0.0994594 0.656509 0
M  V30 8217 H 775.077 0.32525 2.01998 0
M  V30 8218 H 775.087 -1.26542 3.8788 0
M  V30 8219 H 773.762 -0.147007 4.1564 0
M  V30 8220 H 772.339 -1.75942 3.28784 0
M  V30 8221 N 774.524 -1.57472 -0.0634922 0
M  V30 8222 C 775.773 -1.86837 -0.759928 0
M  V30 8223 C 776.086 -0.803823 -1.7832 0
M  V30 8224 O 777.292 -0.985578 -2.52979 0
M  V30 8225 C 775.748 -3.31448 -1.4025 0
M  V30 8226 C 775.356 -4.46052 -0.417368 0
M  V30 8227 C 777.1 -3.70003 -2.08082 0
M  V30 8228 C 775.007 -5.81707 -1.06633 0
M  V30 8229 H 773.937 -0.697009 -0.287567 0
M  V30 8230 H 776.588 -1.83495 -0.0133914 0
M  V30 8231 H 774.97 -3.29427 -2.19759 0
M  V30 8232 H 776.144 -4.5948 0.348503 0
M  V30 8233 H 774.459 -4.16104 0.156955 0
M  V30 8234 H 777.056 -4.68653 -2.57426 0
M  V30 8235 H 777.399 -3.00226 -2.88393 0
M  V30 8236 H 777.932 -3.7405 -1.35394 0
M  V30 8237 H 774.671 -6.54798 -0.303374 0
M  V30 8238 H 774.191 -5.72064 -1.80286 0
M  V30 8239 H 775.87 -6.27317 -1.58376 0
M  V30 8240 N 776.003 0.335068 -1.53997 0
M  V30 8241 C 776.913 1.43511 -1.85585 0
M  V30 8242 C 777.929 1.57162 -0.746726 0
M  V30 8243 O 779.105 1.72477 -1.03988 0
M  V30 8244 C 776.17 2.78386 -2.06646 0
M  V30 8245 C 775.231 2.74007 -3.30483 0
M  V30 8246 C 774.464 4.02449 -3.50529 0
M  V30 8247 O 774.687 5.00147 -2.74242 0
M  V30 8248 O 773.621 4.06405 -4.4398 0
M  V30 8249 H 777.447 1.19731 -2.79102 0
M  V30 8250 H 775.032 0.528033 -1.39758 0
M  V30 8251 H 776.914 3.58247 -2.21894 0
M  V30 8252 H 775.589 3.0208 -1.16317 0
M  V30 8253 H 774.496 1.92736 -3.2063 0
M  V30 8254 H 775.829 2.55267 -4.20832 0
M  V30 8255 N 777.481 1.45874 0.596531 0
M  V30 8256 C 778.391 1.57947 1.73464 0
M  V30 8257 C 779.407 0.463461 1.67714 0
M  V30 8258 O 780.583 0.725685 1.87872 0
M  V30 8259 C 777.648 1.55348 3.09948 0
M  V30 8260 C 776.709 2.78074 3.27068 0
M  V30 8261 C 775.942 2.75589 4.57041 0
M  V30 8262 O 776.165 1.83545 5.40063 0
M  V30 8263 O 775.099 3.66945 4.77111 0
M  V30 8264 H 778.925 2.54169 1.66228 0
M  V30 8265 H 776.51 1.2851 0.76194 0
M  V30 8266 H 778.392 1.56545 3.91244 0
M  V30 8267 H 777.067 0.622811 3.17652 0
M  V30 8268 H 775.974 2.82435 2.45319 0
M  V30 8269 H 777.307 3.70303 3.24248 0
M  V30 8270 N 778.959 -0.83999 1.33349 0
M  V30 8271 C 779.869 -1.98182 1.25543 0
M  V30 8272 C 780.885 -1.73204 0.166208 0
M  V30 8273 O 782.061 -1.97596 0.389589 0
M  V30 8274 C 779.126 -3.32157 0.993614 0
M  V30 8275 C 778.187 -3.70258 2.17273 0
M  V30 8276 C 777.42 -4.9784 1.92331 0
M  V30 8277 O 777.643 -5.63679 0.873074 0
M  V30 8278 O 776.577 -5.33418 2.78835 0
M  V30 8279 H 780.403 -2.07708 2.21565 0
M  V30 8280 H 777.988 -0.972852 1.13384 0
M  V30 8281 H 779.87 -4.12433 0.864711 0
M  V30 8282 H 778.545 -3.23637 0.0636596 0
M  V30 8283 H 777.452 -2.90497 2.35716 0
M  V30 8284 H 778.785 -3.83442 3.08598 0
M  V30 8285 N 780.437 -1.16799 -1.0581 0
M  V30 8286 C 781.385 -0.875111 -2.1551 0
M  V30 8287 C 782.379 0.157781 -1.68664 0
M  V30 8288 O 783.585 0.011297 -1.79996 0
M  V30 8289 H 779.96 -0.26542 -0.703602 0
M  V30 8290 H 781.931 -1.8076 -2.37421 0
M  V30 8291 C 780.68 -0.39802 -3.45414 0
M  V30 8292 H 780.003 -1.18425 -3.81858 0
M  V30 8293 H 781.443 -0.231913 -4.23365 0
M  V30 8294 C 779.902 0.88327 -3.25115 0
M  V30 8295 O 780.432 1.95145 -3.51114 0
M  V30 8296 N 778.638 0.828961 -2.78526 0
M  V30 8297 H 778.185 -0.0405029 -2.57568 0
M  V30 8298 H 778.143 1.68673 -2.65324 0
M  V30 8299 N 781.915 1.24427 -0.967243 0
M  V30 8300 C 783.14 1.9708 -0.646069 0
M  V30 8301 C 783.565 1.71272 0.777665 0
M  V30 8302 O 782.923 0.976179 1.52776 0
M  V30 8303 C 782.971 3.48501 -0.926266 0
M  V30 8304 O 782.075 4.12398 -0.0114653 0
M  V30 8305 H 781.416 0.617423 -0.244304 0
M  V30 8306 H 783.946 1.58215 -1.29727 0
M  V30 8307 H 783.956 3.98885 -0.857619 0
M  V30 8308 H 782.631 3.66613 -1.96386 0
M  V30 8309 H 781.208 3.72661 -0.133396 0
M  V30 8310 N 783.393 0.737304 1.3929 0
M  V30 8311 C 784.356 0.10731 2.28949 0
M  V30 8312 C 785.356 -0.664716 1.46418 0
M  V30 8313 O 786.546 -0.493392 1.67067 0
M  V30 8314 C 783.678 -0.857145 3.29948 0
M  V30 8315 H 784.871 0.89725 2.86163 0
M  V30 8316 H 782.424 0.503279 1.47976 0
M  V30 8317 H 783.159 -1.67336 2.77794 0
M  V30 8318 H 782.944 -0.306167 3.90903 0
M  V30 8319 H 784.434 -1.29444 3.97031 0
M  V30 8320 N 784.871 -1.49948 0.485112 0
M  V30 8321 C 785.801 -2.31675 -0.291364 0
M  V30 8322 C 786.782 -1.39216 -0.977383 0
M  V30 8323 O 787.967 -1.68133 -0.971855 0
M  V30 8324 C 785.097 -3.19326 -1.36558 0
M  V30 8325 C 784.051 -4.2045 -0.800359 0
M  V30 8326 C 783.377 -4.96931 -1.97391 0
M  V30 8327 C 784.677 -5.21925 0.197867 0
M  V30 8328 H 786.371 -2.96839 0.390775 0
M  V30 8329 H 783.917 -1.42749 0.189375 0
M  V30 8330 H 785.87 -3.75304 -1.91638 0
M  V30 8331 H 784.594 -2.52074 -2.07668 0
M  V30 8332 H 783.253 -3.65594 -0.271428 0
M  V30 8333 H 782.901 -4.26141 -2.67232 0
M  V30 8334 H 782.601 -5.65344 -1.60187 0
M  V30 8335 H 784.125 -5.55749 -2.52935 0
M  V30 8336 H 785.539 -5.72691 -0.264239 0
M  V30 8337 H 783.936 -5.98138 0.484908 0
M  V30 8338 H 785.006 -4.71809 1.11912 0
M  V30 8339 N 786.349 -0.21828 -1.56081 0
M  V30 8340 C 787.597 0.413488 -1.97825 0
M  V30 8341 C 787.918 1.60527 -1.10707 0
M  V30 8342 O 787.188 1.9504 -0.183378 0
M  V30 8343 H 785.768 0.155757 -0.730581 0
M  V30 8344 H 788.43 -0.310413 -1.92412 0
M  V30 8345 H 787.526 0.742024 -3.03151 0
M  V30 8346 N 787.827 1.57504 0.0551401 0
M  V30 8347 C 789.073 1.89191 0.74688 0
M  V30 8348 C 789.428 0.813936 1.74335 0
M  V30 8349 O 788.721 -0.180217 1.90751 0
M  V30 8350 C 788.915 3.25311 1.48013 0
M  V30 8351 C 788.744 4.46247 0.556176 0
M  V30 8352 C 787.514 5.04954 0.186891 0
M  V30 8353 C 789.712 5.14068 -0.154295 0
M  V30 8354 N 787.694 6.09411 -0.741041 0
M  V30 8355 C 789.065 6.12851 -0.938809 0
M  V30 8356 C 791.12 4.97396 -0.224007 0
M  V30 8357 C 789.823 6.96759 -1.78658 0
M  V30 8358 C 791.849 5.81845 -1.05881 0
M  V30 8359 C 791.211 6.80178 -1.83133 0
M  V30 8360 H 787.31 0.741562 0.248213 0
M  V30 8361 H 789.894 1.94698 0.00777734 0
M  V30 8362 H 788.065 3.20781 2.18985 0
M  V30 8363 H 789.797 3.44594 2.12219 0
M  V30 8364 H 786.552 4.70472 0.543415 0
M  V30 8365 H 786.976 6.66303 -1.19874 0
M  V30 8366 H 791.618 4.21274 0.358924 0
M  V30 8367 H 789.336 7.72245 -2.38042 0
M  V30 8368 H 792.922 5.70997 -1.11595 0
M  V30 8369 H 791.802 7.44389 -2.46687 0
M  V30 8370 N 789.305 -0.326896 1.54172 0
M  V30 8371 C 790.721 -0.671034 1.44808 0
M  V30 8372 C 790.921 -1.91781 0.618258 0
M  V30 8373 O 789.977 -2.52235 0.115751 0
M  V30 8374 C 791.29 -0.848147 2.88491 0
M  V30 8375 C 792.838 -0.945702 2.98371 0
M  V30 8376 C 793.313 -1.15501 4.43197 0
M  V30 8377 N 794.804 -1.22183 4.46795 0
M  V30 8378 C 795.539 -1.4016 5.56006 0
M  V30 8379 N 795.035 -1.55202 6.75192 0
M  V30 8380 N 796.828 -1.42841 5.43648 0
M  V30 8381 H 788.979 0.49262 2.06608 0
M  V30 8382 H 791.242 0.158574 0.934643 0
M  V30 8383 H 790.948 -0.00329969 3.517 0
M  V30 8384 H 790.822 -1.74497 3.34411 0
M  V30 8385 H 793.209 -1.78106 2.35292 0
M  V30 8386 H 793.29 -0.0254215 2.55787 0
M  V30 8387 H 792.934 -0.324521 5.06862 0
M  V30 8388 H 792.864 -2.08911 4.83388 0
M  V30 8389 H 795.355 -1.12016 3.60917 0
M  V30 8390 H 795.668 -1.68601 7.54184 0
M  V30 8391 H 794.013 -1.52306 6.78106 0
M  V30 8392 H 797.204 -1.30683 4.49488 0
M  V30 8393 H 797.377 -1.56509 6.28816 0
M  V30 8394 N 790.784 -1.46188 -0.588786 0
M  V30 8395 C 792.032 -1.50885 -1.34455 0
M  V30 8396 C 792.353 -0.159555 -1.94346 0
M  V30 8397 O 791.623 0.813239 -1.78222 0
M  V30 8398 H 790.203 -0.555707 -0.499198 0
M  V30 8399 H 792.865 -1.82277 -0.690014 0
M  V30 8400 H 791.961 -2.25816 -2.15438 0
M  V30 8401 N 792.262 0.832906 -1.33792 0
M  V30 8402 C 793.192 1.95828 -1.27176 0
M  V30 8403 C 794.173 1.69427 -0.15114 0
M  V30 8404 O 795.358 1.91167 -0.341886 0
M  V30 8405 C 792.488 3.32098 -1.01629 0
M  V30 8406 C 791.442 3.72912 -2.10049 0
M  V30 8407 C 790.768 5.07054 -1.69706 0
M  V30 8408 C 792.068 3.86064 -3.51783 0
M  V30 8409 H 793.762 2.01622 -2.21334 0
M  V30 8410 H 791.308 0.96866 -1.0655 0
M  V30 8411 H 793.261 4.10402 -0.956474 0
M  V30 8412 H 791.985 3.26577 -0.0390956 0
M  V30 8413 H 790.644 2.96876 -2.15082 0
M  V30 8414 H 790.292 4.9801 -0.706737 0
M  V30 8415 H 789.992 5.35333 -2.42264 0
M  V30 8416 H 791.516 5.87827 -1.65202 0
M  V30 8417 H 792.93 4.54665 -3.49218 0
M  V30 8418 H 791.327 4.25787 -4.22878 0
M  V30 8419 H 792.397 2.88344 -3.89854 0
M  V30 8420 N 793.74 1.17359 1.05189 0
M  V30 8421 C 795.156 0.920861 1.30355 0
M  V30 8422 C 795.356 -0.419993 1.97074 0
M  V30 8423 O 794.412 -1.15696 2.24434 0
M  V30 8424 C 795.725 2.07818 2.1733 0
M  V30 8425 C 797.273 2.1152 2.30712 0
M  V30 8426 C 797.748 3.26637 3.21048 0
M  V30 8427 N 799.239 3.26426 3.28634 0
M  V30 8428 C 799.974 4.12141 3.98657 0
M  V30 8429 N 799.47 5.07966 4.71107 0
M  V30 8430 N 801.263 4.00091 3.94821 0
M  V30 8431 H 793.414 2.03666 0.602821 0
M  V30 8432 H 795.677 0.889294 0.328421 0
M  V30 8433 H 795.383 3.04727 1.75597 0
M  V30 8434 H 795.257 2.02922 3.17966 0
M  V30 8435 H 797.644 1.15196 2.71687 0
M  V30 8436 H 797.725 2.20477 1.29706 0
M  V30 8437 H 797.369 4.23227 2.80788 0
M  V30 8438 H 797.299 3.14917 4.2206 0
M  V30 8439 H 799.79 2.57045 2.77013 0
M  V30 8440 H 800.103 5.69766 5.22099 0
M  V30 8441 H 798.448 5.11936 4.7005 0
M  V30 8442 H 801.639 3.24523 3.37346 0
M  V30 8443 H 801.812 4.6711 4.49123 0
M  V30 8444 N 795.218 -1.23913 0.973828 0
M  V30 8445 C 796.465 -1.92151 0.639079 0
M  V30 8446 C 796.793 -1.76064 -0.826545 0
M  V30 8447 O 796.048 -1.11126 -1.61088 0
M  V30 8448 C 796.347 -3.4406 0.967356 0
M  V30 8449 C 796.013 -3.80321 2.42212 0
M  V30 8450 C 794.675 -3.8993 2.81971 0
M  V30 8451 C 797.027 -3.97935 3.36596 0
M  V30 8452 C 794.355 -4.14575 4.15144 0
M  V30 8453 C 796.707 -4.24079 4.69404 0
M  V30 8454 C 795.371 -4.31908 5.08932 0
M  V30 8455 H 794.641 -0.70313 0.233856 0
M  V30 8456 H 797.288 -1.47072 1.22646 0
M  V30 8457 H 795.593 -3.90667 0.297807 0
M  V30 8458 H 797.29 -3.95077 0.686654 0
M  V30 8459 H 793.88 -3.73411 2.10385 0
M  V30 8460 H 798.064 -3.89908 3.07059 0
M  V30 8461 H 793.32 -4.18858 4.45385 0
M  V30 8462 H 797.494 -4.36652 5.42502 0
M  V30 8463 H 795.121 -4.50758 6.12145 0
M  V30 8464 N 796.696 -0.74468 -1.38897 0
M  V30 8465 C 797.924 -0.307428 -2.04603 0
M  V30 8466 C 798.339 1.06115 -1.56157 0
M  V30 8467 O 797.696 1.67233 -0.730701 0
M  V30 8468 C 797.747 -0.31101 -3.6016 0
M  V30 8469 O 797.468 -1.62557 -4.06825 0
M  V30 8470 C 798.969 0.141213 -4.43075 0
M  V30 8471 H 796.189 -0.132741 -0.657739 0
M  V30 8472 H 798.733 -1.01104 -1.77759 0
M  V30 8473 H 796.888 0.343792 -3.85872 0
M  V30 8474 H 797.302 -1.54569 -5.01207 0
M  V30 8475 H 798.776 0.0875449 -5.51931 0
M  V30 8476 H 799.253 1.18782 -4.22833 0
M  V30 8477 H 799.859 -0.484383 -4.22533 0
M  V30 8478 N 798.174 1.49689 -0.493057 0
M  V30 8479 C 799.104 2.31826 0.279073 0
M  V30 8480 C 800.085 1.39733 0.969987 0
M  V30 8481 O 801.27 1.68646 0.962925 0
M  V30 8482 C 798.4 3.20046 1.34862 0
M  V30 8483 C 797.354 4.20869 0.77805 0
M  V30 8484 C 796.68 4.97971 1.94753 0
M  V30 8485 C 797.98 5.21813 -0.225543 0
M  V30 8486 H 799.674 2.96627 -0.406512 0
M  V30 8487 H 797.22 1.42647 -0.196943 0
M  V30 8488 H 799.173 3.76315 1.89645 0
M  V30 8489 H 797.897 2.53172 2.06328 0
M  V30 8490 H 796.556 3.65733 0.252036 0
M  V30 8491 H 796.204 4.27552 2.64969 0
M  V30 8492 H 795.904 5.66186 1.57187 0
M  V30 8493 H 797.428 5.57082 2.49984 0
M  V30 8494 H 798.842 5.72823 0.233864 0
M  V30 8495 H 797.239 5.97872 -0.516622 0
M  V30 8496 H 798.309 4.71209 -1.14412 0
M  V30 8497 N 799.652 0.226554 1.55963 0
M  V30 8498 C 800.929 -0.453058 1.90281 0
M  V30 8499 C 801.309 -1.77377 1.14458 0
M  V30 8500 O 800.657 -2.27067 0.255496 0
M  V30 8501 C 800.867 -0.641108 3.43061 0
M  V30 8502 C 802.215 -0.946265 4.13921 0
M  V30 8503 O 803.239 -0.727713 3.48687 0
M  V30 8504 O 802.098 -1.36131 5.29274 0
M  V30 8505 H 799.192 -0.240242 0.791336 0
M  V30 8506 H 801.738 0.26911 1.67553 0
M  V30 8507 H 800.51 0.290283 3.90222 0
M  V30 8508 H 800.133 -1.41458 3.71585 0
M  V30 8509 N 801.13 -1.57531 -0.0467866 0
M  V30 8510 C 802.08 -2.01845 -1.06031 0
M  V30 8511 C 803.064 -0.904662 -1.33059 0
M  V30 8512 O 804.256 -1.16858 -1.32941 0
M  V30 8513 C 801.385 -2.48673 -2.36679 0
M  V30 8514 C 800.471 -3.66837 -2.12818 0
M  V30 8515 N 800.862 -4.80172 -1.5896 0
M  V30 8516 C 799.16 -3.73869 -2.43183 0
M  V30 8517 C 799.861 -5.61895 -1.50494 0
M  V30 8518 N 798.837 -5.0648 -1.97431 0
M  V30 8519 H 802.639 -2.869 -0.637623 0
M  V30 8520 H 800.153 -1.6041 -0.253427 0
M  V30 8521 H 802.15 -2.78671 -3.10077 0
M  V30 8522 H 800.81 -1.65016 -2.79642 0
M  V30 8523 H 801.821 -5.01967 -1.27474 0
M  V30 8524 H 798.498 -3.00977 -2.89342 0
M  V30 8525 H 799.888 -6.62918 -1.09494 0
M  V30 8526 N 802.608 0.318715 -1.54344 0
M  V30 8527 C 804.019 0.89285 -1.63967 0
M  V30 8528 C 804.37 1.88712 -0.536855 0
M  V30 8529 O 803.495 2.13877 0.329457 0
M  V30 8530 C 804.09 1.62618 -2.97222 0
M  V30 8531 C 802.649 2.14897 -3.09025 0
M  V30 8532 C 801.796 0.975909 -2.5956 0
M  V30 8533 H 804.747 0.0961687 -1.58408 0
M  V30 8534 H 804.768 2.4907 -2.87653 0
M  V30 8535 H 804.28 0.902286 -3.77466 0
M  V30 8536 H 802.381 2.90387 -2.33465 0
M  V30 8537 H 802.494 2.39565 -4.14904 0
M  V30 8538 H 800.858 1.35646 -2.15574 0
M  V30 8539 H 801.641 0.266253 -3.42266 0
M  V30 8540 N 804.086 1.46499 0.581025 0
M  V30 8541 C 804.996 1.59778 1.71779 0
M  V30 8542 C 806.012 0.481223 1.67213 0
M  V30 8543 O 807.188 0.74557 1.87091 0
M  V30 8544 C 804.253 1.58626 3.08283 0
M  V30 8545 C 803.314 2.81527 3.241 0
M  V30 8546 C 802.547 2.80421 4.54092 0
M  V30 8547 O 802.77 1.89262 5.38085 0
M  V30 8548 O 801.704 3.71984 4.73193 0
M  V30 8549 H 805.53 2.55918 1.63523 0
M  V30 8550 H 803.115 1.29311 0.748267 0
M  V30 8551 H 804.997 1.60686 3.89561 0
M  V30 8552 H 803.672 0.656467 3.16973 0
M  V30 8553 H 802.579 2.85021 2.42309 0
M  V30 8554 H 803.912 3.73721 3.20302 0
M  V30 8555 N 805.565 -0.825799 1.34232 0
M  V30 8556 C 806.814 -1.57686 1.2577 0
M  V30 8557 C 807.127 -1.94848 -0.171372 0
M  V30 8558 O 808.333 -2.68854 -0.378123 0
M  V30 8559 C 806.789 -2.84478 2.20454 0
M  V30 8560 C 806.397 -2.54629 3.68603 0
M  V30 8561 C 808.141 -3.625 2.20893 0
M  V30 8562 C 806.048 -3.77597 4.55164 0
M  V30 8563 H 804.978 -0.591809 0.467203 0
M  V30 8564 H 807.629 -0.909421 1.59379 0
M  V30 8565 H 806.011 -3.52832 1.79793 0
M  V30 8566 H 807.185 -1.94404 4.17784 0
M  V30 8567 H 805.5 -1.89888 3.70582 0
M  V30 8568 H 808.097 -4.538 2.82789 0
M  V30 8569 H 808.44 -3.98404 1.20746 0
M  V30 8570 H 808.973 -3.01086 2.59985 0
M  V30 8571 H 805.712 -3.46815 5.56237 0
M  V30 8572 H 805.232 -4.37116 4.10719 0
M  V30 8573 H 806.911 -4.45039 4.69627 0
M  V30 8574 N 807.043 -1.17915 -1.04565 0
M  V30 8575 C 808.29 -0.971424 -1.77678 0
M  V30 8576 C 808.618 0.499401 -1.87979 0
M  V30 8577 O 807.873 1.38695 -1.38066 0
M  V30 8578 C 808.172 -1.56528 -3.213 0
M  V30 8579 C 807.838 -3.06138 -3.31044 0
M  V30 8580 C 806.5 -3.46974 -3.33411 0
M  V30 8581 C 808.852 -4.02151 -3.31548 0
M  V30 8582 C 806.18 -4.82406 -3.33918 0
M  V30 8583 C 808.532 -5.37492 -3.33595 0
M  V30 8584 C 807.196 -5.77782 -3.34251 0
M  V30 8585 H 806.466 -0.355469 -0.650171 0
M  V30 8586 H 809.113 -1.46902 -1.22849 0
M  V30 8587 H 807.418 -0.98955 -3.79098 0
M  V30 8588 H 809.115 -1.38003 -3.76505 0
M  V30 8589 H 805.705 -2.73589 -3.29919 0
M  V30 8590 H 809.889 -3.71656 -3.28916 0
M  V30 8591 H 805.145 -5.12927 -3.3274 0
M  V30 8592 H 809.319 -6.1166 -3.32934 0
M  V30 8593 H 806.946 -6.82702 -3.34397 0
M  V30 8594 N 808.521 1.23394 -0.980386 0
M  V30 8595 C 809.746 1.96384 -0.666935 0
M  V30 8596 C 810.171 1.72087 0.759456 0
M  V30 8597 O 809.529 0.992328 1.51732 0
M  V30 8598 C 809.577 3.47499 -0.963177 0
M  V30 8599 O 808.681 4.12363 -0.0552051 0
M  V30 8600 H 808.022 0.614797 -0.250839 0
M  V30 8601 H 810.552 1.56831 -1.31398 0
M  V30 8602 H 810.562 3.97953 -0.899877 0
M  V30 8603 H 809.237 3.6451 -2.00264 0
M  V30 8604 H 807.814 3.72499 -0.172914 0
M  V30 8605 N 809.999 0.752036 1.385 0
M  V30 8606 C 811.227 0.318274 2.04437 0
M  V30 8607 C 811.642 -1.05285 1.56718 0
M  V30 8608 O 810.999 -1.66844 0.73956 0
M  V30 8609 C 811.05 0.330106 3.5999 0
M  V30 8610 O 810.771 1.64712 4.05957 0
M  V30 8611 C 812.272 -0.117713 4.43144 0
M  V30 8612 H 809.492 0.136228 0.657026 0
M  V30 8613 H 812.036 1.02045 1.7722 0
M  V30 8614 H 810.191 -0.323323 3.86048 0
M  V30 8615 H 810.605 1.57225 5.0038 0
M  V30 8616 H 812.079 -0.0582735 5.51969 0
M  V30 8617 H 812.556 -1.16538 4.23457 0
M  V30 8618 H 813.162 0.506784 4.2227 0
M  V30 8619 N 811.477 -1.49425 0.500989 0
M  V30 8620 C 812.409 -2.27037 -0.314159 0
M  V30 8621 C 813.422 -1.33578 -0.930626 0
M  V30 8622 O 814.611 -1.58861 -0.813968 0
M  V30 8623 C 811.711 -3.05968 -1.45729 0
M  V30 8624 C 810.884 -4.27 -0.948135 0
M  V30 8625 C 809.943 -4.87977 -1.96888 0
M  V30 8626 O 808.969 -5.48044 -1.53743 0
M  V30 8627 N 810.171 -4.77627 -3.29928 0
M  V30 8628 H 812.936 -2.97634 0.351336 0
M  V30 8629 H 810.497 -1.58427 0.333536 0
M  V30 8630 H 812.489 -3.43634 -2.1377 0
M  V30 8631 H 811.059 -2.37978 -2.02695 0
M  V30 8632 H 810.279 -3.94091 -0.0926311 0
M  V30 8633 H 811.567 -5.0541 -0.586362 0
M  V30 8634 H 810.965 -4.29926 -3.67669 0
M  V30 8635 H 809.522 -5.19478 -3.93682 0
M  V30 8636 N 812.955 -0.234822 -1.55841 0
M  V30 8637 C 814.201 0.393843 -1.98939 0
M  V30 8638 C 814.534 1.58466 -1.1226 0
M  V30 8639 O 813.809 1.93635 -0.183242 0
M  V30 8640 C 814.092 0.815492 -3.50745 0
M  V30 8641 C 813.945 -0.379878 -4.48193 0
M  V30 8642 C 815.264 1.66687 -4.07312 0
M  V30 8643 H 812.383 0.141681 -0.723253 0
M  V30 8644 H 815.025 -0.333716 -1.87046 0
M  V30 8645 H 813.175 1.43541 -3.6101 0
M  V30 8646 H 814.847 -1.0182 -4.49923 0
M  V30 8647 H 813.09 -1.02507 -4.21515 0
M  V30 8648 H 813.761 -0.0417069 -5.51984 0
M  V30 8649 H 816.237 1.14369 -4.00074 0
M  V30 8650 H 815.113 1.93078 -5.13821 0
M  V30 8651 H 815.374 2.63468 -3.55017 0
M  V30 8652 N 814.433 1.57553 0.0384317 0
M  V30 8653 C 815.849 1.54663 0.39391 0
M  V30 8654 C 816.049 0.959685 1.77179 0
M  V30 8655 O 815.105 0.576647 2.45827 0
M  V30 8656 C 816.418 2.99156 0.304352 0
M  V30 8657 C 817.966 3.10659 0.382119 0
M  V30 8658 C 818.441 4.56866 0.322111 0
M  V30 8659 N 819.932 4.61629 0.38119 0
M  V30 8660 C 820.667 5.72284 0.357501 0
M  V30 8661 N 820.163 6.92207 0.286654 0
M  V30 8662 N 821.956 5.60628 0.406538 0
M  V30 8663 H 814.107 1.9406 -0.86339 0
M  V30 8664 H 816.37 0.889673 -0.327392 0
M  V30 8665 H 816.076 3.45788 -0.642141 0
M  V30 8666 H 815.95 3.60753 1.10168 0
M  V30 8667 H 818.337 2.6398 1.31904 0
M  V30 8668 H 818.418 2.5191 -0.444391 0
M  V30 8669 H 818.062 5.0421 -0.611104 0
M  V30 8670 H 817.992 5.13515 1.1666 0
M  V30 8671 H 820.483 3.75343 0.438838 0
M  V30 8672 H 820.796 7.72316 0.273421 0
M  V30 8673 H 819.141 6.9454 0.252841 0
M  V30 8674 H 822.332 4.65836 0.459812 0
M  V30 8675 H 822.505 6.46858 0.384608 0
M  V30 8676 N 815.911 -0.310526 1.54511 0
M  V30 8677 C 816.874 -1.3657 1.84068 0
M  V30 8678 C 817.874 -1.44123 0.713097 0
M  V30 8679 O 819.064 -1.43924 0.981399 0
M  V30 8680 C 816.196 -2.75162 2.01243 0
M  V30 8681 H 817.389 -1.1161 2.78358 0
M  V30 8682 H 814.942 -0.546699 1.46427 0
M  V30 8683 H 815.677 -3.05359 1.09208 0
M  V30 8684 H 815.462 -2.71071 2.83307 0
M  V30 8685 H 816.952 -3.51473 2.25514 0
M  V30 8686 N 817.389 -1.46805 -0.573248 0
M  V30 8687 C 818.322 -1.52608 -1.69665 0
M  V30 8688 C 819.3 -0.379426 -1.58111 0
M  V30 8689 O 820.484 -0.584938 -1.79195 0
M  V30 8690 C 817.611 -1.41355 -3.07793 0
M  V30 8691 C 816.657 -2.60321 -3.37839 0
M  V30 8692 S 817.49 -4.22622 -3.28863 0
M  V30 8693 C 818.646 -4.13894 -4.69513 0
M  V30 8694 H 818.879 -2.47653 -1.64485 0
M  V30 8695 H 816.412 -1.34806 -0.752769 0
M  V30 8696 H 818.37 -1.35549 -3.87475 0
M  V30 8697 H 817.031 -0.477213 -3.10454 0
M  V30 8698 H 816.224 -2.48466 -4.38498 0
M  V30 8699 H 815.826 -2.63165 -2.65745 0
M  V30 8700 H 818.118 -3.81158 -5.60111 0
M  V30 8701 H 819.061 -5.14584 -4.86425 0
M  V30 8702 H 819.469 -3.44998 -4.46807 0
M  V30 8703 N 818.867 0.818669 -1.34668 0
M  V30 8704 C 819.797 1.94468 -1.29245 0
M  V30 8705 C 820.778 1.69257 -0.169101 0
M  V30 8706 O 821.963 1.90794 -0.362143 0
M  V30 8707 C 819.093 3.31001 -1.05145 0
M  V30 8708 C 818.047 3.70663 -2.13992 0
M  V30 8709 C 817.373 5.05226 -1.75074 0
M  V30 8710 C 818.673 3.82312 -3.55858 0
M  V30 8711 H 820.367 1.99263 -2.2346 0
M  V30 8712 H 817.913 0.957304 -1.07572 0
M  V30 8713 H 819.866 4.09364 -0.999949 0
M  V30 8714 H 818.59 3.26517 -0.0737312 0
M  V30 8715 H 817.249 2.94578 -2.18219 0
M  V30 8716 H 816.897 4.97233 -0.759518 0
M  V30 8717 H 816.597 5.32734 -2.47928 0
M  V30 8718 H 818.121 5.86042 -1.71427 0
M  V30 8719 H 819.535 4.50935 -3.5402 0
M  V30 8720 H 817.932 4.21278 -4.2737 0
M  V30 8721 H 819.002 2.84193 -3.9289 0
M  V30 8722 N 820.346 1.18468 1.03938 0
M  V30 8723 C 821.293 0.912859 2.1198 0
M  V30 8724 C 822.263 -0.14824 1.65437 0
M  V30 8725 O 823.448 -0.008331 1.90798 0
M  V30 8726 C 820.588 0.446114 3.42204 0
M  V30 8727 C 819.701 1.57278 4.02353 0
M  V30 8728 C 818.836 1.05863 5.20544 0
M  V30 8729 C 817.875 2.1599 5.72726 0
M  V30 8730 N 817.012 1.65959 6.82204 0
M  V30 8731 H 821.852 1.83798 2.34569 0
M  V30 8732 H 819.389 0.916504 1.15059 0
M  V30 8733 H 821.347 0.15697 4.16905 0
M  V30 8734 H 819.977 -0.442025 3.19759 0
M  V30 8735 H 819.029 1.97737 3.24968 0
M  V30 8736 H 820.341 2.40289 4.37107 0
M  V30 8737 H 819.495 0.724087 6.02364 0
M  V30 8738 H 818.234 0.198116 4.87297 0
M  V30 8739 H 817.239 2.50287 4.89527 0
M  V30 8740 H 818.464 3.02479 6.08016 0
M  V30 8741 H 816.41 0.82199 6.5083 0
M  V30 8742 H 816.327 2.42567 7.16029 0
M  V30 8743 H 817.595 1.35436 7.67644 0
M  V30 8744 N 821.824 -1.22873 0.986916 0
M  V30 8745 C 822.787 -2.2281 0.537442 0
M  V30 8746 C 823.787 -1.56331 -0.37646 0
M  V30 8747 O 824.977 -1.73376 -0.169247 0
M  V30 8748 C 822.109 -3.40195 -0.219082 0
M  V30 8749 H 823.302 -2.64089 1.42116 0
M  V30 8750 H 820.855 -1.35819 0.773488 0
M  V30 8751 H 821.59 -3.04381 -1.11905 0
M  V30 8752 H 821.375 -3.89657 0.437026 0
M  V30 8753 H 822.865 -4.14326 -0.521926 0
M  V30 8754 N 823.302 -0.75937 -1.38099 0
M  V30 8755 C 824.527 -0.327859 -2.04792 0
M  V30 8756 C 824.952 1.03752 -1.56899 0
M  V30 8757 O 824.31 1.66235 -0.723581 0
M  V30 8758 C 824.358 -0.366264 -3.58735 0
M  V30 8759 O 823.462 0.637697 -4.0744 0
M  V30 8760 H 822.803 -0.144092 -0.648177 0
M  V30 8761 H 825.333 -1.03211 -1.7666 0
M  V30 8762 H 825.343 -0.219179 -4.07411 0
M  V30 8763 H 824.018 -1.36243 -3.92951 0
M  V30 8764 H 822.595 0.454749 -3.70117 0
M  V30 8765 N 824.78 1.49157 -0.508906 0
M  V30 8766 C 826.029 2.0167 0.0346854 0
M  V30 8767 C 826.342 1.39302 1.37311 0
M  V30 8768 O 827.548 1.83189 2.00385 0
M  V30 8769 C 826.004 3.59725 0.112261 0
M  V30 8770 C 825.612 4.31069 -1.21999 0
M  V30 8771 C 827.356 4.20155 0.605798 0
M  V30 8772 C 825.263 5.81001 -1.10415 0
M  V30 8773 H 824.193 0.753814 0.0167355 0
M  V30 8774 H 826.844 1.7162 -0.649518 0
M  V30 8775 H 825.226 3.86525 0.861087 0
M  V30 8776 H 826.4 4.15962 -1.98273 0
M  V30 8777 H 824.715 3.82418 -1.64759 0
M  V30 8778 H 827.312 5.29964 0.710102 0
M  V30 8779 H 827.655 3.84051 1.60656 0
M  V30 8780 H 828.188 3.97705 -0.0867239 0
M  V30 8781 H 824.927 6.21643 -2.07941 0
M  V30 8782 H 824.447 5.9858 -0.382428 0
M  V30 8783 H 826.126 6.42207 -0.786116 0
M  V30 8784 N 826.258 0.243083 1.55714 0
M  V30 8785 C 827.506 -0.381964 1.98458 0
M  V30 8786 C 827.827 -1.58745 1.13247 0
M  V30 8787 O 827.097 -1.94723 0.214384 0
M  V30 8788 H 825.677 -0.144114 0.732967 0
M  V30 8789 H 828.339 0.340985 1.91894 0
M  V30 8790 H 827.435 -0.693702 3.04293 0
M  V30 8791 N 827.736 -1.57571 -0.0300757 0
M  V30 8792 C 828.666 -2.0953 -1.03051 0
M  V30 8793 C 829.647 -0.99761 -1.37774 0
M  V30 8794 O 830.832 -1.27279 -1.46676 0
M  V30 8795 C 827.962 -2.57385 -2.33174 0
M  V30 8796 C 826.916 -3.71409 -2.12696 0
M  V30 8797 C 826.242 -4.05467 -3.4857 0
M  V30 8798 C 827.542 -4.99877 -1.51396 0
M  V30 8799 H 829.236 -2.93367 -0.597999 0
M  V30 8800 H 826.782 -1.41127 -0.286203 0
M  V30 8801 H 828.735 -2.92355 -3.03491 0
M  V30 8802 H 827.459 -1.70629 -2.78484 0
M  V30 8803 H 826.118 -3.36786 -1.44813 0
M  V30 8804 H 825.766 -3.15779 -3.91526 0
M  V30 8805 H 825.466 -4.82269 -3.35694 0
M  V30 8806 H 826.99 -4.4297 -4.2025 0
M  V30 8807 H 828.404 -5.3281 -2.11629 0
M  V30 8808 H 826.801 -5.81283 -1.49098 0
M  V30 8809 H 827.871 -4.82522 -0.479676 0
M  V30 8810 N 829.214 0.302327 -1.54673 0
M  V30 8811 C 830.162 1.39286 -1.86285 0
M  V30 8812 C 831.156 1.52553 -0.736478 0
M  V30 8813 O 832.362 1.54686 -0.92045 0
M  V30 8814 H 828.737 0.465228 -0.590819 0
M  V30 8815 H 830.708 1.09859 -2.77441 0
M  V30 8816 C 829.457 2.75155 -2.12567 0
M  V30 8817 H 828.78 2.65728 -2.98712 0
M  V30 8818 H 830.22 3.50476 -2.38627 0
M  V30 8819 C 828.679 3.23987 -0.923813 0
M  V30 8820 O 829.209 4.01443 -0.143649 0
M  V30 8821 N 827.415 2.81293 -0.72956 0
M  V30 8822 H 826.962 2.18421 -1.36565 0
M  V30 8823 H 826.92 3.14315 0.0730351 0
M  V30 8824 N 830.692 1.47107 0.565454 0
M  V30 8825 C 831.64 1.59368 1.69424 0
M  V30 8826 C 832.634 0.461344 1.62997 0
M  V30 8827 O 833.84 0.638849 1.68282 0
M  V30 8828 H 830.215 0.501387 0.560459 0
M  V30 8829 H 832.186 2.54242 1.56217 0
M  V30 8830 C 830.935 1.61739 3.07792 0
M  V30 8831 H 830.258 2.48215 3.13416 0
M  V30 8832 H 831.698 1.7437 3.86486 0
M  V30 8833 C 830.157 0.349156 3.35086 0
M  V30 8834 O 830.687 -0.553287 3.97871 0
M  V30 8835 N 828.893 0.231723 2.89675 0
M  V30 8836 H 828.44 0.967021 2.3876 0
M  V30 8837 H 828.398 -0.615911 3.08308 0
M  V30 8838 N 832.17 -0.811516 1.35101 0
M  V30 8839 C 833.1 -1.9378 1.30275 0
M  V30 8840 C 834.081 -1.69165 0.178075 0
M  V30 8841 O 835.266 -1.90599 0.372256 0
M  V30 8842 C 832.396 -3.30439 1.06899 0
M  V30 8843 C 831.35 -3.69523 2.15955 0
M  V30 8844 C 830.676 -5.0429 1.77751 0
M  V30 8845 C 831.976 -3.80419 3.57881 0
M  V30 8846 H 833.67 -1.98075 2.24514 0
M  V30 8847 H 831.216 -0.951586 1.08078 0
M  V30 8848 H 833.169 -4.08828 1.02164 0
M  V30 8849 H 831.893 -3.26473 0.0910462 0
M  V30 8850 H 830.552 -2.93416 2.19778 0
M  V30 8851 H 830.2 -4.96823 0.785876 0
M  V30 8852 H 829.9 -5.31411 2.5075 0
M  V30 8853 H 831.424 -5.85125 1.74533 0
M  V30 8854 H 832.838 -4.49051 3.56407 0
M  V30 8855 H 831.235 -4.19005 4.29598 0
M  V30 8856 H 832.305 -2.82105 3.94391 0
M  V30 8857 N 833.648 -1.19017 -1.03309 0
M  V30 8858 C 834.598 -0.89194 -2.0983 0
M  V30 8859 C 835.582 0.14151 -1.60277 0
M  V30 8860 O 836.774 -0.0635946 -1.76886 0
M  V30 8861 C 833.903 -0.427793 -3.40624 0
M  V30 8862 C 832.989 -1.49374 -3.96923 0
M  V30 8863 N 833.38 -2.71213 -4.26939 0
M  V30 8864 C 831.678 -1.35605 -4.24885 0
M  V30 8865 C 832.379 -3.39849 -4.72099 0
M  V30 8866 N 831.355 -2.67239 -4.73375 0
M  V30 8867 H 835.157 -1.81801 -2.30923 0
M  V30 8868 H 832.671 -1.08171 -1.21131 0
M  V30 8869 H 834.668 -0.195608 -4.16441 0
M  V30 8870 H 833.328 0.491848 -3.20953 0
M  V30 8871 H 834.339 -3.08014 -4.16351 0
M  V30 8872 H 831.016 -0.499537 -4.14501 0
M  V30 8873 H 832.406 -4.44018 -5.04279 0
M  V30 8874 N 835.127 1.22348 -0.993418 0
M  V30 8875 C 836.376 1.90422 -0.665019 0
M  V30 8876 C 836.689 1.78199 0.806512 0
M  V30 8877 O 837.895 2.41193 1.24652 0
M  V30 8878 C 836.351 3.41403 -1.13893 0
M  V30 8879 C 835.959 3.62262 -2.63572 0
M  V30 8880 C 837.703 4.15175 -0.884884 0
M  V30 8881 C 835.61 5.06947 -3.04564 0
M  V30 8882 H 834.54 0.713073 -0.245037 0
M  V30 8883 H 837.191 1.3856 -1.20305 0
M  V30 8884 H 835.573 3.9245 -0.529027 0
M  V30 8885 H 836.747 3.21705 -3.29913 0
M  V30 8886 H 835.062 3.01824 -2.86865 0
M  V30 8887 H 837.659 5.21813 -1.16684 0
M  V30 8888 H 838.002 4.15915 0.178982 0
M  V30 8889 H 838.535 3.70157 -1.45701 0
M  V30 8890 H 835.274 5.11346 -4.10128 0
M  V30 8891 H 834.794 5.48404 -2.42927 0
M  V30 8892 H 836.473 5.75374 -2.95894 0
M  V30 8893 N 836.605 0.766683 1.37694 0
M  V30 8894 C 837.535 0.163432 2.32927 0
M  V30 8895 C 838.516 -0.688861 1.55527 0
M  V30 8896 O 839.701 -0.627363 1.83787 0
M  V30 8897 C 836.831 -0.720416 3.39746 0
M  V30 8898 C 835.785 0.0301718 4.27989 0
M  V30 8899 C 835.111 -0.972788 5.25776 0
M  V30 8900 C 836.411 1.20623 5.0818 0
M  V30 8901 H 838.105 0.958988 2.83626 0
M  V30 8902 H 835.651 0.462601 1.36367 0
M  V30 8903 H 837.604 -1.15221 4.05342 0
M  V30 8904 H 836.328 -1.54844 2.8756 0
M  V30 8905 H 834.987 0.442685 3.63917 0
M  V30 8906 H 834.635 -1.79522 4.69873 0
M  V30 8907 H 834.335 -0.475145 5.85676 0
M  V30 8908 H 835.859 -1.40362 5.94248 0
M  V30 8909 H 837.273 0.851341 5.66944 0
M  V30 8910 H 835.67 1.63561 5.7738 0
M  V30 8911 H 836.74 2.01281 4.41151 0
M  V30 8912 N 838.083 -1.48885 0.516809 0
M  V30 8913 C 839.013 -2.32241 -0.242157 0
M  V30 8914 C 839.994 -1.41258 -0.947633 0
M  V30 8915 O 841.179 -1.70156 -0.935973 0
M  V30 8916 C 838.309 -3.22151 -1.29754 0
M  V30 8917 C 837.263 -4.22053 -0.710995 0
M  V30 8918 C 836.589 -5.01007 -1.86806 0
M  V30 8919 C 837.889 -5.21388 0.30853 0
M  V30 8920 H 839.583 -2.95943 0.453651 0
M  V30 8921 H 837.129 -1.42316 0.219612 0
M  V30 8922 H 839.082 -3.79284 -1.83634 0
M  V30 8923 H 837.806 -2.56423 -2.02274 0
M  V30 8924 H 836.465 -3.66087 -0.193819 0
M  V30 8925 H 836.113 -4.31713 -2.58133 0
M  V30 8926 H 835.813 -5.68615 -1.48159 0
M  V30 8927 H 837.337 -5.60989 -2.4109 0
M  V30 8928 H 838.751 -5.73122 -0.142703 0
M  V30 8929 H 837.148 -5.96975 0.611673 0
M  V30 8930 H 838.218 -4.69329 1.21894 0
M  V30 8931 N 839.561 -0.251338 -1.55583 0
M  V30 8932 C 840.972 0.25098 -1.85005 0
M  V30 8933 C 841.323 1.57259 -1.17321 0
M  V30 8934 O 840.448 2.11603 -0.453136 0
M  V30 8935 C 841.043 0.462161 -3.35633 0
M  V30 8936 C 839.602 0.908737 -3.65266 0
M  V30 8937 C 838.749 -0.0115418 -2.77298 0
M  V30 8938 H 841.7 -0.473782 -1.51463 0
M  V30 8939 H 841.721 1.30415 -3.57452 0
M  V30 8940 H 841.233 -0.499886 -3.84867 0
M  V30 8941 H 839.334 1.8831 -3.21512 0
M  V30 8942 H 839.447 0.762526 -4.72993 0
M  V30 8943 H 837.811 0.500612 -2.49732 0
M  V30 8944 H 838.594 -0.969042 -3.29339 0
M  V30 8945 N 841.039 1.57585 0.0217189 0
M  V30 8946 C 841.972 2.02435 1.05334 0
M  V30 8947 C 842.95 0.91006 1.34747 0
M  V30 8948 O 844.134 1.17648 1.47279 0
M  V30 8949 C 841.261 2.40362 2.38629 0
M  V30 8950 C 840.307 3.62307 2.25025 0
M  V30 8951 S 841.14 5.11141 1.59673 0
M  V30 8952 C 842.296 5.52316 2.94444 0
M  V30 8953 H 842.529 2.89621 0.671354 0
M  V30 8954 H 840.062 1.52648 0.231925 0
M  V30 8955 H 842.02 2.62883 3.15282 0
M  V30 8956 H 840.681 1.53615 2.73973 0
M  V30 8957 H 839.874 3.86523 3.23443 0
M  V30 8958 H 839.476 3.39675 1.56515 0
M  V30 8959 H 841.768 5.53449 3.90768 0
M  V30 8960 H 842.711 6.52539 2.74952 0
M  V30 8961 H 843.119 4.79834 2.97355 0
M  V30 8962 N 842.517 -0.29412 1.54831 0
M  V30 8963 C 843.763 -1.02999 1.74697 0
M  V30 8964 C 844.096 -1.86687 0.534949 0
M  V30 8965 O 843.371 -1.88789 -0.467863 0
M  V30 8966 C 843.654 -1.93024 3.03996 0
M  V30 8967 C 843.507 -1.1247 4.35512 0
M  V30 8968 C 844.826 -2.92085 3.29203 0
M  V30 8969 H 841.945 -0.373039 0.635618 0
M  V30 8970 H 844.587 -0.304065 1.87551 0
M  V30 8971 H 842.737 -2.5492 2.93169 0
M  V30 8972 H 844.409 -0.528067 4.58268 0
M  V30 8973 H 842.652 -0.427574 4.31688 0
M  V30 8974 H 843.323 -1.78728 5.22265 0
M  V30 8975 H 845.799 -2.40319 3.39685 0
M  V30 8976 H 844.675 -3.52234 4.20978 0
M  V30 8977 H 844.936 -3.66107 2.47827 0
M  V30 8978 N 843.995 -1.47404 -0.557645 0
M  V30 8979 C 845.223 -1.57622 -1.34026 0
M  V30 8980 C 845.638 -0.226256 -1.87439 0
M  V30 8981 O 844.995 0.78043 -1.64971 0
M  V30 8982 C 845.046 -2.60111 -2.51047 0
M  V30 8983 O 844.767 -3.89866 -1.99841 0
M  V30 8984 C 846.268 -2.80508 -3.43264 0
M  V30 8985 H 843.488 -0.532271 -0.40857 0
M  V30 8986 H 846.032 -1.93019 -0.675555 0
M  V30 8987 H 844.187 -2.27648 -3.13457 0
M  V30 8988 H 844.601 -4.45864 -2.76234 0
M  V30 8989 H 846.075 -3.56084 -4.21792 0
M  V30 8990 H 846.552 -1.88314 -3.9678 0
M  V30 8991 H 847.158 -3.14166 -2.86671 0
M  V30 8992 N 845.473 0.80434 -1.35529 0
M  V30 8993 C 846.698 1.598 -1.32207 0
M  V30 8994 C 847.123 1.87848 0.0974226 0
M  V30 8995 O 846.481 1.46728 1.06492 0
M  V30 8996 C 846.529 2.90483 -2.13663 0
M  V30 8997 O 845.633 3.83411 -1.51888 0
M  V30 8998 H 844.974 0.485305 -0.453183 0
M  V30 8999 H 847.504 0.998119 -1.78602 0
M  V30 9000 H 847.514 3.39888 -2.257 0
M  V30 9001 H 846.189 2.69395 -3.16859 0
M  V30 9002 H 844.766 3.41967 -1.48704 0
M  V30 9003 N 846.951 1.19563 1.02676 0
M  V30 9004 C 848.197 1.00105 1.76371 0
M  V30 9005 C 848.53 -0.466823 1.88506 0
M  V30 9006 O 847.805 -1.34665 1.40341 0
M  V30 9007 C 848.088 1.67321 3.18866 0
M  V30 9008 C 847.941 3.21486 3.1459 0
M  V30 9009 C 849.26 1.39794 4.17308 0
M  V30 9010 H 846.379 0.365075 0.640226 0
M  V30 9011 H 849.021 1.47433 1.19848 0
M  V30 9012 H 847.171 1.27081 3.67128 0
M  V30 9013 H 848.843 3.70953 2.7421 0
M  V30 9014 H 847.086 3.5292 2.52249 0
M  V30 9015 H 847.757 3.63665 4.15273 0
M  V30 9016 H 850.233 1.74685 3.77657 0
M  V30 9017 H 849.109 1.89371 5.15199 0
M  V30 9018 H 849.37 0.323505 4.40915 0
M  V30 9019 N 848.429 -1.21819 0.999893 0
M  V30 9020 C 849.654 -1.95298 0.698094 0
M  V30 9021 C 850.079 -1.73273 -0.731982 0
M  V30 9022 O 849.437 -1.01634 -1.50134 0
M  V30 9023 C 849.485 -3.45922 1.01834 0
M  V30 9024 O 848.589 -4.12223 0.120801 0
M  V30 9025 H 847.93 -0.610729 0.260588 0
M  V30 9026 H 850.46 -1.5472 1.33876 0
M  V30 9027 H 850.47 -3.96471 0.963074 0
M  V30 9028 H 849.145 -3.61278 2.06037 0
M  V30 9029 H 847.722 -3.72177 0.232153 0
M  V30 9030 N 849.908 -0.773975 -1.37286 0
M  V30 9031 C 850.818 -0.162571 -2.34036 0
M  V30 9032 C 851.834 0.677022 -1.60289 0
M  V30 9033 O 853.01 0.596423 -1.92366 0
M  V30 9034 C 850.075 0.70457 -3.39465 0
M  V30 9035 C 849.136 -0.151738 -4.29032 0
M  V30 9036 C 848.369 0.674111 -5.29426 0
M  V30 9037 O 848.592 1.91107 -5.37433 0
M  V30 9038 O 847.526 0.0821398 -6.01844 0
M  V30 9039 H 851.352 -0.962119 -2.88057 0
M  V30 9040 H 848.937 -0.53517 -1.39486 0
M  V30 9041 H 850.819 1.19954 -4.03967 0
M  V30 9042 H 849.494 1.48227 -2.87768 0
M  V30 9043 H 848.401 -0.693118 -3.67623 0
M  V30 9044 H 849.734 -0.892575 -4.84039 0
M  V30 9045 N 851.386 1.48609 -0.524698 0
M  V30 9046 C 852.632 2.02797 0.0113382 0
M  V30 9047 C 852.965 1.40147 1.34433 0
M  V30 9048 O 852.24 0.545368 1.86698 0
M  V30 9049 C 852.523 3.59832 0.138931 0
M  V30 9050 C 852.376 4.32971 -1.21886 0
M  V30 9051 C 853.695 4.3145 0.868265 0
M  V30 9052 H 850.814 0.736995 0.00264645 0
M  V30 9053 H 853.456 1.77388 -0.680704 0
M  V30 9054 H 851.606 3.81612 0.72834 0
M  V30 9055 H 853.278 4.22624 -1.84897 0
M  V30 9056 H 851.521 3.94597 -1.80211 0
M  V30 9057 H 852.192 5.41279 -1.08263 0
M  V30 9058 H 854.668 4.14468 0.368145 0
M  V30 9059 H 853.544 5.41025 0.926428 0
M  V30 9060 H 853.805 3.98358 1.91737 0
M  V30 9061 N 852.864 0.259585 1.55447 0
M  V30 9062 C 853.774 -0.645026 2.25558 0
M  V30 9063 C 854.79 -1.18291 1.27606 0
M  V30 9064 O 855.966 -1.21649 1.6051 0
M  V30 9065 C 853.031 -1.81964 2.9511 0
M  V30 9066 C 852.092 -1.31997 4.08504 0
M  V30 9067 C 851.325 -2.43861 4.74729 0
M  V30 9068 O 851.548 -3.62876 4.40088 0
M  V30 9069 O 850.482 -2.12898 5.6299 0
M  V30 9070 H 854.308 -0.0775399 3.03601 0
M  V30 9071 H 851.893 0.0275859 1.49375 0
M  V30 9072 H 853.775 -2.50485 3.38873 0
M  V30 9073 H 852.45 -2.37451 2.19997 0
M  V30 9074 H 851.357 -0.601676 3.6923 0
M  V30 9075 H 852.69 -0.811045 4.85472 0
M  V30 9076 N 854.342 -1.57594 -0.0133615 0
M  V30 9077 C 855.252 -2.10991 -1.02566 0
M  V30 9078 C 856.268 -1.05208 -1.3859 0
M  V30 9079 O 857.444 -1.37034 -1.47593 0
M  V30 9080 C 854.509 -2.59165 -2.30292 0
M  V30 9081 C 853.57 -3.79495 -2.00704 0
M  V30 9082 C 852.803 -4.25361 -3.22341 0
M  V30 9083 O 853.026 -3.70645 -4.33565 0
M  V30 9084 O 851.96 -5.17649 -3.07121 0
M  V30 9085 H 855.786 -2.97678 -0.601806 0
M  V30 9086 H 853.371 -1.47598 -0.23135 0
M  V30 9087 H 855.253 -2.90409 -3.05354 0
M  V30 9088 H 853.928 -1.75582 -2.71942 0
M  V30 9089 H 852.835 -3.53245 -1.23161 0
M  V30 9090 H 854.168 -4.64109 -1.639 0
M  V30 9091 N 855.82 0.285905 -1.54985 0
M  V30 9092 C 857.066 1.02071 -1.75241 0
M  V30 9093 C 857.399 1.864 -0.544842 0
M  V30 9094 O 856.674 1.89034 0.457844 0
M  V30 9095 C 856.957 1.91409 -3.05016 0
M  V30 9096 C 856.81 1.10158 -4.36102 0
M  V30 9097 C 858.129 2.90335 -3.30747 0
M  V30 9098 H 855.248 0.369663 -0.637588 0
M  V30 9099 H 857.89 0.294114 -1.8771 0
M  V30 9100 H 856.04 2.53362 -2.94517 0
M  V30 9101 H 857.712 0.503756 -4.58541 0
M  V30 9102 H 855.955 0.404675 -4.31908 0
M  V30 9103 H 856.626 1.75956 -5.23205 0
M  V30 9104 H 859.102 2.38514 -3.40955 0
M  V30 9105 H 857.978 3.49997 -4.2284 0
M  V30 9106 H 858.239 3.64787 -2.49765 0
M  V30 9107 N 857.298 1.47698 0.54982 0
M  V30 9108 C 858.228 1.63622 1.66583 0
M  V30 9109 C 859.209 0.485477 1.63025 0
M  V30 9110 O 860.394 0.715692 1.80531 0
M  V30 9111 C 857.524 1.65721 3.05211 0
M  V30 9112 C 856.478 2.80097 3.2362 0
M  V30 9113 C 855.804 2.67272 4.63109 0
M  V30 9114 C 857.104 4.21612 3.08286 0
M  V30 9115 H 858.798 2.57049 1.53512 0
M  V30 9116 H 856.344 1.23705 0.737099 0
M  V30 9117 H 858.297 1.75451 3.83138 0
M  V30 9118 H 857.021 0.688593 3.19258 0
M  V30 9119 H 855.68 2.69889 2.48104 0
M  V30 9120 H 855.328 1.68422 4.73965 0
M  V30 9121 H 855.028 3.44008 4.76374 0
M  V30 9122 H 856.552 2.78942 5.43161 0
M  V30 9123 H 857.966 4.32758 3.76024 0
M  V30 9124 H 856.363 4.99193 3.33057 0
M  V30 9125 H 857.433 4.39462 2.04942 0
M  V30 9126 N 858.776 -0.797141 1.35954 0
M  V30 9127 C 860.006 -1.5835 1.32698 0
M  V30 9128 C 860.414 -1.88959 -0.0955298 0
M  V30 9129 O 859.757 -1.49987 -1.06064 0
M  V30 9130 C 859.819 -2.93529 2.0756 0
M  V30 9131 C 859.483 -2.85688 3.56695 0
M  V30 9132 C 860.48 -2.58467 4.51099 0
M  V30 9133 C 858.165 -3.04508 3.99475 0
M  V30 9134 C 860.159 -2.50157 5.8626 0
M  V30 9135 C 857.846 -2.9582 5.34728 0
M  V30 9136 C 858.844 -2.68681 6.27933 0
M  V30 9137 O 858.532 -2.59973 7.60703 0
M  V30 9138 H 858.264 -0.49807 0.457059 0
M  V30 9139 H 860.818 -0.997889 1.79531 0
M  V30 9140 H 859.048 -3.54111 1.55378 0
M  V30 9141 H 860.737 -3.54744 1.9726 0
M  V30 9142 H 861.503 -2.43638 4.19363 0
M  V30 9143 H 857.382 -3.24641 3.27306 0
M  V30 9144 H 860.926 -2.28894 6.58979 0
M  V30 9145 H 856.823 -3.10211 5.66074 0
M  V30 9146 H 857.591 -2.75511 7.70737 0
M  V30 9147 N 860.254 -1.20106 -1.0204 0
M  V30 9148 C 861.184 -0.970301 -2.12385 0
M  V30 9149 C 862.165 0.099378 -1.69809 0
M  V30 9150 O 863.35 -0.057365 -1.94115 0
M  V30 9151 C 860.48 -0.517431 -3.43424 0
M  V30 9152 C 859.434 -1.52992 -3.99722 0
M  V30 9153 C 858.76 -0.933817 -5.26483 0
M  V30 9154 C 860.06 -2.91257 -4.33551 0
M  V30 9155 H 861.754 -1.89316 -2.31948 0
M  V30 9156 H 859.3 -0.911655 -1.11467 0
M  V30 9157 H 861.253 -0.343243 -4.2 0
M  V30 9158 H 859.977 0.441049 -3.23608 0
M  V30 9159 H 858.636 -1.6914 -3.2525 0
M  V30 9160 H 858.284 0.0324763 -5.0299 0
M  V30 9161 H 857.984 -1.60999 -5.65113 0
M  V30 9162 H 859.508 -0.770614 -6.05718 0
M  V30 9163 H 860.922 -2.78642 -5.0103 0
M  V30 9164 H 859.319 -3.55745 -4.83286 0
M  V30 9165 H 860.389 -3.43269 -3.42483 0
M  V30 9166 N 861.732 1.21287 -1.00634 0
M  V30 9167 C 862.978 1.90671 -0.690822 0
M  V30 9168 C 863.311 1.77996 0.776592 0
M  V30 9169 O 862.586 1.15748 1.5631 0
M  V30 9170 C 862.869 3.42426 -1.11428 0
M  V30 9171 C 862.722 3.64086 -2.64124 0
M  V30 9172 C 864.041 4.34851 -0.677686 0
M  V30 9173 H 861.16 0.692419 -0.252439 0
M  V30 9174 H 863.802 1.42893 -1.25226 0
M  V30 9175 H 861.952 3.83249 -0.636586 0
M  V30 9176 H 863.624 3.32582 -3.19667 0
M  V30 9177 H 861.867 3.07906 -3.05576 0
M  V30 9178 H 862.538 4.7042 -2.88806 0
M  V30 9179 H 865.014 4.01619 -1.0882 0
M  V30 9180 H 863.89 5.39675 -1.00213 0
M  V30 9181 H 864.151 4.4009 0.421125 0
M  V30 9182 N 863.21 0.781244 1.36873 0
M  V30 9183 C 864.12 0.174981 2.33947 0
M  V30 9184 C 865.136 -0.668512 1.60645 0
M  V30 9185 O 866.312 -0.586213 1.9268 0
M  V30 9186 C 863.377 -0.686557 3.39834 0
M  V30 9187 C 862.438 0.174489 4.28945 0
M  V30 9188 C 861.671 -0.646024 5.29776 0
M  V30 9189 O 861.894 -1.88254 5.38439 0
M  V30 9190 O 860.828 -0.0502214 6.01879 0
M  V30 9191 H 864.654 0.977382 2.87543 0
M  V30 9192 H 862.239 0.542559 1.392 0
M  V30 9193 H 864.121 -1.1781 4.04597 0
M  V30 9194 H 862.796 -1.46699 2.8855 0
M  V30 9195 H 861.703 0.712604 3.6725 0
M  V30 9196 H 863.036 0.918232 4.83559 0
M  V30 9197 N 864.689 -1.48329 0.532571 0
M  V30 9198 C 866.105 -1.58458 0.190605 0
M  V30 9199 C 866.305 -1.53427 -1.30623 0
M  V30 9200 O 865.361 -1.4247 -2.08467 0
M  V30 9201 C 866.674 -2.89989 0.79543 0
M  V30 9202 C 868.222 -3.03523 0.7644 0
M  V30 9203 C 868.697 -4.37718 1.34785 0
M  V30 9204 N 870.188 -4.44292 1.30993 0
M  V30 9205 C 870.923 -5.4664 1.73124 0
M  V30 9206 N 870.419 -6.5593 2.22997 0
M  V30 9207 N 872.212 -5.37538 1.64346 0
M  V30 9208 H 864.363 -1.49842 1.50537 0
M  V30 9209 H 866.626 -0.71164 0.626316 0
M  V30 9210 H 866.332 -2.99333 1.84642 0
M  V30 9211 H 866.206 -3.76203 0.27403 0
M  V30 9212 H 868.593 -2.93789 -0.277831 0
M  V30 9213 H 868.674 -2.18912 1.3233 0
M  V30 9214 H 868.318 -4.48206 2.38902 0
M  V30 9215 H 868.248 -5.21019 0.764609 0
M  V30 9216 H 870.739 -3.65897 0.944868 0
M  V30 9217 H 871.052 -7.30167 2.53133 0
M  V30 9218 H 869.397 -6.56886 2.26992 0
M  V30 9219 H 872.588 -4.51052 1.25178 0
M  V30 9220 H 872.761 -6.17169 1.97501 0
M  V30 9221 N 866.167 -0.267825 -1.55308 0
M  V30 9222 C 867.444 0.402449 -1.91415 0
M  V30 9223 C 867.824 1.7428 -1.1912 0
M  V30 9224 O 867.172 2.2631 -0.315609 0
M  V30 9225 C 867.382 0.549926 -3.4464 0
M  V30 9226 C 868.73 0.836188 -4.16285 0
M  V30 9227 O 869.754 0.635009 -3.50494 0
M  V30 9228 O 868.613 1.22051 -5.32697 0
M  V30 9229 H 865.707 0.219177 -0.797427 0
M  V30 9230 H 868.253 -0.313439 -1.6678 0
M  V30 9231 H 867.025 -0.393641 -3.89315 0
M  V30 9232 H 866.648 1.31556 -3.75205 0
M  V30 9233 N 867.645 1.57599 0.00500368 0
M  V30 9234 C 868.891 1.91471 0.686313 0
M  V30 9235 C 869.246 0.868988 1.71658 0
M  V30 9236 O 868.539 -0.11944 1.91227 0
M  V30 9237 C 868.733 3.29855 1.37588 0
M  V30 9238 C 868.562 4.47791 0.413924 0
M  V30 9239 C 867.332 5.05293 0.0261488 0
M  V30 9240 C 869.53 5.13317 -0.317764 0
M  V30 9241 N 867.512 6.06745 -0.934545 0
M  V30 9242 C 868.883 6.09554 -1.13331 0
M  V30 9243 C 870.938 4.96431 -0.382136 0
M  V30 9244 C 869.641 6.90723 -2.00735 0
M  V30 9245 C 871.667 5.78182 -1.24339 0
M  V30 9246 C 871.029 6.74007 -2.04679 0
M  V30 9247 H 867.128 0.749083 0.224495 0
M  V30 9248 H 869.712 1.94625 -0.0541684 0
M  V30 9249 H 867.883 3.27585 2.08668 0
M  V30 9250 H 869.615 3.51171 2.01149 0
M  V30 9251 H 866.37 4.71963 0.393462 0
M  V30 9252 H 866.794 6.62152 -1.41012 0
M  V30 9253 H 871.436 4.22202 0.224718 0
M  V30 9254 H 869.154 7.64281 -2.6249 0
M  V30 9255 H 872.74 5.67158 -1.29704 0
M  V30 9256 H 871.62 7.36164 -2.70244 0
M  V30 9257 N 869.123 -0.277682 1.55134 0
M  V30 9258 C 870.071 -1.36305 1.88478 0
M  V30 9259 C 871.065 -1.51362 0.760654 0
M  V30 9260 O 872.271 -1.53202 0.944943 0
M  V30 9261 H 868.646 -0.45577 0.598146 0
M  V30 9262 H 870.617 -1.05431 2.79154 0
M  V30 9263 C 869.366 -2.71739 2.16918 0
M  V30 9264 H 868.689 -2.60942 3.02901 0
M  V30 9265 H 870.129 -3.46635 2.44172 0
M  V30 9266 C 868.588 -3.22476 0.975239 0
M  V30 9267 O 869.118 -4.01164 0.207497 0
M  V30 9268 N 867.324 -2.80097 0.774219 0
M  V30 9269 H 866.871 -2.16221 1.40022 0
M  V30 9270 H 866.829 -3.14392 -0.023021 0
M  V30 9271 N 870.601 -1.47988 -0.541979 0
M  V30 9272 C 871.564 -1.61148 -1.62984 0
M  V30 9273 C 872.564 -0.48553 -1.53295 0
M  V30 9274 O 873.754 -0.751012 -1.5718 0
M  V30 9275 C 870.886 -1.57038 -3.02576 0
M  V30 9276 H 872.079 -2.58138 -1.52659 0
M  V30 9277 H 869.632 -1.36405 -0.763106 0
M  V30 9278 H 870.367 -0.614807 -3.18419 0
M  V30 9279 H 870.152 -2.38769 -3.11018 0
M  V30 9280 H 871.642 -1.69416 -3.81691 0
M  V30 9281 N 872.079 0.78992 -1.36375 0
M  V30 9282 C 873.325 1.55007 -1.3077 0
M  V30 9283 C 873.658 1.93871 0.112979 0
M  V30 9284 O 872.933 1.6267 1.06625 0
M  V30 9285 C 873.216 2.82748 -2.22993 0
M  V30 9286 C 873.069 2.50253 -3.73756 0
M  V30 9287 C 874.388 3.84569 -2.13998 0
M  V30 9288 H 871.507 0.562362 -0.476359 0
M  V30 9289 H 874.149 0.907582 -1.66922 0
M  V30 9290 H 872.299 3.37573 -1.92292 0
M  V30 9291 H 873.971 2.01482 -4.14973 0
M  V30 9292 H 872.214 1.83203 -3.93216 0
M  V30 9293 H 872.885 3.41487 -4.33694 0
M  V30 9294 H 875.361 3.39188 -2.4102 0
M  V30 9295 H 874.237 4.717 -2.80697 0
M  V30 9296 H 874.498 4.27491 -1.12711 0
M  V30 9297 N 873.557 1.20646 1.01402 0
M  V30 9298 C 874.489 0.915392 2.10127 0
M  V30 9299 C 875.502 -0.0978705 1.62506 0
M  V30 9300 O 876.691 0.133477 1.78 0
M  V30 9301 C 873.791 0.351304 3.37074 0
M  V30 9302 C 872.964 1.41673 4.13821 0
M  V30 9303 C 872.023 0.8635 5.19067 0
M  V30 9304 O 871.049 1.54481 5.47836 0
M  V30 9305 N 872.251 -0.325799 5.79585 0
M  V30 9306 H 875.016 1.85132 2.35682 0
M  V30 9307 H 872.577 1.11048 1.17813 0
M  V30 9308 H 874.569 -0.032996 4.04687 0
M  V30 9309 H 873.139 -0.489242 3.08748 0
M  V30 9310 H 872.359 1.97526 3.41141 0
M  V30 9311 H 873.647 2.1342 4.61876 0
M  V30 9312 H 873.045 -0.896534 5.58551 0
M  V30 9313 H 871.602 -0.651708 6.48534 0
M  V30 9314 N 875.035 -1.20752 1.01276 0
M  V30 9315 C 875.945 -2.27079 0.589277 0
M  V30 9316 C 876.961 -1.6999 -0.371389 0
M  V30 9317 O 878.137 -2.00044 -0.233294 0
M  V30 9318 C 875.202 -3.4663 -0.0696715 0
M  V30 9319 C 874.263 -4.18962 0.936454 0
M  V30 9320 C 873.496 -5.32806 0.308856 0
M  V30 9321 O 873.719 -5.63376 -0.8924 0
M  V30 9322 O 872.653 -5.93131 1.02367 0
M  V30 9323 H 876.479 -2.6551 1.47438 0
M  V30 9324 H 874.064 -1.27297 0.782045 0
M  V30 9325 H 875.946 -4.19119 -0.437873 0
M  V30 9326 H 874.621 -3.10082 -0.929029 0
M  V30 9327 H 873.528 -3.48661 1.35595 0
M  V30 9328 H 874.861 -4.59441 1.76565 0
M  V30 9329 N 876.513 -0.788492 -1.36457 0
M  V30 9330 C 877.423 -0.187385 -2.3385 0
M  V30 9331 C 878.439 0.659984 -1.60998 0
M  V30 9332 O 879.615 0.575986 -1.92988 0
M  V30 9333 C 876.68 0.668525 -3.40194 0
M  V30 9334 C 875.741 -0.197234 -4.28847 0
M  V30 9335 C 874.974 0.61792 -5.30111 0
M  V30 9336 O 875.197 1.85396 -5.3943 0
M  V30 9337 O 874.131 0.0183016 -6.01897 0
M  V30 9338 H 877.957 -0.992617 -2.87021 0
M  V30 9339 H 875.542 -0.549934 -1.3891 0
M  V30 9340 H 877.424 1.15663 -4.05216 0
M  V30 9341 H 876.099 1.45166 -2.89324 0
M  V30 9342 H 875.006 -0.73207 -3.66867 0
M  V30 9343 H 876.339 -0.943863 -4.83065 0
M  V30 9344 N 877.991 1.48044 -0.54043 0
M  V30 9345 C 878.901 2.33565 0.220163 0
M  V30 9346 C 879.917 1.47146 0.928659 0
M  V30 9347 O 881.093 1.80107 0.901295 0
M  V30 9348 C 878.158 3.2349 1.2472 0
M  V30 9349 C 877.219 4.25789 0.547938 0
M  V30 9350 C 876.452 5.11417 1.52605 0
M  V30 9351 O 876.675 4.99204 2.75956 0
M  V30 9352 O 875.609 5.92498 1.05972 0
M  V30 9353 H 879.435 2.99868 -0.480898 0
M  V30 9354 H 877.02 1.46332 -0.301226 0
M  V30 9355 H 878.902 3.79084 1.84047 0
M  V30 9356 H 877.577 2.59835 1.93048 0
M  V30 9357 H 876.484 3.74001 -0.0860941 0
M  V30 9358 H 877.817 4.92111 -0.0935896 0
M  V30 9359 N 879.47 0.276058 1.55163 0
M  V30 9360 C 880.402 -0.644254 2.19959 0
M  V30 9361 C 881.415 -1.11675 1.18459 0
M  V30 9362 O 882.604 -1.0385 1.45181 0
M  V30 9363 C 879.704 -1.89093 2.81242 0
M  V30 9364 C 878.877 -1.56509 4.08441 0
M  V30 9365 C 877.936 -2.66433 4.53762 0
M  V30 9366 O 876.962 -2.32579 5.19515 0
M  V30 9367 N 878.164 -3.96509 4.23982 0
M  V30 9368 H 880.929 -0.0896808 2.99566 0
M  V30 9369 H 878.49 0.0971981 1.61608 0
M  V30 9370 H 880.482 -2.61929 3.08505 0
M  V30 9371 H 879.052 -2.35453 2.05622 0
M  V30 9372 H 878.272 -0.670522 3.88455 0
M  V30 9373 H 879.56 -1.32242 4.91314 0
M  V30 9374 H 878.958 -4.26834 3.71254 0
M  V30 9375 H 877.515 -4.6572 4.56014 0
M  V30 9376 N 880.948 -1.576 0.00335426 0
M  V30 9377 C 882.194 -1.90996 -0.681799 0
M  V30 9378 C 882.527 -0.877643 -1.73237 0
M  V30 9379 O 881.802 0.103183 -1.94226 0
M  V30 9380 C 882.085 -3.34961 -1.32187 0
M  V30 9381 C 881.938 -4.48911 -0.28261 0
M  V30 9382 C 883.257 -3.78408 -2.24711 0
M  V30 9383 H 880.376 -0.694596 -0.246386 0
M  V30 9384 H 883.018 -1.89919 0.055336 0
M  V30 9385 H 881.168 -3.36008 -1.95014 0
M  V30 9386 H 882.84 -4.59999 0.346241 0
M  V30 9387 H 881.083 -4.32 0.394768 0
M  V30 9388 H 881.754 -5.46609 -0.769576 0
M  V30 9389 H 884.23 -3.78934 -1.71897 0
M  V30 9390 H 883.106 -4.79885 -2.66461 0
M  V30 9391 H 883.367 -3.12464 -3.1276 0
M  V30 9392 N 882.426 0.269451 -1.5528 0
M  V30 9393 C 883.373 1.33316 -1.88403 0
M  V30 9394 C 884.343 1.48909 -0.735881 0
M  V30 9395 O 885.528 1.63259 -0.987479 0
M  V30 9396 C 882.668 2.68778 -2.16454 0
M  V30 9397 C 881.781 2.61377 -3.43956 0
M  V30 9398 C 880.916 3.89042 -3.6169 0
M  V30 9399 C 879.955 3.76166 -4.82872 0
M  V30 9400 N 879.092 4.95673 -4.97245 0
M  V30 9401 H 883.932 1.04368 -2.79126 0
M  V30 9402 H 881.469 0.504147 -1.38191 0
M  V30 9403 H 883.427 3.47599 -2.30719 0
M  V30 9404 H 882.057 2.9592 -1.28961 0
M  V30 9405 H 881.109 1.74247 -3.38145 0
M  V30 9406 H 882.421 2.47764 -4.32914 0
M  V30 9407 H 881.575 4.76304 -3.75791 0
M  V30 9408 H 880.314 4.05526 -2.70924 0
M  V30 9409 H 879.319 2.87287 -4.68771 0
M  V30 9410 H 880.544 3.61198 -5.75077 0
M  V30 9411 H 878.49 5.12561 -4.09411 0
M  V30 9412 H 878.407 4.84605 -5.80254 0
M  V30 9413 H 879.675 5.84498 -5.15735 0
M  V30 9414 N 883.904 1.48273 0.534124 0
M  V30 9415 C 885.153 1.55334 1.28663 0
M  V30 9416 C 885.466 0.230345 1.94239 0
M  V30 9417 O 886.672 0.179161 2.70908 0
M  V30 9418 C 885.128 2.73927 2.33435 0
M  V30 9419 C 884.736 4.12852 1.73947 0
M  V30 9420 C 886.48 2.90298 3.09722 0
M  V30 9421 C 884.387 5.22711 2.76636 0
M  V30 9422 H 883.317 0.578262 0.483869 0
M  V30 9423 H 885.968 1.74598 0.564602 0
M  V30 9424 H 884.35 2.48089 3.08655 0
M  V30 9425 H 885.524 4.48691 1.04944 0
M  V30 9426 H 883.839 4.01562 1.10167 0
M  V30 9427 H 886.436 3.69542 3.86449 0
M  V30 9428 H 886.779 1.99598 3.6533 0
M  V30 9429 H 887.312 3.16017 2.41616 0
M  V30 9430 H 884.051 6.15362 2.25852 0
M  V30 9431 H 883.571 4.91364 3.43979 0
M  V30 9432 H 885.25 5.50648 3.39699 0
M  V30 9433 N 885.382 -0.782676 1.36792 0
M  V30 9434 C 886.61 -1.57162 1.34565 0
M  V30 9435 C 887.025 -1.88664 -0.0715501 0
M  V30 9436 O 886.382 -1.50633 -1.03033 0
M  V30 9437 C 886.433 -2.88854 2.1736 0
M  V30 9438 O 886.154 -2.58707 3.53557 0
M  V30 9439 C 887.655 -3.83132 2.2299 0
M  V30 9440 H 884.875 -0.487245 0.461338 0
M  V30 9441 H 887.419 -0.970905 1.79982 0
M  V30 9442 H 885.574 -3.45377 1.7548 0
M  V30 9443 H 885.988 -3.42961 3.96835 0
M  V30 9444 H 887.462 -4.72575 2.85266 0
M  V30 9445 H 887.939 -4.21472 1.23524 0
M  V30 9446 H 888.545 -3.32541 2.65135 0
M  V30 9447 N 886.86 -1.21182 -1.00761 0
M  V30 9448 C 887.807 -0.968741 -2.09485 0
M  V30 9449 C 888.777 0.104325 -1.65772 0
M  V30 9450 O 889.962 -0.0422587 -1.90753 0
M  V30 9451 C 887.102 -0.536686 -3.40901 0
M  V30 9452 C 886.215 -1.6789 -3.98041 0
M  V30 9453 C 885.35 -1.19627 -5.17555 0
M  V30 9454 C 884.389 -2.31099 -5.66798 0
M  V30 9455 N 883.526 -1.83988 -6.77564 0
M  V30 9456 H 888.366 -1.89952 -2.29613 0
M  V30 9457 H 885.903 -0.946688 -1.12589 0
M  V30 9458 H 887.861 -0.26745 -4.16342 0
M  V30 9459 H 886.491 0.357092 -3.20819 0
M  V30 9460 H 885.543 -2.06284 -3.19611 0
M  V30 9461 H 886.855 -2.51794 -4.30582 0
M  V30 9462 H 886.009 -0.883539 -6.00232 0
M  V30 9463 H 884.748 -0.327244 -4.86601 0
M  V30 9464 H 883.753 -2.63178 -4.82719 0
M  V30 9465 H 884.978 -3.18493 -5.99782 0
M  V30 9466 H 882.924 -0.994257 -6.48422 0
M  V30 9467 H 882.841 -2.61466 -7.09346 0
M  V30 9468 H 884.109 -1.55741 -7.63783 0
M  V30 9469 N 888.338 1.20213 -1.01915 0
M  V30 9470 C 889.749 1.7136 -0.741131 0
M  V30 9471 C 890.1 1.81705 0.740107 0
M  V30 9472 O 889.225 1.48139 1.57746 0
M  V30 9473 C 889.82 3.11231 -1.33869 0
M  V30 9474 C 888.379 3.59677 -1.10948 0
M  V30 9475 C 887.526 2.36809 -1.4428 0
M  V30 9476 H 890.477 1.05191 -1.1883 0
M  V30 9477 H 890.498 3.7342 -0.730585 0
M  V30 9478 H 890.01 3.03669 -2.41675 0
M  V30 9479 H 888.111 3.72568 -0.0492052 0
M  V30 9480 H 888.224 4.44351 -1.79134 0
M  V30 9481 H 886.588 2.39674 -0.861881 0
M  V30 9482 H 887.371 2.31886 -2.53148 0
M  V30 9483 N 889.816 0.795718 1.36037 0
M  V30 9484 C 890.763 0.196548 2.29962 0
M  V30 9485 C 891.733 -0.663213 1.52285 0
M  V30 9486 O 892.918 -0.610574 1.80767 0
M  V30 9487 C 890.058 -0.657639 3.38776 0
M  V30 9488 C 889.171 0.221358 4.31433 0
M  V30 9489 C 888.306 -0.6398 5.27333 0
M  V30 9490 C 887.345 0.240265 6.11628 0
M  V30 9491 N 886.482 -0.580237 6.99698 0
M  V30 9492 H 891.322 1.00295 2.80615 0
M  V30 9493 H 888.859 0.506147 1.38118 0
M  V30 9494 H 890.817 -1.16793 4.00519 0
M  V30 9495 H 889.447 -1.42941 2.89426 0
M  V30 9496 H 888.499 0.84967 3.70789 0
M  V30 9497 H 889.811 0.899195 4.90628 0
M  V30 9498 H 888.965 -1.21566 5.94396 0
M  V30 9499 H 887.704 -1.35124 4.68607 0
M  V30 9500 H 886.709 0.828474 5.43522 0
M  V30 9501 H 887.934 0.949403 6.72431 0
M  V30 9502 H 885.88 -1.27585 6.43473 0
M  V30 9503 H 885.797 0.0397853 7.5599 0
M  V30 9504 H 887.065 -1.13972 7.71123 0
M  V30 9505 N 891.294 -1.47756 0.548274 0
M  V30 9506 C 892.543 -2.01691 0.0187961 0
M  V30 9507 C 892.856 -1.42894 -1.33569 0
M  V30 9508 O 894.062 -1.88438 -1.95457 0
M  V30 9509 C 892.518 -3.59896 -0.016847 0
M  V30 9510 C 892.126 -4.27683 1.33385 0
M  V30 9511 C 893.87 -4.21614 -0.494188 0
M  V30 9512 C 891.777 -5.7787 1.2578 0
M  V30 9513 H 890.707 -0.753993 0.00325648 0
M  V30 9514 H 893.358 -1.69838 0.694792 0
M  V30 9515 H 891.74 -3.88672 -0.758304 0
M  V30 9516 H 892.914 -4.10559 2.09232 0
M  V30 9517 H 891.229 -3.77915 1.7484 0
M  V30 9518 H 893.826 -5.3166 -0.569342 0
M  V30 9519 H 894.169 -3.88176 -1.50417 0
M  V30 9520 H 894.702 -3.97336 0.192138 0
M  V30 9521 H 891.441 -6.15912 2.2435 0
M  V30 9522 H 890.961 -5.97355 0.540997 0
M  V30 9523 H 892.64 -6.39897 0.956109 0
M  V30 9524 N 892.772 -0.284283 -1.55015 0
M  V30 9525 C 894.02 0.329212 -1.99401 0
M  V30 9526 C 894.341 1.55687 -1.17416 0
M  V30 9527 O 893.611 1.94087 -0.265937 0
M  V30 9528 H 892.191 0.12463 -0.73653 0
M  V30 9529 H 894.853 -0.391743 -1.90922 0
M  V30 9530 H 893.949 0.61278 -3.06025 0
M  V30 9531 N 894.251 1.57596 -0.0117121 0
M  V30 9532 C 895.5 1.9025 0.669921 0
M  V30 9533 C 895.813 0.887986 1.74282 0
M  V30 9534 O 897.019 1.10516 2.47989 0
M  V30 9535 C 895.475 3.37762 1.24277 0
M  V30 9536 C 895.083 4.47535 0.204076 0
M  V30 9537 C 896.827 3.79509 1.90192 0
M  V30 9538 C 894.734 5.86132 0.787577 0
M  V30 9539 H 893.664 0.709935 0.253984 0
M  V30 9540 H 896.315 1.8335 -0.0741718 0
M  V30 9541 H 894.697 3.39537 2.03791 0
M  V30 9542 H 895.871 4.57294 -0.56733 0
M  V30 9543 H 894.186 4.14881 -0.355305 0
M  V30 9544 H 896.783 4.80402 2.34773 0
M  V30 9545 H 897.126 3.13643 2.7374 0
M  V30 9546 H 897.659 3.80084 1.17394 0
M  V30 9547 H 894.398 6.55499 -0.00938418 0
M  V30 9548 H 893.918 5.80014 1.52787 0
M  V30 9549 H 895.597 6.34158 1.28265 0
M  V30 9550 N 895.729 -0.261212 1.5542 0
M  V30 9551 C 896.662 -1.34906 1.84054 0
M  V30 9552 C 897.64 -1.47024 0.694466 0
M  V30 9553 O 898.824 -1.63463 0.938719 0
M  V30 9554 C 895.951 -2.7242 2.01259 0
M  V30 9555 C 894.997 -2.77526 3.23855 0
M  V30 9556 S 895.83 -2.35578 4.80898 0
M  V30 9557 C 896.986 -3.75045 5.01091 0
M  V30 9558 H 897.219 -1.10416 2.76035 0
M  V30 9559 H 894.752 -0.461461 1.47343 0
M  V30 9560 H 896.71 -3.51606 2.11857 0
M  V30 9561 H 895.371 -2.94155 1.10145 0
M  V30 9562 H 894.564 -3.78483 3.32816 0
M  V30 9563 H 894.166 -2.0637 3.11909 0
M  V30 9564 H 896.458 -4.7042 4.87556 0
M  V30 9565 H 897.401 -3.71027 6.03112 0
M  V30 9566 H 897.809 -3.66894 4.29009 0
M  V30 9567 N 897.207 -1.48554 -0.526253 0
M  V30 9568 C 898.453 -1.56994 -1.28378 0
M  V30 9569 C 898.786 -0.244701 -1.92652 0
M  V30 9570 O 898.061 0.749636 -1.79473 0
M  V30 9571 C 898.344 -2.71092 -2.37026 0
M  V30 9572 C 898.197 -4.13331 -1.77418 0
M  V30 9573 C 899.516 -2.80934 -3.38769 0
M  V30 9574 H 896.635 -0.571466 -0.465398 0
M  V30 9575 H 899.277 -1.80742 -0.585861 0
M  V30 9576 H 897.427 -2.50973 -2.96555 0
M  V30 9577 H 899.099 -4.44899 -1.21912 0
M  V30 9578 H 897.342 -4.20158 -1.07936 0
M  V30 9579 H 898.013 -4.88994 -2.56104 0
M  V30 9580 H 900.489 -2.9917 -2.892 0
M  V30 9581 H 899.365 -3.62489 -4.12181 0
M  V30 9582 H 899.626 -1.89244 -3.99549 0
M  V30 9583 N 898.685 0.775411 -1.37205 0
M  V30 9584 C 899.595 1.91967 -1.34855 0
M  V30 9585 C 900.611 1.72214 -0.248656 0
M  V30 9586 O 901.787 1.95512 -0.483421 0
M  V30 9587 C 898.852 3.27038 -1.15096 0
M  V30 9588 C 897.913 3.5947 -2.34691 0
M  V30 9589 C 897.146 4.88097 -2.15865 0
M  V30 9590 O 897.369 5.58871 -1.14102 0
M  V30 9591 O 896.303 5.19507 -3.03967 0
M  V30 9592 H 900.129 1.969 -2.31223 0
M  V30 9593 H 897.714 0.917647 -1.17897 0
M  V30 9594 H 899.596 4.07837 -1.0605 0
M  V30 9595 H 898.271 3.22965 -0.217999 0
M  V30 9596 H 897.178 2.7892 -2.49308 0
M  V30 9597 H 898.511 3.68282 -3.26541 0
M  V30 9598 N 900.163 1.21714 1.00117 0
M  V30 9599 C 901.409 1.03823 1.74208 0
M  V30 9600 C 901.742 -0.426733 1.89454 0
M  V30 9601 O 901.017 -1.31658 1.43166 0
M  V30 9602 C 901.3 1.74047 3.15246 0
M  V30 9603 C 901.153 3.28087 3.077 0
M  V30 9604 C 902.472 1.48614 4.14249 0
M  V30 9605 H 899.591 0.378573 0.632338 0
M  V30 9606 H 902.233 1.49942 1.16694 0
M  V30 9607 H 900.383 1.3484 3.64349 0
M  V30 9608 H 902.055 3.76686 2.6628 0
M  V30 9609 H 900.298 3.58191 2.44707 0
M  V30 9610 H 900.969 3.72392 4.07466 0
M  V30 9611 H 903.445 1.82656 3.73866 0
M  V30 9612 H 902.321 2.00257 5.11066 0
M  V30 9613 H 902.582 0.416957 4.40129 0
M  V30 9614 N 901.641 -1.19671 1.02551 0
M  V30 9615 C 903.052 -1.70964 0.750208 0
M  V30 9616 C 903.403 -1.82095 -0.730461 0
M  V30 9617 O 902.528 -1.48974 -1.56958 0
M  V30 9618 C 903.123 -3.10516 1.35518 0
M  V30 9619 C 901.682 -3.59083 1.12854 0
M  V30 9620 C 900.829 -2.36041 1.45534 0
M  V30 9621 H 903.78 -1.04559 1.19386 0
M  V30 9622 H 903.801 -3.73028 0.750378 0
M  V30 9623 H 903.313 -3.02383 2.43282 0
M  V30 9624 H 901.414 -3.72536 0.0689627 0
M  V30 9625 H 901.527 -4.43395 1.81488 0
M  V30 9626 H 899.891 -2.39214 0.87458 0
M  V30 9627 H 900.674 -2.3054 2.54374 0
M  V30 9628 N 903.119 -0.802921 -1.35613 0
M  V30 9629 C 904.344 -0.392846 -2.03645 0
M  V30 9630 C 904.769 0.987075 -1.6012 0
M  V30 9631 O 904.127 1.63849 -0.776101 0
M  V30 9632 C 904.175 -0.480208 -3.57388 0
M  V30 9633 O 903.279 0.507751 -4.09262 0
M  V30 9634 H 902.62 -0.16464 -0.643265 0
M  V30 9635 H 905.15 -1.08779 -1.73287 0
M  V30 9636 H 905.16 -0.348683 -4.06507 0
M  V30 9637 H 903.835 -1.48675 -3.88418 0
M  V30 9638 H 902.412 0.336769 -3.71376 0
M  V30 9639 N 904.597 1.47463 -0.556102 0
M  V30 9640 C 905.843 2.02775 -0.0316806 0
M  V30 9641 C 906.176 1.42967 1.3143 0
M  V30 9642 O 905.451 0.584847 1.85499 0
M  V30 9643 C 905.734 3.60046 0.0625742 0
M  V30 9644 C 905.587 4.30288 -1.31043 0
M  V30 9645 C 906.906 4.33195 0.776553 0
M  V30 9646 H 904.025 0.736886 -0.0129869 0
M  V30 9647 H 906.667 1.75904 -0.718177 0
M  V30 9648 H 904.817 3.83071 0.647231 0
M  V30 9649 H 906.489 4.18607 -1.9382 0
M  V30 9650 H 904.732 3.90685 -1.8854 0
M  V30 9651 H 905.403 5.38861 -1.1972 0
M  V30 9652 H 907.879 4.15156 0.280147 0
M  V30 9653 H 906.755 5.42869 0.81146 0
M  V30 9654 H 907.016 4.02336 1.83244 0
M  V30 9655 N 906.075 0.2925 1.54862 0
M  V30 9656 C 907.005 -0.580677 2.26165 0
M  V30 9657 C 907.986 -1.14485 1.25806 0
M  V30 9658 O 909.171 -1.17577 1.54562 0
M  V30 9659 C 906.301 -1.75668 2.99596 0
M  V30 9660 C 905.255 -1.32325 4.07031 0
M  V30 9661 C 904.581 -2.58374 4.68131 0
M  V30 9662 C 905.881 -0.460703 5.20264 0
M  V30 9663 H 907.575 0.0140075 2.99397 0
M  V30 9664 H 905.121 0.00817706 1.43998 0
M  V30 9665 H 907.074 -2.37356 3.48195 0
M  V30 9666 H 905.798 -2.37747 2.23928 0
M  V30 9667 H 904.457 -0.729477 3.59269 0
M  V30 9668 H 904.105 -3.18749 3.89112 0
M  V30 9669 H 903.805 -2.30078 5.40683 0
M  V30 9670 H 905.329 -3.2088 5.19489 0
M  V30 9671 H 906.743 -0.983037 5.64809 0
M  V30 9672 H 905.14 -0.271881 5.99484 0
M  V30 9673 H 906.21 0.516304 4.82143 0
M  V30 9674 N 907.553 -1.57587 0.0200696 0
M  V30 9675 C 908.483 -2.12702 -0.963333 0
M  V30 9676 C 909.464 -1.04094 -1.34531 0
M  V30 9677 O 910.649 -1.31881 -1.42552 0
M  V30 9678 C 907.779 -2.64673 -2.24868 0
M  V30 9679 C 906.733 -3.77987 -2.00772 0
M  V30 9680 C 906.059 -4.16351 -3.35494 0
M  V30 9681 C 907.359 -5.0444 -1.35416 0
M  V30 9682 H 909.053 -2.95121 -0.504363 0
M  V30 9683 H 906.599 -1.41966 -0.24116 0
M  V30 9684 H 908.552 -3.01862 -2.94036 0
M  V30 9685 H 907.276 -1.79403 -2.72914 0
M  V30 9686 H 905.935 -3.41223 -1.34025 0
M  V30 9687 H 905.583 -3.28075 -3.81282 0
M  V30 9688 H 905.283 -4.92705 -3.20181 0
M  V30 9689 H 906.807 -4.56115 -4.05945 0
M  V30 9690 H 908.221 -5.39273 -1.94571 0
M  V30 9691 H 906.618 -5.85732 -1.30529 0
M  V30 9692 H 907.688 -4.83803 -0.325923 0
M  V30 9693 N 909.032 0.252966 -1.55557 0
M  V30 9694 C 909.964 1.33585 -1.86246 0
M  V30 9695 C 910.977 1.44584 -0.748291 0
M  V30 9696 O 912.166 1.46042 -1.02635 0
M  V30 9697 C 909.266 2.71509 -2.02821 0
M  V30 9698 C 908.439 2.82853 -3.33636 0
M  V30 9699 C 907.498 4.01581 -3.40028 0
M  V30 9700 O 906.524 3.91394 -4.13278 0
M  V30 9701 N 907.726 5.14474 -2.6888 0
M  V30 9702 H 910.491 1.07596 -2.7972 0
M  V30 9703 H 908.052 0.443075 -1.55719 0
M  V30 9704 H 910.044 3.49262 -2.04445 0
M  V30 9705 H 908.614 2.90232 -1.1612 0
M  V30 9706 H 907.834 1.91823 -3.4438 0
M  V30 9707 H 909.122 2.87378 -4.19871 0
M  V30 9708 H 908.52 5.25641 -2.09087 0
M  V30 9709 H 907.077 5.90385 -2.76204 0
M  V30 9710 N 910.51 1.48831 0.518367 0
M  V30 9711 C 911.759 1.5669 1.27008 0
M  V30 9712 C 912.072 0.250934 1.93984 0
M  V30 9713 O 913.278 0.207884 2.70703 0
M  V30 9714 C 911.734 2.76387 2.30517 0
M  V30 9715 C 911.342 4.14673 1.69559 0
M  V30 9716 C 913.086 2.93566 3.06625 0
M  V30 9717 C 910.993 5.25616 2.71076 0
M  V30 9718 H 909.923 0.583362 0.477708 0
M  V30 9719 H 912.574 1.75187 0.546052 0
M  V30 9720 H 910.956 2.51348 3.06006 0
M  V30 9721 H 912.13 4.49779 1.00179 0
M  V30 9722 H 910.445 4.02708 1.05902 0
M  V30 9723 H 913.042 3.7362 3.82508 0
M  V30 9724 H 913.385 2.03462 3.63193 0
M  V30 9725 H 913.918 3.18562 2.38251 0
M  V30 9726 H 910.657 6.17723 2.19313 0
M  V30 9727 H 910.177 4.94985 3.38748 0
M  V30 9728 H 911.856 5.5422 3.3384 0
M  V30 9729 N 911.988 -0.768124 1.37614 0
M  V30 9730 C 913.265 -1.51637 1.23554 0
M  V30 9731 C 913.645 -2.1042 -0.169331 0
M  V30 9732 O 912.993 -1.95834 -1.17735 0
M  V30 9733 C 913.203 -2.59436 2.33439 0
M  V30 9734 C 914.551 -3.2674 2.71157 0
M  V30 9735 O 915.575 -2.69733 2.32642 0
M  V30 9736 O 914.434 -4.29814 3.37524 0
M  V30 9737 H 911.528 -0.671778 0.482332 0
M  V30 9738 H 914.074 -0.804779 1.49403 0
M  V30 9739 H 912.846 -2.14146 3.27502 0
M  V30 9740 H 912.469 -3.38192 2.09073 0
M  V30 9741 N 913.466 -1.22244 -0.994698 0
M  V30 9742 C 914.376 -1.00722 -2.11878 0
M  V30 9743 C 915.392 0.043919 -1.73945 0
M  V30 9744 O 916.568 -0.148411 -2.00852 0
M  V30 9745 C 913.633 -0.585723 -3.41717 0
M  V30 9746 C 912.694 -1.71027 -3.93762 0
M  V30 9747 C 911.927 -1.30879 -5.17403 0
M  V30 9748 O 912.15 -0.18681 -5.70094 0
M  V30 9749 O 911.084 -2.1246 -5.63156 0
M  V30 9750 H 914.91 -1.94894 -2.32916 0
M  V30 9751 H 912.495 -1.00822 -1.10251 0
M  V30 9752 H 914.377 -0.360935 -4.19851 0
M  V30 9753 H 913.052 0.327166 -3.22042 0
M  V30 9754 H 911.959 -1.98956 -3.16808 0
M  V30 9755 H 913.292 -2.60096 -4.17865 0
M  V30 9756 N 914.944 1.19125 -1.03184 0
M  V30 9757 C 916.191 1.88883 -0.730029 0
M  V30 9758 C 916.519 1.79807 0.741602 0
M  V30 9759 O 915.774 1.18686 1.55603 0
M  V30 9760 C 916.073 3.39052 -1.13041 0
M  V30 9761 C 915.739 3.68332 -2.60082 0
M  V30 9762 C 914.401 3.76033 -3.00254 0
M  V30 9763 C 916.753 3.81423 -3.55199 0
M  V30 9764 C 914.081 3.94296 -4.34451 0
M  V30 9765 C 916.433 4.012 -4.89103 0
M  V30 9766 C 915.097 4.07134 -5.28959 0
M  V30 9767 H 914.367 0.691172 -0.267137 0
M  V30 9768 H 917.014 1.41053 -1.29523 0
M  V30 9769 H 915.319 3.88801 -0.48386 0
M  V30 9770 H 917.016 3.91351 -0.874368 0
M  V30 9771 H 913.606 3.62948 -2.27961 0
M  V30 9772 H 917.79 3.74814 -3.25313 0
M  V30 9773 H 913.046 3.97131 -4.64863 0
M  V30 9774 H 917.22 4.10271 -5.62717 0
M  V30 9775 H 914.847 4.21038 -6.32954 0
M  V30 9776 N 916.422 0.810101 1.35185 0
M  V30 9777 C 917.647 0.40364 2.03434 0
M  V30 9778 C 918.072 -0.97857 1.60641 0
M  V30 9779 O 917.43 -1.63435 0.784779 0
M  V30 9780 C 917.478 0.499154 3.57129 0
M  V30 9781 O 916.582 -0.486039 4.09526 0
M  V30 9782 H 915.923 0.168049 0.642383 0
M  V30 9783 H 918.453 1.09696 1.72708 0
M  V30 9784 H 918.463 0.370236 4.06317 0
M  V30 9785 H 917.138 1.50733 3.87624 0
M  V30 9786 H 915.715 -0.31707 3.7155 0
M  V30 9787 N 917.9 -1.47166 0.563914 0
M  V30 9788 C 918.81 -2.33885 -0.182977 0
M  V30 9789 C 919.826 -1.48605 -0.905132 0
M  V30 9790 O 921.002 -1.81518 -0.872527 0
M  V30 9791 C 918.067 -3.25433 -1.19558 0
M  V30 9792 C 917.128 -4.26607 -0.480129 0
M  V30 9793 C 916.361 -5.1378 -1.44449 0
M  V30 9794 O 916.584 -5.03531 -2.67979 0
M  V30 9795 O 915.518 -5.94109 -0.965321 0
M  V30 9796 H 919.344 -2.99065 0.528544 0
M  V30 9797 H 916.929 -1.45834 0.324468 0
M  V30 9798 H 918.811 -3.81964 -1.77993 0
M  V30 9799 H 917.486 -2.62873 -1.8889 0
M  V30 9800 H 916.393 -3.73817 0.145583 0
M  V30 9801 H 917.726 -4.919 0.171868 0
M  V30 9802 N 919.378 -0.300708 -1.54705 0
M  V30 9803 C 920.308 0.568675 -2.26469 0
M  V30 9804 C 921.289 1.13817 -1.26411 0
M  V30 9805 O 922.474 1.16756 -1.55183 0
M  V30 9806 C 919.604 1.74077 -3.00524 0
M  V30 9807 C 918.558 1.30165 -4.07727 0
M  V30 9808 C 917.884 2.55888 -4.69495 0
M  V30 9809 C 919.184 0.433106 -5.20501 0
M  V30 9810 H 920.878 -0.0298851 -2.99385 0
M  V30 9811 H 918.424 -0.0158135 -1.43991 0
M  V30 9812 H 920.377 2.35506 -3.49449 0
M  V30 9813 H 919.101 2.36556 -2.25186 0
M  V30 9814 H 917.76 0.710414 -3.59651 0
M  V30 9815 H 917.408 3.16681 -3.90797 0
M  V30 9816 H 917.108 2.27207 -5.41895 0
M  V30 9817 H 918.632 3.18121 -5.21183 0
M  V30 9818 H 920.046 0.95307 -5.65322 0
M  V30 9819 H 918.443 0.240085 -5.9962 0
M  V30 9820 H 919.513 -0.541866 -4.81863 0
M  V30 9821 N 920.856 1.57574 -0.0284266 0
M  V30 9822 C 922.102 1.92056 0.651327 0
M  V30 9823 C 922.435 0.905092 1.71819 0
M  V30 9824 O 921.71 -0.0722703 1.94366 0
M  V30 9825 C 921.993 3.37021 1.26841 0
M  V30 9826 C 921.846 4.49304 0.211157 0
M  V30 9827 C 923.165 3.81936 2.18662 0
M  V30 9828 H 920.284 0.698428 0.235304 0
M  V30 9829 H 922.926 1.89807 -0.0855435 0
M  V30 9830 H 921.076 3.39068 1.89644 0
M  V30 9831 H 922.748 4.5939 -0.419379 0
M  V30 9832 H 920.991 4.31317 -0.463445 0
M  V30 9833 H 921.662 5.47764 0.682518 0
M  V30 9834 H 924.138 3.8162 1.65847 0
M  V30 9835 H 923.014 4.84064 2.58792 0
M  V30 9836 H 923.275 3.174 3.07749 0
M  V30 9837 N 922.334 -0.244713 1.55689 0
M  V30 9838 C 923.611 -0.995407 1.68378 0
M  V30 9839 C 923.991 -2.03288 0.568949 0
M  V30 9840 O 923.339 -2.24469 -0.427299 0
M  V30 9841 C 923.549 -1.62678 3.08767 0
M  V30 9842 C 924.897 -2.1278 3.67437 0
M  V30 9843 O 925.921 -1.72614 3.11581 0
M  V30 9844 O 924.78 -2.86536 4.65359 0
M  V30 9845 H 921.874 -0.463476 0.684923 0
M  V30 9846 H 924.42 -0.238326 1.68018 0
M  V30 9847 H 923.192 -0.876469 3.81358 0
M  V30 9848 H 922.815 -2.45 3.13146 0
M  V30 9849 N 923.813 -1.49104 -0.510467 0
M  V30 9850 C 925.06 -1.58112 -1.26518 0
M  V30 9851 C 925.388 -0.263603 -1.92705 0
M  V30 9852 O 924.643 0.747743 -1.80852 0
M  V30 9853 C 924.942 -2.68259 -2.36161 0
M  V30 9854 C 924.608 -4.10069 -1.87495 0
M  V30 9855 C 923.27 -4.48662 -1.73942 0
M  V30 9856 C 925.622 -4.98859 -1.5096 0
M  V30 9857 C 922.95 -5.73829 -1.22217 0
M  V30 9858 C 925.302 -6.24535 -1.00691 0
M  V30 9859 C 923.966 -6.61967 -0.857691 0
M  V30 9860 H 923.236 -0.578574 -0.462962 0
M  V30 9861 H 925.883 -1.82899 -0.567475 0
M  V30 9862 H 924.188 -2.37407 -3.11681 0
M  V30 9863 H 925.885 -2.7244 -2.9424 0
M  V30 9864 H 922.475 -3.79601 -1.99001 0
M  V30 9865 H 926.659 -4.69706 -1.60282 0
M  V30 9866 H 921.915 -6.01539 -1.09368 0
M  V30 9867 H 926.089 -6.9272 -0.71498 0
M  V30 9868 H 923.716 -7.58839 -0.454702 0
M  V30 9869 N 925.291 0.760815 -1.38019 0
M  V30 9870 C 926.538 1.51973 -1.3383 0
M  V30 9871 C 926.866 1.9436 0.0738855 0
M  V30 9872 O 926.121 1.65181 1.04946 0
M  V30 9873 C 926.42 2.79024 -2.23339 0
M  V30 9874 C 926.086 2.55636 -3.71431 0
M  V30 9875 C 924.748 2.48966 -4.11788 0
M  V30 9876 C 927.1 2.35018 -4.65205 0
M  V30 9877 C 924.428 2.19684 -5.44018 0
M  V30 9878 C 926.78 2.07258 -5.97685 0
M  V30 9879 C 925.444 1.9904 -6.37134 0
M  V30 9880 H 924.714 0.556108 -0.489719 0
M  V30 9881 H 927.361 0.87545 -1.70318 0
M  V30 9882 H 925.666 3.48065 -1.79883 0
M  V30 9883 H 927.363 3.36951 -2.17405 0
M  V30 9884 H 923.953 2.61695 -3.39432 0
M  V30 9885 H 928.137 2.39154 -4.34878 0
M  V30 9886 H 923.393 2.11825 -5.73533 0
M  V30 9887 H 927.567 1.90307 -6.69893 0
M  V30 9888 H 925.194 1.76115 -7.39519 0
M  V30 9889 N 926.769 1.22769 0.988202 0
M  V30 9890 C 927.994 1.08239 1.76915 0
M  V30 9891 C 928.419 -0.362519 1.84574 0
M  V30 9892 O 927.777 -1.26202 1.30165 0
M  V30 9893 C 927.825 1.70363 3.17819 0
M  V30 9894 O 926.929 0.960484 4.01059 0
M  V30 9895 H 926.27 0.379872 0.544604 0
M  V30 9896 H 928.8 1.62663 1.24104 0
M  V30 9897 H 928.81 1.7528 3.6843 0
M  V30 9898 H 927.485 2.75505 3.1156 0
M  V30 9899 H 926.062 0.987667 3.59582 0
M  V30 9900 N 928.247 -1.18576 1.03814 0
M  V30 9901 C 929.493 -1.88773 0.741132 0
M  V30 9902 C 929.826 -1.79993 -0.729127 0
M  V30 9903 O 929.101 -1.19851 -1.53186 0
M  V30 9904 C 929.384 -3.39352 1.20468 0
M  V30 9905 C 929.237 -3.56955 2.73684 0
M  V30 9906 C 930.556 -4.32901 0.792741 0
M  V30 9907 H 927.675 -0.685482 0.270708 0
M  V30 9908 H 930.317 -1.39523 1.2897 0
M  V30 9909 H 928.467 -3.81427 0.737974 0
M  V30 9910 H 930.139 -3.2399 3.28372 0
M  V30 9911 H 928.382 -2.99696 3.13632 0
M  V30 9912 H 929.053 -4.62598 3.01176 0
M  V30 9913 H 931.529 -3.98592 1.1943 0
M  V30 9914 H 930.405 -5.36828 1.14486 0
M  V30 9915 H 930.666 -4.41052 -0.304295 0
M  V30 9916 N 929.725 -0.817259 -1.34754 0
M  V30 9917 C 930.973 -0.401852 -1.98065 0
M  V30 9918 C 931.294 1.03718 -1.65129 0
M  V30 9919 O 930.564 1.71921 -0.939141 0
M  V30 9920 H 929.144 -0.145603 -0.732672 0
M  V30 9921 H 931.806 -1.04545 -1.64488 0
M  V30 9922 H 930.902 -0.516241 -3.07801 0
M  V30 9923 N 931.203 1.46865 -0.571711 0
M  V30 9924 C 932.428 2.07323 -0.0564655 0
M  V30 9925 C 932.853 1.41938 1.23431 0
M  V30 9926 O 932.211 0.499334 1.74288 0
M  V30 9927 C 932.259 3.6044 0.107339 0
M  V30 9928 O 931.363 3.95558 1.1665 0
M  V30 9929 H 930.704 0.661475 -0.0578465 0
M  V30 9930 H 933.234 1.88669 -0.791524 0
M  V30 9931 H 933.244 4.06767 0.316987 0
M  V30 9932 H 931.919 4.07425 -0.835348 0
M  V30 9933 H 930.496 3.60957 0.936189 0
M  V30 9934 N 932.681 0.308908 1.54543 0
M  V30 9935 C 933.629 -0.579326 2.2527 0
M  V30 9936 C 934.623 -1.13058 1.26152 0
M  V30 9937 O 935.829 -1.08031 1.43977 0
M  V30 9938 H 932.204 -0.205444 0.723392 0
M  V30 9939 H 934.175 0.0396415 2.98374 0
M  V30 9940 C 932.924 -1.73584 3.01271 0
M  V30 9941 H 932.247 -1.32089 3.77349 0
M  V30 9942 H 933.687 -2.33324 3.54028 0
M  V30 9943 C 932.146 -2.6447 2.08703 0
M  V30 9944 O 932.676 -3.65785 1.66025 0
M  V30 9945 N 930.882 -2.32379 1.74495 0
M  V30 9946 H 930.429 -1.50034 2.09398 0
M  V30 9947 H 930.387 -2.93454 1.12836 0
M  V30 9948 N 934.159 -1.57557 0.0367827 0
M  V30 9949 C 935.436 -1.83427 -0.679261 0
M  V30 9950 C 935.816 -0.922274 -1.89888 0
M  V30 9951 O 935.164 0.02025 -2.28491 0
M  V30 9952 C 935.374 -3.32823 -1.05022 0
M  V30 9953 C 936.722 -3.99486 -1.43861 0
M  V30 9954 O 937.746 -3.37364 -1.14297 0
M  V30 9955 O 936.605 -5.0899 -1.98977 0
M  V30 9956 H 933.699 -0.756581 -0.333936 0
M  V30 9957 H 936.245 -1.69575 0.0650494 0
M  V30 9958 H 935.017 -3.90874 -0.182509 0
M  V30 9959 H 934.64 -3.5181 -1.85244 0
M  V30 9960 N 935.637 0.236453 -1.55816 0
M  V30 9961 C 936.567 1.29639 -1.94206 0
M  V30 9962 C 937.548 1.49667 -0.808319 0
M  V30 9963 O 938.733 1.621 -1.06945 0
M  V30 9964 C 935.863 2.64914 -2.24584 0
M  V30 9965 C 934.817 2.59565 -3.40308 0
M  V30 9966 C 934.143 3.98732 -3.56254 0
M  V30 9967 C 935.443 2.15642 -4.75706 0
M  V30 9968 H 937.137 0.977552 -2.82992 0
M  V30 9969 H 934.683 0.468804 -1.36155 0
M  V30 9970 H 936.636 3.39209 -2.50031 0
M  V30 9971 H 935.36 2.98455 -1.32636 0
M  V30 9972 H 934.019 1.87728 -3.14887 0
M  V30 9973 H 933.667 4.29556 -2.61707 0
M  V30 9974 H 933.367 3.96039 -4.34082 0
M  V30 9975 H 934.891 4.74711 -3.84033 0
M  V30 9976 H 936.305 2.79673 -5.00456 0
M  V30 9977 H 934.702 2.24039 -5.56711 0
M  V30 9978 H 935.772 1.10831 -4.72064 0
M  V30 9979 N 937.115 1.49373 0.502552 0
M  V30 9980 C 938.364 1.58028 1.25339 0
M  V30 9981 C 938.677 0.271494 1.93707 0
M  V30 9982 O 939.883 0.236584 2.70467 0
M  V30 9983 C 938.339 2.78817 2.27572 0
M  V30 9984 C 937.947 4.16448 1.65151 0
M  V30 9985 C 939.691 2.96802 3.03494 0
M  V30 9986 C 937.598 5.28461 2.65486 0
M  V30 9987 H 936.528 0.588396 0.471494 0
M  V30 9988 H 939.179 1.75756 0.52744 0
M  V30 9989 H 937.561 2.5458 3.03323 0
M  V30 9990 H 938.735 4.50816 0.954029 0
M  V30 9991 H 937.05 4.03809 1.01625 0
M  V30 9992 H 939.647 3.77656 3.78524 0
M  V30 9993 H 939.99 2.07303 3.61014 0
M  V30 9994 H 940.523 3.21071 2.34858 0
M  V30 9995 H 937.262 6.20015 2.12749 0
M  V30 9996 H 936.782 4.9855 3.33479 0
M  V30 9997 H 938.461 5.5773 3.27943 0
M  V30 9998 N 938.594 -0.753485 1.38421 0
M  V30 9999 C 939.526 -1.87692 1.31547 0
M  V30 10000 C 940.539 -1.612 0.227671 0
M  V30 10001 O 941.728 -1.71778 0.485238 0
M  V30 10002 C 938.828 -3.23329 1.01545 0
M  V30 10003 C 938.001 -3.77324 2.21236 0
M  V30 10004 C 937.06 -4.91478 1.87977 0
M  V30 10005 O 936.086 -5.06106 2.60472 0
M  V30 10006 N 937.288 -5.74466 0.834796 0
M  V30 10007 H 940.053 -1.94099 2.28354 0
M  V30 10008 H 937.614 -0.933421 1.32283 0
M  V30 10009 H 939.606 -3.9724 0.773477 0
M  V30 10010 H 938.176 -3.12307 0.135334 0
M  V30 10011 H 937.396 -2.94978 2.61498 0
M  V30 10012 H 938.684 -4.10131 3.01115 0
M  V30 10013 H 938.082 -5.65217 0.233606 0
M  V30 10014 H 936.639 -6.48524 0.652703 0
M  V30 10015 N 940.072 -1.23292 -0.981677 0
M  V30 10016 C 941.302 -1.0893 -1.7555 0
M  V30 10017 C 941.71 0.362219 -1.857 0
M  V30 10018 O 941.053 1.2624 -1.33451 0
M  V30 10019 C 941.115 -1.6389 -3.19969 0
M  V30 10020 C 940.779 -3.12632 -3.33332 0
M  V30 10021 C 941.776 -4.0994 -3.19758 0
M  V30 10022 C 939.461 -3.52314 -3.58022 0
M  V30 10023 C 941.455 -5.44915 -3.30676 0
M  V30 10024 C 939.142 -4.87434 -3.6858 0
M  V30 10025 C 940.14 -5.83544 -3.54916 0
M  V30 10026 O 939.828 -7.16209 -3.65102 0
M  V30 10027 H 939.56 -0.381901 -0.557788 0
M  V30 10028 H 942.114 -1.63586 -1.24213 0
M  V30 10029 H 940.344 -1.03653 -3.72549 0
M  V30 10030 H 942.033 -1.45023 -3.79108 0
M  V30 10031 H 942.799 -3.80625 -3.00582 0
M  V30 10032 H 938.678 -2.78022 -3.67729 0
M  V30 10033 H 942.222 -6.19913 -3.19928 0
M  V30 10034 H 938.119 -5.16426 -3.87265 0
M  V30 10035 H 938.887 -7.23941 -3.81905 0
M  V30 10036 N 941.55 1.18024 -1.04442 0
M  V30 10037 C 942.48 2.23988 -0.659683 0
M  V30 10038 C 943.461 1.6669 0.338904 0
M  V30 10039 O 944.646 1.92971 0.21817 0
M  V30 10040 C 941.776 3.4729 -0.0257672 0
M  V30 10041 C 940.73 4.17362 -0.948299 0
M  V30 10042 C 940.056 5.34401 -0.17866 0
M  V30 10043 C 941.356 4.70435 -2.26909 0
M  V30 10044 H 943.05 2.56425 -1.54553 0
M  V30 10045 H 940.596 1.23256 -0.744575 0
M  V30 10046 H 942.549 4.20627 0.255131 0
M  V30 10047 H 941.273 3.14098 0.894981 0
M  V30 10048 H 939.932 3.45928 -1.21364 0
M  V30 10049 H 939.58 4.97458 0.744614 0
M  V30 10050 H 939.28 5.8222 -0.793294 0
M  V30 10051 H 940.804 6.10526 0.0951315 0
M  V30 10052 H 942.218 5.35447 -2.04864 0
M  V30 10053 H 940.615 5.28803 -2.83703 0
M  V30 10054 H 941.685 3.87653 -2.91296 0
M  V30 10055 N 943.028 0.824394 1.34319 0
M  V30 10056 C 943.958 0.262077 2.32025 0
M  V30 10057 C 944.939 -0.622277 1.58309 0
M  V30 10058 O 946.124 -0.548848 1.86283 0
M  V30 10059 C 943.254 -0.57567 3.42496 0
M  V30 10060 C 942.208 0.21167 4.27476 0
M  V30 10061 C 941.534 -0.748913 5.29429 0
M  V30 10062 C 942.834 1.42068 5.02607 0
M  V30 10063 H 944.528 1.07842 2.79304 0
M  V30 10064 H 942.074 0.520022 1.34282 0
M  V30 10065 H 944.027 -0.979251 4.09864 0
M  V30 10066 H 942.751 -1.42508 2.93869 0
M  V30 10067 H 941.41 0.596636 3.61712 0
M  V30 10068 H 941.058 -1.59432 4.77064 0
M  V30 10069 H 940.758 -0.226313 5.87164 0
M  V30 10070 H 942.282 -1.15032 5.99667 0
M  V30 10071 H 943.696 1.09103 5.62823 0
M  V30 10072 H 942.093 1.87903 5.69923 0
M  V30 10073 H 943.163 2.1981 4.32217 0
M  V30 10074 N 944.506 -1.46559 0.579492 0
M  V30 10075 C 945.469 -2.28739 -0.145371 0
M  V30 10076 C 946.469 -1.38211 -0.821854 0
M  V30 10077 O 947.659 -1.6062 -0.674302 0
M  V30 10078 C 944.791 -3.18507 -1.21515 0
M  V30 10079 H 945.984 -2.94301 0.576786 0
M  V30 10080 H 943.537 -1.52616 0.337327 0
M  V30 10081 H 944.272 -2.57685 -1.96899 0
M  V30 10082 H 944.057 -3.85157 -0.734616 0
M  V30 10083 H 945.547 -3.80369 -1.72363 0
M  V30 10084 N 945.984 -0.3171 -1.54377 0
M  V30 10085 C 947.23 0.287836 -2.00747 0
M  V30 10086 C 947.563 1.52292 -1.20502 0
M  V30 10087 O 946.838 1.92391 -0.285626 0
M  V30 10088 C 947.121 0.628423 -3.54574 0
M  V30 10089 C 946.974 -0.616922 -4.45549 0
M  V30 10090 C 948.293 1.44862 -4.15575 0
M  V30 10091 H 945.412 0.103144 -0.729747 0
M  V30 10092 H 948.054 -0.432396 -1.85014 0
M  V30 10093 H 946.204 1.24203 -3.68111 0
M  V30 10094 H 947.876 -1.25526 -4.43893 0
M  V30 10095 H 946.119 -1.24706 -4.15489 0
M  V30 10096 H 946.79 -0.334243 -5.50987 0
M  V30 10097 H 949.266 0.930015 -4.05574 0
M  V30 10098 H 948.142 1.6557 -5.23333 0
M  V30 10099 H 948.403 2.44279 -3.68484 0
M  V30 10100 N 947.462 1.57535 -0.0451378 0
M  V30 10101 C 948.739 1.83785 0.669523 0
M  V30 10102 C 949.119 0.932331 1.89396 0
M  V30 10103 O 948.467 -0.00813229 2.28499 0
M  V30 10104 C 948.677 3.33376 1.03255 0
M  V30 10105 C 950.025 4.00243 1.41741 0
M  V30 10106 O 951.049 3.37965 1.12507 0
M  V30 10107 O 949.908 5.10038 1.96275 0
M  V30 10108 H 947.002 0.758342 0.329919 0
M  V30 10109 H 949.548 1.69538 -0.0740415 0
M  V30 10110 H 948.32 3.90965 0.161777 0
M  V30 10111 H 947.943 3.52787 1.83376 0
M  V30 10112 N 948.94 -0.228186 1.55939 0
M  V30 10113 C 950.356 -0.577583 1.48782 0
M  V30 10114 C 950.556 -1.87461 0.738972 0
M  V30 10115 O 949.612 -2.50988 0.275929 0
M  V30 10116 C 950.925 -0.662961 2.93301 0
M  V30 10117 C 952.473 -0.754035 3.03782 0
M  V30 10118 C 952.948 -0.870815 4.49645 0
M  V30 10119 N 954.439 -0.935208 4.53661 0
M  V30 10120 C 955.174 -1.04516 5.63794 0
M  V30 10121 N 954.67 -1.11948 6.83696 0
M  V30 10122 N 956.463 -1.07978 5.51631 0
M  V30 10123 H 948.614 0.623018 2.03057 0
M  V30 10124 H 950.877 0.217692 0.922667 0
M  V30 10125 H 950.583 0.220375 3.51009 0
M  V30 10126 H 950.457 -1.52876 3.44831 0
M  V30 10127 H 952.844 -1.62782 2.46143 0
M  V30 10128 H 952.925 0.137301 2.55431 0
M  V30 10129 H 952.569 -0.0015186 5.079 0
M  V30 10130 H 952.499 -1.77747 4.95695 0
M  V30 10131 H 954.99 -0.88836 3.6731 0
M  V30 10132 H 955.303 -1.20297 7.6338 0
M  V30 10133 H 953.648 -1.08873 6.8642 0
M  V30 10134 H 956.839 -1.01833 4.56889 0
M  V30 10135 H 957.012 -1.16202 6.37496 0
M  V30 10136 N 950.418 -1.49637 -0.494624 0
M  V30 10137 C 951.366 -1.6727 -1.61627 0
M  V30 10138 C 952.36 -0.538587 -1.6061 0
M  V30 10139 O 953.566 -0.718411 -1.65042 0
M  V30 10140 H 949.941 -0.527557 -0.535899 0
M  V30 10141 H 951.912 -2.61405 -1.43909 0
M  V30 10142 C 950.661 -1.7624 -2.99725 0
M  V30 10143 H 949.984 -2.62886 -3.01216 0
M  V30 10144 H 951.424 -1.92611 -3.77726 0
M  V30 10145 C 949.883 -0.508632 -3.33038 0
M  V30 10146 O 950.413 0.362828 -4.00058 0
M  V30 10147 N 948.619 -0.369667 -2.88239 0
M  V30 10148 H 948.166 -1.07984 -2.33875 0
M  V30 10149 H 948.124 0.468112 -3.10896 0
M  V30 10150 N 951.896 0.746133 -1.38819 0
M  V30 10151 C 952.844 1.88137 -1.36774 0
M  V30 10152 C 953.838 1.67508 -0.252495 0
M  V30 10153 O 955.044 1.74985 -0.421935 0
M  V30 10154 H 951.419 0.619116 -0.426849 0
M  V30 10155 H 953.39 1.86978 -2.32555 0
M  V30 10156 C 952.139 3.25703 -1.21708 0
M  V30 10157 H 951.462 3.42168 -2.06788 0
M  V30 10158 H 952.902 4.05361 -1.24332 0
M  V30 10159 C 951.361 3.36816 0.0754257 0
M  V30 10160 O 951.891 3.87742 1.04972 0
M  V30 10161 N 950.097 2.90287 0.134761 0
M  V30 10162 H 949.644 2.49034 -0.658779 0
M  V30 10163 H 949.602 2.98103 0.999109 0
M  V30 10164 N 953.375 1.23811 0.975125 0
M  V30 10165 C 954.786 1.0675 1.53171 0
M  V30 10166 C 955.137 -0.363475 1.92804 0
M  V30 10167 O 954.262 -1.25089 1.76583 0
M  V30 10168 C 954.857 1.93161 2.78342 0
M  V30 10169 C 953.416 1.80346 3.30382 0
M  V30 10170 C 952.563 1.88544 2.03338 0
M  V30 10171 H 955.514 1.37396 0.79423 0
M  V30 10172 H 955.535 1.45951 3.51395 0
M  V30 10173 H 955.047 2.97302 2.49465 0
M  V30 10174 H 953.148 0.790077 3.64127 0
M  V30 10175 H 953.261 2.64026 3.99784 0
M  V30 10176 H 951.625 1.32186 2.17713 0
M  V30 10177 H 952.408 2.94252 1.76836 0
M  V30 10178 N 954.853 -1.17469 1.05066 0
M  V30 10179 C 956.269 -1.39699 0.771769 0
M  V30 10180 C 956.469 -1.91253 -0.634382 0
M  V30 10181 O 955.525 -2.10334 -1.39699 0
M  V30 10182 C 956.838 -2.38886 1.82631 0
M  V30 10183 C 958.386 -2.52595 1.84838 0
M  V30 10184 C 958.861 -3.55054 2.89311 0
M  V30 10185 N 960.352 -3.6257 2.88266 0
M  V30 10186 C 961.087 -4.41603 3.65752 0
M  V30 10187 N 960.583 -5.24162 4.53019 0
M  V30 10188 N 962.376 -4.36464 3.54197 0
M  V30 10189 H 954.527 -0.823355 1.95792 0
M  V30 10190 H 956.79 -0.42432 0.847736 0
M  V30 10191 H 956.496 -2.08075 2.83545 0
M  V30 10192 H 956.37 -3.38371 1.66687 0
M  V30 10193 H 958.757 -2.82717 0.845888 0
M  V30 10194 H 958.838 -1.53188 2.04859 0
M  V30 10195 H 958.482 -3.2567 3.89745 0
M  V30 10196 H 958.412 -4.54162 2.66542 0
M  V30 10197 H 960.903 -3.03625 2.24989 0
M  V30 10198 H 961.216 -5.81646 5.0883 0
M  V30 10199 H 959.561 -5.23547 4.57081 0
M  V30 10200 H 962.752 -3.7102 2.85416 0
M  V30 10201 H 962.925 -4.97814 4.14832 0
M  V30 10202 N 956.331 -0.831506 -1.3388 0
M  V30 10203 C 957.577 -0.424302 -1.98312 0
M  V30 10204 C 957.91 1.01211 -1.65741 0
M  V30 10205 O 957.185 1.70636 -0.933464 0
M  V30 10206 C 957.468 -0.636815 -3.54424 0
M  V30 10207 C 957.321 -2.11997 -3.96708 0
M  V30 10208 C 958.64 -0.0782411 -4.4003 0
M  V30 10209 H 955.759 -0.155637 -0.720379 0
M  V30 10210 H 958.401 -1.04566 -1.58638 0
M  V30 10211 H 956.551 -0.107907 -3.8835 0
M  V30 10212 H 958.223 -2.71317 -3.73075 0
M  V30 10213 H 956.466 -2.60723 -3.46707 0
M  V30 10214 H 957.137 -2.21944 -5.05416 0
M  V30 10215 H 959.613 -0.530243 -4.12708 0
M  V30 10216 H 958.489 -0.256676 -5.483 0
M  V30 10217 H 958.75 1.01745 -4.30233 0
M  V30 10218 N 957.809 1.4625 -0.587256 0
M  V30 10219 C 959.034 2.07252 -0.0784517 0
M  V30 10220 C 959.459 1.43239 1.21919 0
M  V30 10221 O 958.817 0.517791 1.73749 0
M  V30 10222 C 958.865 3.60534 0.0691037 0
M  V30 10223 O 957.969 3.96773 1.12448 0
M  V30 10224 H 957.31 0.660825 -0.064859 0
M  V30 10225 H 959.84 1.87819 -0.811491 0
M  V30 10226 H 959.85 4.0708 0.273826 0
M  V30 10227 H 958.525 4.06516 -0.878514 0
M  V30 10228 H 957.102 3.6193 0.897852 0
M  V30 10229 N 959.287 0.325282 1.54207 0
M  V30 10230 C 960.512 -0.281418 2.05482 0
M  V30 10231 C 960.937 -1.44869 1.19977 0
M  V30 10232 O 960.295 -1.80088 0.209275 0
M  V30 10233 C 960.343 -0.692029 3.53897 0
M  V30 10234 O 959.447 -1.7942 3.71325 0
M  V30 10235 H 958.788 -0.0504872 0.662078 0
M  V30 10236 H 961.318 0.474191 1.99029 0
M  V30 10237 H 961.328 -0.974219 3.96198 0
M  V30 10238 H 960.003 0.161709 4.15586 0
M  V30 10239 H 958.58 -1.51069 3.40929 0
M  V30 10240 N 960.765 -1.57509 0.0534917 0
M  V30 10241 C 962.011 -1.93068 -0.62069 0
M  V30 10242 C 962.344 -0.932313 -1.70357 0
M  V30 10243 O 961.619 0.0413393 -1.94456 0
M  V30 10244 C 961.902 -3.38997 -1.21463 0
M  V30 10245 C 961.755 -4.49583 -0.13965 0
M  V30 10246 C 963.074 -3.85366 -2.12558 0
M  V30 10247 H 960.193 -0.702083 -0.224163 0
M  V30 10248 H 962.835 -1.89647 0.115729 0
M  V30 10249 H 960.985 -3.42043 -1.84226 0
M  V30 10250 H 962.657 -4.58664 0.492411 0
M  V30 10251 H 960.9 -4.30525 0.532006 0
M  V30 10252 H 961.571 -5.48781 -0.595287 0
M  V30 10253 H 964.047 -3.8421 -1.59755 0
M  V30 10254 H 962.923 -4.8812 -2.51058 0
M  V30 10255 H 963.184 -3.22256 -3.02661 0
M  V30 10256 N 962.243 0.219913 -1.56058 0
M  V30 10257 C 963.473 0.959521 -1.82967 0
M  V30 10258 C 963.881 1.78382 -0.630602 0
M  V30 10259 O 963.224 1.79062 0.410203 0
M  V30 10260 C 963.286 1.92481 -3.0363 0
M  V30 10261 C 962.95 1.28487 -4.38566 0
M  V30 10262 C 963.947 0.673946 -5.15513 0
M  V30 10263 C 961.632 1.29615 -4.85289 0
M  V30 10264 C 963.626 0.0828324 -6.37346 0
M  V30 10265 C 961.313 0.701191 -6.07064 0
M  V30 10266 C 962.311 0.0955877 -6.82933 0
M  V30 10267 O 961.999 -0.490109 -8.02405 0
M  V30 10268 H 961.731 0.286709 -0.612188 0
M  V30 10269 H 964.285 0.239761 -2.03996 0
M  V30 10270 H 962.515 2.6836 -2.78424 0
M  V30 10271 H 964.204 2.5301 -3.17397 0
M  V30 10272 H 964.97 0.657548 -4.80522 0
M  V30 10273 H 960.849 1.75691 -4.26208 0
M  V30 10274 H 964.393 -0.390482 -6.96506 0
M  V30 10275 H 960.29 0.715007 -6.41528 0
M  V30 10276 H 961.058 -0.384588 -8.17596 0
M  V30 10277 N 963.721 1.49897 0.486681 0
M  V30 10278 C 964.946 1.64106 1.26823 0
M  V30 10279 C 965.371 0.317967 1.85393 0
M  V30 10280 O 964.729 -0.71626 1.66551 0
M  V30 10281 C 964.777 2.72301 2.36399 0
M  V30 10282 O 963.881 2.32469 3.40634 0
M  V30 10283 H 963.222 0.548794 0.373793 0
M  V30 10284 H 965.752 1.96177 0.581017 0
M  V30 10285 H 965.762 2.94906 2.81948 0
M  V30 10286 H 964.437 3.68335 1.93137 0
M  V30 10287 H 963.014 2.20251 3.00905 0
M  V30 10288 N 965.199 -0.738761 1.39212 0
M  V30 10289 C 966.149 -1.84376 1.34125 0
M  V30 10290 C 967.133 -1.5935 0.222793 0
M  V30 10291 O 968.325 -1.70918 0.460014 0
M  V30 10292 C 965.454 -3.22261 1.18334 0
M  V30 10293 C 964.54 -3.53129 2.34864 0
M  V30 10294 N 964.931 -3.54957 3.60332 0
M  V30 10295 C 963.229 -3.83472 2.27739 0
M  V30 10296 C 963.93 -3.83513 4.3737 0
M  V30 10297 N 962.906 -4.01097 3.66909 0
M  V30 10298 H 966.708 -1.84089 2.29104 0
M  V30 10299 H 964.222 -0.936826 1.32655 0
M  V30 10300 H 966.219 -4.01358 1.12772 0
M  V30 10301 H 964.879 -3.23789 0.243016 0
M  V30 10302 H 965.89 -3.36359 3.93806 0
M  V30 10303 H 962.567 -3.92628 1.41949 0
M  V30 10304 H 963.957 -3.91427 5.46109 0
M  V30 10305 N 966.677 -1.24326 -0.968545 0
M  V30 10306 C 967.924 -1.08245 -1.71141 0
M  V30 10307 C 968.252 0.378842 -1.90775 0
M  V30 10308 O 967.507 1.29634 -1.46607 0
M  V30 10309 C 967.806 -1.76644 -3.10695 0
M  V30 10310 C 967.472 -3.26572 -3.10905 0
M  V30 10311 C 966.134 -3.67475 -3.10669 0
M  V30 10312 C 968.486 -4.22422 -3.05302 0
M  V30 10313 C 965.814 -5.02666 -3.02562 0
M  V30 10314 C 968.166 -5.57619 -2.98737 0
M  V30 10315 C 966.83 -5.9787 -2.9683 0
M  V30 10316 H 966.1 -0.396098 -0.626249 0
M  V30 10317 H 968.747 -1.54418 -1.13258 0
M  V30 10318 H 967.052 -1.22864 -3.72037 0
M  V30 10319 H 968.749 -1.61668 -3.66967 0
M  V30 10320 H 965.339 -2.94017 -3.11852 0
M  V30 10321 H 969.523 -3.91821 -3.04614 0
M  V30 10322 H 964.779 -5.3305 -2.99446 0
M  V30 10323 H 968.953 -6.31595 -2.93361 0
M  V30 10324 H 966.58 -7.02587 -2.90303 0
M  V30 10325 N 968.156 1.1691 -1.05688 0
M  V30 10326 C 969.106 2.19056 -0.632339 0
M  V30 10327 C 970.09 1.574 0.333797 0
M  V30 10328 O 971.282 1.76361 0.150223 0
M  V30 10329 C 968.411 3.43297 -0.0138209 0
M  V30 10330 C 967.497 4.12042 -1.00408 0
M  V30 10331 N 967.888 4.56535 -2.17737 0
M  V30 10332 C 966.186 4.38139 -0.833663 0
M  V30 10333 C 966.887 5.09644 -2.80425 0
M  V30 10334 N 965.863 5.02153 -2.08191 0
M  V30 10335 H 969.665 2.51165 -1.52621 0
M  V30 10336 H 967.179 1.33294 -0.927707 0
M  V30 10337 H 969.176 4.1576 0.308117 0
M  V30 10338 H 967.836 3.12677 0.87538 0
M  V30 10339 H 968.847 4.50463 -2.55546 0
M  V30 10340 H 965.524 4.175 0.00406684 0
M  V30 10341 H 966.914 5.54153 -3.79952 0
M  V30 10342 N 969.634 0.838594 1.33437 0
M  V30 10343 C 971.045 0.490934 1.8013 0
M  V30 10344 C 971.396 -0.990024 1.6939 0
M  V30 10345 O 970.521 -1.77139 1.24302 0
M  V30 10346 C 971.116 0.884347 3.27055 0
M  V30 10347 C 969.675 0.588829 3.71766 0
M  V30 10348 C 968.822 1.09282 2.54858 0
M  V30 10349 H 971.773 1.02732 1.20962 0
M  V30 10350 H 971.794 0.194283 3.80004 0
M  V30 10351 H 971.306 1.96225 3.34839 0
M  V30 10352 H 969.407 -0.479018 3.69508 0
M  V30 10353 H 969.52 1.14387 4.65245 0
M  V30 10354 H 967.884 0.513702 2.49466 0
M  V30 10355 H 968.667 2.1775 2.65405 0
M  V30 10356 N 971.112 -1.45937 0.595003 0
M  V30 10357 C 972.337 -2.07207 0.0894416 0
M  V30 10358 C 972.762 -1.43884 -1.21157 0
M  V30 10359 O 972.12 -0.526998 -1.73472 0
M  V30 10360 C 972.168 -3.60565 -0.0499828 0
M  V30 10361 O 971.272 -3.97364 -1.10342 0
M  V30 10362 H 970.613 -0.660471 0.0683627 0
M  V30 10363 H 973.143 -1.87386 0.82144 0
M  V30 10364 H 973.153 -4.0722 -0.252234 0
M  V30 10365 H 971.828 -4.06044 0.90006 0
M  V30 10366 H 970.405 -3.62401 -0.878645 0
M  V30 10367 N 972.59 -0.333456 -1.54032 0
M  V30 10368 C 973.836 0.266527 -2.01041 0
M  V30 10369 C 974.169 1.51006 -1.2211 0
M  V30 10370 O 973.444 1.92078 -0.306016 0
M  V30 10371 C 973.727 0.59078 -3.55221 0
M  V30 10372 C 973.58 -0.664143 -4.4487 0
M  V30 10373 C 974.899 1.40447 -4.17088 0
M  V30 10374 H 972.018 0.0953979 -0.7308 0
M  V30 10375 H 974.66 -0.451995 -1.84545 0
M  V30 10376 H 972.81 1.20292 -3.69408 0
M  V30 10377 H 974.482 -1.30227 -4.42537 0
M  V30 10378 H 972.725 -1.29106 -4.14143 0
M  V30 10379 H 973.396 -0.392664 -5.50602 0
M  V30 10380 H 975.872 0.886946 -4.06537 0
M  V30 10381 H 974.748 1.6001 -5.2506 0
M  V30 10382 H 975.009 2.40357 -3.71054 0
M  V30 10383 N 974.068 1.57479 -0.061844 0
M  V30 10384 C 974.998 2.15181 0.9066 0
M  V30 10385 C 975.979 1.07624 1.31724 0
M  V30 10386 O 977.164 1.35614 1.39006 0
M  V30 10387 C 974.294 2.70542 2.17771 0
M  V30 10388 C 973.248 3.83178 1.9068 0
M  V30 10389 C 972.574 4.25099 3.24337 0
M  V30 10390 C 973.874 5.07853 1.21994 0
M  V30 10391 H 975.568 2.96355 0.42594 0
M  V30 10392 H 973.114 1.42556 0.203435 0
M  V30 10393 H 975.067 3.09552 2.85929 0
M  V30 10394 H 973.791 1.86575 2.68062 0
M  V30 10395 H 972.45 3.44656 1.24931 0
M  V30 10396 H 972.098 3.38069 3.72449 0
M  V30 10397 H 971.798 5.01021 3.07005 0
M  V30 10398 H 973.322 4.66718 3.93709 0
M  V30 10399 H 974.736 5.44242 1.80204 0
M  V30 10400 H 973.133 5.88987 1.14954 0
M  V30 10401 H 974.203 4.84497 0.197536 0
M  V30 10402 N 975.546 -0.211634 1.56173 0
M  V30 10403 C 976.962 -0.56177 1.49386 0
M  V30 10404 C 977.162 -1.86666 0.758813 0
M  V30 10405 O 976.218 -2.50681 0.302534 0
M  V30 10406 C 977.531 -0.631815 2.93987 0
M  V30 10407 C 979.079 -0.721773 3.04564 0
M  V30 10408 C 979.554 -0.823075 4.50544 0
M  V30 10409 N 981.045 -0.887038 4.54627 0
M  V30 10410 C 981.78 -0.985304 5.64871 0
M  V30 10411 N 981.276 -1.0469 6.84844 0
M  V30 10412 N 983.069 -1.02121 5.52746 0
M  V30 10413 H 975.22 0.64452 2.02385 0
M  V30 10414 H 977.483 0.227466 0.920306 0
M  V30 10415 H 977.189 0.257592 3.50755 0
M  V30 10416 H 977.063 -1.4921 3.46433 0
M  V30 10417 H 979.45 -1.60162 2.47855 0
M  V30 10418 H 979.531 0.164385 2.55271 0
M  V30 10419 H 979.175 0.0523511 5.07873 0
M  V30 10420 H 979.105 -1.72479 4.97552 0
M  V30 10421 H 981.596 -0.849352 3.68231 0
M  V30 10422 H 981.909 -1.12193 7.64613 0
M  V30 10423 H 980.254 -1.01586 6.87536 0
M  V30 10424 H 983.445 -0.969814 4.57943 0
M  V30 10425 H 983.618 -1.09434 6.38693 0
M  V30 10426 N 977.024 -1.50153 -0.478725 0
M  V30 10427 C 977.987 -1.67916 -1.56003 0
M  V30 10428 C 978.987 -0.550111 -1.51097 0
M  V30 10429 O 980.177 -0.817001 -1.53853 0
M  V30 10430 C 977.309 -1.6973 -2.95643 0
M  V30 10431 H 978.502 -2.6438 -1.41573 0
M  V30 10432 H 976.055 -1.39519 -0.704565 0
M  V30 10433 H 976.79 -0.749306 -3.15525 0
M  V30 10434 H 976.575 -2.51745 -3.00611 0
M  V30 10435 H 978.065 -1.85453 -3.74162 0
M  V30 10436 N 978.502 0.731368 -1.39602 0
M  V30 10437 C 979.432 1.85855 -1.41351 0
M  V30 10438 C 980.413 1.67839 -0.2764 0
M  V30 10439 O 981.598 1.88104 -0.482747 0
M  V30 10440 C 978.728 3.23644 -1.25983 0
M  V30 10441 C 977.682 3.56304 -2.37132 0
M  V30 10442 C 977.008 4.93069 -2.0685 0
M  V30 10443 C 978.308 3.58906 -3.79452 0
M  V30 10444 H 980.002 1.84648 -2.3568 0
M  V30 10445 H 977.548 0.886955 -1.13442 0
M  V30 10446 H 979.501 4.02176 -1.25826 0
M  V30 10447 H 978.225 3.25387 -0.281234 0
M  V30 10448 H 976.884 2.80104 -2.36511 0
M  V30 10449 H 976.532 4.91396 -1.0742 0
M  V30 10450 H 976.232 5.15888 -2.81306 0
M  V30 10451 H 977.756 5.73953 -2.0835 0
M  V30 10452 H 979.17 4.27508 -3.81982 0
M  V30 10453 H 977.567 3.93246 -4.53297 0
M  V30 10454 H 978.637 2.58631 -4.10168 0
M  V30 10455 N 979.98 1.24838 0.961938 0
M  V30 10456 C 980.912 1.00369 2.06055 0
M  V30 10457 C 981.925 -0.0288583 1.62774 0
M  V30 10458 O 983.114 0.208853 1.77274 0
M  V30 10459 C 980.214 0.493953 3.35281 0
M  V30 10460 C 979.387 1.59097 4.07439 0
M  V30 10461 C 978.446 1.08288 5.14937 0
M  V30 10462 O 977.472 1.77577 5.40791 0
M  V30 10463 N 978.674 -0.0796836 5.80445 0
M  V30 10464 H 981.439 1.94962 2.27618 0
M  V30 10465 H 979 1.15945 1.12997 0
M  V30 10466 H 980.992 0.138675 4.04462 0
M  V30 10467 H 979.562 -0.357851 3.10545 0
M  V30 10468 H 978.782 2.11817 3.32456 0
M  V30 10469 H 980.07 2.32817 4.52409 0
M  V30 10470 H 979.468 -0.658827 5.6185 0
M  V30 10471 H 978.025 -0.376057 6.50714 0
M  V30 10472 N 981.458 -1.16348 1.06306 0
M  V30 10473 C 982.874 -1.38873 0.786543 0
M  V30 10474 C 983.074 -1.91915 -0.614061 0
M  V30 10475 O 982.13 -2.11804 -1.3746 0
M  V30 10476 C 983.443 -2.36936 1.85154 0
M  V30 10477 C 984.991 -2.5062 1.87506 0
M  V30 10478 C 985.466 -3.51965 2.9306 0
M  V30 10479 N 986.957 -3.59492 2.92095 0
M  V30 10480 C 987.692 -4.37699 3.70415 0
M  V30 10481 N 987.188 -5.19327 4.58553 0
M  V30 10482 N 988.981 -4.32683 3.58806 0
M  V30 10483 H 981.132 -0.802542 1.96655 0
M  V30 10484 H 983.395 -0.415304 0.852189 0
M  V30 10485 H 983.101 -2.05056 2.85736 0
M  V30 10486 H 982.975 -3.36585 1.70267 0
M  V30 10487 H 985.362 -2.81804 0.875827 0
M  V30 10488 H 985.443 -1.51006 2.06472 0
M  V30 10489 H 985.087 -3.21518 3.93177 0
M  V30 10490 H 985.017 -4.51309 2.71344 0
M  V30 10491 H 987.508 -3.01222 2.28197 0
M  V30 10492 H 987.821 -5.76216 5.1497 0
M  V30 10493 H 986.166 -5.1867 4.62608 0
M  V30 10494 H 989.357 -3.67971 2.89335 0
M  V30 10495 H 989.53 -4.93386 4.20088 0
M  V30 10496 N 982.937 -0.845659 -1.3299 0
M  V30 10497 C 983.867 -0.298957 -2.31578 0
M  V30 10498 C 984.848 0.597012 -1.59279 0
M  V30 10499 O 986.033 0.519142 -1.87132 0
M  V30 10500 C 983.163 0.521109 -3.43368 0
M  V30 10501 C 982.117 -0.279651 -4.27085 0
M  V30 10502 C 981.443 0.664591 -5.30554 0
M  V30 10503 C 982.743 -1.50046 -5.00283 0
M  V30 10504 H 984.437 -1.12272 -2.77552 0
M  V30 10505 H 981.983 -0.54132 -1.33438 0
M  V30 10506 H 983.936 0.913921 -4.1137 0
M  V30 10507 H 982.66 1.37815 -2.96099 0
M  V30 10508 H 981.319 -0.654106 -3.60717 0
M  V30 10509 H 980.967 1.51822 -4.79541 0
M  V30 10510 H 980.667 0.132871 -5.8745 0
M  V30 10511 H 982.191 1.05477 -6.01421 0
M  V30 10512 H 983.605 -1.18044 -5.61016 0
M  V30 10513 H 982.002 -1.96946 -5.66862 0
M  V30 10514 H 983.072 -2.26659 -4.28665 0
M  V30 10515 N 984.415 1.45619 -0.602734 0
M  V30 10516 C 985.661 2.02572 -0.0961759 0
M  V30 10517 C 985.994 1.47076 1.26815 0
M  V30 10518 O 985.269 0.643566 1.83544 0
M  V30 10519 C 985.552 3.60062 -0.0520032 0
M  V30 10520 C 985.405 4.25901 -1.44665 0
M  V30 10521 C 986.724 4.35446 0.638342 0
M  V30 10522 H 983.843 0.736099 -0.0364238 0
M  V30 10523 H 986.485 1.7353 -0.773776 0
M  V30 10524 H 984.635 3.84936 0.525032 0
M  V30 10525 H 986.307 4.12228 -2.0704 0
M  V30 10526 H 984.55 3.84489 -2.00874 0
M  V30 10527 H 985.221 5.34779 -1.36803 0
M  V30 10528 H 987.697 4.15837 0.147926 0
M  V30 10529 H 986.573 5.45176 0.63834 0
M  V30 10530 H 986.834 4.07962 1.70351 0
M  V30 10531 N 985.893 0.34162 1.53853 0
M  V30 10532 C 986.84 -0.516058 2.24957 0
M  V30 10533 C 987.81 -1.09711 1.2471 0
M  V30 10534 O 988.995 -1.13409 1.53438 0
M  V30 10535 C 986.135 -1.66207 3.02439 0
M  V30 10536 C 985.248 -1.10851 4.17536 0
M  V30 10537 C 984.383 -2.22167 4.82509 0
M  V30 10538 C 983.422 -1.64152 5.89678 0
M  V30 10539 N 982.559 -2.69203 6.4844 0
M  V30 10540 H 987.399 0.0968275 2.97843 0
M  V30 10541 H 984.936 0.0595565 1.46979 0
M  V30 10542 H 986.894 -2.33672 3.4562 0
M  V30 10543 H 985.524 -2.24597 2.31853 0
M  V30 10544 H 984.576 -0.324853 3.7901 0
M  V30 10545 H 985.888 -0.644151 4.94623 0
M  V30 10546 H 985.042 -2.97501 5.28751 0
M  V30 10547 H 983.781 -2.71946 4.04842 0
M  V30 10548 H 982.786 -0.873228 5.42821 0
M  V30 10549 H 984.011 -1.15228 6.69253 0
M  V30 10550 H 981.957 -3.1824 5.73637 0
M  V30 10551 H 981.874 -2.27383 7.20994 0
M  V30 10552 H 983.142 -3.44312 6.99335 0
M  V30 10553 N 987.371 -1.57444 0.0701946 0
M  V30 10554 C 988.648 -1.84826 -0.6402 0
M  V30 10555 C 989.028 -0.962344 -1.87889 0
M  V30 10556 O 988.376 -0.0282209 -2.28483 0
M  V30 10557 C 988.586 -3.34976 -0.979382 0
M  V30 10558 C 989.934 -4.02448 -1.35355 0
M  V30 10559 O 990.958 -3.39713 -1.07116 0
M  V30 10560 O 989.817 -5.13096 -1.88136 0
M  V30 10561 H 986.911 -0.763494 -0.317813 0
M  V30 10562 H 989.457 -1.69399 0.101004 0
M  V30 10563 H 988.229 -3.91173 -0.0995576 0
M  V30 10564 H 987.852 -3.5566 -1.7774 0
M  V30 10565 N 988.849 0.203349 -1.56283 0
M  V30 10566 C 990.089 0.931871 -1.81922 0
M  V30 10567 C 990.453 1.8079 -0.646459 0
M  V30 10568 O 991.654 2.57157 -0.782556 0
M  V30 10569 C 989.925 1.73347 -3.12547 0
M  V30 10570 S 991.484 2.51514 -3.59564 0
M  V30 10571 H 988.302 0.312706 -0.638542 0
M  V30 10572 H 990.904 0.195931 -1.94516 0
M  V30 10573 H 989.608 1.08038 -3.95924 0
M  V30 10574 H 989.139 2.51138 -3.02809 0
M  V30 10575 H 991.154 3.7552 -3.24345 0
M  V30 10576 N 990.327 1.50405 0.470755 0
M  V30 10577 C 991.277 1.65681 1.56633 0
M  V30 10578 C 992.261 0.511424 1.52556 0
M  V30 10579 O 993.453 0.765844 1.59574 0
M  V30 10580 C 990.582 1.7546 2.95074 0
M  V30 10581 C 989.668 2.95676 3.04034 0
M  V30 10582 N 990.059 4.1935 2.82807 0
M  V30 10583 C 988.357 2.94241 3.35169 0
M  V30 10584 C 989.058 5.0032 2.96741 0
M  V30 10585 N 988.034 4.34282 3.26956 0
M  V30 10586 H 991.836 2.58994 1.38922 0
M  V30 10587 H 989.35 1.47593 0.67749 0
M  V30 10588 H 991.347 1.84508 3.73848 0
M  V30 10589 H 990.007 0.833057 3.13832 0
M  V30 10590 H 991.018 4.48842 2.58382 0
M  V30 10591 H 987.695 2.11587 3.59913 0
M  V30 10592 H 989.085 6.08664 2.84566 0
M  V30 10593 N 991.805 -0.723954 1.39988 0
M  V30 10594 C 992.752 -1.83803 1.39589 0
M  V30 10595 C 993.722 -1.64146 0.253996 0
M  V30 10596 O 994.907 -1.85398 0.450793 0
M  V30 10597 C 992.047 -3.21431 1.25604 0
M  V30 10598 C 991.16 -3.52717 2.49429 0
M  V30 10599 C 990.295 -4.79805 2.27949 0
M  V30 10600 C 989.334 -5.03968 3.47394 0
M  V30 10601 N 988.471 -6.22266 3.25161 0
M  V30 10602 H 993.311 -1.83479 2.34818 0
M  V30 10603 H 990.848 -0.896396 1.16633 0
M  V30 10604 H 992.806 -4.00892 1.15504 0
M  V30 10605 H 991.436 -3.21005 0.339986 0
M  V30 10606 H 990.488 -2.67872 2.7009 0
M  V30 10607 H 991.8 -3.66486 3.38363 0
M  V30 10608 H 990.954 -5.67268 2.15155 0
M  V30 10609 H 989.693 -4.68229 1.36428 0
M  V30 10610 H 988.698 -4.14963 3.60674 0
M  V30 10611 H 989.923 -5.17422 4.39831 0
M  V30 10612 H 987.869 -6.11957 2.36314 0
M  V30 10613 H 987.786 -6.36673 4.07656 0
M  V30 10614 H 989.054 -7.12539 3.16083 0
M  V30 10615 N 993.283 -1.25346 -0.955304 0
M  V30 10616 C 994.513 -1.12629 -1.732 0
M  V30 10617 C 994.921 0.322748 -1.86427 0
M  V30 10618 O 994.264 1.23381 -1.36099 0
M  V30 10619 C 994.326 -1.7064 -3.16421 0
M  V30 10620 C 993.99 -3.19632 -3.26626 0
M  V30 10621 C 994.987 -4.1663 -3.10991 0
M  V30 10622 C 992.672 -3.59829 -3.50468 0
M  V30 10623 C 994.666 -5.51806 -3.19043 0
M  V30 10624 C 992.353 -4.95143 -3.58157 0
M  V30 10625 C 993.351 -5.90941 -3.42459 0
M  V30 10626 O 993.039 -7.23792 -3.49828 0
M  V30 10627 H 992.771 -0.393646 -0.549562 0
M  V30 10628 H 995.325 -1.66184 -1.20715 0
M  V30 10629 H 993.555 -1.11532 -3.70267 0
M  V30 10630 H 995.244 -1.53032 -3.75947 0
M  V30 10631 H 996.01 -3.86915 -2.92441 0
M  V30 10632 H 991.889 -2.8576 -3.61749 0
M  V30 10633 H 995.433 -6.26559 -3.06707 0
M  V30 10634 H 991.33 -5.24525 -3.76224 0
M  V30 10635 H 992.098 -7.31879 -3.66463 0
M  V30 10636 N 994.761 1.15782 -1.06922 0
M  V30 10637 C 995.671 2.24008 -0.696948 0
M  V30 10638 C 996.687 1.71569 0.289862 0
M  V30 10639 O 997.863 2.00929 0.137585 0
M  V30 10640 C 994.928 3.46568 -0.0957895 0
M  V30 10641 C 993.989 4.14017 -1.13528 0
M  V30 10642 C 993.222 5.30725 -0.562713 0
M  V30 10643 O 993.445 5.66992 0.62259 0
M  V30 10644 O 992.379 5.87572 -1.30549 0
M  V30 10645 H 996.205 2.58174 -1.59938 0
M  V30 10646 H 993.79 1.2342 -0.841889 0
M  V30 10647 H 995.672 4.20731 0.237407 0
M  V30 10648 H 994.347 3.14161 0.780027 0
M  V30 10649 H 993.254 3.41795 -1.52076 0
M  V30 10650 H 994.587 4.50493 -1.98285 0
M  V30 10651 N 996.239 0.8527 1.3254 0
M  V30 10652 C 997.186 0.293905 2.28921 0
M  V30 10653 C 998.156 -0.598027 1.54961 0
M  V30 10654 O 999.341 -0.533355 1.83194 0
M  V30 10655 C 996.481 -0.513361 3.4126 0
M  V30 10656 C 995.594 0.404144 4.30105 0
M  V30 10657 C 994.729 -0.415564 5.29572 0
M  V30 10658 C 993.768 0.499461 6.10059 0
M  V30 10659 N 992.905 -0.282949 7.0153 0
M  V30 10660 H 997.745 1.12107 2.76109 0
M  V30 10661 H 995.282 0.564272 1.35847 0
M  V30 10662 H 997.24 -0.997008 4.05112 0
M  V30 10663 H 995.87 -1.30537 2.95229 0
M  V30 10664 H 994.922 1.00617 3.66852 0
M  V30 10665 H 996.234 1.10648 4.86373 0
M  V30 10666 H 995.388 -0.962458 5.99017 0
M  V30 10667 H 994.127 -1.15127 4.73917 0
M  V30 10668 H 993.132 1.05825 5.39519 0
M  V30 10669 H 994.357 1.23375 6.67799 0
M  V30 10670 H 992.303 -1.00179 6.48306 0
M  V30 10671 H 992.22 0.36039 7.55141 0
M  V30 10672 H 993.488 -0.811632 7.75263 0
M  V30 10673 N 997.718 -1.45297 0.610449 0
M  V30 10674 C 999.129 -1.85715 0.191488 0
M  V30 10675 C 999.48 -1.51036 -1.25229 0
M  V30 10676 O 998.605 -0.938422 -1.94994 0
M  V30 10677 C 999.2 -3.37082 0.340747 0
M  V30 10678 C 997.759 -3.76393 -0.0235433 0
M  V30 10679 C 996.906 -2.69237 0.663849 0
M  V30 10680 H 999.857 -1.36058 0.816948 0
M  V30 10681 H 999.878 -3.78105 -0.426233 0
M  V30 10682 H 999.39 -3.62291 1.39164 0
M  V30 10683 H 997.491 -3.56801 -1.07351 0
M  V30 10684 H 997.604 -4.77653 0.372102 0
M  V30 10685 H 995.968 -2.54499 0.101204 0
M  V30 10686 H 996.751 -2.97281 1.71694 0
M  V30 10687 N 999.196 -0.349774 -1.5367 0
M  V30 10688 C 1000.44 0.245189 -2.01312 0
M  V30 10689 C 1000.77 1.49702 -1.23705 0
M  V30 10690 O 1000.05 1.91742 -0.326371 0
M  V30 10691 C 1000.33 0.553071 -3.55827 0
M  V30 10692 C 1000.19 -0.71129 -4.4414 0
M  V30 10693 C 1001.5 1.36015 -4.18555 0
M  V30 10694 H 998.624 0.0876415 -0.73177 0
M  V30 10695 H 1001.27 -0.471543 -1.84056 0
M  V30 10696 H 999.416 1.16367 -3.70663 0
M  V30 10697 H 1001.09 -1.34913 -4.41131 0
M  V30 10698 H 999.331 -1.33491 -4.1275 0
M  V30 10699 H 1000 -0.45104 -5.50154 0
M  V30 10700 H 1002.48 0.843778 -4.07455 0
M  V30 10701 H 1001.35 1.54432 -5.26728 0
M  V30 10702 H 1001.61 2.36408 -3.73582 0
M  V30 10703 N 1000.67 1.57404 -0.0785433 0
M  V30 10704 C 1001.9 1.98492 0.601292 0
M  V30 10705 C 1002.32 0.956832 1.61945 0
M  V30 10706 O 1001.68 -0.0767502 1.81137 0
M  V30 10707 C 1001.73 3.38596 1.24036 0
M  V30 10708 O 1000.83 3.38461 2.35622 0
M  V30 10709 H 1000.17 0.645882 0.154054 0
M  V30 10710 H 1002.7 2.04012 -0.155056 0
M  V30 10711 H 1002.71 3.75929 1.5856 0
M  V30 10712 H 1001.39 4.12952 0.494341 0
M  V30 10713 H 999.967 3.12906 2.02841 0
M  V30 10714 N 1002.15 -0.195058 1.56388 0
M  V30 10715 C 1003.4 -0.913626 1.79821 0
M  V30 10716 C 1003.71 -1.84422 0.651767 0
M  V30 10717 O 1004.92 -2.6034 0.770402 0
M  V30 10718 C 1003.38 -1.67497 3.18548 0
M  V30 10719 C 1002.98 -0.789205 4.40994 0
M  V30 10720 C 1004.73 -2.38318 3.5129 0
M  V30 10721 C 1002.63 -1.54942 5.70742 0
M  V30 10722 H 1001.56 -0.344891 0.670497 0
M  V30 10723 H 1004.22 -0.166912 1.82739 0
M  V30 10724 H 1002.6 -2.46557 3.0988 0
M  V30 10725 H 1003.77 -0.0372595 4.60785 0
M  V30 10726 H 1002.09 -0.191834 4.15958 0
M  V30 10727 H 1004.68 -2.95745 4.45465 0
M  V30 10728 H 1005.03 -3.12507 2.75037 0
M  V30 10729 H 1005.56 -1.66224 3.61406 0
M  V30 10730 H 1002.3 -0.85031 6.49962 0
M  V30 10731 H 1001.82 -2.2753 5.54969 0
M  V30 10732 H 1003.5 -2.1032 6.11861 0
M  V30 10733 N 1003.63 -1.50653 -0.462772 0
M  V30 10734 C 1004.87 -1.637 -1.22399 0
M  V30 10735 C 1005.23 -0.333847 -1.89075 0
M  V30 10736 O 1006.43 -0.339837 -2.66643 0
M  V30 10737 C 1004.71 -2.79018 -2.23347 0
M  V30 10738 S 1006.26 -3.12248 -3.08296 0
M  V30 10739 H 1003.08 -0.576998 -0.415444 0
M  V30 10740 H 1005.68 -1.88468 -0.519631 0
M  V30 10741 H 1004.39 -3.72174 -1.72958 0
M  V30 10742 H 1003.92 -2.56362 -2.98399 0
M  V30 10743 H 1005.93 -2.56716 -4.24631 0
M  V30 10744 N 1005.11 0.71652 -1.4037 0
M  V30 10745 C 1006.36 1.47347 -1.38324 0
M  V30 10746 C 1006.68 1.94995 0.0139949 0
M  V30 10747 O 1005.95 1.7028 0.968585 0
M  V30 10748 H 1004.53 0.546662 -0.509087 0
M  V30 10749 H 1007.19 0.849455 -1.75415 0
M  V30 10750 H 1006.29 2.34675 -2.05752 0
M  V30 10751 N 1006.59 1.25851 0.948643 0
M  V30 10752 C 1007.5 1.08516 2.07994 0
M  V30 10753 C 1008.51 0.0206696 1.73988 0
M  V30 10754 O 1009.69 0.222854 2.00163 0
M  V30 10755 C 1006.75 0.712145 3.39307 0
M  V30 10756 C 1005.81 1.85523 3.87143 0
M  V30 10757 C 1005.05 1.49992 5.1219 0
M  V30 10758 O 1005.27 0.398268 5.69008 0
M  V30 10759 O 1004.2 2.33215 5.54882 0
M  V30 10760 H 1008.03 2.03405 2.25522 0
M  V30 10761 H 1005.62 1.04844 1.06433 0
M  V30 10762 H 1007.5 0.516512 4.18223 0
M  V30 10763 H 1006.17 -0.207416 3.23035 0
M  V30 10764 H 1005.08 2.10578 3.09205 0
M  V30 10765 H 1006.41 2.75425 4.07924 0
M  V30 10766 N 1008.06 -1.15214 1.07534 0
M  V30 10767 C 1009 -2.18999 0.641461 0
M  V30 10768 C 1009.98 -1.58958 -0.342238 0
M  V30 10769 O 1011.16 -1.86859 -0.248218 0
M  V30 10770 C 1008.29 -3.38651 -0.0577939 0
M  V30 10771 C 1007.33 -4.17225 0.884641 0
M  V30 10772 S 1008.17 -4.79375 2.38663 0
M  V30 10773 C 1009.32 -6.02393 1.69923 0
M  V30 10774 H 1009.55 -2.55464 1.52071 0
M  V30 10775 H 1007.09 -1.26205 0.889481 0
M  V30 10776 H 1009.05 -4.07971 -0.454982 0
M  V30 10777 H 1007.71 -3.00526 -0.913407 0
M  V30 10778 H 1006.9 -5.02837 0.342133 0
M  V30 10779 H 1006.5 -3.53463 1.2223 0
M  V30 10780 H 1008.79 -6.69899 1.01201 0
M  V30 10781 H 1009.74 -6.61216 2.53375 0
M  V30 10782 H 1010.14 -5.52106 1.1764 0
M  V30 10783 N 1009.54 -0.859717 -1.32086 0
M  V30 10784 C 1010.51 -0.313005 -2.27053 0
M  V30 10785 C 1011.51 0.530191 -1.51808 0
M  V30 10786 O 1012.7 0.340972 -1.7083 0
M  V30 10787 C 1009.83 0.5566 -3.36325 0
M  V30 10788 H 1011.02 -1.15125 -2.76923 0
M  V30 10789 H 1008.57 -0.634463 -1.42843 0
M  V30 10790 H 1009.31 1.41645 -2.91731 0
M  V30 10791 H 1009.09 -0.0470197 -3.92072 0
M  V30 10792 H 1010.58 0.931725 -4.07073 0
M  V30 10793 N 1011.02 1.44971 -0.618145 0
M  V30 10794 C 1012.27 2.0176 -0.11725 0
M  V30 10795 C 1012.59 1.48773 1.26062 0
M  V30 10796 O 1011.86 0.686152 1.83491 0
M  V30 10797 H 1010.44 0.745909 -0.0403545 0
M  V30 10798 H 1013.1 1.77638 -0.801923 0
M  V30 10799 H 1012.2 3.1201 -0.0750477 0
M  V30 10800 N 1012.5 0.357919 1.53482 0
M  V30 10801 C 1013.78 -0.290164 1.93436 0
M  V30 10802 C 1014.16 -1.67039 1.29079 0
M  V30 10803 O 1013.5 -2.24085 0.447017 0
M  V30 10804 C 1013.71 -0.348055 3.4726 0
M  V30 10805 C 1015.06 -0.59206 4.20452 0
M  V30 10806 O 1016.09 -0.429581 3.536 0
M  V30 10807 O 1014.94 -0.907855 5.38907 0
M  V30 10808 H 1012.04 -0.172312 0.80885 0
M  V30 10809 H 1014.58 0.410144 1.64669 0
M  V30 10810 H 1013.36 0.619953 3.86358 0
M  V30 10811 H 1012.98 -1.09457 3.82237 0
M  V30 10812 N 1013.98 -1.5736 0.0868897 0
M  V30 10813 C 1015.39 -1.81356 -0.443499 0
M  V30 10814 C 1015.74 -1.00192 -1.68689 0
M  V30 10815 O 1014.86 -0.228863 -2.15186 0
M  V30 10816 C 1015.46 -3.28941 -0.811387 0
M  V30 10817 C 1014.02 -3.53729 -1.28656 0
M  V30 10818 C 1013.16 -2.75891 -0.279153 0
M  V30 10819 H 1016.12 -1.55594 0.312427 0
M  V30 10820 H 1016.14 -3.41815 -1.6716 0
M  V30 10821 H 1015.65 -3.87987 0.0937598 0
M  V30 10822 H 1013.75 -3.00005 -2.2097 0
M  V30 10823 H 1013.86 -4.62396 -1.25406 0
M  V30 10824 H 1012.23 -2.4311 -0.759595 0
M  V30 10825 H 1013.01 -3.37682 0.618529 0
M  V30 10826 N 1015.45 0.186762 -1.56489 0
M  V30 10827 C 1016.38 1.23395 -1.98232 0
M  V30 10828 C 1017.37 1.4702 -0.855526 0
M  V30 10829 O 1018.55 1.58616 -1.12048 0
M  V30 10830 C 1015.68 2.57635 -2.32898 0
M  V30 10831 C 1014.63 2.48607 -3.48394 0
M  V30 10832 C 1013.96 3.87196 -3.68759 0
M  V30 10833 C 1015.26 2.00398 -4.82325 0
M  V30 10834 H 1016.95 0.887026 -2.85958 0
M  V30 10835 H 1014.5 0.42525 -1.37578 0
M  V30 10836 H 1016.45 3.31082 -2.60696 0
M  V30 10837 H 1015.18 2.94084 -1.42064 0
M  V30 10838 H 1013.84 1.77615 -3.207 0
M  V30 10839 H 1013.48 4.21012 -2.75241 0
M  V30 10840 H 1013.18 3.82029 -4.46462 0
M  V30 10841 H 1014.71 4.62253 -3.98941 0
M  V30 10842 H 1016.12 2.6361 -5.091 0
M  V30 10843 H 1014.52 2.06214 -5.63556 0
M  V30 10844 H 1015.59 0.957562 -4.75351 0
M  V30 10845 N 1016.93 1.50896 0.454776 0
M  V30 10846 C 1018.16 1.66759 1.23313 0
M  V30 10847 C 1018.58 0.35722 1.84677 0
M  V30 10848 O 1017.94 -0.680771 1.68033 0
M  V30 10849 C 1017.99 2.77254 2.3057 0
M  V30 10850 O 1017.09 2.39642 3.35627 0
M  V30 10851 H 1016.43 0.556599 0.362068 0
M  V30 10852 H 1018.96 1.97365 0.539274 0
M  V30 10853 H 1018.97 3.0082 2.75629 0
M  V30 10854 H 1017.65 3.72349 1.85281 0
M  V30 10855 H 1016.23 2.26584 2.96165 0
M  V30 10856 N 1018.41 -0.709066 1.40748 0
M  V30 10857 C 1019.37 -1.80485 1.41272 0
M  V30 10858 C 1020.37 -1.57872 0.305463 0
M  V30 10859 O 1021.56 -1.64793 0.564691 0
M  V30 10860 C 1018.7 -3.1867 1.21087 0
M  V30 10861 H 1019.89 -1.81417 2.38805 0
M  V30 10862 H 1017.44 -0.915356 1.26692 0
M  V30 10863 H 1018.18 -3.23385 0.243406 0
M  V30 10864 H 1017.96 -3.36484 2.01299 0
M  V30 10865 H 1019.45 -3.98685 1.24257 0
M  V30 10866 N 1019.89 -1.26353 -0.941956 0
M  V30 10867 C 1021.14 -1.11241 -1.68251 0
M  V30 10868 C 1021.45 0.344055 -1.9255 0
M  V30 10869 O 1022.66 0.615832 -2.64423 0
M  V30 10870 C 1021.11 -1.94269 -3.02965 0
M  V30 10871 C 1020.72 -3.44485 -2.86415 0
M  V30 10872 C 1022.47 -1.87764 -3.80716 0
M  V30 10873 C 1020.37 -4.19763 -4.16597 0
M  V30 10874 H 1019.3 -0.412694 -0.63103 0
M  V30 10875 H 1021.95 -1.50656 -1.04762 0
M  V30 10876 H 1020.34 -1.47687 -3.6743 0
M  V30 10877 H 1021.51 -3.9883 -2.30805 0
M  V30 10878 H 1019.82 -3.52218 -2.22107 0
M  V30 10879 H 1022.42 -2.41292 -4.77161 0
M  V30 10880 H 1022.76 -0.848195 -4.07568 0
M  V30 10881 H 1023.3 -2.32165 -3.23024 0
M  V30 10882 H 1020.04 -5.23173 -3.9493 0
M  V30 10883 H 1019.56 -3.70198 -4.71925 0
M  V30 10884 H 1021.24 -4.28168 -4.85058 0
M  V30 10885 N 1021.37 1.14642 -1.08144 0
M  V30 10886 C 1022.3 2.21775 -0.730609 0
M  V30 10887 C 1023.28 1.67683 0.285702 0
M  V30 10888 O 1024.46 1.93567 0.156667 0
M  V30 10889 C 1021.59 3.47033 -0.136242 0
M  V30 10890 C 1020.55 4.14134 -1.0806 0
M  V30 10891 C 1019.87 5.33563 -0.348585 0
M  V30 10892 C 1021.17 4.62978 -2.41761 0
M  V30 10893 H 1022.87 2.51378 -1.62633 0
M  V30 10894 H 1020.41 1.20825 -0.783411 0
M  V30 10895 H 1022.37 4.21226 0.121182 0
M  V30 10896 H 1021.09 3.16786 0.7946 0
M  V30 10897 H 1019.75 3.41892 -1.32308 0
M  V30 10898 H 1019.4 4.99575 0.585974 0
M  V30 10899 H 1019.1 5.79402 -0.978122 0
M  V30 10900 H 1020.62 6.10519 -0.0991508 0
M  V30 10901 H 1022.04 5.28659 -2.21795 0
M  V30 10902 H 1020.43 5.1951 -3.00383 0
M  V30 10903 H 1021.5 3.78189 -3.03482 0
M  V30 10904 N 1022.85 0.866709 1.31628 0
M  V30 10905 C 1023.78 0.335762 2.31073 0
M  V30 10906 C 1024.76 -0.571597 1.60209 0
M  V30 10907 O 1025.94 -0.489306 1.87935 0
M  V30 10908 C 1023.07 -0.466416 3.44154 0
M  V30 10909 C 1022.03 0.347561 4.26586 0
M  V30 10910 C 1021.35 -0.5801 5.31544 0
M  V30 10911 C 1022.65 1.57986 4.97833 0
M  V30 10912 H 1024.35 1.16673 2.75731 0
M  V30 10913 H 1021.89 0.56248 1.3256 0
M  V30 10914 H 1023.84 -0.84836 4.12772 0
M  V30 10915 H 1022.57 -1.33086 2.98254 0
M  V30 10916 H 1021.23 0.71141 3.59631 0
M  V30 10917 H 1020.88 -1.44174 4.81895 0
M  V30 10918 H 1020.58 -0.0393965 5.87587 0
M  V30 10919 H 1022.1 -0.958958 6.03023 0
M  V30 10920 H 1023.51 1.26954 5.59067 0
M  V30 10921 H 1021.91 2.05939 5.63657 0
M  V30 10922 H 1022.98 2.3345 4.25005 0
M  V30 10923 N 1024.32 -1.44642 0.625825 0
M  V30 10924 C 1025.26 -2.27821 -0.131481 0
M  V30 10925 C 1026.23 -1.38224 -0.856324 0
M  V30 10926 O 1027.42 -1.67662 -0.861493 0
M  V30 10927 C 1024.55 -3.1703 -1.19204 0
M  V30 10928 C 1023.59 -4.22697 -0.568315 0
M  V30 10929 S 1024.42 -5.3169 0.637612 0
M  V30 10930 C 1025.58 -6.24468 -0.423088 0
M  V30 10931 H 1025.81 -2.91703 0.574177 0
M  V30 10932 H 1023.35 -1.4875 0.413844 0
M  V30 10933 H 1025.3 -3.6898 -1.79901 0
M  V30 10934 H 1023.97 -2.52379 -1.86986 0
M  V30 10935 H 1023.16 -4.8511 -1.36689 0
M  V30 10936 H 1022.76 -3.73983 -0.0360843 0
M  V30 10937 H 1025.05 -6.64967 -1.29713 0
M  V30 10938 H 1026 -7.07907 0.165338 0
M  V30 10939 H 1026.4 -5.59541 -0.746606 0
M  V30 10940 N 1025.8 -0.366053 -1.5329 0
M  V30 10941 C 1026.76 0.467904 -2.24373 0
M  V30 10942 C 1027.76 1.00934 -1.25176 0
M  V30 10943 O 1028.95 0.895015 -1.49449 0
M  V30 10944 C 1026.09 1.65405 -2.98084 0
M  V30 10945 H 1027.28 -0.154105 -2.99504 0
M  V30 10946 H 1024.83 -0.117751 -1.55856 0
M  V30 10947 H 1025.57 2.31413 -2.27197 0
M  V30 10948 H 1025.35 1.27277 -3.70868 0
M  V30 10949 H 1026.84 2.24503 -3.52119 0
M  V30 10950 N 1027.28 1.57312 -0.0952337 0
M  V30 10951 C 1028.21 2.09691 0.900274 0
M  V30 10952 C 1029.19 1.0075 1.27625 0
M  V30 10953 O 1030.37 1.28249 1.38147 0
M  V30 10954 C 1027.5 2.574 2.20142 0
M  V30 10955 C 1026.55 3.78 1.9753 0
M  V30 10956 S 1027.38 5.21577 1.21318 0
M  V30 10957 C 1028.54 5.72636 2.52663 0
M  V30 10958 H 1028.77 2.93803 0.45467 0
M  V30 10959 H 1026.3 1.53948 0.118056 0
M  V30 10960 H 1028.26 2.85546 2.94914 0
M  V30 10961 H 1026.92 1.73514 2.61824 0
M  V30 10962 H 1026.11 4.09451 2.93881 0
M  V30 10963 H 1025.72 3.50349 1.30888 0
M  V30 10964 H 1028.01 5.80911 3.48638 0
M  V30 10965 H 1028.95 6.71136 2.25791 0
M  V30 10966 H 1029.36 5.00569 2.60943 0
M  V30 10967 N 1028.76 -0.17846 1.56586 0
M  V30 10968 C 1030.01 -0.894464 1.81228 0
M  V30 10969 C 1030.33 -1.83089 0.671062 0
M  V30 10970 O 1029.6 -1.93439 -0.309557 0
M  V30 10971 H 1028.18 -0.333288 0.668527 0
M  V30 10972 H 1030.84 -0.179986 1.94067 0
M  V30 10973 H 1029.93 -1.47565 2.75011 0
M  V30 10974 N 1030.24 -1.51135 -0.446768 0
M  V30 10975 C 1031.48 -1.63336 -1.19698 0
M  V30 10976 C 1031.81 -0.345099 -1.91414 0
M  V30 10977 O 1031.07 0.670365 -1.8386 0
M  V30 10978 C 1031.36 -2.78034 -2.2457 0
M  V30 10979 C 1031.03 -4.17652 -1.69934 0
M  V30 10980 C 1029.69 -4.55636 -1.54756 0
M  V30 10981 C 1032.04 -5.04813 -1.29665 0
M  V30 10982 C 1029.37 -5.78496 -0.977689 0
M  V30 10983 C 1031.72 -6.28244 -0.741112 0
M  V30 10984 C 1030.39 -6.65009 -0.576156 0
M  V30 10985 H 1029.66 -0.597689 -0.438006 0
M  V30 10986 H 1032.31 -1.85141 -0.48939 0
M  V30 10987 H 1030.61 -2.50413 -3.01331 0
M  V30 10988 H 1032.31 -2.84675 -2.8242 0
M  V30 10989 H 1028.9 -3.87699 -1.82722 0
M  V30 10990 H 1033.08 -4.76081 -1.40216 0
M  V30 10991 H 1028.34 -6.05636 -0.837563 0
M  V30 10992 H 1032.51 -6.95129 -0.42053 0
M  V30 10993 H 1030.14 -7.60085 -0.132443 0
M  V30 10994 N 1031.71 0.701592 -1.41122 0
M  V30 10995 C 1032.66 1.83691 -1.4269 0
M  V30 10996 C 1033.66 1.6662 -0.305658 0
M  V30 10997 O 1034.86 1.73554 -0.477392 0
M  V30 10998 H 1031.24 0.605222 -0.44633 0
M  V30 10999 H 1033.21 1.79485 -2.38386 0
M  V30 11000 C 1031.96 3.21666 -1.32008 0
M  V30 11001 H 1031.28 3.35416 -2.17569 0
M  V30 11002 H 1032.72 4.012 -1.37165 0
M  V30 11003 C 1031.18 3.36885 -0.0317678 0
M  V30 11004 O 1031.71 3.90885 0.925836 0
M  V30 11005 N 1029.91 2.90569 0.0423401 0
M  V30 11006 H 1029.46 2.46812 -0.737673 0
M  V30 11007 H 1029.42 3.0113 0.903764 0
M  V30 11008 N 1033.19 1.2685 0.935242 0
M  V30 11009 C 1034.42 1.15538 1.71635 0
M  V30 11010 C 1034.83 -0.288698 1.8658 0
M  V30 11011 O 1034.19 -1.19721 1.37743 0
M  V30 11012 C 1034.24 1.8259 3.11999 0
M  V30 11013 O 1033.96 3.21355 2.97763 0
M  V30 11014 C 1035.46 1.77307 4.06297 0
M  V30 11015 H 1032.68 0.402055 0.537208 0
M  V30 11016 H 1035.23 1.67582 1.17203 0
M  V30 11017 H 1033.38 1.3447 3.63313 0
M  V30 11018 H 1033.8 3.54626 3.86446 0
M  V30 11019 H 1035.27 2.28851 5.02326 0
M  V30 11020 H 1035.75 0.740823 4.32907 0
M  V30 11021 H 1036.35 2.25007 3.60904 0
M  V30 11022 N 1034.67 -1.14067 1.0875 0
M  V30 11023 C 1035.6 -2.21385 0.74236 0
M  V30 11024 C 1036.58 -1.67833 -0.276805 0
M  V30 11025 O 1037.77 -1.93647 -0.1464 0
M  V30 11026 C 1034.9 -3.46956 0.154644 0
M  V30 11027 C 1033.85 -4.13555 1.10255 0
M  V30 11028 C 1033.18 -5.3337 0.376877 0
M  V30 11029 C 1034.48 -4.6169 2.44213 0
M  V30 11030 H 1036.17 -2.50512 1.63964 0
M  V30 11031 H 1033.72 -1.20408 0.789807 0
M  V30 11032 H 1035.67 -4.21284 -0.0988419 0
M  V30 11033 H 1034.39 -3.17203 -0.777789 0
M  V30 11034 H 1033.05 -3.41186 1.34119 0
M  V30 11035 H 1032.7 -4.99879 -0.559472 0
M  V30 11036 H 1032.4 -5.78875 1.00884 0
M  V30 11037 H 1033.92 -6.10458 0.131527 0
M  V30 11038 H 1035.34 -5.27475 2.24595 0
M  V30 11039 H 1033.74 -5.17909 3.03134 0
M  V30 11040 H 1034.81 -3.76574 3.05483 0
M  V30 11041 N 1036.15 -0.873678 -1.31166 0
M  V30 11042 C 1037.37 -0.500242 -2.01277 0
M  V30 11043 C 1037.8 0.900811 -1.65127 0
M  V30 11044 O 1037.16 1.59504 -0.861862 0
M  V30 11045 C 1037.2 -0.668976 -3.5434 0
M  V30 11046 O 1036.31 0.290096 -4.11378 0
M  V30 11047 H 1035.65 -0.198507 -0.633633 0
M  V30 11048 H 1038.18 -1.17811 -1.67277 0
M  V30 11049 H 1038.19 -0.563673 -4.04088 0
M  V30 11050 H 1036.86 -1.69055 -3.79991 0
M  V30 11051 H 1035.44 0.139437 -3.72639 0
M  V30 11052 N 1037.63 1.44308 -0.633487 0
M  V30 11053 C 1038.56 2.27887 0.119397 0
M  V30 11054 C 1039.54 1.38676 0.848981 0
M  V30 11055 O 1040.72 1.68116 0.85259 0
M  V30 11056 C 1037.85 3.17658 1.17521 0
M  V30 11057 C 1036.89 4.22992 0.54589 0
M  V30 11058 S 1037.73 5.31345 -0.6658 0
M  V30 11059 C 1038.88 6.24684 0.389965 0
M  V30 11060 H 1039.12 2.91394 -0.589638 0
M  V30 11061 H 1036.65 1.48529 -0.421727 0
M  V30 11062 H 1038.61 3.69929 1.77941 0
M  V30 11063 H 1037.27 2.53367 1.85645 0
M  V30 11064 H 1036.46 4.85828 1.34115 0
M  V30 11065 H 1036.06 3.73996 0.0162506 0
M  V30 11066 H 1038.36 6.65645 1.26185 0
M  V30 11067 H 1039.3 7.07809 -0.202878 0
M  V30 11068 H 1039.71 5.59929 0.716922 0
M  V30 11069 N 1039.1 0.374177 1.53094 0
M  V30 11070 C 1040.33 -0.215903 2.06273 0
M  V30 11071 C 1040.75 -1.40979 1.24526 0
M  V30 11072 O 1040.11 -1.79331 0.266462 0
M  V30 11073 C 1040.16 -0.579089 3.5592 0
M  V30 11074 O 1039.26 -1.67516 3.76845 0
M  V30 11075 H 1038.61 -0.0293981 0.663349 0
M  V30 11076 H 1041.14 0.537271 1.9742 0
M  V30 11077 H 1041.15 -0.847678 3.99097 0
M  V30 11078 H 1039.82 0.293843 4.14861 0
M  V30 11079 H 1038.4 -1.40146 3.45563 0
M  V30 11080 N 1040.58 -1.57259 0.103575 0
M  V30 11081 C 1041.81 -1.99424 -0.569638 0
M  V30 11082 C 1042.23 -0.982475 -1.60403 0
M  V30 11083 O 1041.59 0.0479231 -1.81237 0
M  V30 11084 C 1041.64 -3.40527 -1.18633 0
M  V30 11085 O 1040.74 -3.42167 -2.30208 0
M  V30 11086 H 1040.08 -0.648251 -0.143759 0
M  V30 11087 H 1042.61 -2.03739 0.187493 0
M  V30 11088 H 1042.62 -3.78404 -1.5256 0
M  V30 11089 H 1041.3 -4.13686 -0.428582 0
M  V30 11090 H 1039.88 -3.16093 -1.97837 0
M  V30 11091 N 1042.06 0.170153 -1.56679 0
M  V30 11092 C 1043.29 0.90618 -1.86556 0
M  V30 11093 C 1043.71 1.74986 -0.690044 0
M  V30 11094 O 1043.07 1.77672 0.360862 0
M  V30 11095 C 1043.12 1.75777 -3.14857 0
M  V30 11096 O 1042.22 2.85952 -2.97162 0
M  V30 11097 H 1041.56 0.253781 -0.613589 0
M  V30 11098 H 1044.09 0.167943 -2.0391 0
M  V30 11099 H 1044.1 2.15747 -3.46291 0
M  V30 11100 H 1042.78 1.13807 -4.00026 0
M  V30 11101 H 1041.35 2.49557 -2.77084 0
M  V30 11102 N 1043.54 1.5137 0.438746 0
M  V30 11103 C 1044.49 1.73154 1.55308 0
M  V30 11104 C 1045.48 0.597825 1.58501 0
M  V30 11105 O 1046.69 0.77917 1.62262 0
M  V30 11106 H 1043.06 0.547083 0.51595 0
M  V30 11107 H 1045.03 2.66566 1.34108 0
M  V30 11108 C 1043.78 1.87242 2.92977 0
M  V30 11109 H 1043.1 2.73884 2.91252 0
M  V30 11110 H 1044.54 2.06497 3.70317 0
M  V30 11111 C 1043 0.631887 3.30921 0
M  V30 11112 O 1043.53 -0.214099 4.01129 0
M  V30 11113 N 1041.74 0.47639 2.86669 0
M  V30 11114 H 1041.29 1.16589 2.29706 0
M  V30 11115 H 1041.24 -0.352403 3.12419 0
M  V30 11116 N 1045.02 -0.694098 1.41492 0
M  V30 11117 C 1046.27 -1.4498 1.40227 0
M  V30 11118 C 1046.58 -1.95594 0.0151253 0
M  V30 11119 O 1047.78 -2.71234 -0.120146 0
M  V30 11120 C 1046.24 -2.62171 2.46565 0
M  V30 11121 C 1045.85 -2.18337 3.91194 0
M  V30 11122 C 1047.59 -3.39796 2.54439 0
M  V30 11123 C 1045.5 -3.32495 4.89082 0
M  V30 11124 H 1044.43 -0.544584 0.521483 0
M  V30 11125 H 1047.08 -0.75337 1.67322 0
M  V30 11126 H 1045.46 -3.34089 2.12604 0
M  V30 11127 H 1046.64 -1.53698 4.34412 0
M  V30 11128 H 1044.95 -1.53702 3.86994 0
M  V30 11129 H 1047.55 -4.2478 3.24755 0
M  V30 11130 H 1047.89 -3.85082 1.5817 0
M  V30 11131 H 1048.42 -2.74935 2.87499 0
M  V30 11132 H 1045.16 -2.92219 5.86761 0
M  V30 11133 H 1044.68 -3.95978 4.50512 0
M  V30 11134 H 1046.36 -3.98251 5.09907 0
M  V30 11135 N 1046.49 -1.27344 -0.928501 0
M  V30 11136 C 1047.42 -1.12517 -2.04602 0
M  V30 11137 C 1048.41 -0.0268563 -1.70079 0
M  V30 11138 O 1049.59 -0.201197 -1.93155 0
M  V30 11139 C 1046.72 -0.770749 -3.3864 0
M  V30 11140 C 1045.67 -1.8222 -3.87272 0
M  V30 11141 C 1045 -1.32178 -5.18105 0
M  V30 11142 C 1046.3 -3.22614 -4.10752 0
M  V30 11143 H 1047.99 -2.06 -2.17265 0
M  V30 11144 H 1045.54 -0.991827 -1.04397 0
M  V30 11145 H 1047.49 -0.653843 -4.16297 0
M  V30 11146 H 1046.22 0.19979 -3.25988 0
M  V30 11147 H 1044.88 -1.928 -3.11807 0
M  V30 11148 H 1044.52 -0.340719 -5.01845 0
M  V30 11149 H 1044.22 -2.02474 -5.51614 0
M  V30 11150 H 1045.75 -1.2178 -5.98333 0
M  V30 11151 H 1047.16 -3.1504 -4.78981 0
M  V30 11152 H 1045.56 -3.90614 -4.55566 0
M  V30 11153 H 1046.63 -3.67727 -3.16077 0
M  V30 11154 N 1047.97 1.13488 -1.09353 0
M  V30 11155 C 1049.39 1.36739 -0.823086 0
M  V30 11156 C 1049.59 1.93476 0.562963 0
M  V30 11157 O 1048.64 2.15374 1.31796 0
M  V30 11158 C 1049.96 2.31943 -1.91371 0
M  V30 11159 C 1051.51 2.4556 -1.94085 0
M  V30 11160 C 1051.98 3.44072 -3.02289 0
M  V30 11161 N 1053.47 3.51622 -3.01524 0
M  V30 11162 C 1054.21 4.27724 -3.8189 0
M  V30 11163 N 1053.7 5.06987 -4.72161 0
M  V30 11164 N 1055.5 4.23018 -3.70152 0
M  V30 11165 H 1047.65 0.75012 -1.98713 0
M  V30 11166 H 1049.91 0.392564 -0.862901 0
M  V30 11167 H 1049.62 1.97408 -2.91072 0
M  V30 11168 H 1049.49 3.31952 -1.79131 0
M  V30 11169 H 1051.88 2.79382 -0.950234 0
M  V30 11170 H 1051.96 1.45479 -2.10403 0
M  V30 11171 H 1051.6 3.10981 -4.01564 0
M  V30 11172 H 1051.53 4.43956 -2.83214 0
M  V30 11173 H 1054.02 2.95066 -2.36103 0
M  V30 11174 H 1054.34 5.6236 -5.30067 0
M  V30 11175 H 1052.68 5.06222 -4.76197 0
M  V30 11176 H 1055.87 3.60171 -2.98989 0
M  V30 11177 H 1056.04 4.82075 -4.33022 0
M  V30 11178 N 1049.45 0.880621 1.30701 0
M  V30 11179 C 1050.7 0.497611 1.966 0
M  V30 11180 C 1051.03 -0.949901 1.69383 0
M  V30 11181 O 1050.31 -1.67054 0.996152 0
M  V30 11182 C 1050.59 0.767919 3.51817 0
M  V30 11183 C 1050.44 2.26574 3.88567 0
M  V30 11184 C 1051.76 0.241502 4.39437 0
M  V30 11185 H 1048.88 0.182267 0.714106 0
M  V30 11186 H 1051.52 1.10382 1.54648 0
M  V30 11187 H 1049.67 0.251967 3.87682 0
M  V30 11188 H 1051.34 2.84977 3.62748 0
M  V30 11189 H 1049.59 2.73411 3.36792 0
M  V30 11190 H 1050.26 2.40549 4.9683 0
M  V30 11191 H 1052.73 0.683051 4.10455 0
M  V30 11192 H 1051.61 0.459997 5.46969 0
M  V30 11193 H 1051.87 -0.857068 4.33713 0
M  V30 11194 N 1050.93 -1.4397 0.641131 0
M  V30 11195 C 1052.35 -1.56607 0.30762 0
M  V30 11196 C 1052.55 -1.62694 -1.18882 0
M  V30 11197 O 1051.6 -1.57541 -1.97325 0
M  V30 11198 C 1052.91 -2.83289 1.00834 0
M  V30 11199 C 1054.46 -2.97016 0.98744 0
M  V30 11200 C 1054.94 -4.26514 1.66882 0
M  V30 11201 N 1056.43 -4.33351 1.63589 0
M  V30 11202 C 1057.16 -5.32292 2.13196 0
M  V30 11203 N 1056.66 -6.37582 2.71038 0
M  V30 11204 N 1058.45 -5.23866 2.03766 0
M  V30 11205 H 1050.6 -1.38262 1.61237 0
M  V30 11206 H 1052.87 -0.663221 0.677378 0
M  V30 11207 H 1052.57 -2.84812 2.06337 0
M  V30 11208 H 1052.45 -3.73134 0.552333 0
M  V30 11209 H 1054.83 -2.95041 -0.0591395 0
M  V30 11210 H 1054.91 -2.08493 1.48203 0
M  V30 11211 H 1054.56 -4.2925 2.71491 0
M  V30 11212 H 1054.49 -5.13912 1.14898 0
M  V30 11213 H 1056.98 -3.5788 1.21368 0
M  V30 11214 H 1057.29 -7.09378 3.06597 0
M  V30 11215 H 1055.64 -6.38239 2.75093 0
M  V30 11216 H 1058.83 -4.40524 1.58291 0
M  V30 11217 H 1059 -6.00819 2.42737 0
M  V30 11218 N 1052.41 -0.382291 -1.52893 0
M  V30 11219 C 1053.35 0.456234 -2.26246 0
M  V30 11220 C 1054.32 1.06366 -1.27575 0
M  V30 11221 O 1055.51 1.09301 -1.5639 0
M  V30 11222 C 1052.65 1.5813 -3.06739 0
M  V30 11223 C 1051.76 0.997416 -4.20328 0
M  V30 11224 C 1050.9 2.09296 -4.8823 0
M  V30 11225 C 1049.94 1.4846 -5.93823 0
M  V30 11226 N 1049.07 2.51916 -6.55349 0
M  V30 11227 H 1053.91 -0.175761 -2.97481 0
M  V30 11228 H 1051.45 -0.0985046 -1.4677 0
M  V30 11229 H 1053.41 2.24426 -3.51694 0
M  V30 11230 H 1052.04 2.18371 -2.37727 0
M  V30 11231 H 1051.09 0.224251 -3.79738 0
M  V30 11232 H 1052.4 0.512784 -4.96157 0
M  V30 11233 H 1051.56 2.83377 -5.36453 0
M  V30 11234 H 1050.3 2.61116 -4.1191 0
M  V30 11235 H 1049.3 0.729001 -5.44946 0
M  V30 11236 H 1050.53 0.97443 -6.72073 0
M  V30 11237 H 1048.47 3.02919 -5.81873 0
M  V30 11238 H 1048.39 2.08188 -7.26769 0
M  V30 11239 H 1049.66 3.25649 -7.08218 0
M  V30 11240 N 1053.89 1.57202 -0.111913 0
M  V30 11241 C 1054.85 2.13778 0.826534 0
M  V30 11242 C 1055.85 1.07097 1.19945 0
M  V30 11243 O 1057.04 1.32906 1.12613 0
M  V30 11244 C 1054.17 2.6722 2.11675 0
M  V30 11245 H 1055.36 2.98023 0.334975 0
M  V30 11246 H 1052.92 1.55696 0.137256 0
M  V30 11247 H 1053.65 1.86542 2.65278 0
M  V30 11248 H 1053.44 3.45235 1.8589 0
M  V30 11249 H 1054.93 3.10926 2.78774 0
M  V30 11250 N 1055.36 -0.161842 1.56767 0
M  V30 11251 C 1056.61 -0.875278 1.81719 0
M  V30 11252 C 1056.93 -1.82998 0.690739 0
M  V30 11253 O 1058.13 -2.58648 0.82545 0
M  V30 11254 C 1056.59 -1.60703 3.22029 0
M  V30 11255 C 1056.2 -0.695486 4.42569 0
M  V30 11256 C 1057.94 -2.30813 3.56266 0
M  V30 11257 C 1055.85 -1.42801 5.73901 0
M  V30 11258 H 1054.78 -0.330591 0.677662 0
M  V30 11259 H 1057.43 -0.128112 1.83052 0
M  V30 11260 H 1055.81 -2.39929 3.1504 0
M  V30 11261 H 1056.98 0.0604882 4.6076 0
M  V30 11262 H 1055.3 -0.10356 4.16271 0
M  V30 11263 H 1057.9 -2.86229 4.51638 0
M  V30 11264 H 1058.24 -3.06603 2.81604 0
M  V30 11265 H 1058.77 -1.5852 3.64851 0
M  V30 11266 H 1055.51 -0.712253 6.51619 0
M  V30 11267 H 1055.03 -2.15707 5.5967 0
M  V30 11268 H 1056.71 -1.97295 6.16185 0
M  V30 11269 N 1056.84 -1.516 -0.430713 0
M  V30 11270 C 1058.08 -1.6626 -1.18899 0
M  V30 11271 C 1058.45 -0.373877 -1.88325 0
M  V30 11272 O 1059.65 -0.39632 -2.65862 0
M  V30 11273 C 1057.92 -2.83693 -2.17378 0
M  V30 11274 S 1059.48 -3.18717 -3.01604 0
M  V30 11275 H 1056.29 -0.585681 -0.403112 0
M  V30 11276 H 1058.9 -1.89528 -0.479538 0
M  V30 11277 H 1057.6 -3.75759 -1.65025 0
M  V30 11278 H 1057.13 -2.62634 -2.92894 0
M  V30 11279 H 1059.15 -2.65665 -4.1909 0
M  V30 11280 N 1058.32 0.686584 -1.41858 0
M  V30 11281 C 1059.27 1.79271 -1.40875 0
M  V30 11282 C 1060.25 1.58413 -0.281782 0
M  V30 11283 O 1061.45 1.69093 -0.523132 0
M  V30 11284 C 1058.57 3.17647 -1.30213 0
M  V30 11285 C 1057.66 3.44168 -2.47808 0
M  V30 11286 N 1058.05 3.41339 -3.73258 0
M  V30 11287 C 1056.35 3.74755 -2.41815 0
M  V30 11288 C 1057.05 3.67016 -4.51303 0
M  V30 11289 N 1056.03 3.87203 -3.81543 0
M  V30 11290 H 1059.83 1.75459 -2.35778 0
M  V30 11291 H 1057.34 0.886946 -1.36041 0
M  V30 11292 H 1059.34 3.96896 -1.2759 0
M  V30 11293 H 1058 3.22664 -0.363021 0
M  V30 11294 H 1059.01 3.21511 -4.06018 0
M  V30 11295 H 1055.69 3.87089 -1.56423 0
M  V30 11296 H 1057.08 3.70888 -5.6026 0
M  V30 11297 N 1059.8 1.27835 0.921735 0
M  V30 11298 C 1061.04 1.14692 1.67253 0
M  V30 11299 C 1061.38 -0.305384 1.91784 0
M  V30 11300 O 1060.65 -1.22286 1.51249 0
M  V30 11301 C 1060.93 1.93743 3.03539 0
M  V30 11302 C 1060.79 3.46991 2.86212 0
M  V30 11303 C 1062.11 1.74658 4.03959 0
M  V30 11304 H 1059.23 0.418021 0.606983 0
M  V30 11305 H 1061.87 1.5706 1.06922 0
M  V30 11306 H 1060.02 1.57738 3.55037 0
M  V30 11307 H 1061.69 3.92858 2.41785 0
M  V30 11308 H 1059.93 3.73029 2.21432 0
M  V30 11309 H 1060.6 3.97551 3.82958 0
M  V30 11310 H 1063.08 2.06063 3.61493 0
M  V30 11311 H 1061.96 2.32353 4.97296 0
M  V30 11312 H 1062.22 0.696019 4.36587 0
M  V30 11313 N 1061.28 -1.12907 1.09954 0
M  V30 11314 C 1062.24 -2.16673 0.747364 0
M  V30 11315 C 1063.24 -1.59208 -0.225741 0
M  V30 11316 O 1064.43 -1.742 -0.00322482 0
M  V30 11317 C 1061.56 -3.40735 0.106169 0
M  V30 11318 H 1062.75 -2.49341 1.6664 0
M  V30 11319 H 1060.31 -1.27828 0.899421 0
M  V30 11320 H 1061.04 -3.13661 -0.82384 0
M  V30 11321 H 1060.83 -3.83717 0.806434 0
M  V30 11322 H 1062.32 -4.17414 -0.12464 0
M  V30 11323 N 1062.75 -0.88754 -1.30232 0
M  V30 11324 C 1063.69 -0.300814 -2.26209 0
M  V30 11325 C 1064.66 0.580088 -1.519 0
M  V30 11326 O 1065.85 0.529611 -1.80907 0
M  V30 11327 C 1062.98 0.572336 -3.33829 0
M  V30 11328 C 1062.02 -0.239589 -4.25827 0
M  V30 11329 S 1062.85 -1.62953 -5.10104 0
M  V30 11330 C 1064.01 -0.762979 -6.21232 0
M  V30 11331 H 1064.24 -1.11435 -2.75626 0
M  V30 11332 H 1061.78 -0.687123 -1.38268 0
M  V30 11333 H 1063.73 1.07036 -3.963 0
M  V30 11334 H 1062.4 1.35999 -2.83131 0
M  V30 11335 H 1061.59 0.426854 -5.02189 0
M  V30 11336 H 1061.19 -0.670325 -3.67944 0
M  V30 11337 H 1063.48 0.0189354 -6.77497 0
M  V30 11338 H 1064.43 -1.49829 -6.92067 0
M  V30 11339 H 1064.83 -0.322747 -5.63577 0
M  V30 11340 N 1064.23 1.43628 -0.648757 0
M  V30 11341 C 1065.46 2.06732 -0.166284 0
M  V30 11342 C 1065.88 1.48281 1.15734 0
M  V30 11343 O 1065.24 0.591018 1.71396 0
M  V30 11344 C 1065.29 3.60502 -0.0838732 0
M  V30 11345 O 1064.39 4.01186 0.955185 0
M  V30 11346 H 1063.73 0.657479 -0.0928285 0
M  V30 11347 H 1066.26 1.84208 -0.890421 0
M  V30 11348 H 1066.27 4.07875 0.100923 0
M  V30 11349 H 1064.95 4.02424 -1.05014 0
M  V30 11350 H 1063.53 3.65412 0.743537 0
M  V30 11351 N 1065.71 0.390394 1.52688 0
M  V30 11352 C 1066.99 -0.249068 1.94008 0
M  V30 11353 C 1067.37 -1.64263 1.32593 0
M  V30 11354 O 1066.72 -2.23086 0.494448 0
M  V30 11355 C 1066.93 -0.274318 3.4792 0
M  V30 11356 C 1068.27 -0.502743 4.21613 0
M  V30 11357 O 1069.3 -0.35448 3.54432 0
M  V30 11358 O 1068.16 -0.79334 5.40711 0
M  V30 11359 H 1065.25 -0.155116 0.812323 0
M  V30 11360 H 1067.8 0.44498 1.63762 0
M  V30 11361 H 1066.57 0.701766 3.84956 0
M  V30 11362 H 1066.19 -1.01324 3.84473 0
M  V30 11363 N 1067.19 -1.57141 0.120249 0
M  V30 11364 C 1068.15 -2.14213 -0.815185 0
M  V30 11365 C 1069.15 -1.07731 -1.19376 0
M  V30 11366 O 1070.34 -1.33502 -1.11906 0
M  V30 11367 C 1067.47 -2.68339 -2.10255 0
M  V30 11368 H 1068.67 -2.98197 -0.319166 0
M  V30 11369 H 1066.22 -1.55767 -0.128997 0
M  V30 11370 H 1066.95 -1.87946 -2.64285 0
M  V30 11371 H 1066.74 -3.46216 -1.84057 0
M  V30 11372 H 1068.23 -3.124 -2.77121 0
M  V30 11373 N 1068.67 0.153526 -1.5685 0
M  V30 11374 C 1069.58 1.20932 -2.01029 0
M  V30 11375 C 1070.59 1.47401 -0.924598 0
M  V30 11376 O 1071.77 1.592 -1.23359 0
M  V30 11377 C 1068.83 2.52438 -2.37647 0
M  V30 11378 C 1067.89 2.33673 -3.60132 0
M  V30 11379 C 1067.13 3.58909 -3.94994 0
M  V30 11380 O 1067.35 4.64823 -3.30599 0
M  V30 11381 O 1066.28 3.5196 -4.8827 0
M  V30 11382 H 1070.11 0.864273 -2.91143 0
M  V30 11383 H 1067.7 0.361755 -1.44954 0
M  V30 11384 H 1069.58 3.29981 -2.62088 0
M  V30 11385 H 1068.25 2.86486 -1.5069 0
M  V30 11386 H 1067.16 1.54102 -3.40886 0
M  V30 11387 H 1068.49 2.04544 -4.47686 0
M  V30 11388 N 1070.14 1.51827 0.422667 0
M  V30 11389 C 1071.09 1.74198 1.51406 0
M  V30 11390 C 1072.06 0.584013 1.55494 0
M  V30 11391 O 1073.25 0.820079 1.72277 0
M  V30 11392 C 1070.39 1.88627 2.88988 0
M  V30 11393 C 1069.5 3.16233 2.94314 0
M  V30 11394 C 1068.63 3.21172 4.2311 0
M  V30 11395 C 1067.67 4.43033 4.2236 0
M  V30 11396 N 1066.81 4.4544 5.42704 0
M  V30 11397 H 1071.65 2.67352 1.31632 0
M  V30 11398 H 1069.19 1.32487 0.63919 0
M  V30 11399 H 1071.15 1.94976 3.68837 0
M  V30 11400 H 1069.78 0.988673 3.07287 0
M  V30 11401 H 1068.83 3.19123 2.07039 0
M  V30 11402 H 1070.14 4.06104 2.89623 0
M  V30 11403 H 1069.29 3.26517 5.11343 0
M  V30 11404 H 1068.03 2.29216 4.30478 0
M  V30 11405 H 1067.04 4.37849 3.32518 0
M  V30 11406 H 1068.26 5.3627 4.16643 0
M  V30 11407 H 1066.21 3.56361 5.50766 0
M  V30 11408 H 1066.13 5.29138 5.39953 0
M  V30 11409 H 1067.39 4.54997 6.32928 0
M  V30 11410 N 1071.62 -0.679052 1.4222 0
M  V30 11411 C 1072.55 -1.80481 1.48152 0
M  V30 11412 C 1073.53 -1.66698 0.338502 0
M  V30 11413 O 1074.72 -1.86183 0.552228 0
M  V30 11414 C 1071.85 -3.18746 1.37908 0
M  V30 11415 C 1070.8 -3.47258 2.50192 0
M  V30 11416 C 1070.13 -4.85052 2.25008 0
M  V30 11417 C 1071.43 -3.44576 3.92511 0
M  V30 11418 H 1073.12 -1.75774 2.42371 0
M  V30 11419 H 1070.67 -0.844241 1.16656 0
M  V30 11420 H 1072.62 -3.97229 1.40666 0
M  V30 11421 H 1071.35 -3.24119 0.401806 0
M  V30 11422 H 1070 -2.71133 2.46744 0
M  V30 11423 H 1069.65 -4.8707 1.25584 0
M  V30 11424 H 1069.35 -5.05092 3.00259 0
M  V30 11425 H 1070.88 -5.65825 2.29508 0
M  V30 11426 H 1072.29 -4.13036 3.97585 0
M  V30 11427 H 1070.69 -3.76151 4.67579 0
M  V30 11428 H 1071.76 -2.4323 4.19484 0
M  V30 11429 N 1073.1 -1.28322 -0.914942 0
M  V30 11430 C 1074.03 -1.14681 -2.03398 0
M  V30 11431 C 1075.01 -0.0448939 -1.70041 0
M  V30 11432 O 1076.2 -0.221672 -1.92931 0
M  V30 11433 C 1073.33 -0.806623 -3.37803 0
M  V30 11434 C 1072.28 -1.86318 -3.85318 0
M  V30 11435 C 1071.61 -1.37665 -5.16674 0
M  V30 11436 C 1072.91 -3.26953 -4.07307 0
M  V30 11437 H 1074.6 -2.08293 -2.15068 0
M  V30 11438 H 1072.15 -1.00284 -1.03339 0
M  V30 11439 H 1074.1 -0.69796 -4.1558 0
M  V30 11440 H 1072.82 0.165203 -3.26182 0
M  V30 11441 H 1071.48 -1.96096 -3.09745 0
M  V30 11442 H 1071.13 -0.393927 -5.01455 0
M  V30 11443 H 1070.83 -2.08313 -5.49435 0
M  V30 11444 H 1072.35 -1.28119 -5.97007 0
M  V30 11445 H 1073.77 -3.20102 -4.75613 0
M  V30 11446 H 1072.17 -3.95424 -4.51398 0
M  V30 11447 H 1073.24 -3.71059 -3.12159 0
M  V30 11448 N 1074.58 1.12322 -1.10551 0
M  V30 11449 C 1075.8 1.8822 -0.871093 0
M  V30 11450 C 1076.23 1.7916 0.573005 0
M  V30 11451 O 1075.59 1.14738 1.40374 0
M  V30 11452 C 1075.63 3.35349 -1.32565 0
M  V30 11453 O 1074.74 4.09461 -0.49145 0
M  V30 11454 H 1074.08 0.584787 -0.314516 0
M  V30 11455 H 1076.61 1.42039 -1.47262 0
M  V30 11456 H 1076.62 3.86189 -1.31612 0
M  V30 11457 H 1075.29 3.4126 -2.37728 0
M  V30 11458 H 1073.87 3.68575 -0.566294 0
M  V30 11459 N 1076.06 0.894434 1.2976 0
M  V30 11460 C 1076.97 0.372622 2.31622 0
M  V30 11461 C 1077.98 -0.52996 1.65733 0
M  V30 11462 O 1079.16 -0.420807 1.96955 0
M  V30 11463 C 1076.22 -0.396076 3.4443 0
M  V30 11464 C 1075.28 0.537394 4.25923 0
M  V30 11465 C 1074.52 -0.194713 5.33345 0
M  V30 11466 O 1074.74 -1.41943 5.52457 0
M  V30 11467 O 1073.67 0.460055 6.00139 0
M  V30 11468 H 1077.5 1.21756 2.78225 0
M  V30 11469 H 1075.09 0.65858 1.34101 0
M  V30 11470 H 1076.97 -0.830962 4.13126 0
M  V30 11471 H 1075.64 -1.21716 2.99945 0
M  V30 11472 H 1074.55 1.02129 3.5989 0
M  V30 11473 H 1075.88 1.32475 4.74037 0
M  V30 11474 N 1077.53 -1.43282 0.656365 0
M  V30 11475 C 1078.78 -2.02075 0.171293 0
M  V30 11476 C 1079.11 -1.51682 -1.21269 0
M  V30 11477 O 1078.39 -0.711243 -1.81029 0
M  V30 11478 C 1078.67 -3.59621 0.185602 0
M  V30 11479 C 1078.52 -4.20239 1.60373 0
M  V30 11480 C 1079.84 -4.37515 -0.476289 0
M  V30 11481 H 1076.96 -0.73424 0.0637185 0
M  V30 11482 H 1079.6 -1.70539 0.837648 0
M  V30 11483 H 1077.75 -3.86619 -0.381804 0
M  V30 11484 H 1079.43 -4.0426 2.22197 0
M  V30 11485 H 1077.67 -3.76769 2.15006 0
M  V30 11486 H 1078.34 -5.29333 1.56557 0
M  V30 11487 H 1080.82 -4.16099 0.00651073 0
M  V30 11488 H 1079.69 -5.47169 -0.435562 0
M  V30 11489 H 1079.95 -4.14003 -1.55093 0
M  V30 11490 N 1079.01 -0.398486 -1.52479 0
M  V30 11491 C 1080.26 0.181019 -2.0199 0
M  V30 11492 C 1080.59 1.45691 -1.28405 0
M  V30 11493 O 1079.87 1.90607 -0.387207 0
M  V30 11494 C 1080.15 0.439587 -3.57407 0
M  V30 11495 C 1080 -0.85223 -4.41653 0
M  V30 11496 C 1081.32 1.2263 -4.2267 0
M  V30 11497 H 1078.44 0.0643164 -0.734188 0
M  V30 11498 H 1081.08 -0.52986 -1.82462 0
M  V30 11499 H 1079.23 1.04516 -3.74177 0
M  V30 11500 H 1080.91 -1.48879 -4.36615 0
M  V30 11501 H 1079.15 -1.46555 -4.08294 0
M  V30 11502 H 1079.82 -0.625839 -5.48441 0
M  V30 11503 H 1082.3 0.713722 -4.09933 0
M  V30 11504 H 1081.17 1.37596 -5.31374 0
M  V30 11505 H 1081.43 2.24403 -3.80914 0
M  V30 11506 N 1080.49 1.57075 -0.12858 0
M  V30 11507 C 1081.44 2.15816 0.818064 0
M  V30 11508 C 1082.41 1.08581 1.25696 0
M  V30 11509 O 1083.59 1.36535 1.33277 0
M  V30 11510 C 1080.73 2.76943 2.05905 0
M  V30 11511 C 1079.85 3.98514 1.66764 0
M  V30 11512 C 1078.98 4.47698 2.85902 0
M  V30 11513 C 1078.02 5.61778 2.43047 0
M  V30 11514 N 1077.16 6.05662 3.5513 0
M  V30 11515 H 1082 2.9638 0.310318 0
M  V30 11516 H 1079.53 1.46418 0.141472 0
M  V30 11517 H 1081.49 3.10519 2.78629 0
M  V30 11518 H 1080.12 1.99053 2.54122 0
M  V30 11519 H 1079.17 3.71038 0.838766 0
M  V30 11520 H 1080.49 4.81215 1.31277 0
M  V30 11521 H 1079.64 4.83233 3.66839 0
M  V30 11522 H 1078.38 3.63967 3.24622 0
M  V30 11523 H 1077.38 5.25838 1.60544 0
M  V30 11524 H 1078.61 6.47282 2.05433 0
M  V30 11525 H 1076.56 5.2487 3.93506 0
M  V30 11526 H 1076.47 6.83242 3.23598 0
M  V30 11527 H 1077.74 6.45838 4.36479 0
M  V30 11528 N 1081.97 -0.145205 1.5693 0
M  V30 11529 C 1082.9 -1.20881 1.93553 0
M  V30 11530 C 1083.88 -1.41467 0.801612 0
M  V30 11531 O 1085.06 -1.5605 1.05739 0
M  V30 11532 C 1082.19 -2.5674 2.20912 0
M  V30 11533 C 1081.24 -2.52738 3.43549 0
M  V30 11534 S 1082.07 -1.99257 4.97048 0
M  V30 11535 C 1083.23 -3.36842 5.27531 0
M  V30 11536 H 1083.46 -0.896362 2.83465 0
M  V30 11537 H 1080.99 -0.350894 1.5036 0
M  V30 11538 H 1082.95 -3.34923 2.37354 0
M  V30 11539 H 1081.61 -2.85174 1.31661 0
M  V30 11540 H 1080.8 -3.52753 3.59974 0
M  V30 11541 H 1080.41 -1.82665 3.26358 0
M  V30 11542 H 1082.7 -4.32958 5.21108 0
M  V30 11543 H 1083.64 -3.25268 6.28973 0
M  V30 11544 H 1084.05 -3.3406 4.55043 0
M  V30 11545 N 1083.45 -1.52049 -0.414609 0
M  V30 11546 C 1084.4 -1.75603 -1.52533 0
M  V30 11547 C 1085.39 -0.622965 -1.57529 0
M  V30 11548 O 1086.6 -0.804886 -1.61002 0
M  V30 11549 H 1082.97 -0.555222 -0.507181 0
M  V30 11550 H 1084.94 -2.68666 -1.2985 0
M  V30 11551 C 1083.69 -1.9188 -2.89961 0
M  V30 11552 H 1083.01 -2.78483 -2.86857 0
M  V30 11553 H 1084.45 -2.12363 -3.66985 0
M  V30 11554 C 1082.91 -0.684453 -3.29874 0
M  V30 11555 O 1083.44 0.150256 -4.01419 0
M  V30 11556 N 1081.65 -0.521936 -2.85874 0
M  V30 11557 H 1081.2 -1.20229 -2.27822 0
M  V30 11558 H 1081.15 0.302655 -3.1294 0
M  V30 11559 N 1084.93 0.6715 -1.42579 0
M  V30 11560 C 1085.87 1.80623 -1.46554 0
M  V30 11561 C 1086.87 1.65934 -0.340932 0
M  V30 11562 O 1088.07 1.72502 -0.514098 0
M  V30 11563 H 1084.45 0.595619 -0.459067 0
M  V30 11564 H 1086.42 1.74388 -2.42139 0
M  V30 11565 C 1085.17 3.18794 -1.38801 0
M  V30 11566 H 1084.49 3.30725 -2.24635 0
M  V30 11567 H 1085.93 3.98201 -1.45645 0
M  V30 11568 C 1084.39 3.36742 -0.103219 0
M  V30 11569 O 1084.92 3.92761 0.842715 0
M  V30 11570 N 1083.13 2.90594 -0.0193034 0
M  V30 11571 H 1082.67 2.45192 -0.78986 0
M  V30 11572 H 1082.63 3.0298 0.839686 0
M  V30 11573 N 1086.4 1.28806 0.908124 0
M  V30 11574 C 1087.81 1.14719 1.47297 0
M  V30 11575 C 1088.17 -0.260763 1.94459 0
M  V30 11576 O 1087.29 -1.15553 1.82966 0
M  V30 11577 C 1087.89 2.07643 2.67712 0
M  V30 11578 C 1086.44 1.97605 3.20358 0
M  V30 11579 C 1085.59 1.99058 1.93058 0
M  V30 11580 H 1088.54 1.41413 0.720283 0
M  V30 11581 H 1088.56 1.64372 3.43165 0
M  V30 11582 H 1088.08 3.10108 2.33355 0
M  V30 11583 H 1086.18 0.981982 3.59427 0
M  V30 11584 H 1086.29 2.84846 3.85226 0
M  V30 11585 H 1084.65 1.43541 2.104 0
M  V30 11586 H 1085.44 3.03212 1.60989 0
M  V30 11587 N 1087.88 -1.11734 1.11145 0
M  V30 11588 C 1088.81 -2.1976 0.789152 0
M  V30 11589 C 1089.79 -1.68382 -0.241143 0
M  V30 11590 O 1090.98 -1.93914 -0.105292 0
M  V30 11591 C 1088.11 -3.46549 0.228204 0
M  V30 11592 C 1087.06 -4.11123 1.19002 0
M  V30 11593 C 1086.39 -5.32451 0.489928 0
M  V30 11594 C 1087.69 -4.56406 2.53951 0
M  V30 11595 H 1089.38 -2.46978 1.69241 0
M  V30 11596 H 1086.93 -1.18705 0.81517 0
M  V30 11597 H 1088.88 -4.21399 -0.00945908 0
M  V30 11598 H 1087.6 -3.18782 -0.71033 0
M  V30 11599 H 1086.26 -3.38264 1.41326 0
M  V30 11600 H 1085.91 -5.00953 -0.453315 0
M  V30 11601 H 1085.61 -5.76605 1.1314 0
M  V30 11602 H 1087.14 -6.10042 0.260984 0
M  V30 11603 H 1088.55 -5.22592 2.35733 0
M  V30 11604 H 1086.95 -5.11363 3.14051 0
M  V30 11605 H 1088.02 -3.7001 3.13402 0
M  V30 11606 N 1089.36 -0.901303 -1.29284 0
M  V30 11607 C 1090.29 -0.32479 -2.25877 0
M  V30 11608 C 1091.27 0.563944 -1.52507 0
M  V30 11609 O 1092.45 0.510393 -1.81459 0
M  V30 11610 C 1089.58 0.536897 -3.34418 0
M  V30 11611 C 1088.63 -0.28474 -4.25548 0
M  V30 11612 S 1089.46 -1.68355 -5.08347 0
M  V30 11613 C 1090.62 -0.828826 -6.20388 0
M  V30 11614 H 1090.85 -1.14352 -2.74428 0
M  V30 11615 H 1088.38 -0.701749 -1.37531 0
M  V30 11616 H 1090.34 1.02827 -3.97413 0
M  V30 11617 H 1089 1.32988 -2.84558 0
M  V30 11618 H 1088.19 0.373566 -5.02614 0
M  V30 11619 H 1087.8 -0.709313 -3.67212 0
M  V30 11620 H 1090.09 -0.0529234 -6.77479 0
M  V30 11621 H 1091.03 -1.57161 -6.90439 0
M  V30 11622 H 1091.44 -0.382503 -5.63203 0
M  V30 11623 N 1090.84 1.42931 -0.663954 0
M  V30 11624 C 1092.08 2.01982 -0.182007 0
M  V30 11625 C 1092.42 1.52323 1.20463 0
M  V30 11626 O 1091.69 0.720834 1.80649 0
M  V30 11627 C 1091.97 3.59518 -0.204671 0
M  V30 11628 C 1091.83 4.19382 -1.62599 0
M  V30 11629 C 1093.15 4.37762 0.45308 0
M  V30 11630 H 1090.27 0.733892 -0.0676115 0
M  V30 11631 H 1092.91 1.70092 -0.84668 0
M  V30 11632 H 1091.06 3.86816 0.361295 0
M  V30 11633 H 1092.73 4.03076 -2.24337 0
M  V30 11634 H 1090.97 3.75623 -2.17001 0
M  V30 11635 H 1091.64 5.28496 -1.59362 0
M  V30 11636 H 1094.12 4.1609 -0.0285774 0
M  V30 11637 H 1093 5.47392 0.406538 0
M  V30 11638 H 1093.26 4.1482 1.52895 0
M  V30 11639 N 1092.32 0.406567 1.52266 0
M  V30 11640 C 1093.26 -0.420182 2.26943 0
M  V30 11641 C 1094.23 -1.04323 1.29251 0
M  V30 11642 O 1095.42 -1.06799 1.5811 0
M  V30 11643 C 1092.56 -1.5323 3.09216 0
M  V30 11644 C 1091.67 -0.930419 4.21862 0
M  V30 11645 C 1090.81 -2.01502 4.91498 0
M  V30 11646 C 1089.84 -1.38994 5.9611 0
M  V30 11647 N 1088.98 -2.41458 6.59274 0
M  V30 11648 H 1093.82 0.223066 2.97164 0
M  V30 11649 H 1091.36 0.121842 1.46595 0
M  V30 11650 H 1093.32 -2.18803 3.5522 0
M  V30 11651 H 1091.95 -2.14561 2.41171 0
M  V30 11652 H 1091 -0.163809 3.80047 0
M  V30 11653 H 1092.31 -0.433785 4.9691 0
M  V30 11654 H 1091.46 -2.74807 5.40894 0
M  V30 11655 H 1090.2 -2.5453 4.16012 0
M  V30 11656 H 1089.21 -0.642213 5.46036 0
M  V30 11657 H 1090.43 -0.867386 6.73538 0
M  V30 11658 H 1088.38 -2.93623 5.86619 0
M  V30 11659 H 1088.3 -1.96599 7.2999 0
M  V30 11660 H 1089.56 -3.14341 7.13309 0
M  V30 11661 N 1093.79 -1.57004 0.136909 0
M  V30 11662 C 1095.02 -2.00587 -0.527209 0
M  V30 11663 C 1095.44 -1.01628 -1.58283 0
M  V30 11664 O 1094.8 0.00946934 -1.81298 0
M  V30 11665 C 1094.85 -3.42967 -1.11384 0
M  V30 11666 O 1093.95 -3.46973 -2.22898 0
M  V30 11667 H 1093.3 -0.651155 -0.129976 0
M  V30 11668 H 1095.83 -2.03296 0.230667 0
M  V30 11669 H 1095.84 -3.81555 -1.44499 0
M  V30 11670 H 1094.51 -4.14502 -0.340736 0
M  V30 11671 H 1093.09 -3.20219 -1.91087 0
M  V30 11672 N 1095.27 0.136881 -1.57004 0
M  V30 11673 C 1096.52 0.844147 -1.85056 0
M  V30 11674 C 1096.87 1.78328 -0.722278 0
M  V30 11675 O 1096.17 1.89557 0.279059 0
M  V30 11676 C 1096.36 1.64711 -3.17183 0
M  V30 11677 C 1096.19 0.787229 -4.42756 0
M  V30 11678 C 1094.96 0.448938 -5.03302 0
M  V30 11679 C 1097.16 0.112947 -5.14176 0
M  V30 11680 N 1095.14 -0.423481 -6.12438 0
M  V30 11681 C 1096.51 -0.619195 -6.169 0
M  V30 11682 C 1098.57 0.0346687 -4.97888 0
M  V30 11683 C 1097.27 -1.42224 -7.05099 0
M  V30 11684 C 1099.29 -0.755143 -5.86559 0
M  V30 11685 C 1098.66 -1.47553 -6.88772 0
M  V30 11686 H 1094.76 0.286398 -0.727668 0
M  V30 11687 H 1097.34 0.108903 -1.94395 0
M  V30 11688 H 1095.51 2.35352 -3.08972 0
M  V30 11689 H 1097.24 2.29833 -3.33105 0
M  V30 11690 H 1094 0.787068 -4.67014 0
M  V30 11691 H 1094.42 -0.851013 -6.7163 0
M  V30 11692 H 1099.06 0.577271 -4.18841 0
M  V30 11693 H 1096.78 -1.97606 -7.83567 0
M  V30 11694 H 1100.37 -0.817835 -5.76023 0
M  V30 11695 H 1099.25 -2.07687 -7.56198 0
M  V30 11696 N 1096.75 1.52266 0.40654 0
M  V30 11697 C 1098 1.6568 1.15035 0
M  V30 11698 C 1098.31 0.394135 1.91588 0
M  V30 11699 O 1099.52 0.408113 2.68415 0
M  V30 11700 C 1097.97 2.92725 2.0938 0
M  V30 11701 C 1097.58 4.26108 1.38332 0
M  V30 11702 C 1099.33 3.15502 2.84004 0
M  V30 11703 C 1097.23 5.44275 2.3134 0
M  V30 11704 H 1096.16 0.61719 0.43312 0
M  V30 11705 H 1098.81 1.78755 0.414598 0
M  V30 11706 H 1097.2 2.73355 2.86519 0
M  V30 11707 H 1098.37 4.55971 0.665396 0
M  V30 11708 H 1096.69 4.09454 0.757384 0
M  V30 11709 H 1099.28 4.00964 3.5374 0
M  V30 11710 H 1099.63 2.29842 3.471 0
M  V30 11711 H 1100.16 3.35357 2.13964 0
M  V30 11712 H 1096.9 6.3229 1.72887 0
M  V30 11713 H 1096.42 5.18749 3.01098 0
M  V30 11714 H 1098.1 5.77457 2.91809 0
M  V30 11715 N 1098.23 -0.663929 1.42933 0
M  V30 11716 C 1099.14 -1.80643 1.49683 0
M  V30 11717 C 1100.15 -1.69694 0.38472 0
M  V30 11718 O 1101.33 -1.91052 0.637256 0
M  V30 11719 C 1098.4 -3.16858 1.4072 0
M  V30 11720 C 1097.46 -3.39684 2.62514 0
M  V30 11721 C 1096.69 -4.69399 2.53969 0
M  V30 11722 O 1096.91 -5.48037 1.58152 0
M  V30 11723 O 1095.85 -4.93709 3.44289 0
M  V30 11724 H 1099.67 -1.77903 2.46138 0
M  V30 11725 H 1097.26 -0.821059 1.24816 0
M  V30 11726 H 1099.14 -3.9812 1.38124 0
M  V30 11727 H 1097.81 -3.20211 0.473954 0
M  V30 11728 H 1096.72 -2.58227 2.70684 0
M  V30 11729 H 1098.05 -3.41169 3.54774 0
M  V30 11730 N 1099.71 -1.29285 -0.901281 0
M  V30 11731 C 1100.94 -1.19874 -1.68267 0
M  V30 11732 C 1101.34 0.243387 -1.87628 0
M  V30 11733 O 1100.69 1.17497 -1.41209 0
M  V30 11734 C 1100.75 -1.83907 -3.08899 0
M  V30 11735 C 1100.41 -3.33198 -3.12775 0
M  V30 11736 C 1101.41 -4.29446 -2.9304 0
M  V30 11737 C 1099.1 -3.7437 -3.34892 0
M  V30 11738 C 1101.09 -5.64842 -2.95352 0
M  V30 11739 C 1098.78 -5.09888 -3.36834 0
M  V30 11740 C 1099.77 -6.04934 -3.17087 0
M  V30 11741 O 1099.46 -7.37979 -3.18815 0
M  V30 11742 H 1099.19 -0.416601 -0.532372 0
M  V30 11743 H 1101.75 -1.71154 -1.13558 0
M  V30 11744 H 1099.98 -1.27136 -3.65203 0
M  V30 11745 H 1101.67 -1.6884 -3.69118 0
M  V30 11746 H 1102.43 -3.9897 -2.75767 0
M  V30 11747 H 1098.31 -3.00846 -3.49303 0
M  V30 11748 H 1101.86 -6.39004 -2.79856 0
M  V30 11749 H 1097.75 -5.40009 -3.53638 0
M  V30 11750 H 1098.52 -7.46763 -3.35092 0
M  V30 11751 N 1101.18 1.11143 -1.11736 0
M  V30 11752 C 1102.41 1.86474 -0.889435 0
M  V30 11753 C 1102.82 1.80584 0.564438 0
M  V30 11754 O 1102.17 1.18743 1.40163 0
M  V30 11755 C 1102.23 3.36066 -1.27671 0
M  V30 11756 C 1101.89 3.65721 -2.74038 0
M  V30 11757 C 1102.89 3.62941 -3.7225 0
M  V30 11758 C 1100.57 3.94629 -3.10762 0
M  V30 11759 C 1102.57 3.88651 -5.05202 0
M  V30 11760 C 1100.25 4.19997 -4.43899 0
M  V30 11761 C 1101.25 4.16996 -5.40928 0
M  V30 11762 O 1100.94 4.41724 -6.71666 0
M  V30 11763 H 1100.67 0.596438 -0.318178 0
M  V30 11764 H 1103.23 1.41465 -1.48918 0
M  V30 11765 H 1101.46 3.81695 -0.620124 0
M  V30 11766 H 1103.15 3.92769 -1.02409 0
M  V30 11767 H 1103.91 3.40655 -3.45223 0
M  V30 11768 H 1099.79 3.96099 -2.35853 0
M  V30 11769 H 1103.33 3.86224 -5.80927 0
M  V30 11770 H 1099.23 4.4176 -4.70657 0
M  V30 11771 H 1100 4.59276 -6.77501 0
M  V30 11772 N 1102.66 0.908147 1.28804 0
M  V30 11773 C 1103.91 0.538404 1.95211 0
M  V30 11774 C 1104.24 -0.916886 1.71533 0
M  V30 11775 O 1103.49 -1.66643 1.02609 0
M  V30 11776 C 1103.79 0.787327 3.4862 0
M  V30 11777 C 1103.46 2.22129 3.92389 0
M  V30 11778 C 1102.12 2.61336 4.04051 0
M  V30 11779 C 1104.47 3.15471 4.14883 0
M  V30 11780 C 1101.8 3.93048 4.3558 0
M  V30 11781 C 1104.15 4.46741 4.47889 0
M  V30 11782 C 1102.82 4.85809 4.57761 0
M  V30 11783 H 1102.09 0.197016 0.714329 0
M  V30 11784 H 1104.73 1.14841 1.53244 0
M  V30 11785 H 1103.04 0.0944731 3.91686 0
M  V30 11786 H 1104.73 0.480503 3.98111 0
M  V30 11787 H 1101.32 1.90704 3.83836 0
M  V30 11788 H 1105.51 2.86391 4.05332 0
M  V30 11789 H 1100.76 4.23027 4.41428 0
M  V30 11790 H 1104.94 5.19087 4.64243 0
M  V30 11791 H 1102.57 5.87904 4.81947 0
M  V30 11792 N 1104.14 -1.42577 0.671525 0
M  V30 11793 C 1105.09 -2.30798 -0.00883676 0
M  V30 11794 C 1106.06 -1.4578 -0.796076 0
M  V30 11795 O 1107.24 -1.74617 -0.768987 0
M  V30 11796 C 1104.38 -3.31581 -0.956452 0
M  V30 11797 C 1103.5 -4.31691 -0.163381 0
M  V30 11798 C 1102.63 -5.19549 -1.10645 0
M  V30 11799 C 1101.67 -6.1134 -0.304876 0
M  V30 11800 N 1100.81 -6.91761 -1.20048 0
M  V30 11801 H 1105.65 -2.88426 0.749301 0
M  V30 11802 H 1103.18 -1.42074 0.381251 0
M  V30 11803 H 1105.14 -3.88539 -1.51966 0
M  V30 11804 H 1103.77 -2.75561 -1.68126 0
M  V30 11805 H 1102.82 -3.76879 0.516396 0
M  V30 11806 H 1104.14 -4.96683 0.459099 0
M  V30 11807 H 1103.29 -5.81223 -1.73969 0
M  V30 11808 H 1102.03 -4.54726 -1.76282 0
M  V30 11809 H 1101.03 -5.48738 0.341597 0
M  V30 11810 H 1102.26 -6.78211 0.347352 0
M  V30 11811 H 1100.2 -6.2957 -1.84331 0
M  V30 11812 H 1100.12 -7.53345 -0.633003 0
M  V30 11813 H 1101.39 -7.57924 -1.82129 0
M  V30 11814 N 1105.62 -0.414636 -1.52048 0
M  V30 11815 C 1106.57 0.422766 -2.28726 0
M  V30 11816 C 1107.56 1.04099 -1.3364 0
M  V30 11817 O 1108.77 0.978559 -1.51077 0
M  V30 11818 H 1105.14 0.155123 -0.735827 0
M  V30 11819 H 1107.11 -0.245091 -2.97392 0
M  V30 11820 C 1105.86 1.52418 -3.12513 0
M  V30 11821 H 1105.18 1.05781 -3.85552 0
M  V30 11822 H 1106.62 2.08382 -3.6926 0
M  V30 11823 C 1105.08 2.49465 -2.26426 0
M  V30 11824 O 1105.61 3.53479 -1.90829 0
M  V30 11825 N 1103.82 2.19806 -1.90088 0
M  V30 11826 H 1103.37 1.35253 -2.19236 0
M  V30 11827 H 1103.32 2.84984 -1.32783 0
M  V30 11828 N 1107.1 1.56929 -0.145233 0
M  V30 11829 C 1108.05 2.13246 0.806846 0
M  V30 11830 C 1109.03 1.05984 1.21063 0
M  V30 11831 O 1110.22 1.32165 1.17734 0
M  V30 11832 C 1107.35 2.75622 2.04663 0
M  V30 11833 C 1106.44 3.90006 1.66603 0
M  V30 11834 N 1106.83 4.95946 0.993545 0
M  V30 11835 C 1105.13 4.0068 1.95886 0
M  V30 11836 C 1105.83 5.76032 0.810087 0
M  V30 11837 N 1104.8 5.26739 1.34339 0
M  V30 11838 H 1108.61 2.92527 0.283806 0
M  V30 11839 H 1106.12 1.62302 0.0563676 0
M  V30 11840 H 1108.12 3.14329 2.73867 0
M  V30 11841 H 1106.78 1.97815 2.57487 0
M  V30 11842 H 1107.79 5.13748 0.654508 0
M  V30 11843 H 1104.46 3.33946 2.50572 0
M  V30 11844 H 1105.85 6.71315 0.280209 0
M  V30 11845 N 1108.58 -0.128553 1.57075 0
M  V30 11846 C 1109.82 -0.836355 1.83982 0
M  V30 11847 C 1110.14 -1.80862 0.728971 0
M  V30 11848 O 1109.41 -1.94326 -0.247859 0
M  V30 11849 H 1107.99 -0.31185 0.678792 0
M  V30 11850 H 1110.66 -0.118153 1.94542 0
M  V30 11851 H 1109.75 -1.38741 2.79567 0
M  V30 11852 N 1110.05 -1.5248 -0.398459 0
M  V30 11853 C 1110.98 -1.79549 -1.49279 0
M  V30 11854 C 1111.96 -0.647004 -1.57315 0
M  V30 11855 O 1113.15 -0.893661 -1.72416 0
M  V30 11856 C 1110.28 -1.95582 -2.86993 0
M  V30 11857 C 1109.23 -3.1123 -2.93803 0
M  V30 11858 C 1108.56 -3.12501 -4.33874 0
M  V30 11859 C 1109.86 -4.50485 -2.64312 0
M  V30 11860 H 1111.55 -2.71187 -1.26877 0
M  V30 11861 H 1109.1 -1.30492 -0.608924 0
M  V30 11862 H 1111.05 -2.13102 -3.63546 0
M  V30 11863 H 1109.78 -1.00625 -3.10712 0
M  V30 11864 H 1108.44 -2.93477 -2.19697 0
M  V30 11865 H 1108.08 -2.15245 -4.54619 0
M  V30 11866 H 1107.78 -3.90183 -4.39353 0
M  V30 11867 H 1109.31 -3.32164 -5.12347 0
M  V30 11868 H 1110.72 -4.68387 -3.30585 0
M  V30 11869 H 1109.12 -5.30163 -2.81153 0
M  V30 11870 H 1110.19 -4.57848 -1.59696 0
M  V30 11871 N 1111.53 0.65634 -1.43283 0
M  V30 11872 C 1112.78 1.41347 -1.44449 0
M  V30 11873 C 1113.1 1.94879 -0.0687217 0
M  V30 11874 O 1112.37 1.74235 0.895492 0
M  V30 11875 H 1110.95 0.524578 -0.531815 0
M  V30 11876 H 1113.61 0.774292 -1.7886 0
M  V30 11877 H 1112.71 2.25737 -2.15521 0
M  V30 11878 N 1113.01 1.29761 0.894412 0
M  V30 11879 C 1114.29 1.08711 1.62608 0
M  V30 11880 C 1114.67 -0.366907 2.07887 0
M  V30 11881 O 1114.01 -1.35669 1.83865 0
M  V30 11882 C 1114.22 2.07947 2.80284 0
M  V30 11883 C 1115.57 2.39153 3.50843 0
M  V30 11884 O 1116.6 2.06183 2.9046 0
M  V30 11885 O 1115.46 2.95509 4.59713 0
M  V30 11886 H 1112.55 0.416866 0.714249 0
M  V30 11887 H 1115.1 1.41153 0.942015 0
M  V30 11888 H 1113.87 3.05859 2.44061 0
M  V30 11889 H 1113.49 1.76266 3.56393 0
M  V30 11890 N 1114.49 -1.10549 1.12324 0
M  V30 11891 C 1115.42 -2.16081 0.733768 0
M  V30 11892 C 1116.4 -1.60266 -0.274511 0
M  V30 11893 O 1117.58 -1.87743 -0.168742 0
M  V30 11894 C 1114.71 -3.38591 0.0858914 0
M  V30 11895 C 1113.76 -4.13097 1.0608 0
M  V30 11896 S 1114.59 -4.68821 2.5878 0
M  V30 11897 C 1115.74 -5.94644 1.95319 0
M  V30 11898 H 1115.98 -2.48784 1.62769 0
M  V30 11899 H 1113.51 -1.22318 0.942209 0
M  V30 11900 H 1115.47 -4.09533 -0.281538 0
M  V30 11901 H 1114.13 -3.04129 -0.785122 0
M  V30 11902 H 1113.32 -5.00934 0.555095 0
M  V30 11903 H 1112.92 -3.4796 1.37112 0
M  V30 11904 H 1115.22 -6.65004 1.29523 0
M  V30 11905 H 1116.16 -6.49875 2.81191 0
M  V30 11906 H 1116.57 -5.4662 1.40951 0
M  V30 11907 N 1115.97 -0.914965 -1.28321 0
M  V30 11908 C 1117.21 -0.549562 -1.95212 0
M  V30 11909 C 1117.54 0.904658 -1.71842 0
M  V30 11910 O 1116.82 1.64354 -1.04009 0
M  V30 11911 C 1117.1 -0.860927 -3.49657 0
M  V30 11912 C 1116.96 -2.36797 -3.82423 0
M  V30 11913 C 1118.27 -0.357926 -4.38642 0
M  V30 11914 H 1115.39 -0.201136 -0.709023 0
M  V30 11915 H 1118.04 -1.14443 -1.51667 0
M  V30 11916 H 1116.19 -0.354665 -3.86878 0
M  V30 11917 H 1117.86 -2.94494 -3.55065 0
M  V30 11918 H 1116.1 -2.82245 -3.29424 0
M  V30 11919 H 1116.77 -2.53637 -4.90278 0
M  V30 11920 H 1119.25 -0.791636 -4.085 0
M  V30 11921 H 1118.12 -0.604855 -5.45557 0
M  V30 11922 H 1118.38 0.741775 -4.35833 0
M  V30 11923 N 1117.44 1.42219 -0.679077 0
M  V30 11924 C 1118.39 2.308 -0.00340316 0
M  V30 11925 C 1119.36 1.462 0.788334 0
M  V30 11926 O 1120.55 1.75023 0.759716 0
M  V30 11927 C 1117.69 3.32084 0.938854 0
M  V30 11928 C 1116.8 4.31772 0.140485 0
M  V30 11929 C 1115.93 5.20128 1.07888 0
M  V30 11930 C 1114.97 6.11493 0.27245 0
M  V30 11931 N 1114.11 6.92388 1.16378 0
M  V30 11932 H 1118.95 2.88024 -0.764587 0
M  V30 11933 H 1116.49 1.41869 -0.38878 0
M  V30 11934 H 1118.44 3.89339 1.49903 0
M  V30 11935 H 1117.07 2.76448 1.66662 0
M  V30 11936 H 1116.13 3.76599 -0.536376 0
M  V30 11937 H 1117.44 4.96432 -0.485433 0
M  V30 11938 H 1116.59 5.82137 1.70884 0
M  V30 11939 H 1115.33 4.55655 1.73868 0
M  V30 11940 H 1114.34 5.48549 -0.370693 0
M  V30 11941 H 1115.56 6.78017 -0.383315 0
M  V30 11942 H 1113.51 6.30538 1.8099 0
M  V30 11943 H 1113.42 7.5367 0.593043 0
M  V30 11944 H 1114.69 7.58879 1.78107 0
M  V30 11945 N 1118.92 0.422693 1.51826 0
M  V30 11946 C 1120.15 -0.15017 2.06856 0
M  V30 11947 C 1120.57 -1.36946 1.28948 0
M  V30 11948 O 1119.93 -1.78393 0.32338 0
M  V30 11949 C 1119.98 -0.465563 3.57582 0
M  V30 11950 O 1119.08 -1.55442 3.81984 0
M  V30 11951 H 1118.42 -0.00827931 0.663948 0
M  V30 11952 H 1120.95 0.599806 1.95611 0
M  V30 11953 H 1120.96 -0.720279 4.01592 0
M  V30 11954 H 1119.64 0.425679 4.13716 0
M  V30 11955 H 1118.21 -1.29081 3.49846 0
M  V30 11956 N 1120.4 -1.5685 0.153553 0
M  V30 11957 C 1121.35 -2.18385 -0.800667 0
M  V30 11958 C 1122.34 -1.14272 -1.25053 0
M  V30 11959 O 1123.55 -1.32509 -1.21825 0
M  V30 11960 H 1119.92 -0.699352 -0.276425 0
M  V30 11961 H 1121.89 -2.97287 -0.257535 0
M  V30 11962 C 1120.64 -2.82497 -2.02708 0
M  V30 11963 H 1119.97 -3.62328 -1.68992 0
M  V30 11964 H 1121.41 -3.29047 -2.67403 0
M  V30 11965 C 1119.86 -1.81343 -2.8393 0
M  V30 11966 O 1120.39 -1.28793 -3.80493 0
M  V30 11967 N 1118.6 -1.50499 -2.48593 0
M  V30 11968 H 1118.15 -1.93425 -1.70131 0
M  V30 11969 H 1118.11 -0.830672 -3.03228 0
M  V30 11970 N 1121.88 0.120221 -1.57141 0
M  V30 11971 C 1123.29 0.473718 -1.52408 0
M  V30 11972 C 1123.49 1.81925 -0.866354 0
M  V30 11973 O 1122.55 2.48491 -0.448173 0
M  V30 11974 C 1123.86 0.459338 -2.97171 0
M  V30 11975 C 1125.41 0.542975 -3.08254 0
M  V30 11976 C 1125.89 0.558996 -4.54576 0
M  V30 11977 N 1127.38 0.620469 -4.59026 0
M  V30 11978 C 1128.11 0.654292 -5.69655 0
M  V30 11979 N 1127.61 0.645835 -6.89783 0
M  V30 11980 N 1129.4 0.697208 -5.57759 0
M  V30 11981 H 1121.55 -0.76142 -1.98283 0
M  V30 11982 H 1123.81 -0.280736 -0.905479 0
M  V30 11983 H 1123.52 -0.461654 -3.48657 0
M  V30 11984 H 1123.39 1.28759 -3.54543 0
M  V30 11985 H 1125.78 1.45439 -2.56772 0
M  V30 11986 H 1125.86 -0.312936 -2.53879 0
M  V30 11987 H 1125.51 -0.348367 -5.06704 0
M  V30 11988 H 1125.44 1.43177 -5.06762 0
M  V30 11989 H 1127.93 0.633218 -3.72557 0
M  V30 11990 H 1128.24 0.674233 -7.69853 0
M  V30 11991 H 1126.59 0.613279 -6.92289 0
M  V30 11992 H 1129.78 0.70117 -4.62819 0
M  V30 11993 H 1129.95 0.7201 -6.43986 0
M  V30 11994 N 1123.36 1.52689 0.390367 0
M  V30 11995 C 1124.29 1.80338 1.48325 0
M  V30 11996 C 1125.27 0.655338 1.56969 0
M  V30 11997 O 1126.45 0.902792 1.7194 0
M  V30 11998 C 1123.58 1.97101 2.85952 0
M  V30 11999 C 1122.54 3.12783 2.92148 0
M  V30 12000 C 1121.86 3.14798 4.32211 0
M  V30 12001 C 1123.16 4.5188 2.61919 0
M  V30 12002 H 1124.86 2.71857 1.25437 0
M  V30 12003 H 1122.4 1.30813 0.601995 0
M  V30 12004 H 1124.36 2.15027 3.62411 0
M  V30 12005 H 1123.08 1.02271 3.10174 0
M  V30 12006 H 1121.74 2.94638 2.18137 0
M  V30 12007 H 1121.39 2.17653 4.53471 0
M  V30 12008 H 1121.09 3.92507 4.37278 0
M  V30 12009 H 1122.61 3.34877 5.10578 0
M  V30 12010 H 1124.02 4.70134 3.28096 0
M  V30 12011 H 1122.42 5.31647 2.78337 0
M  V30 12012 H 1123.49 4.58689 1.57266 0
M  V30 12013 N 1124.83 -0.648732 1.43629 0
M  V30 12014 C 1126.08 -1.41066 1.45699 0
M  V30 12015 C 1126.41 -1.94024 0.082612 0
M  V30 12016 O 1125.69 -1.7257 -0.897207 0
M  V30 12017 C 1125.97 -2.58882 2.50304 0
M  V30 12018 C 1125.82 -2.11387 3.97033 0
M  V30 12019 C 1127.14 -3.61092 2.51597 0
M  V30 12020 H 1124.26 -0.511591 0.530512 0
M  V30 12021 H 1126.9 -0.735069 1.75205 0
M  V30 12022 H 1125.05 -3.16518 2.25274 0
M  V30 12023 H 1126.73 -1.58718 4.33136 0
M  V30 12024 H 1124.97 -1.4272 4.0965 0
M  V30 12025 H 1125.64 -2.96129 4.65845 0
M  V30 12026 H 1128.12 -3.13223 2.73917 0
M  V30 12027 H 1126.99 -4.41071 3.26722 0
M  V30 12028 H 1127.25 -4.13985 1.55141 0
M  V30 12029 N 1126.31 -1.30234 -0.887518 0
M  V30 12030 C 1127.54 -1.21955 -1.67755 0
M  V30 12031 C 1127.96 0.214701 -1.86871 0
M  V30 12032 O 1127.32 1.15459 -1.39782 0
M  V30 12033 C 1127.37 -1.95079 -3.03276 0
M  V30 12034 O 1126.47 -1.27615 -3.92158 0
M  V30 12035 H 1125.81 -0.421948 -0.512695 0
M  V30 12036 H 1128.34 -1.72011 -1.10785 0
M  V30 12037 H 1128.35 -2.04004 -3.53336 0
M  V30 12038 H 1127.03 -2.99392 -2.88682 0
M  V30 12039 H 1125.61 -1.27029 -3.50597 0
M  V30 12040 N 1127.79 1.09952 -1.12909 0
M  V30 12041 C 1129.04 1.82286 -0.888797 0
M  V30 12042 C 1129.37 1.85218 0.58379 0
M  V30 12043 O 1128.64 1.31645 1.43177 0
M  V30 12044 C 1128.93 3.28706 -1.47053 0
M  V30 12045 C 1128.78 3.34078 -3.01184 0
M  V30 12046 C 1130.1 4.25233 -1.13424 0
M  V30 12047 H 1127.22 0.661803 -0.324324 0
M  V30 12048 H 1129.86 1.28833 -1.3965 0
M  V30 12049 H 1128.01 3.74356 -1.03874 0
M  V30 12050 H 1129.68 2.96871 -3.5308 0
M  V30 12051 H 1127.93 2.73825 -3.36455 0
M  V30 12052 H 1128.6 4.37202 -3.36984 0
M  V30 12053 H 1131.07 3.87841 -1.50726 0
M  V30 12054 H 1129.95 5.26033 -1.56783 0
M  V30 12055 H 1130.21 4.42075 -0.0471496 0
M  V30 12056 O 1129.31 1.05328 1.22427 0
M  V30 12057 H 1130 0.730081 1.79414 0
M  V30 END ATOM
M  V30 BEGIN BOND
M  V30 END BOND
M  V30 END CTAB
M  END
$$$$
