drugbank_target|Q9UQB9 Aurora kinase C (DB06134; DB12010)
 OpenBabel12092120563D

  0  0  0     0  0            999 V3000
M  V30 BEGIN CTAB
M  V30 COUNTS 5064 5122 0 0 0
M  V30 BEGIN ATOM
M  V30 1 H -0.908 1.98254 -0.117106 0
M  V30 2 N 0 1.576 0 0
M  V30 3 C 0.933 2.03868 1.02534 0
M  V30 4 C 1.911 0.928543 1.3348 0
M  V30 5 O 3.095 1.19667 1.45644 0
M  V30 6 C 0.222 2.43627 2.35294 0
M  V30 7 C -0.732 3.65373 2.2001 0
M  V30 8 S 0.101 5.13292 1.52614 0
M  V30 9 C 1.257 5.56322 2.86805 0
M  V30 10 H 1.49 2.90518 0.631377 0
M  V30 11 H -0.977 1.52953 0.210867 0
M  V30 12 H 0.981 2.67203 3.11629 0
M  V30 13 H -0.358 1.57376 2.7183 0
M  V30 14 H -1.165 3.90944 3.18086 0
M  V30 15 H -1.563 3.418 1.51819 0
M  V30 16 H 0.729 5.58782 3.83104 0
M  V30 17 H 1.672 6.56266 2.65933 0
M  V30 18 H 2.08 4.83886 2.90714 0
M  V30 19 N 1.4781 -0.272755 1.55222 0
M  V30 20 C 2.7031 -1.02683 1.80197 0
M  V30 21 C 3.1281 -1.79142 0.573551 0
M  V30 22 O 2.4861 -1.74917 -0.476849 0
M  V30 23 C 2.5341 -1.9609 3.02624 0
M  V30 24 O 1.6381 -3.04863 2.77727 0
M  V30 25 H 0.9791 -0.293557 0.595584 0
M  V30 26 H 3.5091 -0.30159 2.02365 0
M  V30 27 H 3.5191 -2.38039 3.31363 0
M  V30 28 H 2.1941 -1.39851 3.91682 0
M  V30 29 H 0.7711 -2.67228 2.60084 0
M  V30 30 N 2.9562 -1.48159 -0.537278 0
M  V30 31 C 4.1812 -1.59707 -1.32319 0
M  V30 32 C 4.6062 -0.254859 -1.86365 0
M  V30 33 O 3.9642 0.772378 -1.64024 0
M  V30 34 C 4.0122 -2.6412 -2.45505 0
M  V30 35 O 3.1162 -2.20774 -3.48328 0
M  V30 36 H 2.4572 -0.535791 -0.392204 0
M  V30 37 H 4.9872 -1.94092 -0.647268 0
M  V30 38 H 4.9972 -2.85166 -2.91795 0
M  V30 39 H 3.6722 -3.61567 -2.05528 0
M  V30 40 H 2.2492 -2.09911 -3.08207 0
M  V30 41 N 4.4343 0.785586 -1.36625 0
M  V30 42 C 5.8453 1.36101 -1.27803 0
M  V30 43 C 6.1963 1.96035 0.0804875 0
M  V30 44 O 5.3213 1.92834 0.982042 0
M  V30 45 C 5.9163 2.47442 -2.31426 0
M  V30 46 C 4.4753 3.00789 -2.26281 0
M  V30 47 C 3.6223 1.73896 -2.15999 0
M  V30 48 H 6.5733 0.586928 -1.47448 0
M  V30 49 H 6.5943 3.2656 -1.95291 0
M  V30 50 H 6.1063 2.03791 -3.30289 0
M  V30 51 H 4.2073 3.48851 -1.30896 0
M  V30 52 H 4.3203 3.57343 -3.19128 0
M  V30 53 H 2.6843 1.9628 -1.62316 0
M  V30 54 H 3.4673 1.32368 -3.16755 0
M  V30 55 N 5.9124 1.20967 1.01018 0
M  V30 56 C 7.3284 0.965905 1.27053 0
M  V30 57 C 7.5284 -0.350785 1.98423 0
M  V30 58 O 6.5844 -1.07773 2.28344 0
M  V30 59 C 7.8974 2.15294 2.09926 0
M  V30 60 C 9.4454 2.19463 2.23171 0
M  V30 61 C 9.9204 3.3767 3.09424 0
M  V30 62 N 11.4114 3.37724 3.17012 0
M  V30 63 C 12.1464 4.25837 3.83993 0
M  V30 64 N 11.6424 5.24138 4.53047 0
M  V30 65 N 13.4354 4.1366 3.80581 0
M  V30 66 H 5.5864 2.0565 0.531194 0
M  V30 67 H 7.8494 0.90024 0.297106 0
M  V30 68 H 7.5554 3.10684 1.64828 0
M  V30 69 H 7.4294 2.13923 3.10672 0
M  V30 70 H 9.8164 1.24632 2.6749 0
M  V30 71 H 9.8974 2.2488 1.21912 0
M  V30 72 H 9.5414 4.32791 2.65808 0
M  V30 73 H 9.4714 3.29491 4.10784 0
M  V30 74 H 11.9624 2.6658 2.6785 0
M  V30 75 H 12.2754 5.87684 5.01844 0
M  V30 76 H 10.6204 5.28068 4.5185 0
M  V30 77 H 13.8114 3.36127 3.25785 0
M  V30 78 H 13.9844 4.82538 4.32505 0
M  V30 79 N 7.3905 -1.2043 1.01659 0
M  V30 80 C 8.3535 -2.21433 0.591616 0
M  V30 81 C 9.3535 -1.57203 -0.338226 0
M  V30 82 O 10.5435 -1.73737 -0.126918 0
M  V30 83 C 7.6755 -3.40628 -0.136058 0
M  V30 84 H 8.8685 -2.60545 1.48514 0
M  V30 85 H 6.4215 -1.33893 0.806379 0
M  V30 86 H 7.1565 -3.07019 -1.04449 0
M  V30 87 H 6.9415 -3.88475 0.531917 0
M  V30 88 H 8.4315 -4.15475 -0.420735 0
M  V30 89 N 8.8686 -0.792821 -1.36206 0
M  V30 90 C 10.1146 -0.36733 -1.99446 0
M  V30 91 C 10.4476 1.05917 -1.62774 0
M  V30 92 O 9.7226 1.7324 -0.88421 0
M  V30 93 C 10.0056 -0.535044 -3.56103 0
M  V30 94 C 9.8586 -2.00548 -4.02617 0
M  V30 95 C 11.1776 0.0478191 -4.40074 0
M  V30 96 H 8.2966 -0.134941 -0.724541 0
M  V30 97 H 10.9386 -0.999794 -1.61568 0
M  V30 98 H 9.0886 0.00336329 -3.885 0
M  V30 99 H 10.7606 -2.60521 -3.80692 0
M  V30 100 H 9.0036 -2.50686 -3.54032 0
M  V30 101 H 9.6746 -2.07377 -5.11565 0
M  V30 102 H 12.1506 -0.411822 -4.14057 0
M  V30 103 H 11.0266 -0.0995336 -5.4881 0
M  V30 104 H 11.2876 1.14025 -4.27142 0
M  V30 105 N 10.3467 1.47872 -0.545128 0
M  V30 106 C 11.5927 2.02793 -0.0166104 0
M  V30 107 C 11.9257 1.41987 1.32489 0
M  V30 108 O 11.2007 0.571045 1.85928 0
M  V30 109 C 11.4837 3.59989 0.0893294 0
M  V30 110 C 11.3367 4.3125 -1.27841 0
M  V30 111 C 12.6557 4.32606 0.808724 0
M  V30 112 H 9.7747 0.736962 -0.00751035 0
M  V30 113 H 12.4167 1.76433 -0.705085 0
M  V30 114 H 10.5667 3.82579 0.675681 0
M  V30 115 H 12.2387 4.20035 -1.90704 0
M  V30 116 H 10.4817 3.92076 -1.85632 0
M  V30 117 H 11.1527 5.39736 -1.15713 0
M  V30 118 H 13.6287 4.14936 0.310992 0
M  V30 119 H 12.5047 5.42251 0.851782 0
M  V30 120 H 12.7657 4.00963 1.86229 0
M  V30 121 N 11.8248 0.280983 1.55075 0
M  V30 122 C 12.7568 -0.637268 2.20163 0
M  V30 123 C 13.7698 -1.11298 1.18813 0
M  V30 124 O 14.9588 -1.03388 1.4551 0
M  V30 125 C 12.0588 -1.88199 2.81841 0
M  V30 126 C 11.2318 -1.55211 4.08936 0
M  V30 127 C 10.2908 -2.64991 4.54606 0
M  V30 128 O 9.3168 -2.30929 5.2025 0
M  V30 129 N 10.5188 -3.95161 4.25238 0
M  V30 130 H 13.2838 -0.0801694 2.99593 0
M  V30 131 H 10.8448 0.102329 1.61576 0
M  V30 132 H 12.8368 -2.60948 3.09335 0
M  V30 133 H 11.4068 -2.34799 2.06369 0
M  V30 134 H 10.6268 -0.658185 3.88666 0
M  V30 135 H 11.9148 -1.30681 4.91732 0
M  V30 136 H 11.3128 -4.25653 3.72607 0
M  V30 137 H 9.8698 -4.6427 4.5749 0
M  V30 138 N 13.3029 -1.57598 0.00835791 0
M  V30 139 C 14.2329 -2.1198 -0.979113 0
M  V30 140 C 15.2139 -1.03091 -1.35301 0
M  V30 141 O 16.3989 -1.30818 -1.43528 0
M  V30 142 C 13.5289 -2.62995 -2.26828 0
M  V30 143 C 12.4829 -3.76485 -2.03576 0
M  V30 144 C 11.8089 -4.13846 -3.38579 0
M  V30 145 C 13.1089 -5.0342 -1.39161 0
M  V30 146 H 14.8029 -2.94738 -0.526281 0
M  V30 147 H 12.3489 -1.41783 -0.251704 0
M  V30 148 H 14.3019 -2.99669 -2.96271 0
M  V30 149 H 13.0259 -1.7737 -2.7424 0
M  V30 150 H 11.6849 -3.40217 -1.36557 0
M  V30 151 H 11.3329 -3.25232 -3.83709 0
M  V30 152 H 11.0329 -4.90312 -3.23834 0
M  V30 153 H 12.5569 -4.53086 -4.09323 0
M  V30 154 H 13.9709 -5.37812 -1.98573 0
M  V30 155 H 12.3679 -5.84746 -1.34878 0
M  V30 156 H 13.4379 -4.83548 -0.361868 0
M  V30 157 N 14.781 0.264519 -1.55364 0
M  V30 158 C 16.029 0.993021 -1.76021 0
M  V30 159 C 16.35 1.86511 -0.569099 0
M  V30 160 O 15.62 1.91438 0.415735 0
M  V30 161 H 14.2 0.369639 -0.649135 0
M  V30 162 H 16.862 0.286707 -1.9278 0
M  V30 163 H 15.958 1.62502 -2.66457 0
M  V30 164 N 16.2591 1.48442 0.529413 0
M  V30 165 C 17.2061 1.63007 1.63394 0
M  V30 166 C 18.1761 0.47212 1.59249 0
M  V30 167 O 19.3611 0.695673 1.77666 0
M  V30 168 C 16.5011 1.6763 3.01653 0
M  V30 169 C 15.6141 2.94535 3.16027 0
M  V30 170 C 14.7491 2.90316 4.44849 0
M  V30 171 C 13.7881 4.11923 4.52754 0
M  V30 172 N 12.9251 4.05777 5.72965 0
M  V30 173 H 17.7651 2.5733 1.50285 0
M  V30 174 H 15.3021 1.27613 0.731656 0
M  V30 175 H 17.2601 1.68292 3.81751 0
M  V30 176 H 15.8901 0.76797 3.13532 0
M  V30 177 H 14.9421 3.03615 2.29177 0
M  V30 178 H 16.2541 3.84512 3.17729 0
M  V30 179 H 15.4081 2.89382 5.33238 0
M  V30 180 H 14.1471 1.98068 4.45668 0
M  V30 181 H 13.1521 4.13131 3.62771 0
M  V30 182 H 14.3771 5.0533 4.53672 0
M  V30 183 H 12.3231 3.16351 5.74681 0
M  V30 184 H 12.2401 4.8946 5.76164 0
M  V30 185 H 13.5081 4.08904 6.6364 0
M  V30 186 N 17.7372 -0.778329 1.37039 0
M  V30 187 C 18.7002 -1.87301 1.32102 0
M  V30 188 C 19.7002 -1.59198 0.226405 0
M  V30 189 O 20.8902 -1.67403 0.481861 0
M  V30 190 C 18.0222 -3.24309 1.05055 0
M  V30 191 H 19.2152 -1.93093 2.29467 0
M  V30 192 H 16.7682 -0.977358 1.21973 0
M  V30 193 H 17.5032 -3.24196 0.0819373 0
M  V30 194 H 17.2882 -3.46098 1.84279 0
M  V30 195 H 18.7782 -4.04382 1.04234 0
M  V30 196 N 19.2153 -1.21501 -1.00376 0
M  V30 197 C 20.1473 -0.933174 -2.09343 0
M  V30 198 C 21.1603 0.0840896 -1.62583 0
M  V30 199 O 22.3493 -0.148563 -1.77881 0
M  V30 200 C 19.4493 -0.379869 -3.36764 0
M  V30 201 C 18.6223 -1.45176 -4.12605 0
M  V30 202 C 17.6813 -0.907476 -5.18316 0
M  V30 203 O 16.7073 -1.5912 -5.46507 0
M  V30 204 N 17.9093 0.276649 -5.7984 0
M  V30 205 H 20.6743 -1.87124 -2.34104 0
M  V30 206 H 18.2353 -1.12043 -1.16867 0
M  V30 207 H 20.2273 -0.00131488 -4.047 0
M  V30 208 H 18.7973 0.463048 -3.09151 0
M  V30 209 H 18.0173 -2.00411 -3.39454 0
M  V30 210 H 19.3053 -2.17328 -4.6005 0
M  V30 211 H 18.7033 0.849147 -5.59291 0
M  V30 212 H 17.2603 0.596702 -6.49063 0
M  V30 213 N 20.6934 1.19889 -1.02296 0
M  V30 214 C 22.1044 1.71124 -0.746568 0
M  V30 215 C 22.4554 1.81939 0.734335 0
M  V30 216 O 21.5804 1.48639 1.57275 0
M  V30 217 C 22.1754 3.10804 -1.34857 0
M  V30 218 C 20.7344 3.59323 -1.1209 0
M  V30 219 C 19.8814 2.3635 -1.45031 0
M  V30 220 H 22.8324 1.04813 -1.19163 0
M  V30 221 H 22.8534 3.73186 -0.742437 0
M  V30 222 H 22.3654 3.029 -2.42638 0
M  V30 223 H 20.4664 3.7255 -0.0610337 0
M  V30 224 H 20.5794 4.4378 -1.80544 0
M  V30 225 H 18.9434 2.39399 -0.869487 0
M  V30 226 H 19.7264 2.31081 -2.53883 0
M  V30 227 N 22.1715 0.800033 1.35784 0
M  V30 228 C 23.1345 0.211565 2.28221 0
M  V30 229 C 24.1345 -0.59728 1.49296 0
M  V30 230 O 25.3245 -0.416721 1.69142 0
M  V30 231 C 22.4565 -0.705846 3.33513 0
M  V30 232 H 23.6495 1.02677 2.81776 0
M  V30 233 H 21.2025 0.570211 1.45528 0
M  V30 234 H 21.9375 -1.54498 2.85133 0
M  V30 235 H 21.7225 -0.127655 3.91892 0
M  V30 236 H 23.2125 -1.11211 4.02519 0
M  V30 237 N 23.6496 -1.47581 0.552962 0
M  V30 238 C 24.8976 -2.02082 0.0272703 0
M  V30 239 C 25.2186 -1.4301 -1.32563 0
M  V30 240 O 24.4886 -0.603745 -1.86365 0
M  V30 241 H 23.0686 -0.746966 0.00709182 0
M  V30 242 H 25.7306 -1.81033 0.722008 0
M  V30 243 H 24.8266 -3.12034 -0.0639951 0
M  V30 244 N 25.1277 -0.289203 -1.54924 0
M  V30 245 C 26.0377 0.601863 -2.26748 0
M  V30 246 C 27.0537 1.15834 -1.2984 0
M  V30 247 O 28.2297 1.18564 -1.62802 0
M  V30 248 C 25.2947 1.76299 -2.98529 0
M  V30 249 C 24.3557 1.24178 -4.10948 0
M  V30 250 C 23.5887 2.34757 -4.79296 0
M  V30 251 O 23.8117 3.54411 -4.46933 0
M  V30 252 O 22.7457 2.02115 -5.66951 0
M  V30 253 H 26.5717 0.0195879 -3.03694 0
M  V30 254 H 24.1567 -0.0560868 -1.49295 0
M  V30 255 H 26.0387 2.43973 -3.43592 0
M  V30 256 H 24.7137 2.33209 -2.24488 0
M  V30 257 H 23.6207 0.531104 -3.70311 0
M  V30 258 H 24.9537 0.718252 -4.86931 0
M  V30 259 N 26.6058 1.57591 -0.0167156 0
M  V30 260 C 27.5158 2.1291 0.98521 0
M  V30 261 C 28.5318 1.07834 1.36557 0
M  V30 262 O 29.7078 1.39826 1.44951 0
M  V30 263 C 26.7728 2.63512 2.25305 0
M  V30 264 C 25.8338 3.83256 1.93426 0
M  V30 265 C 25.0668 4.31435 3.14165 0
M  V30 266 O 25.2898 3.78851 4.26413 0
M  V30 267 O 24.2238 5.23416 2.97186 0
M  V30 268 H 28.0498 2.98772 0.544888 0
M  V30 269 H 25.6348 1.48012 0.203141 0
M  V30 270 H 27.5168 2.96183 2.99756 0
M  V30 271 H 26.1918 1.8074 2.68542 0
M  V30 272 H 25.0988 3.55531 1.16398 0
M  V30 273 H 26.4318 4.67153 1.55013 0
M  V30 274 N 28.0839 -0.256276 1.55502 0
M  V30 275 C 29.0139 -1.32102 1.92539 0
M  V30 276 C 29.9949 -1.50684 0.789194 0
M  V30 277 O 31.1799 -1.63449 1.04872 0
M  V30 278 C 28.3099 -2.67752 2.21192 0
M  V30 279 C 27.2639 -2.63878 3.36975 0
M  V30 280 C 26.5899 -4.03236 3.51147 0
M  V30 281 C 27.8899 -2.21682 4.72921 0
M  V30 282 H 29.5839 -1.01351 2.81724 0
M  V30 283 H 27.1299 -0.486105 1.35547 0
M  V30 284 H 29.0829 -3.42365 2.45691 0
M  V30 285 H 27.8069 -3.0012 1.28824 0
M  V30 286 H 26.4659 -1.91722 3.12471 0
M  V30 287 H 26.1139 -4.32854 2.56216 0
M  V30 288 H 25.8139 -4.01535 4.29003 0
M  V30 289 H 27.3379 -4.79563 3.77957 0
M  V30 290 H 28.7519 -2.86023 4.96854 0
M  V30 291 H 27.1489 -2.3111 5.53812 0
M  V30 292 H 28.2189 -1.16833 4.70615 0
M  V30 293 N 29.562 -1.4872 -0.521534 0
M  V30 294 C 30.525 -1.63379 -1.60748 0
M  V30 295 C 31.525 -0.50661 -1.52611 0
M  V30 296 O 32.715 -0.772601 -1.5613 0
M  V30 297 C 29.847 -1.61192 -3.00383 0
M  V30 298 H 31.04 -2.60217 -1.49087 0
M  V30 299 H 28.593 -1.37444 -0.744235 0
M  V30 300 H 29.328 -0.65863 -3.17541 0
M  V30 301 H 29.113 -2.43032 -3.07698 0
M  V30 302 H 30.603 -1.7466 -3.7932 0
M  V30 303 N 31.0401 0.771051 -1.3745 0
M  V30 304 C 32.2681 1.56015 -1.35893 0
M  V30 305 C 32.6831 1.88718 0.0555523 0
M  V30 306 O 32.0401 1.51502 1.01752 0
M  V30 307 C 32.0911 2.87001 -2.19801 0
M  V30 308 O 31.8121 2.557 -3.55738 0
M  V30 309 C 33.3131 3.81228 -2.26231 0
M  V30 310 H 30.5331 0.483317 -0.465453 0
M  V30 311 H 33.0771 0.955611 -1.80799 0
M  V30 312 H 31.2321 3.43877 -1.78402 0
M  V30 313 H 31.6461 3.39584 -3.99729 0
M  V30 314 H 33.1201 4.70139 -2.89263 0
M  V30 315 H 33.5971 4.20409 -1.27093 0
M  V30 316 H 34.2031 3.30281 -2.67945 0
M  V30 317 N 32.5182 1.22032 0.997298 0
M  V30 318 C 33.4812 0.987909 2.06816 0
M  V30 319 C 34.4812 -0.0440084 1.6074 0
M  V30 320 O 35.6712 0.194053 1.73116 0
M  V30 321 C 32.8032 0.49132 3.37341 0
M  V30 322 H 33.9962 1.93803 2.28868 0
M  V30 323 H 31.5492 1.03838 1.16822 0
M  V30 324 H 32.2842 -0.463364 3.20973 0
M  V30 325 H 32.0692 1.23575 3.72118 0
M  V30 326 H 33.5592 0.348824 4.16141 0
M  V30 327 N 33.9963 -1.19345 1.0293 0
M  V30 328 C 34.9443 -2.24621 0.604001 0
M  V30 329 C 35.9383 -1.65452 -0.363587 0
M  V30 330 O 37.1443 -1.78497 -0.23212 0
M  V30 331 H 33.5193 -0.730858 0.177061 0
M  V30 332 H 35.4903 -2.5781 1.50255 0
M  V30 333 C 34.2393 -3.47688 -0.0289127 0
M  V30 334 H 33.5623 -3.93505 0.706651 0
M  V30 335 H 35.0023 -4.23011 -0.289432 0
M  V30 336 C 33.4613 -3.11817 -1.2756 0
M  V30 337 O 33.9913 -3.2451 -2.36762 0
M  V30 338 N 32.1973 -2.66246 -1.16453 0
M  V30 339 H 31.7443 -2.56118 -0.275914 0
M  V30 340 H 31.7023 -2.42617 -1.99961 0
M  V30 341 N 35.4744 -0.807222 -1.35358 0
M  V30 342 C 36.4064 -0.175717 -2.28525 0
M  V30 343 C 37.4194 0.625354 -1.5031 0
M  V30 344 O 38.6084 0.457611 -1.72535 0
M  V30 345 C 35.7084 0.773471 -3.29956 0
M  V30 346 C 34.8814 0.0186296 -4.37396 0
M  V30 347 C 33.9404 0.886395 -5.18681 0
M  V30 348 O 32.9664 0.337106 -5.68201 0
M  V30 349 N 34.1684 2.20839 -5.36852 0
M  V30 350 H 36.9334 -0.976091 -2.83359 0
M  V30 351 H 34.4944 -0.662737 -1.47714 0
M  V30 352 H 36.4864 1.35824 -3.81227 0
M  V30 353 H 35.0564 1.47465 -2.75632 0
M  V30 354 H 34.2764 -0.747349 -3.87051 0
M  V30 355 H 35.5644 -0.501577 -5.06322 0
M  V30 356 H 34.9624 2.67858 -4.98265 0
M  V30 357 H 33.5194 2.74237 -5.91301 0
M  V30 358 N 36.9525 1.47285 -0.560781 0
M  V30 359 C 38.1805 2.06855 -0.0430262 0
M  V30 360 C 38.5955 1.41291 1.25229 0
M  V30 361 O 37.9525 0.510648 1.7521 0
M  V30 362 C 38.0035 3.61178 0.152518 0
M  V30 363 O 37.7245 4.24285 -1.0915 0
M  V30 364 C 39.2255 4.37624 0.707145 0
M  V30 365 H 36.4455 0.669319 -0.0474652 0
M  V30 366 H 38.9895 1.89237 -0.77521 0
M  V30 367 H 37.1445 3.78298 0.834843 0
M  V30 368 H 37.5585 5.16868 -0.891482 0
M  V30 369 H 39.0325 5.46271 0.793244 0
M  V30 370 H 39.5095 4.04152 1.71923 0
M  V30 371 H 40.1155 4.25257 0.0604027 0
M  V30 372 N 38.4306 0.297415 1.54768 0
M  V30 373 C 39.3936 -0.567375 2.22066 0
M  V30 374 C 40.3936 -1.06409 1.20556 0
M  V30 375 O 41.5836 -0.960691 1.45315 0
M  V30 376 C 38.7156 -1.78517 2.90421 0
M  V30 377 H 39.9086 0.0205534 2.99893 0
M  V30 378 H 37.4616 0.0482163 1.56226 0
M  V30 379 H 38.1966 -2.41303 2.16664 0
M  V30 380 H 37.9816 -1.43669 3.64831 0
M  V30 381 H 39.4716 -2.39964 3.41771 0
M  V30 382 N 39.9087 -1.5758 0.0250728 0
M  V30 383 C 40.8407 -2.06869 -0.986796 0
M  V30 384 C 41.8537 -0.991332 -1.29137 0
M  V30 385 O 43.0427 -1.26761 -1.25674 0
M  V30 386 C 40.1427 -2.47486 -2.31525 0
M  V30 387 C 39.3157 -3.78253 -2.19643 0
M  V30 388 C 38.3747 -4.05464 -3.35388 0
M  V30 389 O 37.4007 -4.75774 -3.12454 0
M  V30 390 N 38.6027 -3.55321 -4.59051 0
M  V30 391 H 41.3677 -2.94302 -0.566276 0
M  V30 392 H 38.9287 -1.6109 -0.161776 0
M  V30 393 H 40.9207 -2.62785 -3.07776 0
M  V30 394 H 39.4907 -1.65441 -2.65232 0
M  V30 395 H 38.7107 -3.7279 -1.28144 0
M  V30 396 H 39.9987 -4.63936 -2.08903 0
M  V30 397 H 39.3967 -2.98431 -4.80578 0
M  V30 398 H 37.9537 -3.75905 -5.32483 0
M  V30 399 N 41.3868 0.248026 -1.55636 0
M  V30 400 C 42.3188 1.32993 -1.8667 0
M  V30 401 C 43.3318 1.44345 -0.752877 0
M  V30 402 O 44.5208 1.45715 -1.03098 0
M  V30 403 C 41.6208 2.70863 -2.03682 0
M  V30 404 C 40.7938 2.81792 -3.34532 0
M  V30 405 C 39.8528 4.005 -3.41301 0
M  V30 406 O 38.8788 3.9008 -4.14519 0
M  V30 407 N 40.0808 5.13618 -2.70512 0
M  V30 408 H 42.8458 1.06707 -2.8006 0
M  V30 409 H 40.4068 0.438129 -1.55859 0
M  V30 410 H 42.3988 3.48612 -2.05553 0
M  V30 411 H 40.9688 2.89862 -1.17041 0
M  V30 412 H 40.1888 1.90729 -3.44987 0
M  V30 413 H 41.4768 2.86043 -4.20781 0
M  V30 414 H 40.8748 5.24975 -2.10755 0
M  V30 415 H 39.4318 5.89505 -2.78077 0
M  V30 416 N 42.8649 1.48995 0.513639 0
M  V30 417 C 44.2759 1.5119 1.09537 0
M  V30 418 C 44.6269 0.290906 1.94031 0
M  V30 419 O 43.7519 -0.60049 2.07902 0
M  V30 420 C 44.3469 2.73964 1.99322 0
M  V30 421 C 42.9059 2.78978 2.52682 0
M  V30 422 C 42.0529 2.44934 1.30009 0
M  V30 423 H 45.0039 1.55875 0.298125 0
M  V30 424 H 45.0249 2.53409 2.83838 0
M  V30 425 H 44.5369 3.62813 1.37799 0
M  V30 426 H 42.6379 1.94378 3.1788 0
M  V30 427 H 42.7509 3.8083 2.90698 0
M  V30 428 H 41.1149 1.9644 1.62122 0
M  V30 429 H 41.8979 3.36043 0.702131 0
M  V30 430 N 44.343 -0.763751 1.37857 0
M  V30 431 C 45.568 -1.55805 1.36893 0
M  V30 432 C 45.993 -1.88054 -0.0416135 0
M  V30 433 O 45.351 -1.49825 -1.02089 0
M  V30 434 C 45.399 -2.84012 2.22192 0
M  V30 435 O 44.503 -3.78732 1.63204 0
M  V30 436 H 43.844 -0.471638 0.46739 0
M  V30 437 H 46.374 -0.944657 1.81487 0
M  V30 438 H 46.384 -3.33037 2.35691 0
M  V30 439 H 45.059 -2.59869 3.24716 0
M  V30 440 H 43.636 -3.37402 1.58791 0
M  V30 441 N 45.8211 -1.22559 -0.990812 0
M  V30 442 C 47.0461 -1.07862 -1.77145 0
M  V30 443 C 47.4711 0.366447 -1.84496 0
M  V30 444 O 46.8291 1.26478 -1.29896 0
M  V30 445 C 46.8771 -1.69686 -3.18181 0
M  V30 446 O 45.9811 -0.951946 -4.01263 0
M  V30 447 H 45.3221 -0.378712 -0.545411 0
M  V30 448 H 47.8521 -1.62399 -1.2445 0
M  V30 449 H 47.8621 -1.74496 -3.68802 0
M  V30 450 H 46.5371 -2.74841 -3.12146 0
M  V30 451 H 45.1141 -0.980011 -3.59792 0
M  V30 452 N 47.2992 1.18797 -1.03562 0
M  V30 453 C 48.7102 1.70322 -0.764676 0
M  V30 454 C 49.0612 1.82708 0.714996 0
M  V30 455 O 48.1862 1.50299 1.55689 0
M  V30 456 C 48.7812 3.09356 -1.38145 0
M  V30 457 C 47.3402 3.58114 -1.15895 0
M  V30 458 C 46.4872 2.34798 -1.4753 0
M  V30 459 H 49.4382 1.03543 -1.20268 0
M  V30 460 H 49.4592 3.72378 -0.781977 0
M  V30 461 H 48.9712 3.00309 -2.45837 0
M  V30 462 H 47.0722 3.72464 -0.100544 0
M  V30 463 H 47.1852 4.4184 -1.8524 0
M  V30 464 H 45.5492 2.38464 -0.894829 0
M  V30 465 H 46.3322 2.28375 -2.56319 0
M  V30 466 N 48.7773 0.814389 1.34928 0
M  V30 467 C 49.7403 0.235759 2.27984 0
M  V30 468 C 50.7403 -0.581412 1.49921 0
M  V30 469 O 51.9303 -0.398758 1.69575 0
M  V30 470 C 49.0623 -0.670433 3.34242 0
M  V30 471 H 50.2553 1.05659 2.80671 0
M  V30 472 H 47.8083 0.585614 1.44915 0
M  V30 473 H 48.5433 -1.51466 2.86755 0
M  V30 474 H 48.3283 -0.0860822 3.92005 0
M  V30 475 H 49.8183 -1.06935 4.03676 0
M  V30 476 N 50.2554 -1.46986 0.568584 0
M  V30 477 C 51.1884 -2.27129 -0.220779 0
M  V30 478 C 52.1664 -1.34757 -0.909905 0
M  V30 479 O 53.3504 -1.64152 -0.926622 0
M  V30 480 C 50.4774 -3.12108 -1.31553 0
M  V30 481 C 49.5234 -4.20141 -0.733748 0
M  V30 482 S 50.3564 -5.33783 0.428479 0
M  V30 483 C 51.5124 -6.22327 -0.667811 0
M  V30 484 H 51.7454 -2.93731 0.459267 0
M  V30 485 H 49.2784 -1.5026 0.355154 0
M  V30 486 H 51.2364 -3.61636 -1.94241 0
M  V30 487 H 49.8974 -2.44847 -1.96746 0
M  V30 488 H 49.0904 -4.79373 -1.5562 0
M  V30 489 H 48.6924 -3.73553 -0.182812 0
M  V30 490 H 50.9844 -6.59364 -1.55708 0
M  V30 491 H 51.9274 -7.0801 -0.11258 0
M  V30 492 H 52.3354 -5.5618 -0.965601 0
M  V30 493 N 51.7335 -0.305618 -1.54608 0
M  V30 494 C 53.1495 0.0476228 -1.59529 0
M  V30 495 C 53.3495 1.52025 -1.32252 0
M  V30 496 O 52.4055 2.27368 -1.09818 0
M  V30 497 C 53.7185 -0.354471 -2.98603 0
M  V30 498 C 55.2665 -0.303622 -3.11524 0
M  V30 499 C 55.7415 -0.680608 -4.52915 0
M  V30 500 N 57.2325 -0.63332 -4.5885 0
M  V30 501 C 57.9675 -0.897432 -5.66334 0
M  V30 502 N 57.4635 -1.22775 -6.81834 0
M  V30 503 N 59.2565 -0.824186 -5.56025 0
M  V30 504 H 51.4075 -1.2653 -1.70599 0
M  V30 505 H 53.6705 -0.513291 -0.797017 0
M  V30 506 H 53.3765 -1.3798 -3.23503 0
M  V30 507 H 53.2505 0.289568 -3.76087 0
M  V30 508 H 55.6375 0.712472 -2.8637 0
M  V30 509 H 55.7185 -0.982348 -2.36185 0
M  V30 510 H 55.3625 -1.69453 -4.78799 0
M  V30 511 H 55.2925 0.0202385 -5.26596 0
M  V30 512 H 57.7835 -0.389138 -3.75891 0
M  V30 513 H 58.0965 -1.41513 -7.59733 0
M  V30 514 H 56.4415 -1.26583 -6.83375 0
M  V30 515 H 59.6325 -0.565748 -4.64669 0
M  V30 516 H 59.8055 -1.03338 -6.39707 0
M  V30 517 N 53.2116 1.57565 -0.0334293 0
M  V30 518 C 54.6276 1.56297 0.322997 0
M  V30 519 C 54.8276 1.03945 1.7262 0
M  V30 520 O 53.8836 0.688109 2.42943 0
M  V30 521 C 55.1966 3.00232 0.167664 0
M  V30 522 C 56.7446 3.12078 0.240107 0
M  V30 523 C 57.2196 4.57859 0.113513 0
M  V30 524 N 58.7106 4.62887 0.170359 0
M  V30 525 C 59.4456 5.73319 0.0962517 0
M  V30 526 N 58.9416 6.92794 -0.0291881 0
M  V30 527 N 60.7346 5.61898 0.150551 0
M  V30 528 H 52.8856 1.89923 -0.950956 0
M  V30 529 H 55.1486 0.873824 -0.367608 0
M  V30 530 H 54.8546 3.42501 -0.799102 0
M  V30 531 H 54.7286 3.654 0.936083 0
M  V30 532 H 57.1156 2.69718 1.19733 0
M  V30 533 H 57.1966 2.49623 -0.558763 0
M  V30 534 H 56.8406 5.009 -0.840314 0
M  V30 535 H 56.7706 5.18299 0.931302 0
M  V30 536 H 59.2616 3.76954 0.26728 0
M  V30 537 H 59.5746 7.7276 -0.0789252 0
M  V30 538 H 57.9196 6.94971 -0.0640299 0
M  V30 539 H 61.1106 4.67448 0.246981 0
M  V30 540 H 61.2836 6.47938 0.0893365 0
M  V30 541 N 54.6897 -0.239769 1.55765 0
M  V30 542 C 55.6197 -1.30052 1.9393 0
M  V30 543 C 56.6007 -1.49839 0.805132 0
M  V30 544 O 57.7857 -1.62328 1.06599 0
M  V30 545 C 54.9157 -2.65391 2.2402 0
M  V30 546 C 53.8697 -2.60289 3.39755 0
M  V30 547 C 53.1957 -3.99489 3.55405 0
M  V30 548 C 54.4957 -2.16654 4.75246 0
M  V30 549 H 56.1897 -0.983573 2.82783 0
M  V30 550 H 53.7357 -0.471701 1.36055 0
M  V30 551 H 55.6887 -3.3974 2.49308 0
M  V30 552 H 54.4127 -2.98736 1.32 0
M  V30 553 H 53.0717 -1.88398 3.14487 0
M  V30 554 H 52.7197 -4.30112 2.60793 0
M  V30 555 H 52.4197 -3.96962 4.33238 0
M  V30 556 H 53.9437 -4.75528 3.83022 0
M  V30 557 H 55.3577 -2.80737 4.99859 0
M  V30 558 H 53.7547 -2.25223 5.56232 0
M  V30 559 H 54.8247 -1.11835 4.71827 0
M  V30 560 N 56.1678 -1.49265 -0.50573 0
M  V30 561 C 57.3958 -1.62215 -1.28429 0
M  V30 562 C 57.8108 -0.291697 -1.86533 0
M  V30 563 O 57.1678 0.722233 -1.67601 0
M  V30 564 C 57.2188 -2.68735 -2.41793 0
M  V30 565 O 56.9398 -3.96619 -1.86078 0
M  V30 566 C 58.4408 -2.92346 -3.3324 0
M  V30 567 H 55.6608 -0.546239 -0.389697 0
M  V30 568 H 58.2048 -1.95265 -0.607609 0
M  V30 569 H 56.3598 -2.38476 -3.053 0
M  V30 570 H 56.7738 -4.55256 -2.60465 0
M  V30 571 H 58.2478 -3.70623 -4.09075 0
M  V30 572 H 58.7248 -2.02081 -3.89948 0
M  V30 573 H 59.3308 -3.24003 -2.75503 0
M  V30 574 N 57.6459 0.756429 -1.3826 0
M  V30 575 C 58.8919 1.51772 -1.34511 0
M  V30 576 C 59.2249 1.94089 0.0656691 0
M  V30 577 O 58.4999 1.65221 1.02626 0
M  V30 578 C 58.7829 2.77226 -2.29821 0
M  V30 579 C 58.6359 2.41065 -3.79747 0
M  V30 580 C 59.9549 3.79236 -2.23312 0
M  V30 581 H 57.0739 0.550578 -0.489931 0
M  V30 582 H 59.7159 0.866607 -1.69086 0
M  V30 583 H 57.8659 3.32784 -2.00467 0
M  V30 584 H 59.5379 1.91303 -4.19763 0
M  V30 585 H 57.7809 1.7356 -3.97567 0
M  V30 586 H 58.4519 3.3081 -4.41892 0
M  V30 587 H 60.9279 3.3321 -2.49219 0
M  V30 588 H 59.8039 4.64714 -2.92116 0
M  V30 589 H 60.0649 4.24615 -1.23102 0
M  V30 590 N 59.124 1.23083 0.984299 0
M  V30 591 C 60.401 0.9689 1.69917 0
M  V30 592 C 60.781 -0.513604 2.04757 0
M  V30 593 O 60.129 -1.48383 1.73767 0
M  V30 594 C 60.339 1.87518 2.94343 0
M  V30 595 C 61.687 2.13636 3.6694 0
M  V30 596 O 62.711 1.85036 3.04368 0
M  V30 597 O 61.57 2.62119 4.79537 0
M  V30 598 H 58.664 0.365095 0.742048 0
M  V30 599 H 61.21 1.34107 1.03987 0
M  V30 600 H 59.982 2.87756 2.65164 0
M  V30 601 H 59.605 1.50514 3.6801 0
M  V30 602 N 60.6021 -1.18246 1.0419 0
M  V30 603 C 61.8791 -1.84121 0.660208 0
M  V30 604 C 62.2591 -1.92778 -0.860221 0
M  V30 605 O 61.6071 -1.45464 -1.76217 0
M  V30 606 C 61.8171 -3.22355 1.33747 0
M  V30 607 C 63.1651 -3.98376 1.46906 0
M  V30 608 O 64.1891 -3.31799 1.29568 0
M  V30 609 O 63.0481 -5.17665 1.75171 0
M  V30 610 H 60.1421 -0.794036 0.231161 0
M  V30 611 H 62.6881 -1.25628 1.14087 0
M  V30 612 H 61.4601 -3.10964 2.37522 0
M  V30 613 H 61.0831 -3.88506 0.845515 0
M  V30 614 N 62.0802 -0.821533 -1.34494 0
M  V30 615 C 63.3272 -0.408946 -1.98328 0
M  V30 616 C 63.6552 1.02764 -1.65136 0
M  V30 617 O 62.9102 1.73026 -0.914349 0
M  V30 618 C 63.2092 -0.556512 -3.53041 0
M  V30 619 C 62.8752 -1.95861 -4.0614 0
M  V30 620 C 61.5372 -2.34217 -4.20352 0
M  V30 621 C 63.8892 -2.87523 -4.34718 0
M  V30 622 C 61.2172 -3.63572 -4.6047 0
M  V30 623 C 63.5692 -4.1634 -4.76281 0
M  V30 624 C 62.2332 -4.54675 -4.88699 0
M  V30 625 H 61.5032 -0.149644 -0.725732 0
M  V30 626 H 64.1502 -1.04521 -1.6046 0
M  V30 627 H 62.4552 0.163148 -3.9146 0
M  V30 628 H 64.1522 -0.217826 -4.00408 0
M  V30 629 H 60.7422 -1.65066 -3.95539 0
M  V30 630 H 64.9262 -2.59133 -4.23277 0
M  V30 631 H 60.1822 -3.93101 -4.68275 0
M  V30 632 H 64.3562 -4.87455 -4.97354 0
M  V30 633 H 61.9832 -5.54959 -5.19542 0
M  V30 634 N 63.5583 1.46682 -0.576371 0
M  V30 635 C 64.4683 2.34032 0.163141 0
M  V30 636 C 65.4843 1.49367 0.892501 0
M  V30 637 O 66.6603 1.82252 0.857106 0
M  V30 638 C 63.7253 3.26435 1.16795 0
M  V30 639 C 62.7863 4.26998 0.443944 0
M  V30 640 C 62.0193 5.14986 1.40088 0
M  V30 641 O 62.2423 5.05785 2.637 0
M  V30 642 O 61.1763 5.94906 0.914917 0
M  V30 643 H 65.0023 2.98607 -0.55388 0
M  V30 644 H 62.5873 1.45554 -0.336821 0
M  V30 645 H 64.4693 3.83459 1.74748 0
M  V30 646 H 63.1443 2.64465 1.86655 0
M  V30 647 H 62.0513 3.7368 -0.177271 0
M  V30 648 H 63.3843 4.91736 -0.213566 0
M  V30 649 N 65.0364 0.313813 1.54444 0
M  V30 650 C 66.2854 -0.292519 1.99568 0
M  V30 651 C 66.5984 -1.54011 1.20582 0
M  V30 652 O 67.8044 -2.22183 1.56035 0
M  V30 653 C 66.2604 -0.571752 3.55329 0
M  V30 654 C 65.8684 0.658229 4.43138 0
M  V30 655 C 67.6124 -1.13857 4.08946 0
M  V30 656 C 65.5194 0.351439 5.90355 0
M  V30 657 H 64.4494 -0.113079 0.745472 0
M  V30 658 H 67.1004 0.424518 1.78522 0
M  V30 659 H 65.4824 -1.34872 3.72325 0
M  V30 660 H 66.6564 1.43403 4.37918 0
M  V30 661 H 64.9714 1.14458 4.0036 0
M  V30 662 H 67.5684 -1.38257 5.16516 0
M  V30 663 H 67.9114 -2.08489 3.6033 0
M  V30 664 H 68.4444 -0.423015 3.95544 0
M  V30 665 H 65.1834 1.26667 6.43145 0
M  V30 666 H 64.7034 -0.386842 5.98551 0
M  V30 667 H 66.3824 -0.0423134 6.46986 0
M  V30 668 N 66.5145 -1.57545 0.0417849 0
M  V30 669 C 67.7625 -1.91937 -0.632829 0
M  V30 670 C 68.0835 -0.919978 -1.71934 0
M  V30 671 O 67.3535 0.0366064 -1.95866 0
M  V30 672 H 65.9335 -0.708493 -0.236742 0
M  V30 673 H 68.5955 -1.9468 0.0925745 0
M  V30 674 H 67.6915 -2.92912 -1.07746 0
M  V30 675 N 67.9926 0.231505 -1.5589 0
M  V30 676 C 69.4086 0.580748 -1.48659 0
M  V30 677 C 69.6086 1.87617 -0.73498 0
M  V30 678 O 68.6646 2.51046 -0.270586 0
M  V30 679 C 69.9776 0.669202 -2.93159 0
M  V30 680 C 71.5256 0.760499 -3.03621 0
M  V30 681 C 72.0006 0.880383 -4.49459 0
M  V30 682 N 73.4916 0.944861 -4.53461 0
M  V30 683 C 74.2266 1.05716 -5.63571 0
M  V30 684 N 73.7226 1.13403 -6.83456 0
M  V30 685 N 75.5156 1.09152 -5.514 0
M  V30 686 H 67.6666 -0.618695 -2.03189 0
M  V30 687 H 69.9296 -0.215728 -0.923128 0
M  V30 688 H 69.6356 -0.212904 -3.51055 0
M  V30 689 H 69.5096 1.5361 -3.44505 0
M  V30 690 H 71.8966 1.63305 -2.45796 0
M  V30 691 H 71.9776 -0.131864 -2.5546 0
M  V30 692 H 71.6216 0.0123284 -5.07899 0
M  V30 693 H 71.5516 1.78802 -4.95316 0
M  V30 694 H 74.0426 0.896176 -3.6712 0
M  V30 695 H 74.3556 1.21921 -7.63122 0
M  V30 696 H 72.7006 1.10333 -6.86186 0
M  V30 697 H 75.8916 1.02805 -4.56671 0
M  V30 698 H 76.0646 1.17558 -6.37247 0
M  V30 699 N 69.4707 1.49531 0.497807 0
M  V30 700 C 70.8817 1.52344 1.07927 0
M  V30 701 C 71.2327 0.311469 1.93712 0
M  V30 702 O 70.3577 -0.578405 2.08527 0
M  V30 703 C 70.9527 2.76062 1.96405 0
M  V30 704 C 69.5117 2.81643 2.49709 0
M  V30 705 C 68.6587 2.46299 1.27404 0
M  V30 706 H 71.6097 1.56182 0.281576 0
M  V30 707 H 71.6307 2.56405 2.81135 0
M  V30 708 H 71.1427 3.64254 1.33943 0
M  V30 709 H 69.2437 1.97739 3.15801 0
M  V30 710 H 69.3567 3.83891 2.86643 0
M  V30 711 H 67.7207 1.98148 1.60029 0
M  V30 712 H 68.5037 3.36769 0.66645 0
M  V30 713 N 70.9488 -0.749086 1.3866 0
M  V30 714 C 71.8788 -1.8764 1.38973 0
M  V30 715 C 72.8598 -1.68178 0.255004 0
M  V30 716 O 74.0448 -1.88704 0.458754 0
M  V30 717 C 71.1748 -3.25222 1.21851 0
M  V30 718 C 70.1288 -3.59295 2.32575 0
M  V30 719 C 69.4548 -4.95663 2.00555 0
M  V30 720 C 70.7548 -3.63709 3.7485 0
M  V30 721 H 72.4488 -1.87635 2.3331 0
M  V30 722 H 69.9948 -0.901329 1.12303 0
M  V30 723 H 71.9478 -4.03746 1.20695 0
M  V30 724 H 70.6718 -3.25719 0.239775 0
M  V30 725 H 69.3308 -2.83093 2.32925 0
M  V30 726 H 68.9788 -4.92724 1.01154 0
M  V30 727 H 68.6788 -5.19429 2.74714 0
M  V30 728 H 70.2028 -5.7656 2.01024 0
M  V30 729 H 71.6168 -4.32338 3.76506 0
M  V30 730 H 70.0138 -3.98986 4.48252 0
M  V30 731 H 71.0838 -2.63834 4.06841 0
M  V30 732 N 72.4269 -1.23603 -0.977757 0
M  V30 733 C 73.6749 -1.06759 -1.71601 0
M  V30 734 C 73.9959 0.395929 -1.90938 0
M  V30 735 O 73.2659 1.28356 -1.47992 0
M  V30 736 H 71.8459 -0.392062 -0.635843 0
M  V30 737 H 74.5079 -1.55362 -1.1768 0
M  V30 738 H 73.6039 -1.55763 -2.70452 0
M  V30 739 N 73.905 1.17692 -1.04816 0
M  V30 740 C 74.852 2.21581 -0.645797 0
M  V30 741 C 75.822 1.62367 0.350159 0
M  V30 742 O 77.007 1.89254 0.242433 0
M  V30 743 C 74.147 3.45092 -0.0227568 0
M  V30 744 C 73.26 4.18613 -1.06709 0
M  V30 745 C 72.395 5.29602 -0.411767 0
M  V30 746 C 71.434 5.94904 -1.44067 0
M  V30 747 N 70.571 6.97414 -0.809781 0
M  V30 748 H 75.411 2.55353 -1.5362 0
M  V30 749 H 72.948 1.25438 -0.768364 0
M  V30 750 H 74.906 4.15679 0.35588 0
M  V30 751 H 73.536 3.11917 0.831122 0
M  V30 752 H 72.588 3.46779 -1.5636 0
M  V30 753 H 73.9 4.63293 -1.84827 0
M  V30 754 H 73.054 6.06696 0.0206623 0
M  V30 755 H 71.793 4.86045 0.401438 0
M  V30 756 H 70.798 5.16544 -1.88316 0
M  V30 757 H 72.023 6.40542 -2.25571 0
M  V30 758 H 69.969 6.55998 -0.0170186 0
M  V30 759 H 69.886 7.40386 -1.52856 0
M  V30 760 H 71.154 7.78463 -0.401999 0
M  V30 761 N 75.3831 0.828654 1.34056 0
M  V30 762 C 76.6311 0.41863 1.97717 0
M  V30 763 C 76.9521 -1.02314 1.66002 0
M  V30 764 O 76.2221 -1.71119 0.953683 0
M  V30 765 H 74.8021 0.151809 0.731412 0
M  V30 766 H 77.4641 1.05936 1.63596 0
M  V30 767 H 76.5601 0.542318 3.07352 0
M  V30 768 N 76.8612 -1.46375 0.584142 0
M  V30 769 C 77.8082 -2.30323 -0.148286 0
M  V30 770 C 78.7782 -1.40703 -0.882713 0
M  V30 771 O 79.9632 -1.69651 -0.873099 0
M  V30 772 C 77.1032 -3.25196 -1.15507 0
M  V30 773 C 76.2162 -4.29915 -0.423943 0
M  V30 774 C 75.3512 -5.11914 -1.41838 0
M  V30 775 C 74.3902 -6.08381 -0.673736 0
M  V30 776 N 73.5272 -6.83242 -1.6163 0
M  V30 777 H 78.3672 -2.92427 0.573644 0
M  V30 778 H 75.9042 -1.44118 0.294703 0
M  V30 779 H 77.8622 -3.78646 -1.75166 0
M  V30 780 H 76.4922 -2.64898 -1.8447 0
M  V30 781 H 75.5442 -3.7931 0.287714 0
M  V30 782 H 76.8562 -4.98549 0.158128 0
M  V30 783 H 76.0102 -5.69648 -2.08773 0
M  V30 784 H 74.7492 -4.43243 -2.03438 0
M  V30 785 H 73.7542 -5.49799 0.00938483 0
M  V30 786 H 74.9792 -6.79071 -0.0631082 0
M  V30 787 H 72.9252 -6.1728 -2.22038 0
M  V30 788 H 72.8422 -7.48144 -1.08707 0
M  V30 789 H 74.1102 -7.45534 -2.27596 0
M  V30 790 N 78.3393 -0.321999 -1.54275 0
M  V30 791 C 79.5863 0.281044 -2.0054 0
M  V30 792 C 79.9143 1.52265 -1.21019 0
M  V30 793 O 79.1693 1.93687 -0.279982 0
M  V30 794 C 79.4683 0.661769 -3.5122 0
M  V30 795 C 79.1343 -0.480482 -4.48333 0
M  V30 796 C 77.7963 -0.794005 -4.74604 0
M  V30 797 C 80.1483 -1.24783 -5.06042 0
M  V30 798 C 77.4763 -1.87763 -5.55844 0
M  V30 799 C 79.8283 -2.32153 -5.88462 0
M  V30 800 C 78.4923 -2.64089 -6.13036 0
M  V30 801 H 77.7623 0.102841 -0.733829 0
M  V30 802 H 80.4093 -0.445453 -1.86247 0
M  V30 803 H 78.7143 1.46867 -3.63232 0
M  V30 804 H 80.4113 1.13989 -3.84457 0
M  V30 805 H 77.0013 -0.226039 -4.28004 0
M  V30 806 H 81.1853 -1.01887 -4.85729 0
M  V30 807 H 76.4413 -2.12954 -5.73115 0
M  V30 808 H 80.6153 -2.92057 -6.32199 0
M  V30 809 H 78.2423 -3.48185 -6.75775 0
M  V30 810 N 79.8174 1.5752 -0.0501392 0
M  V30 811 C 81.0654 1.9227 0.622642 0
M  V30 812 C 81.3864 0.929083 1.71444 0
M  V30 813 O 80.6564 -0.0262186 1.95882 0
M  V30 814 H 79.2364 0.709739 0.232981 0
M  V30 815 H 81.8984 1.94628 -0.102898 0
M  V30 816 H 80.9944 2.93479 1.06191 0
M  V30 817 N 81.2955 -0.223234 1.56011 0
M  V30 818 C 82.2435 -1.29627 1.93131 0
M  V30 819 C 83.2375 -1.48608 0.813146 0
M  V30 820 O 84.4435 -1.49802 0.997966 0
M  V30 821 H 80.8185 -0.434563 0.613726 0
M  V30 822 H 82.7895 -0.955995 2.82672 0
M  V30 823 C 81.5385 -2.63983 2.26292 0
M  V30 824 H 80.8615 -2.50185 3.11846 0
M  V30 825 H 82.3015 -3.3788 2.56151 0
M  V30 826 C 80.7605 -3.18866 1.08747 0
M  V30 827 O 81.2905 -4.00192 0.347727 0
M  V30 828 N 79.4965 -2.77217 0.871743 0
M  V30 829 H 79.0435 -2.1119 1.47501 0
M  V30 830 H 79.0015 -3.1428 0.0869905 0
M  V30 831 N 82.7736 -1.49793 -0.48987 0
M  V30 832 C 84.0196 -1.60078 -1.24511 0
M  V30 833 C 84.3526 -0.291608 -1.91998 0
M  V30 834 O 83.6276 0.705647 -1.81248 0
M  V30 835 C 83.9106 -2.76791 -2.30345 0
M  V30 836 C 83.7636 -4.17535 -1.67286 0
M  V30 837 C 85.0826 -2.89111 -3.31817 0
M  V30 838 H 82.2016 -0.582645 -0.451324 0
M  V30 839 H 84.8436 -1.82117 -0.541612 0
M  V30 840 H 82.9936 -2.5813 -2.90346 0
M  V30 841 H 84.6656 -4.4774 -1.11026 0
M  V30 842 H 82.9086 -4.22665 -0.976577 0
M  V30 843 H 83.5796 -4.95094 -2.44103 0
M  V30 844 H 86.0556 -3.06133 -2.81819 0
M  V30 845 H 84.9316 -3.72433 -4.03219 0
M  V30 846 H 85.1926 -1.9893 -3.94815 0
M  V30 847 N 84.2517 0.741722 -1.39055 0
M  V30 848 C 85.4817 1.52876 -1.3897 0
M  V30 849 C 85.8897 1.8919 0.0193266 0
M  V30 850 O 85.2327 1.54138 0.999356 0
M  V30 851 C 85.2947 2.84929 -2.19216 0
M  V30 852 C 84.9587 2.71086 -3.67915 0
M  V30 853 C 85.9557 2.40084 -4.61146 0
M  V30 854 C 83.6407 2.88168 -4.11418 0
M  V30 855 C 85.6347 2.26335 -5.95862 0
M  V30 856 C 83.3217 2.74037 -5.46211 0
M  V30 857 C 84.3197 2.43166 -6.38247 0
M  V30 858 O 84.0077 2.29115 -7.70559 0
M  V30 859 H 83.7397 0.479252 -0.476753 0
M  V30 860 H 86.2937 0.924751 -1.83405 0
M  V30 861 H 84.5237 3.47564 -1.69518 0
M  V30 862 H 86.2127 3.46509 -2.11392 0
M  V30 863 H 86.9787 2.26545 -4.28838 0
M  V30 864 H 82.8577 3.11191 -3.40119 0
M  V30 865 H 86.4017 2.0216 -6.67665 0
M  V30 866 H 82.2987 2.87153 -5.78112 0
M  V30 867 H 83.0667 2.44237 -7.81211 0
M  V30 868 N 85.7298 1.2412 0.971189 0
M  V30 869 C 86.6598 1.05508 2.08304 0
M  V30 870 C 87.6408 -0.0308864 1.70072 0
M  V30 871 O 88.8258 0.135521 1.93727 0
M  V30 872 C 85.9558 0.655365 3.4106 0
M  V30 873 C 84.9098 1.68971 3.93234 0
M  V30 874 C 84.2358 1.14516 5.22293 0
M  V30 875 C 85.5358 3.08487 4.21465 0
M  V30 876 H 87.2298 1.98507 2.24132 0
M  V30 877 H 84.7758 0.955821 1.07704 0
M  V30 878 H 86.7288 0.51217 4.18276 0
M  V30 879 H 85.4528 -0.31032 3.25122 0
M  V30 880 H 84.1118 1.82106 3.18171 0
M  V30 881 H 83.7598 0.170189 5.02712 0
M  V30 882 H 83.4598 1.83635 5.58168 0
M  V30 883 H 84.9838 1.01401 6.02121 0
M  V30 884 H 86.3978 2.98601 4.89398 0
M  V30 885 H 84.7948 3.74926 4.68562 0
M  V30 886 H 85.8648 3.56787 3.28376 0
M  V30 887 N 87.2079 -1.17134 1.05439 0
M  V30 888 C 88.1709 -2.19439 0.661764 0
M  V30 889 C 89.1709 -1.58199 -0.288042 0
M  V30 890 O 90.3609 -1.74053 -0.0715803 0
M  V30 891 C 87.4929 -3.40889 -0.0276209 0
M  V30 892 H 88.6859 -2.55688 1.56728 0
M  V30 893 H 86.2389 -1.31259 0.848567 0
M  V30 894 H 86.9739 -3.10187 -0.94629 0
M  V30 895 H 86.7589 -3.86586 0.655238 0
M  V30 896 H 88.2489 -4.16603 -0.288342 0
M  V30 897 N 88.686 -0.835752 -1.33615 0
M  V30 898 C 90.102 -0.523139 -1.50783 0
M  V30 899 C 90.302 0.950171 -1.77691 0
M  V30 900 O 89.358 1.73411 -1.83534 0
M  V30 901 C 90.671 -1.39378 -2.66448 0
M  V30 902 C 92.219 -1.39223 -2.80332 0
M  V30 903 C 92.694 -2.24765 -3.99055 0
M  V30 904 N 94.185 -2.22458 -4.06284 0
M  V30 905 C 94.92 -2.85386 -4.97336 0
M  V30 906 N 94.416 -3.57354 -5.93523 0
M  V30 907 N 96.209 -2.74872 -4.90308 0
M  V30 908 H 88.36 -1.78952 -1.14411 0
M  V30 909 H 90.623 -0.763297 -0.562212 0
M  V30 910 H 90.329 -2.44061 -2.53234 0
M  V30 911 H 90.203 -1.0676 -3.61776 0
M  V30 912 H 92.59 -0.353136 -2.92979 0
M  V30 913 H 92.671 -1.75846 -1.85773 0
M  V30 914 H 92.315 -3.28732 -3.87167 0
M  V30 915 H 92.245 -1.85485 -4.92852 0
M  V30 916 H 94.736 -1.70119 -3.37443 0
M  V30 917 H 95.049 -4.02584 -6.59656 0
M  V30 918 H 93.394 -3.61461 -5.93608 0
M  V30 919 H 96.585 -2.18213 -4.14126 0
M  V30 920 H 96.758 -3.24199 -5.61069 0
M  V30 921 N 90.1641 1.46063 -0.591896 0
M  V30 922 C 91.0941 2.33172 0.123673 0
M  V30 923 C 92.0751 1.45897 0.87453 0
M  V30 924 O 93.2601 1.74698 0.848181 0
M  V30 925 C 90.3901 3.28336 1.13194 0
M  V30 926 C 89.3441 4.25124 0.495324 0
M  V30 927 C 88.6701 5.09863 1.61071 0
M  V30 928 C 89.9701 5.19143 -0.573425 0
M  V30 929 H 91.6641 2.93252 -0.603646 0
M  V30 930 H 89.2101 1.41014 -0.291741 0
M  V30 931 H 91.1631 3.88137 1.64097 0
M  V30 932 H 89.8871 2.66383 1.88965 0
M  V30 933 H 88.5461 3.66599 0.00729452 0
M  V30 934 H 88.1941 4.44288 2.35832 0
M  V30 935 H 87.8941 5.75417 1.19035 0
M  V30 936 H 89.4181 5.72529 2.12233 0
M  V30 937 H 90.8321 5.73106 -0.1491 0
M  V30 938 H 89.2291 5.93089 -0.914636 0
M  V30 939 H 90.2991 4.62519 -1.45617 0
M  V30 940 N 91.6422 0.330177 1.54103 0
M  V30 941 C 92.5892 -0.532762 2.24567 0
M  V30 942 C 93.5592 -1.10635 1.23892 0
M  V30 943 O 94.7442 -1.14546 1.5259 0
M  V30 944 C 91.8842 -1.6845 3.01195 0
M  V30 945 C 90.9972 -1.13951 4.167 0
M  V30 946 C 90.1322 -2.25746 4.80845 0
M  V30 947 C 89.1712 -1.6853 5.88442 0
M  V30 948 N 88.3082 -2.74014 6.46421 0
M  V30 949 H 93.1482 0.0746905 2.97906 0
M  V30 950 H 90.6852 0.048632 1.4702 0
M  V30 951 H 92.6432 -2.36234 3.43874 0
M  V30 952 H 91.2732 -2.26314 2.30178 0
M  V30 953 H 90.3252 -0.35301 3.78758 0
M  V30 954 H 91.6372 -0.680892 4.94131 0
M  V30 955 H 90.7912 -3.01422 5.26526 0
M  V30 956 H 89.5302 -2.74947 4.0281 0
M  V30 957 H 88.5352 -0.913543 5.42157 0
M  V30 958 H 89.7602 -1.20198 6.68378 0
M  V30 959 H 87.7062 -3.22494 5.71256 0
M  V30 960 H 87.6232 -2.32735 7.19285 0
M  V30 961 H 88.8912 -3.49499 6.96757 0
M  V30 962 N 93.1203 -1.57491 0.0584922 0
M  V30 963 C 94.0303 -2.15448 -0.928414 0
M  V30 964 C 95.0463 -1.11416 -1.3365 0
M  V30 965 O 96.2223 -1.4362 -1.41193 0
M  V30 966 C 93.2873 -2.69393 -2.18239 0
M  V30 967 C 92.3483 -3.88249 -1.83196 0
M  V30 968 C 91.5813 -4.39613 -3.02616 0
M  V30 969 O 91.8043 -3.90023 -4.16219 0
M  V30 970 O 90.7383 -5.31111 -2.83204 0
M  V30 971 H 94.5643 -3.00112 -0.465483 0
M  V30 972 H 92.1493 -1.48499 -0.163826 0
M  V30 973 H 94.0313 -3.04026 -2.91798 0
M  V30 974 H 92.7063 -1.87796 -2.63656 0
M  V30 975 H 91.6133 -3.58492 -1.06931 0
M  V30 976 H 92.9463 -4.71098 -1.42573 0
M  V30 977 N 94.5984 0.214957 -1.56127 0
M  V30 978 C 95.8234 0.95924 -1.83884 0
M  V30 979 C 96.2484 1.7689 -0.639644 0
M  V30 980 O 95.6064 1.76566 0.411601 0
M  V30 981 C 95.6544 1.84723 -3.09693 0
M  V30 982 O 94.7584 2.94346 -2.8885 0
M  V30 983 H 94.0994 0.27125 -0.606069 0
M  V30 984 H 96.6294 0.226276 -2.03345 0
M  V30 985 H 96.6394 2.25576 -3.39969 0
M  V30 986 H 95.3144 1.25218 -3.96602 0
M  V30 987 H 93.8914 2.57391 -2.69823 0
M  V30 988 N 96.0765 1.50051 0.48192 0
M  V30 989 C 97.0265 1.64512 1.5786 0
M  V30 990 C 98.0105 0.500073 1.52932 0
M  V30 991 O 99.2025 0.753964 1.60139 0
M  V30 992 C 96.3315 1.73263 2.9637 0
M  V30 993 C 95.4175 2.93409 3.06222 0
M  V30 994 N 95.8085 4.17236 2.85915 0
M  V30 995 C 94.1065 2.91742 3.37346 0
M  V30 996 C 94.8075 4.981 3.00451 0
M  V30 997 N 93.7835 4.3184 3.30174 0
M  V30 998 H 97.5855 2.57955 1.40842 0
M  V30 999 H 95.0995 1.47086 0.688439 0
M  V30 1000 H 97.0965 1.81724 3.75209 0
M  V30 1001 H 95.7565 0.809711 3.14442 0
M  V30 1002 H 96.7675 4.46909 2.6171 0
M  V30 1003 H 93.4445 2.08907 3.61475 0
M  V30 1004 H 94.8345 6.06532 2.89082 0
M  V30 1005 N 97.5546 -0.734337 1.39446 0
M  V30 1006 C 98.8016 -1.49391 1.36706 0
M  V30 1007 C 99.1296 -1.94465 -0.0367813 0
M  V30 1008 O 98.3846 -1.67154 -1.01774 0
M  V30 1009 C 98.6836 -2.74711 2.28623 0
M  V30 1010 C 98.3496 -2.48501 3.76242 0
M  V30 1011 C 97.0116 -2.41062 4.16464 0
M  V30 1012 C 99.3636 -2.26098 4.69606 0
M  V30 1013 C 96.6916 -2.09262 5.48112 0
M  V30 1014 C 99.0436 -1.95814 6.01531 0
M  V30 1015 C 97.7076 -1.86845 6.40816 0
M  V30 1016 H 96.9776 -0.546661 0.500243 0
M  V30 1017 H 99.6246 -0.842788 1.71957 0
M  V30 1018 H 97.9296 -3.44569 1.86492 0
M  V30 1019 H 99.6266 -3.32741 2.23796 0
M  V30 1020 H 96.2166 -2.55169 3.44364 0
M  V30 1021 H 100.401 -2.30812 4.39363 0
M  V30 1022 H 95.6566 -2.00841 5.77471 0
M  V30 1023 H 99.8306 -1.77488 6.73403 0
M  V30 1024 H 97.4576 -1.6197 7.42745 0
M  V30 1025 N 99.0327 -1.24633 -0.964593 0
M  V30 1026 C 100.282 -1.08188 -1.7023 0
M  V30 1027 C 100.595 0.37873 -1.91898 0
M  V30 1028 O 101.801 0.663427 -2.6327 0
M  V30 1029 C 100.257 -1.88773 -3.06419 0
M  V30 1030 C 99.8647 -3.39263 -2.92582 0
M  V30 1031 C 101.609 -1.80867 -3.84041 0
M  V30 1032 C 99.5157 -4.1218 -4.24101 0
M  V30 1033 H 98.4457 -0.401245 -0.638372 0
M  V30 1034 H 101.097 -1.48742 -1.07462 0
M  V30 1035 H 99.4787 -1.41035 -3.70034 0
M  V30 1036 H 100.653 -3.94603 -2.37961 0
M  V30 1037 H 98.9677 -3.48154 -2.28424 0
M  V30 1038 H 101.565 -2.32646 -4.81435 0
M  V30 1039 H 101.908 -0.774543 -4.09031 0
M  V30 1040 H 102.441 -2.26301 -3.27159 0
M  V30 1041 H 99.1797 -5.15965 -4.04303 0
M  V30 1042 H 98.6997 -3.61626 -4.78526 0
M  V30 1043 H 100.379 -4.19349 -4.92702 0
M  V30 1044 N 100.511 1.16574 -1.06058 0
M  V30 1045 C 101.757 1.87324 -0.777022 0
M  V30 1046 C 102.09 1.81351 0.694645 0
M  V30 1047 O 101.365 1.22753 1.50871 0
M  V30 1048 C 101.648 3.36991 -1.26922 0
M  V30 1049 C 101.501 3.51667 -2.80447 0
M  V30 1050 C 102.82 4.3131 -0.87521 0
M  V30 1051 H 99.9388 0.680191 -0.28374 0
M  V30 1052 H 102.581 1.37036 -1.3161 0
M  V30 1053 H 100.731 3.79949 -0.81063 0
M  V30 1054 H 102.403 3.17664 -3.34495 0
M  V30 1055 H 100.646 2.93656 -3.19294 0
M  V30 1056 H 101.317 4.56766 -3.0995 0
M  V30 1057 H 103.793 3.9624 -1.27014 0
M  V30 1058 H 102.669 5.34545 -1.2471 0
M  V30 1059 H 102.93 4.41552 0.220071 0
M  V30 1060 N 101.989 0.842826 1.3317 0
M  V30 1061 C 102.952 0.284065 2.27433 0
M  V30 1062 C 103.952 -0.54948 1.5112 0
M  V30 1063 O 105.142 -0.362699 1.70382 0
M  V30 1064 C 102.274 -0.599384 3.35589 0
M  V30 1065 H 103.467 1.11589 2.78366 0
M  V30 1066 H 101.02 0.616221 1.4364 0
M  V30 1067 H 101.755 -1.45349 2.89904 0
M  V30 1068 H 101.54 -0.00291266 3.921 0
M  V30 1069 H 103.03 -0.983488 4.05854 0
M  V30 1070 N 103.467 -1.45747 0.599634 0
M  V30 1071 C 104.397 -2.33235 -0.111306 0
M  V30 1072 C 105.378 -1.46359 -0.866781 0
M  V30 1073 O 106.563 -1.75146 -0.838904 0
M  V30 1074 C 103.693 -3.28932 -1.11451 0
M  V30 1075 C 102.647 -4.25381 -0.472772 0
M  V30 1076 C 101.973 -5.1071 -1.58365 0
M  V30 1077 C 103.273 -5.18831 0.600948 0
M  V30 1078 H 104.967 -2.92927 0.61919 0
M  V30 1079 H 102.513 -1.40857 0.299215 0
M  V30 1080 H 104.466 -3.89002 -1.62036 0
M  V30 1081 H 103.19 -2.67381 -1.8755 0
M  V30 1082 H 101.849 -3.66598 0.0121472 0
M  V30 1083 H 101.497 -4.45533 -2.33473 0
M  V30 1084 H 101.197 -5.7604 -1.15982 0
M  V30 1085 H 102.721 -5.73647 -2.09194 0
M  V30 1086 H 104.135 -5.73019 0.179491 0
M  V30 1087 H 102.532 -5.92595 0.946076 0
M  V30 1088 H 103.602 -4.6174 1.48068 0
M  V30 1089 N 104.945 -0.338344 -1.53925 0
M  V30 1090 C 105.892 0.520845 -2.24846 0
M  V30 1091 C 106.862 1.09976 -1.24477 0
M  V30 1092 O 108.047 1.13735 -1.53196 0
M  V30 1093 C 105.187 1.6685 -3.02084 0
M  V30 1094 C 104.3 1.11739 -4.17299 0
M  V30 1095 C 103.435 2.23193 -4.82036 0
M  V30 1096 C 102.474 1.65407 -5.89328 0
M  V30 1097 N 101.611 2.70582 -6.47866 0
M  V30 1098 H 106.451 -0.0904881 -2.97863 0
M  V30 1099 H 103.988 -0.0564282 -1.46992 0
M  V30 1100 H 105.946 2.34407 -3.45122 0
M  V30 1101 H 104.576 2.2509 -2.31375 0
M  V30 1102 H 103.628 0.332919 -3.7894 0
M  V30 1103 H 104.94 0.654677 -4.94485 0
M  V30 1104 H 104.094 2.98626 -5.28117 0
M  V30 1105 H 102.833 2.72807 -4.04262 0
M  V30 1106 H 101.838 0.884779 -5.42634 0
M  V30 1107 H 103.063 1.16652 -6.69006 0
M  V30 1108 H 101.009 3.1946 -5.72959 0
M  V30 1109 H 100.926 2.28917 -7.20509 0
M  V30 1110 H 102.194 3.45799 -6.98601 0
M  V30 1111 N 106.423 1.57458 -0.0668435 0
M  V30 1112 C 107.669 1.93587 0.6043 0
M  V30 1113 C 108.002 0.946722 1.69561 0
M  V30 1114 O 107.277 -0.0248516 1.94484 0
M  V30 1115 C 107.56 3.40014 1.18585 0
M  V30 1116 C 107.413 4.49685 0.101529 0
M  V30 1117 C 108.732 3.87154 2.09284 0
M  V30 1118 H 105.851 0.703958 0.218202 0
M  V30 1119 H 108.493 1.89542 -0.131804 0
M  V30 1120 H 106.643 3.43592 1.81319 0
M  V30 1121 H 108.315 4.5823 -0.531279 0
M  V30 1122 H 106.558 4.30059 -0.568487 0
M  V30 1123 H 107.229 5.49266 0.54874 0
M  V30 1124 H 109.705 3.85551 1.56491 0
M  V30 1125 H 108.581 4.90231 2.46911 0
M  V30 1126 H 108.842 3.2481 2.99918 0
M  V30 1127 N 107.901 -0.206675 1.56239 0
M  V30 1128 C 108.831 -1.25909 1.96645 0
M  V30 1129 C 109.812 -1.48097 0.836734 0
M  V30 1130 O 110.997 -1.6003 1.10019 0
M  V30 1131 C 108.127 -2.6058 2.29599 0
M  V30 1132 C 107.081 -2.53024 3.452 0
M  V30 1133 C 106.407 -3.91861 3.63798 0
M  V30 1134 C 107.707 -2.06524 4.79734 0
M  V30 1135 H 109.401 -0.923369 2.84806 0
M  V30 1136 H 106.947 -0.442735 1.37025 0
M  V30 1137 H 108.9 -3.34375 2.56459 0
M  V30 1138 H 107.624 -2.95869 1.38307 0
M  V30 1139 H 106.283 -1.81684 3.18412 0
M  V30 1140 H 105.931 -4.24483 2.69857 0
M  V30 1141 H 105.631 -3.87683 4.4156 0
M  V30 1142 H 107.155 -4.67296 3.93022 0
M  V30 1143 H 108.569 -2.70072 5.05702 0
M  V30 1144 H 106.966 -2.13374 5.60885 0
M  V30 1145 H 108.036 -1.01802 4.74093 0
M  V30 1146 N 109.379 -1.50304 -0.473955 0
M  V30 1147 C 110.626 -1.6115 -1.22625 0
M  V30 1148 C 110.954 -0.310517 -1.92005 0
M  V30 1149 O 110.209 0.703419 -1.82621 0
M  V30 1150 C 110.508 -2.73938 -2.29549 0
M  V30 1151 C 110.174 -4.14519 -1.7744 0
M  V30 1152 C 108.836 -4.5277 -1.62949 0
M  V30 1153 C 111.188 -5.02392 -1.3875 0
M  V30 1154 C 108.516 -5.76639 -1.08187 0
M  V30 1155 C 110.868 -6.26805 -0.854309 0
M  V30 1156 C 109.532 -6.63861 -0.696011 0
M  V30 1157 H 108.802 -0.589691 -0.448715 0
M  V30 1158 H 111.449 -1.84228 -0.522705 0
M  V30 1159 H 109.754 -2.44937 -3.05799 0
M  V30 1160 H 111.451 -2.79534 -2.87509 0
M  V30 1161 H 108.041 -3.8434 -1.89685 0
M  V30 1162 H 112.225 -4.73474 -1.4878 0
M  V30 1163 H 107.481 -6.04027 -0.946666 0
M  V30 1164 H 111.655 -6.94258 -0.545843 0
M  V30 1165 H 109.282 -7.59722 -0.26952 0
M  V30 1166 N 110.857 0.726932 -1.39834 0
M  V30 1167 C 111.804 1.841 -1.39197 0
M  V30 1168 C 112.774 1.642 -0.250502 0
M  V30 1169 O 113.959 1.85494 -0.446846 0
M  V30 1170 C 111.099 3.21697 -1.24919 0
M  V30 1171 C 110.212 3.53247 -2.48678 0
M  V30 1172 C 109.347 4.80289 -2.26928 0
M  V30 1173 C 108.386 5.04707 -3.4632 0
M  V30 1174 N 107.523 6.22956 -3.23836 0
M  V30 1175 H 112.363 1.83979 -2.34427 0
M  V30 1176 H 109.9 0.898876 -1.16442 0
M  V30 1177 H 111.858 4.01137 -1.1465 0
M  V30 1178 H 110.488 3.21076 -0.333153 0
M  V30 1179 H 109.54 2.68447 -2.69519 0
M  V30 1180 H 110.852 3.67205 -3.37582 0
M  V30 1181 H 110.006 5.67725 -2.13947 0
M  V30 1182 H 108.745 4.68519 -1.35431 0
M  V30 1183 H 107.75 4.1573 -3.5979 0
M  V30 1184 H 108.975 5.18357 -4.38729 0
M  V30 1185 H 106.921 6.12459 -2.35011 0
M  V30 1186 H 106.838 6.37539 -4.063 0
M  V30 1187 H 108.106 7.1321 -3.14566 0
M  V30 1188 N 112.336 1.25143 0.95797 0
M  V30 1189 C 113.561 1.12521 1.74223 0
M  V30 1190 C 113.986 -0.317402 1.85403 0
M  V30 1191 O 113.344 -1.2299 1.33204 0
M  V30 1192 C 113.392 1.78062 3.1357 0
M  V30 1193 O 112.496 1.058 3.98598 0
M  V30 1194 H 111.837 0.39304 0.535178 0
M  V30 1195 H 114.367 1.65641 1.201 0
M  V30 1196 H 114.377 1.84213 3.64046 0
M  V30 1197 H 113.052 2.83021 3.04749 0
M  V30 1198 H 111.629 1.07506 3.57067 0
M  V30 1199 N 113.814 -1.1601 1.06675 0
M  V30 1200 C 114.746 -2.20115 0.638921 0
M  V30 1201 C 115.759 -1.59916 -0.305057 0
M  V30 1202 O 116.948 -1.78245 -0.0954446 0
M  V30 1203 C 114.048 -3.38798 -0.0830083 0
M  V30 1204 C 113.221 -4.2855 0.875426 0
M  V30 1205 C 112.28 -5.25849 0.192042 0
M  V30 1206 O 111.306 -5.63102 0.830921 0
M  V30 1207 N 112.508 -5.70648 -1.06493 0
M  V30 1208 H 115.273 -2.57439 1.53444 0
M  V30 1209 H 112.834 -1.31057 0.950557 0
M  V30 1210 H 114.826 -4.00936 -0.550685 0
M  V30 1211 H 113.396 -2.99947 -0.880386 0
M  V30 1212 H 112.616 -3.63617 1.52238 0
M  V30 1213 H 113.904 -4.85393 1.52548 0
M  V30 1214 H 113.302 -5.42482 -1.60405 0
M  V30 1215 H 111.859 -6.34859 -1.47641 0
M  V30 1216 N 115.292 -0.849877 -1.32721 0
M  V30 1217 C 116.541 -0.447175 -1.96681 0
M  V30 1218 C 116.854 1.00135 -1.68025 0
M  V30 1219 O 118.06 1.50926 -2.25685 0
M  V30 1220 C 116.516 -0.7487 -3.52026 0
M  V30 1221 C 116.124 -2.21264 -3.89546 0
M  V30 1222 C 117.868 -0.413487 -4.22481 0
M  V30 1223 C 115.775 -2.45763 -5.37917 0
M  V30 1224 H 114.705 -0.163486 -0.736063 0
M  V30 1225 H 117.356 -1.03999 -1.51183 0
M  V30 1226 H 115.738 -0.0853727 -3.95908 0
M  V30 1227 H 116.912 -2.91736 -3.56689 0
M  V30 1228 H 115.227 -2.5119 -3.32103 0
M  V30 1229 H 117.824 -0.574017 -5.3161 0
M  V30 1230 H 118.167 0.644492 -4.11281 0
M  V30 1231 H 118.7 -1.03251 -3.84167 0
M  V30 1232 H 115.439 -3.50168 -5.54132 0
M  V30 1233 H 114.959 -1.79864 -5.72197 0
M  V30 1234 H 116.638 -2.29471 -6.0494 0
M  V30 1235 N 116.77 1.45427 -0.607355 0
M  V30 1236 C 117.68 2.34325 0.113463 0
M  V30 1237 C 118.696 1.51226 0.860617 0
M  V30 1238 O 119.872 1.84029 0.818255 0
M  V30 1239 C 116.937 3.28839 1.09844 0
M  V30 1240 C 115.998 4.27844 0.353271 0
M  V30 1241 C 115.231 5.17842 1.29133 0
M  V30 1242 O 115.454 5.11264 2.52913 0
M  V30 1243 O 114.388 5.96713 0.788523 0
M  V30 1244 H 118.214 2.97364 -0.617094 0
M  V30 1245 H 115.799 1.44807 -0.367619 0
M  V30 1246 H 117.681 3.8708 1.66575 0
M  V30 1247 H 116.356 2.68365 1.81003 0
M  V30 1248 H 115.263 3.7322 -0.256494 0
M  V30 1249 H 116.596 4.91173 -0.317822 0
M  V30 1250 N 118.248 0.346503 1.53744 0
M  V30 1251 C 119.195 -0.508914 2.25119 0
M  V30 1252 C 120.165 -1.09315 1.25058 0
M  V30 1253 O 121.35 -1.12921 1.53797 0
M  V30 1254 C 118.49 -1.65246 3.02965 0
M  V30 1255 C 117.603 -1.09525 4.17886 0
M  V30 1256 C 116.738 -2.20634 4.83212 0
M  V30 1257 C 115.777 -1.62279 5.90196 0
M  V30 1258 N 114.914 -2.67143 6.49291 0
M  V30 1259 H 119.754 0.106283 2.9781 0
M  V30 1260 H 117.291 0.0642227 1.4696 0
M  V30 1261 H 119.249 -2.32574 3.4636 0
M  V30 1262 H 117.879 -2.2386 2.32565 0
M  V30 1263 H 116.931 -0.312818 3.79112 0
M  V30 1264 H 118.243 -0.628444 4.94825 0
M  V30 1265 H 117.397 -2.95821 5.29693 0
M  V30 1266 H 116.136 -2.70659 4.05703 0
M  V30 1267 H 115.141 -0.855989 5.43096 0
M  V30 1268 H 116.366 -1.13102 6.69615 0
M  V30 1269 H 114.312 -3.16417 5.74645 0
M  V30 1270 H 114.229 -2.25093 7.21713 0
M  V30 1271 H 115.497 -3.4209 7.00425 0
M  V30 1272 N 119.726 -1.57421 0.075193 0
M  V30 1273 C 120.636 -2.1642 -0.905511 0
M  V30 1274 C 121.652 -1.12828 -1.32461 0
M  V30 1275 O 122.828 -1.45109 -1.39661 0
M  V30 1276 C 119.893 -2.71693 -2.15369 0
M  V30 1277 C 118.954 -3.90171 -1.79068 0
M  V30 1278 C 118.187 -4.42798 -2.97936 0
M  V30 1279 O 118.41 -3.94416 -4.12058 0
M  V30 1280 O 117.344 -5.34085 -2.77555 0
M  V30 1281 H 121.17 -3.00588 -0.433626 0
M  V30 1282 H 118.755 -1.48664 -0.148067 0
M  V30 1283 H 120.637 -3.07104 -2.88557 0
M  V30 1284 H 119.312 -1.90582 -2.61649 0
M  V30 1285 H 118.219 -3.59606 -1.03122 0
M  V30 1286 H 119.552 -4.72584 -1.37569 0
M  V30 1287 N 121.204 0.198386 -1.56346 0
M  V30 1288 C 122.452 0.91747 -1.80075 0
M  V30 1289 C 122.773 1.83929 -0.647692 0
M  V30 1290 O 122.043 1.93029 0.334166 0
M  V30 1291 H 120.623 0.341774 -0.664228 0
M  V30 1292 H 123.285 0.204684 -1.93822 0
M  V30 1293 H 122.381 1.51055 -2.7311 0
M  V30 1294 N 122.682 1.50554 0.465978 0
M  V30 1295 C 123.612 1.72722 1.57128 0
M  V30 1296 C 124.593 0.576294 1.6004 0
M  V30 1297 O 125.778 0.81598 1.76225 0
M  V30 1298 C 122.908 1.82605 2.95419 0
M  V30 1299 C 121.862 2.97835 3.07373 0
M  V30 1300 C 121.188 2.92867 4.47363 0
M  V30 1301 C 122.488 4.38265 2.84114 0
M  V30 1302 H 124.182 2.65267 1.38829 0
M  V30 1303 H 121.728 1.2765 0.666441 0
M  V30 1304 H 123.681 1.96698 3.72677 0
M  V30 1305 H 122.405 0.866858 3.14886 0
M  V30 1306 H 121.064 2.83401 2.3255 0
M  V30 1307 H 120.712 1.94783 4.63755 0
M  V30 1308 H 120.412 3.70227 4.56296 0
M  V30 1309 H 121.936 3.09015 5.26633 0
M  V30 1310 H 123.35 4.53198 3.51118 0
M  V30 1311 H 121.747 5.17115 3.04487 0
M  V30 1312 H 122.817 4.50281 1.7993 0
M  V30 1313 N 124.16 -0.719506 1.40217 0
M  V30 1314 C 125.07 -1.86378 1.42479 0
M  V30 1315 C 126.086 -1.71073 0.317834 0
M  V30 1316 O 127.262 -1.93406 0.561794 0
M  V30 1317 C 124.327 -3.22136 1.28178 0
M  V30 1318 C 123.388 -3.49723 2.48982 0
M  V30 1319 C 122.621 -4.79004 2.35353 0
M  V30 1320 O 122.844 -5.53821 1.36524 0
M  V30 1321 O 121.778 -5.06839 3.2465 0
M  V30 1322 H 125.604 -1.87425 2.38968 0
M  V30 1323 H 123.189 -0.869405 1.21498 0
M  V30 1324 H 125.071 -4.03234 1.22395 0
M  V30 1325 H 123.746 -3.21825 0.347934 0
M  V30 1326 H 122.653 -2.6865 2.60342 0
M  V30 1327 H 123.986 -3.54828 3.41113 0
M  V30 1328 N 125.638 -1.25649 -0.95132 0
M  V30 1329 C 126.588 -1.03004 -2.03406 0
M  V30 1330 C 127.572 0.034187 -1.60864 0
M  V30 1331 O 128.764 -0.181549 -1.76066 0
M  V30 1332 C 125.893 -0.654255 -3.37008 0
M  V30 1333 C 124.979 -1.75542 -3.86065 0
M  V30 1334 N 125.37 -2.99113 -4.07879 0
M  V30 1335 C 123.668 -1.63669 -4.14884 0
M  V30 1336 C 124.369 -3.70611 -4.48356 0
M  V30 1337 N 123.345 -2.98247 -4.54477 0
M  V30 1338 H 127.147 -1.96813 -2.1827 0
M  V30 1339 H 124.661 -1.16017 -1.13639 0
M  V30 1340 H 126.658 -0.473206 -4.14206 0
M  V30 1341 H 125.318 0.276468 -3.23521 0
M  V30 1342 H 126.329 -3.35124 -3.94857 0
M  V30 1343 H 123.006 -0.775161 -4.10241 0
M  V30 1344 H 124.396 -4.76695 -4.73509 0
M  V30 1345 N 127.117 1.15442 -1.07289 0
M  V30 1346 C 128.049 2.19773 -0.650585 0
M  V30 1347 C 129.062 1.60076 0.296572 0
M  V30 1348 O 130.251 1.78293 0.0859905 0
M  V30 1349 C 127.351 3.38838 0.0650398 0
M  V30 1350 C 126.524 4.2808 -0.898141 0
M  V30 1351 C 125.583 5.2574 -0.219926 0
M  V30 1352 O 124.609 5.62654 -0.860773 0
M  V30 1353 N 125.811 5.71205 1.03466 0
M  V30 1354 H 128.576 2.56622 -1.54808 0
M  V30 1355 H 126.137 1.30551 -0.957494 0
M  V30 1356 H 128.129 4.01222 0.529415 0
M  V30 1357 H 126.699 3.00409 0.864466 0
M  V30 1358 H 125.919 3.62804 -1.54165 0
M  V30 1359 H 127.207 4.84577 -1.5512 0
M  V30 1360 H 126.605 5.43325 1.57526 0
M  V30 1361 H 125.162 6.35633 1.44272 0
M  V30 1362 N 128.595 0.856903 1.32268 0
M  V30 1363 C 129.525 0.31858 2.31316 0
M  V30 1364 C 130.506 -0.583487 1.59779 0
M  V30 1365 O 131.691 -0.503259 1.87566 0
M  V30 1366 C 128.821 -0.491979 3.43798 0
M  V30 1367 C 127.775 0.315849 4.26833 0
M  V30 1368 C 127.101 -0.619586 5.31098 0
M  V30 1369 C 128.401 1.54282 4.98993 0
M  V30 1370 H 130.095 1.14621 2.76591 0
M  V30 1371 H 127.641 0.552613 1.32974 0
M  V30 1372 H 129.594 -0.879012 4.1213 0
M  V30 1373 H 128.318 -1.35299 2.97257 0
M  V30 1374 H 126.977 0.684664 3.6015 0
M  V30 1375 H 126.625 -1.47751 4.8081 0
M  V30 1376 H 126.325 -0.0830621 5.87541 0
M  V30 1377 H 127.849 -1.00375 6.02293 0
M  V30 1378 H 129.263 1.22796 5.59995 0
M  V30 1379 H 127.66 2.01745 5.65172 0
M  V30 1380 H 128.73 2.30285 4.26728 0
M  V30 1381 N 130.073 -1.45103 0.615059 0
M  V30 1382 C 131.489 -1.57137 0.279322 0
M  V30 1383 C 131.689 -1.60523 -1.21797 0
M  V30 1384 O 130.745 -1.53956 -2.00134 0
M  V30 1385 C 132.058 -2.85062 0.957083 0
M  V30 1386 C 133.606 -2.98749 0.933706 0
M  V30 1387 C 134.081 -4.29455 1.59162 0
M  V30 1388 N 135.572 -4.36231 1.55746 0
M  V30 1389 C 136.307 -5.36051 2.0356 0
M  V30 1390 N 135.803 -6.42367 2.59494 0
M  V30 1391 N 137.596 -5.27456 1.94284 0
M  V30 1392 H 129.747 -1.41148 1.58717 0
M  V30 1393 H 132.01 -0.675331 0.665306 0
M  V30 1394 H 131.716 -2.88488 2.01166 0
M  V30 1395 H 131.59 -3.7407 0.48494 0
M  V30 1396 H 133.977 -2.94886 -0.112347 0
M  V30 1397 H 134.058 -2.11132 1.44419 0
M  V30 1398 H 133.702 -4.34077 2.63704 0
M  V30 1399 H 133.632 -5.15901 1.0561 0
M  V30 1400 H 136.123 -3.60011 1.14893 0
M  V30 1401 H 136.436 -7.14793 2.93752 0
M  V30 1402 H 134.781 -6.43097 2.63537 0
M  V30 1403 H 137.972 -4.43308 1.5032 0
M  V30 1404 H 138.145 -6.05099 2.3186 0
M  V30 1405 N 131.551 -0.354651 -1.53558 0
M  V30 1406 C 132.967 -0.00315426 -1.596 0
M  V30 1407 C 133.167 1.47741 -1.37021 0
M  V30 1408 O 132.223 2.23759 -1.16996 0
M  V30 1409 C 133.536 -0.44929 -2.97325 0
M  V30 1410 C 135.084 -0.402578 -3.104 0
M  V30 1411 C 135.559 -0.824355 -4.5052 0
M  V30 1412 N 137.05 -0.778979 -4.56603 0
M  V30 1413 C 137.785 -1.07715 -5.63192 0
M  V30 1414 N 137.281 -1.44405 -6.77583 0
M  V30 1415 N 139.074 -1.00066 -5.53121 0
M  V30 1416 H 131.225 -1.31893 -1.66487 0
M  V30 1417 H 133.488 -0.538388 -0.780284 0
M  V30 1418 H 133.194 -1.48202 -3.1895 0
M  V30 1419 H 133.068 0.169772 -3.76818 0
M  V30 1420 H 135.455 0.621004 -2.88492 0
M  V30 1421 H 135.536 -1.05699 -2.32941 0
M  V30 1422 H 135.18 -1.846 -4.73165 0
M  V30 1423 H 135.11 -0.147304 -5.26394 0
M  V30 1424 H 137.601 -0.508528 -3.74463 0
M  V30 1425 H 137.914 -1.65612 -7.54846 0
M  V30 1426 H 136.259 -1.4826 -6.79002 0
M  V30 1427 H 139.45 -0.713293 -4.62633 0
M  V30 1428 H 139.623 -1.23638 -6.36096 0
M  V30 1429 N 133.029 1.57378 -0.0835403 0
M  V30 1430 C 133.939 2.16897 0.894021 0
M  V30 1431 C 134.955 1.13528 1.31861 0
M  V30 1432 O 136.131 1.45848 1.3889 0
M  V30 1433 C 133.196 2.72831 2.13925 0
M  V30 1434 C 132.257 3.91115 1.76997 0
M  V30 1435 C 131.49 4.44371 2.95584 0
M  V30 1436 O 131.713 3.96596 4.09961 0
M  V30 1437 O 130.647 5.35549 2.74719 0
M  V30 1438 H 134.473 3.00814 0.417679 0
M  V30 1439 H 132.058 1.48741 0.140181 0
M  V30 1440 H 133.94 3.0863 2.86924 0
M  V30 1441 H 132.615 1.91967 2.60635 0
M  V30 1442 H 131.522 3.60148 1.01214 0
M  V30 1443 H 132.855 4.73307 1.3506 0
M  V30 1444 N 134.507 -0.190092 1.56449 0
M  V30 1445 C 135.756 -0.907912 1.80111 0
M  V30 1446 C 136.069 -1.84214 0.657619 0
M  V30 1447 O 137.275 -2.60094 0.778663 0
M  V30 1448 C 135.731 -1.66485 3.19078 0
M  V30 1449 C 135.339 -0.7752 4.41242 0
M  V30 1450 C 137.083 -2.37201 3.52045 0
M  V30 1451 C 134.99 -1.53129 5.71231 0
M  V30 1452 H 133.92 -0.34276 0.671589 0
M  V30 1453 H 136.571 -0.161109 1.82791 0
M  V30 1454 H 134.953 -2.45572 3.10661 0
M  V30 1455 H 136.127 -0.0226298 4.60794 0
M  V30 1456 H 134.442 -0.178627 4.16017 0
M  V30 1457 H 137.039 -2.94329 4.46402 0
M  V30 1458 H 137.382 -3.11632 2.76028 0
M  V30 1459 H 137.915 -1.65075 3.61932 0
M  V30 1460 H 134.654 -0.82967 6.50228 0
M  V30 1461 H 134.174 -2.25767 5.55688 0
M  V30 1462 H 135.853 -2.08377 6.12526 0
M  V30 1463 N 135.985 -1.50799 -0.457987 0
M  V30 1464 C 136.895 -1.73426 -1.57989 0
M  V30 1465 C 137.911 -0.617745 -1.62665 0
M  V30 1466 O 139.087 -0.897614 -1.80291 0
M  V30 1467 C 136.152 -1.83557 -2.94122 0
M  V30 1468 C 135.213 -3.07345 -2.99729 0
M  V30 1469 C 134.446 -3.16983 -4.29368 0
M  V30 1470 O 134.669 -2.33077 -5.20607 0
M  V30 1471 O 133.603 -4.09812 -4.40837 0
M  V30 1472 H 137.429 -2.68555 -1.41817 0
M  V30 1473 H 135.014 -1.35052 -0.638859 0
M  V30 1474 H 136.896 -1.92326 -3.74952 0
M  V30 1475 H 135.571 -0.916137 -3.10465 0
M  V30 1476 H 134.478 -3.04068 -2.1793 0
M  V30 1477 H 135.811 -3.9891 -2.88326 0
M  V30 1478 N 137.463 0.71206 -1.40597 0
M  V30 1479 C 138.712 1.46754 -1.38369 0
M  V30 1480 C 139.025 1.95598 0.0097839 0
M  V30 1481 O 140.231 2.71059 0.154677 0
M  V30 1482 C 138.687 2.65289 -2.43207 0
M  V30 1483 C 138.295 2.23301 -3.88382 0
M  V30 1484 C 140.039 3.43008 -2.50091 0
M  V30 1485 C 137.946 3.38696 -4.84808 0
M  V30 1486 H 136.876 0.55118 -0.514506 0
M  V30 1487 H 139.527 0.774616 -1.66349 0
M  V30 1488 H 137.909 3.36769 -2.08332 0
M  V30 1489 H 139.083 1.59218 -4.32419 0
M  V30 1490 H 137.398 1.58618 -3.85006 0
M  V30 1491 H 139.995 4.28881 -3.1932 0
M  V30 1492 H 140.338 3.87065 -1.53253 0
M  V30 1493 H 140.871 2.78574 -2.83974 0
M  V30 1494 H 137.61 2.99668 -5.82992 0
M  V30 1495 H 137.13 4.01683 -4.45433 0
M  V30 1496 H 138.809 4.04712 -5.04794 0
M  V30 1497 N 138.941 1.26152 0.944643 0
M  V30 1498 C 139.873 1.03199 2.04652 0
M  V30 1499 C 140.886 -0.00642356 1.62799 0
M  V30 1500 O 142.075 0.233263 1.76969 0
M  V30 1501 C 139.175 0.540111 3.34568 0
M  V30 1502 C 138.348 1.64697 4.05208 0
M  V30 1503 C 137.407 1.15374 5.13396 0
M  V30 1504 O 136.433 1.85013 5.38293 0
M  V30 1505 N 137.635 0.00031529 5.805 0
M  V30 1506 H 140.4 1.9808 2.2491 0
M  V30 1507 H 137.961 1.17491 1.11389 0
M  V30 1508 H 139.953 0.194401 4.04233 0
M  V30 1509 H 138.523 -0.315021 3.11009 0
M  V30 1510 H 137.743 2.16379 3.29506 0
M  V30 1511 H 139.031 2.3903 4.49157 0
M  V30 1512 H 138.429 -0.581336 5.62705 0
M  V30 1513 H 136.986 -0.286346 6.51171 0
M  V30 1514 N 140.419 -1.14872 1.07899 0
M  V30 1515 C 141.382 -2.17986 0.708161 0
M  V30 1516 C 142.382 -1.58775 -0.25442 0
M  V30 1517 O 143.572 -1.74166 -0.034645 0
M  V30 1518 C 140.704 -3.40871 0.0446929 0
M  V30 1519 H 141.897 -2.52306 1.62116 0
M  V30 1520 H 139.45 -1.2943 0.876218 0
M  V30 1521 H 140.185 -3.12124 -0.880281 0
M  V30 1522 H 139.97 -3.8511 0.737091 0
M  V30 1523 H 141.46 -4.17121 -0.19991 0
M  V30 1524 N 141.898 -0.863906 -1.31812 0
M  V30 1525 C 142.848 -0.286898 -2.26188 0
M  V30 1526 C 143.832 0.572577 -1.50367 0
M  V30 1527 O 145.024 0.420447 -1.71934 0
M  V30 1528 C 142.153 0.515849 -3.39402 0
M  V30 1529 C 141.239 -0.356531 -4.22599 0
M  V30 1530 N 141.63 -1.44716 -4.84656 0
M  V30 1531 C 139.928 -0.147898 -4.45755 0
M  V30 1532 C 140.629 -1.98462 -5.46798 0
M  V30 1533 N 139.605 -1.28247 -5.28255 0
M  V30 1534 H 143.407 -1.12055 -2.717 0
M  V30 1535 H 140.921 -0.711012 -1.46008 0
M  V30 1536 H 142.918 0.945701 -4.06032 0
M  V30 1537 H 141.578 1.34718 -2.95434 0
M  V30 1538 H 142.589 -1.83008 -4.84488 0
M  V30 1539 H 139.266 0.647973 -4.12441 0
M  V30 1540 H 140.656 -2.89932 -6.06126 0
M  V30 1541 N 143.376 1.44774 -0.622745 0
M  V30 1542 C 144.306 2.33382 0.0741861 0
M  V30 1543 C 145.287 1.47719 0.843387 0
M  V30 1544 O 146.472 1.76458 0.810934 0
M  V30 1545 C 143.602 3.30663 1.06204 0
M  V30 1546 C 142.556 4.26079 0.405037 0
M  V30 1547 C 141.882 5.13165 1.5022 0
M  V30 1548 C 143.182 5.1781 -0.683414 0
M  V30 1549 H 144.876 2.91905 -0.665713 0
M  V30 1550 H 142.422 1.40363 -0.321587 0
M  V30 1551 H 144.375 3.9153 1.55827 0
M  V30 1552 H 143.099 2.70331 1.83272 0
M  V30 1553 H 141.758 3.66532 -0.0704683 0
M  V30 1554 H 141.406 4.49191 2.26355 0
M  V30 1555 H 141.106 5.77812 1.06803 0
M  V30 1556 H 142.63 5.76902 2.00041 0
M  V30 1557 H 144.044 5.72661 -0.270631 0
M  V30 1558 H 142.441 5.91015 -1.04023 0
M  V30 1559 H 143.511 4.59326 -1.55395 0
M  V30 1560 N 144.854 0.36279 1.53368 0
M  V30 1561 C 145.786 -0.519668 2.23231 0
M  V30 1562 C 146.799 -1.04844 1.24546 0
M  V30 1563 O 147.988 -0.955296 1.50786 0
M  V30 1564 C 145.088 -1.72995 2.9142 0
M  V30 1565 C 144.261 -1.33316 4.16588 0
M  V30 1566 C 143.32 -2.40521 4.68013 0
M  V30 1567 O 142.346 -2.03027 5.3176 0
M  V30 1568 N 143.548 -3.72065 4.45587 0
M  V30 1569 H 146.313 0.078751 2.99597 0
M  V30 1570 H 143.874 0.187833 1.60807 0
M  V30 1571 H 145.866 -2.44184 3.22733 0
M  V30 1572 H 144.436 -2.2353 2.18525 0
M  V30 1573 H 143.656 -0.451236 3.91609 0
M  V30 1574 H 144.944 -1.04432 4.97967 0
M  V30 1575 H 144.342 -4.05304 3.94646 0
M  V30 1576 H 142.899 -4.39366 4.81457 0
M  V30 1577 N 146.332 -1.57332 0.0918853 0
M  V30 1578 C 147.282 -2.10385 -0.87876 0
M  V30 1579 C 148.266 -1.01814 -1.24591 0
M  V30 1580 O 149.458 -1.28093 -1.22152 0
M  V30 1581 C 146.587 -2.68517 -2.13901 0
M  V30 1582 C 145.673 -3.84126 -1.79744 0
M  V30 1583 N 146.064 -4.92288 -1.1613 0
M  V30 1584 C 144.362 -3.93801 -2.09373 0
M  V30 1585 C 145.063 -5.7295 -1.00513 0
M  V30 1586 N 144.039 -5.21876 -1.5214 0
M  V30 1587 H 147.841 -2.91395 -0.38293 0
M  V30 1588 H 145.355 -1.62017 -0.111423 0
M  V30 1589 H 147.352 -3.04852 -2.84378 0
M  V30 1590 H 146.012 -1.88961 -2.64053 0
M  V30 1591 H 147.023 -5.1123 -0.828504 0
M  V30 1592 H 143.7 -3.25249 -2.61762 0
M  V30 1593 H 145.09 -6.69978 -0.507902 0
M  V30 1594 N 147.81 0.181792 -1.56548 0
M  V30 1595 C 149.221 0.745244 -1.71181 0
M  V30 1596 C 149.572 1.83262 -0.70068 0
M  V30 1597 O 148.697 2.15946 0.140154 0
M  V30 1598 C 149.292 1.35859 -3.10367 0
M  V30 1599 C 147.851 1.86898 -3.2672 0
M  V30 1600 C 146.998 0.743942 -2.67134 0
M  V30 1601 H 149.949 -0.0434661 -1.5864 0
M  V30 1602 H 149.97 2.22817 -3.08436 0
M  V30 1603 H 149.482 0.566948 -3.83937 0
M  V30 1604 H 147.583 2.68738 -2.5809 0
M  V30 1605 H 147.696 2.02162 -4.34359 0
M  V30 1606 H 146.06 1.16169 -2.26665 0
M  V30 1607 H 146.843 -0.035676 -3.43281 0
M  V30 1608 N 149.288 1.51039 0.449983 0
M  V30 1609 C 150.236 1.71995 1.5659 0
M  V30 1610 C 151.23 0.586029 1.5894 0
M  V30 1611 O 152.436 0.76709 1.62837 0
M  V30 1612 H 148.811 0.543233 0.520001 0
M  V30 1613 H 150.782 2.65562 1.36085 0
M  V30 1614 C 149.531 1.8506 2.9436 0
M  V30 1615 H 148.854 2.71712 2.93279 0
M  V30 1616 H 150.294 2.0374 3.71842 0
M  V30 1617 C 148.753 0.607277 3.31382 0
M  V30 1618 O 149.283 -0.243903 4.00959 0
M  V30 1619 N 147.489 0.455073 2.87015 0
M  V30 1620 H 147.036 1.14879 2.30566 0
M  V30 1621 H 146.994 -0.375611 3.12148 0
M  V30 1622 N 150.766 -0.704594 1.40972 0
M  V30 1623 C 152.015 -1.46018 1.39146 0
M  V30 1624 C 152.328 -1.956 0.000589254 0
M  V30 1625 O 153.534 -2.71137 -0.1403 0
M  V30 1626 C 151.99 -2.63996 2.4461 0
M  V30 1627 C 151.598 -2.21238 3.89561 0
M  V30 1628 C 153.342 -3.41677 2.51907 0
M  V30 1629 C 151.249 -3.3612 4.86598 0
M  V30 1630 H 150.179 -0.548444 0.517422 0
M  V30 1631 H 152.83 -0.765784 1.66757 0
M  V30 1632 H 151.212 -3.3566 2.10115 0
M  V30 1633 H 152.386 -1.56923 4.33257 0
M  V30 1634 H 150.701 -1.56574 3.85841 0
M  V30 1635 H 153.298 -4.27182 3.2159 0
M  V30 1636 H 153.641 -3.86247 1.55303 0
M  V30 1637 H 154.174 -2.77064 2.85448 0
M  V30 1638 H 150.913 -2.96572 5.84573 0
M  V30 1639 H 150.433 -3.99315 4.47557 0
M  V30 1640 H 152.112 -4.02029 5.06934 0
M  V30 1641 N 152.244 -1.26651 -0.937939 0
M  V30 1642 C 153.174 -1.10993 -2.05433 0
M  V30 1643 C 154.155 -0.0142161 -1.70094 0
M  V30 1644 O 155.34 -0.186837 -1.93299 0
M  V30 1645 C 152.47 -0.745561 -3.39203 0
M  V30 1646 C 151.424 -1.79337 -3.88616 0
M  V30 1647 C 150.75 -1.28324 -5.19073 0
M  V30 1648 C 152.05 -3.19553 -4.13138 0
M  V30 1649 H 153.744 -2.0438 -2.1879 0
M  V30 1650 H 151.29 -0.984041 -1.05131 0
M  V30 1651 H 153.243 -0.622888 -4.16771 0
M  V30 1652 H 151.967 0.22401 -3.25831 0
M  V30 1653 H 150.626 -1.90477 -3.13231 0
M  V30 1654 H 150.274 -0.303414 -5.02084 0
M  V30 1655 H 149.974 -1.98369 -5.53103 0
M  V30 1656 H 151.498 -1.1733 -5.99221 0
M  V30 1657 H 152.912 -3.11471 -4.81309 0
M  V30 1658 H 151.309 -3.87218 -4.58457 0
M  V30 1659 H 152.379 -3.65368 -3.18801 0
M  V30 1660 N 153.722 1.14298 -1.08507 0
M  V30 1661 C 155.138 1.37347 -0.812901 0
M  V30 1662 C 155.338 1.93052 0.577325 0
M  V30 1663 O 154.394 2.14389 1.33393 0
M  V30 1664 C 155.707 2.33359 -1.89642 0
M  V30 1665 C 157.255 2.46996 -1.92255 0
M  V30 1666 C 157.73 3.46309 -2.99724 0
M  V30 1667 N 159.221 3.53853 -2.98902 0
M  V30 1668 C 159.956 4.3055 -3.787 0
M  V30 1669 N 159.452 5.10482 -4.6838 0
M  V30 1670 N 161.245 4.25757 -3.66998 0
M  V30 1671 H 153.396 0.764867 -1.9815 0
M  V30 1672 H 155.659 0.398966 -0.859959 0
M  V30 1673 H 155.365 1.99565 -2.89597 0
M  V30 1674 H 155.239 3.33274 -1.76659 0
M  V30 1675 H 157.626 2.80081 -0.929445 0
M  V30 1676 H 157.707 1.47039 -2.09316 0
M  V30 1677 H 157.351 3.13957 -3.99241 0
M  V30 1678 H 157.281 4.46049 -2.79907 0
M  V30 1679 H 159.772 2.96812 -2.33904 0
M  V30 1680 H 160.085 5.66284 -5.25873 0
M  V30 1681 H 158.43 5.09747 -4.72422 0
M  V30 1682 H 161.621 3.62383 -2.96304 0
M  V30 1683 H 161.794 4.85279 -4.29427 0
M  V30 1684 N 155.201 0.870884 1.31352 0
M  V30 1685 C 156.131 0.343096 2.30966 0
M  V30 1686 C 157.112 -0.566507 1.60389 0
M  V30 1687 O 158.297 -0.483336 1.88089 0
M  V30 1688 C 155.427 -0.455487 3.443 0
M  V30 1689 C 154.381 0.361103 4.26474 0
M  V30 1690 C 153.707 -0.563221 5.31725 0
M  V30 1691 C 155.007 1.59566 4.97329 0
M  V30 1692 H 156.701 1.17548 2.75359 0
M  V30 1693 H 154.247 0.566686 1.32381 0
M  V30 1694 H 156.2 -0.83525 4.13039 0
M  V30 1695 H 154.924 -1.32139 2.98675 0
M  V30 1696 H 153.583 0.722825 3.59403 0
M  V30 1697 H 153.231 -1.42643 4.82351 0
M  V30 1698 H 152.931 -0.0207409 5.87596 0
M  V30 1699 H 154.455 -0.939808 6.03324 0
M  V30 1700 H 155.869 1.28728 5.58661 0
M  V30 1701 H 154.266 2.07728 5.63 0
M  V30 1702 H 155.336 2.34798 4.24262 0
M  V30 1703 N 156.679 -1.44442 0.630414 0
M  V30 1704 C 157.909 -2.06115 0.141465 0
M  V30 1705 C 158.317 -1.47179 -1.1889 0
M  V30 1706 O 157.66 -0.588873 -1.74006 0
M  V30 1707 C 157.722 -3.59467 -0.0484355 0
M  V30 1708 C 157.386 -4.40864 1.20366 0
M  V30 1709 C 158.383 -4.74391 2.12719 0
M  V30 1710 C 156.068 -4.8125 1.43887 0
M  V30 1711 C 158.062 -5.47186 3.26904 0
M  V30 1712 C 155.749 -5.53795 2.5837 0
M  V30 1713 C 156.747 -5.86682 3.49705 0
M  V30 1714 O 156.435 -6.57749 4.62191 0
M  V30 1715 H 156.167 -0.671648 0.0765792 0
M  V30 1716 H 158.721 -1.86312 0.864695 0
M  V30 1717 H 156.951 -3.77758 -0.826803 0
M  V30 1718 H 158.64 -4.02909 -0.491849 0
M  V30 1719 H 159.406 -4.43728 1.95781 0
M  V30 1720 H 155.285 -4.55073 0.736853 0
M  V30 1721 H 158.829 -5.72773 3.98217 0
M  V30 1722 H 154.726 -5.83872 2.75251 0
M  V30 1723 H 155.494 -6.76217 4.61164 0
M  V30 1724 N 158.157 -0.370918 -1.53173 0
M  V30 1725 C 159.105 0.488101 -2.27421 0
M  V30 1726 C 160.099 1.07884 -1.30604 0
M  V30 1727 O 161.305 1.02143 -1.48212 0
M  V30 1728 H 157.68 0.176134 -0.731082 0
M  V30 1729 H 159.651 -0.159815 -2.97972 0
M  V30 1730 C 158.4 1.61306 -3.08019 0
M  V30 1731 H 157.723 1.1678 -3.82364 0
M  V30 1732 H 159.163 2.18872 -3.63141 0
M  V30 1733 C 157.622 2.55848 -2.19188 0
M  V30 1734 O 158.152 3.58799 -1.80626 0
M  V30 1735 N 156.358 2.2516 -1.83715 0
M  V30 1736 H 155.905 1.41476 -2.15273 0
M  V30 1737 H 155.863 2.8867 -1.24567 0
M  V30 1738 N 159.635 1.57281 -0.100228 0
M  V30 1739 C 160.865 1.98591 0.569681 0
M  V30 1740 C 161.273 0.978315 1.61943 0
M  V30 1741 O 160.616 -0.0396108 1.83657 0
M  V30 1742 C 160.678 3.36282 1.271 0
M  V30 1743 C 160.342 4.55488 0.371409 0
M  V30 1744 C 161.339 5.18491 -0.382504 0
M  V30 1745 C 159.024 5.01474 0.287965 0
M  V30 1746 C 161.018 6.25852 -1.20779 0
M  V30 1747 C 158.705 6.08701 -0.540965 0
M  V30 1748 C 159.703 6.70755 -1.28749 0
M  V30 1749 O 159.391 7.75914 -2.10269 0
M  V30 1750 H 159.123 0.65752 0.156982 0
M  V30 1751 H 161.677 2.0463 -0.177734 0
M  V30 1752 H 159.907 3.26941 2.0651 0
M  V30 1753 H 161.596 3.62005 1.83595 0
M  V30 1754 H 162.362 4.83891 -0.3278 0
M  V30 1755 H 158.241 4.52932 0.858689 0
M  V30 1756 H 161.785 6.74218 -1.79096 0
M  V30 1757 H 157.682 6.42732 -0.597131 0
M  V30 1758 H 158.45 7.92925 -2.03007 0
M  V30 1759 N 161.113 -0.173488 1.56642 0
M  V30 1760 C 162.36 -0.890465 1.81871 0
M  V30 1761 C 162.688 -1.82339 0.67696 0
M  V30 1762 O 161.943 -1.92795 -0.335926 0
M  V30 1763 C 162.242 -1.72069 3.13252 0
M  V30 1764 C 161.908 -0.936878 4.41059 0
M  V30 1765 C 160.57 -0.720545 4.75775 0
M  V30 1766 C 162.922 -0.386919 5.19762 0
M  V30 1767 C 160.25 0.0568829 5.86672 0
M  V30 1768 C 162.602 0.37741 6.31473 0
M  V30 1769 C 161.266 0.604563 6.64757 0
M  V30 1770 H 160.536 -0.325844 0.665512 0
M  V30 1771 H 163.183 -0.155527 1.90867 0
M  V30 1772 H 161.488 -2.52496 2.99588 0
M  V30 1773 H 163.185 -2.27844 3.29982 0
M  V30 1774 H 159.775 -1.11553 4.13828 0
M  V30 1775 H 163.959 -0.541398 4.93338 0
M  V30 1776 H 159.215 0.242635 6.10918 0
M  V30 1777 H 163.389 0.810825 6.91664 0
M  V30 1778 H 161.016 1.20885 7.50527 0
M  V30 1779 N 162.591 -1.51276 -0.441967 0
M  V30 1780 C 163.541 -1.6864 -1.53442 0
M  V30 1781 C 164.525 -0.540444 -1.51552 0
M  V30 1782 O 165.717 -0.796157 -1.58083 0
M  V30 1783 C 162.846 -1.8106 -2.91672 0
M  V30 1784 C 161.932 -3.01424 -2.98336 0
M  V30 1785 N 162.323 -4.2467 -2.74752 0
M  V30 1786 C 160.621 -3.00584 -3.29493 0
M  V30 1787 C 161.322 -5.05891 -2.87139 0
M  V30 1788 N 160.298 -4.40442 -3.18609 0
M  V30 1789 H 164.1 -2.61598 -1.33954 0
M  V30 1790 H 161.614 -1.4886 -0.6492 0
M  V30 1791 H 163.611 -1.91609 -3.70259 0
M  V30 1792 H 162.271 -0.892795 -3.12185 0
M  V30 1793 H 163.282 -4.53691 -2.49769 0
M  V30 1794 H 159.959 -2.18417 -3.55809 0
M  V30 1795 H 161.349 -6.13983 -2.72899 0
M  V30 1796 N 164.069 0.697108 -1.41344 0
M  V30 1797 C 165.346 1.45154 -1.31109 0
M  V30 1798 C 165.726 2.11009 0.0620449 0
M  V30 1799 O 165.074 2.01571 1.07618 0
M  V30 1800 C 165.284 2.47223 -2.46337 0
M  V30 1801 C 166.632 3.1252 -2.87431 0
M  V30 1802 O 167.656 2.57547 -2.46065 0
M  V30 1803 O 166.515 4.12083 -3.58957 0
M  V30 1804 H 163.609 0.646365 -0.515889 0
M  V30 1805 H 166.155 0.727716 -1.53305 0
M  V30 1806 H 164.927 1.97204 -3.37974 0
M  V30 1807 H 164.55 3.27116 -2.2601 0
M  V30 1808 N 165.547 1.27147 0.931209 0
M  V30 1809 C 166.51 1.09615 2.01289 0
M  V30 1810 C 167.51 0.0412581 1.60747 0
M  V30 1811 O 168.7 0.285545 1.71844 0
M  V30 1812 C 165.832 0.669447 3.34262 0
M  V30 1813 H 167.025 2.05662 2.18273 0
M  V30 1814 H 164.578 1.09885 1.11153 0
M  V30 1815 H 165.313 -0.292572 3.22978 0
M  V30 1816 H 165.098 1.43127 3.65044 0
M  V30 1817 H 166.588 0.568921 4.13706 0
M  V30 1818 N 167.025 -1.13721 1.09112 0
M  V30 1819 C 168.441 -1.36914 0.820174 0
M  V30 1820 C 168.641 -1.93356 -0.567079 0
M  V30 1821 O 167.697 -2.15093 -1.32255 0
M  V30 1822 C 169.01 -2.3235 1.90877 0
M  V30 1823 C 170.558 -2.45973 1.93562 0
M  V30 1824 C 171.033 -3.44714 3.01556 0
M  V30 1825 N 172.524 -3.52263 3.00775 0
M  V30 1826 C 173.259 -4.28536 3.80978 0
M  V30 1827 N 172.755 -5.07991 4.71081 0
M  V30 1828 N 174.548 -4.23804 3.69251 0
M  V30 1829 H 166.699 -0.754348 1.98553 0
M  V30 1830 H 168.962 -0.3944 0.862063 0
M  V30 1831 H 168.668 -1.98027 2.90651 0
M  V30 1832 H 168.542 -3.32332 1.78424 0
M  V30 1833 H 170.929 -2.79584 0.944286 0
M  V30 1834 H 171.01 -1.45926 2.10093 0
M  V30 1835 H 170.654 -3.11835 4.00901 0
M  V30 1836 H 170.584 -4.44558 2.82269 0
M  V30 1837 H 173.075 -2.95567 2.35475 0
M  V30 1838 H 173.388 -5.63487 5.28869 0
M  V30 1839 H 171.733 -5.07235 4.75119 0
M  V30 1840 H 174.924 -3.60806 2.98222 0
M  V30 1841 H 175.097 -4.82995 4.31995 0
M  V30 1842 N 168.503 -0.877838 -1.30888 0
M  V30 1843 C 169.919 -0.570844 -1.49042 0
M  V30 1844 C 170.119 0.893159 -1.80624 0
M  V30 1845 O 169.175 1.67485 -1.88958 0
M  V30 1846 C 170.488 -1.47784 -2.61878 0
M  V30 1847 C 172.036 -1.48071 -2.75761 0
M  V30 1848 C 172.511 -2.37347 -3.91702 0
M  V30 1849 N 174.002 -2.35271 -3.99001 0
M  V30 1850 C 174.737 -3.01063 -4.88004 0
M  V30 1851 N 174.233 -3.76055 -5.81854 0
M  V30 1852 N 176.026 -2.90332 -4.81315 0
M  V30 1853 H 168.177 -1.82502 -1.0866 0
M  V30 1854 H 170.44 -0.780797 -0.537644 0
M  V30 1855 H 170.146 -2.51993 -2.45341 0
M  V30 1856 H 170.02 -1.18215 -3.58197 0
M  V30 1857 H 172.407 -0.446166 -2.91708 0
M  V30 1858 H 172.488 -1.81668 -1.80085 0
M  V30 1859 H 172.132 -3.40883 -3.76512 0
M  V30 1860 H 172.062 -2.01071 -4.86701 0
M  V30 1861 H 174.553 -1.80768 -3.3186 0
M  V30 1862 H 174.866 -4.23366 -6.46514 0
M  V30 1863 H 173.211 -3.80163 -5.81808 0
M  V30 1864 H 176.402 -2.31278 -4.06974 0
M  V30 1865 H 176.575 -3.41885 -5.50471 0
M  V30 1866 N 169.982 1.44106 -0.638065 0
M  V30 1867 C 171.228 2.02277 -0.145546 0
M  V30 1868 C 171.561 1.50125 1.23191 0
M  V30 1869 O 170.836 0.688133 1.8192 0
M  V30 1870 C 171.119 3.59829 -0.139791 0
M  V30 1871 C 170.972 4.22247 -1.55008 0
M  V30 1872 C 172.291 4.36873 0.531966 0
M  V30 1873 H 169.41 0.734992 -0.0543632 0
M  V30 1874 H 172.052 1.71592 -0.815863 0
M  V30 1875 H 170.202 3.86102 0.431007 0
M  V30 1876 H 171.874 4.07057 -2.1703 0
M  V30 1877 H 170.117 3.79476 -2.10191 0
M  V30 1878 H 170.788 5.31284 -1.49804 0
M  V30 1879 H 173.264 4.16074 0.0464781 0
M  V30 1880 H 172.14 5.4657 0.505206 0
M  V30 1881 H 172.401 4.11995 1.60352 0
M  V30 1882 N 171.46 0.379036 1.52974 0
M  V30 1883 C 172.69 -0.20649 2.05566 0
M  V30 1884 C 173.098 -1.41906 1.25137 0
M  V30 1885 O 172.441 -1.81421 0.288464 0
M  V30 1886 C 172.503 -0.651086 3.53555 0
M  V30 1887 C 172.167 0.446626 4.54812 0
M  V30 1888 C 173.164 1.30079 5.03364 0
M  V30 1889 C 170.849 0.610719 4.98573 0
M  V30 1890 C 172.843 2.30426 5.94292 0
M  V30 1891 C 170.53 1.61754 5.89304 0
M  V30 1892 C 171.528 2.46274 6.37054 0
M  V30 1893 O 171.216 3.45237 7.25994 0
M  V30 1894 H 170.948 -0.0372381 0.674974 0
M  V30 1895 H 173.502 0.539718 1.98182 0
M  V30 1896 H 171.732 -1.44911 3.58522 0
M  V30 1897 H 173.421 -1.16112 3.88938 0
M  V30 1898 H 174.187 1.18527 4.70294 0
M  V30 1899 H 170.066 -0.0374044 4.60985 0
M  V30 1900 H 173.61 2.96432 6.31485 0
M  V30 1901 H 169.507 1.73348 6.21788 0
M  V30 1902 H 170.275 3.41124 7.44027 0
M  V30 1903 N 172.938 -1.57226 0.108567 0
M  V30 1904 C 173.868 -2.17778 -0.84232 0
M  V30 1905 C 174.849 -1.11487 -1.2847 0
M  V30 1906 O 176.034 -1.39681 -1.34918 0
M  V30 1907 C 173.164 -2.76888 -2.09644 0
M  V30 1908 C 172.118 -3.88669 -1.79221 0
M  V30 1909 C 171.444 -4.34541 -3.11574 0
M  V30 1910 C 172.744 -5.11251 -1.06864 0
M  V30 1911 H 174.438 -2.97489 -0.337774 0
M  V30 1912 H 171.984 -1.43097 -0.161025 0
M  V30 1913 H 173.937 -3.17904 -2.76614 0
M  V30 1914 H 172.661 -1.94451 -2.62405 0
M  V30 1915 H 171.32 -3.48213 -1.14644 0
M  V30 1916 H 170.968 -3.48977 -3.62249 0
M  V30 1917 H 170.668 -5.09914 -2.91996 0
M  V30 1918 H 172.192 -4.782 -3.7968 0
M  V30 1919 H 173.606 -5.49352 -1.63968 0
M  V30 1920 H 172.003 -5.9214 -0.974178 0
M  V30 1921 H 173.073 -4.8487 -0.0536168 0
M  V30 1922 N 174.416 0.165178 -1.56732 0
M  V30 1923 C 175.665 0.879143 -1.81532 0
M  V30 1924 C 175.978 1.83144 -0.686842 0
M  V30 1925 O 177.184 2.58823 -0.819944 0
M  V30 1926 C 175.64 1.61388 -3.21686 0
M  V30 1927 C 175.248 0.704904 -4.4242 0
M  V30 1928 C 176.992 2.3157 -3.55774 0
M  V30 1929 C 174.899 1.44022 -5.73595 0
M  V30 1930 H 173.829 0.332033 -0.676957 0
M  V30 1931 H 176.48 0.132008 -1.83025 0
M  V30 1932 H 174.862 2.40599 -3.14529 0
M  V30 1933 H 176.036 -0.0506815 -4.60772 0
M  V30 1934 H 174.351 0.112419 -4.16248 0
M  V30 1935 H 176.948 2.8719 -4.51028 0
M  V30 1936 H 177.291 3.07201 -2.8095 0
M  V30 1937 H 177.824 1.59297 -3.64513 0
M  V30 1938 H 174.563 0.72612 -6.51466 0
M  V30 1939 H 174.083 2.16898 -5.5921 0
M  V30 1940 H 175.762 1.98606 -6.15764 0
M  V30 1941 N 175.894 1.51508 0.433938 0
M  V30 1942 C 176.824 1.76016 1.53429 0
M  V30 1943 C 177.805 0.610112 1.58782 0
M  V30 1944 O 178.99 0.853177 1.74455 0
M  V30 1945 C 176.12 1.88831 2.9148 0
M  V30 1946 C 175.074 3.04288 3.00987 0
M  V30 1947 C 174.4 3.0229 4.4105 0
M  V30 1948 C 175.7 4.44193 2.74754 0
M  V30 1949 H 177.394 2.68152 1.33171 0
M  V30 1950 H 174.94 1.29035 0.639214 0
M  V30 1951 H 176.893 2.04559 3.6842 0
M  V30 1952 H 175.617 0.933455 3.12976 0
M  V30 1953 H 174.276 2.8827 2.26486 0
M  V30 1954 H 173.924 2.04576 4.59519 0
M  V30 1955 H 173.624 3.79822 4.4834 0
M  V30 1956 H 175.148 3.20116 5.1996 0
M  V30 1957 H 176.562 4.60544 3.41426 0
M  V30 1958 H 174.959 5.23457 2.9345 0
M  V30 1959 H 176.029 4.53996 1.70339 0
M  V30 1960 N 177.372 -0.689602 1.41712 0
M  V30 1961 C 178.282 -1.83314 1.46401 0
M  V30 1962 C 179.298 -1.7036 0.35405 0
M  V30 1963 O 180.474 -1.92171 0.602692 0
M  V30 1964 C 177.539 -3.19344 1.34982 0
M  V30 1965 C 176.6 -3.44363 2.56344 0
M  V30 1966 C 175.833 -4.73904 2.45461 0
M  V30 1967 O 176.056 -5.508 1.48241 0
M  V30 1968 O 174.99 -4.99839 3.35328 0
M  V30 1969 H 178.816 -1.82314 2.42889 0
M  V30 1970 H 176.401 -0.843438 1.23315 0
M  V30 1971 H 178.283 -4.00547 1.3092 0
M  V30 1972 H 176.958 -3.21014 0.41612 0
M  V30 1973 H 175.865 -2.63067 2.65982 0
M  V30 1974 H 177.198 -3.47512 3.48563 0
M  V30 1975 N 178.85 -1.27639 -0.924453 0
M  V30 1976 C 180.08 -1.16819 -1.70402 0
M  V30 1977 C 180.488 0.277191 -1.87158 0
M  V30 1978 O 179.831 1.20025 -1.39067 0
M  V30 1979 C 179.893 -1.78305 -3.12166 0
M  V30 1980 C 179.557 -3.27502 -3.18734 0
M  V30 1981 C 180.554 -4.2409 -3.00738 0
M  V30 1982 C 178.239 -3.68269 -3.4159 0
M  V30 1983 C 180.233 -5.59422 -3.05492 0
M  V30 1984 C 177.92 -5.0373 -3.45977 0
M  V30 1985 C 178.918 -5.99116 -3.27946 0
M  V30 1986 O 178.606 -7.32108 -3.32074 0
M  V30 1987 H 178.338 -0.406931 -0.539799 0
M  V30 1988 H 180.892 -1.69078 -1.16626 0
M  V30 1989 H 179.122 -1.20528 -3.67437 0
M  V30 1990 H 180.811 -1.62154 -3.72103 0
M  V30 1991 H 181.577 -3.93931 -2.82919 0
M  V30 1992 H 177.456 -2.94496 -3.54673 0
M  V30 1993 H 181 -6.33852 -2.91337 0
M  V30 1994 H 176.897 -5.33543 -3.63321 0
M  V30 1995 H 177.665 -7.40598 -3.48507 0
M  V30 1996 N 180.328 1.1314 -1.09713 0
M  V30 1997 C 181.291 2.16831 -0.742751 0
M  V30 1998 C 182.291 1.59159 0.229129 0
M  V30 1999 O 183.481 1.74199 0.00693237 0
M  V30 2000 C 180.613 3.40756 -0.0989168 0
M  V30 2001 H 181.806 2.49695 -1.66109 0
M  V30 2002 H 179.359 1.2802 -0.896699 0
M  V30 2003 H 180.094 3.13485 0.830514 0
M  V30 2004 H 179.879 3.83888 -0.798265 0
M  V30 2005 H 181.369 4.17386 0.133524 0
M  V30 2006 N 181.806 0.884767 1.30421 0
M  V30 2007 C 183.217 0.553656 1.78302 0
M  V30 2008 C 183.568 -0.930153 1.7275 0
M  V30 2009 O 182.693 -1.72681 1.30423 0
M  V30 2010 C 183.288 0.998234 3.2376 0
M  V30 2011 C 181.847 0.71854 3.69478 0
M  V30 2012 C 180.994 1.18132 2.50879 0
M  V30 2013 H 183.945 1.06901 1.17294 0
M  V30 2014 H 183.966 0.327118 3.79091 0
M  V30 2015 H 183.478 2.0782 3.27769 0
M  V30 2016 H 181.579 -0.349444 3.70958 0
M  V30 2017 H 181.692 1.30595 4.60958 0
M  V30 2018 H 180.056 0.600669 2.47516 0
M  V30 2019 H 180.839 2.26902 2.57624 0
M  V30 2020 N 183.284 -1.43765 0.645699 0
M  V30 2021 C 184.7 -1.56509 0.312591 0
M  V30 2022 C 184.9 -1.6307 -1.18365 0
M  V30 2023 O 183.956 -1.58167 -1.96824 0
M  V30 2024 C 185.269 -2.82968 1.01733 0
M  V30 2025 C 186.817 -2.96701 0.996865 0
M  V30 2026 C 187.292 -4.25982 1.68236 0
M  V30 2027 N 188.783 -4.32829 1.64964 0
M  V30 2028 C 189.518 -5.31613 2.14885 0
M  V30 2029 N 189.014 -6.36718 2.73061 0
M  V30 2030 N 190.807 -5.23217 2.05428 0
M  V30 2031 H 182.958 -1.3775 1.61675 0
M  V30 2032 H 185.221 -0.661067 0.679481 0
M  V30 2033 H 184.927 -2.84156 2.0724 0
M  V30 2034 H 184.801 -3.72957 0.564177 0
M  V30 2035 H 187.188 -2.95058 -0.0497719 0
M  V30 2036 H 187.269 -2.08022 1.48865 0
M  V30 2037 H 186.913 -4.28386 2.72852 0
M  V30 2038 H 186.843 -5.13545 1.16529 0
M  V30 2039 H 189.334 -3.57493 1.22503 0
M  V30 2040 H 189.647 -7.08401 3.08848 0
M  V30 2041 H 187.992 -6.37362 2.77118 0
M  V30 2042 H 191.183 -4.40019 1.59689 0
M  V30 2043 H 191.356 -6.00045 2.44643 0
M  V30 2044 N 184.763 -0.387143 -1.52771 0
M  V30 2045 C 186.011 0.195349 -2.01154 0
M  V30 2046 C 186.332 1.475 -1.27549 0
M  V30 2047 O 185.602 1.91878 -0.394924 0
M  V30 2048 H 184.182 0.075178 -0.743207 0
M  V30 2049 H 186.844 -0.518337 -1.87881 0
M  V30 2050 H 185.94 0.407096 -3.09434 0
M  V30 2051 N 186.241 1.57166 -0.116904 0
M  V30 2052 C 187.151 2.18745 0.847812 0
M  V30 2053 C 188.167 1.163 1.29423 0
M  V30 2054 O 189.343 1.48761 1.35765 0
M  V30 2055 C 186.408 2.77307 2.0809 0
M  V30 2056 C 185.469 3.94781 1.68661 0
M  V30 2057 C 184.702 4.50541 2.86091 0
M  V30 2058 O 184.925 4.05202 4.01456 0
M  V30 2059 O 183.859 5.41256 2.63298 0
M  V30 2060 H 187.685 3.01632 0.353778 0
M  V30 2061 H 185.27 1.49005 0.108599 0
M  V30 2062 H 187.152 3.14647 2.80313 0
M  V30 2063 H 185.827 1.97452 2.56504 0
M  V30 2064 H 184.734 3.62214 0.935518 0
M  V30 2065 H 186.067 4.76065 1.24991 0
M  V30 2066 N 187.719 -0.156864 1.56817 0
M  V30 2067 C 188.649 -1.19589 2.00551 0
M  V30 2068 C 189.63 -1.4536 0.883426 0
M  V30 2069 O 190.815 -1.56449 1.15054 0
M  V30 2070 C 187.945 -2.53143 2.37773 0
M  V30 2071 C 186.899 -2.41913 3.53075 0
M  V30 2072 C 186.225 -3.80088 3.76081 0
M  V30 2073 C 187.525 -1.91157 4.86062 0
M  V30 2074 H 189.219 -0.832293 2.87599 0
M  V30 2075 H 186.765 -0.398918 1.38364 0
M  V30 2076 H 188.718 -3.26047 2.66967 0
M  V30 2077 H 187.442 -2.91319 1.4765 0
M  V30 2078 H 186.101 -1.71462 3.24031 0
M  V30 2079 H 185.749 -4.15683 2.83225 0
M  V30 2080 H 185.449 -3.73439 4.53671 0
M  V30 2081 H 186.973 -4.54556 4.0769 0
M  V30 2082 H 188.387 -2.53846 5.14038 0
M  V30 2083 H 186.784 -1.95422 5.67389 0
M  V30 2084 H 187.854 -0.866673 4.77092 0
M  V30 2085 N 189.197 -1.51736 -0.425897 0
M  V30 2086 C 190.427 -1.68549 -1.19476 0
M  V30 2087 C 190.835 -0.387288 -1.85194 0
M  V30 2088 O 190.178 0.645142 -1.71999 0
M  V30 2089 C 190.24 -2.75275 -2.31223 0
M  V30 2090 C 189.904 -4.17534 -1.8578 0
M  V30 2091 C 190.901 -5.01936 -1.35485 0
M  V30 2092 C 188.586 -4.6369 -1.93123 0
M  V30 2093 C 190.58 -6.30559 -0.931347 0
M  V30 2094 C 188.267 -5.92307 -1.50384 0
M  V30 2095 C 189.265 -6.75569 -1.00473 0
M  V30 2096 O 188.953 -8.0178 -0.583452 0
M  V30 2097 H 188.685 -0.568525 -0.365725 0
M  V30 2098 H 191.239 -1.98982 -0.509444 0
M  V30 2099 H 189.469 -2.40182 -3.03067 0
M  V30 2100 H 191.158 -2.80853 -2.93047 0
M  V30 2101 H 191.924 -4.67475 -1.29197 0
M  V30 2102 H 187.803 -3.98997 -2.30916 0
M  V30 2103 H 191.347 -6.95498 -0.541084 0
M  V30 2104 H 187.244 -6.2628 -1.56346 0
M  V30 2105 H 188.012 -8.1543 -0.708275 0
M  V30 2106 N 190.675 0.682077 -1.42076 0
M  V30 2107 C 191.622 1.79578 -1.44984 0
M  V30 2108 C 192.592 1.6332 -0.302614 0
M  V30 2109 O 193.777 1.83978 -0.505633 0
M  V30 2110 C 190.917 3.1756 -1.35091 0
M  V30 2111 C 190.03 3.45156 -2.59791 0
M  V30 2112 C 189.165 4.72826 -2.42093 0
M  V30 2113 C 188.204 4.93433 -3.62202 0
M  V30 2114 N 187.341 6.12338 -3.43491 0
M  V30 2115 H 192.181 1.76427 -2.40161 0
M  V30 2116 H 189.718 0.861376 -1.19242 0
M  V30 2117 H 191.676 3.97287 -1.27354 0
M  V30 2118 H 190.306 3.19854 -0.435133 0
M  V30 2119 H 189.358 2.59736 -2.77923 0
M  V30 2120 H 190.67 3.5628 -3.49094 0
M  V30 2121 H 189.824 5.60631 -2.319 0
M  V30 2122 H 188.563 4.63973 -1.50268 0
M  V30 2123 H 187.568 4.04073 -3.72834 0
M  V30 2124 H 188.793 5.04136 -4.54998 0
M  V30 2125 H 186.739 6.04672 -2.54377 0
M  V30 2126 H 186.656 6.2429 -4.26377 0
M  V30 2127 H 187.924 7.02841 -3.37097 0
M  V30 2128 N 192.153 1.28127 0.917671 0
M  V30 2129 C 193.063 1.13556 2.05286 0
M  V30 2130 C 194.079 0.0630914 1.73886 0
M  V30 2131 O 195.255 0.271598 1.9956 0
M  V30 2132 C 192.32 0.794676 3.3747 0
M  V30 2133 C 191.381 1.94909 3.82504 0
M  V30 2134 C 190.614 1.62437 5.0838 0
M  V30 2135 O 190.837 0.536905 5.67867 0
M  V30 2136 O 189.771 2.46677 5.4903 0
M  V30 2137 H 193.597 2.08844 2.20495 0
M  V30 2138 H 191.182 1.07409 1.03845 0
M  V30 2139 H 193.064 0.618344 4.16839 0
M  V30 2140 H 191.739 -0.128581 3.23445 0
M  V30 2141 H 190.646 2.18055 3.03978 0
M  V30 2142 H 191.979 2.85291 4.01086 0
M  V30 2143 N 193.631 -1.12557 1.10312 0
M  V30 2144 C 194.561 -2.20341 0.772798 0
M  V30 2145 C 195.542 -1.68198 -0.25365 0
M  V30 2146 O 196.727 -1.93831 -0.119699 0
M  V30 2147 C 193.857 -3.46709 0.202443 0
M  V30 2148 C 192.811 -4.11996 1.15943 0
M  V30 2149 C 192.137 -5.328 0.450345 0
M  V30 2150 C 193.437 -4.5828 2.50552 0
M  V30 2151 H 195.131 -2.48229 1.674 0
M  V30 2152 H 192.677 -1.19308 0.806326 0
M  V30 2153 H 194.63 -4.2138 -0.0407752 0
M  V30 2154 H 193.354 -3.18245 -0.734001 0
M  V30 2155 H 192.013 -3.39305 1.38808 0
M  V30 2156 H 191.661 -5.00602 -0.490531 0
M  V30 2157 H 191.361 -5.7743 1.08851 0
M  V30 2158 H 192.885 -6.10219 0.215642 0
M  V30 2159 H 194.299 -5.2433 2.31843 0
M  V30 2160 H 192.696 -5.13683 3.10242 0
M  V30 2161 H 193.766 -3.72329 3.10643 0
M  V30 2162 N 195.109 -0.891671 -1.2995 0
M  V30 2163 C 196.041 -0.320695 -2.26945 0
M  V30 2164 C 197.054 0.528497 -1.53983 0
M  V30 2165 O 198.243 0.346959 -1.75096 0
M  V30 2166 C 195.343 0.562066 -3.34207 0
M  V30 2167 C 194.516 -0.259576 -4.36629 0
M  V30 2168 C 193.575 0.554739 -5.23268 0
M  V30 2169 O 192.601 -0.0249311 -5.69195 0
M  V30 2170 N 193.803 1.8625 -5.4981 0
M  V30 2171 H 196.568 -1.15432 -2.76578 0
M  V30 2172 H 194.129 -0.755336 -1.432 0
M  V30 2173 H 196.121 1.11304 -3.89093 0
M  V30 2174 H 194.691 1.29637 -2.84452 0
M  V30 2175 H 193.911 -0.991986 -3.81514 0
M  V30 2176 H 195.199 -0.822564 -5.02107 0
M  V30 2177 H 194.597 2.35628 -5.14292 0
M  V30 2178 H 193.154 2.36078 -6.07545 0
M  V30 2179 N 196.587 1.43421 -0.653314 0
M  V30 2180 C 197.534 2.30768 0.0382271 0
M  V30 2181 C 198.504 1.44755 0.814576 0
M  V30 2182 O 199.689 1.73624 0.791162 0
M  V30 2183 C 196.829 3.30336 0.998599 0
M  V30 2184 C 195.942 4.31448 0.218342 0
M  V30 2185 C 195.077 5.18098 1.17252 0
M  V30 2186 C 194.116 6.10902 0.382702 0
M  V30 2187 N 193.253 6.90176 1.28848 0
M  V30 2188 H 198.093 2.89357 -0.712511 0
M  V30 2189 H 195.63 1.42548 -0.363128 0
M  V30 2190 H 197.588 3.86572 1.56901 0
M  V30 2191 H 196.218 2.73397 1.71621 0
M  V30 2192 H 195.27 3.77506 -0.46836 0
M  V30 2193 H 196.582 4.97227 -0.395812 0
M  V30 2194 H 195.736 5.7896 1.81356 0
M  V30 2195 H 194.475 4.52444 1.82058 0
M  V30 2196 H 193.48 5.49128 -0.27169 0
M  V30 2197 H 194.705 6.78598 -0.260957 0
M  V30 2198 H 192.651 6.27171 1.92334 0
M  V30 2199 H 192.568 7.52478 0.728887 0
M  V30 2200 H 193.836 7.55543 1.91766 0
M  V30 2201 N 198.065 0.39524 1.52563 0
M  V30 2202 C 199.29 -0.187456 2.06551 0
M  V30 2203 C 199.715 -1.39249 1.26457 0
M  V30 2204 O 199.073 -1.78947 0.291151 0
M  V30 2205 C 199.121 -0.529985 3.56684 0
M  V30 2206 O 198.225 -1.62307 3.79118 0
M  V30 2207 H 197.566 -0.0202537 0.663691 0
M  V30 2208 H 200.096 0.564426 1.96661 0
M  V30 2209 H 200.106 -0.792598 4.00227 0
M  V30 2210 H 198.781 0.350987 4.14416 0
M  V30 2211 H 197.358 -1.3537 3.47461 0
M  V30 2212 N 199.544 -1.57102 0.125237 0
M  V30 2213 C 200.454 -2.19191 -0.8362 0
M  V30 2214 C 201.47 -1.16985 -1.28805 0
M  V30 2215 O 202.646 -1.49479 -1.34974 0
M  V30 2216 C 199.711 -2.78407 -2.06617 0
M  V30 2217 C 198.772 -3.9567 -1.66565 0
M  V30 2218 C 198.005 -4.52052 -2.83698 0
M  V30 2219 O 198.228 -4.07326 -3.99302 0
M  V30 2220 O 197.162 -5.42645 -2.60423 0
M  V30 2221 H 200.988 -3.01816 -0.337776 0
M  V30 2222 H 198.573 -1.4906 -0.100695 0
M  V30 2223 H 200.455 -3.16129 -2.7864 0
M  V30 2224 H 199.13 -1.9881 -2.55453 0
M  V30 2225 H 198.037 -3.62705 -0.916296 0
M  V30 2226 H 199.37 -4.76722 -1.22464 0
M  V30 2227 N 201.022 0.148545 -1.56898 0
M  V30 2228 C 201.969 1.18345 -1.98149 0
M  V30 2229 C 202.939 1.42772 -0.848848 0
M  V30 2230 O 204.124 1.55132 -1.11079 0
M  V30 2231 C 201.264 2.51231 -2.36594 0
M  V30 2232 C 200.377 2.33991 -3.63142 0
M  V30 2233 C 199.512 3.59902 -3.90697 0
M  V30 2234 C 198.551 3.37692 -5.1052 0
M  V30 2235 N 197.688 4.5573 -5.34092 0
M  V30 2236 H 202.528 0.82467 -2.86362 0
M  V30 2237 H 200.065 0.395756 -1.41676 0
M  V30 2238 H 202.023 3.28713 -2.56912 0
M  V30 2239 H 200.653 2.85059 -1.51463 0
M  V30 2240 H 199.705 1.47572 -3.50609 0
M  V30 2241 H 201.017 2.13539 -4.5078 0
M  V30 2242 H 200.171 4.45813 -4.11505 0
M  V30 2243 H 198.91 3.83357 -3.01477 0
M  V30 2244 H 197.915 2.5017 -4.89587 0
M  V30 2245 H 199.14 3.15637 -6.0129 0
M  V30 2246 H 197.086 4.79361 -4.47827 0
M  V30 2247 H 197.003 4.38274 -6.15996 0
M  V30 2248 H 198.271 5.42858 -5.59397 0
M  V30 2249 N 202.5 1.5196 0.417844 0
M  V30 2250 C 203.43 1.77634 1.51554 0
M  V30 2251 C 204.411 0.626918 1.58126 0
M  V30 2252 O 205.596 0.871632 1.7354 0
M  V30 2253 C 202.726 1.91911 2.8946 0
M  V30 2254 C 201.68 3.07463 2.97743 0
M  V30 2255 C 201.006 3.06951 4.37819 0
M  V30 2256 C 202.306 4.47082 2.70027 0
M  V30 2257 H 204 2.6955 1.3032 0
M  V30 2258 H 201.546 1.29706 0.625492 0
M  V30 2259 H 203.499 2.08455 3.6623 0
M  V30 2260 H 202.223 0.966598 3.11969 0
M  V30 2261 H 200.882 2.90656 2.23416 0
M  V30 2262 H 200.53 2.09438 4.57323 0
M  V30 2263 H 200.23 3.84556 4.44286 0
M  V30 2264 H 201.754 3.25613 5.16535 0
M  V30 2265 H 203.168 4.6414 3.36522 0
M  V30 2266 H 201.565 5.2654 2.87881 0
M  V30 2267 H 202.635 4.55777 1.65514 0
M  V30 2268 N 203.978 -0.674533 1.42435 0
M  V30 2269 C 205.255 -1.4305 1.33402 0
M  V30 2270 C 205.635 -2.11081 -0.0284674 0
M  V30 2271 O 204.983 -2.03257 -1.04397 0
M  V30 2272 C 205.193 -2.43272 2.50239 0
M  V30 2273 C 206.541 -3.07907 2.92367 0
M  V30 2274 O 207.565 -2.53599 2.50132 0
M  V30 2275 O 206.424 -4.0632 3.65467 0
M  V30 2276 H 203.518 -0.638076 0.526106 0
M  V30 2277 H 206.064 -0.703235 1.54443 0
M  V30 2278 H 204.836 -1.91803 3.41068 0
M  V30 2279 H 204.459 -3.23479 2.31186 0
M  V30 2280 N 205.456 -1.28612 -0.910864 0
M  V30 2281 C 206.366 -1.14643 -2.0468 0
M  V30 2282 C 207.382 -0.0723121 -1.7385 0
M  V30 2283 O 208.558 -0.282178 -1.99413 0
M  V30 2284 C 205.623 -0.812561 -3.37044 0
M  V30 2285 C 204.684 -1.96935 -3.81465 0
M  V30 2286 C 203.917 -1.65131 -5.07511 0
M  V30 2287 O 204.14 -0.567013 -5.67575 0
M  V30 2288 O 203.074 -2.49585 -5.47714 0
M  V30 2289 H 206.9 -2.1001 -2.19384 0
M  V30 2290 H 204.485 -1.07958 -1.03274 0
M  V30 2291 H 206.367 -0.640441 -4.16505 0
M  V30 2292 H 205.042 0.111426 -3.23508 0
M  V30 2293 H 203.949 -2.19664 -3.02818 0
M  V30 2294 H 205.282 -2.87414 -3.99567 0
M  V30 2295 N 206.934 1.1197 -1.10907 0
M  V30 2296 C 207.866 2.17592 -0.720175 0
M  V30 2297 C 208.879 1.60938 0.245495 0
M  V30 2298 O 210.068 1.78476 0.0292245 0
M  V30 2299 C 207.168 3.38873 -0.0427917 0
M  V30 2300 C 206.341 4.25006 -1.03388 0
M  V30 2301 C 205.4 5.24774 -0.387075 0
M  V30 2302 O 204.426 5.59631 -1.03934 0
M  V30 2303 N 205.628 5.74208 0.852407 0
M  V30 2304 H 208.393 2.51567 -1.62893 0
M  V30 2305 H 205.954 1.27439 -0.998543 0
M  V30 2306 H 207.946 4.02703 0.401501 0
M  V30 2307 H 206.516 3.03007 0.768456 0
M  V30 2308 H 205.736 3.57716 -1.65629 0
M  V30 2309 H 207.024 4.79397 -1.70458 0
M  V30 2310 H 206.422 5.48062 1.40161 0
M  V30 2311 H 204.979 6.39901 1.23977 0
M  V30 2312 N 208.412 0.89855 1.29475 0
M  V30 2313 C 209.828 0.594483 1.48115 0
M  V30 2314 C 210.028 -0.86431 1.82022 0
M  V30 2315 O 209.084 -1.64457 1.91599 0
M  V30 2316 C 210.397 1.51932 2.59494 0
M  V30 2317 C 211.945 1.5244 2.7337 0
M  V30 2318 C 212.42 2.43548 3.87877 0
M  V30 2319 N 213.911 2.41589 3.95208 0
M  V30 2320 C 214.646 3.08789 4.83153 0
M  V30 2321 N 214.142 3.85265 5.75798 0
M  V30 2322 N 215.935 2.97952 4.76635 0
M  V30 2323 H 208.086 1.84207 1.05742 0
M  V30 2324 H 210.349 0.789251 0.525154 0
M  V30 2325 H 210.055 2.55865 2.41301 0
M  V30 2326 H 209.929 1.23899 3.56271 0
M  V30 2327 H 212.316 0.492518 2.90961 0
M  V30 2328 H 212.397 1.8451 1.77172 0
M  V30 2329 H 212.041 3.46829 3.71041 0
M  V30 2330 H 211.971 2.08788 4.83441 0
M  V30 2331 H 214.462 1.86025 3.28943 0
M  V30 2332 H 214.775 4.33598 6.39697 0
M  V30 2333 H 213.12 3.89371 5.75687 0
M  V30 2334 H 216.311 2.37723 4.03244 0
M  V30 2335 H 216.484 3.50599 5.44962 0
M  V30 2336 N 209.89 -1.43072 0.660911 0
M  V30 2337 C 211.118 -2.06067 0.185422 0
M  V30 2338 C 211.533 -1.49582 -1.15198 0
M  V30 2339 O 210.89 -0.630134 -1.71276 0
M  V30 2340 C 210.941 -3.61371 0.0966523 0
M  V30 2341 O 210.662 -4.15758 1.38119 0
M  V30 2342 C 212.163 -4.41455 -0.403996 0
M  V30 2343 H 209.383 -0.664459 0.0934604 0
M  V30 2344 H 211.927 -1.83447 0.90373 0
M  V30 2345 H 210.082 -3.8315 -0.572259 0
M  V30 2346 H 210.496 -5.09499 1.24542 0
M  V30 2347 H 211.97 -5.50437 -0.415045 0
M  V30 2348 H 212.447 -4.15036 -1.43674 0
M  V30 2349 H 213.053 -4.24663 0.232691 0
M  V30 2350 N 211.368 -0.403325 -1.52352 0
M  V30 2351 C 212.331 0.413051 -2.25447 0
M  V30 2352 C 213.331 0.978513 -1.276 0
M  V30 2353 O 214.521 0.858305 -1.51587 0
M  V30 2354 C 211.653 1.58087 -3.02029 0
M  V30 2355 H 212.846 -0.227094 -2.99039 0
M  V30 2356 H 210.399 -0.155722 -1.55522 0
M  V30 2357 H 211.134 2.25804 -2.32772 0
M  V30 2358 H 210.919 1.18195 -3.73861 0
M  V30 2359 H 212.409 2.1585 -3.57489 0
M  V30 2360 N 212.846 1.57033 -0.133567 0
M  V30 2361 C 214.074 2.00044 0.528195 0
M  V30 2362 C 214.489 1.01349 1.59291 0
M  V30 2363 O 213.846 0.00848369 1.82498 0
M  V30 2364 C 213.897 3.43018 1.1411 0
M  V30 2365 O 213.618 4.37939 0.11892 0
M  V30 2366 C 215.119 4.01237 1.88477 0
M  V30 2367 H 212.339 0.656517 0.138661 0
M  V30 2368 H 214.883 2.03267 -0.224196 0
M  V30 2369 H 213.038 3.40688 1.84418 0
M  V30 2370 H 213.452 5.21436 0.56613 0
M  V30 2371 H 214.926 5.03314 2.26669 0
M  V30 2372 H 215.403 3.41193 2.76558 0
M  V30 2373 H 216.009 4.07156 1.22898 0
M  V30 2374 N 214.325 -0.140222 1.56975 0
M  V30 2375 C 215.574 -0.850152 1.82908 0
M  V30 2376 C 215.887 -1.82028 0.715892 0
M  V30 2377 O 217.093 -2.57485 0.861016 0
M  V30 2378 C 215.549 -1.5625 3.24213 0
M  V30 2379 C 215.157 -0.63443 4.43485 0
M  V30 2380 C 216.901 -2.25881 3.59413 0
M  V30 2381 C 214.808 -1.34879 5.75814 0
M  V30 2382 H 213.738 -0.321221 0.682153 0
M  V30 2383 H 216.389 -0.102874 1.83211 0
M  V30 2384 H 214.771 -2.35565 3.18316 0
M  V30 2385 H 215.945 0.12398 4.60633 0
M  V30 2386 H 214.26 -0.0461836 4.16374 0
M  V30 2387 H 216.857 -2.79978 4.5554 0
M  V30 2388 H 217.2 -3.02693 2.85802 0
M  V30 2389 H 217.733 -1.53477 3.67001 0
M  V30 2390 H 214.472 -0.622385 6.52539 0
M  V30 2391 H 213.992 -2.07974 5.6259 0
M  V30 2392 H 215.671 -1.88784 6.18845 0
M  V30 2393 N 215.803 -1.52179 -0.40978 0
M  V30 2394 C 217.052 -1.65434 -1.15388 0
M  V30 2395 C 217.365 -0.390056 -1.91671 0
M  V30 2396 O 218.571 -0.402399 -2.68501 0
M  V30 2397 C 217.027 -2.92279 -2.10003 0
M  V30 2398 C 216.635 -4.25813 -1.39239 0
M  V30 2399 C 218.379 -3.14897 -2.84675 0
M  V30 2400 C 216.286 -5.43782 -2.32498 0
M  V30 2401 H 215.216 -0.616267 -0.434432 0
M  V30 2402 H 217.867 -1.78666 -0.418401 0
M  V30 2403 H 216.249 -2.72744 -2.871 0
M  V30 2404 H 217.423 -4.55828 -0.675099 0
M  V30 2405 H 215.738 -4.09292 -0.766097 0
M  V30 2406 H 218.335 -4.0021 -3.54593 0
M  V30 2407 H 218.678 -2.29103 -3.47588 0
M  V30 2408 H 219.211 -3.34901 -2.14677 0
M  V30 2409 H 215.95 -6.3192 -1.74233 0
M  V30 2410 H 215.47 -5.18106 -3.02201 0
M  V30 2411 H 217.149 -5.76834 -2.93038 0
M  V30 2412 N 217.281 0.66697 -1.42791 0
M  V30 2413 C 218.191 1.80962 -1.49299 0
M  V30 2414 C 219.207 1.69775 -0.381108 0
M  V30 2415 O 220.383 1.91188 -0.633188 0
M  V30 2416 C 217.448 3.17156 -1.40045 0
M  V30 2417 C 216.509 3.40242 -2.6179 0
M  V30 2418 C 215.742 4.69939 -2.52969 0
M  V30 2419 O 215.965 5.48372 -1.56985 0
M  V30 2420 O 214.899 4.94441 -3.43237 0
M  V30 2421 H 218.725 1.78427 -2.45759 0
M  V30 2422 H 216.31 0.823713 -1.24641 0
M  V30 2423 H 218.192 3.98413 -1.37276 0
M  V30 2424 H 216.867 3.20312 -0.467138 0
M  V30 2425 H 215.774 2.58802 -2.70134 0
M  V30 2426 H 217.107 3.41923 -3.54047 0
M  V30 2427 N 218.759 1.29093 0.90403 0
M  V30 2428 C 219.669 1.15727 2.0407 0
M  V30 2429 C 220.685 0.0815308 1.73809 0
M  V30 2430 O 221.861 0.292749 1.99261 0
M  V30 2431 C 218.926 0.830424 3.36608 0
M  V30 2432 C 217.987 1.98955 3.80415 0
M  V30 2433 C 217.22 1.6782 5.06628 0
M  V30 2434 O 217.443 0.597105 5.67266 0
M  V30 2435 O 216.377 2.52486 5.46383 0
M  V30 2436 H 220.203 2.11171 2.18267 0
M  V30 2437 H 217.788 1.08504 1.027 0
M  V30 2438 H 219.67 0.662521 4.16159 0
M  V30 2439 H 218.345 -0.0942678 3.23563 0
M  V30 2440 H 217.252 2.21267 3.01648 0
M  V30 2441 H 218.585 2.89529 3.98037 0
M  V30 2442 N 220.237 -1.11381 1.11499 0
M  V30 2443 C 221.167 -2.19509 0.796125 0
M  V30 2444 C 222.148 -1.68458 -0.235796 0
M  V30 2445 O 223.333 -1.93947 -0.0991344 0
M  V30 2446 C 220.463 -3.46475 0.239205 0
M  V30 2447 C 219.417 -4.10744 1.20307 0
M  V30 2448 C 218.743 -5.32293 0.50683 0
M  V30 2449 C 220.043 -4.55597 2.55399 0
M  V30 2450 H 221.737 -2.46439 1.70024 0
M  V30 2451 H 219.283 -1.18446 0.818935 0
M  V30 2452 H 221.236 -4.214 0.00392006 0
M  V30 2453 H 219.96 -3.19006 -0.700206 0
M  V30 2454 H 218.619 -3.37813 1.42399 0
M  V30 2455 H 218.267 -5.01095 -0.437408 0
M  V30 2456 H 217.967 -5.76243 1.1497 0
M  V30 2457 H 219.491 -6.09956 0.280351 0
M  V30 2458 H 220.905 -5.21841 2.37391 0
M  V30 2459 H 219.302 -5.10363 3.15673 0
M  V30 2460 H 220.372 -3.69013 3.14575 0
M  V30 2461 N 221.715 -0.905404 -1.28997 0
M  V30 2462 C 222.678 -0.392253 -2.25819 0
M  V30 2463 C 223.678 0.476753 -1.5357 0
M  V30 2464 O 224.868 0.280994 -1.71919 0
M  V30 2465 C 222 0.438588 -3.38067 0
M  V30 2466 H 223.193 -1.24743 -2.72725 0
M  V30 2467 H 220.746 -0.684051 -1.40536 0
M  V30 2468 H 221.481 1.31352 -2.96508 0
M  V30 2469 H 221.266 -0.184167 -3.91667 0
M  V30 2470 H 222.756 0.78873 -4.10084 0
M  V30 2471 N 223.193 1.4272 -0.668489 0
M  V30 2472 C 224.47 1.95248 -0.117373 0
M  V30 2473 C 224.85 1.60919 1.36632 0
M  V30 2474 O 224.198 0.902095 2.09939 0
M  V30 2475 C 224.408 3.46927 -0.379806 0
M  V30 2476 C 225.756 4.23588 -0.292923 0
M  V30 2477 O 226.78 3.5482 -0.313204 0
M  V30 2478 O 225.639 5.46017 -0.229697 0
M  V30 2479 H 222.733 0.827 0.00079152 0
M  V30 2480 H 225.279 1.52581 -0.742783 0
M  V30 2481 H 224.051 3.65096 -1.40786 0
M  V30 2482 H 223.674 3.96627 0.277923 0
M  V30 2483 N 224.671 0.411399 1.52136 0
M  V30 2484 C 225.634 -0.401089 2.25663 0
M  V30 2485 C 226.634 -0.971732 1.28117 0
M  V30 2486 O 227.824 -0.850254 1.52041 0
M  V30 2487 C 224.956 -1.56483 3.02863 0
M  V30 2488 H 226.149 0.24295 2.98914 0
M  V30 2489 H 223.702 0.163968 1.55438 0
M  V30 2490 H 224.437 -2.24567 2.33967 0
M  V30 2491 H 224.222 -1.16211 3.74483 0
M  V30 2492 H 225.712 -2.13951 3.58629 0
M  V30 2493 N 226.149 -1.5696 0.141893 0
M  V30 2494 C 227.079 -2.19516 -0.795936 0
M  V30 2495 C 228.06 -1.14187 -1.26077 0
M  V30 2496 O 229.245 -1.42511 -1.31925 0
M  V30 2497 C 226.375 -2.81272 -2.03723 0
M  V30 2498 C 225.329 -3.92384 -1.70936 0
M  V30 2499 C 224.655 -4.41052 -3.02287 0
M  V30 2500 C 225.955 -5.13403 -0.959954 0
M  V30 2501 H 227.649 -2.98138 -0.274596 0
M  V30 2502 H 225.195 -1.43406 -0.130636 0
M  V30 2503 H 227.148 -3.237 -2.69808 0
M  V30 2504 H 225.872 -1.99973 -2.58221 0
M  V30 2505 H 224.531 -3.50566 -1.07232 0
M  V30 2506 H 224.179 -3.56582 -3.54765 0
M  V30 2507 H 223.879 -5.15993 -2.81114 0
M  V30 2508 H 225.403 -4.86146 -3.69451 0
M  V30 2509 H 226.817 -5.52706 -1.52279 0
M  V30 2510 H 225.214 -5.94073 -0.848357 0
M  V30 2511 H 226.284 -4.84875 0.0492434 0
M  V30 2512 N 227.627 0.131896 -1.57047 0
M  V30 2513 C 228.855 0.856461 -1.88341 0
M  V30 2514 C 229.27 1.74042 -0.731757 0
M  V30 2515 O 228.627 1.80051 0.297945 0
M  V30 2516 C 228.678 1.70064 -3.18999 0
M  V30 2517 O 228.399 0.852278 -4.2973 0
M  V30 2518 C 229.9 2.53148 -3.63911 0
M  V30 2519 H 227.12 0.246885 -0.62393 0
M  V30 2520 H 229.664 0.120152 -2.04147 0
M  V30 2521 H 227.819 2.38984 -3.04902 0
M  V30 2522 H 228.233 1.43329 -5.04537 0
M  V30 2523 H 229.707 3.07931 -4.58129 0
M  V30 2524 H 230.184 3.29901 -2.89935 0
M  V30 2525 H 230.79 1.89492 -3.80753 0
M  V30 2526 N 229.106 1.52395 0.401703 0
M  V30 2527 C 230.336 1.70429 1.1678 0
M  V30 2528 C 230.744 0.416702 1.84554 0
M  V30 2529 O 230.087 -0.617697 1.73003 0
M  V30 2530 C 230.149 2.78919 2.26814 0
M  V30 2531 C 229.813 4.20437 1.79113 0
M  V30 2532 C 230.81 5.04028 1.27482 0
M  V30 2533 C 228.495 4.66704 1.85722 0
M  V30 2534 C 230.489 6.31961 0.830913 0
M  V30 2535 C 228.176 5.94625 1.40942 0
M  V30 2536 C 229.174 6.77082 0.897128 0
M  V30 2537 O 228.862 8.02607 0.455822 0
M  V30 2538 H 228.594 0.574272 0.356634 0
M  V30 2539 H 231.148 1.99767 0.477724 0
M  V30 2540 H 229.378 2.44973 2.99207 0
M  V30 2541 H 231.067 2.8548 2.88541 0
M  V30 2542 H 231.833 4.69471 1.21744 0
M  V30 2543 H 227.712 4.0262 2.24539 0
M  V30 2544 H 231.256 6.96271 0.430368 0
M  V30 2545 H 227.153 6.28688 1.46362 0
M  V30 2546 H 227.921 8.16453 0.578457 0
M  V30 2547 N 230.584 -0.659388 1.43143 0
M  V30 2548 C 231.824 -1.43121 1.45931 0
M  V30 2549 C 232.188 -1.91838 0.0789298 0
M  V30 2550 O 233.389 -2.68794 -0.018491 0
M  V30 2551 C 231.66 -2.58534 2.46769 0
M  V30 2552 S 233.219 -3.47154 2.68384 0
M  V30 2553 H 230.037 -0.488624 0.516496 0
M  V30 2554 H 232.639 -0.766128 1.79863 0
M  V30 2555 H 231.343 -2.21007 3.45809 0
M  V30 2556 H 230.874 -3.29898 2.14315 0
M  V30 2557 H 232.889 -4.55051 1.97845 0
M  V30 2558 N 232.062 -1.29571 -0.897171 0
M  V30 2559 C 233.012 -1.11539 -1.98855 0
M  V30 2560 C 233.996 -0.0340716 -1.60864 0
M  V30 2561 O 235.188 -0.256062 -1.75138 0
M  V30 2562 C 232.317 -0.796603 -3.3393 0
M  V30 2563 C 231.403 -1.91758 -3.78272 0
M  V30 2564 N 231.794 -3.16143 -3.94826 0
M  V30 2565 C 230.092 -1.81119 -4.07568 0
M  V30 2566 C 230.793 -3.89293 -4.32233 0
M  V30 2567 N 229.769 -3.17255 -4.41419 0
M  V30 2568 H 233.571 -2.05894 -2.09726 0
M  V30 2569 H 231.085 -1.20732 -1.08616 0
M  V30 2570 H 233.082 -0.648459 -4.11826 0
M  V30 2571 H 231.742 0.139003 -3.24402 0
M  V30 2572 H 232.753 -3.5157 -3.80288 0
M  V30 2573 H 229.43 -0.948461 -4.06584 0
M  V30 2574 H 230.82 -4.9635 -4.52865 0
M  V30 2575 N 233.54 1.10788 -1.12088 0
M  V30 2576 C 234.817 1.79136 -0.785476 0
M  V30 2577 C 235.197 1.98246 0.725377 0
M  V30 2578 O 234.545 1.57258 1.65778 0
M  V30 2579 C 234.755 3.12375 -1.55636 0
M  V30 2580 C 236.103 3.8731 -1.74001 0
M  V30 2581 O 237.127 3.22085 -1.52117 0
M  V30 2582 O 235.986 5.04369 -2.10415 0
M  V30 2583 H 233.08 0.776226 -0.285311 0
M  V30 2584 H 235.626 1.1747 -1.2247 0
M  V30 2585 H 234.398 2.93863 -2.5838 0
M  V30 2586 H 234.021 3.81758 -1.11114 0
M  V30 2587 N 235.018 0.912232 1.28515 0
M  V30 2588 C 235.965 0.397954 2.27343 0
M  V30 2589 C 236.935 -0.526766 1.57526 0
M  V30 2590 O 238.12 -0.449292 1.85435 0
M  V30 2591 C 235.26 -0.357263 3.43246 0
M  V30 2592 C 234.373 0.599788 4.27816 0
M  V30 2593 C 233.508 -0.173725 5.30916 0
M  V30 2594 C 232.547 0.777039 6.07148 0
M  V30 2595 N 231.684 0.0371398 7.0209 0
M  V30 2596 H 236.524 1.24577 2.70711 0
M  V30 2597 H 234.061 0.625612 1.33133 0
M  V30 2598 H 236.019 -0.8113 4.09236 0
M  V30 2599 H 234.649 -1.16943 3.00872 0
M  V30 2600 H 233.701 1.17235 3.61884 0
M  V30 2601 H 235.013 1.32704 4.80823 0
M  V30 2602 H 234.167 -0.688394 6.02782 0
M  V30 2603 H 232.906 -0.934041 4.78672 0
M  V30 2604 H 231.911 1.3031 5.34134 0
M  V30 2605 H 233.136 1.53689 6.61481 0
M  V30 2606 H 231.082 -0.705213 6.52198 0
M  V30 2607 H 230.999 0.704249 7.52713 0
M  V30 2608 H 232.267 -0.457383 7.78157 0
M  V30 2609 N 236.496 -1.42363 0.676048 0
M  V30 2610 C 237.443 -2.308 -0.00150904 0
M  V30 2611 C 238.413 -1.46032 -0.791444 0
M  V30 2612 O 239.598 -1.74861 -0.76344 0
M  V30 2613 C 236.738 -3.31883 -0.945919 0
M  V30 2614 C 235.851 -4.31741 -0.149675 0
M  V30 2615 C 234.986 -5.19898 -1.08995 0
M  V30 2616 C 234.025 -6.11434 -0.285465 0
M  V30 2617 N 233.162 -6.92138 -1.17851 0
M  V30 2618 H 238.002 -2.88187 0.758455 0
M  V30 2619 H 235.539 -1.41952 0.38576 0
M  V30 2620 H 237.497 -3.89019 -1.50731 0
M  V30 2621 H 236.127 -2.76093 -1.6725 0
M  V30 2622 H 235.179 -3.76713 0.528359 0
M  V30 2623 H 236.491 -4.96534 0.474866 0
M  V30 2624 H 235.645 -5.81772 -1.72123 0
M  V30 2625 H 234.384 -4.55284 -1.74837 0
M  V30 2626 H 233.389 -5.48627 0.359018 0
M  V30 2627 H 234.614 -6.78097 0.368883 0
M  V30 2628 H 232.56 -6.30152 -1.82332 0
M  V30 2629 H 232.477 -7.53542 -0.609082 0
M  V30 2630 H 233.745 -7.58499 -1.79722 0
M  V30 2631 N 237.974 -0.419461 -1.51915 0
M  V30 2632 C 239.22 0.153166 -2.02221 0
M  V30 2633 C 239.553 1.43907 -1.30401 0
M  V30 2634 O 238.828 1.90055 -0.413438 0
M  V30 2635 C 239.111 0.390291 -3.57979 0
M  V30 2636 C 238.964 -0.913014 -4.40436 0
M  V30 2637 C 240.283 1.16794 -4.2432 0
M  V30 2638 H 237.402 0.0541924 -0.735005 0
M  V30 2639 H 240.044 -0.554955 -1.81715 0
M  V30 2640 H 238.194 0.993491 -3.75582 0
M  V30 2641 H 239.866 -1.54882 -4.34522 0
M  V30 2642 H 238.109 -1.52168 -4.06236 0
M  V30 2643 H 238.78 -0.701361 -5.47526 0
M  V30 2644 H 241.256 0.657161 -4.10878 0
M  V30 2645 H 240.132 1.3026 -5.3322 0
M  V30 2646 H 240.393 2.19132 -3.83971 0
M  V30 2647 N 239.452 1.56882 -0.150215 0
M  V30 2648 C 240.701 1.95403 0.500071 0
M  V30 2649 C 241.014 1.03777 1.658 0
M  V30 2650 O 242.22 1.31889 2.37313 0
M  V30 2651 C 240.676 3.4738 0.941018 0
M  V30 2652 C 240.284 4.47596 -0.190158 0
M  V30 2653 C 242.028 3.9476 1.56091 0
M  V30 2654 C 239.935 5.90787 0.269237 0
M  V30 2655 H 238.865 0.729515 0.190588 0
M  V30 2656 H 241.516 1.81988 -0.235074 0
M  V30 2657 H 239.898 3.56138 1.73152 0
M  V30 2658 H 241.072 4.50536 -0.967157 0
M  V30 2659 H 239.387 4.10151 -0.718666 0
M  V30 2660 H 241.984 4.99181 1.9163 0
M  V30 2661 H 242.327 3.36494 2.45107 0
M  V30 2662 H 242.86 3.88932 0.835249 0
M  V30 2663 H 239.599 6.52879 -0.585621 0
M  V30 2664 H 239.119 5.912 1.01204 0
M  V30 2665 H 240.798 6.42979 0.720176 0
M  V30 2666 N 240.93 -0.123565 1.57115 0
M  V30 2667 C 241.88 -1.1575 1.96433 0
M  V30 2668 C 242.864 -1.37313 0.838686 0
M  V30 2669 O 244.056 -1.38482 1.10235 0
M  V30 2670 C 241.185 -2.48526 2.36833 0
M  V30 2671 C 240.271 -2.30457 3.5602 0
M  V30 2672 N 240.662 -1.8219 4.71848 0
M  V30 2673 C 238.96 -2.61129 3.61563 0
M  V30 2674 C 239.661 -1.77721 5.53886 0
M  V30 2675 N 238.637 -2.21899 4.96248 0
M  V30 2676 H 242.439 -0.776797 2.83449 0
M  V30 2677 H 239.953 -0.331364 1.58983 0
M  V30 2678 H 241.95 -3.233 2.63216 0
M  V30 2679 H 240.61 -2.87358 1.5118 0
M  V30 2680 H 241.621 -1.51805 4.95152 0
M  V30 2681 H 238.298 -3.03678 2.86507 0
M  V30 2682 H 239.688 -1.41697 6.56789 0
M  V30 2683 N 242.408 -1.52605 -0.393616 0
M  V30 2684 C 243.824 -1.41753 -0.733357 0
M  V30 2685 C 244.024 -0.534293 -1.94287 0
M  V30 2686 O 243.08 -0.0059787 -2.52499 0
M  V30 2687 C 244.393 -2.84531 -0.972772 0
M  V30 2688 C 245.941 -2.93978 -1.07453 0
M  V30 2689 C 246.416 -4.37756 -1.3466 0
M  V30 2690 N 247.907 -4.4106 -1.41492 0
M  V30 2691 C 248.642 -5.49387 -1.642 0
M  V30 2692 N 248.138 -6.67806 -1.8441 0
M  V30 2693 N 249.931 -5.36923 -1.66342 0
M  V30 2694 H 242.082 -2.08555 0.402328 0
M  V30 2695 H 244.345 -0.940654 0.117789 0
M  V30 2696 H 244.051 -3.51353 -0.156204 0
M  V30 2697 H 243.925 -3.26508 -1.88871 0
M  V30 2698 H 246.312 -2.27326 -1.88167 0
M  V30 2699 H 246.393 -2.55435 -0.136605 0
M  V30 2700 H 246.037 -5.04972 -0.544581 0
M  V30 2701 H 245.967 -4.73848 -2.2973 0
M  V30 2702 H 248.458 -3.55705 -1.27601 0
M  V30 2703 H 248.771 -7.46141 -2.01231 0
M  V30 2704 H 247.116 -6.70843 -1.81644 0
M  V30 2705 H 250.307 -4.43381 -1.50102 0
M  V30 2706 H 250.48 -6.21416 -1.837 0
M  V30 2707 N 243.887 0.651787 -1.4349 0
M  V30 2708 C 245.164 1.40909 -1.35661 0
M  V30 2709 C 245.544 2.11099 -0.00511733 0
M  V30 2710 O 244.892 2.04892 1.0115 0
M  V30 2711 C 245.102 2.3926 -2.54078 0
M  V30 2712 C 246.45 3.03217 -2.97228 0
M  V30 2713 O 247.474 2.49588 -2.54135 0
M  V30 2714 O 246.333 4.00455 -3.71885 0
M  V30 2715 H 243.427 0.629625 -0.536191 0
M  V30 2716 H 245.973 0.678575 -1.55542 0
M  V30 2717 H 244.745 1.86352 -3.44076 0
M  V30 2718 H 244.368 3.1976 -2.36303 0
M  V30 2719 N 245.365 1.30045 0.890287 0
M  V30 2720 C 246.614 1.17929 1.63633 0
M  V30 2721 C 246.927 -0.266204 1.9378 0
M  V30 2722 O 248.133 -0.508804 2.6669 0
M  V30 2723 C 246.589 2.06317 2.94892 0
M  V30 2724 C 246.197 3.55745 2.72305 0
M  V30 2725 C 247.941 2.0295 3.72843 0
M  V30 2726 C 245.848 4.36205 3.99348 0
M  V30 2727 H 244.778 0.437782 0.613892 0
M  V30 2728 H 247.429 1.54754 0.986075 0
M  V30 2729 H 245.811 1.6237 3.61182 0
M  V30 2730 H 246.985 4.07805 2.1455 0
M  V30 2731 H 245.3 3.6088 2.07737 0
M  V30 2732 H 247.897 2.60319 4.67053 0
M  V30 2733 H 248.24 1.0117 4.0382 0
M  V30 2734 H 248.773 2.4499 3.13408 0
M  V30 2735 H 245.512 5.38659 3.73533 0
M  V30 2736 H 245.032 3.8891 4.56628 0
M  V30 2737 H 246.711 4.47362 4.67415 0
M  V30 2738 N 246.843 -1.10192 1.12674 0
M  V30 2739 C 247.79 -2.16606 0.796906 0
M  V30 2740 C 248.76 -1.64394 -0.237476 0
M  V30 2741 O 249.945 -1.90474 -0.111484 0
M  V30 2742 C 247.085 -3.44116 0.26043 0
M  V30 2743 C 246.198 -4.10268 1.35293 0
M  V30 2744 C 245.333 -5.25507 0.775621 0
M  V30 2745 C 244.372 -5.83567 1.84706 0
M  V30 2746 N 243.509 -6.90179 1.28829 0
M  V30 2747 H 248.349 -2.44163 1.70846 0
M  V30 2748 H 245.886 -1.19846 0.85295 0
M  V30 2749 H 247.844 -4.17143 -0.0686814 0
M  V30 2750 H 246.474 -3.16901 -0.614274 0
M  V30 2751 H 245.526 -3.35184 1.79877 0
M  V30 2752 H 246.838 -4.4946 2.16303 0
M  V30 2753 H 245.992 -6.05398 0.397327 0
M  V30 2754 H 244.731 -4.87656 -0.0656581 0
M  V30 2755 H 243.736 -5.02344 2.23452 0
M  V30 2756 H 244.961 -6.23482 2.69161 0
M  V30 2757 H 242.907 -6.54322 0.468881 0
M  V30 2758 H 242.824 -7.28097 2.03497 0
M  V30 2759 H 244.092 -7.73844 0.937311 0
M  V30 2760 N 248.321 -0.919034 -1.28029 0
M  V30 2761 C 249.732 -0.600735 -1.76771 0
M  V30 2762 C 250.083 0.884024 -1.75156 0
M  V30 2763 O 249.208 1.69163 -1.34956 0
M  V30 2764 C 249.803 -1.08372 -3.21 0
M  V30 2765 C 248.362 -0.816248 -3.67443 0
M  V30 2766 C 247.509 -1.24742 -2.47658 0
M  V30 2767 H 250.46 -1.09974 -1.14418 0
M  V30 2768 H 250.481 -0.427512 -3.78091 0
M  V30 2769 H 249.993 -2.16437 -3.22144 0
M  V30 2770 H 248.094 0.250968 -3.71754 0
M  V30 2771 H 248.207 -1.4277 -4.57333 0
M  V30 2772 H 246.571 -0.666083 -2.45836 0
M  V30 2773 H 247.354 -2.33653 -2.51518 0
M  V30 2774 N 249.799 1.42003 -0.683588 0
M  V30 2775 C 250.709 2.34597 -0.0109075 0
M  V30 2776 C 251.725 1.55576 0.779245 0
M  V30 2777 O 252.901 1.88107 0.719555 0
M  V30 2778 C 249.966 3.34199 0.922588 0
M  V30 2779 C 249.027 4.29115 0.125984 0
M  V30 2780 C 248.26 5.23959 1.01502 0
M  V30 2781 O 248.483 5.23952 2.25456 0
M  V30 2782 O 247.417 6.00053 0.47111 0
M  V30 2783 H 251.243 2.93675 -0.773853 0
M  V30 2784 H 248.828 1.42654 -0.443861 0
M  V30 2785 H 250.71 3.95365 1.45823 0
M  V30 2786 H 249.385 2.77582 1.66523 0
M  V30 2787 H 248.292 3.71335 -0.453969 0
M  V30 2788 H 249.625 4.88798 -0.577736 0
M  V30 2789 N 251.277 0.427512 1.51691 0
M  V30 2790 C 252.225 -0.403359 2.29076 0
M  V30 2791 C 253.219 -1.02962 1.34518 0
M  V30 2792 O 254.425 -0.965715 1.51901 0
M  V30 2793 H 250.8 -0.148879 0.737115 0
M  V30 2794 H 252.771 0.270295 2.97173 0
M  V30 2795 C 251.52 -1.49763 3.13794 0
M  V30 2796 H 250.843 -1.02508 3.86435 0
M  V30 2797 H 252.283 -2.05244 3.71014 0
M  V30 2798 C 250.742 -2.47536 2.28533 0
M  V30 2799 O 251.272 -3.51848 1.93819 0
M  V30 2800 N 249.478 -2.18187 1.91945 0
M  V30 2801 H 249.025 -1.33389 2.20375 0
M  V30 2802 H 248.983 -2.83848 1.35195 0
M  V30 2803 N 252.755 -1.56801 0.158532 0
M  V30 2804 C 253.685 -2.20347 -0.772609 0
M  V30 2805 C 254.666 -1.15518 -1.24859 0
M  V30 2806 O 255.851 -1.43902 -1.30406 0
M  V30 2807 C 252.981 -2.83417 -2.00729 0
M  V30 2808 C 251.935 -3.94174 -1.66765 0
M  V30 2809 C 251.261 -4.44233 -2.97592 0
M  V30 2810 C 252.561 -5.14392 -0.905447 0
M  V30 2811 H 254.255 -2.98413 -0.242959 0
M  V30 2812 H 251.801 -1.43537 -0.115419 0
M  V30 2813 H 253.754 -3.26543 -2.6636 0
M  V30 2814 H 252.478 -2.02701 -2.56086 0
M  V30 2815 H 251.137 -3.51684 -1.03508 0
M  V30 2816 H 250.785 -3.60325 -3.50963 0
M  V30 2817 H 250.485 -5.18945 -2.75626 0
M  V30 2818 H 252.009 -4.90037 -3.64274 0
M  V30 2819 H 253.423 -5.5429 -1.46408 0
M  V30 2820 H 251.82 -5.9494 -0.7853 0
M  V30 2821 H 252.89 -4.84795 0.100668 0
M  V30 2822 N 254.233 0.115231 -1.57178 0
M  V30 2823 C 255.163 1.1423 -2.03651 0
M  V30 2824 C 256.144 1.42967 -0.921655 0
M  V30 2825 O 257.329 1.53343 -1.19162 0
M  V30 2826 C 254.459 2.4675 -2.44401 0
M  V30 2827 C 253.413 2.32467 -3.59365 0
M  V30 2828 C 252.739 3.69984 -3.86026 0
M  V30 2829 C 254.039 1.78203 -4.90959 0
M  V30 2830 H 255.733 0.755749 -2.89705 0
M  V30 2831 H 253.279 0.362093 -1.39373 0
M  V30 2832 H 255.232 3.18854 -2.75517 0
M  V30 2833 H 253.956 2.87302 -1.55322 0
M  V30 2834 H 252.615 1.62811 -3.28463 0
M  V30 2835 H 252.263 4.08028 -2.94147 0
M  V30 2836 H 251.963 3.61279 -4.63412 0
M  V30 2837 H 253.487 4.43587 -4.19599 0
M  V30 2838 H 254.901 2.40128 -5.20587 0
M  V30 2839 H 253.298 1.8031 -5.72371 0
M  V30 2840 H 254.368 0.739876 -4.79222 0
M  V30 2841 N 255.711 1.52812 0.385517 0
M  V30 2842 C 256.641 1.80808 1.47752 0
M  V30 2843 C 257.622 0.660318 1.5676 0
M  V30 2844 O 258.807 0.908246 1.71652 0
M  V30 2845 C 255.937 1.98008 2.85324 0
M  V30 2846 C 254.891 3.13709 2.91154 0
M  V30 2847 C 254.217 3.16169 4.31209 0
M  V30 2848 C 255.517 4.52709 2.60483 0
M  V30 2849 H 257.211 2.72253 1.24573 0
M  V30 2850 H 254.757 1.31003 0.597839 0
M  V30 2851 H 256.71 2.16176 3.61726 0
M  V30 2852 H 255.434 1.03255 3.09848 0
M  V30 2853 H 254.093 2.95329 2.17201 0
M  V30 2854 H 253.741 2.19092 4.52778 0
M  V30 2855 H 253.441 3.93894 4.36029 0
M  V30 2856 H 254.965 3.36496 5.09512 0
M  V30 2857 H 256.379 4.71173 3.26602 0
M  V30 2858 H 254.776 5.32528 2.76648 0
M  V30 2859 H 255.846 4.59186 1.55809 0
M  V30 2860 N 257.189 -0.644168 1.43834 0
M  V30 2861 C 258.437 -1.40117 1.45642 0
M  V30 2862 C 258.758 -1.94814 0.0852413 0
M  V30 2863 O 258.028 -1.74988 -0.880688 0
M  V30 2864 H 256.608 -0.52005 0.536243 0
M  V30 2865 H 259.27 -0.7591 1.7951 0
M  V30 2866 H 258.366 -2.23902 2.17427 0
M  V30 2867 N 258.668 -1.30515 -0.883378 0
M  V30 2868 C 259.915 -1.1943 -1.63532 0
M  V30 2869 C 260.243 0.250627 -1.92878 0
M  V30 2870 O 259.498 1.19556 -1.54935 0
M  V30 2871 C 259.797 -1.96994 -2.98209 0
M  V30 2872 C 259.463 -3.466 -2.88408 0
M  V30 2873 C 258.125 -3.87397 -2.85442 0
M  V30 2874 C 260.477 -4.41863 -2.76418 0
M  V30 2875 C 257.805 -5.21745 -2.68327 0
M  V30 2876 C 260.157 -5.7632 -2.60841 0
M  V30 2877 C 258.821 -6.16354 -2.56251 0
M  V30 2878 H 258.091 -0.437025 -0.598406 0
M  V30 2879 H 260.738 -1.61635 -1.02696 0
M  V30 2880 H 259.043 -1.47429 -3.63004 0
M  V30 2881 H 260.74 -1.85808 -3.55354 0
M  V30 2882 H 257.33 -3.14182 -2.91527 0
M  V30 2883 H 261.514 -4.11285 -2.77775 0
M  V30 2884 H 256.77 -5.51853 -2.63189 0
M  V30 2885 H 260.944 -6.49772 -2.50538 0
M  V30 2886 H 258.571 -7.20401 -2.42748 0
M  V30 2887 N 260.146 1.09593 -1.13257 0
M  V30 2888 C 261.562 1.33775 -0.870423 0
M  V30 2889 C 261.762 1.95327 0.494926 0
M  V30 2890 O 260.818 2.19853 1.2418 0
M  V30 2891 C 262.131 2.25106 -1.99369 0
M  V30 2892 C 263.679 2.3862 -2.02558 0
M  V30 2893 C 264.154 3.33285 -3.14142 0
M  V30 2894 N 265.645 3.40857 -3.13641 0
M  V30 2895 C 266.38 4.14101 -3.96621 0
M  V30 2896 N 265.876 4.90157 -4.8961 0
M  V30 2897 N 267.669 4.09808 -3.84726 0
M  V30 2898 H 259.82 0.680136 -2.01216 0
M  V30 2899 H 262.083 0.362133 -0.876107 0
M  V30 2900 H 261.789 1.87103 -2.97801 0
M  V30 2901 H 261.663 3.25481 -1.90635 0
M  V30 2902 H 264.05 2.75887 -1.0474 0
M  V30 2903 H 264.131 1.38028 -2.15364 0
M  V30 2904 H 263.775 2.96741 -4.12198 0
M  V30 2905 H 263.705 4.33776 -2.98574 0
M  V30 2906 H 266.196 2.86624 -2.46282 0
M  V30 2907 H 266.509 5.4347 -5.49418 0
M  V30 2908 H 264.854 4.89251 -4.93617 0
M  V30 2909 H 268.045 3.4949 -3.11408 0
M  V30 2910 H 268.218 4.66629 -4.49623 0
M  V30 2911 N 261.624 0.925811 1.2754 0
M  V30 2912 C 262.872 0.564138 1.94067 0
M  V30 2913 C 263.193 -0.897188 1.73134 0
M  V30 2914 O 262.463 -1.63573 1.07799 0
M  V30 2915 H 261.043 0.205645 0.718136 0
M  V30 2916 H 263.705 1.1778 1.55287 0
M  V30 2917 H 262.801 0.76881 3.02483 0
M  V30 2918 N 263.102 -1.41638 0.69111 0
M  V30 2919 C 264.012 -2.34588 0.0233487 0
M  V30 2920 C 265.028 -1.55987 -0.770984 0
M  V30 2921 O 266.204 -1.88486 -0.709569 0
M  V30 2922 C 263.269 -3.34684 -0.904851 0
M  V30 2923 C 262.33 -4.29176 -0.103225 0
M  V30 2924 C 261.563 -5.2449 -0.987216 0
M  V30 2925 O 261.786 -5.2514 -2.22674 0
M  V30 2926 O 260.72 -6.00295 -0.439281 0
M  V30 2927 H 264.546 -2.93261 0.789416 0
M  V30 2928 H 262.131 -1.42417 0.45142 0
M  V30 2929 H 264.013 -3.96133 -1.43724 0
M  V30 2930 H 262.688 -2.78461 -1.65049 0
M  V30 2931 H 261.595 -3.71089 0.473655 0
M  V30 2932 H 262.928 -4.88484 0.60365 0
M  V30 2933 N 264.58 -0.43555 -1.51462 0
M  V30 2934 C 265.826 0.131709 -2.02372 0
M  V30 2935 C 266.159 1.42516 -1.3192 0
M  V30 2936 O 265.434 1.89606 -0.433573 0
M  V30 2937 C 265.717 0.352301 -3.58373 0
M  V30 2938 C 265.57 -0.959676 -4.39443 0
M  V30 2939 C 266.889 1.12286 -4.25535 0
M  V30 2940 H 264.008 0.0463936 -0.735538 0
M  V30 2941 H 266.65 -0.574197 -1.81116 0
M  V30 2942 H 264.8 0.9536 -3.76615 0
M  V30 2943 H 266.472 -1.59482 -4.32855 0
M  V30 2944 H 264.715 -1.56468 -4.04599 0
M  V30 2945 H 265.386 -0.759394 -5.46752 0
M  V30 2946 H 267.862 0.613545 -4.11552 0
M  V30 2947 H 266.738 1.24598 -5.34571 0
M  V30 2948 H 266.999 2.15048 -3.86273 0
M  V30 2949 N 266.058 1.56714 -0.166846 0
M  V30 2950 C 267.005 2.17746 0.765193 0
M  V30 2951 C 267.975 1.11614 1.23011 0
M  V30 2952 O 269.16 1.39745 1.29908 0
M  V30 2953 C 266.3 2.81882 1.9909 0
M  V30 2954 C 265.413 4.02462 1.56997 0
M  V30 2955 C 264.548 4.54537 2.749 0
M  V30 2956 C 263.587 5.67538 2.29275 0
M  V30 2957 N 262.724 6.14142 3.40255 0
M  V30 2958 H 267.564 2.97048 0.237952 0
M  V30 2959 H 265.101 1.4672 0.105725 0
M  V30 2960 H 267.059 3.17221 2.70974 0
M  V30 2961 H 265.689 2.05191 2.49192 0
M  V30 2962 H 264.741 3.72973 0.748037 0
M  V30 2963 H 266.053 4.84273 1.19503 0
M  V30 2964 H 265.207 4.92035 3.54946 0
M  V30 2965 H 263.946 3.71774 3.1565 0
M  V30 2966 H 262.951 5.29597 1.47674 0
M  V30 2967 H 264.176 6.52099 1.89588 0
M  V30 2968 H 262.122 5.3431 3.8059 0
M  V30 2969 H 262.039 6.9093 3.06841 0
M  V30 2970 H 263.307 6.56289 4.206 0
M  V30 2971 N 267.536 -0.106894 1.57237 0
M  V30 2972 C 268.785 -0.811163 1.8467 0
M  V30 2973 C 269.098 -1.80469 0.754342 0
M  V30 2974 O 270.304 -2.55601 0.915439 0
M  V30 2975 C 268.76 -1.49337 3.27454 0
M  V30 2976 C 268.368 -0.540217 4.44731 0
M  V30 2977 C 270.112 -2.18206 3.64124 0
M  V30 2978 C 268.019 -1.22634 5.78545 0
M  V30 2979 H 266.949 -0.306679 0.688813 0
M  V30 2980 H 269.6 -0.0639887 1.83388 0
M  V30 2981 H 267.982 -2.2876 3.23241 0
M  V30 2982 H 269.156 0.221659 4.60267 0
M  V30 2983 H 267.471 0.042146 4.16379 0
M  V30 2984 H 270.068 -2.70253 4.61376 0
M  V30 2985 H 270.411 -2.96562 2.92158 0
M  V30 2986 H 270.944 -1.45658 3.70174 0
M  V30 2987 H 267.683 -0.483832 6.53712 0
M  V30 2988 H 267.203 -1.95993 5.66874 0
M  V30 2989 H 268.882 -1.75615 6.2271 0
M  V30 2990 N 269.014 -1.53014 -0.377408 0
M  V30 2991 C 269.977 -1.77957 -1.44444 0
M  V30 2992 C 270.977 -0.649763 -1.47087 0
M  V30 2993 O 272.167 -0.917897 -1.48055 0
M  V30 2994 C 269.299 -1.89089 -2.83651 0
M  V30 2995 H 270.492 -2.73243 -1.23606 0
M  V30 2996 H 268.045 -1.43912 -0.609844 0
M  V30 2997 H 268.78 -0.958293 -3.09818 0
M  V30 2998 H 268.565 -2.71254 -2.83132 0
M  V30 2999 H 270.055 -2.1002 -3.60945 0
M  V30 3000 N 270.492 0.636531 -1.44174 0
M  V30 3001 C 271.769 1.39463 -1.37148 0
M  V30 3002 C 272.149 2.11082 -0.027507 0
M  V30 3003 O 271.497 2.05954 0.989716 0
M  V30 3004 C 271.707 2.36552 -2.56601 0
M  V30 3005 C 273.055 3.00048 -3.00427 0
M  V30 3006 O 274.079 2.46878 -2.56767 0
M  V30 3007 O 272.938 3.96488 -3.76111 0
M  V30 3008 H 270.032 0.623903 -0.542839 0
M  V30 3009 H 272.578 0.662039 -1.56253 0
M  V30 3010 H 271.35 1.82692 -3.46034 0
M  V30 3011 H 270.973 3.17236 -2.39681 0
M  V30 3012 N 271.97 1.30982 0.876444 0
M  V30 3013 C 273.217 1.20296 1.62896 0
M  V30 3014 C 273.545 -0.240395 1.93009 0
M  V30 3015 O 272.8 -1.18733 1.55567 0
M  V30 3016 C 273.099 1.98572 2.9716 0
M  V30 3017 C 272.765 3.48125 2.86566 0
M  V30 3018 C 271.427 3.88905 2.83383 0
M  V30 3019 C 273.779 4.43322 2.74071 0
M  V30 3020 C 271.107 5.2316 2.65556 0
M  V30 3021 C 273.459 5.77695 2.57781 0
M  V30 3022 C 272.123 6.17704 2.52979 0
M  V30 3023 H 271.393 0.440193 0.59608 0
M  V30 3024 H 274.04 1.62177 1.01837 0
M  V30 3025 H 272.345 1.49352 3.62217 0
M  V30 3026 H 274.042 1.8769 3.54364 0
M  V30 3027 H 270.632 3.15723 2.89856 0
M  V30 3028 H 274.816 4.12752 2.75589 0
M  V30 3029 H 270.072 5.53241 2.60259 0
M  V30 3030 H 274.246 6.51091 2.47089 0
M  V30 3031 H 271.873 7.21678 2.38924 0
M  V30 3032 N 273.449 -1.08991 1.13837 0
M  V30 3033 C 274.697 -1.80899 0.901098 0
M  V30 3034 C 275.018 -1.86356 -0.574134 0
M  V30 3035 O 274.288 -1.35235 -1.41733 0
M  V30 3036 H 272.868 -0.669966 0.330386 0
M  V30 3037 H 275.53 -1.318 1.43578 0
M  V30 3038 H 274.626 -2.83929 1.29578 0
M  V30 3039 N 274.927 -0.932562 -1.27047 0
M  V30 3040 C 276.173 -0.585913 -1.94778 0
M  V30 3041 C 276.528 0.864142 -1.71902 0
M  V30 3042 O 275.821 1.60894 -1.04037 0
M  V30 3043 C 276.015 -0.853713 -3.47054 0
M  V30 3044 C 275.844 -2.32825 -3.84737 0
M  V30 3045 C 274.614 -2.98184 -4.07939 0
M  V30 3046 C 276.812 -3.30612 -3.93954 0
M  V30 3047 N 274.794 -4.3574 -4.3244 0
M  V30 3048 C 276.165 -4.53395 -4.22887 0
M  V30 3049 C 278.22 -3.25755 -3.76548 0
M  V30 3050 C 276.923 -5.71927 -4.36224 0
M  V30 3051 C 278.949 -4.43604 -3.91113 0
M  V30 3052 C 278.311 -5.65166 -4.20437 0
M  V30 3053 H 274.41 -0.264617 -0.735868 0
M  V30 3054 H 276.994 -1.20019 -1.53309 0
M  V30 3055 H 275.165 -0.268557 -3.8747 0
M  V30 3056 H 276.897 -0.469202 -4.01971 0
M  V30 3057 H 273.652 -2.48835 -4.02961 0
M  V30 3058 H 274.076 -5.06915 -4.48738 0
M  V30 3059 H 278.718 -2.32835 -3.52913 0
M  V30 3060 H 276.436 -6.65308 -4.58683 0
M  V30 3061 H 280.022 -4.41368 -3.79059 0
M  V30 3062 H 278.902 -6.54836 -4.31462 0
M  V30 3063 N 276.405 1.4127 -0.698611 0
M  V30 3064 C 277.63 2.06024 -0.238512 0
M  V30 3065 C 278.055 1.5224 1.10475 0
M  V30 3066 O 277.413 0.650623 1.69223 0
M  V30 3067 C 277.461 3.59988 -0.209952 0
M  V30 3068 O 276.565 4.04282 0.814235 0
M  V30 3069 H 275.906 0.653829 -0.115775 0
M  V30 3070 H 278.436 1.8098 -0.954326 0
M  V30 3071 H 278.446 4.07979 -0.0418436 0
M  V30 3072 H 277.121 3.98503 -1.1903 0
M  V30 3073 H 275.698 3.6779 0.615234 0
M  V30 3074 N 277.883 0.443576 1.51229 0
M  V30 3075 C 279.129 -0.120975 2.02439 0
M  V30 3076 C 279.462 -1.41815 1.32674 0
M  V30 3077 O 278.737 -1.89373 0.443622 0
M  V30 3078 C 279.02 -0.333291 3.58554 0
M  V30 3079 C 278.873 0.982968 4.38928 0
M  V30 3080 C 280.192 -1.10028 4.26124 0
M  V30 3081 H 277.311 -0.0424923 0.735774 0
M  V30 3082 H 279.953 0.583794 1.80809 0
M  V30 3083 H 278.103 -0.933614 3.77115 0
M  V30 3084 H 279.775 1.61775 4.32003 0
M  V30 3085 H 278.018 1.58611 4.03763 0
M  V30 3086 H 278.689 0.788379 5.46341 0
M  V30 3087 H 281.165 -0.591711 4.11871 0
M  V30 3088 H 280.041 -1.21761 5.35225 0
M  V30 3089 H 280.302 -2.12996 3.87408 0
M  V30 3090 N 279.361 -1.56624 0.175154 0
M  V30 3091 C 280.311 -2.14747 -0.766004 0
M  V30 3092 C 281.295 -1.08275 -1.19018 0
M  V30 3093 O 282.487 -1.34388 -1.15191 0
M  V30 3094 C 279.616 -2.79478 -1.99366 0
M  V30 3095 C 278.702 -3.93114 -1.5913 0
M  V30 3096 N 279.093 -4.97752 -0.89872 0
M  V30 3097 C 277.391 -4.04345 -1.88204 0
M  V30 3098 C 278.092 -5.77473 -0.700012 0
M  V30 3099 N 277.068 -5.29207 -1.24263 0
M  V30 3100 H 280.87 -2.93015 -0.22793 0
M  V30 3101 H 278.384 -1.6238 -0.0253843 0
M  V30 3102 H 280.381 -3.19498 -2.67818 0
M  V30 3103 H 279.041 -2.02692 -2.53665 0
M  V30 3104 H 280.052 -5.14903 -0.556347 0
M  V30 3105 H 276.729 -3.38667 -2.44153 0
M  V30 3106 H 278.119 -6.71728 -0.152047 0
M  V30 3107 N 280.839 0.0985539 -1.57292 0
M  V30 3108 C 282.067 0.816318 -1.90115 0
M  V30 3109 C 282.482 1.72451 -0.768509 0
M  V30 3110 O 281.839 1.80643 0.259687 0
M  V30 3111 C 281.89 1.63259 -3.22535 0
M  V30 3112 O 281.611 0.760934 -4.31441 0
M  V30 3113 C 283.112 2.45372 -3.69199 0
M  V30 3114 H 280.332 0.233595 -0.629027 0
M  V30 3115 H 282.876 0.0768229 -2.04356 0
M  V30 3116 H 281.031 2.32463 -3.09903 0
M  V30 3117 H 281.445 1.32595 -5.07463 0
M  V30 3118 H 282.919 2.98144 -4.64558 0
M  V30 3119 H 283.396 3.23677 -2.96867 0
M  V30 3120 H 284.002 1.81373 -3.84687 0
M  V30 3121 N 282.317 1.53212 0.369288 0
M  V30 3122 C 283.728 1.60943 0.946276 0
M  V30 3123 C 284.079 0.47452 1.90375 0
M  V30 3124 O 283.204 -0.399597 2.12679 0
M  V30 3125 C 283.799 2.91715 1.72302 0
M  V30 3126 C 282.358 3.01792 2.24941 0
M  V30 3127 C 281.505 2.56211 1.06072 0
M  V30 3128 H 284.456 1.58007 0.148198 0
M  V30 3129 H 284.477 2.79309 2.58393 0
M  V30 3130 H 283.989 3.74295 1.0259 0
M  V30 3131 H 282.09 2.23791 2.97906 0
M  V30 3132 H 282.203 4.06803 2.53077 0
M  V30 3133 H 280.567 2.10998 1.4266 0
M  V30 3134 H 281.35 3.41206 0.378639 0
M  V30 3135 N 283.795 -0.628877 1.44509 0
M  V30 3136 C 285.02 -1.42048 1.5112 0
M  V30 3137 C 285.445 -1.87594 0.137818 0
M  V30 3138 O 284.803 -1.58873 -0.873437 0
M  V30 3139 C 284.851 -2.61541 2.48251 0
M  V30 3140 O 283.955 -3.61453 1.98559 0
M  V30 3141 H 283.296 -0.424942 0.510216 0
M  V30 3142 H 285.826 -0.767374 1.89664 0
M  V30 3143 H 285.836 -3.09057 2.66361 0
M  V30 3144 H 284.511 -2.27736 3.48007 0
M  V30 3145 H 283.088 -3.20731 1.90227 0
M  V30 3146 N 285.273 -1.31445 -0.869486 0
M  V30 3147 C 286.203 -1.21727 -1.99261 0
M  V30 3148 C 287.184 -0.104359 -1.6978 0
M  V30 3149 O 288.369 -0.289038 -1.92037 0
M  V30 3150 C 285.499 -0.924317 -3.34774 0
M  V30 3151 C 284.453 -1.99685 -3.78563 0
M  V30 3152 C 283.779 -1.55658 -5.11541 0
M  V30 3153 C 285.079 -3.41003 -3.95619 0
M  V30 3154 H 286.773 -2.1569 -2.07649 0
M  V30 3155 H 284.319 -1.03839 -0.997675 0
M  V30 3156 H 286.272 -0.842934 -4.12883 0
M  V30 3157 H 284.996 0.0509793 -3.2656 0
M  V30 3158 H 283.655 -2.06813 -3.02694 0
M  V30 3159 H 283.303 -0.569132 -4.9977 0
M  V30 3160 H 283.003 -2.27409 -5.41811 0
M  V30 3161 H 284.527 -1.48928 -5.92159 0
M  V30 3162 H 285.941 -3.36547 -4.64122 0
M  V30 3163 H 284.338 -4.10975 -4.37286 0
M  V30 3164 H 285.408 -3.81754 -2.98985 0
M  V30 3165 N 286.751 1.08385 -1.14413 0
M  V30 3166 C 288.167 1.32844 -0.884563 0
M  V30 3167 C 288.367 1.95841 0.474181 0
M  V30 3168 O 287.423 2.21158 1.21842 0
M  V30 3169 C 288.736 2.22978 -2.01745 0
M  V30 3170 C 290.284 2.36458 -2.05077 0
M  V30 3171 C 290.759 3.29934 -3.1766 0
M  V30 3172 N 292.25 3.37511 -3.17239 0
M  V30 3173 C 292.985 4.09871 -4.0099 0
M  V30 3174 N 292.481 4.84936 -4.94781 0
M  V30 3175 N 294.274 4.05704 -3.89051 0
M  V30 3176 H 286.425 0.658756 -2.01926 0
M  V30 3177 H 288.688 0.352821 -0.879899 0
M  V30 3178 H 288.394 1.83934 -2.99769 0
M  V30 3179 H 288.268 3.23441 -1.94077 0
M  V30 3180 H 290.655 2.7476 -1.0766 0
M  V30 3181 H 290.736 1.35736 -2.16816 0
M  V30 3182 H 290.38 2.92352 -4.15322 0
M  V30 3183 H 290.31 4.30584 -3.03158 0
M  V30 3184 H 292.801 2.83996 -2.49308 0
M  V30 3185 H 293.114 5.37612 -5.55151 0
M  V30 3186 H 291.459 4.83988 -4.98779 0
M  V30 3187 H 294.65 3.46167 -3.15097 0
M  V30 3188 H 294.823 4.61834 -4.54547 0
M  V30 3189 N 288.23 0.939286 1.26551 0
M  V30 3190 C 289.646 0.641304 1.46149 0
M  V30 3191 C 289.846 -0.805964 1.84679 0
M  V30 3192 O 288.902 -1.58278 1.96734 0
M  V30 3193 C 290.215 1.6011 2.54529 0
M  V30 3194 C 291.763 1.6106 2.68382 0
M  V30 3195 C 292.238 2.55765 3.79932 0
M  V30 3196 N 293.729 2.5404 3.87322 0
M  V30 3197 C 294.464 3.24004 4.73085 0
M  V30 3198 N 293.96 4.03388 5.63249 0
M  V30 3199 N 295.753 3.12965 4.66914 0
M  V30 3200 H 287.904 1.87478 0.998285 0
M  V30 3201 H 290.167 0.805559 0.499779 0
M  V30 3202 H 289.873 2.63412 2.33039 0
M  V30 3203 H 289.747 1.35171 3.52149 0
M  V30 3204 H 292.134 0.584835 2.89247 0
M  V30 3205 H 292.215 1.90053 1.71212 0
M  V30 3206 H 291.859 3.58458 3.5982 0
M  V30 3207 H 291.789 2.24063 4.76554 0
M  V30 3208 H 294.28 1.96396 3.22858 0
M  V30 3209 H 294.593 4.5373 6.25579 0
M  V30 3210 H 292.938 4.07489 5.63008 0
M  V30 3211 H 296.129 2.50432 3.95476 0
M  V30 3212 H 296.302 3.67759 5.33533 0
M  V30 3213 N 289.708 -1.40897 0.706093 0
M  V30 3214 C 290.655 -2.30751 0.0474474 0
M  V30 3215 C 291.625 -1.47678 -0.76029 0
M  V30 3216 O 292.81 -1.76441 -0.726177 0
M  V30 3217 C 289.95 -3.33815 -0.875309 0
M  V30 3218 C 289.063 -4.31961 -0.0580623 0
M  V30 3219 C 288.198 -5.22093 -0.979425 0
M  V30 3220 C 287.237 -6.11902 -0.155706 0
M  V30 3221 N 286.374 -6.94482 -1.03144 0
M  V30 3222 H 291.214 -2.86513 0.819413 0
M  V30 3223 H 288.751 -1.41102 0.415783 0
M  V30 3224 H 290.709 -3.92129 -1.42446 0
M  V30 3225 H 289.339 -2.79579 -1.61356 0
M  V30 3226 H 288.391 -3.75507 0.608147 0
M  V30 3227 H 289.703 -4.95415 0.580082 0
M  V30 3228 H 288.857 -5.85292 -1.59744 0
M  V30 3229 H 287.596 -4.5889 -1.65141 0
M  V30 3230 H 286.601 -5.47742 0.475309 0
M  V30 3231 H 287.826 -6.77162 0.512635 0
M  V30 3232 H 285.772 -6.33877 -1.68924 0
M  V30 3233 H 285.689 -7.54665 -0.449108 0
M  V30 3234 H 286.957 -7.6214 -1.63593 0
M  V30 3235 N 291.186 -0.45159 -1.50991 0
M  V30 3236 C 292.414 0.108334 -2.06616 0
M  V30 3237 C 292.829 1.35224 -1.31757 0
M  V30 3238 O 292.186 1.78475 -0.381174 0
M  V30 3239 C 292.237 0.41619 -3.59096 0
M  V30 3240 O 291.958 -0.778361 -4.3113 0
M  V30 3241 C 293.459 1.02523 -4.31282 0
M  V30 3242 H 290.679 0.00159995 -0.670998 0
M  V30 3243 H 293.223 -0.634771 -1.94399 0
M  V30 3244 H 291.378 1.10921 -3.71181 0
M  V30 3245 H 291.792 -0.511181 -5.22003 0
M  V30 3246 H 293.266 1.19053 -5.39009 0
M  V30 3247 H 293.743 2.01013 -3.905 0
M  V30 3248 H 294.349 0.371173 -4.23677 0
M  V30 3249 N 292.664 1.56529 -0.183458 0
M  V30 3250 C 293.597 2.14417 0.781052 0
M  V30 3251 C 294.575 1.07761 1.21763 0
M  V30 3252 O 295.759 1.35807 1.30724 0
M  V30 3253 C 292.886 2.69361 2.05335 0
M  V30 3254 C 291.932 3.885 1.75982 0
M  V30 3255 S 292.765 5.27568 0.918256 0
M  V30 3256 C 293.921 5.85926 2.20095 0
M  V30 3257 H 294.154 2.95893 0.2889 0
M  V30 3258 H 291.687 1.54368 0.0313844 0
M  V30 3259 H 293.645 3.01662 2.78406 0
M  V30 3260 H 292.306 1.87949 2.51663 0
M  V30 3261 H 291.499 4.25314 2.70415 0
M  V30 3262 H 291.101 3.57149 1.10999 0
M  V30 3263 H 293.393 5.99579 3.15453 0
M  V30 3264 H 294.336 6.82761 1.87731 0
M  V30 3265 H 294.744 5.14438 2.32409 0
M  V30 3266 N 294.142 -0.090211 1.57342 0
M  V30 3267 C 295.382 -0.798365 1.88163 0
M  V30 3268 C 295.746 -1.75662 0.775046 0
M  V30 3269 O 296.947 -2.50849 0.965816 0
M  V30 3270 C 295.218 -1.50376 3.24225 0
M  V30 3271 S 296.777 -2.24952 3.76752 0
M  V30 3272 H 293.595 -0.265883 0.659414 0
M  V30 3273 H 296.197 -0.055264 1.95422 0
M  V30 3274 H 294.901 -0.792286 4.0268 0
M  V30 3275 H 294.432 -2.28666 3.20118 0
M  V30 3276 H 296.447 -3.51173 3.5056 0
M  V30 3277 N 295.62 -1.53406 -0.361157 0
M  V30 3278 C 296.868 -1.69467 -1.10115 0
M  V30 3279 C 297.189 -0.451352 -1.89705 0
M  V30 3280 O 296.459 0.534636 -1.88463 0
M  V30 3281 H 295.039 -0.624749 -0.409508 0
M  V30 3282 H 297.701 -1.90609 -0.406699 0
M  V30 3283 H 296.797 -2.55774 -1.78847 0
M  V30 3284 N 297.098 0.621204 -1.44841 0
M  V30 3285 C 298.326 1.40752 -1.51646 0
M  V30 3286 C 298.741 1.88246 -0.144549 0
M  V30 3287 O 298.098 1.61422 0.851416 0
M  V30 3288 C 298.149 2.62119 -2.4895 0
M  V30 3289 O 297.87 2.16602 -3.80808 0
M  V30 3290 C 299.371 3.55135 -2.65319 0
M  V30 3291 H 296.591 0.431325 -0.514004 0
M  V30 3292 H 299.135 0.758835 -1.899 0
M  V30 3293 H 297.29 3.23058 -2.13805 0
M  V30 3294 H 297.704 2.95358 -4.33433 0
M  V30 3295 H 299.178 4.36874 -3.37409 0
M  V30 3296 H 299.655 4.04592 -1.70886 0
M  V30 3297 H 300.261 3.00058 -3.01405 0
M  V30 3298 N 298.576 1.31904 0.862503 0
M  V30 3299 C 299.506 1.22782 1.98612 0
M  V30 3300 C 300.487 0.113362 1.69722 0
M  V30 3301 O 301.672 0.299218 1.91881 0
M  V30 3302 C 298.802 0.942058 3.34279 0
M  V30 3303 C 297.756 2.0169 3.77499 0
M  V30 3304 C 297.082 1.58369 5.10709 0
M  V30 3305 C 298.382 3.43096 3.93805 0
M  V30 3306 H 300.076 2.16788 2.06502 0
M  V30 3307 H 297.622 1.04366 0.992154 0
M  V30 3308 H 299.575 0.864818 4.1243 0
M  V30 3309 H 298.299 -0.0336603 3.26583 0
M  V30 3310 H 296.958 2.08416 3.01593 0
M  V30 3311 H 296.606 0.595628 4.99461 0
M  V30 3312 H 296.306 2.30279 5.40597 0
M  V30 3313 H 297.83 1.52067 5.91361 0
M  V30 3314 H 299.244 3.39003 4.62331 0
M  V30 3315 H 297.641 4.13288 4.35101 0
M  V30 3316 H 298.711 3.83334 2.96957 0
M  V30 3317 N 300.054 -1.07777 1.14986 0
M  V30 3318 C 301.331 -1.7699 0.832695 0
M  V30 3319 C 301.711 -2.001 -0.672561 0
M  V30 3320 O 301.059 -1.61598 -1.6155 0
M  V30 3321 C 301.269 -3.08139 1.63863 0
M  V30 3322 C 302.617 -3.8256 1.84208 0
M  V30 3323 O 303.641 -3.17939 1.60603 0
M  V30 3324 O 302.5 -4.98612 2.23714 0
M  V30 3325 H 299.594 -0.768389 0.305791 0
M  V30 3326 H 302.14 -1.14182 1.25541 0
M  V30 3327 H 300.912 -2.86909 2.6608 0
M  V30 3328 H 300.535 -3.78678 1.21197 0
M  V30 3329 N 301.532 -0.945985 -1.26051 0
M  V30 3330 C 302.762 -0.612136 -1.97323 0
M  V30 3331 C 303.17 0.818171 -1.70595 0
M  V30 3332 O 302.513 1.55777 -0.973613 0
M  V30 3333 C 302.575 -0.780347 -3.50929 0
M  V30 3334 C 302.239 -2.18619 -4.01317 0
M  V30 3335 C 303.236 -3.16209 -4.12683 0
M  V30 3336 C 300.921 -2.50805 -4.35203 0
M  V30 3337 C 302.915 -4.44085 -4.57238 0
M  V30 3338 C 300.602 -3.78912 -4.79446 0
M  V30 3339 C 301.6 -4.75365 -4.90425 0
M  V30 3340 O 301.288 -6.01191 -5.3369 0
M  V30 3341 H 301.02 -0.229134 -0.635982 0
M  V30 3342 H 303.574 -1.27036 -1.61404 0
M  V30 3343 H 301.804 -0.0649864 -3.86645 0
M  V30 3344 H 303.493 -0.448842 -4.03411 0
M  V30 3345 H 304.259 -2.92668 -3.86744 0
M  V30 3346 H 300.138 -1.76463 -4.2589 0
M  V30 3347 H 303.682 -5.19373 -4.65723 0
M  V30 3348 H 299.579 -4.02265 -5.0483 0
M  V30 3349 H 300.347 -6.04442 -5.51899 0
M  V30 3350 N 303.011 1.40521 -0.713556 0
M  V30 3351 C 303.941 2.33381 -0.0743864 0
M  V30 3352 C 304.922 1.52784 0.747735 0
M  V30 3353 O 306.107 1.81258 0.697071 0
M  V30 3354 C 303.237 3.36748 0.849598 0
M  V30 3355 C 302.191 4.27793 0.133247 0
M  V30 3356 C 301.517 5.21679 1.17281 0
M  V30 3357 C 302.817 5.12415 -1.01134 0
M  V30 3358 H 304.511 2.87081 -0.850007 0
M  V30 3359 H 302.057 1.38034 -0.410201 0
M  V30 3360 H 304.01 4.00648 1.30612 0
M  V30 3361 H 302.734 2.81439 1.65709 0
M  V30 3362 H 301.393 3.65342 -0.303426 0
M  V30 3363 H 301.041 4.62677 1.9733 0
M  V30 3364 H 300.741 5.83435 0.698397 0
M  V30 3365 H 302.265 5.88456 1.62947 0
M  V30 3366 H 303.679 5.69781 -0.634274 0
M  V30 3367 H 302.076 5.83203 -1.41399 0
M  V30 3368 H 303.146 4.48514 -1.84292 0
M  V30 3369 N 304.489 0.459591 1.5075 0
M  V30 3370 C 305.9 0.00171547 1.867 0
M  V30 3371 C 306.251 -1.39934 1.37525 0
M  V30 3372 O 305.376 -2.03523 0.735349 0
M  V30 3373 C 305.971 -0.00366298 3.388 0
M  V30 3374 C 304.53 -0.406026 3.74204 0
M  V30 3375 C 303.677 0.38673 2.7459 0
M  V30 3376 H 306.628 0.674413 1.43657 0
M  V30 3377 H 306.649 -0.808371 3.71814 0
M  V30 3378 H 306.161 1.01617 3.74561 0
M  V30 3379 H 304.262 -1.43063 3.4404 0
M  V30 3380 H 304.375 -0.115362 4.78961 0
M  V30 3381 H 302.739 -0.158019 2.54209 0
M  V30 3382 H 303.522 1.40585 3.13194 0
M  V30 3383 N 305.967 -1.56429 0.191757 0
M  V30 3384 C 307.378 -1.83912 -0.321428 0
M  V30 3385 C 307.729 -1.11231 -1.61623 0
M  V30 3386 O 306.854 -0.37202 -2.13178 0
M  V30 3387 C 307.449 -3.33624 -0.589961 0
M  V30 3388 C 306.008 -3.6153 -1.04753 0
M  V30 3389 C 305.155 -2.7714 -0.0943327 0
M  V30 3390 H 308.106 -1.53161 0.415612 0
M  V30 3391 H 308.127 -3.52213 -1.43966 0
M  V30 3392 H 307.639 -3.86495 0.352588 0
M  V30 3393 H 305.74 -3.14089 -2.00447 0
M  V30 3394 H 305.853 -4.69737 -0.942549 0
M  V30 3395 H 304.217 -2.47638 -0.595589 0
M  V30 3396 H 305 -3.32799 0.842601 0
M  V30 3397 N 307.445 0.0818655 -1.57387 0
M  V30 3398 C 308.355 1.11642 -2.06333 0
M  V30 3399 C 309.371 1.43033 -0.99083 0
M  V30 3400 O 310.547 1.53411 -1.30488 0
M  V30 3401 C 307.612 2.41342 -2.48907 0
M  V30 3402 C 306.673 2.17014 -3.7041 0
M  V30 3403 C 305.906 3.4053 -4.10944 0
M  V30 3404 O 306.129 4.4927 -3.51444 0
M  V30 3405 O 305.063 3.29336 -5.03807 0
M  V30 3406 H 308.889 0.730657 -2.9478 0
M  V30 3407 H 306.474 0.295301 -1.46452 0
M  V30 3408 H 308.356 3.17691 -2.76858 0
M  V30 3409 H 307.031 2.79319 -1.63593 0
M  V30 3410 H 305.938 1.38403 -3.47556 0
M  V30 3411 H 307.271 1.83923 -4.56545 0
M  V30 3412 N 308.923 1.53595 0.353017 0
M  V30 3413 C 309.856 1.7572 1.45594 0
M  V30 3414 C 310.834 0.605961 1.50887 0
M  V30 3415 O 312.018 0.840023 1.68748 0
M  V30 3416 C 309.145 1.84732 2.83887 0
M  V30 3417 C 308.191 3.06808 2.96262 0
M  V30 3418 S 309.024 4.66065 2.63711 0
M  V30 3419 C 310.18 4.77943 4.04131 0
M  V30 3420 H 310.413 2.68994 1.26608 0
M  V30 3421 H 307.946 1.44343 0.548117 0
M  V30 3422 H 309.904 1.9061 3.63563 0
M  V30 3423 H 308.565 0.92488 3.00175 0
M  V30 3424 H 307.758 3.09761 3.97573 0
M  V30 3425 H 307.36 2.99108 2.24523 0
M  V30 3426 H 309.652 4.5877 4.98534 0
M  V30 3427 H 310.595 5.80022 4.06177 0
M  V30 3428 H 311.003 4.06472 3.91715 0
M  V30 3429 N 310.401 -0.613514 1.45168 0
M  V30 3430 C 311.65 -1.36874 1.4815 0
M  V30 3431 C 311.963 -1.952 0.124982 0
M  V30 3432 O 313.169 -2.71481 0.0324176 0
M  V30 3433 C 311.625 -2.47905 2.60904 0
M  V30 3434 C 311.233 -1.96016 4.02842 0
M  V30 3435 C 312.977 -3.24965 2.73126 0
M  V30 3436 C 310.884 -3.04494 5.06988 0
M  V30 3437 H 309.814 -0.514428 0.551253 0
M  V30 3438 H 312.465 -0.658182 1.7129 0
M  V30 3439 H 310.847 -3.21618 2.31037 0
M  V30 3440 H 312.021 -1.29051 4.4236 0
M  V30 3441 H 310.336 -1.31719 3.95018 0
M  V30 3442 H 312.933 -4.05865 3.48106 0
M  V30 3443 H 313.276 -3.75588 1.79553 0
M  V30 3444 H 313.809 -2.5835 3.0249 0
M  V30 3445 H 310.548 -2.58795 6.0225 0
M  V30 3446 H 310.068 -3.70044 4.72046 0
M  V30 3447 H 311.747 -3.68976 5.31475 0
M  V30 3448 N 311.879 -1.3236 -0.855495 0
M  V30 3449 C 312.789 -1.23221 -1.99634 0
M  V30 3450 C 313.805 -0.145983 -1.73387 0
M  V30 3451 O 314.981 -0.366502 -1.98037 0
M  V30 3452 C 312.046 -0.954782 -3.33294 0
M  V30 3453 C 311.107 -2.12937 -3.72769 0
M  V30 3454 C 310.34 -1.86508 -5.00051 0
M  V30 3455 O 310.563 -0.807231 -5.64659 0
M  V30 3456 O 309.497 -2.72591 -5.36636 0
M  V30 3457 H 313.323 -2.19126 -2.1028 0
M  V30 3458 H 310.908 -1.12241 -0.986018 0
M  V30 3459 H 312.79 -0.816519 -4.13414 0
M  V30 3460 H 311.465 -0.0258854 -3.2369 0
M  V30 3461 H 310.372 -2.3231 -2.93228 0
M  V30 3462 H 311.705 -3.04102 -3.87018 0
M  V30 3463 N 313.357 1.07166 -1.15556 0
M  V30 3464 C 314.605 1.79443 -0.929764 0
M  V30 3465 C 314.926 1.87246 0.544414 0
M  V30 3466 O 314.196 1.37473 1.39564 0
M  V30 3467 H 312.776 0.664625 -0.341003 0
M  V30 3468 H 315.438 1.29499 -1.45657 0
M  V30 3469 H 314.534 2.81832 -1.34079 0
M  V30 3470 N 314.835 0.952656 1.25548 0
M  V30 3471 C 316.251 0.656769 1.4546 0
M  V30 3472 C 316.451 -0.78633 1.85524 0
M  V30 3473 O 315.507 -1.56183 1.98402 0
M  V30 3474 C 316.82 1.62801 2.52817 0
M  V30 3475 C 318.368 1.63897 2.66659 0
M  V30 3476 C 318.843 2.5978 3.77198 0
M  V30 3477 N 320.334 2.58133 3.84606 0
M  V30 3478 C 321.069 3.29003 4.69621 0
M  V30 3479 N 320.565 4.09339 5.58939 0
M  V30 3480 N 322.358 3.179 4.63569 0
M  V30 3481 H 314.509 1.88526 0.978344 0
M  V30 3482 H 316.772 0.810815 0.491206 0
M  V30 3483 H 316.478 2.65869 2.30232 0
M  V30 3484 H 316.352 1.38898 3.50695 0
M  V30 3485 H 318.739 0.615481 2.8861 0
M  V30 3486 H 318.82 1.91858 1.69187 0
M  V30 3487 H 318.464 3.62254 3.55997 0
M  V30 3488 H 318.394 2.29105 4.7415 0
M  V30 3489 H 320.885 1.99809 3.20757 0
M  V30 3490 H 321.198 4.6034 6.20731 0
M  V30 3491 H 319.543 4.13438 5.58654 0
M  V30 3492 H 322.734 2.54612 3.92798 0
M  V30 3493 H 322.907 3.73398 5.29602 0
M  V30 3494 N 316.313 -1.40141 0.720998 0
M  V30 3495 C 317.541 -2.05096 0.272656 0
M  V30 3496 C 317.956 -1.54334 -1.0875 0
M  V30 3497 O 317.313 -0.702211 -1.6845 0
M  V30 3498 C 317.364 -3.60636 0.249835 0
M  V30 3499 O 317.085 -4.09526 1.55629 0
M  V30 3500 C 318.586 -4.42772 -0.216396 0
M  V30 3501 H 315.806 -0.659897 0.121558 0
M  V30 3502 H 318.35 -1.79449 0.980723 0
M  V30 3503 H 316.505 -3.85232 -0.409237 0
M  V30 3504 H 316.919 -5.03758 1.4604 0
M  V30 3505 H 318.393 -5.51702 -0.181212 0
M  V30 3506 H 318.87 -4.20756 -1.25941 0
M  V30 3507 H 319.476 -4.23294 0.412596 0
M  V30 3508 N 317.792 -0.46758 -1.50504 0
M  V30 3509 C 319.022 0.086288 -2.0642 0
M  V30 3510 C 319.43 1.34369 -1.33197 0
M  V30 3511 O 318.773 1.79431 -0.393747 0
M  V30 3512 C 318.835 0.443846 -3.5675 0
M  V30 3513 C 318.499 -0.711035 -4.51435 0
M  V30 3514 C 319.496 -1.59205 -4.94924 0
M  V30 3515 C 317.181 -0.900363 -4.94165 0
M  V30 3516 C 319.175 -2.64683 -5.79846 0
M  V30 3517 C 316.862 -1.95837 -5.7887 0
M  V30 3518 C 317.86 -2.82997 -6.21612 0
M  V30 3519 O 317.548 -3.86977 -7.0463 0
M  V30 3520 H 317.28 -0.00217814 -0.675996 0
M  V30 3521 H 319.834 -0.654346 -1.94698 0
M  V30 3522 H 318.064 1.23762 -3.6636 0
M  V30 3523 H 319.753 0.932386 -3.95046 0
M  V30 3524 H 320.519 -1.45745 -4.62583 0
M  V30 3525 H 316.398 -0.231427 -4.60419 0
M  V30 3526 H 319.942 -3.32745 -6.13128 0
M  V30 3527 H 315.839 -2.09305 -6.10624 0
M  V30 3528 H 316.607 -3.83923 -7.22873 0
M  V30 3529 N 319.27 1.56325 -0.20005 0
M  V30 3530 C 320.547 1.89484 0.48529 0
M  V30 3531 C 320.927 1.1143 1.79294 0
M  V30 3532 O 320.275 0.216919 2.27468 0
M  V30 3533 C 320.485 3.41923 0.699243 0
M  V30 3534 C 321.833 4.12256 1.01638 0
M  V30 3535 O 322.857 3.47402 0.786792 0
M  V30 3536 O 321.716 5.26887 1.45095 0
M  V30 3537 H 318.81 0.787144 0.253639 0
M  V30 3538 H 321.356 1.67985 -0.240633 0
M  V30 3539 H 320.128 3.90658 -0.224008 0
M  V30 3540 H 319.751 3.69131 1.47744 0
M  V30 3541 N 320.748 -0.0735177 1.57428 0
M  V30 3542 C 321.658 -1.10547 2.06922 0
M  V30 3543 C 322.674 -1.42506 0.998402 0
M  V30 3544 O 323.85 -1.52717 1.31299 0
M  V30 3545 C 320.915 -2.40019 2.50184 0
M  V30 3546 C 319.976 -2.15046 3.71556 0
M  V30 3547 C 319.209 -3.38345 4.12745 0
M  V30 3548 O 319.432 -4.47399 3.53822 0
M  V30 3549 O 318.366 -3.2666 5.05546 0
M  V30 3550 H 322.192 -0.715013 2.95163 0
M  V30 3551 H 319.777 -0.287531 1.46607 0
M  V30 3552 H 321.659 -3.16218 2.78539 0
M  V30 3553 H 320.334 -2.78447 1.65072 0
M  V30 3554 H 319.241 -1.36558 3.48285 0
M  V30 3555 H 320.574 -1.81499 4.57514 0
M  V30 3556 N 322.226 -1.5378 -0.344866 0
M  V30 3557 C 323.173 -1.81676 -1.42346 0
M  V30 3558 C 324.143 -0.662376 -1.52321 0
M  V30 3559 O 325.328 -0.906675 -1.67881 0
M  V30 3560 C 322.468 -2.03087 -2.79015 0
M  V30 3561 C 321.581 -3.30799 -2.77842 0
M  V30 3562 C 320.716 -3.42285 -4.0622 0
M  V30 3563 C 319.755 -4.6395 -3.9927 0
M  V30 3564 N 318.892 -4.72477 -5.19336 0
M  V30 3565 H 323.732 -2.73703 -1.17858 0
M  V30 3566 H 321.269 -1.35568 -0.570949 0
M  V30 3567 H 323.227 -2.1349 -3.58438 0
M  V30 3568 H 321.857 -1.14375 -3.01858 0
M  V30 3569 H 320.909 -3.29244 -1.90533 0
M  V30 3570 H 322.221 -4.20314 -2.68584 0
M  V30 3571 H 321.375 -3.52113 -4.94066 0
M  V30 3572 H 320.114 -2.50823 -4.18258 0
M  V30 3573 H 319.119 -4.54201 -3.09809 0
M  V30 3574 H 320.344 -5.56775 -3.88817 0
M  V30 3575 H 318.29 -3.83924 -5.3192 0
M  V30 3576 H 318.207 -5.55927 -5.12329 0
M  V30 3577 H 319.475 -4.86613 -6.08957 0
M  V30 3578 N 323.704 0.605807 -1.45491 0
M  V30 3579 C 324.95 1.36679 -1.49823 0
M  V30 3580 C 325.283 1.93693 -0.140175 0
M  V30 3581 O 324.558 1.75158 0.845581 0
M  V30 3582 C 324.841 2.51337 -2.57879 0
M  V30 3583 C 324.694 1.99508 -4.03134 0
M  V30 3584 C 326.013 3.53463 -2.62205 0
M  V30 3585 H 323.132 0.495617 -0.545466 0
M  V30 3586 H 325.774 0.682732 -1.7731 0
M  V30 3587 H 323.924 3.09691 -2.34571 0
M  V30 3588 H 325.596 1.45789 -4.37656 0
M  V30 3589 H 323.839 1.30496 -4.13707 0
M  V30 3590 H 324.51 2.82169 -4.74431 0
M  V30 3591 H 326.986 3.04953 -2.83095 0
M  V30 3592 H 325.862 4.31178 -3.39672 0
M  V30 3593 H 326.123 4.09197 -1.67363 0
M  V30 3594 N 325.182 1.32811 0.848464 0
M  V30 3595 C 326.459 1.14334 1.58704 0
M  V30 3596 C 326.839 -0.293948 2.09043 0
M  V30 3597 O 326.187 -1.29153 1.88499 0
M  V30 3598 C 326.397 2.17626 2.72837 0
M  V30 3599 C 327.745 2.51282 3.42261 0
M  V30 3600 O 328.769 2.16219 2.83068 0
M  V30 3601 O 327.628 3.11413 4.49093 0
M  V30 3602 H 324.722 0.441601 0.699226 0
M  V30 3603 H 327.268 1.44362 0.892053 0
M  V30 3604 H 326.04 3.14211 2.3321 0
M  V30 3605 H 325.663 1.88628 3.50008 0
M  V30 3606 N 326.66 -1.06551 1.16123 0
M  V30 3607 C 327.59 -2.15935 0.88851 0
M  V30 3608 C 328.571 -1.69306 -0.164135 0
M  V30 3609 O 329.756 -1.94193 -0.0167857 0
M  V30 3610 C 326.886 -3.45149 0.385942 0
M  V30 3611 C 325.84 -4.05271 1.3762 0
M  V30 3612 C 325.166 -5.29664 0.732137 0
M  V30 3613 C 326.466 -4.44355 2.74493 0
M  V30 3614 H 328.16 -2.39006 1.80323 0
M  V30 3615 H 325.706 -1.14866 0.868435 0
M  V30 3616 H 327.659 -4.21004 0.182647 0
M  V30 3617 H 326.383 -3.21689 -0.564274 0
M  V30 3618 H 325.042 -3.3147 1.56599 0
M  V30 3619 H 324.69 -5.02499 -0.224483 0
M  V30 3620 H 324.39 -5.70848 1.39307 0
M  V30 3621 H 325.914 -6.08218 0.538802 0
M  V30 3622 H 327.328 -5.11303 2.59311 0
M  V30 3623 H 325.725 -4.96515 3.37035 0
M  V30 3624 H 326.795 -3.55339 3.29943 0
M  V30 3625 N 328.138 -0.959301 -1.25041 0
M  V30 3626 C 329.384 -0.627096 -1.93492 0
M  V30 3627 C 329.739 0.827484 -1.73696 0
M  V30 3628 O 329.032 1.58651 -1.07427 0
M  V30 3629 C 329.226 -0.927136 -3.45165 0
M  V30 3630 C 329.055 -2.40933 -3.79712 0
M  V30 3631 C 327.825 -3.0677 -4.01522 0
M  V30 3632 C 330.023 -3.38894 -3.86853 0
M  V30 3633 N 328.005 -4.44815 -4.231 0
M  V30 3634 C 329.376 -4.62263 -4.13174 0
M  V30 3635 C 331.431 -3.33668 -3.69554 0
M  V30 3636 C 330.134 -5.81052 -4.23995 0
M  V30 3637 C 332.16 -4.518 -3.81616 0
M  V30 3638 C 331.522 -5.73957 -4.08354 0
M  V30 3639 H 327.621 -0.280166 -0.73009 0
M  V30 3640 H 330.205 -1.23244 -1.50729 0
M  V30 3641 H 328.376 -0.350685 -3.86814 0
M  V30 3642 H 330.108 -0.554361 -4.00885 0
M  V30 3643 H 326.863 -2.57327 -3.97593 0
M  V30 3644 H 327.287 -5.16319 -4.37885 0
M  V30 3645 H 331.929 -2.40268 -3.47895 0
M  V30 3646 H 329.647 -6.74888 -4.44468 0
M  V30 3647 H 333.233 -4.49309 -3.69612 0
M  V30 3648 H 332.113 -6.6384 -4.17475 0
M  V30 3649 N 329.616 1.39756 -0.72842 0
M  V30 3650 C 330.856 2.025 -0.278078 0
M  V30 3651 C 331.22 1.5654 1.11173 0
M  V30 3652 O 332.421 2.11435 1.65978 0
M  V30 3653 C 330.692 3.55489 -0.369139 0
M  V30 3654 S 332.251 4.388 0.00232983 0
M  V30 3655 H 329.069 0.702534 -0.109391 0
M  V30 3656 H 331.671 1.70672 -0.95348 0
M  V30 3657 H 330.375 3.86429 -1.38204 0
M  V30 3658 H 329.906 3.92061 0.324308 0
M  V30 3659 H 331.921 4.80954 1.22055 0
M  V30 3660 N 331.094 0.475555 1.50254 0
M  V30 3661 C 332.343 -0.0795996 2.01543 0
M  V30 3662 C 332.656 -1.4038 1.36209 0
M  V30 3663 O 333.862 -2.04415 1.7868 0
M  V30 3664 C 332.318 -0.192363 3.59386 0
M  V30 3665 C 331.926 1.12367 4.33679 0
M  V30 3666 C 333.67 -0.699238 4.18701 0
M  V30 3667 C 331.577 0.974453 5.83317 0
M  V30 3668 H 330.507 -0.0335228 0.753254 0
M  V30 3669 H 333.158 0.611128 1.73025 0
M  V30 3670 H 331.54 -0.946974 3.84511 0
M  V30 3671 H 332.714 1.88958 4.20276 0
M  V30 3672 H 331.029 1.562 3.85993 0
M  V30 3673 H 333.626 -0.827978 5.28251 0
M  V30 3674 H 333.969 -1.69171 3.80377 0
M  V30 3675 H 334.502 -0.00188807 3.978 0
M  V30 3676 H 331.241 1.94042 6.26121 0
M  V30 3677 H 330.761 0.248998 5.99283 0
M  V30 3678 H 332.44 0.642867 6.43798 0
M  V30 3679 N 332.573 -1.56217 0.208337 0
M  V30 3680 C 333.821 -1.97558 -0.426076 0
M  V30 3681 C 334.142 -1.09683 -1.61229 0
M  V30 3682 O 333.412 -0.170956 -1.95153 0
M  V30 3683 H 331.992 -0.729575 -0.160405 0
M  V30 3684 H 334.654 -1.92606 0.298155 0
M  V30 3685 H 333.75 -3.02672 -0.761312 0
M  V30 3686 N 334.051 0.0651679 -1.57465 0
M  V30 3687 C 335.297 0.764193 -1.87851 0
M  V30 3688 C 335.63 1.76889 -0.801495 0
M  V30 3689 O 334.905 1.93594 0.187528 0
M  V30 3690 C 335.188 1.46625 -3.28897 0
M  V30 3691 C 335.041 0.477515 -4.47258 0
M  V30 3692 C 336.36 2.4095 -3.68281 0
M  V30 3693 H 333.479 0.276351 -0.683227 0
M  V30 3694 H 336.121 0.0272868 -1.8998 0
M  V30 3695 H 334.271 2.09438 -3.27212 0
M  V30 3696 H 335.943 -0.145922 -4.61069 0
M  V30 3697 H 334.186 -0.206576 -4.33308 0
M  V30 3698 H 334.857 1.0065 -5.42746 0
M  V30 3699 H 337.333 1.88209 -3.71102 0
M  V30 3700 H 336.209 2.87072 -4.67847 0
M  V30 3701 H 336.47 3.26049 -2.98571 0
M  V30 3702 N 335.529 1.53961 0.336706 0
M  V30 3703 C 336.459 1.85417 1.41925 0
M  V30 3704 C 337.44 0.709856 1.5458 0
M  V30 3705 O 338.625 0.962396 1.68676 0
M  V30 3706 C 335.755 2.06985 2.78881 0
M  V30 3707 C 334.709 3.22813 2.81026 0
M  V30 3708 C 334.035 3.29727 4.20932 0
M  V30 3709 C 335.335 4.60767 2.45949 0
M  V30 3710 H 337.029 2.76079 1.15848 0
M  V30 3711 H 334.575 1.32839 0.555859 0
M  V30 3712 H 336.528 2.27575 3.54665 0
M  V30 3713 H 335.252 1.13061 3.06406 0
M  V30 3714 H 333.911 3.0209 2.07695 0
M  V30 3715 H 333.559 2.33385 4.45579 0
M  V30 3716 H 333.259 4.07566 4.23277 0
M  V30 3717 H 334.783 3.52536 4.98549 0
M  V30 3718 H 336.197 4.81325 3.11446 0
M  V30 3719 H 334.594 5.4106 2.59566 0
M  V30 3720 H 335.664 4.6391 1.41122 0
M  V30 3721 N 337.007 -0.598083 1.45811 0
M  V30 3722 C 338.247 -1.36802 1.5187 0
M  V30 3723 C 338.611 -1.9133 0.160224 0
M  V30 3724 O 339.812 -2.6863 0.0955302 0
M  V30 3725 C 338.083 -2.47835 2.57513 0
M  V30 3726 S 339.642 -3.35458 2.82866 0
M  V30 3727 H 336.46 -0.466278 0.536755 0
M  V30 3728 H 339.062 -0.689152 1.82951 0
M  V30 3729 H 337.766 -2.06141 3.54872 0
M  V30 3730 H 337.297 -3.20512 2.28114 0
M  V30 3731 H 339.312 -4.46251 2.16967 0
M  V30 3732 N 338.485 -1.33259 -0.841409 0
M  V30 3733 C 339.715 -1.2742 -1.62628 0
M  V30 3734 C 340.123 0.157604 -1.88542 0
M  V30 3735 O 339.466 1.10938 -1.46419 0
M  V30 3736 C 339.528 -1.97797 -3.00194 0
M  V30 3737 C 339.192 -3.47109 -2.97261 0
M  V30 3738 C 340.189 -4.42358 -2.73159 0
M  V30 3739 C 337.874 -3.89247 -3.17478 0
M  V30 3740 C 339.868 -5.77718 -2.69296 0
M  V30 3741 C 337.555 -5.24713 -3.13241 0
M  V30 3742 C 338.553 -6.1876 -2.89181 0
M  V30 3743 O 338.241 -7.51745 -2.84843 0
M  V30 3744 H 337.973 -0.440436 -0.512827 0
M  V30 3745 H 340.527 -1.76153 -1.05638 0
M  V30 3746 H 338.757 -1.43652 -3.59028 0
M  V30 3747 H 340.446 -1.8549 -3.61038 0
M  V30 3748 H 341.212 -4.11127 -2.57294 0
M  V30 3749 H 337.091 -3.16456 -3.35226 0
M  V30 3750 H 340.635 -6.51097 -2.50436 0
M  V30 3751 H 336.532 -5.55569 -3.28654 0
M  V30 3752 H 337.3 -7.61262 -3.00702 0
M  V30 3753 N 339.963 1.05934 -1.16686 0
M  V30 3754 C 340.873 2.17014 -0.891183 0
M  V30 3755 C 341.889 1.73453 0.137907 0
M  V30 3756 O 343.065 2.01361 -0.039592 0
M  V30 3757 C 340.13 3.44384 -0.400099 0
M  V30 3758 C 339.191 4.02433 -1.49486 0
M  V30 3759 C 338.424 5.23723 -1.02711 0
M  V30 3760 O 338.647 5.7027 0.121716 0
M  V30 3761 O 337.581 5.7382 -1.81699 0
M  V30 3762 H 341.407 2.43113 -1.82015 0
M  V30 3763 H 338.992 1.15541 -0.947132 0
M  V30 3764 H 340.874 4.21189 -0.133392 0
M  V30 3765 H 339.549 3.19802 0.500817 0
M  V30 3766 H 338.456 3.27102 -1.81535 0
M  V30 3767 H 339.789 4.31317 -2.37121 0
M  V30 3768 N 341.441 0.965919 1.2453 0
M  V30 3769 C 342.371 0.513476 2.27784 0
M  V30 3770 C 343.352 -0.445974 1.6415 0
M  V30 3771 O 344.537 -0.342485 1.91156 0
M  V30 3772 C 341.667 -0.198839 3.4673 0
M  V30 3773 C 340.621 0.676456 4.2262 0
M  V30 3774 C 339.947 -0.167248 5.34438 0
M  V30 3775 C 341.247 1.96017 4.84123 0
M  V30 3776 H 342.941 1.3765 2.65881 0
M  V30 3777 H 340.487 0.663321 1.27813 0
M  V30 3778 H 342.44 -0.526567 4.18097 0
M  V30 3779 H 341.164 -1.0962 3.07654 0
M  V30 3780 H 339.823 0.98743 3.53052 0
M  V30 3781 H 339.471 -1.0647 4.91603 0
M  V30 3782 H 339.171 0.415181 5.86131 0
M  V30 3783 H 340.695 -0.489688 6.08633 0
M  V30 3784 H 342.109 1.69814 5.47573 0
M  V30 3785 H 340.506 2.48918 5.4604 0
M  V30 3786 H 341.576 2.65622 4.05676 0
M  V30 3787 N 342.919 -1.39368 0.735821 0
M  V30 3788 C 343.849 -2.33234 0.111506 0
M  V30 3789 C 344.83 -1.53954 -0.723334 0
M  V30 3790 O 346.015 -1.82344 -0.668147 0
M  V30 3791 C 343.145 -3.38057 -0.795917 0
M  V30 3792 C 342.099 -4.2795 -0.065172 0
M  V30 3793 C 341.425 -5.23479 -1.08967 0
M  V30 3794 C 342.725 -5.10741 1.09273 0
M  V30 3795 H 344.419 -2.85692 0.895571 0
M  V30 3796 H 341.965 -1.37364 0.432109 0
M  V30 3797 H 343.918 -4.02675 -1.24221 0
M  V30 3798 H 342.642 -2.8404 -1.61211 0
M  V30 3799 H 341.301 -3.64813 0.361511 0
M  V30 3800 H 340.949 -4.65758 -1.89944 0
M  V30 3801 H 340.649 -5.84472 -0.605489 0
M  V30 3802 H 342.173 -5.90974 -1.53565 0
M  V30 3803 H 343.587 -5.68699 0.724841 0
M  V30 3804 H 341.984 -5.8088 1.50659 0
M  V30 3805 H 343.054 -4.45525 1.91404 0
M  V30 3806 N 344.397 -0.483516 -1.5 0
M  V30 3807 C 345.643 0.0672592 -2.02688 0
M  V30 3808 C 345.976 1.38247 -1.36387 0
M  V30 3809 O 345.251 1.88131 -0.493675 0
M  V30 3810 C 345.534 0.238109 -3.59312 0
M  V30 3811 C 345.387 -1.099 -4.36168 0
M  V30 3812 C 346.706 0.986916 -4.28892 0
M  V30 3813 H 343.825 0.0229696 -0.736642 0
M  V30 3814 H 346.467 -0.631527 -1.79197 0
M  V30 3815 H 344.617 0.8333 -3.79458 0
M  V30 3816 H 346.289 -1.73172 -4.27562 0
M  V30 3817 H 344.532 -1.69261 -3.99416 0
M  V30 3818 H 345.203 -0.932954 -5.44059 0
M  V30 3819 H 347.679 0.482302 -4.13295 0
M  V30 3820 H 346.555 1.07527 -5.38265 0
M  V30 3821 H 346.816 2.0265 -3.92919 0
M  V30 3822 N 345.875 1.56104 -0.216619 0
M  V30 3823 C 347.123 1.97781 0.415593 0
M  V30 3824 C 347.444 1.10536 1.60645 0
M  V30 3825 O 346.714 0.181303 1.95059 0
M  V30 3826 H 345.294 0.730415 0.156534 0
M  V30 3827 H 347.956 1.92445 -0.308366 0
M  V30 3828 H 347.052 3.03072 0.74525 0
M  V30 3829 N 347.353 -0.0568162 1.57498 0
M  V30 3830 C 348.583 -0.764515 1.91934 0
M  V30 3831 C 348.991 -1.70877 0.81227 0
M  V30 3832 O 348.334 -1.82351 -0.222213 0
M  V30 3833 C 348.396 -1.5994 3.21962 0
M  V30 3834 C 348.06 -0.822925 4.4953 0
M  V30 3835 C 349.057 -0.135464 5.19723 0
M  V30 3836 C 346.742 -0.785666 4.96117 0
M  V30 3837 C 348.736 0.578861 6.34766 0
M  V30 3838 C 346.423 -0.0675784 6.11063 0
M  V30 3839 C 347.421 0.613471 6.80239 0
M  V30 3840 O 347.109 1.31996 7.92989 0
M  V30 3841 H 346.841 -0.221647 0.63863 0
M  V30 3842 H 349.395 -0.0268218 2.05382 0
M  V30 3843 H 347.625 -2.38026 3.04763 0
M  V30 3844 H 349.314 -2.18715 3.41934 0
M  V30 3845 H 350.08 -0.155458 4.84751 0
M  V30 3846 H 345.959 -1.30524 4.42136 0
M  V30 3847 H 349.503 1.111 6.88696 0
M  V30 3848 H 345.4 -0.0455636 6.45484 0
M  V30 3849 H 346.168 1.23077 8.09194 0
M  V30 3850 N 348.832 -1.54138 -0.328536 0
M  V30 3851 C 350.243 -1.63395 -0.903272 0
M  V30 3852 C 350.594 -0.524828 -1.8905 0
M  V30 3853 O 349.719 0.343068 -2.13663 0
M  V30 3854 C 350.314 -2.9618 -1.64507 0
M  V30 3855 C 348.873 -3.0765 -2.1686 0
M  V30 3856 C 348.02 -2.58933 -0.992416 0
M  V30 3857 H 350.971 -1.58344 -0.106253 0
M  V30 3858 H 350.992 -2.86061 -2.50897 0
M  V30 3859 H 350.504 -3.76884 -0.926302 0
M  V30 3860 H 348.605 -2.31611 -2.91868 0
M  V30 3861 H 348.718 -4.1337 -2.42202 0
M  V30 3862 H 347.082 -2.14706 -1.37016 0
M  V30 3863 H 347.865 -3.42089 -0.288041 0
M  V30 3864 N 350.31 0.590341 -1.46126 0
M  V30 3865 C 351.721 1.17243 -1.45296 0
M  V30 3866 C 352.072 1.95281 -0.189723 0
M  V30 3867 O 351.197 2.04502 0.707674 0
M  V30 3868 C 351.792 2.13284 -2.6324 0
M  V30 3869 C 350.351 2.66832 -2.65476 0
M  V30 3870 C 349.498 1.42557 -2.3785 0
M  V30 3871 H 352.449 0.378692 -1.54116 0
M  V30 3872 H 352.47 2.96619 -2.38323 0
M  V30 3873 H 351.982 1.56459 -3.55165 0
M  V30 3874 H 350.083 3.27548 -1.77603 0
M  V30 3875 H 350.196 3.10088 -3.65215 0
M  V30 3876 H 348.56 1.72107 -1.87753 0
M  V30 3877 H 349.343 0.875741 -3.31942 0
M  V30 3878 N 351.788 1.33704 0.83433 0
M  V30 3879 C 353.035 1.25417 1.58987 0
M  V30 3880 C 353.363 -0.178869 1.93676 0
M  V30 3881 O 352.618 -1.13723 1.59265 0
M  V30 3882 C 352.917 2.07926 2.90692 0
M  V30 3883 C 352.583 3.57066 2.75345 0
M  V30 3884 C 351.245 3.97724 2.70867 0
M  V30 3885 C 353.597 4.51817 2.59828 0
M  V30 3886 C 350.925 5.31344 2.48778 0
M  V30 3887 C 353.277 5.85604 2.39272 0
M  V30 3888 C 351.941 6.25439 2.33199 0
M  V30 3889 H 351.211 0.458934 0.581774 0
M  V30 3890 H 353.858 1.65335 0.966261 0
M  V30 3891 H 352.163 1.608 3.57282 0
M  V30 3892 H 353.86 1.98868 3.48213 0
M  V30 3893 H 350.45 3.24785 2.79665 0
M  V30 3894 H 354.634 4.21311 2.62319 0
M  V30 3895 H 349.89 5.61241 2.42526 0
M  V30 3896 H 354.064 6.58623 2.2625 0
M  V30 3897 H 351.691 7.28914 2.15843 0
M  V30 3898 N 353.266 -1.05314 1.17247 0
M  V30 3899 C 354.176 -2.16538 0.90268 0
M  V30 3900 C 355.192 -1.73523 -0.128707 0
M  V30 3901 O 356.368 -2.01337 0.0502701 0
M  V30 3902 C 353.433 -3.44167 0.418356 0
M  V30 3903 C 352.494 -4.01635 1.51618 0
M  V30 3904 C 351.727 -5.23171 1.05487 0
M  V30 3905 O 351.95 -5.70327 -0.0914715 0
M  V30 3906 O 350.884 -5.72848 1.8474 0
M  V30 3907 H 354.71 -2.42145 1.83302 0
M  V30 3908 H 352.295 -1.15037 0.953246 0
M  V30 3909 H 354.177 -4.21112 0.155726 0
M  V30 3910 H 352.852 -3.20063 -0.48385 0
M  V30 3911 H 351.759 -3.26135 1.83268 0
M  V30 3912 H 353.092 -4.30053 2.39405 0
M  V30 3913 N 354.744 -0.972509 -1.24016 0
M  V30 3914 C 355.969 -0.654417 -1.96805 0
M  V30 3915 C 356.394 0.770398 -1.716 0
M  V30 3916 O 355.752 1.52361 -0.982647 0
M  V30 3917 C 355.8 -0.941031 -3.48105 0
M  V30 3918 O 354.904 -0.0289472 -4.1239 0
M  V30 3919 H 354.245 -0.24692 -0.616382 0
M  V30 3920 H 356.775 -1.30396 -1.57664 0
M  V30 3921 H 356.785 -0.87452 -3.98517 0
M  V30 3922 H 355.46 -1.97939 -3.65777 0
M  V30 3923 H 354.037 -0.149192 -3.72601 0
M  V30 3924 N 356.222 1.38976 -0.743202 0
M  V30 3925 C 357.185 2.28901 -0.117014 0
M  V30 3926 C 358.185 1.46698 0.658503 0
M  V30 3927 O 359.375 1.67274 0.486305 0
M  V30 3928 C 356.507 3.30309 0.84315 0
M  V30 3929 H 357.7 2.8578 -0.909373 0
M  V30 3930 H 355.253 1.47761 -0.509547 0
M  V30 3931 H 355.988 2.785 1.66157 0
M  V30 3932 H 355.773 3.91029 0.289594 0
M  V30 3933 H 357.263 3.97577 1.2776 0
M  V30 3934 N 357.7 0.491464 1.49741 0
M  V30 3935 C 358.925 -0.0557177 2.07325 0
M  V30 3936 C 359.35 -1.30925 1.35056 0
M  V30 3937 O 358.708 -1.76733 0.404365 0
M  V30 3938 C 358.756 -0.302074 3.59333 0
M  V30 3939 O 357.86 -1.37868 3.88672 0
M  V30 3940 H 357.201 0.0219956 0.663636 0
M  V30 3941 H 359.731 0.688352 1.92673 0
M  V30 3942 H 359.741 -0.536464 4.04458 0
M  V30 3943 H 358.416 0.61383 4.11345 0
M  V30 3944 H 356.993 -1.12999 3.55367 0
M  V30 3945 N 359.178 -1.55987 0.224894 0
M  V30 3946 C 360.128 -2.17076 -0.697296 0
M  V30 3947 C 361.112 -1.12006 -1.15514 0
M  V30 3948 O 362.304 -1.37985 -1.10857 0
M  V30 3949 C 359.433 -2.85679 -1.90374 0
M  V30 3950 C 358.519 -3.97977 -1.46543 0
M  V30 3951 N 358.91 -5.00359 -0.739909 0
M  V30 3952 C 357.208 -4.10128 -1.75245 0
M  V30 3953 C 357.909 -5.79407 -0.515939 0
M  V30 3954 N 356.885 -5.32892 -1.07364 0
M  V30 3955 H 360.687 -2.93592 -0.134594 0
M  V30 3956 H 358.201 -1.62379 0.0262885 0
M  V30 3957 H 360.198 -3.27857 -2.57518 0
M  V30 3958 H 358.858 -2.1066 -2.47088 0
M  V30 3959 H 359.869 -5.16412 -0.392253 0
M  V30 3960 H 356.546 -3.46263 -2.33255 0
M  V30 3961 H 357.936 -6.71872 0.0617349 0
M  V30 3962 N 360.656 0.0484629 -1.57525 0
M  V30 3963 C 361.881 0.759177 -1.93006 0
M  V30 3964 C 362.306 1.69125 -0.823317 0
M  V30 3965 O 361.664 1.79931 0.222364 0
M  V30 3966 C 361.712 1.50899 -3.27509 0
M  V30 3967 O 360.816 2.62112 -3.18388 0
M  V30 3968 H 360.157 0.205564 -0.631379 0
M  V30 3969 H 362.687 0.00972959 -2.04598 0
M  V30 3970 H 362.697 1.88317 -3.6194 0
M  V30 3971 H 361.372 0.825269 -4.0763 0
M  V30 3972 H 359.949 2.27379 -2.95556 0
M  V30 3973 N 362.134 1.5431 0.320358 0
M  V30 3974 C 363.044 1.86946 1.41734 0
M  V30 3975 C 364.06 0.761689 1.56443 0
M  V30 3976 O 365.236 1.05629 1.71477 0
M  V30 3977 C 362.301 2.09293 2.76401 0
M  V30 3978 C 361.362 3.33082 2.70841 0
M  V30 3979 C 360.595 3.54353 3.99086 0
M  V30 3980 O 360.818 2.79002 4.97508 0
M  V30 3981 O 359.752 4.47838 4.0215 0
M  V30 3982 H 363.578 2.80232 1.17062 0
M  V30 3983 H 361.163 1.40255 0.514673 0
M  V30 3984 H 363.045 2.25303 3.56113 0
M  V30 3985 H 361.72 1.19194 3.00956 0
M  V30 3986 H 360.627 3.22454 1.89668 0
M  V30 3987 H 361.96 4.23249 2.5124 0
M  V30 3988 N 363.613 -0.582584 1.46437 0
M  V30 3989 C 364.841 -1.36682 1.55324 0
M  V30 3990 C 365.256 -1.87796 0.194409 0
M  V30 3991 O 364.613 -1.63623 -0.808318 0
M  V30 3992 C 364.664 -2.55426 2.55812 0
M  V30 3993 O 364.385 -2.0643 3.86417 0
M  V30 3994 C 365.886 -3.47976 2.74641 0
M  V30 3995 H 363.106 -0.417545 0.525259 0
M  V30 3996 H 365.65 -0.708219 1.91845 0
M  V30 3997 H 363.805 -3.17275 2.22295 0
M  V30 3998 H 364.219 -2.83762 4.41111 0
M  V30 3999 H 365.693 -4.27775 3.48874 0
M  V30 4000 H 366.17 -3.99919 1.81553 0
M  V30 4001 H 366.776 -2.91962 3.09255 0
M  V30 4002 N 365.091 -1.34144 -0.827227 0
M  V30 4003 C 366.321 -1.29138 -1.61267 0
M  V30 4004 C 366.729 0.137597 -1.88699 0
M  V30 4005 O 366.072 1.09379 -1.47587 0
M  V30 4006 C 366.134 -2.0097 -2.9808 0
M  V30 4007 C 365.798 -3.50242 -2.93563 0
M  V30 4008 C 366.795 -4.4523 -2.68452 0
M  V30 4009 C 364.48 -3.92592 -3.13331 0
M  V30 4010 C 366.474 -5.80542 -2.63154 0
M  V30 4011 C 364.161 -5.28005 -3.07658 0
M  V30 4012 C 365.159 -6.21792 -2.82602 0
M  V30 4013 O 364.847 -7.54723 -2.76853 0
M  V30 4014 H 364.579 -0.445851 -0.508127 0
M  V30 4015 H 367.133 -1.77263 -1.03763 0
M  V30 4016 H 365.363 -1.47451 -3.57484 0
M  V30 4017 H 367.052 -1.89309 -3.5905 0
M  V30 4018 H 367.818 -4.13832 -2.52919 0
M  V30 4019 H 363.697 -3.19994 -3.31851 0
M  V30 4020 H 367.241 -6.53717 -2.43516 0
M  V30 4021 H 363.138 -5.59023 -3.22743 0
M  V30 4022 H 363.906 -7.64409 -2.92611 0
M  V30 4023 N 366.569 1.04691 -1.17803 0
M  V30 4024 C 367.985 1.29963 -0.926379 0
M  V30 4025 C 368.185 1.97251 0.411635 0
M  V30 4026 O 367.241 2.24922 1.14744 0
M  V30 4027 C 368.554 2.16447 -2.08737 0
M  V30 4028 C 370.102 2.29814 -2.12496 0
M  V30 4029 C 370.577 3.19661 -3.27995 0
M  V30 4030 N 372.068 3.27247 -3.27816 0
M  V30 4031 C 372.803 3.96906 -4.13827 0
M  V30 4032 N 372.299 4.6895 -5.09959 0
M  V30 4033 N 374.092 3.93122 -4.01761 0
M  V30 4034 H 366.243 0.594182 -2.0392 0
M  V30 4035 H 368.506 0.324649 -0.890678 0
M  V30 4036 H 368.212 1.74304 -3.05469 0
M  V30 4037 H 368.086 3.17103 -2.04268 0
M  V30 4038 H 370.473 2.71196 -1.16347 0
M  V30 4039 H 370.554 1.2877 -2.21025 0
M  V30 4040 H 370.198 2.78991 -4.24413 0
M  V30 4041 H 370.128 4.20722 -3.16703 0
M  V30 4042 H 372.619 2.75921 -2.58217 0
M  V30 4043 H 372.932 5.19679 -5.71974 0
M  V30 4044 H 371.277 4.67875 -5.13924 0
M  V30 4045 H 374.468 3.35967 -3.2595 0
M  V30 4046 H 374.641 4.47139 -4.6901 0
M  V30 4047 N 368.047 0.979072 1.23499 0
M  V30 4048 C 369.463 0.687475 1.44034 0
M  V30 4049 C 369.663 -0.746801 1.8715 0
M  V30 4050 O 368.719 -1.51939 2.0167 0
M  V30 4051 C 370.032 1.68127 2.49307 0
M  V30 4052 C 371.58 1.69516 2.63122 0
M  V30 4053 C 372.055 2.67723 3.71603 0
M  V30 4054 N 373.546 2.66233 3.79044 0
M  V30 4055 C 374.281 3.38891 4.62537 0
M  V30 4056 N 373.777 4.21103 5.50131 0
M  V30 4057 N 375.57 3.27661 4.56721 0
M  V30 4058 H 367.721 1.90559 0.938135 0
M  V30 4059 H 369.984 0.821051 0.473897 0
M  V30 4060 H 369.69 2.70693 2.2454 0
M  V30 4061 H 369.564 1.46306 3.4767 0
M  V30 4062 H 371.951 0.676561 2.8724 0
M  V30 4063 H 372.032 1.95404 1.65079 0
M  V30 4064 H 371.676 3.69724 3.48233 0
M  V30 4065 H 371.606 2.39111 4.69184 0
M  V30 4066 H 374.097 2.06568 3.16446 0
M  V30 4067 H 374.41 4.73403 6.10827 0
M  V30 4068 H 372.755 4.25195 5.49759 0
M  V30 4069 H 375.946 2.62887 3.87309 0
M  V30 4070 H 376.119 3.84547 5.21562 0
M  V30 4071 N 369.525 -1.3858 0.750561 0
M  V30 4072 C 370.774 -1.99424 0.302172 0
M  V30 4073 C 371.087 -1.60254 -1.12152 0
M  V30 4074 O 372.293 -2.14046 -1.67023 0
M  V30 4075 C 370.749 -3.56558 0.489307 0
M  V30 4076 C 370.357 -4.04682 1.92189 0
M  V30 4077 C 372.101 -4.24374 0.103478 0
M  V30 4078 C 370.008 -5.54446 2.05775 0
M  V30 4079 H 368.938 -0.746046 0.10923 0
M  V30 4080 H 371.589 -1.58383 0.92667 0
M  V30 4081 H 369.971 -3.95472 -0.204329 0
M  V30 4082 H 371.145 -3.77065 2.64875 0
M  V30 4083 H 369.46 -3.4958 2.26236 0
M  V30 4084 H 372.057 -5.34384 0.183787 0
M  V30 4085 H 372.4 -4.05468 -0.943481 0
M  V30 4086 H 372.933 -3.90688 0.748854 0
M  V30 4087 H 369.672 -5.78252 3.08714 0
M  V30 4088 H 369.192 -5.83816 1.37546 0
M  V30 4089 H 370.871 -6.20099 1.84626 0
M  V30 4090 N 371.003 -0.499398 -1.49478 0
M  V30 4091 C 371.933 0.269244 -2.31943 0
M  V30 4092 C 372.914 0.964054 -1.40143 0
M  V30 4093 O 374.099 0.955767 -1.69052 0
M  V30 4094 C 371.229 1.33504 -3.20615 0
M  V30 4095 C 370.183 0.760202 -4.21195 0
M  V30 4096 C 369.509 1.9264 -4.98792 0
M  V30 4097 C 370.809 -0.247661 -5.21712 0
M  V30 4098 H 372.503 -0.419082 -2.96452 0
M  V30 4099 H 370.049 -0.202988 -1.42562 0
M  V30 4100 H 372.002 1.88048 -3.77115 0
M  V30 4101 H 370.726 2.05253 -2.54045 0
M  V30 4102 H 369.385 0.23653 -3.65836 0
M  V30 4103 H 369.033 2.63154 -4.28671 0
M  V30 4104 H 368.733 1.54785 -5.66847 0
M  V30 4105 H 370.257 2.4762 -5.58137 0
M  V30 4106 H 371.671 0.209579 -5.72917 0
M  V30 4107 H 370.068 -0.541962 -5.97648 0
M  V30 4108 H 371.138 -1.16409 -4.7072 0
M  V30 4109 N 372.481 1.55866 -0.233164 0
M  V30 4110 C 373.428 2.20796 0.67215 0
M  V30 4111 C 374.398 1.16731 1.18166 0
M  V30 4112 O 375.583 1.45129 1.23864 0
M  V30 4113 C 372.723 2.90072 1.86955 0
M  V30 4114 C 371.836 4.08759 1.39786 0
M  V30 4115 C 370.971 4.65787 2.55374 0
M  V30 4116 C 370.01 5.76752 2.04998 0
M  V30 4117 N 369.147 6.28021 3.13901 0
M  V30 4118 H 373.987 2.9779 0.111749 0
M  V30 4119 H 371.524 1.47036 0.0434007 0
M  V30 4120 H 373.482 3.28428 2.57276 0
M  V30 4121 H 372.112 2.15575 2.40265 0
M  V30 4122 H 371.164 3.7581 0.589173 0
M  V30 4123 H 372.476 4.88906 0.98856 0
M  V30 4124 H 371.63 5.06646 3.33758 0
M  V30 4125 H 370.369 3.84828 2.99598 0
M  V30 4126 H 369.374 5.35383 1.25079 0
M  V30 4127 H 370.599 6.59553 1.61759 0
M  V30 4128 H 368.545 5.49971 3.57586 0
M  V30 4129 H 368.462 7.03323 2.7726 0
M  V30 4130 H 369.73 6.73538 3.92386 0
M  V30 4131 N 373.959 -0.0401083 1.57549 0
M  V30 4132 C 375.205 -0.734211 1.89043 0
M  V30 4133 C 375.538 -1.75591 0.829535 0
M  V30 4134 O 374.813 -1.93868 -0.156706 0
M  V30 4135 C 375.096 -1.41374 3.31188 0
M  V30 4136 C 374.949 -0.406299 4.47961 0
M  V30 4137 C 376.268 -2.35061 3.72068 0
M  V30 4138 H 373.387 -0.265447 0.687537 0
M  V30 4139 H 376.029 0.00294087 1.9 0
M  V30 4140 H 374.179 -2.04206 3.30503 0
M  V30 4141 H 375.851 0.219255 4.60779 0
M  V30 4142 H 374.094 0.275485 4.32924 0
M  V30 4143 H 374.765 -0.920022 5.44279 0
M  V30 4144 H 377.241 -1.82282 3.74049 0
M  V30 4145 H 376.117 -2.79593 4.72355 0
M  V30 4146 H 376.378 -3.21258 3.0372 0
M  V30 4147 N 375.437 -1.54477 -0.31217 0
M  V30 4148 C 376.714 -1.63891 -1.06767 0
M  V30 4149 C 377.094 -0.480028 -2.0557 0
M  V30 4150 O 376.442 0.524487 -2.22399 0
M  V30 4151 C 376.652 -3.01402 -1.75948 0
M  V30 4152 C 378 -3.57838 -2.28554 0
M  V30 4153 O 379.024 -3.03782 -1.85998 0
M  V30 4154 O 377.883 -4.52462 -3.06497 0
M  V30 4155 H 374.977 -0.664125 -0.492816 0
M  V30 4156 H 377.523 -1.66823 -0.311149 0
M  V30 4157 H 376.295 -3.77187 -1.04144 0
M  V30 4158 H 375.918 -3.02199 -2.58383 0
M  V30 4159 N 376.915 0.57481 -1.46744 0
M  V30 4160 C 378.161 1.3347 -1.52688 0
M  V30 4161 C 378.494 1.93353 -0.181229 0
M  V30 4162 O 377.769 1.76912 0.808237 0
M  V30 4163 C 378.052 2.45811 -2.63152 0
M  V30 4164 C 377.905 1.90912 -4.07275 0
M  V30 4165 C 379.224 3.47822 -2.69644 0
M  V30 4166 H 376.343 0.483935 -0.555856 0
M  V30 4167 H 378.985 0.644968 -1.78718 0
M  V30 4168 H 377.135 3.04646 -2.41088 0
M  V30 4169 H 378.807 1.36473 -4.4065 0
M  V30 4170 H 377.05 1.21691 -4.16382 0
M  V30 4171 H 377.721 2.72042 -4.80309 0
M  V30 4172 H 380.197 2.9888 -2.895 0
M  V30 4173 H 379.073 4.23876 -3.48742 0
M  V30 4174 H 379.334 4.05555 -1.76005 0
M  V30 4175 N 378.394 1.34581 0.820102 0
M  V30 4176 C 379.81 1.14325 1.11364 0
M  V30 4177 C 380.01 -0.0533648 2.01429 0
M  V30 4178 O 379.066 -0.728044 2.41776 0
M  V30 4179 C 380.379 2.43983 1.75764 0
M  V30 4180 C 381.927 2.50065 1.88246 0
M  V30 4181 C 382.402 3.79732 2.56061 0
M  V30 4182 N 383.893 3.80908 2.63558 0
M  V30 4183 C 384.628 4.77961 3.16766 0
M  V30 4184 N 384.124 5.85397 3.70517 0
M  V30 4185 N 385.917 4.65413 3.15194 0
M  V30 4186 H 378.068 2.11246 0.221096 0
M  V30 4187 H 380.331 0.934289 0.160649 0
M  V30 4188 H 380.037 3.31651 1.1705 0
M  V30 4189 H 379.911 2.57531 2.75604 0
M  V30 4190 H 382.298 1.62834 2.46108 0
M  V30 4191 H 382.379 2.40442 0.873006 0
M  V30 4192 H 382.023 4.67354 1.98853 0
M  V30 4193 H 381.953 3.86639 3.57516 0
M  V30 4194 H 384.444 3.03274 2.25463 0
M  V30 4195 H 384.757 6.55463 4.09376 0
M  V30 4196 H 383.102 5.89107 3.68752 0
M  V30 4197 H 386.293 3.80627 2.72471 0
M  V30 4198 H 386.466 5.41216 3.56356 0
M  V30 4199 N 379.872 -1.04064 1.18357 0
M  V30 4200 C 381.119 -1.77265 0.978947 0
M  V30 4201 C 381.447 -1.88189 -0.491428 0
M  V30 4202 O 380.702 -1.38653 -1.38108 0
M  V30 4203 C 381.001 -3.20634 1.57888 0
M  V30 4204 C 380.667 -3.29743 3.07539 0
M  V30 4205 C 379.329 -3.31937 3.48384 0
M  V30 4206 C 381.681 -3.29841 4.03552 0
M  V30 4207 C 379.009 -3.3187 4.83818 0
M  V30 4208 C 381.361 -3.31313 5.38901 0
M  V30 4209 C 380.025 -3.31799 5.79194 0
M  V30 4210 H 379.295 -0.648659 0.358222 0
M  V30 4211 H 381.942 -1.22225 1.47422 0
M  V30 4212 H 380.247 -3.78675 1.00561 0
M  V30 4213 H 381.944 -3.75917 1.39598 0
M  V30 4214 H 378.534 -3.28757 2.74986 0
M  V30 4215 H 382.718 -3.27337 3.73047 0
M  V30 4216 H 377.974 -3.30562 5.14333 0
M  V30 4217 H 382.148 -3.30338 6.13066 0
M  V30 4218 H 379.775 -3.315 6.84114 0
M  V30 4219 N 381.35 -0.985608 -1.22978 0
M  V30 4220 C 382.761 -0.693593 -1.73338 0
M  V30 4221 C 383.112 0.789935 -1.79595 0
M  V30 4222 O 382.237 1.61771 -1.43733 0
M  V30 4223 C 382.832 -1.25235 -3.14804 0
M  V30 4224 C 381.391 -1.00987 -3.626 0
M  V30 4225 C 380.538 -1.37695 -2.40698 0
M  V30 4226 H 383.489 -1.15884 -1.08428 0
M  V30 4227 H 383.51 -0.627329 -3.75293 0
M  V30 4228 H 383.022 -2.33209 -3.10218 0
M  V30 4229 H 381.123 0.0535565 -3.72562 0
M  V30 4230 H 381.236 -1.66812 -4.49122 0
M  V30 4231 H 379.6 -0.795459 -2.4196 0
M  V30 4232 H 380.383 -2.46657 -2.38779 0
M  V30 4233 N 382.828 1.3818 -0.7579 0
M  V30 4234 C 383.758 2.33027 -0.148597 0
M  V30 4235 C 384.739 1.55085 0.69875 0
M  V30 4236 O 385.924 1.83384 0.639053 0
M  V30 4237 C 383.054 3.3928 0.742034 0
M  V30 4238 C 382.008 4.28 -0.00291946 0
M  V30 4239 C 381.334 5.25146 1.00625 0
M  V30 4240 C 382.634 5.08938 -1.17385 0
M  V30 4241 H 384.328 2.84231 -0.940909 0
M  V30 4242 H 381.874 1.36659 -0.453908 0
M  V30 4243 H 383.827 4.046 1.17799 0
M  V30 4244 H 382.551 2.86569 1.56671 0
M  V30 4245 H 381.21 3.64192 -0.419504 0
M  V30 4246 H 380.858 4.68721 1.8251 0
M  V30 4247 H 380.558 5.85361 0.512428 0
M  V30 4248 H 382.082 5.93342 1.44143 0
M  V30 4249 H 383.496 5.67474 -0.815224 0
M  V30 4250 H 381.893 5.7841 -1.59882 0
M  V30 4251 H 382.963 4.42424 -1.98468 0
M  V30 4252 N 384.306 0.507319 1.49211 0
M  V30 4253 C 385.531 -0.033725 2.07373 0
M  V30 4254 C 385.956 -1.29485 1.36437 0
M  V30 4255 O 385.314 -1.76294 0.423087 0
M  V30 4256 C 385.362 -0.263945 3.59633 0
M  V30 4257 O 384.466 -1.33737 3.90113 0
M  V30 4258 H 383.807 0.0290331 0.663365 0
M  V30 4259 H 386.337 0.708749 1.91932 0
M  V30 4260 H 386.347 -0.493536 4.05004 0
M  V30 4261 H 385.022 0.657424 4.10671 0
M  V30 4262 H 383.599 -1.09224 3.56545 0
M  V30 4263 N 385.784 -1.5574 0.241426 0
M  V30 4264 C 386.717 -2.17168 -0.700935 0
M  V30 4265 C 387.695 -1.12206 -1.1768 0
M  V30 4266 O 388.879 -1.40565 -1.25593 0
M  V30 4267 C 386.006 -2.76796 -1.95196 0
M  V30 4268 C 385.052 -3.94764 -1.61442 0
M  V30 4269 S 385.885 -5.30613 -0.72182 0
M  V30 4270 C 387.041 -5.93691 -1.98197 0
M  V30 4271 H 387.274 -2.96761 -0.178882 0
M  V30 4272 H 384.807 -1.54378 0.0259299 0
M  V30 4273 H 386.765 -3.11787 -2.67019 0
M  V30 4274 H 385.426 -1.9716 -2.44514 0
M  V30 4275 H 384.619 -4.35057 -2.54443 0
M  V30 4276 H 384.221 -3.61022 -0.976672 0
M  V30 4277 H 386.513 -6.10874 -2.92983 0
M  V30 4278 H 387.456 -6.89258 -1.62262 0
M  V30 4279 H 387.864 -5.22709 -2.13156 0
M  V30 4280 N 387.262 0.0317525 -1.57568 0
M  V30 4281 C 388.673 0.578692 -1.77505 0
M  V30 4282 C 389.024 1.75749 -0.872164 0
M  V30 4283 O 388.149 2.16298 -0.0663106 0
M  V30 4284 C 388.744 1.05658 -3.21904 0
M  V30 4285 C 387.303 1.54906 -3.43047 0
M  V30 4286 C 386.45 0.485939 -2.73009 0
M  V30 4287 H 389.401 -0.194475 -1.57504 0
M  V30 4288 H 389.422 1.92404 -3.28269 0
M  V30 4289 H 388.934 0.198422 -3.87592 0
M  V30 4290 H 387.035 2.42915 -2.82529 0
M  V30 4291 H 387.148 1.59841 -4.5165 0
M  V30 4292 H 385.512 0.940354 -2.36705 0
M  V30 4293 H 386.295 -0.362709 -3.41379 0
M  V30 4294 N 388.74 1.54641 0.303973 0
M  V30 4295 C 389.67 1.88386 1.3796 0
M  V30 4296 C 390.651 0.742485 1.5304 0
M  V30 4297 O 391.836 0.997959 1.66597 0
M  V30 4298 C 388.966 2.12854 2.74427 0
M  V30 4299 C 387.92 3.28702 2.74115 0
M  V30 4300 C 387.246 3.38582 4.13844 0
M  V30 4301 C 388.546 4.65881 2.3612 0
M  V30 4302 H 390.24 2.78474 1.09966 0
M  V30 4303 H 387.786 1.33988 0.527556 0
M  V30 4304 H 389.739 2.35047 3.49758 0
M  V30 4305 H 388.463 1.19535 3.03939 0
M  V30 4306 H 387.122 3.06428 2.0124 0
M  V30 4307 H 386.77 2.42784 4.40528 0
M  V30 4308 H 386.47 4.16453 4.14537 0
M  V30 4309 H 387.994 3.63031 4.90959 0
M  V30 4310 H 389.408 4.87823 3.01167 0
M  V30 4311 H 387.805 5.46444 2.48031 0
M  V30 4312 H 388.875 4.66799 1.3125 0
M  V30 4313 N 390.218 -0.567019 1.47046 0
M  V30 4314 C 391.466 -1.322 1.52864 0
M  V30 4315 C 391.787 -1.94088 0.188388 0
M  V30 4316 O 391.057 -1.7941 -0.786693 0
M  V30 4317 H 389.637 -0.490894 0.563056 0
M  V30 4318 H 392.299 -0.662879 1.83281 0
M  V30 4319 H 391.395 -2.12062 2.2899 0
M  V30 4320 N 391.696 -1.35014 -0.812953 0
M  V30 4321 C 392.659 -1.27292 -1.90602 0
M  V30 4322 C 393.659 -0.185817 -1.59723 0
M  V30 4323 O 394.849 -0.439102 -1.68575 0
M  V30 4324 C 391.981 -0.967676 -3.26877 0
M  V30 4325 H 393.174 -2.24479 -1.9887 0
M  V30 4326 H 390.727 -1.19446 -1.00808 0
M  V30 4327 H 391.462 0.0005954 -3.243 0
M  V30 4328 H 391.247 -1.75412 -3.50675 0
M  V30 4329 H 392.737 -0.939085 -4.06904 0
M  V30 4330 N 393.175 1.03435 -1.18907 0
M  V30 4331 C 394.591 1.28973 -0.940111 0
M  V30 4332 C 394.791 1.97676 0.390691 0
M  V30 4333 O 393.847 2.26127 1.12352 0
M  V30 4334 C 395.16 2.14221 -2.11021 0
M  V30 4335 C 396.708 2.27547 -2.14922 0
M  V30 4336 C 397.183 3.16164 -3.31367 0
M  V30 4337 N 398.674 3.23752 -3.31269 0
M  V30 4338 C 399.409 3.92495 -4.18014 0
M  V30 4339 N 398.905 4.63515 -5.14904 0
M  V30 4340 N 400.698 3.88838 -4.05908 0
M  V30 4341 H 392.849 0.57252 -2.04538 0
M  V30 4342 H 395.112 0.315184 -0.894071 0
M  V30 4343 H 394.818 1.71054 -3.073 0
M  V30 4344 H 394.692 3.14919 -2.0762 0
M  V30 4345 H 397.079 2.69947 -1.19217 0
M  V30 4346 H 397.16 1.26418 -2.22378 0
M  V30 4347 H 396.804 2.74474 -4.27348 0
M  V30 4348 H 396.734 4.17339 -3.21148 0
M  V30 4349 H 399.225 2.73167 -2.61129 0
M  V30 4350 H 399.538 5.13583 -5.77453 0
M  V30 4351 H 397.883 4.62398 -5.18857 0
M  V30 4352 H 401.074 3.32491 -3.29495 0
M  V30 4353 H 401.247 4.4214 -4.73726 0
M  V30 4354 N 394.653 0.992116 1.22453 0
M  V30 4355 C 395.93 0.583508 1.86694 0
M  V30 4356 C 396.31 -0.9392 1.89056 0
M  V30 4357 O 395.658 -1.82081 1.38053 0
M  V30 4358 C 395.868 1.20304 3.2761 0
M  V30 4359 C 397.216 1.30308 4.0411 0
M  V30 4360 O 398.24 1.15737 3.36873 0
M  V30 4361 O 397.099 1.53615 5.24466 0
M  V30 4362 H 394.193 0.198129 0.802916 0
M  V30 4363 H 396.739 1.08794 1.30238 0
M  V30 4364 H 395.511 2.24461 3.2052 0
M  V30 4365 H 395.134 0.684144 3.9167 0
M  V30 4366 N 396.131 -1.37776 0.765217 0
M  V30 4367 C 397.061 -2.32945 0.160953 0
M  V30 4368 C 398.042 -1.55454 -0.690516 0
M  V30 4369 O 399.227 -1.83721 -0.629318 0
M  V30 4370 C 396.357 -3.39669 -0.724031 0
M  V30 4371 C 395.311 -4.27992 0.0256173 0
M  V30 4372 C 394.637 -5.25673 -0.978383 0
M  V30 4373 C 395.937 -5.08309 1.20082 0
M  V30 4374 H 397.631 -2.83728 0.955969 0
M  V30 4375 H 395.177 -1.36416 0.461149 0
M  V30 4376 H 397.13 -4.05219 -1.15652 0
M  V30 4377 H 395.854 -2.87396 -1.5515 0
M  V30 4378 H 394.513 -3.63964 0.438812 0
M  V30 4379 H 394.161 -4.69682 -1.80022 0
M  V30 4380 H 393.861 -5.85625 -0.481378 0
M  V30 4381 H 395.385 -5.94098 -1.40995 0
M  V30 4382 H 396.799 -5.67034 0.845307 0
M  V30 4383 H 395.196 -5.77554 1.62947 0
M  V30 4384 H 396.266 -4.41365 2.00811 0
M  V30 4385 N 397.609 -0.515225 -1.4894 0
M  V30 4386 C 398.858 0.0261361 -2.01683 0
M  V30 4387 C 399.171 1.36719 -1.39883 0
M  V30 4388 O 400.377 1.99606 -1.84037 0
M  V30 4389 C 398.833 0.0970111 -3.59769 0
M  V30 4390 C 398.441 -1.23825 -4.30548 0
M  V30 4391 C 400.185 0.587981 -4.20408 0
M  V30 4392 C 398.092 -1.12877 -5.80528 0
M  V30 4393 H 397.022 0.0135398 -0.753878 0
M  V30 4394 H 399.673 -0.656787 -1.71343 0
M  V30 4395 H 398.055 0.844694 -3.86886 0
M  V30 4396 H 399.229 -2.00034 -4.15118 0
M  V30 4397 H 397.544 -1.66379 -3.81716 0
M  V30 4398 H 400.141 0.68763 -5.3026 0
M  V30 4399 H 400.484 1.59026 -3.84729 0
M  V30 4400 H 401.017 -0.103582 -3.97665 0
M  V30 4401 H 397.756 -2.10575 -6.20756 0
M  V30 4402 H 397.276 -0.407799 -5.98412 0
M  V30 4403 H 398.955 -0.813332 -6.41868 0
M  V30 4404 N 399.087 1.5561 -0.249682 0
M  V30 4405 C 400.312 2.03865 0.381305 0
M  V30 4406 C 400.737 1.12769 1.50548 0
M  V30 4407 O 400.095 0.121189 1.80895 0
M  V30 4408 C 400.143 3.50101 0.863816 0
M  V30 4409 O 399.247 3.62132 1.97318 0
M  V30 4410 H 398.588 0.658827 0.0827194 0
M  V30 4411 H 401.118 2.01105 -0.376552 0
M  V30 4412 H 401.128 3.90975 1.1663 0
M  V30 4413 H 399.803 4.1588 0.0411816 0
M  V30 4414 H 398.38 3.33155 1.67517 0
M  V30 4415 N 400.565 -0.0233959 1.57583 0
M  V30 4416 C 401.981 -0.379134 1.55031 0
M  V30 4417 C 402.181 -1.76255 0.976548 0
M  V30 4418 O 401.237 -2.45266 0.600078 0
M  V30 4419 C 402.55 -0.275792 2.99433 0
M  V30 4420 C 404.098 -0.352458 3.11009 0
M  V30 4421 C 404.573 -0.278501 4.57152 0
M  V30 4422 N 406.064 -0.337123 4.61972 0
M  V30 4423 C 406.799 -0.302876 5.726 0
M  V30 4424 N 406.295 -0.220589 6.92449 0
M  V30 4425 N 408.088 -0.353023 5.6099 0
M  V30 4426 H 400.239 0.881869 1.93227 0
M  V30 4427 H 402.502 0.335867 0.886509 0
M  V30 4428 H 402.208 0.675108 3.4516 0
M  V30 4429 H 402.082 -1.06721 3.61788 0
M  V30 4430 H 404.469 -1.29379 2.65226 0
M  V30 4431 H 404.55 0.468409 2.51475 0
M  V30 4432 H 404.194 0.659189 5.03604 0
M  V30 4433 H 404.124 -1.11755 5.14605 0
M  V30 4434 H 406.615 -0.403002 3.75745 0
M  V30 4435 H 406.928 -0.199713 7.72542 0
M  V30 4436 H 405.273 -0.186555 6.9475 0
M  V30 4437 H 408.464 -0.415339 4.66254 0
M  V30 4438 H 408.637 -0.322866 6.47195 0
M  V30 4439 N 402.043 -1.548 -0.295768 0
M  V30 4440 C 402.973 -1.89115 -1.36959 0
M  V30 4441 C 403.954 -0.75059 -1.52644 0
M  V30 4442 O 405.139 -1.00678 -1.66065 0
M  V30 4443 C 402.269 -2.14307 -2.73295 0
M  V30 4444 C 401.223 -3.30151 -2.72368 0
M  V30 4445 C 400.549 -3.40772 -4.12042 0
M  V30 4446 C 401.849 -4.67126 -2.33646 0
M  V30 4447 H 403.543 -2.79053 -1.08488 0
M  V30 4448 H 401.089 -1.34266 -0.520443 0
M  V30 4449 H 403.042 -2.36898 -3.48507 0
M  V30 4450 H 401.766 -1.21145 -3.03301 0
M  V30 4451 H 400.425 -3.0749 -1.99613 0
M  V30 4452 H 400.073 -2.45117 -4.39234 0
M  V30 4453 H 399.773 -4.18645 -4.12322 0
M  V30 4454 H 401.297 -3.6563 -4.89027 0
M  V30 4455 H 402.711 -4.89414 -2.98575 0
M  V30 4456 H 401.108 -5.47751 -2.45129 0
M  V30 4457 H 402.178 -4.67489 -1.28772 0
M  V30 4458 N 403.521 0.559213 -1.47345 0
M  V30 4459 C 404.451 1.67622 -1.62558 0
M  V30 4460 C 405.432 1.63331 -0.475087 0
M  V30 4461 O 406.617 1.80983 -0.704182 0
M  V30 4462 C 403.747 3.0626 -1.63774 0
M  V30 4463 C 402.701 3.25397 -2.7803 0
M  V30 4464 C 402.027 4.64801 -2.64318 0
M  V30 4465 C 403.327 3.10965 -4.19641 0
M  V30 4466 H 405.021 1.55146 -2.56067 0
M  V30 4467 H 402.567 0.744961 -1.23233 0
M  V30 4468 H 404.52 3.84247 -1.73008 0
M  V30 4469 H 403.244 3.1969 -0.66825 0
M  V30 4470 H 401.903 2.49817 -2.68304 0
M  V30 4471 H 401.551 4.75028 -1.65401 0
M  V30 4472 H 401.251 4.78555 -3.40968 0
M  V30 4473 H 402.775 5.44926 -2.75478 0
M  V30 4474 H 404.189 3.78772 -4.30354 0
M  V30 4475 H 402.586 3.36229 -4.97062 0
M  V30 4476 H 403.656 2.07736 -4.38148 0
M  V30 4477 N 404.999 1.35443 0.805782 0
M  V30 4478 C 406.415 1.15499 1.10146 0
M  V30 4479 C 406.615 -0.0319975 2.01475 0
M  V30 4480 O 405.671 -0.70236 2.42535 0
M  V30 4481 C 406.984 2.45833 1.73166 0
M  V30 4482 C 408.532 2.52047 1.85583 0
M  V30 4483 C 409.007 3.82427 2.52019 0
M  V30 4484 N 410.498 3.83682 2.59504 0
M  V30 4485 C 411.233 4.81294 3.11679 0
M  V30 4486 N 410.729 5.89294 3.64287 0
M  V30 4487 N 412.522 4.6873 3.1024 0
M  V30 4488 H 404.673 2.11469 0.198678 0
M  V30 4489 H 406.936 0.93594 0.150731 0
M  V30 4490 H 406.642 3.32874 1.13526 0
M  V30 4491 H 406.516 2.6044 2.72857 0
M  V30 4492 H 408.903 1.65435 2.44367 0
M  V30 4493 H 408.984 2.41354 0.847455 0
M  V30 4494 H 408.628 4.69437 1.93885 0
M  V30 4495 H 408.558 3.90409 3.53395 0
M  V30 4496 H 411.049 3.05648 2.22234 0
M  V30 4497 H 411.362 6.59768 4.02401 0
M  V30 4498 H 409.707 5.92985 3.62483 0
M  V30 4499 H 412.898 3.83496 2.68419 0
M  V30 4500 H 413.071 5.44965 3.50596 0
M  V30 4501 N 406.477 -1.02803 1.19454 0
M  V30 4502 C 407.707 -1.79581 1.02149 0
M  V30 4503 C 408.115 -1.84182 -0.432851 0
M  V30 4504 O 407.458 -1.28534 -1.31243 0
M  V30 4505 C 407.52 -3.25993 1.51554 0
M  V30 4506 C 407.184 -3.45025 2.99678 0
M  V30 4507 C 408.181 -3.35175 3.97434 0
M  V30 4508 C 405.866 -3.71212 3.38389 0
M  V30 4509 C 407.86 -3.51238 5.31893 0
M  V30 4510 C 405.547 -3.8692 4.73008 0
M  V30 4511 C 406.545 -3.76936 5.69569 0
M  V30 4512 O 406.233 -3.92179 7.01748 0
M  V30 4513 H 405.965 -0.571962 0.360327 0
M  V30 4514 H 408.519 -1.30367 1.58725 0
M  V30 4515 H 406.749 -3.76235 0.893543 0
M  V30 4516 H 408.438 -3.84368 1.30444 0
M  V30 4517 H 409.204 -3.14895 3.68872 0
M  V30 4518 H 405.083 -3.78075 2.6378 0
M  V30 4519 H 408.627 -3.43362 6.07247 0
M  V30 4520 H 404.524 -4.06699 5.01265 0
M  V30 4521 H 405.292 -4.09265 7.08833 0
M  V30 4522 N 407.956 -0.998596 -1.21925 0
M  V30 4523 C 408.888 -0.511879 -2.23411 0
M  V30 4524 C 409.901 0.396094 -1.57908 0
M  V30 4525 O 411.09 0.197316 -1.77406 0
M  V30 4526 C 408.19 0.276802 -3.37768 0
M  V30 4527 C 407.363 -0.628687 -4.32858 0
M  V30 4528 C 406.422 0.109272 -5.26087 0
M  V30 4529 O 405.448 -0.507237 -5.66935 0
M  V30 4530 N 406.65 1.38983 -5.63617 0
M  V30 4531 H 409.415 -1.38457 -2.658 0
M  V30 4532 H 406.976 -0.873981 -1.36283 0
M  V30 4533 H 408.968 0.77928 -3.97126 0
M  V30 4534 H 407.538 1.05063 -2.94415 0
M  V30 4535 H 406.758 -1.31175 -3.71735 0
M  V30 4536 H 408.046 -1.24514 -4.93329 0
M  V30 4537 H 407.444 1.91194 -5.32411 0
M  V30 4538 H 406.001 1.83739 -6.25367 0
M  V30 4539 N 409.434 1.37368 -0.772513 0
M  V30 4540 C 410.845 1.8231 -0.402493 0
M  V30 4541 C 411.196 1.6436 1.07146 0
M  V30 4542 O 410.321 1.15514 1.82991 0
M  V30 4543 C 410.916 3.30979 -0.723776 0
M  V30 4544 C 409.475 3.74195 -0.406802 0
M  V30 4545 C 408.622 2.59885 -0.967218 0
M  V30 4546 H 411.573 1.25829 -0.967099 0
M  V30 4547 H 411.594 3.80499 -0.00870832 0
M  V30 4548 H 411.106 3.44011 -1.7966 0
M  V30 4549 H 409.207 3.66732 0.658673 0
M  V30 4550 H 409.32 4.7027 -0.915588 0
M  V30 4551 H 407.684 2.51674 -0.391416 0
M  V30 4552 H 408.467 2.7571 -2.04546 0
M  V30 4553 N 410.912 0.523116 1.48665 0
M  V30 4554 C 411.842 -0.23231 2.32342 0
M  V30 4555 C 412.823 -0.941637 1.41659 0
M  V30 4556 O 414.008 -0.928751 1.70552 0
M  V30 4557 C 411.138 -1.28387 3.22698 0
M  V30 4558 C 410.092 -0.693098 4.22351 0
M  V30 4559 C 409.418 -1.8468 5.01794 0
M  V30 4560 C 410.718 0.33063 5.21252 0
M  V30 4561 H 412.412 0.466192 2.95748 0
M  V30 4562 H 409.958 0.225643 1.42221 0
M  V30 4563 H 411.911 -1.82024 3.80059 0
M  V30 4564 H 410.635 -2.01186 2.57278 0
M  V30 4565 H 409.294 -0.178299 3.66166 0
M  V30 4566 H 408.942 -2.56301 4.32804 0
M  V30 4567 H 408.642 -1.45747 5.69238 0
M  V30 4568 H 410.166 -2.38709 5.62006 0
M  V30 4569 H 411.58 -0.118407 5.73178 0
M  V30 4570 H 409.977 0.636974 5.9671 0
M  V30 4571 H 411.047 1.23883 4.68808 0
M  V30 4572 N 412.39 -1.55475 0.257931 0
M  V30 4573 C 413.3 -2.2549 -0.647425 0
M  V30 4574 C 414.316 -1.2748 -1.18427 0
M  V30 4575 O 415.492 -1.6038 -1.2182 0
M  V30 4576 C 412.557 -2.94916 -1.82278 0
M  V30 4577 C 411.618 -4.08363 -1.32432 0
M  V30 4578 C 410.851 -4.74469 -2.44366 0
M  V30 4579 O 411.074 -4.39701 -3.63344 0
M  V30 4580 O 410.008 -5.62763 -2.13497 0
M  V30 4581 H 413.834 -3.03593 -0.0807707 0
M  V30 4582 H 411.419 -1.49377 0.0259962 0
M  V30 4583 H 413.301 -3.38606 -2.50846 0
M  V30 4584 H 411.976 -2.19744 -2.37685 0
M  V30 4585 H 410.883 -3.69166 -0.605605 0
M  V30 4586 H 412.216 -4.85385 -0.816211 0
M  V30 4587 N 413.868 0.0150385 -1.57593 0
M  V30 4588 C 415.284 0.370907 -1.5523 0
M  V30 4589 C 415.484 1.75735 -0.985882 0
M  V30 4590 O 414.54 2.44944 -0.613077 0
M  V30 4591 C 415.853 0.259908 -2.99575 0
M  V30 4592 C 417.401 0.335959 -3.11192 0
M  V30 4593 C 417.876 0.254253 -4.57294 0
M  V30 4594 N 419.367 0.312618 -4.62144 0
M  V30 4595 C 420.102 0.272505 -5.72752 0
M  V30 4596 N 419.598 0.183864 -6.92556 0
M  V30 4597 N 421.391 0.323267 -5.6117 0
M  V30 4598 H 413.542 -0.892104 -1.92757 0
M  V30 4599 H 415.805 -0.340563 -0.884715 0
M  V30 4600 H 415.511 -0.693403 -3.44797 0
M  V30 4601 H 415.385 1.048 -3.62349 0
M  V30 4602 H 417.772 1.27971 -2.65909 0
M  V30 4603 H 417.853 -0.481739 -2.51223 0
M  V30 4604 H 417.497 -0.685887 -5.03247 0
M  V30 4605 H 417.427 1.09024 -5.15191 0
M  V30 4606 H 419.918 0.38307 -3.75953 0
M  V30 4607 H 420.231 0.15874 -7.72637 0
M  V30 4608 H 418.576 0.149708 -6.94839 0
M  V30 4609 H 421.767 0.390607 -4.66467 0
M  V30 4610 H 421.94 0.288539 -6.47357 0
M  V30 4611 N 415.346 1.54954 0.287554 0
M  V30 4612 C 416.276 1.89839 1.35954 0
M  V30 4613 C 417.257 0.758675 1.52244 0
M  V30 4614 O 418.442 1.01557 1.65529 0
M  V30 4615 C 415.572 2.15753 2.72154 0
M  V30 4616 C 414.526 3.3159 2.70614 0
M  V30 4617 C 413.852 3.42952 4.10229 0
M  V30 4618 C 415.152 4.68359 2.31165 0
M  V30 4619 H 416.846 2.79625 1.07007 0
M  V30 4620 H 414.392 1.3454 0.513316 0
M  V30 4621 H 416.345 2.38743 3.47246 0
M  V30 4622 H 415.069 1.22752 3.02654 0
M  V30 4623 H 413.728 3.08545 1.97979 0
M  V30 4624 H 413.376 2.47443 4.37928 0
M  V30 4625 H 413.076 4.20826 4.10097 0
M  V30 4626 H 414.6 3.68218 4.87081 0
M  V30 4627 H 416.014 4.9099 2.95976 0
M  V30 4628 H 414.411 5.49044 2.42221 0
M  V30 4629 H 415.481 4.68165 1.26291 0
M  V30 4630 N 416.824 -0.551391 1.4764 0
M  V30 4631 C 418.235 -1.13349 1.48354 0
M  V30 4632 C 418.586 -1.94709 0.241432 0
M  V30 4633 O 417.711 -2.06306 -0.653205 0
M  V30 4634 C 418.306 -2.0623 2.68802 0
M  V30 4635 C 416.865 -2.597 2.72457 0
M  V30 4636 C 416.012 -1.36201 2.41546 0
M  V30 4637 H 418.963 -0.337698 1.55065 0
M  V30 4638 H 418.984 -2.90196 2.46103 0
M  V30 4639 H 418.496 -1.46987 3.59188 0
M  V30 4640 H 416.597 -3.22724 1.86225 0
M  V30 4641 H 416.71 -3.00296 3.73308 0
M  V30 4642 H 415.074 -1.67068 1.9225 0
M  V30 4643 H 415.857 -0.787425 3.34147 0
M  V30 4644 N 418.302 -1.35869 -0.798587 0
M  V30 4645 C 419.232 -1.32118 -1.92528 0
M  V30 4646 C 420.213 -0.194209 -1.68988 0
M  V30 4647 O 421.398 -0.390426 -1.90235 0
M  V30 4648 C 418.528 -1.10047 -3.29404 0
M  V30 4649 C 417.482 -2.19471 -3.67446 0
M  V30 4650 C 416.808 -1.82555 -5.02571 0
M  V30 4651 C 418.108 -3.61495 -3.76987 0
M  V30 4652 H 419.802 -2.26394 -1.95924 0
M  V30 4653 H 417.348 -1.08981 -0.94123 0
M  V30 4654 H 419.301 -1.06061 -4.07835 0
M  V30 4655 H 418.025 -0.122195 -3.26371 0
M  V30 4656 H 416.684 -2.22568 -2.91306 0
M  V30 4657 H 416.332 -0.833249 -4.9605 0
M  V30 4658 H 416.032 -2.5581 -5.28995 0
M  V30 4659 H 417.556 -1.80108 -5.83432 0
M  V30 4660 H 418.97 -3.60676 -4.4563 0
M  V30 4661 H 417.367 -4.33577 -4.14887 0
M  V30 4662 H 418.437 -3.97065 -2.78329 0
M  V30 4663 N 419.78 1.02168 -1.19998 0
M  V30 4664 C 420.743 2.08765 -0.94604 0
M  V30 4665 C 421.743 1.60618 0.0763846 0
M  V30 4666 O 422.933 1.73472 -0.159135 0
M  V30 4667 C 420.065 3.38262 -0.423255 0
M  V30 4668 H 421.258 2.32726 -1.89153 0
M  V30 4669 H 418.811 1.1889 -1.01464 0
M  V30 4670 H 419.546 3.19974 0.527938 0
M  V30 4671 H 419.331 3.74532 -1.16053 0
M  V30 4672 H 420.821 4.16759 -0.264911 0
M  V30 4673 N 421.258 1.00505 1.21394 0
M  V30 4674 C 422.19 0.52372 2.23136 0
M  V30 4675 C 423.203 -0.387714 1.58116 0
M  V30 4676 O 424.392 -0.187905 1.77508 0
M  V30 4677 C 421.492 -0.258885 3.3791 0
M  V30 4678 C 420.665 0.651634 4.32519 0
M  V30 4679 C 419.724 -0.0813705 5.26137 0
M  V30 4680 O 418.75 0.537295 5.66658 0
M  V30 4681 N 419.952 -1.35992 5.64346 0
M  V30 4682 H 422.717 1.39865 2.65062 0
M  V30 4683 H 420.278 0.881196 1.35818 0
M  V30 4684 H 422.27 -0.758208 3.97534 0
M  V30 4685 H 420.84 -1.035 2.94968 0
M  V30 4686 H 420.06 1.33145 3.71034 0
M  V30 4687 H 421.348 1.27129 4.92662 0
M  V30 4688 H 420.746 -1.88368 5.33417 0
M  V30 4689 H 419.303 -1.8042 6.26332 0
M  V30 4690 N 422.737 -1.36956 0.779787 0
M  V30 4691 C 423.986 -1.98738 0.344405 0
M  V30 4692 C 424.299 -1.62596 -1.08728 0
M  V30 4693 O 425.505 -2.1754 -1.62445 0
M  V30 4694 C 423.961 -3.5544 0.564829 0
M  V30 4695 C 423.569 -4.00514 2.0073 0
M  V30 4696 C 425.313 -4.24059 0.193471 0
M  V30 4697 C 423.22 -5.49957 2.17489 0
M  V30 4698 H 422.15 -0.743561 0.12503 0
M  V30 4699 H 424.801 -1.56381 0.960057 0
M  V30 4700 H 423.183 -3.95817 -0.120397 0
M  V30 4701 H 424.357 -3.71362 2.72814 0
M  V30 4702 H 422.672 -3.44703 2.336 0
M  V30 4703 H 425.269 -5.33874 0.297097 0
M  V30 4704 H 425.612 -4.07378 -0.857263 0
M  V30 4705 H 426.145 -3.89012 0.831556 0
M  V30 4706 H 422.884 -5.71574 3.2091 0
M  V30 4707 H 422.404 -5.80767 1.49899 0
M  V30 4708 H 424.083 -6.16043 1.97738 0
M  V30 4709 N 424.215 -0.530993 -1.48385 0
M  V30 4710 C 425.145 0.219985 -2.32461 0
M  V30 4711 C 426.126 0.934111 -1.42156 0
M  V30 4712 O 427.311 0.919694 -1.71042 0
M  V30 4713 C 424.441 1.26674 -3.23375 0
M  V30 4714 C 423.395 0.67069 -4.22712 0
M  V30 4715 C 422.721 1.82017 -5.02766 0
M  V30 4716 C 424.021 -0.358268 -5.2107 0
M  V30 4717 H 425.715 -0.48187 -2.95497 0
M  V30 4718 H 423.261 -0.233182 -1.42099 0
M  V30 4719 H 425.214 1.80006 -3.81019 0
M  V30 4720 H 423.938 1.99818 -2.58341 0
M  V30 4721 H 422.597 0.158878 -3.66256 0
M  V30 4722 H 422.245 2.54002 -4.34157 0
M  V30 4723 H 421.945 1.42727 -5.70003 0
M  V30 4724 H 423.469 2.35725 -5.63264 0
M  V30 4725 H 424.883 0.0880081 -5.73232 0
M  V30 4726 H 423.28 -0.66861 -5.96364 0
M  V30 4727 H 424.35 -1.26367 -4.68145 0
M  V30 4728 N 425.693 1.55336 -0.266172 0
M  V30 4729 C 426.64 2.22172 0.625165 0
M  V30 4730 C 427.61 1.19211 1.15663 0
M  V30 4731 O 428.795 1.47723 1.20758 0
M  V30 4732 C 425.935 2.93972 1.8076 0
M  V30 4733 C 425.048 4.11632 1.31084 0
M  V30 4734 C 424.183 4.71099 2.45436 0
M  V30 4735 C 423.222 5.8097 1.92718 0
M  V30 4736 N 422.359 6.34538 3.00509 0
M  V30 4737 H 427.199 2.9796 0.0485582 0
M  V30 4738 H 424.736 1.47095 0.0122024 0
M  V30 4739 H 426.694 3.33811 2.50251 0
M  V30 4740 H 425.324 2.20623 2.35638 0
M  V30 4741 H 424.376 3.76975 0.509326 0
M  V30 4742 H 425.688 4.90893 0.884633 0
M  V30 4743 H 424.842 5.13612 3.22936 0
M  V30 4744 H 423.581 3.91096 2.91368 0
M  V30 4745 H 422.586 5.37916 1.13695 0
M  V30 4746 H 423.811 6.62836 1.47733 0
M  V30 4747 H 421.757 5.57433 3.45839 0
M  V30 4748 H 421.674 7.09046 2.62279 0
M  V30 4749 H 422.942 6.81709 3.78011 0
M  V30 4750 N 427.171 -0.0066808 1.57599 0
M  V30 4751 C 428.121 -1.0086 2.04478 0
M  V30 4752 C 429.105 -1.30714 0.938231 0
M  V30 4753 O 430.297 -1.29924 1.20203 0
M  V30 4754 C 427.426 -2.30273 2.54615 0
M  V30 4755 C 426.512 -2.03413 3.72134 0
M  V30 4756 N 426.903 -1.46688 4.84062 0
M  V30 4757 C 425.201 -2.33589 3.79937 0
M  V30 4758 C 425.902 -1.36146 5.65543 0
M  V30 4759 N 424.878 -1.84477 5.1134 0
M  V30 4760 H 428.68 -0.564402 2.8843 0
M  V30 4761 H 426.194 -0.212521 1.61003 0
M  V30 4762 H 428.191 -3.02885 2.86472 0
M  V30 4763 H 426.851 -2.75352 1.72079 0
M  V30 4764 H 427.862 -1.14658 5.05049 0
M  V30 4765 H 424.539 -2.81589 3.08243 0
M  V30 4766 H 425.929 -0.925873 6.6549 0
M  V30 4767 N 428.649 -1.55105 -0.279332 0
M  V30 4768 C 430.06 -1.66186 -0.850832 0
M  V30 4769 C 430.411 -0.584707 -1.87285 0
M  V30 4770 O 429.536 0.274919 -2.14647 0
M  V30 4771 C 430.131 -3.01264 -1.55001 0
M  V30 4772 C 428.69 -3.14394 -2.06963 0
M  V30 4773 C 427.837 -2.61959 -0.909536 0
M  V30 4774 H 430.788 -1.58602 -0.0558235 0
M  V30 4775 H 430.809 -2.93899 -2.41669 0
M  V30 4776 H 430.321 -3.7964 -0.805931 0
M  V30 4777 H 428.422 -2.4078 -2.84352 0
M  V30 4778 H 428.535 -4.20867 -2.28928 0
M  V30 4779 H 426.899 -2.18957 -1.30116 0
M  V30 4780 H 427.682 -3.42833 -0.179062 0
M  V30 4781 N 430.127 0.543554 -1.4793 0
M  V30 4782 C 431.373 1.29961 -1.56466 0
M  V30 4783 C 431.728 1.91024 -0.229696 0
M  V30 4784 O 431.021 1.75619 0.766072 0
M  V30 4785 C 431.215 2.42078 -2.62932 0
M  V30 4786 C 431.044 1.92003 -4.06651 0
M  V30 4787 C 429.814 1.75223 -4.73946 0
M  V30 4788 C 432.012 1.45648 -4.93245 0
M  V30 4789 N 429.994 1.19632 -6.02131 0
M  V30 4790 C 431.365 1.01914 -6.11566 0
M  V30 4791 C 433.42 1.33826 -4.79578 0
M  V30 4792 C 432.123 0.475301 -7.17728 0
M  V30 4793 C 434.149 0.808427 -5.85848 0
M  V30 4794 C 433.511 0.381081 -7.03368 0
M  V30 4795 H 429.61 0.467086 -0.62718 0
M  V30 4796 H 432.194 0.614543 -1.84747 0
M  V30 4797 H 430.365 3.08098 -2.36496 0
M  V30 4798 H 432.097 3.09096 -2.61231 0
M  V30 4799 H 428.852 1.98345 -4.30065 0
M  V30 4800 H 429.276 0.93885 -6.70458 0
M  V30 4801 H 433.918 1.65474 -3.89074 0
M  V30 4802 H 431.636 0.146472 -8.07967 0
M  V30 4803 H 435.222 0.720315 -5.77324 0
M  V30 4804 H 434.102 -0.0225344 -7.84197 0
M  V30 4805 N 431.605 1.3629 0.791371 0
M  V30 4806 C 432.851 1.30605 1.55146 0
M  V30 4807 C 433.184 -0.115042 1.93859 0
M  V30 4808 O 432.459 -1.06798 1.62556 0
M  V30 4809 C 432.742 2.22692 2.82985 0
M  V30 4810 C 432.595 3.73489 2.50651 0
M  V30 4811 C 433.914 2.13588 3.84796 0
M  V30 4812 H 431.033 0.475761 0.562868 0
M  V30 4813 H 433.675 1.66825 0.909358 0
M  V30 4814 H 431.825 1.91933 3.37778 0
M  V30 4815 H 433.497 4.14758 2.01924 0
M  V30 4816 H 431.74 3.93021 1.83622 0
M  V30 4817 H 432.411 4.3333 3.41949 0
M  V30 4818 H 434.887 2.40659 3.39445 0
M  V30 4819 H 433.763 2.80195 4.71998 0
M  V30 4820 H 434.024 1.12256 4.27611 0
M  V30 4821 N 433.083 -1.0153 1.20538 0
M  V30 4822 C 434.015 -2.10224 0.913155 0
M  V30 4823 C 435.028 -1.62495 -0.0995998 0
M  V30 4824 O 436.217 -1.78014 0.131582 0
M  V30 4825 C 433.317 -3.37111 0.347717 0
M  V30 4826 C 432.49 -4.13971 1.41233 0
M  V30 4827 C 431.549 -5.19158 0.857976 0
M  V30 4828 O 430.575 -5.48 1.53897 0
M  V30 4829 N 431.777 -5.7955 -0.331966 0
M  V30 4830 H 434.542 -2.35879 1.84881 0
M  V30 4831 H 432.103 -1.17931 1.10923 0
M  V30 4832 H 434.095 -4.04683 -0.0373026 0
M  V30 4833 H 432.665 -3.08696 -0.492527 0
M  V30 4834 H 431.885 -3.41351 1.97163 0
M  V30 4835 H 433.173 -4.62103 2.12928 0
M  V30 4836 H 432.571 -5.58455 -0.902478 0
M  V30 4837 H 431.128 -6.48464 -0.65861 0
M  V30 4838 N 434.561 -1.01147 -1.20859 0
M  V30 4839 C 435.524 -0.582224 -2.21682 0
M  V30 4840 C 436.524 0.344887 -1.57058 0
M  V30 4841 O 437.714 0.134281 -1.73682 0
M  V30 4842 C 434.846 0.150496 -3.40568 0
M  V30 4843 H 436.039 -1.47408 -2.61172 0
M  V30 4844 H 433.592 -0.800695 -1.34233 0
M  V30 4845 H 434.327 1.0575 -3.06574 0
M  V30 4846 H 434.112 -0.515444 -3.88697 0
M  V30 4847 H 435.602 0.438344 -4.15293 0
M  V30 4848 N 436.039 1.36541 -0.78704 0
M  V30 4849 C 436.989 2.27459 -0.156957 0
M  V30 4850 C 437.973 1.46843 0.657709 0
M  V30 4851 O 439.165 1.69245 0.518173 0
M  V30 4852 C 436.294 3.35893 0.709278 0
M  V30 4853 C 435.38 4.23947 -0.114049 0
M  V30 4854 N 435.771 4.92145 -1.16736 0
M  V30 4855 C 434.069 4.4587 0.107497 0
M  V30 4856 C 434.77 5.57261 -1.66837 0
M  V30 4857 N 433.746 5.3473 -0.977992 0
M  V30 4858 H 437.548 2.77669 -0.963185 0
M  V30 4859 H 435.062 1.49839 -0.62627 0
M  V30 4860 H 437.059 3.99953 1.17656 0
M  V30 4861 H 435.719 2.87238 1.51408 0
M  V30 4862 H 436.73 4.94169 -1.54976 0
M  V30 4863 H 433.407 4.08056 0.882994 0
M  V30 4864 H 434.797 6.21728 -2.54762 0
M  V30 4865 N 437.518 0.538854 1.48102 0
M  V30 4866 C 438.743 0.0102694 2.07397 0
M  V30 4867 C 439.168 -1.26562 1.39153 0
M  V30 4868 O 438.526 -1.75357 0.460387 0
M  V30 4869 C 438.574 -0.187602 3.60112 0
M  V30 4870 O 437.678 -1.25432 3.92862 0
M  V30 4871 H 437.019 0.0430975 0.6626 0
M  V30 4872 H 439.549 0.749301 1.90385 0
M  V30 4873 H 439.559 -0.407517 4.0596 0
M  V30 4874 H 438.234 0.744386 4.09184 0
M  V30 4875 H 436.811 -1.01636 3.58782 0
M  V30 4876 N 438.996 -1.55193 0.274407 0
M  V30 4877 C 440.412 -1.59401 -0.0797543 0
M  V30 4878 C 440.612 -1.29162 -1.54659 0
M  V30 4879 O 439.668 -1.05215 -2.29534 0
M  V30 4880 C 440.981 -2.99257 0.294238 0
M  V30 4881 C 442.529 -3.12072 0.240796 0
M  V30 4882 C 443.004 -4.54194 0.589218 0
M  V30 4883 N 444.495 -4.60033 0.540744 0
M  V30 4884 C 445.23 -5.68027 0.783147 0
M  V30 4885 N 444.726 -6.8417 1.09013 0
M  V30 4886 N 446.519 -5.57572 0.711993 0
M  V30 4887 H 438.67 -1.73113 1.23067 0
M  V30 4888 H 440.933 -0.807197 0.497129 0
M  V30 4889 H 440.639 -3.26217 1.31435 0
M  V30 4890 H 440.513 -3.75427 -0.365281 0
M  V30 4891 H 442.9 -2.84877 -0.770024 0
M  V30 4892 H 442.981 -2.38117 0.934563 0
M  V30 4893 H 442.625 -4.82115 1.59772 0
M  V30 4894 H 442.555 -5.26448 -0.126331 0
M  V30 4895 H 445.046 -3.76599 0.313327 0
M  V30 4896 H 445.359 -7.6243 1.26178 0
M  V30 4897 H 443.704 -6.85787 1.12789 0
M  V30 4898 H 446.895 -4.65714 0.472014 0
M  V30 4899 H 447.068 -6.41659 0.90429 0
M  V30 4900 N 440.474 -0.00167713 -1.576 0
M  V30 4901 C 441.89 0.354422 -1.55615 0
M  V30 4902 C 442.09 1.74679 -1.00447 0
M  V30 4903 O 441.146 2.4428 -0.639022 0
M  V30 4904 C 442.459 0.22812 -2.99833 0
M  V30 4905 C 444.007 0.302934 -3.11531 0
M  V30 4906 C 444.482 0.205737 -4.57538 0
M  V30 4907 N 445.973 0.263584 -4.62449 0
M  V30 4908 C 446.708 0.211742 -5.73009 0
M  V30 4909 N 446.204 0.110399 -6.92712 0
M  V30 4910 N 447.997 0.263729 -5.61481 0
M  V30 4911 H 440.148 -0.912498 -1.918 0
M  V30 4912 H 442.411 -0.349928 -0.881053 0
M  V30 4913 H 442.117 -0.729934 -3.44042 0
M  V30 4914 H 441.991 1.00951 -3.6344 0
M  V30 4915 H 444.378 1.25143 -2.67251 0
M  V30 4916 H 444.459 -0.508357 -2.50698 0
M  V30 4917 H 444.103 -0.739225 -5.02492 0
M  V30 4918 H 444.033 1.03554 -5.16318 0
M  V30 4919 H 446.524 0.343173 -3.76339 0
M  V30 4920 H 446.837 0.0767828 -7.72762 0
M  V30 4921 H 445.182 0.0760025 -6.94958 0
M  V30 4922 H 448.373 0.34111 -4.66855 0
M  V30 4923 H 448.546 0.219862 -6.47627 0
M  V30 4924 N 441.952 1.55251 0.271103 0
M  V30 4925 C 443.198 1.76207 1.00394 0
M  V30 4926 C 443.531 0.562604 1.85872 0
M  V30 4927 O 442.806 -0.439785 1.89463 0
M  V30 4928 C 443.089 3.06828 1.8849 0
M  V30 4929 C 442.942 4.37134 1.05992 0
M  V30 4930 C 444.261 3.33503 2.87165 0
M  V30 4931 H 441.38 0.641086 0.363562 0
M  V30 4932 H 444.022 1.87982 0.276189 0
M  V30 4933 H 442.172 2.96921 2.5054 0
M  V30 4934 H 443.844 4.59001 0.459978 0
M  V30 4935 H 442.087 4.32275 0.363443 0
M  V30 4936 H 442.758 5.2486 1.70955 0
M  V30 4937 H 445.234 3.43215 2.3525 0
M  V30 4938 H 444.11 4.2616 3.45946 0
M  V30 4939 H 444.371 2.53235 3.62387 0
M  V30 4940 N 443.43 -0.535701 1.48216 0
M  V30 4941 C 444.36 -1.65014 1.65204 0
M  V30 4942 C 445.341 -1.62554 0.501011 0
M  V30 4943 O 446.526 -1.7984 0.732886 0
M  V30 4944 C 443.656 -3.03616 1.68626 0
M  V30 4945 C 442.61 -3.20932 2.83172 0
M  V30 4946 C 441.936 -4.60537 2.71679 0
M  V30 4947 C 443.236 -3.04249 4.24535 0
M  V30 4948 H 444.93 -1.51053 2.58502 0
M  V30 4949 H 442.476 -0.725262 1.24402 0
M  V30 4950 H 444.429 -3.81446 1.79099 0
M  V30 4951 H 443.153 -3.18587 0.719026 0
M  V30 4952 H 441.812 -2.45517 2.72244 0
M  V30 4953 H 441.46 -4.72336 1.72937 0
M  V30 4954 H 441.16 -4.73069 3.48538 0
M  V30 4955 H 442.684 -5.40475 2.84112 0
M  V30 4956 H 444.098 -3.71877 4.36326 0
M  V30 4957 H 442.495 -3.28278 5.02348 0
M  V30 4958 H 443.565 -2.00739 4.41397 0
M  V30 4959 N 444.908 -1.36708 -0.784132 0
M  V30 4960 C 446.319 -1.27947 -1.35965 0
M  V30 4961 C 446.67 0.0784013 -1.96043 0
M  V30 4962 O 445.795 0.979989 -1.92938 0
M  V30 4963 C 446.39 -2.31689 -2.47195 0
M  V30 4964 C 444.949 -2.26601 -3.00548 0
M  V30 4965 C 444.096 -2.16184 -1.73666 0
M  V30 4966 H 447.047 -1.4751 -0.585358 0
M  V30 4967 H 447.068 -1.95638 -3.26352 0
M  V30 4968 H 446.58 -3.30506 -2.03439 0
M  V30 4969 H 444.681 -1.31268 -3.48711 0
M  V30 4970 H 444.794 -3.19508 -3.57004 0
M  V30 4971 H 443.158 -1.62524 -1.96107 0
M  V30 4972 H 443.941 -3.16896 -1.32031 0
M  V30 4973 N 446.386 1.0089 -1.21074 0
M  V30 4974 C 447.797 1.56056 -1.02486 0
M  V30 4975 C 448.148 1.91728 0.416506 0
M  V30 4976 O 447.273 1.73066 1.29912 0
M  V30 4977 C 447.868 2.83563 -1.85411 0
M  V30 4978 C 446.427 3.3523 -1.71166 0
M  V30 4979 C 445.574 2.0846 -1.82865 0
M  V30 4980 H 448.525 0.831818 -1.35154 0
M  V30 4981 H 448.546 3.55286 -1.36205 0
M  V30 4982 H 448.058 2.57569 -2.9031 0
M  V30 4983 H 446.159 3.66167 -0.689361 0
M  V30 4984 H 446.272 4.06913 -2.52901 0
M  V30 4985 H 444.636 2.21275 -1.26132 0
M  V30 4986 H 445.419 1.84883 -2.89263 0
M  V30 4987 N 447.864 1.01787 1.20321 0
M  V30 4988 C 449.104 0.716493 1.91431 0
M  V30 4989 C 449.468 -0.740352 1.77152 0
M  V30 4990 O 450.669 -1.1543 2.42754 0
M  V30 4991 C 448.94 1.14169 3.38674 0
M  V30 4992 S 450.499 0.962482 4.28114 0
M  V30 4993 H 447.317 0.261175 0.661293 0
M  V30 4994 H 449.919 1.30539 1.45533 0
M  V30 4995 H 448.623 2.19784 3.46588 0
M  V30 4996 H 448.154 0.545621 3.89598 0
M  V30 4997 H 450.169 -0.133253 4.96021 0
M  V30 4998 N 449.342 -1.36122 0.79427 0
M  V30 4999 C 450.305 -2.28309 0.201889 0
M  V30 5000 C 451.305 -1.49041 -0.603603 0
M  V30 5001 O 452.495 -1.68964 -0.423888 0
M  V30 5002 C 449.627 -3.3321 -0.719978 0
M  V30 5003 H 450.82 -2.82208 1.01481 0
M  V30 5004 H 448.373 -1.45768 0.564037 0
M  V30 5005 H 449.108 -2.84475 -1.55706 0
M  V30 5006 H 448.893 -3.91835 -0.144266 0
M  V30 5007 H 450.383 -4.02044 -1.12916 0
M  V30 5008 N 450.82 -0.546701 -1.47814 0
M  V30 5009 C 451.752 0.244196 -2.27895 0
M  V30 5010 C 452.765 0.88911 -1.36377 0
M  V30 5011 O 453.954 0.764733 -1.61289 0
M  V30 5012 C 451.054 1.36252 -3.10304 0
M  V30 5013 C 450.227 0.816382 -4.29714 0
M  V30 5014 C 449.286 1.81789 -4.93801 0
M  V30 5015 O 448.312 1.36818 -5.52512 0
M  V30 5016 N 449.514 3.15085 -4.87547 0
M  V30 5017 H 452.279 -0.442694 -2.96412 0
M  V30 5018 H 449.84 -0.382095 -1.57327 0
M  V30 5019 H 451.832 2.03102 -3.50045 0
M  V30 5020 H 450.402 1.95281 -2.44099 0
M  V30 5021 H 449.622 -0.0285981 -3.9419 0
M  V30 5022 H 450.91 0.430668 -5.06974 0
M  V30 5023 H 450.308 3.54275 -4.41028 0
M  V30 5024 H 448.865 3.77522 -5.31339 0
M  V30 5025 N 452.299 1.55045 -0.282633 0
M  V30 5026 C 453.232 2.18951 0.64311 0
M  V30 5027 C 454.21 1.15287 1.14664 0
M  V30 5028 O 455.394 1.43846 1.21822 0
M  V30 5029 C 452.521 2.81874 1.87789 0
M  V30 5030 C 451.567 3.98906 1.50919 0
M  V30 5031 S 452.4 5.3234 0.580884 0
M  V30 5032 C 453.556 5.98737 1.82387 0
M  V30 5033 H 453.789 2.97131 0.100138 0
M  V30 5034 H 451.322 1.54255 -0.0668514 0
M  V30 5035 H 453.28 3.18757 2.58658 0
M  V30 5036 H 451.941 2.03573 2.392 0
M  V30 5037 H 451.134 4.4165 2.42819 0
M  V30 5038 H 450.736 3.63485 0.88061 0
M  V30 5039 H 453.028 6.18427 2.76684 0
M  V30 5040 H 453.971 6.93318 1.4393 0
M  V30 5041 H 454.379 5.28177 1.99223 0
M  V30 5042 N 453.777 0.010035 1.57597 0
M  V30 5043 C 454.74 -0.963029 2.07986 0
M  V30 5044 C 455.74 -1.26619 0.991173 0
M  V30 5045 O 456.93 -1.2097 1.25347 0
M  V30 5046 C 454.062 -2.2851 2.52974 0
M  V30 5047 H 455.255 -0.526971 2.95234 0
M  V30 5048 H 452.808 -0.237639 1.54483 0
M  V30 5049 H 453.543 -2.76784 1.69 0
M  V30 5050 H 453.328 -2.07824 3.32493 0
M  V30 5051 H 454.818 -2.98294 2.9225 0
M  V30 5052 N 455.255 -1.55392 -0.262866 0
M  V30 5053 C 456.48 -1.80847 -1.01533 0
M  V30 5054 C 456.905 -0.584946 -1.78774 0
M  V30 5055 O 456.263 0.465701 -1.75217 0
M  V30 5056 C 456.311 -3.03866 -1.94159 0
M  V30 5057 O 455.415 -2.79662 -3.03089 0
M  V30 5058 H 454.756 -0.597441 -0.289759 0
M  V30 5059 H 457.286 -2.02553 -0.288698 0
M  V30 5060 H 457.296 -3.32872 -2.35924 0
M  V30 5061 H 455.971 -3.92564 -1.37354 0
M  V30 5062 H 454.548 -2.61781 -2.65566 0
M  V30 5063 O 456.772 0.408595 -1.56246 0
M  V30 5064 H 457.463 1.06117 -1.62046 0
M  V30 END ATOM
M  V30 BEGIN BOND
M  V30 END BOND
M  V30 END CTAB
M  END
$$$$
