drugbank_target|Q5SJI0 Sulfurtransferase (DB02761)
 OpenBabel12092120253D

  0  0  0     0  0            999 V3000
M  V30 BEGIN CTAB
M  V30 COUNTS 4578 4650 0 0 0
M  V30 BEGIN ATOM
M  V30 1 H -0.908 1.98254 -0.117106 0
M  V30 2 N 0 1.576 0 0
M  V30 3 C 0.933 2.03868 1.02534 0
M  V30 4 C 1.911 0.928543 1.3348 0
M  V30 5 O 3.095 1.19667 1.45644 0
M  V30 6 C 0.222 2.43627 2.35294 0
M  V30 7 C -0.732 3.65373 2.2001 0
M  V30 8 S 0.101 5.13292 1.52614 0
M  V30 9 C 1.257 5.56322 2.86805 0
M  V30 10 H 1.49 2.90518 0.631377 0
M  V30 11 H -0.977 1.52953 0.210867 0
M  V30 12 H 0.981 2.67203 3.11629 0
M  V30 13 H -0.358 1.57376 2.7183 0
M  V30 14 H -1.165 3.90944 3.18086 0
M  V30 15 H -1.563 3.418 1.51819 0
M  V30 16 H 0.729 5.58782 3.83104 0
M  V30 17 H 1.672 6.56266 2.65933 0
M  V30 18 H 2.08 4.83886 2.90714 0
M  V30 19 N 1.4781 -0.272755 1.55222 0
M  V30 20 C 2.7261 -1.00234 1.75492 0
M  V30 21 C 3.0471 -1.8681 0.5592 0
M  V30 22 O 2.3171 -1.91215 -0.425882 0
M  V30 23 H 0.8971 -0.373076 0.647166 0
M  V30 24 H 3.5591 -0.296926 1.92625 0
M  V30 25 H 2.6551 -1.63913 2.65592 0
M  V30 26 N 2.9562 -1.48159 -0.537278 0
M  V30 27 C 4.1862 -1.59223 -1.3165 0
M  V30 28 C 4.5942 -0.248849 -1.87556 0
M  V30 29 O 3.9372 0.770949 -1.6674 0
M  V30 30 C 3.9992 -2.57365 -2.51005 0
M  V30 31 C 3.6632 -4.02603 -2.16239 0
M  V30 32 C 4.6602 -4.90503 -1.72344 0
M  V30 33 C 2.3452 -4.48088 -2.26986 0
M  V30 34 C 4.3392 -6.21913 -1.39651 0
M  V30 35 C 2.0262 -5.7952 -1.93906 0
M  V30 36 C 3.0242 -6.66255 -1.50309 0
M  V30 37 O 2.7122 -7.95243 -1.17659 0
M  V30 38 H 2.4442 -0.539831 -0.406889 0
M  V30 39 H 4.9982 -1.94655 -0.655641 0
M  V30 40 H 3.2282 -2.1704 -3.20048 0
M  V30 41 H 4.9172 -2.58342 -3.13072 0
M  V30 42 H 5.6832 -4.56604 -1.63517 0
M  V30 43 H 1.5622 -3.80769 -2.59877 0
M  V30 44 H 5.1062 -6.89569 -1.0555 0
M  V30 45 H 1.0032 -6.12957 -2.02371 0
M  V30 46 H 1.7712 -8.0793 -1.31119 0
M  V30 47 N 4.4343 0.785586 -1.36625 0
M  V30 48 C 5.3973 1.87999 -1.31107 0
M  V30 49 C 6.3973 1.59316 -0.217959 0
M  V30 50 O 7.5873 1.67656 -0.472977 0
M  V30 51 C 4.7193 3.24861 -1.03334 0
M  V30 52 H 5.9123 1.94307 -2.2844 0
M  V30 53 H 3.4653 0.983813 -1.21453 0
M  V30 54 H 4.2003 3.24235 -0.0647432 0
M  V30 55 H 3.9853 3.4707 -1.82441 0
M  V30 56 H 5.4753 4.04929 -1.02088 0
M  V30 57 N 5.9124 1.20967 1.01018 0
M  V30 58 C 6.8624 0.93182 2.08089 0
M  V30 59 C 7.8464 -0.110898 1.60517 0
M  V30 60 O 9.0384 0.0973392 1.76732 0
M  V30 61 C 6.1674 0.492719 3.39746 0
M  V30 62 C 5.2534 1.56922 3.94 0
M  V30 63 N 5.6444 2.79312 4.21686 0
M  V30 64 C 3.9424 1.43688 4.2222 0
M  V30 65 C 4.6434 3.48797 4.65527 0
M  V30 66 N 3.6194 2.76224 4.68189 0
M  V30 67 H 7.4214 1.86175 2.27412 0
M  V30 68 H 4.9354 1.10463 1.19045 0
M  V30 69 H 6.9324 0.275044 4.15992 0
M  V30 70 H 5.5924 -0.430509 3.21833 0
M  V30 71 H 6.6034 3.15903 4.10397 0
M  V30 72 H 3.2804 0.578548 4.13472 0
M  V30 73 H 4.6704 4.53561 4.95714 0
M  V30 74 N 7.3905 -1.2043 1.01659 0
M  V30 75 C 8.8015 -1.71517 0.737482 0
M  V30 76 C 9.1525 -1.81547 -0.743973 0
M  V30 77 O 8.2775 -1.47803 -1.58061 0
M  V30 78 C 8.8725 -3.11515 1.33206 0
M  V30 79 C 7.4315 -3.59912 1.10183 0
M  V30 80 C 6.5785 -2.37116 1.43776 0
M  V30 81 H 9.5295 -1.05444 1.18606 0
M  V30 82 H 9.5505 -3.73575 0.722636 0
M  V30 83 H 9.0625 -3.04182 2.41028 0
M  V30 84 H 7.1635 -3.72577 0.0412756 0
M  V30 85 H 7.2765 -4.44731 1.78188 0
M  V30 86 H 5.6405 -2.39857 0.856778 0
M  V30 87 H 6.4235 -2.32424 2.52654 0
M  V30 88 N 8.8686 -0.792821 -1.36206 0
M  V30 89 C 9.7786 -0.194808 -2.3379 0
M  V30 90 C 10.7946 0.654869 -1.61206 0
M  V30 91 O 11.9706 0.569856 -1.9317 0
M  V30 92 C 9.0356 0.657721 -3.40404 0
M  V30 93 C 8.0966 -0.210849 -4.28782 0
M  V30 94 C 7.3296 0.601086 -5.30304 0
M  V30 95 O 7.5526 1.83682 -5.40016 0
M  V30 96 O 6.4866 -0.000808277 -6.019 0
M  V30 97 H 10.3126 -1.00172 -2.86704 0
M  V30 98 H 7.8976 -0.554341 -1.38735 0
M  V30 99 H 9.7796 1.14375 -4.05581 0
M  V30 100 H 8.4546 1.44247 -2.89784 0
M  V30 101 H 7.3616 -0.743714 -3.66633 0
M  V30 102 H 8.6946 -0.959195 -4.82763 0
M  V30 103 N 10.3467 1.47872 -0.545128 0
M  V30 104 C 11.5927 2.02793 -0.0166104 0
M  V30 105 C 11.9257 1.41987 1.32489 0
M  V30 106 O 11.2007 0.571045 1.85928 0
M  V30 107 C 11.4837 3.59989 0.0893294 0
M  V30 108 C 11.3367 4.3125 -1.27841 0
M  V30 109 C 12.6557 4.32606 0.808724 0
M  V30 110 H 9.7747 0.736962 -0.00751035 0
M  V30 111 H 12.4167 1.76433 -0.705085 0
M  V30 112 H 10.5667 3.82579 0.675681 0
M  V30 113 H 12.2387 4.20035 -1.90704 0
M  V30 114 H 10.4817 3.92076 -1.85632 0
M  V30 115 H 11.1527 5.39736 -1.15713 0
M  V30 116 H 13.6287 4.14936 0.310992 0
M  V30 117 H 12.5047 5.42251 0.851782 0
M  V30 118 H 12.7657 4.00963 1.86229 0
M  V30 119 N 11.8248 0.280983 1.55075 0
M  V30 120 C 12.7548 -0.597469 2.25727 0
M  V30 121 C 13.7358 -1.15417 1.24952 0
M  V30 122 O 14.9208 -1.18722 1.53684 0
M  V30 123 C 12.0508 -1.7789 2.98283 0
M  V30 124 C 11.0048 -1.35347 4.06036 0
M  V30 125 C 10.3308 -2.61846 4.66198 0
M  V30 126 C 11.6308 -0.499354 5.19907 0
M  V30 127 H 13.3248 -0.00824265 2.99399 0
M  V30 128 H 10.8708 -0.0025244 1.44 0
M  V30 129 H 12.8238 -2.39937 3.46422 0
M  V30 130 H 11.5478 -2.39405 2.22155 0
M  V30 131 H 10.2068 -0.756156 3.58717 0
M  V30 132 H 9.8548 -3.21632 3.86732 0
M  V30 133 H 9.5548 -2.3409 5.38958 0
M  V30 134 H 11.0788 -3.24732 5.1709 0
M  V30 135 H 12.4928 -1.02498 5.64063 0
M  V30 136 H 10.8898 -0.316424 5.99265 0
M  V30 137 H 11.9598 0.480459 4.82514 0
M  V30 138 N 13.3029 -1.57598 0.00835791 0
M  V30 139 C 14.5489 -1.91211 -0.675732 0
M  V30 140 C 14.8819 -0.883139 -1.72958 0
M  V30 141 O 14.1569 0.097016 -1.94258 0
M  V30 142 C 14.4399 -3.35379 -1.31123 0
M  V30 143 C 14.2929 -4.48999 -0.268356 0
M  V30 144 C 15.6119 -3.7912 -2.23508 0
M  V30 145 H 12.7309 -0.695374 -0.244179 0
M  V30 146 H 15.3729 -1.89901 0.0613655 0
M  V30 147 H 13.5229 -3.36626 -1.93946 0
M  V30 148 H 15.1949 -4.59887 0.360844 0
M  V30 149 H 13.4379 -4.31873 0.408482 0
M  V30 150 H 14.1089 -5.46851 -0.752218 0
M  V30 151 H 16.5849 -3.79477 -1.70693 0
M  V30 152 H 15.4609 -4.80729 -2.64936 0
M  V30 153 H 15.7219 -3.13455 -3.11766 0
M  V30 154 N 14.781 0.264519 -1.55364 0
M  V30 155 C 16.006 1.01726 -1.80739 0
M  V30 156 C 16.431 1.78836 -0.583044 0
M  V30 157 O 15.789 1.75167 0.467566 0
M  V30 158 C 15.837 1.94482 -3.03659 0
M  V30 159 O 14.941 3.03386 -2.7934 0
M  V30 160 H 14.282 0.290395 -0.597132 0
M  V30 161 H 16.812 0.290854 -2.02522 0
M  V30 162 H 16.822 2.36278 -3.32621 0
M  V30 163 H 15.497 1.37772 -3.92418 0
M  V30 164 H 14.074 2.65844 -2.61498 0
M  V30 165 N 16.2591 1.48442 0.529413 0
M  V30 166 C 17.4871 1.60151 1.30994 0
M  V30 167 C 17.9021 0.261985 1.86973 0
M  V30 168 O 17.2591 -0.748805 1.66431 0
M  V30 169 C 17.3101 2.64854 2.46038 0
M  V30 170 O 17.0311 3.93608 1.92365 0
M  V30 171 C 18.5321 2.87007 3.37849 0
M  V30 172 H 15.7521 0.539971 0.398338 0
M  V30 173 H 18.2961 1.94273 0.638597 0
M  V30 174 H 16.4511 2.33589 3.09055 0
M  V30 175 H 16.8651 4.51055 2.67675 0
M  V30 176 H 18.3391 3.64068 4.14919 0
M  V30 177 H 18.8161 1.95852 3.93114 0
M  V30 178 H 19.4221 3.19579 2.80623 0
M  V30 179 N 17.7372 -0.778329 1.37039 0
M  V30 180 C 19.0142 -1.52551 1.22424 0
M  V30 181 C 19.3942 -2.10288 -0.184964 0
M  V30 182 O 18.7422 -1.94953 -1.19187 0
M  V30 183 C 18.9522 -2.61164 2.31504 0
M  V30 184 C 20.3002 -3.28746 2.68721 0
M  V30 185 O 21.3242 -2.71455 2.30631 0
M  V30 186 O 20.1832 -4.3231 3.3432 0
M  V30 187 H 17.2772 -0.675343 0.477326 0
M  V30 188 H 19.8232 -0.815859 1.48801 0
M  V30 189 H 18.5952 -2.16574 3.25901 0
M  V30 190 H 18.2182 -3.39737 2.06554 0
M  V30 191 N 19.2153 -1.21501 -1.00376 0
M  V30 192 C 20.4613 -1.04457 -1.74529 0
M  V30 193 C 20.8163 0.417386 -1.87818 0
M  V30 194 O 20.1093 1.30556 -1.40234 0
M  V30 195 C 20.3033 -1.67673 -3.15627 0
M  V30 196 C 20.1323 -3.19865 -3.16096 0
M  V30 197 C 18.9023 -3.88915 -3.22604 0
M  V30 198 C 21.1003 -4.16936 -3.01112 0
M  V30 199 N 19.0823 -5.28284 -3.12712 0
M  V30 200 C 20.4533 -5.43066 -2.99131 0
M  V30 201 C 22.5083 -4.07968 -2.85423 0
M  V30 202 C 21.2113 -6.6126 -2.83068 0
M  V30 203 C 23.2373 -5.258 -2.70718 0
M  V30 204 C 22.5993 -6.50842 -2.69414 0
M  V30 205 H 18.6983 -0.436584 -0.648782 0
M  V30 206 H 21.2823 -1.53875 -1.19293 0
M  V30 207 H 19.4533 -1.20822 -3.6913 0
M  V30 208 H 21.1853 -1.43824 -3.78281 0
M  V30 209 H 17.9403 -3.39847 -3.2985 0
M  V30 210 H 18.3643 -6.01284 -3.11105 0
M  V30 211 H 23.0063 -3.1209 -2.85236 0
M  V30 212 H 20.7243 -7.57298 -2.82002 0
M  V30 213 H 24.3103 -5.20683 -2.59577 0
M  V30 214 H 23.1903 -7.40485 -2.5817 0
M  V30 215 N 20.6934 1.19889 -1.02296 0
M  V30 216 C 21.9394 1.89701 -0.717033 0
M  V30 217 C 22.2724 1.7905 0.751989 0
M  V30 218 O 21.5474 1.17891 1.547 0
M  V30 219 C 21.8304 3.40858 -1.16136 0
M  V30 220 C 21.6834 3.60411 -2.69117 0
M  V30 221 C 23.0024 4.33876 -0.737549 0
M  V30 222 H 20.1214 0.688874 -0.261957 0
M  V30 223 H 22.7634 1.41154 -1.27183 0
M  V30 224 H 20.9134 3.82335 -0.689342 0
M  V30 225 H 22.5854 3.28145 -3.2422 0
M  V30 226 H 20.8284 3.03665 -3.0979 0
M  V30 227 H 21.4994 4.66396 -2.95261 0
M  V30 228 H 23.9754 4.00081 -1.14344 0
M  V30 229 H 22.8514 5.38242 -1.0764 0
M  V30 230 H 23.1124 4.40628 0.360436 0
M  V30 231 N 22.1715 0.800033 1.35784 0
M  V30 232 C 23.1035 0.163596 2.28615 0
M  V30 233 C 24.1165 -0.633317 1.49976 0
M  V30 234 O 25.3055 -0.466754 1.72289 0
M  V30 235 C 22.4055 -0.790958 3.29541 0
M  V30 236 C 21.5785 -0.0418255 4.3738 0
M  V30 237 C 20.6375 -0.91389 5.18203 0
M  V30 238 O 19.6635 -0.367234 5.68014 0
M  V30 239 N 20.8655 -2.23682 5.35674 0
M  V30 240 H 23.6305 0.96105 2.83873 0
M  V30 241 H 21.1915 0.654894 1.48063 0
M  V30 242 H 23.1835 -1.37844 3.80501 0
M  V30 243 H 21.7535 -1.48925 2.74846 0
M  V30 244 H 20.9735 0.726813 3.87442 0
M  V30 245 H 22.2615 0.474719 5.06581 0
M  V30 246 H 21.6595 -2.70497 4.96838 0
M  V30 247 H 20.2165 -2.77369 5.89839 0
M  V30 248 N 23.6496 -1.47581 0.552962 0
M  V30 249 C 24.5596 -2.33743 -0.200353 0
M  V30 250 C 25.5756 -1.47928 -0.916151 0
M  V30 251 O 26.7516 -1.80865 -0.885993 0
M  V30 252 C 23.8166 -3.24536 -1.21973 0
M  V30 253 C 22.8776 -4.26238 -0.511819 0
M  V30 254 C 22.1106 -5.12693 -1.48263 0
M  V30 255 O 22.3336 -5.01525 -2.71714 0
M  V30 256 O 21.2676 -5.93375 -1.00945 0
M  V30 257 H 25.0936 -2.9945 0.506304 0
M  V30 258 H 22.6786 -1.46071 0.313622 0
M  V30 259 H 24.5606 -3.80631 -1.80827 0
M  V30 260 H 23.2356 -2.61462 -1.90839 0
M  V30 261 H 22.1426 -3.73914 0.117799 0
M  V30 262 H 23.4756 -4.92014 0.135308 0
M  V30 263 N 25.1277 -0.289203 -1.54924 0
M  V30 264 C 26.0777 0.606939 -2.19773 0
M  V30 265 C 27.0617 1.10783 -1.16687 0
M  V30 266 O 28.2537 1.05057 -1.4245 0
M  V30 267 C 25.3827 1.78398 -2.93307 0
M  V30 268 C 24.4687 1.29961 -4.03697 0
M  V30 269 N 24.8597 0.532377 -5.0299 0
M  V30 270 C 23.1577 1.58136 -4.17024 0
M  V30 271 C 23.8587 0.275912 -5.81045 0
M  V30 272 N 22.8347 0.852365 -5.36876 0
M  V30 273 H 26.6367 0.0130779 -2.93897 0
M  V30 274 H 24.1507 -0.09341 -1.62131 0
M  V30 275 H 26.1477 2.43741 -3.38225 0
M  V30 276 H 24.8077 2.38166 -2.20697 0
M  V30 277 H 25.8187 0.17838 -5.17593 0
M  V30 278 H 22.4957 2.18738 -3.55612 0
M  V30 279 H 23.8857 -0.339502 -6.71042 0
M  V30 280 N 26.6058 1.57591 -0.0167156 0
M  V30 281 C 27.5358 2.12496 0.967858 0
M  V30 282 C 28.5168 1.03807 1.34752 0
M  V30 283 O 29.7018 1.31577 1.42833 0
M  V30 284 C 26.8318 2.64194 2.25431 0
M  V30 285 C 25.7858 3.77559 2.01576 0
M  V30 286 C 25.1118 4.15636 3.36379 0
M  V30 287 C 26.4118 5.04151 1.36489 0
M  V30 288 H 28.1058 2.95013 0.510643 0
M  V30 289 H 25.6518 1.41915 0.244181 0
M  V30 290 H 27.6048 3.01236 2.94678 0
M  V30 291 H 26.3288 1.78821 2.73296 0
M  V30 292 H 24.9878 3.40937 1.34751 0
M  V30 293 H 24.6358 3.27263 3.81979 0
M  V30 294 H 24.3358 4.92022 3.21229 0
M  V30 295 H 25.8598 4.5525 4.06915 0
M  V30 296 H 27.2738 5.38857 1.95718 0
M  V30 297 H 25.6708 5.85453 1.31776 0
M  V30 298 H 26.7408 4.83733 0.336219 0
M  V30 299 N 28.0839 -0.256276 1.55502 0
M  V30 300 C 28.9939 -1.33882 1.92647 0
M  V30 301 C 30.0099 -1.53159 0.825727 0
M  V30 302 O 31.1859 -1.66963 1.12629 0
M  V30 303 C 28.2509 -2.6751 2.20543 0
M  V30 304 C 27.3119 -2.56836 3.43997 0
M  V30 305 C 26.5449 -3.84092 3.70553 0
M  V30 306 O 26.7679 -4.85545 2.99336 0
M  V30 307 O 25.7019 -3.83288 4.64084 0
M  V30 308 H 29.5279 -1.05374 2.84833 0
M  V30 309 H 27.1129 -0.456237 1.42263 0
M  V30 310 H 28.9949 -3.46492 2.39835 0
M  V30 311 H 27.6699 -2.9577 1.31536 0
M  V30 312 H 26.5769 -1.76172 3.30021 0
M  V30 313 H 27.9099 -2.33523 4.33275 0
M  V30 314 N 29.562 -1.4872 -0.521534 0
M  V30 315 C 30.839 -1.4766 -1.2828 0
M  V30 316 C 31.219 -0.19292 -2.10217 0
M  V30 317 O 30.567 0.825193 -2.13079 0
M  V30 318 C 30.777 -2.74358 -2.15705 0
M  V30 319 C 32.125 -3.23028 -2.75569 0
M  V30 320 O 33.149 -2.75333 -2.25987 0
M  V30 321 O 32.008 -4.0604 -3.65778 0
M  V30 322 H 29.102 -0.590085 -0.579421 0
M  V30 323 H 31.648 -1.60963 -0.537492 0
M  V30 324 H 30.42 -3.59292 -1.54999 0
M  V30 325 H 30.043 -2.63816 -2.97467 0
M  V30 326 N 31.0401 0.771051 -1.3745 0
M  V30 327 C 32.4511 1.34737 -1.29239 0
M  V30 328 C 32.8021 1.96109 0.0596908 0
M  V30 329 O 31.9271 1.93865 0.961534 0
M  V30 330 C 32.5221 2.44973 -2.34037 0
M  V30 331 C 31.0811 2.98372 -2.29458 0
M  V30 332 C 30.2281 1.71595 -2.17831 0
M  V30 333 H 33.1791 0.571256 -1.48062 0
M  V30 334 H 33.2001 3.24471 -1.98744 0
M  V30 335 H 32.7121 2.00276 -3.32432 0
M  V30 336 H 30.8131 3.47443 -1.34589 0
M  V30 337 H 30.9261 3.53939 -3.229 0
M  V30 338 H 29.2901 1.94547 -1.64388 0
M  V30 339 H 30.0731 1.29001 -3.18141 0
M  V30 340 N 32.5182 1.22032 0.997298 0
M  V30 341 C 33.4652 0.986467 2.08656 0
M  V30 342 C 34.4352 -0.0902671 1.65855 0
M  V30 343 O 35.6202 0.0584294 1.90711 0
M  V30 344 C 32.7602 0.565569 3.40434 0
M  V30 345 C 31.8732 1.71259 3.96604 0
M  V30 346 C 31.0082 1.24011 5.16522 0
M  V30 347 C 30.0472 2.35896 5.64818 0
M  V30 348 N 29.1842 1.89726 6.7598 0
M  V30 349 H 34.0242 1.91892 2.27994 0
M  V30 350 H 31.5612 0.956199 1.11782 0
M  V30 351 H 33.5192 0.302738 4.161 0
M  V30 352 H 32.1492 -0.329879 3.2111 0
M  V30 353 H 31.2012 2.08986 3.17851 0
M  V30 354 H 32.5132 2.55436 4.28432 0
M  V30 355 H 31.6672 0.934395 5.99461 0
M  V30 356 H 30.4062 0.368487 4.86306 0
M  V30 357 H 29.4112 2.67261 4.8047 0
M  V30 358 H 30.6362 3.23567 5.97061 0
M  V30 359 H 28.5822 1.0492 6.47555 0
M  V30 360 H 28.4992 2.67471 7.07103 0
M  V30 361 H 29.7672 1.62211 7.62435 0
M  V30 362 N 33.9963 -1.19345 1.0293 0
M  V30 363 C 35.2423 -1.89318 0.727083 0
M  V30 364 C 35.5753 -1.79446 -0.742483 0
M  V30 365 O 34.8503 -1.1871 -1.54072 0
M  V30 366 C 35.1333 -3.40238 1.17942 0
M  V30 367 C 34.9863 -3.58979 2.71024 0
M  V30 368 C 36.3053 -4.33479 0.760548 0
M  V30 369 H 33.4243 -0.687475 0.265606 0
M  V30 370 H 36.0663 -1.40477 1.2793 0
M  V30 371 H 34.2163 -3.81964 0.709608 0
M  V30 372 H 35.8883 -3.26421 3.25955 0
M  V30 373 H 34.1313 -3.02018 3.11396 0
M  V30 374 H 34.8023 -4.64823 2.9773 0
M  V30 375 H 37.2783 -3.99469 1.16464 0
M  V30 376 H 36.1543 -5.37664 1.10493 0
M  V30 377 H 36.4153 -4.40813 -0.337063 0
M  V30 378 N 35.4744 -0.807222 -1.35358 0
M  V30 379 C 36.8904 -0.491038 -1.51858 0
M  V30 380 C 37.0904 0.987648 -1.75635 0
M  V30 381 O 36.1464 1.77265 -1.79815 0
M  V30 382 C 37.4594 -1.33695 -2.69344 0
M  V30 383 C 39.0074 -1.33246 -2.83222 0
M  V30 384 C 39.4824 -2.1625 -4.03733 0
M  V30 385 N 40.9734 -2.1379 -4.10911 0
M  V30 386 C 41.7084 -2.74772 -5.03277 0
M  V30 387 N 41.2044 -3.44684 -6.0097 0
M  V30 388 N 42.9974 -2.6441 -4.96028 0
M  V30 389 H 35.1484 -1.76485 -1.18181 0
M  V30 390 H 37.4114 -0.751199 -0.578276 0
M  V30 391 H 37.1174 -2.38634 -2.58354 0
M  V30 392 H 36.9914 -0.990618 -3.6396 0
M  V30 393 H 39.3784 -0.290911 -2.93663 0
M  V30 394 H 39.4594 -1.71866 -1.89461 0
M  V30 395 H 39.1034 -3.20445 -3.94052 0
M  V30 396 H 39.0334 -1.74989 -4.96675 0
M  V30 397 H 41.5244 -1.62923 -3.40976 0
M  V30 398 H 41.8374 -3.88501 -6.68047 0
M  V30 399 H 40.1824 -3.48788 -6.01142 0
M  V30 400 H 43.3734 -2.0938 -4.18662 0
M  V30 401 H 43.5464 -3.12225 -5.6782 0
M  V30 402 N 36.9525 1.47285 -0.560781 0
M  V30 403 C 38.1985 2.02764 -0.0381184 0
M  V30 404 C 38.5315 1.43384 1.30976 0
M  V30 405 O 37.8065 0.590733 1.85312 0
M  V30 406 C 38.0895 3.60064 0.0511427 0
M  V30 407 C 37.9425 4.2987 -1.32408 0
M  V30 408 C 39.2615 4.33439 0.762795 0
M  V30 409 H 36.3805 0.736841 -0.0153264 0
M  V30 410 H 39.0225 1.75675 -0.723759 0
M  V30 411 H 37.1725 3.83274 0.635065 0
M  V30 412 H 38.8445 4.17989 -1.95148 0
M  V30 413 H 37.0875 3.90085 -1.8978 0
M  V30 414 H 37.7585 5.38478 -1.21431 0
M  V30 415 H 40.2345 4.15243 0.266965 0
M  V30 416 H 39.1105 5.43124 0.794221 0
M  V30 417 H 39.3715 4.02915 1.81966 0
M  V30 418 N 38.4306 0.297415 1.54768 0
M  V30 419 C 39.3606 -0.573494 2.26348 0
M  V30 420 C 40.3416 -1.14085 1.26169 0
M  V30 421 O 41.5266 -1.17086 1.54934 0
M  V30 422 C 38.6566 -1.74716 3.00153 0
M  V30 423 C 37.6106 -1.31032 4.07449 0
M  V30 424 C 36.9366 -2.56887 4.68949 0
M  V30 425 C 38.2366 -0.444183 5.20408 0
M  V30 426 H 39.9306 0.0235131 2.99391 0
M  V30 427 H 37.4766 0.0127488 1.43994 0
M  V30 428 H 39.4296 -2.3625 3.48947 0
M  V30 429 H 38.1536 -2.37035 2.24682 0
M  V30 430 H 36.8126 -0.718066 3.59499 0
M  V30 431 H 36.4606 -3.17512 3.90122 0
M  V30 432 H 36.1606 -2.2836 5.41411 0
M  V30 433 H 37.6846 -3.19229 5.20505 0
M  V30 434 H 39.0986 -0.9651 5.65118 0
M  V30 435 H 37.4956 -0.252846 5.99567 0
M  V30 436 H 38.5656 0.531609 4.81977 0
M  V30 437 N 39.9087 -1.5758 0.0250728 0
M  V30 438 C 40.8187 -2.1343 -0.973905 0
M  V30 439 C 41.8347 -1.08556 -1.35984 0
M  V30 440 O 43.0107 -1.40592 -1.44207 0
M  V30 441 C 40.0757 -2.64703 -2.23904 0
M  V30 442 C 39.1367 -3.84276 -1.91391 0
M  V30 443 C 38.3697 -4.33095 -3.11873 0
M  V30 444 O 38.5927 -3.81107 -4.24398 0
M  V30 445 O 37.5267 -5.24984 -2.94406 0
M  V30 446 H 41.3527 -2.99057 -0.529036 0
M  V30 447 H 38.9377 -1.48118 -0.195288 0
M  V30 448 H 40.8197 -2.97769 -2.98181 0
M  V30 449 H 39.4947 -1.82161 -2.6758 0
M  V30 450 H 38.4017 -3.56143 -1.14511 0
M  V30 451 H 39.7347 -4.67968 -1.52534 0
M  V30 452 N 41.3868 0.248026 -1.55636 0
M  V30 453 C 42.6328 0.97767 -1.77678 0
M  V30 454 C 42.9658 1.85016 -0.590135 0
M  V30 455 O 42.2408 1.90095 0.411611 0
M  V30 456 C 42.5238 1.83914 -3.09593 0
M  V30 457 C 42.3768 0.99491 -4.38659 0
M  V30 458 C 43.6958 2.82183 -3.37729 0
M  V30 459 H 40.8148 0.354005 -0.646413 0
M  V30 460 H 43.4568 0.248253 -1.88371 0
M  V30 461 H 41.6068 2.46104 -3.00608 0
M  V30 462 H 43.2788 0.391789 -4.59633 0
M  V30 463 H 41.5218 0.299231 -4.32767 0
M  V30 464 H 42.1928 1.63145 -5.2734 0
M  V30 465 H 44.6688 2.30129 -3.4667 0
M  V30 466 H 43.5448 3.39582 -4.31249 0
M  V30 467 H 43.8058 3.58588 -2.58586 0
M  V30 468 N 42.8649 1.48995 0.513639 0
M  V30 469 C 44.1419 1.48338 1.27495 0
M  V30 470 C 44.5219 0.204065 2.10111 0
M  V30 471 O 43.8699 -0.813881 2.13514 0
M  V30 472 C 44.0799 2.75498 2.14247 0
M  V30 473 C 45.4279 3.24484 2.73852 0
M  V30 474 O 46.4519 2.76528 2.24523 0
M  V30 475 O 45.3109 4.07974 3.6362 0
M  V30 476 H 42.4049 0.593149 0.576284 0
M  V30 477 H 44.9509 1.61246 0.528948 0
M  V30 478 H 43.7229 3.60109 1.53092 0
M  V30 479 H 43.3459 2.6539 2.96064 0
M  V30 480 N 44.343 -0.763751 1.37857 0
M  V30 481 C 45.253 -1.90817 1.36478 0
M  V30 482 C 46.269 -1.71997 0.263248 0
M  V30 483 O 47.445 -1.95095 0.499979 0
M  V30 484 C 44.51 -3.2605 1.17864 0
M  V30 485 C 43.571 -3.57467 2.3773 0
M  V30 486 C 42.804 -4.86249 2.19995 0
M  V30 487 O 43.027 -5.57884 1.18836 0
M  V30 488 O 41.961 -5.16911 3.08361 0
M  V30 489 H 45.787 -1.94933 2.32884 0
M  V30 490 H 43.372 -0.907619 1.1867 0
M  V30 491 H 45.254 -4.06924 1.09504 0
M  V30 492 H 43.929 -3.22769 0.245372 0
M  V30 493 H 42.836 -2.76796 2.51664 0
M  V30 494 H 44.169 -3.655 3.29652 0
M  V30 495 N 45.8211 -1.22559 -0.990812 0
M  V30 496 C 47.0981 -0.959875 -1.70428 0
M  V30 497 C 47.4781 0.524455 -2.04481 0
M  V30 498 O 46.8261 1.49302 -1.72977 0
M  V30 499 C 47.0361 -1.85955 -2.95333 0
M  V30 500 C 48.3841 -2.11687 -3.68068 0
M  V30 501 O 49.4081 -1.8342 -3.05345 0
M  V30 502 O 48.2671 -2.59572 -4.80921 0
M  V30 503 H 45.3611 -0.361154 -0.743974 0
M  V30 504 H 47.9071 -1.33554 -1.04697 0
M  V30 505 H 46.6791 -2.86346 -2.66687 0
M  V30 506 H 46.3021 -1.4856 -3.68803 0
M  V30 507 N 47.2992 1.18797 -1.03562 0
M  V30 508 C 48.5482 1.87978 -0.731235 0
M  V30 509 C 48.8612 1.80911 0.743671 0
M  V30 510 O 50.0672 2.45407 1.16137 0
M  V30 511 C 48.5232 3.3721 -1.25768 0
M  V30 512 C 48.1312 3.52818 -2.76085 0
M  V30 513 C 49.8752 4.11825 -1.0296 0
M  V30 514 C 47.7822 4.9598 -3.22114 0
M  V30 515 H 46.7122 0.704063 -0.269835 0
M  V30 516 H 49.3632 1.34266 -1.25079 0
M  V30 517 H 47.7452 3.90359 -0.666011 0
M  V30 518 H 48.9192 3.09965 -3.40966 0
M  V30 519 H 47.2342 2.91602 -2.97249 0
M  V30 520 H 49.8312 5.17411 -1.34869 0
M  V30 521 H 50.1742 4.16287 0.0333546 0
M  V30 522 H 50.7072 3.64833 -1.58562 0
M  V30 523 H 47.4462 4.96684 -4.27768 0
M  V30 524 H 46.9662 5.39569 -2.61965 0
M  V30 525 H 48.6452 5.6467 -3.15844 0
M  V30 526 N 48.7773 0.814389 1.34928 0
M  V30 527 C 49.7073 0.244827 2.32213 0
M  V30 528 C 50.6883 -0.634024 1.57842 0
M  V30 529 O 51.8733 -0.562676 1.8587 0
M  V30 530 C 49.0033 -0.601106 3.42058 0
M  V30 531 C 47.9573 0.179896 4.27622 0
M  V30 532 C 47.2833 -0.788237 5.28858 0
M  V30 533 C 48.5833 1.38329 5.03649 0
M  V30 534 H 50.2773 1.05763 2.80097 0
M  V30 535 H 47.8233 0.510029 1.34665 0
M  V30 536 H 49.7763 -1.00968 4.09125 0
M  V30 537 H 48.5003 -1.44688 2.92802 0
M  V30 538 H 47.1593 0.569739 3.62146 0
M  V30 539 H 46.8073 -1.62973 4.75866 0
M  V30 540 H 46.5073 -0.269942 5.8698 0
M  V30 541 H 48.0313 -1.19485 5.98795 0
M  V30 542 H 49.4453 1.04918 5.63618 0
M  V30 543 H 47.8423 1.83662 5.71304 0
M  V30 544 H 48.9123 2.16592 4.33839 0
M  V30 545 N 50.2554 -1.46986 0.568584 0
M  V30 546 C 51.1854 -2.32946 -0.160753 0
M  V30 547 C 52.1664 -1.44487 -0.897631 0
M  V30 548 O 53.3514 -1.73327 -0.875867 0
M  V30 549 C 50.4814 -3.26494 -1.18403 0
M  V30 550 C 49.4354 -4.24282 -0.562895 0
M  V30 551 C 48.7614 -5.07236 -1.69163 0
M  V30 552 C 50.0614 -5.19989 0.490761 0
M  V30 553 H 51.7554 -2.94175 0.556916 0
M  V30 554 H 49.3014 -1.4146 0.26927 0
M  V30 555 H 51.2544 -3.85477 -1.70251 0
M  V30 556 H 49.9784 -2.63343 -1.93179 0
M  V30 557 H 48.6374 -3.66541 -0.0656164 0
M  V30 558 H 48.2854 -4.4048 -2.42871 0
M  V30 559 H 47.9854 -5.7345 -1.28174 0
M  V30 560 H 49.5094 -5.6908 -2.21314 0
M  V30 561 H 50.9234 -5.73271 0.0579047 0
M  V30 562 H 49.3204 -5.94469 0.820165 0
M  V30 563 H 50.3904 -4.64777 1.3824 0
M  V30 564 N 51.7335 -0.305618 -1.54608 0
M  V30 565 C 52.9635 0.304333 -2.04346 0
M  V30 566 C 53.3715 1.47715 -1.18224 0
M  V30 567 O 52.7145 1.82591 -0.201577 0
M  V30 568 C 52.7765 0.819031 -3.50046 0
M  V30 569 C 52.4405 -0.22912 -4.56425 0
M  V30 570 C 53.4375 -1.05914 -5.08997 0
M  V30 571 C 51.1225 -0.372148 -5.0092 0
M  V30 572 C 53.1165 -2.01809 -6.04609 0
M  V30 573 C 50.8035 -1.33454 -5.9635 0
M  V30 574 C 51.8015 -2.15599 -6.48079 0
M  V30 575 O 51.4895 -3.10205 -7.41639 0
M  V30 576 H 51.2215 0.0693996 -0.672428 0
M  V30 577 H 53.7755 -0.444548 -2.00532 0
M  V30 578 H 52.0055 1.61852 -3.51199 0
M  V30 579 H 53.6945 1.34537 -3.82955 0
M  V30 580 H 54.4605 -0.959538 -4.75413 0
M  V30 581 H 50.3395 0.257304 -4.60281 0
M  V30 582 H 53.8835 -2.65966 -6.44909 0
M  V30 583 H 49.7805 -1.43485 -6.29351 0
M  V30 584 H 50.5485 -3.05237 -7.59455 0
M  V30 585 N 53.2116 1.57565 -0.0334293 0
M  V30 586 C 54.4886 1.83282 0.683163 0
M  V30 587 C 54.8686 0.91823 1.90084 0
M  V30 588 O 54.2166 -0.025113 2.28486 0
M  V30 589 C 54.4266 3.32599 1.0573 0
M  V30 590 C 55.7746 3.99179 1.44711 0
M  V30 591 O 56.7986 3.3712 1.15015 0
M  V30 592 O 55.6576 5.08565 2.0006 0
M  V30 593 H 52.7516 0.755869 0.335546 0
M  V30 594 H 55.2976 1.69589 -0.0614402 0
M  V30 595 H 54.0696 3.90834 0.190828 0
M  V30 596 H 53.6926 3.51415 1.85993 0
M  V30 597 N 54.6897 -0.239769 1.55765 0
M  V30 598 C 55.9177 -0.98417 1.81994 0
M  V30 599 C 56.3327 -1.7867 0.610124 0
M  V30 600 O 55.6897 -1.77571 -0.421271 0
M  V30 601 C 55.7407 -1.91635 3.06526 0
M  V30 602 O 55.4617 -1.14629 4.22838 0
M  V30 603 C 56.9627 -2.77616 3.45607 0
M  V30 604 H 54.1827 -0.28928 0.605441 0
M  V30 605 H 56.7267 -0.260499 2.02834 0
M  V30 606 H 54.8817 -2.5942 2.87715 0
M  V30 607 H 55.2957 -1.77745 4.93464 0
M  V30 608 H 56.7697 -3.38759 4.35828 0
M  V30 609 H 57.2467 -3.4909 2.6652 0
M  V30 610 H 57.8527 -2.15271 3.66795 0
M  V30 611 N 56.1678 -1.49265 -0.50573 0
M  V30 612 C 57.4158 -1.582 -1.25766 0
M  V30 613 C 57.7368 -0.268482 -1.93143 0
M  V30 614 O 57.0068 0.711833 -1.8251 0
M  V30 615 H 55.5868 -0.582873 -0.467191 0
M  V30 616 H 58.2488 -1.85865 -0.586525 0
M  V30 617 H 57.3448 -2.37563 -2.02412 0
M  V30 618 N 57.6459 0.756429 -1.3826 0
M  V30 619 C 58.5959 1.86069 -1.31766 0
M  V30 620 C 59.5799 1.59621 -0.202483 0
M  V30 621 O 60.7719 1.7149 -0.438211 0
M  V30 622 C 57.9009 3.23742 -1.1422 0
M  V30 623 C 56.9869 3.56091 -2.30348 0
M  V30 624 N 57.3779 3.59517 -3.55783 0
M  V30 625 C 55.6759 3.86341 -2.22838 0
M  V30 626 C 56.3769 3.89052 -4.32451 0
M  V30 627 N 55.3529 4.05736 -3.61772 0
M  V30 628 H 59.1549 1.86992 -2.26741 0
M  V30 629 H 56.6689 0.953643 -1.31451 0
M  V30 630 H 58.6659 4.02761 -1.07652 0
M  V30 631 H 57.3259 3.24073 -0.201763 0
M  V30 632 H 58.3369 3.41347 -3.89491 0
M  V30 633 H 55.0139 3.94404 -1.36937 0
M  V30 634 H 56.4039 3.98349 -5.4108 0
M  V30 635 N 59.124 1.23083 0.984299 0
M  V30 636 C 60.373 1.05466 1.71929 0
M  V30 637 C 60.686 -0.409211 1.91272 0
M  V30 638 O 61.892 -0.705226 2.62181 0
M  V30 639 C 60.348 1.83874 3.09384 0
M  V30 640 C 59.956 3.34566 2.97943 0
M  V30 641 C 61.7 1.74734 3.8687 0
M  V30 642 C 59.607 4.05381 4.30605 0
M  V30 643 H 58.537 0.391039 0.644674 0
M  V30 644 H 61.188 1.47013 1.09815 0
M  V30 645 H 59.57 1.35131 3.72231 0
M  V30 646 H 60.744 3.90767 2.44209 0
M  V30 647 H 59.059 3.44476 2.33934 0
M  V30 648 H 61.656 2.24957 4.85076 0
M  V30 649 H 61.999 0.709372 4.10212 0
M  V30 650 H 62.532 2.21067 3.30717 0
M  V30 651 H 59.271 5.09467 4.1246 0
M  V30 652 H 58.791 3.53967 4.84218 0
M  V30 653 H 60.47 4.11458 4.99311 0
M  V30 654 N 60.6021 -1.18246 1.0419 0
M  V30 655 C 62.0131 -1.69914 0.773698 0
M  V30 656 C 62.3641 -1.83085 -0.705297 0
M  V30 657 O 61.4891 -1.51123 -1.5489 0
M  V30 658 C 62.0841 -3.08619 1.39784 0
M  V30 659 C 60.6431 -3.57494 1.17792 0
M  V30 660 C 59.7901 -2.34013 1.48773 0
M  V30 661 H 62.7411 -1.02904 1.20816 0
M  V30 662 H 62.7621 -3.71958 0.801714 0
M  V30 663 H 62.2741 -2.99001 2.47426 0
M  V30 664 H 60.3751 -3.72406 0.120295 0
M  V30 665 H 60.4881 -4.40852 1.87581 0
M  V30 666 H 58.8521 -2.37986 0.907463 0
M  V30 667 H 59.6351 -2.27013 2.57527 0
M  V30 668 N 62.0802 -0.821533 -1.34494 0
M  V30 669 C 63.3282 -0.408139 -1.97936 0
M  V30 670 C 63.6492 1.03193 -1.65457 0
M  V30 671 O 62.9192 1.71622 -0.944595 0
M  V30 672 H 61.4992 -0.147928 -0.732206 0
M  V30 673 H 64.1612 -1.05067 -1.64155 0
M  V30 674 H 63.2572 -0.52601 -3.07635 0
M  V30 675 N 63.5583 1.46682 -0.576371 0
M  V30 676 C 64.5213 2.28707 0.150239 0
M  V30 677 C 65.5213 1.38035 0.824794 0
M  V30 678 O 66.7113 1.60476 0.677719 0
M  V30 679 C 63.8433 3.18248 1.22192 0
M  V30 680 H 65.0363 2.94423 -0.570521 0
M  V30 681 H 62.5893 1.52688 -0.334078 0
M  V30 682 H 63.3243 2.57265 1.97447 0
M  V30 683 H 63.1093 3.85 0.742812 0
M  V30 684 H 64.5993 3.80001 1.73172 0
M  V30 685 N 65.0364 0.313813 1.54444 0
M  V30 686 C 65.9684 -0.590425 2.21465 0
M  V30 687 C 66.9814 -1.08753 1.21147 0
M  V30 688 O 68.1704 -1.00278 1.4767 0
M  V30 689 C 65.2704 -1.82179 2.85769 0
M  V30 690 C 64.4434 -1.46502 4.12136 0
M  V30 691 C 63.5024 -2.55288 4.60124 0
M  V30 692 O 62.5284 -2.19842 5.25032 0
M  V30 693 N 63.7304 -3.86053 4.33525 0
M  V30 694 H 66.4954 -0.0166033 2.99695 0
M  V30 695 H 64.0564 0.136578 1.61323 0
M  V30 696 H 66.0484 -2.54328 3.14801 0
M  V30 697 H 64.6184 -2.30369 2.11303 0
M  V30 698 H 63.8384 -0.575595 3.89975 0
M  V30 699 H 65.1264 -1.20221 4.94393 0
M  V30 700 H 64.5244 -4.17654 3.81552 0
M  V30 701 H 63.0814 -4.54461 4.67235 0
M  V30 702 N 66.5145 -1.57545 0.0417849 0
M  V30 703 C 67.4615 -2.10977 -0.935805 0
M  V30 704 C 68.4315 -1.01486 -1.31491 0
M  V30 705 O 69.6165 -1.2898 -1.40602 0
M  V30 706 C 66.7565 -2.65169 -2.2086 0
M  V30 707 C 65.8695 -3.88714 -1.88482 0
M  V30 708 C 65.0045 -4.31254 -3.1015 0
M  V30 709 C 64.0435 -5.47524 -2.7365 0
M  V30 710 N 63.1805 -5.85162 -3.87982 0
M  V30 711 H 68.0205 -2.94218 -0.473249 0
M  V30 712 H 65.5575 -1.45415 -0.221981 0
M  V30 713 H 67.5155 -2.94685 -2.95325 0
M  V30 714 H 66.1455 -1.8474 -2.64709 0
M  V30 715 H 65.1975 -3.65849 -1.04205 0
M  V30 716 H 66.5095 -4.73245 -1.57608 0
M  V30 717 H 65.6635 -4.62273 -3.92923 0
M  V30 718 H 64.4025 -3.45516 -3.44195 0
M  V30 719 H 63.4075 -5.16187 -1.89291 0
M  V30 720 H 64.6325 -6.34971 -2.40807 0
M  V30 721 H 62.5785 -5.02377 -4.21846 0
M  V30 722 H 62.4955 -6.64362 -3.60775 0
M  V30 723 H 63.7635 -6.20791 -4.71422 0
M  V30 724 N 67.9926 0.231505 -1.5589 0
M  V30 725 C 69.2416 0.955346 -1.7764 0
M  V30 726 C 69.5546 1.85893 -0.608546 0
M  V30 727 O 70.7606 2.62067 -0.70943 0
M  V30 728 C 69.2166 1.74886 -3.14552 0
M  V30 729 C 68.8246 0.891915 -4.39032 0
M  V30 730 C 70.5686 2.46452 -3.45633 0
M  V30 731 C 68.4756 1.68221 -5.66971 0
M  V30 732 H 67.4056 0.360446 -0.662265 0
M  V30 733 H 70.0566 0.209516 -1.823 0
M  V30 734 H 68.4386 2.53723 -3.04041 0
M  V30 735 H 69.6126 0.144793 -4.60572 0
M  V30 736 H 67.9276 0.288863 -4.15397 0
M  V30 737 H 70.5246 3.06061 -4.38441 0
M  V30 738 H 70.8676 3.18841 -2.67668 0
M  V30 739 H 71.4006 1.74613 -3.57428 0
M  V30 740 H 68.1396 1.00178 -6.478 0
M  V30 741 H 67.6596 2.4042 -5.49507 0
M  V30 742 H 69.3386 2.24544 -6.06786 0
M  V30 743 N 69.4707 1.49531 0.497807 0
M  V30 744 C 70.7477 1.49682 1.25915 0
M  V30 745 C 71.1277 0.226339 2.09883 0
M  V30 746 O 70.4757 -0.791189 2.14365 0
M  V30 747 C 70.6857 2.77755 2.11313 0
M  V30 748 C 72.0337 3.27371 2.70395 0
M  V30 749 O 73.0577 2.78894 2.21578 0
M  V30 750 O 71.9167 4.11808 3.59272 0
M  V30 751 H 69.0107 0.599228 0.56996 0
M  V30 752 H 71.5567 1.61798 0.511816 0
M  V30 753 H 70.3287 3.61713 1.49264 0
M  V30 754 H 69.9517 2.68515 2.93233 0
M  V30 755 N 70.9488 -0.749086 1.3866 0
M  V30 756 C 72.1948 -1.50959 1.36319 0
M  V30 757 C 72.5498 -1.92347 -0.0452451 0
M  V30 758 O 71.8428 -1.6289 -1.00884 0
M  V30 759 C 72.0368 -2.7712 2.25697 0
M  V30 760 C 71.8658 -2.48067 3.7509 0
M  V30 761 C 70.6358 -2.41062 4.44091 0
M  V30 762 C 72.8338 -2.14544 4.67414 0
M  V30 763 N 70.8158 -2.04331 5.78897 0
M  V30 764 C 72.1868 -1.88141 5.90765 0
M  V30 765 C 74.2418 -2.00892 4.55573 0
M  V30 766 C 72.9448 -1.49463 7.036 0
M  V30 767 C 74.9708 -1.63616 5.68317 0
M  V30 768 C 74.3328 -1.38088 6.90732 0
M  V30 769 H 70.4318 -0.551804 0.554108 0
M  V30 770 H 73.0158 -0.871886 1.74087 0
M  V30 771 H 71.1868 -3.38693 1.9011 0
M  V30 772 H 72.9188 -3.4321 2.1445 0
M  V30 773 H 69.6738 -2.57685 3.9736 0
M  V30 774 H 70.0978 -1.88598 6.502 0
M  V30 775 H 74.7398 -2.19301 3.61479 0
M  V30 776 H 72.4578 -1.29794 7.97608 0
M  V30 777 H 76.0438 -1.53678 5.61137 0
M  V30 778 H 74.9238 -1.09674 7.76493 0
M  V30 779 N 72.4269 -1.23603 -0.977757 0
M  V30 780 C 73.3589 -0.977369 -2.07317 0
M  V30 781 C 74.3719 0.0495845 -1.62724 0
M  V30 782 O 75.5609 -0.186261 -1.77526 0
M  V30 783 C 72.6609 -0.451216 -3.35883 0
M  V30 784 C 71.8339 -1.53896 -4.09432 0
M  V30 785 C 70.8929 -1.01721 -5.16274 0
M  V30 786 O 69.9189 -1.70676 -5.43009 0
M  V30 787 N 71.1209 0.153594 -5.80297 0
M  V30 788 H 73.8859 -1.92047 -2.30082 0
M  V30 789 H 71.4469 -1.14497 -1.14465 0
M  V30 790 H 73.4389 -0.0871574 -4.04606 0
M  V30 791 H 72.0089 0.397368 -3.10064 0
M  V30 792 H 71.2289 -2.07566 -3.35127 0
M  V30 793 H 72.5169 -2.27037 -4.55337 0
M  V30 794 H 71.9149 0.730323 -5.60966 0
M  V30 795 H 70.4719 0.458892 -6.50183 0
M  V30 796 N 73.905 1.17692 -1.04816 0
M  V30 797 C 75.321 1.39863 -0.768794 0
M  V30 798 C 75.521 1.91118 0.638451 0
M  V30 799 O 74.577 2.10036 1.40146 0
M  V30 800 C 75.89 2.39274 -1.82122 0
M  V30 801 C 77.438 2.52987 -1.843 0
M  V30 802 C 77.913 3.55669 -2.88555 0
M  V30 803 N 79.404 3.63183 -2.87493 0
M  V30 804 C 80.139 4.42381 -3.64811 0
M  V30 805 N 79.635 5.25125 -4.51903 0
M  V30 806 N 81.428 4.37217 -3.53267 0
M  V30 807 H 73.579 0.82752 -1.95617 0
M  V30 808 H 75.842 0.426123 -0.846831 0
M  V30 809 H 75.548 2.08678 -2.83102 0
M  V30 810 H 75.422 3.38725 -1.65967 0
M  V30 811 H 77.809 2.82896 -0.839869 0
M  V30 812 H 77.89 1.53623 -2.04532 0
M  V30 813 H 77.534 3.26499 -3.89051 0
M  V30 814 H 77.464 4.54728 -2.65575 0
M  V30 815 H 79.955 3.04103 -2.24343 0
M  V30 816 H 80.268 5.82728 -5.07591 0
M  V30 817 H 78.613 5.24519 -4.55966 0
M  V30 818 H 81.804 3.71626 -2.84625 0
M  V30 819 H 81.977 4.98696 -4.13771 0
M  V30 820 N 75.3831 0.828654 1.34056 0
M  V30 821 C 76.6601 0.341809 1.9259 0
M  V30 822 C 77.0401 -1.17158 1.75605 0
M  V30 823 O 76.3881 -1.98132 1.13824 0
M  V30 824 C 76.5981 0.777453 3.4023 0
M  V30 825 C 77.9461 0.779579 4.17382 0
M  V30 826 O 78.9701 0.7204 3.48839 0
M  V30 827 O 77.8291 0.857996 5.39723 0
M  V30 828 H 74.9231 0.0946085 0.821571 0
M  V30 829 H 77.4691 0.913827 1.42994 0
M  V30 830 H 76.2411 1.8196 3.46419 0
M  V30 831 H 75.8641 0.181444 3.97186 0
M  V30 832 N 76.8612 -1.46375 0.584142 0
M  V30 833 C 78.1082 -2.02378 0.0702675 0
M  V30 834 C 78.4362 -1.45545 -1.29023 0
M  V30 835 O 77.6912 -0.610967 -1.85918 0
M  V30 836 C 77.9902 -3.57373 -0.0439342 0
M  V30 837 C 77.6562 -4.33252 1.24915 0
M  V30 838 C 76.3182 -4.53701 1.60341 0
M  V30 839 C 78.6702 -4.7681 2.1048 0
M  V30 840 C 75.9982 -5.1496 2.81128 0
M  V30 841 C 78.3502 -5.39404 3.30494 0
M  V30 842 C 77.0142 -5.5808 3.66201 0
M  V30 843 H 76.2842 -0.740554 0.0257127 0
M  V30 844 H 78.9312 -1.75727 0.761065 0
M  V30 845 H 77.2362 -3.83169 -0.817869 0
M  V30 846 H 78.9332 -3.98384 -0.457318 0
M  V30 847 H 75.5232 -4.17633 0.963364 0
M  V30 848 H 79.7072 -4.60766 1.84414 0
M  V30 849 H 74.9632 -5.27611 3.08928 0
M  V30 850 H 79.1372 -5.72114 3.97063 0
M  V30 851 H 76.7642 -6.05318 4.59885 0
M  V30 852 N 78.3393 -0.321999 -1.54275 0
M  V30 853 C 79.5853 0.274234 -2.01543 0
M  V30 854 C 79.9403 1.499 -1.20614 0
M  V30 855 O 79.2333 1.89546 -0.279804 0
M  V30 856 C 79.4273 0.661769 -3.5122 0
M  V30 857 C 79.2563 -0.523892 -4.46638 0
M  V30 858 C 78.0263 -1.02251 -4.94846 0
M  V30 859 C 80.2243 -1.37558 -4.95563 0
M  V30 860 N 78.2063 -2.17274 -5.74165 0
M  V30 861 C 79.5773 -2.37301 -5.7279 0
M  V30 862 C 81.6323 -1.40353 -4.77709 0
M  V30 863 C 80.3353 -3.3964 -6.34064 0
M  V30 864 C 82.3613 -2.41562 -5.39817 0
M  V30 865 C 81.7233 -3.40031 -6.16894 0
M  V30 866 H 77.8223 0.0642367 -0.779357 0
M  V30 867 H 80.4063 -0.456683 -1.89268 0
M  V30 868 H 78.5773 1.36182 -3.63743 0
M  V30 869 H 80.3093 1.23934 -3.85256 0
M  V30 870 H 77.0643 -0.594046 -4.6986 0
M  V30 871 H 77.4883 -2.75289 -6.18502 0
M  V30 872 H 82.1303 -0.655907 -4.17681 0
M  V30 873 H 79.8483 -4.15309 -6.93213 0
M  V30 874 H 83.4343 -2.44524 -5.2792 0
M  V30 875 H 82.3143 -4.17063 -6.64099 0
M  V30 876 N 79.8174 1.5752 -0.0501392 0
M  V30 877 C 81.0944 1.83996 0.663685 0
M  V30 878 C 81.4744 0.938339 1.89099 0
M  V30 879 O 80.8224 -0.00087759 2.285 0
M  V30 880 C 81.0324 3.33702 1.02196 0
M  V30 881 C 82.3804 4.00691 1.40469 0
M  V30 882 O 83.4044 3.38321 1.11433 0
M  V30 883 O 82.2634 5.10658 1.94654 0
M  V30 884 H 79.3574 0.759385 0.32751 0
M  V30 885 H 81.9034 1.69514 -0.0794238 0
M  V30 886 H 80.6754 3.91015 0.149364 0
M  V30 887 H 80.2984 3.53368 1.82255 0
M  V30 888 N 81.2955 -0.223234 1.56011 0
M  V30 889 C 82.7065 -0.790368 1.69145 0
M  V30 890 C 83.0575 -1.85055 0.651845 0
M  V30 891 O 82.1825 -2.15498 -0.197359 0
M  V30 892 C 82.7775 -1.4404 3.06656 0
M  V30 893 C 81.3365 -1.95494 3.2165 0
M  V30 894 C 80.4835 -0.814506 2.65068 0
M  V30 895 H 83.4345 0.00139011 1.587 0
M  V30 896 H 83.4555 -2.30916 3.0242 0
M  V30 897 H 82.9675 -0.668543 3.82298 0
M  V30 898 H 81.0685 -2.75487 2.50874 0
M  V30 899 H 81.1815 -2.13607 4.28846 0
M  V30 900 H 79.5455 -1.22137 2.23505 0
M  V30 901 H 80.3285 -0.0553515 3.43255 0
M  V30 902 N 82.7736 -1.49793 -0.48987 0
M  V30 903 C 84.0196 -1.60078 -1.24511 0
M  V30 904 C 84.3526 -0.291608 -1.91998 0
M  V30 905 O 83.6276 0.705647 -1.81248 0
M  V30 906 C 83.9106 -2.76791 -2.30345 0
M  V30 907 C 83.7636 -4.17535 -1.67286 0
M  V30 908 C 85.0826 -2.89111 -3.31817 0
M  V30 909 H 82.2016 -0.582645 -0.451324 0
M  V30 910 H 84.8436 -1.82117 -0.541612 0
M  V30 911 H 82.9936 -2.5813 -2.90346 0
M  V30 912 H 84.6656 -4.4774 -1.11026 0
M  V30 913 H 82.9086 -4.22665 -0.976577 0
M  V30 914 H 83.5796 -4.95094 -2.44103 0
M  V30 915 H 86.0556 -3.06133 -2.81819 0
M  V30 916 H 84.9316 -3.72433 -4.03219 0
M  V30 917 H 85.1926 -1.9893 -3.94815 0
M  V30 918 N 84.2517 0.741722 -1.39055 0
M  V30 919 C 85.4977 1.50336 -1.36113 0
M  V30 920 C 85.8307 1.94148 0.0450796 0
M  V30 921 O 85.1057 1.66301 1.00868 0
M  V30 922 C 85.3887 2.74773 -2.32749 0
M  V30 923 C 85.2417 2.37023 -3.82283 0
M  V30 924 C 86.5607 3.76846 -2.27322 0
M  V30 925 H 83.6797 0.545351 -0.495743 0
M  V30 926 H 86.3217 0.848624 -1.69995 0
M  V30 927 H 84.4717 3.30639 -2.03986 0
M  V30 928 H 86.1437 1.8684 -4.21768 0
M  V30 929 H 84.3867 1.69334 -3.99385 0
M  V30 930 H 85.0577 3.26104 -4.45376 0
M  V30 931 H 87.5337 3.30548 -2.5274 0
M  V30 932 H 86.4097 4.6159 -2.97028 0
M  V30 933 H 86.6707 4.23286 -1.27599 0
M  V30 934 N 85.7298 1.2412 0.971189 0
M  V30 935 C 87.1458 1.00584 1.23916 0
M  V30 936 C 87.3458 -0.287481 1.99439 0
M  V30 937 O 86.4018 -1.00454 2.31658 0
M  V30 938 C 87.7148 2.21864 2.0297 0
M  V30 939 C 89.2628 2.26452 2.16076 0
M  V30 940 C 89.7378 3.47343 2.98524 0
M  V30 941 N 91.2288 3.47639 3.06107 0
M  V30 942 C 91.9638 4.37837 3.70251 0
M  V30 943 N 91.4598 5.38286 4.36142 0
M  V30 944 N 93.2528 4.25558 3.67228 0
M  V30 945 H 85.4038 2.07236 0.465499 0
M  V30 946 H 87.6668 0.909236 0.268315 0
M  V30 947 H 87.3728 3.15771 1.54861 0
M  V30 948 H 87.2468 2.23698 3.03709 0
M  V30 949 H 89.6338 1.33078 2.6339 0
M  V30 950 H 89.7148 2.28645 1.14696 0
M  V30 951 H 89.3588 4.41029 2.51905 0
M  V30 952 H 89.2888 3.42393 4.00093 0
M  V30 953 H 91.7798 2.74966 2.59233 0
M  V30 954 H 92.0928 6.03352 4.82894 0
M  V30 955 H 90.4378 5.42176 4.34822 0
M  V30 956 H 93.6288 3.46322 3.14927 0
M  V30 957 H 93.8018 4.96054 4.16935 0
M  V30 958 N 87.2079 -1.17134 1.05439 0
M  V30 959 C 88.4849 -1.83411 0.679699 0
M  V30 960 C 88.8649 -1.9368 -0.839726 0
M  V30 961 O 88.2129 -1.47325 -1.74664 0
M  V30 962 C 88.4229 -3.20918 1.37159 0
M  V30 963 C 89.7709 -3.96796 1.51123 0
M  V30 964 O 90.7949 -3.30406 1.3308 0
M  V30 965 O 89.6539 -5.15778 1.80651 0
M  V30 966 H 86.7479 -0.79154 0.239569 0
M  V30 967 H 89.2939 -1.24411 1.15413 0
M  V30 968 H 88.0659 -3.08428 2.40807 0
M  V30 969 H 87.6889 -3.87587 0.886674 0
M  V30 970 N 88.686 -0.835752 -1.33615 0
M  V30 971 C 89.933 -0.429959 -1.97883 0
M  V30 972 C 90.261 1.01006 -1.66217 0
M  V30 973 O 89.516 1.72047 -0.93265 0
M  V30 974 C 89.815 -0.593925 -3.52431 0
M  V30 975 C 89.481 -2.00158 -4.04039 0
M  V30 976 C 88.143 -2.38662 -4.17844 0
M  V30 977 C 90.495 -2.92117 -4.31644 0
M  V30 978 C 87.823 -3.68435 -4.56588 0
M  V30 979 C 90.175 -4.21368 -4.71838 0
M  V30 980 C 88.839 -4.59833 -4.83849 0
M  V30 981 H 88.109 -0.157333 -0.724104 0
M  V30 982 H 90.756 -1.06217 -1.59343 0
M  V30 983 H 89.061 0.121619 -3.91611 0
M  V30 984 H 90.758 -0.260282 -4.00154 0
M  V30 985 H 87.348 -1.69252 -3.93766 0
M  V30 986 H 91.532 -2.63608 -4.20505 0
M  V30 987 H 86.788 -3.98046 -4.64079 0
M  V30 988 H 90.962 -4.92703 -4.92155 0
M  V30 989 H 88.589 -5.60438 -5.13627 0
M  V30 990 N 90.1641 1.46063 -0.591896 0
M  V30 991 C 91.4131 2.01547 -0.0786637 0
M  V30 992 C 91.7261 1.46796 1.29268 0
M  V30 993 O 92.9321 1.94157 1.89777 0
M  V30 994 C 91.3881 3.59787 -0.0900024 0
M  V30 995 C 90.9961 4.23534 -1.46023 0
M  V30 996 C 92.7401 4.22895 0.368806 0
M  V30 997 C 90.6471 5.73881 -1.4288 0
M  V30 998 H 89.5771 0.753564 -0.0256388 0
M  V30 999 H 92.2281 1.677 -0.744905 0
M  V30 1000 H 90.6101 3.90752 0.642586 0
M  V30 1001 H 91.7841 4.04167 -2.21328 0
M  V30 1002 H 90.0991 3.72558 -1.85982 0
M  V30 1003 H 92.6961 5.33116 0.411258 0
M  V30 1004 H 93.0391 3.9247 1.38827 0
M  V30 1005 H 93.5721 3.9659 -0.31001 0
M  V30 1006 H 90.3111 6.0898 -2.42536 0
M  V30 1007 H 89.8311 5.95486 -0.718095 0
M  V30 1008 H 91.5101 6.36776 -1.14565 0
M  V30 1009 N 91.6422 0.330177 1.54103 0
M  V30 1010 C 92.8672 -0.274893 2.0557 0
M  V30 1011 C 93.2922 -1.44487 1.20437 0
M  V30 1012 O 92.6502 -1.80021 0.214991 0
M  V30 1013 C 92.6982 -0.68079 3.54115 0
M  V30 1014 O 91.8022 -1.7824 3.71893 0
M  V30 1015 H 91.1432 -0.0483849 0.662235 0
M  V30 1016 H 93.6732 0.480508 1.98878 0
M  V30 1017 H 93.6832 -0.961635 3.96505 0
M  V30 1018 H 92.3582 0.174903 4.15532 0
M  V30 1019 H 90.9352 -1.49985 3.41407 0
M  V30 1020 N 93.1203 -1.57491 0.0584922 0
M  V30 1021 C 94.0303 -2.15448 -0.928414 0
M  V30 1022 C 95.0463 -1.11416 -1.3365 0
M  V30 1023 O 96.2223 -1.4362 -1.41193 0
M  V30 1024 C 93.2873 -2.69393 -2.18239 0
M  V30 1025 C 92.3483 -3.88249 -1.83196 0
M  V30 1026 C 91.5813 -4.39613 -3.02616 0
M  V30 1027 O 91.8043 -3.90023 -4.16219 0
M  V30 1028 O 90.7383 -5.31111 -2.83204 0
M  V30 1029 H 94.5643 -3.00112 -0.465483 0
M  V30 1030 H 92.1493 -1.48499 -0.163826 0
M  V30 1031 H 94.0313 -3.04026 -2.91798 0
M  V30 1032 H 92.7063 -1.87796 -2.63656 0
M  V30 1033 H 91.6133 -3.58492 -1.06931 0
M  V30 1034 H 92.9463 -4.71098 -1.42573 0
M  V30 1035 N 94.5984 0.214957 -1.56127 0
M  V30 1036 C 95.5084 1.28727 -1.96129 0
M  V30 1037 C 96.5244 1.50916 -0.866044 0
M  V30 1038 O 97.7004 1.63918 -1.17016 0
M  V30 1039 C 94.7654 2.61569 -2.27558 0
M  V30 1040 C 93.8264 2.47625 -3.50685 0
M  V30 1041 C 93.0594 3.74132 -3.80606 0
M  V30 1042 O 93.2824 4.77438 -3.12104 0
M  V30 1043 O 92.2164 3.70849 -4.74083 0
M  V30 1044 H 96.0424 0.977855 -2.87527 0
M  V30 1045 H 93.6274 0.418358 -1.43423 0
M  V30 1046 H 95.5094 3.40012 -2.48938 0
M  V30 1047 H 94.1844 2.92178 -1.39332 0
M  V30 1048 H 93.0914 1.67361 -3.34576 0
M  V30 1049 H 94.4244 2.21954 -4.39315 0
M  V30 1050 N 96.0765 1.50051 0.48192 0
M  V30 1051 C 96.9865 1.7089 1.60728 0
M  V30 1052 C 98.0025 0.591788 1.63627 0
M  V30 1053 O 99.1785 0.868817 1.81696 0
M  V30 1054 C 96.2435 1.78855 2.97005 0
M  V30 1055 C 95.3045 3.02537 3.04581 0
M  V30 1056 C 94.5375 3.10112 4.34357 0
M  V30 1057 O 94.7605 2.24765 5.24249 0
M  V30 1058 O 93.6945 4.02747 4.47301 0
M  V30 1059 H 97.5205 2.66264 1.46072 0
M  V30 1060 H 95.1055 1.34018 0.660264 0
M  V30 1061 H 96.9875 1.86336 3.77964 0
M  V30 1062 H 95.6625 0.866628 3.11883 0
M  V30 1063 H 94.5695 3.00563 2.22739 0
M  V30 1064 H 95.9025 3.94272 2.94636 0
M  V30 1065 N 97.5546 -0.734337 1.39446 0
M  V30 1066 C 98.8016 -1.49391 1.36706 0
M  V30 1067 C 99.1296 -1.94465 -0.0367813 0
M  V30 1068 O 98.3846 -1.67154 -1.01774 0
M  V30 1069 C 98.6836 -2.74711 2.28623 0
M  V30 1070 C 98.3496 -2.48501 3.76242 0
M  V30 1071 C 97.0116 -2.41062 4.16464 0
M  V30 1072 C 99.3636 -2.26098 4.69606 0
M  V30 1073 C 96.6916 -2.09262 5.48112 0
M  V30 1074 C 99.0436 -1.95814 6.01531 0
M  V30 1075 C 97.7076 -1.86845 6.40816 0
M  V30 1076 H 96.9776 -0.546661 0.500243 0
M  V30 1077 H 99.6246 -0.842788 1.71957 0
M  V30 1078 H 97.9296 -3.44569 1.86492 0
M  V30 1079 H 99.6266 -3.32741 2.23796 0
M  V30 1080 H 96.2166 -2.55169 3.44364 0
M  V30 1081 H 100.401 -2.30812 4.39363 0
M  V30 1082 H 95.6566 -2.00841 5.77471 0
M  V30 1083 H 99.8306 -1.77488 6.73403 0
M  V30 1084 H 97.4576 -1.6197 7.42745 0
M  V30 1085 N 99.0327 -1.24633 -0.964593 0
M  V30 1086 C 99.9957 -1.0424 -2.04124 0
M  V30 1087 C 100.996 0.00137563 -1.608 0
M  V30 1088 O 102.186 -0.239883 -1.7254 0
M  V30 1089 C 99.3177 -0.580588 -3.3592 0
M  V30 1090 H 100.511 -1.99803 -2.23649 0
M  V30 1091 H 98.0637 -1.06899 -1.14027 0
M  V30 1092 H 98.7987 0.3781 -3.22088 0
M  V30 1093 H 98.5837 -1.33398 -3.6871 0
M  V30 1094 H 100.074 -0.459034 -4.15069 0
M  V30 1095 N 100.511 1.16574 -1.06058 0
M  V30 1096 C 101.458 2.20883 -0.669263 0
M  V30 1097 C 102.428 1.62729 0.332918 0
M  V30 1098 O 103.613 1.895 0.222346 0
M  V30 1099 C 100.753 3.45049 -0.0593572 0
M  V30 1100 C 99.8658 4.17458 -1.11143 0
M  V30 1101 C 99.0008 5.29135 -0.467916 0
M  V30 1102 C 98.0398 5.93343 -1.50369 0
M  V30 1103 N 97.1768 6.96516 -0.883706 0
M  V30 1104 H 102.017 2.53709 -1.5632 0
M  V30 1105 H 99.5538 1.24616 -0.781625 0
M  V30 1106 H 101.512 4.16033 0.311771 0
M  V30 1107 H 100.142 3.12781 0.797992 0
M  V30 1108 H 99.1938 3.45101 -1.60029 0
M  V30 1109 H 100.506 4.61307 -1.89731 0
M  V30 1110 H 99.6598 6.06684 -0.0436871 0
M  V30 1111 H 98.3988 4.86443 0.349864 0
M  V30 1112 H 97.4038 5.14517 -1.93784 0
M  V30 1113 H 98.6288 6.38114 -2.32352 0
M  V30 1114 H 96.5748 6.55943 -0.086595 0
M  V30 1115 H 96.4918 7.38723 -1.607 0
M  V30 1116 H 97.7598 7.77993 -0.484543 0
M  V30 1117 N 101.989 0.842826 1.3317 0
M  V30 1118 C 102.919 0.294028 2.31641 0
M  V30 1119 C 103.9 -0.600401 1.59151 0
M  V30 1120 O 105.085 -0.523124 1.87022 0
M  V30 1121 C 102.215 -0.528416 3.43257 0
M  V30 1122 C 101.169 0.27056 4.27144 0
M  V30 1123 C 100.495 -0.675881 5.30411 0
M  V30 1124 C 101.795 1.48981 5.00602 0
M  V30 1125 H 103.489 1.11681 2.77791 0
M  V30 1126 H 101.035 0.538478 1.33553 0
M  V30 1127 H 102.988 -0.922674 4.11175 0
M  V30 1128 H 101.712 -1.38445 2.95805 0
M  V30 1129 H 100.371 0.646427 3.60856 0
M  V30 1130 H 100.019 -1.52842 4.79216 0
M  V30 1131 H 99.7189 -0.145374 5.8742 0
M  V30 1132 H 101.243 -1.06757 6.01195 0
M  V30 1133 H 102.657 1.16849 5.61266 0
M  V30 1134 H 101.054 1.95739 5.6728 0
M  V30 1135 H 102.124 2.25746 4.29147 0
M  V30 1136 N 103.467 -1.45747 0.599634 0
M  V30 1137 C 104.4 -2.27547 -0.172552 0
M  V30 1138 C 105.378 -1.36657 -0.881116 0
M  V30 1139 O 106.562 -1.66081 -0.891595 0
M  V30 1140 C 103.689 -3.14829 -1.24903 0
M  V30 1141 C 102.735 -4.21603 -0.644465 0
M  V30 1142 S 103.568 -5.32754 0.541606 0
M  V30 1143 C 104.724 -6.23604 -0.535656 0
M  V30 1144 H 104.957 -2.92691 0.521468 0
M  V30 1145 H 102.49 -1.49473 0.386947 0
M  V30 1146 H 104.448 -3.65675 -1.86527 0
M  V30 1147 H 103.109 -2.48965 -1.91508 0
M  V30 1148 H 102.302 -4.82566 -1.45417 0
M  V30 1149 H 101.904 -3.73857 -0.103534 0
M  V30 1150 H 104.196 -6.62519 -1.41686 0
M  V30 1151 H 105.139 -7.0809 0.0376246 0
M  V30 1152 H 105.547 -5.58103 -0.84741 0
M  V30 1153 N 104.945 -0.338344 -1.53925 0
M  V30 1154 C 105.855 0.529421 -2.28548 0
M  V30 1155 C 106.871 1.11645 -1.3346 0
M  V30 1156 O 108.047 1.13325 -1.66492 0
M  V30 1157 C 105.112 1.66713 -3.03987 0
M  V30 1158 C 104.173 1.11041 -4.14691 0
M  V30 1159 C 103.406 2.19389 -4.86522 0
M  V30 1160 O 103.629 3.40013 -4.57982 0
M  V30 1161 O 102.563 1.83976 -5.73094 0
M  V30 1162 H 106.389 -0.0770399 -3.03602 0
M  V30 1163 H 103.974 -0.103555 -1.49041 0
M  V30 1164 H 105.856 2.32918 -3.5118 0
M  V30 1165 H 104.531 2.25949 -2.31794 0
M  V30 1166 H 103.438 0.413024 -3.71813 0
M  V30 1167 H 104.771 0.562975 -4.8897 0
M  V30 1168 N 106.423 1.57458 -0.0668435 0
M  V30 1169 C 107.839 1.56947 0.289772 0
M  V30 1170 C 108.039 1.07584 1.70376 0
M  V30 1171 O 107.095 0.739486 2.41429 0
M  V30 1172 C 108.408 3.0052 0.103943 0
M  V30 1173 C 109.956 3.12517 0.173857 0
M  V30 1174 C 110.431 4.57997 0.0163682 0
M  V30 1175 N 111.922 4.63144 0.0721352 0
M  V30 1176 C 112.657 5.73394 -0.0253794 0
M  V30 1177 N 112.153 6.92576 -0.176133 0
M  V30 1178 N 113.946 5.62091 0.0313305 0
M  V30 1179 H 106.097 1.87863 -0.991027 0
M  V30 1180 H 108.36 0.86583 -0.38606 0
M  V30 1181 H 108.066 3.40729 -0.871572 0
M  V30 1182 H 107.94 3.67304 0.858366 0
M  V30 1183 H 110.327 2.72197 1.13985 0
M  V30 1184 H 110.408 2.48381 -0.611586 0
M  V30 1185 H 110.052 4.99005 -0.946374 0
M  V30 1186 H 109.982 5.20158 0.821153 0
M  V30 1187 H 112.473 3.77436 0.187263 0
M  V30 1188 H 112.786 7.72418 -0.242821 0
M  V30 1189 H 111.131 6.94678 -0.211429 0
M  V30 1190 H 114.322 4.67867 0.147773 0
M  V30 1191 H 114.495 6.47982 -0.048121 0
M  V30 1192 N 107.901 -0.206675 1.56239 0
M  V30 1193 C 108.831 -1.25909 1.96645 0
M  V30 1194 C 109.812 -1.48097 0.836734 0
M  V30 1195 O 110.997 -1.6003 1.10019 0
M  V30 1196 C 108.127 -2.6058 2.29599 0
M  V30 1197 C 107.081 -2.53024 3.452 0
M  V30 1198 C 106.407 -3.91861 3.63798 0
M  V30 1199 C 107.707 -2.06524 4.79734 0
M  V30 1200 H 109.401 -0.923369 2.84806 0
M  V30 1201 H 106.947 -0.442735 1.37025 0
M  V30 1202 H 108.9 -3.34375 2.56459 0
M  V30 1203 H 107.624 -2.95869 1.38307 0
M  V30 1204 H 106.283 -1.81684 3.18412 0
M  V30 1205 H 105.931 -4.24483 2.69857 0
M  V30 1206 H 105.631 -3.87683 4.4156 0
M  V30 1207 H 107.155 -4.67296 3.93022 0
M  V30 1208 H 108.569 -2.70072 5.05702 0
M  V30 1209 H 106.966 -2.13374 5.60885 0
M  V30 1210 H 108.036 -1.01802 4.74093 0
M  V30 1211 N 109.379 -1.50304 -0.473955 0
M  V30 1212 C 110.627 -1.60832 -1.22382 0
M  V30 1213 C 110.948 -0.30939 -1.9253 0
M  V30 1214 O 110.218 0.67296 -1.83978 0
M  V30 1215 H 108.798 -0.592652 -0.454723 0
M  V30 1216 H 111.46 -1.87068 -0.546968 0
M  V30 1217 H 110.556 -2.41803 -1.97327 0
M  V30 1218 N 110.857 0.726932 -1.39834 0
M  V30 1219 C 112.106 1.48214 -1.36805 0
M  V30 1220 C 112.419 1.95576 0.0305291 0
M  V30 1221 O 113.625 2.7088 0.183417 0
M  V30 1222 C 112.081 2.67854 -2.40379 0
M  V30 1223 C 111.689 2.27408 -3.85992 0
M  V30 1224 C 113.433 3.45641 -2.46439 0
M  V30 1225 C 111.34 3.43819 -4.81189 0
M  V30 1226 H 110.27 0.556606 -0.508631 0
M  V30 1227 H 112.921 0.792216 -1.65518 0
M  V30 1228 H 111.303 3.3896 -2.04749 0
M  V30 1229 H 112.477 1.63795 -4.30706 0
M  V30 1230 H 110.792 1.62692 -3.83302 0
M  V30 1231 H 113.389 4.32244 -3.14753 0
M  V30 1232 H 113.732 3.88669 -1.49139 0
M  V30 1233 H 114.265 2.8157 -2.81004 0
M  V30 1234 H 111.004 3.05834 -5.79781 0
M  V30 1235 H 110.524 4.06385 -4.41148 0
M  V30 1236 H 112.203 4.10043 -5.00474 0
M  V30 1237 N 112.336 1.25143 0.95797 0
M  V30 1238 C 113.561 1.12521 1.74223 0
M  V30 1239 C 113.986 -0.317402 1.85403 0
M  V30 1240 O 113.344 -1.2299 1.33204 0
M  V30 1241 C 113.392 1.78062 3.1357 0
M  V30 1242 O 112.496 1.058 3.98598 0
M  V30 1243 H 111.837 0.39304 0.535178 0
M  V30 1244 H 114.367 1.65641 1.201 0
M  V30 1245 H 114.377 1.84213 3.64046 0
M  V30 1246 H 113.052 2.83021 3.04749 0
M  V30 1247 H 111.629 1.07506 3.57067 0
M  V30 1248 N 113.814 -1.1601 1.06675 0
M  V30 1249 C 114.762 -2.22586 0.675157 0
M  V30 1250 C 115.756 -1.66525 -0.310766 0
M  V30 1251 O 116.962 -1.79145 -0.175215 0
M  V30 1252 H 113.337 -0.724855 0.200223 0
M  V30 1253 H 115.308 -2.52899 1.58381 0
M  V30 1254 C 114.057 -3.47604 0.0817162 0
M  V30 1255 H 113.38 -3.91058 0.831484 0
M  V30 1256 H 114.82 -4.23718 -0.154708 0
M  V30 1257 C 113.279 -3.15718 -1.17576 0
M  V30 1258 O 113.809 -3.31878 -2.26318 0
M  V30 1259 N 112.015 -2.69816 -1.07923 0
M  V30 1260 H 111.562 -2.56866 -0.194293 0
M  V30 1261 H 111.52 -2.48855 -1.92141 0
M  V30 1262 N 115.292 -0.849877 -1.32721 0
M  V30 1263 C 116.569 -0.372405 -1.92022 0
M  V30 1264 C 116.949 1.1435 -1.77447 0
M  V30 1265 O 116.297 1.96296 -1.16962 0
M  V30 1266 C 116.507 -0.831482 -3.3895 0
M  V30 1267 C 117.855 -0.845882 -4.16089 0
M  V30 1268 O 118.879 -0.775806 -3.47649 0
M  V30 1269 O 117.738 -0.943753 -5.38289 0
M  V30 1270 H 114.832 -0.107667 -0.819961 0
M  V30 1271 H 117.378 -0.93646 -1.41522 0
M  V30 1272 H 116.15 -1.87448 -3.4348 0
M  V30 1273 H 115.773 -0.24461 -3.96847 0
M  V30 1274 N 116.77 1.45427 -0.607355 0
M  V30 1275 C 117.998 2.06614 -0.108814 0
M  V30 1276 C 118.413 1.45204 1.2067 0
M  V30 1277 O 117.77 0.566132 1.73497 0
M  V30 1278 C 117.821 3.61481 0.0375347 0
M  V30 1279 O 117.542 4.20598 -1.22593 0
M  V30 1280 C 119.043 4.39652 0.567561 0
M  V30 1281 H 116.263 0.66747 -0.0687351 0
M  V30 1282 H 118.807 1.86675 -0.835022 0
M  V30 1283 H 116.962 3.80762 0.714068 0
M  V30 1284 H 117.376 5.1377 -1.05547 0
M  V30 1285 H 118.85 5.48518 0.61905 0
M  V30 1286 H 119.327 4.09417 1.58978 0
M  V30 1287 H 119.933 4.25234 -0.0749202 0
M  V30 1288 N 118.248 0.346503 1.53744 0
M  V30 1289 C 119.476 -0.25041 2.05379 0
M  V30 1290 C 119.891 -1.43979 1.22129 0
M  V30 1291 O 119.248 -1.80677 0.257321 0
M  V30 1292 C 119.299 -0.662575 3.55376 0
M  V30 1293 O 119.02 0.479515 4.35468 0
M  V30 1294 C 120.521 -1.31989 4.23195 0
M  V30 1295 H 117.741 -0.0478198 0.669294 0
M  V30 1296 H 120.285 0.499346 1.9831 0
M  V30 1297 H 118.44 -1.36227 3.62658 0
M  V30 1298 H 118.854 0.15037 5.24284 0
M  V30 1299 H 120.328 -1.55902 5.29527 0
M  V30 1300 H 120.805 -2.27436 3.75725 0
M  V30 1301 H 121.411 -0.662154 4.20114 0
M  V30 1302 N 119.726 -1.57421 0.075193 0
M  V30 1303 C 120.972 -1.93905 -0.594025 0
M  V30 1304 C 121.305 -0.955701 -1.69056 0
M  V30 1305 O 120.58 0.0145373 -1.94495 0
M  V30 1306 C 120.863 -3.40638 -1.1678 0
M  V30 1307 C 120.716 -4.49733 -0.0776792 0
M  V30 1308 C 122.035 -3.88259 -2.07228 0
M  V30 1309 H 119.154 -0.705105 -0.214466 0
M  V30 1310 H 121.796 -1.8947 0.141854 0
M  V30 1311 H 119.946 -3.44549 -1.79494 0
M  V30 1312 H 121.618 -4.57942 0.555573 0
M  V30 1313 H 119.861 -4.29751 0.591286 0
M  V30 1314 H 120.532 -5.49549 -0.519603 0
M  V30 1315 H 123.008 -3.86376 -1.54445 0
M  V30 1316 H 121.884 -4.91533 -2.44308 0
M  V30 1317 H 122.145 -3.26396 -2.98191 0
M  V30 1318 N 121.204 0.198386 -1.56346 0
M  V30 1319 C 122.45 0.920648 -1.80698 0
M  V30 1320 C 122.783 1.83045 -0.648697 0
M  V30 1321 O 122.058 1.91308 0.350925 0
M  V30 1322 C 122.341 1.73971 -3.15287 0
M  V30 1323 C 122.194 0.85485 -4.41602 0
M  V30 1324 C 123.513 2.71296 -3.46535 0
M  V30 1325 H 120.632 0.333261 -0.657348 0
M  V30 1326 H 123.274 0.188198 -1.89066 0
M  V30 1327 H 121.424 2.36416 -3.08285 0
M  V30 1328 H 123.096 0.245362 -4.60647 0
M  V30 1329 H 121.339 0.161398 -4.335 0
M  V30 1330 H 122.01 1.46286 -5.32264 0
M  V30 1331 H 124.486 2.18983 -3.53816 0
M  V30 1332 H 123.362 3.2569 -4.41834 0
M  V30 1333 H 123.623 3.5018 -2.69864 0
M  V30 1334 N 122.682 1.50554 0.465978 0
M  V30 1335 C 123.612 1.72722 1.57128 0
M  V30 1336 C 124.593 0.576294 1.6004 0
M  V30 1337 O 125.778 0.81598 1.76225 0
M  V30 1338 C 122.908 1.82605 2.95419 0
M  V30 1339 C 121.862 2.97835 3.07373 0
M  V30 1340 C 121.188 2.92867 4.47363 0
M  V30 1341 C 122.488 4.38265 2.84114 0
M  V30 1342 H 124.182 2.65267 1.38829 0
M  V30 1343 H 121.728 1.2765 0.666441 0
M  V30 1344 H 123.681 1.96698 3.72677 0
M  V30 1345 H 122.405 0.866858 3.14886 0
M  V30 1346 H 121.064 2.83401 2.3255 0
M  V30 1347 H 120.712 1.94783 4.63755 0
M  V30 1348 H 120.412 3.70227 4.56296 0
M  V30 1349 H 121.936 3.09015 5.26633 0
M  V30 1350 H 123.35 4.53198 3.51118 0
M  V30 1351 H 121.747 5.17115 3.04487 0
M  V30 1352 H 122.817 4.50281 1.7993 0
M  V30 1353 N 124.16 -0.719506 1.40217 0
M  V30 1354 C 125.39 -1.50646 1.41384 0
M  V30 1355 C 125.798 -1.89197 0.0107743 0
M  V30 1356 O 125.141 -1.55709 -0.974708 0
M  V30 1357 C 125.203 -2.81405 2.23722 0
M  V30 1358 C 124.867 -2.65199 3.72181 0
M  V30 1359 C 125.864 -2.32717 4.64907 0
M  V30 1360 C 123.549 -2.81586 4.1595 0
M  V30 1361 C 125.543 -2.16827 5.99387 0
M  V30 1362 C 123.23 -2.65313 5.50502 0
M  V30 1363 C 124.228 -2.32981 6.42035 0
M  V30 1364 O 123.916 -2.16827 7.74107 0
M  V30 1365 H 123.648 -0.471606 0.484318 0
M  V30 1366 H 126.202 -0.895456 1.84853 0
M  V30 1367 H 124.432 -3.44823 1.75026 0
M  V30 1368 H 126.121 -3.43102 2.16878 0
M  V30 1369 H 126.887 -2.19694 4.32388 0
M  V30 1370 H 122.766 -3.0574 3.45027 0
M  V30 1371 H 126.31 -1.91513 6.70797 0
M  V30 1372 H 122.207 -2.7792 5.82607 0
M  V30 1373 H 122.975 -2.31778 7.84998 0
M  V30 1374 N 125.638 -1.25649 -0.95132 0
M  V30 1375 C 126.886 -1.10375 -1.69298 0
M  V30 1376 C 127.207 0.355339 -1.91735 0
M  V30 1377 O 126.477 1.25188 -1.50681 0
M  V30 1378 H 125.057 -0.405461 -0.627384 0
M  V30 1379 H 127.719 -1.57823 -1.14358 0
M  V30 1380 H 126.815 -1.61465 -2.67087 0
M  V30 1381 N 127.117 1.15442 -1.07289 0
M  V30 1382 C 128.394 1.82306 -0.708792 0
M  V30 1383 C 128.774 1.94991 0.808807 0
M  V30 1384 O 128.122 1.50085 1.72298 0
M  V30 1385 C 128.332 3.18695 -1.42247 0
M  V30 1386 C 129.68 3.94341 -1.57417 0
M  V30 1387 O 130.704 3.28247 -1.38319 0
M  V30 1388 O 129.563 5.12839 -1.88834 0
M  V30 1389 H 126.657 0.787628 -0.252132 0
M  V30 1390 H 129.203 1.22559 -1.17377 0
M  V30 1391 H 127.975 3.04557 -2.45684 0
M  V30 1392 H 127.598 3.86128 -0.948223 0
M  V30 1393 N 128.595 0.856903 1.32268 0
M  V30 1394 C 129.542 0.301172 2.28827 0
M  V30 1395 C 130.512 -0.593104 1.5515 0
M  V30 1396 O 131.697 -0.527537 1.83362 0
M  V30 1397 C 128.837 -0.502523 3.41422 0
M  V30 1398 C 127.95 0.417797 4.29975 0
M  V30 1399 C 127.085 -0.398749 5.29701 0
M  V30 1400 C 126.124 0.518827 6.09897 0
M  V30 1401 N 125.261 -0.260674 7.01616 0
M  V30 1402 H 130.101 1.12983 2.75751 0
M  V30 1403 H 127.638 0.568582 1.35667 0
M  V30 1404 H 129.596 -0.984141 4.05426 0
M  V30 1405 H 128.226 -1.29599 2.95642 0
M  V30 1406 H 127.278 1.01781 3.66531 0
M  V30 1407 H 128.59 1.12191 4.86019 0
M  V30 1408 H 127.744 -0.943435 5.9932 0
M  V30 1409 H 126.483 -1.13622 4.7428 0
M  V30 1410 H 125.488 1.07538 5.39181 0
M  V30 1411 H 126.713 1.25495 6.67404 0
M  V30 1412 H 124.659 -0.981198 6.4862 0
M  V30 1413 H 124.576 0.384364 7.55022 0
M  V30 1414 H 125.844 -0.787014 7.75517 0
M  V30 1415 N 130.073 -1.45103 0.615059 0
M  V30 1416 C 131.021 -2.32331 -0.111791 0
M  V30 1417 C 132.015 -1.46409 -0.852102 0
M  V30 1418 O 133.221 -1.62849 -0.766821 0
M  V30 1419 H 129.596 -0.749993 -0.0549072 0
M  V30 1420 H 131.567 -2.91407 0.642225 0
M  V30 1421 C 130.316 -3.3015 -1.09071 0
M  V30 1422 H 129.639 -3.96265 -0.530485 0
M  V30 1423 H 131.079 -3.93898 -1.56908 0
M  V30 1424 C 129.538 -2.57875 -2.168 0
M  V30 1425 O 130.068 -2.36567 -3.24652 0
M  V30 1426 N 128.274 -2.17884 -1.92289 0
M  V30 1427 H 127.821 -2.35413 -1.04587 0
M  V30 1428 H 127.779 -1.6985 -2.64572 0
M  V30 1429 N 131.551 -0.354651 -1.53558 0
M  V30 1430 C 132.499 0.512195 -2.26891 0
M  V30 1431 C 133.493 1.09263 -1.29452 0
M  V30 1432 O 134.699 1.03709 -1.47121 0
M  V30 1433 H 131.074 0.183878 -0.729173 0
M  V30 1434 H 133.045 -0.128202 -2.98124 0
M  V30 1435 C 131.794 1.64563 -3.06291 0
M  V30 1436 H 131.117 1.20829 -3.81104 0
M  V30 1437 H 132.557 2.22711 -3.60799 0
M  V30 1438 C 131.016 2.58158 -2.16462 0
M  V30 1439 O 131.546 3.60695 -1.76811 0
M  V30 1440 N 129.752 2.27096 -1.81317 0
M  V30 1441 H 129.299 1.43751 -2.1376 0
M  V30 1442 H 129.257 2.89975 -1.21498 0
M  V30 1443 N 133.029 1.57378 -0.0835403 0
M  V30 1444 C 134.275 1.95025 0.577664 0
M  V30 1445 C 134.63 0.964049 1.66505 0
M  V30 1446 O 133.923 -0.0118235 1.91596 0
M  V30 1447 C 134.117 3.37063 1.1884 0
M  V30 1448 C 133.946 4.49409 0.16171 0
M  V30 1449 C 132.716 5.04642 -0.257756 0
M  V30 1450 C 134.914 5.10722 -0.605634 0
M  V30 1451 N 132.896 6.00537 -1.27393 0
M  V30 1452 C 134.267 6.02225 -1.47395 0
M  V30 1453 C 136.322 4.93501 -0.660418 0
M  V30 1454 C 135.025 6.78355 -2.39221 0
M  V30 1455 C 137.051 5.70283 -1.56623 0
M  V30 1456 C 136.413 6.61444 -2.4222 0
M  V30 1457 H 132.512 0.760512 0.182058 0
M  V30 1458 H 135.096 1.94013 -0.163419 0
M  V30 1459 H 133.267 3.3879 1.89936 0
M  V30 1460 H 134.999 3.61917 1.81103 0
M  V30 1461 H 131.754 4.73428 0.127702 0
M  V30 1462 H 132.178 6.53184 -1.77987 0
M  V30 1463 H 136.82 4.22798 -0.0128221 0
M  V30 1464 H 134.538 7.48327 -3.05011 0
M  V30 1465 H 138.124 5.58976 -1.61361 0
M  V30 1466 H 137.004 7.1982 -3.11174 0
M  V30 1467 N 134.507 -0.190092 1.56449 0
M  V30 1468 C 135.753 -0.906472 1.82084 0
M  V30 1469 C 136.108 -1.80677 0.661335 0
M  V30 1470 O 135.401 -1.88501 -0.343237 0
M  V30 1471 C 135.595 -1.75382 3.1141 0
M  V30 1472 C 135.424 -0.937053 4.39829 0
M  V30 1473 C 134.194 -0.619507 5.01488 0
M  V30 1474 C 136.392 -0.2874 5.13496 0
M  V30 1475 N 134.374 0.215367 6.13522 0
M  V30 1476 C 135.745 0.409454 6.18646 0
M  V30 1477 C 137.8 -0.203639 4.97483 0
M  V30 1478 C 136.503 1.1821 7.0952 0
M  V30 1479 C 138.529 0.555622 5.88784 0
M  V30 1480 C 137.891 1.24091 6.93384 0
M  V30 1481 H 133.99 -0.310931 0.717528 0
M  V30 1482 H 136.574 -0.174821 1.93914 0
M  V30 1483 H 134.745 -2.45703 3.00806 0
M  V30 1484 H 136.477 -2.41006 3.25112 0
M  V30 1485 H 133.232 -0.945126 4.64074 0
M  V30 1486 H 133.656 0.622562 6.74131 0
M  V30 1487 H 138.298 -0.719099 4.1664 0
M  V30 1488 H 136.016 1.70897 7.89823 0
M  V30 1489 H 139.602 0.621854 5.78467 0
M  V30 1490 H 138.482 1.81901 7.62812 0
M  V30 1491 N 135.985 -1.50799 -0.457987 0
M  V30 1492 C 136.948 -1.7005 -1.53674 0
M  V30 1493 C 137.948 -0.570881 -1.50325 0
M  V30 1494 O 139.138 -0.838126 -1.52712 0
M  V30 1495 C 136.27 -1.73788 -2.93276 0
M  V30 1496 H 137.463 -2.66306 -1.37917 0
M  V30 1497 H 135.016 -1.40477 -0.685271 0
M  V30 1498 H 135.751 -0.792717 -3.14462 0
M  V30 1499 H 135.536 -2.55864 -2.97113 0
M  V30 1500 H 137.026 -1.90591 -3.71571 0
M  V30 1501 N 137.463 0.71206 -1.40597 0
M  V30 1502 C 138.426 1.80785 -1.40888 0
M  V30 1503 C 139.426 1.57937 -0.302103 0
M  V30 1504 O 140.616 1.64913 -0.561182 0
M  V30 1505 C 137.748 3.18927 -1.20409 0
M  V30 1506 H 138.941 1.81924 -2.38419 0
M  V30 1507 H 136.494 0.91805 -1.26497 0
M  V30 1508 H 137.229 3.23436 -0.236522 0
M  V30 1509 H 137.014 3.36911 -2.00582 0
M  V30 1510 H 138.504 3.98949 -1.23408 0
M  V30 1511 N 138.941 1.26152 0.944643 0
M  V30 1512 C 140.171 1.14094 1.72239 0
M  V30 1513 C 140.579 -0.306931 1.86694 0
M  V30 1514 O 139.922 -1.22222 1.3714 0
M  V30 1515 C 139.984 1.73316 3.14963 0
M  V30 1516 C 139.648 3.2239 3.23904 0
M  V30 1517 C 140.645 4.19252 3.07447 0
M  V30 1518 C 138.33 3.62788 3.47405 0
M  V30 1519 C 140.324 5.54491 3.14353 0
M  V30 1520 C 138.011 4.98162 3.53947 0
M  V30 1521 C 139.009 5.93823 3.37436 0
M  V30 1522 O 138.697 7.26732 3.43679 0
M  V30 1523 H 138.429 0.398292 0.546205 0
M  V30 1524 H 140.983 1.67201 1.19301 0
M  V30 1525 H 139.213 1.14667 3.69308 0
M  V30 1526 H 140.902 1.56214 3.74636 0
M  V30 1527 H 141.668 3.8938 2.8915 0
M  V30 1528 H 137.547 2.88816 3.59313 0
M  V30 1529 H 141.091 6.29137 3.01384 0
M  V30 1530 H 136.988 5.27695 3.71763 0
M  V30 1531 H 137.756 7.3496 3.60245 0
M  V30 1532 N 140.419 -1.14872 1.07899 0
M  V30 1533 C 141.382 -2.17986 0.708161 0
M  V30 1534 C 142.382 -1.58775 -0.25442 0
M  V30 1535 O 143.572 -1.74166 -0.034645 0
M  V30 1536 C 140.704 -3.40871 0.0446929 0
M  V30 1537 H 141.897 -2.52306 1.62116 0
M  V30 1538 H 139.45 -1.2943 0.876218 0
M  V30 1539 H 140.185 -3.12124 -0.880281 0
M  V30 1540 H 139.97 -3.8511 0.737091 0
M  V30 1541 H 141.46 -4.17121 -0.19991 0
M  V30 1542 N 141.898 -0.863906 -1.31812 0
M  V30 1543 C 143.145 -0.471836 -1.96926 0
M  V30 1544 C 143.473 0.974578 -1.68322 0
M  V30 1545 O 142.728 1.7003 -0.968933 0
M  V30 1546 C 143.027 -0.668547 -3.51091 0
M  V30 1547 C 142.693 -2.08683 -3.99703 0
M  V30 1548 C 141.355 -2.47471 -4.12688 0
M  V30 1549 C 143.707 -3.01207 -4.25351 0
M  V30 1550 C 141.035 -3.78037 -4.4867 0
M  V30 1551 C 143.387 -4.31282 -4.62794 0
M  V30 1552 C 142.051 -4.69992 -4.73987 0
M  V30 1553 H 141.321 -0.172657 -0.720604 0
M  V30 1554 H 143.968 -1.09573 -1.57054 0
M  V30 1555 H 142.273 0.0385252 -3.91781 0
M  V30 1556 H 143.97 -0.345102 -3.99512 0
M  V30 1557 H 140.56 -1.77566 -3.90087 0
M  V30 1558 H 144.744 -2.72469 -4.14819 0
M  V30 1559 H 140 -4.078 -4.55532 0
M  V30 1560 H 144.174 -5.03031 -4.81594 0
M  V30 1561 H 141.801 -5.71207 -5.01624 0
M  V30 1562 N 143.376 1.44774 -0.622745 0
M  V30 1563 C 144.622 2.02968 -0.13257 0
M  V30 1564 C 144.977 1.48047 1.22881 0
M  V30 1565 O 144.27 0.651625 1.80179 0
M  V30 1566 C 144.464 3.57364 -0.0508323 0
M  V30 1567 C 144.293 4.27262 -1.40275 0
M  V30 1568 C 143.063 4.64577 -1.98737 0
M  V30 1569 C 145.261 4.58248 -2.3348 0
M  V30 1570 N 143.243 5.19404 -3.27251 0
M  V30 1571 C 144.614 5.14069 -3.46603 0
M  V30 1572 C 146.669 4.40195 -2.32664 0
M  V30 1573 C 145.372 5.53738 -4.59093 0
M  V30 1574 C 147.398 4.80907 -3.44213 0
M  V30 1575 C 146.76 5.36834 -4.56058 0
M  V30 1576 H 142.859 0.776541 -0.0922354 0
M  V30 1577 H 145.443 1.76385 -0.82441 0
M  V30 1578 H 143.614 3.83576 0.610265 0
M  V30 1579 H 145.346 4.02219 0.447397 0
M  V30 1580 H 142.101 4.48622 -1.51774 0
M  V30 1581 H 142.525 5.51301 -3.92933 0
M  V30 1582 H 147.167 3.96257 -1.47446 0
M  V30 1583 H 144.885 5.96635 -5.45025 0
M  V30 1584 H 148.471 4.68659 -3.44747 0
M  V30 1585 H 147.351 5.67755 -5.40947 0
M  V30 1586 N 144.854 0.36279 1.53368 0
M  V30 1587 C 146.101 -0.227776 2.01215 0
M  V30 1588 C 146.429 -1.49003 1.25014 0
M  V30 1589 O 145.684 -1.92876 0.331236 0
M  V30 1590 C 145.983 -0.568417 3.52851 0
M  V30 1591 C 145.649 0.59918 4.46901 0
M  V30 1592 C 144.311 0.919559 4.72332 0
M  V30 1593 C 146.663 1.38156 5.02556 0
M  V30 1594 C 143.991 2.02434 5.5067 0
M  V30 1595 C 146.343 2.47674 5.821 0
M  V30 1596 C 145.007 2.8025 6.05819 0
M  V30 1597 H 144.277 -0.083349 0.736297 0
M  V30 1598 H 146.924 0.494677 1.85001 0
M  V30 1599 H 145.229 -1.37185 3.66998 0
M  V30 1600 H 146.926 -1.03756 3.87344 0
M  V30 1601 H 143.516 0.339437 4.27254 0
M  V30 1602 H 147.7 1.14729 4.82857 0
M  V30 1603 H 142.956 2.28075 5.67267 0
M  V30 1604 H 147.13 3.08716 6.24234 0
M  V30 1605 H 144.757 3.65979 6.66306 0
M  V30 1606 N 146.332 -1.57332 0.0918853 0
M  V30 1607 C 147.579 -1.94236 -0.572577 0
M  V30 1608 C 147.907 -0.973398 -1.6839 0
M  V30 1609 O 147.162 0.00756912 -1.95699 0
M  V30 1610 C 147.461 -3.37689 -1.17051 0
M  V30 1611 C 147.127 -4.50527 -0.183304 0
M  V30 1612 C 145.789 -4.81119 0.0882276 0
M  V30 1613 C 148.141 -5.18883 0.49095 0
M  V30 1614 C 145.469 -5.77395 1.04076 0
M  V30 1615 C 147.821 -6.1618 1.43193 0
M  V30 1616 C 146.485 -6.45179 1.71173 0
M  V30 1617 H 145.755 -0.710762 -0.209521 0
M  V30 1618 H 148.402 -1.9077 0.167036 0
M  V30 1619 H 146.707 -3.37718 -1.9863 0
M  V30 1620 H 148.404 -3.63543 -1.69227 0
M  V30 1621 H 144.994 -4.26681 -0.405124 0
M  V30 1622 H 149.178 -4.95427 0.294312 0
M  V30 1623 H 144.434 -5.98179 1.26457 0
M  V30 1624 H 148.608 -6.68243 1.96023 0
M  V30 1625 H 146.235 -7.1959 2.4514 0
M  V30 1626 N 147.81 0.181792 -1.56548 0
M  V30 1627 C 148.757 1.22521 -1.95595 0
M  V30 1628 C 149.727 1.4454 -0.818373 0
M  V30 1629 O 150.912 1.57454 -1.07763 0
M  V30 1630 C 148.052 2.56193 -2.31212 0
M  V30 1631 C 147.165 2.41641 -3.58097 0
M  V30 1632 C 146.3 3.68108 -3.82975 0
M  V30 1633 C 145.339 3.48445 -5.03242 0
M  V30 1634 N 144.476 4.66956 -5.24306 0
M  V30 1635 H 149.316 0.885226 -2.84548 0
M  V30 1636 H 146.853 0.425718 -1.40805 0
M  V30 1637 H 148.811 3.34088 -2.49882 0
M  V30 1638 H 147.441 2.88208 -1.45382 0
M  V30 1639 H 146.493 1.54976 -3.474 0
M  V30 1640 H 147.805 2.23052 -4.46149 0
M  V30 1641 H 146.959 4.54441 -4.01956 0
M  V30 1642 H 145.698 3.89666 -2.93278 0
M  V30 1643 H 144.703 2.60499 -4.8417 0
M  V30 1644 H 145.928 3.2832 -5.9446 0
M  V30 1645 H 143.874 4.88752 -4.37559 0
M  V30 1646 H 143.791 4.51242 -6.06561 0
M  V30 1647 H 145.059 5.54602 -5.47756 0
M  V30 1648 N 149.288 1.51039 0.449983 0
M  V30 1649 C 150.518 1.66627 1.22143 0
M  V30 1650 C 150.926 0.357776 1.85786 0
M  V30 1651 O 150.269 -0.672424 1.70951 0
M  V30 1652 C 150.331 2.71562 2.35573 0
M  V30 1653 C 149.995 4.14526 1.92399 0
M  V30 1654 C 150.992 4.99717 1.43453 0
M  V30 1655 C 148.677 4.60559 2.00475 0
M  V30 1656 C 150.671 6.28998 1.03155 0
M  V30 1657 C 148.358 5.8984 1.59788 0
M  V30 1658 C 149.356 6.73886 1.11208 0
M  V30 1659 O 149.044 8.0075 0.710935 0
M  V30 1660 H 148.776 0.562635 0.374724 0
M  V30 1661 H 151.33 1.98146 0.541036 0
M  V30 1662 H 149.56 2.3533 3.06849 0
M  V30 1663 H 151.249 2.76156 2.97478 0
M  V30 1664 H 152.015 4.65361 1.36618 0
M  V30 1665 H 147.894 3.95273 2.37235 0
M  V30 1666 H 151.438 6.9455 0.651663 0
M  V30 1667 H 147.335 6.23713 1.66289 0
M  V30 1668 H 148.103 8.142 0.837913 0
M  V30 1669 N 150.766 -0.704594 1.40972 0
M  V30 1670 C 151.714 -1.83994 1.42299 0
M  V30 1671 C 152.708 -1.66684 0.302111 0
M  V30 1672 O 153.914 -1.73655 0.473697 0
M  V30 1673 H 150.289 -0.606171 0.44504 0
M  V30 1674 H 152.26 -1.79992 2.38003 0
M  V30 1675 C 151.009 -3.21946 1.31323 0
M  V30 1676 H 150.332 -3.35878 2.16855 0
M  V30 1677 H 151.772 -4.01491 1.36311 0
M  V30 1678 C 150.231 -3.36891 0.0245977 0
M  V30 1679 O 150.761 -3.90687 -0.934153 0
M  V30 1680 N 148.967 -2.90559 -0.0485243 0
M  V30 1681 H 148.514 -2.46968 0.732419 0
M  V30 1682 H 148.472 -3.00937 -0.910171 0
M  V30 1683 N 152.244 -1.26651 -0.937939 0
M  V30 1684 C 153.492 -1.12165 -1.68118 0
M  V30 1685 C 153.813 0.334983 -1.92101 0
M  V30 1686 O 153.083 1.23583 -1.52 0
M  V30 1687 H 151.663 -0.412093 -0.623048 0
M  V30 1688 H 154.325 -1.59027 -1.12678 0
M  V30 1689 H 153.421 -1.64289 -2.6536 0
M  V30 1690 N 153.722 1.14298 -1.08507 0
M  V30 1691 C 154.672 2.17449 -0.685569 0
M  V30 1692 C 155.656 1.58167 0.295315 0
M  V30 1693 O 156.848 1.76675 0.107172 0
M  V30 1694 C 153.977 3.43161 -0.0975318 0
M  V30 1695 C 153.063 4.09471 -1.10426 0
M  V30 1696 N 153.454 4.51089 -2.28806 0
M  V30 1697 C 151.752 4.35976 -0.940258 0
M  V30 1698 C 152.453 5.02654 -2.9277 0
M  V30 1699 N 151.429 4.96927 -2.20374 0
M  V30 1700 H 155.231 2.47369 -1.587 0
M  V30 1701 H 152.745 1.30992 -0.959936 0
M  V30 1702 H 154.742 4.16388 0.20664 0
M  V30 1703 H 153.402 3.14719 0.798872 0
M  V30 1704 H 154.413 4.44097 -2.66455 0
M  V30 1705 H 151.09 4.17386 -0.0977441 0
M  V30 1706 H 152.48 5.44723 -3.93352 0
M  V30 1707 N 155.201 0.870884 1.31352 0
M  V30 1708 C 156.148 0.325425 2.28494 0
M  V30 1709 C 157.118 -0.576615 1.5577 0
M  V30 1710 O 158.303 -0.508059 1.83911 0
M  V30 1711 C 155.443 -0.466283 3.41935 0
M  V30 1712 C 154.556 0.463378 4.29508 0
M  V30 1713 C 153.691 -0.342544 5.30094 0
M  V30 1714 C 152.73 0.583486 6.09313 0
M  V30 1715 N 151.867 -0.186244 7.01853 0
M  V30 1716 H 156.707 1.15901 2.74538 0
M  V30 1717 H 154.244 0.58294 1.35056 0
M  V30 1718 H 156.202 -0.941085 4.06447 0
M  V30 1719 H 154.832 -1.26456 2.97 0
M  V30 1720 H 153.884 1.05663 3.65431 0
M  V30 1721 H 155.196 1.1734 4.84802 0
M  V30 1722 H 154.35 -0.879816 6.00287 0
M  V30 1723 H 153.089 -1.08585 4.75458 0
M  V30 1724 H 152.094 1.13251 5.3801 0
M  V30 1725 H 153.319 1.32566 6.66035 0
M  V30 1726 H 151.265 -0.912348 6.49625 0
M  V30 1727 H 151.182 0.464422 7.54572 0
M  V30 1728 H 152.45 -0.704716 7.76308 0
M  V30 1729 N 156.679 -1.44442 0.630414 0
M  V30 1730 C 157.956 -1.9549 0.0655657 0
M  V30 1731 C 158.336 -1.5724 -1.40851 0
M  V30 1732 O 157.684 -0.846116 -2.12257 0
M  V30 1733 C 157.894 -3.47812 0.287691 0
M  V30 1734 C 159.242 -4.24216 0.180513 0
M  V30 1735 O 160.266 -3.55526 0.219019 0
M  V30 1736 O 159.125 -5.46434 0.0848493 0
M  V30 1737 H 156.219 -0.826688 -0.0227177 0
M  V30 1738 H 158.765 -1.54496 0.702068 0
M  V30 1739 H 157.537 -3.687 1.31056 0
M  V30 1740 H 157.16 -3.95751 -0.382984 0
M  V30 1741 N 158.157 -0.370918 -1.53173 0
M  V30 1742 C 159.403 0.217423 -2.01631 0
M  V30 1743 C 159.736 1.47983 -1.25756 0
M  V30 1744 O 159.011 1.91274 -0.352764 0
M  V30 1745 C 159.294 0.503982 -3.56556 0
M  V30 1746 C 159.147 -0.77243 -4.43118 0
M  V30 1747 C 160.466 1.30234 -4.20389 0
M  V30 1748 H 157.585 0.0775486 -0.732909 0
M  V30 1749 H 160.227 -0.496863 -1.83388 0
M  V30 1750 H 158.377 1.11248 -3.72231 0
M  V30 1751 H 160.049 -1.4098 -4.39229 0
M  V30 1752 H 158.292 -1.39167 -4.10871 0
M  V30 1753 H 158.963 -0.526815 -5.4948 0
M  V30 1754 H 161.439 0.787546 -4.08579 0
M  V30 1755 H 160.315 1.47158 -5.28806 0
M  V30 1756 H 160.576 2.31237 -3.76805 0
M  V30 1757 N 159.635 1.57281 -0.100228 0
M  V30 1758 C 161.051 1.57527 0.256416 0
M  V30 1759 C 161.251 1.11173 1.68056 0
M  V30 1760 O 160.307 0.79053 2.39806 0
M  V30 1761 C 161.62 3.00673 0.0401747 0
M  V30 1762 C 163.168 3.12815 0.107528 0
M  V30 1763 C 163.643 4.57929 -0.0807834 0
M  V30 1764 N 165.134 4.63193 -0.0261207 0
M  V30 1765 C 165.869 5.73212 -0.146999 0
M  V30 1766 N 165.365 6.92047 -0.322999 0
M  V30 1767 N 167.158 5.62031 -0.0879044 0
M  V30 1768 H 159.309 1.85718 -1.03065 0
M  V30 1769 H 161.572 0.857446 -0.404339 0
M  V30 1770 H 161.278 3.38804 -0.943649 0
M  V30 1771 H 161.152 3.69042 0.780262 0
M  V30 1772 H 163.539 2.74554 1.08186 0
M  V30 1773 H 163.62 2.47028 -0.664134 0
M  V30 1774 H 163.264 4.96886 -1.05201 0
M  V30 1775 H 163.194 5.21783 0.710635 0
M  V30 1776 H 165.685 3.77748 0.107161 0
M  V30 1777 H 165.998 7.7173 -0.406608 0
M  V30 1778 H 164.343 6.94074 -0.358733 0
M  V30 1779 H 167.534 4.68075 0.048498 0
M  V30 1780 H 167.707 6.47734 -0.185557 0
M  V30 1781 N 161.113 -0.173488 1.56642 0
M  V30 1782 C 162.043 -1.2171 1.99271 0
M  V30 1783 C 163.024 -1.46289 0.867959 0
M  V30 1784 O 164.209 -1.5766 1.13388 0
M  V30 1785 C 161.339 -2.55651 2.35074 0
M  V30 1786 C 160.293 -2.45645 3.50489 0
M  V30 1787 C 159.619 -3.84056 3.72028 0
M  V30 1788 C 160.919 -1.96302 4.84007 0
M  V30 1789 H 162.613 -0.86275 2.867 0
M  V30 1790 H 160.159 -0.413571 1.37933 0
M  V30 1791 H 162.112 -3.2886 2.63494 0
M  V30 1792 H 160.836 -2.92869 1.44552 0
M  V30 1793 H 159.495 -1.7489 3.22194 0
M  V30 1794 H 159.143 -4.18664 2.788 0
M  V30 1795 H 158.843 -3.7823 4.49684 0
M  V30 1796 H 160.367 -4.58854 4.02846 0
M  V30 1797 H 161.781 -2.59284 5.11317 0
M  V30 1798 H 160.178 -2.01429 5.65284 0
M  V30 1799 H 161.248 -0.917226 4.76146 0
M  V30 1800 N 162.591 -1.51276 -0.441967 0
M  V30 1801 C 163.524 -1.66933 -1.55591 0
M  V30 1802 C 164.502 -0.516958 -1.54163 0
M  V30 1803 O 165.686 -0.740209 -1.73358 0
M  V30 1804 C 162.813 -1.67866 -2.94174 0
M  V30 1805 C 161.859 -2.89013 -3.13646 0
M  V30 1806 S 162.692 -4.49897 -2.90436 0
M  V30 1807 C 163.848 -4.53568 -4.31308 0
M  V30 1808 H 164.081 -2.61155 -1.42076 0
M  V30 1809 H 161.614 -1.40902 -0.631341 0
M  V30 1810 H 163.572 -1.69089 -3.74058 0
M  V30 1811 H 162.233 -0.748296 -3.05056 0
M  V30 1812 H 161.426 -2.86054 -4.14957 0
M  V30 1813 H 161.028 -2.85509 -2.4158 0
M  V30 1814 H 163.32 -4.28924 -5.24434 0
M  V30 1815 H 164.263 -5.55355 -4.39303 0
M  V30 1816 H 164.671 -3.82943 -4.14747 0
M  V30 1817 N 164.069 0.697108 -1.41344 0
M  V30 1818 C 165.017 1.83237 -1.43272 0
M  V30 1819 C 166.011 1.66522 -0.310947 0
M  V30 1820 O 167.217 1.73402 -0.482899 0
M  V30 1821 H 163.592 0.603802 -0.448249 0
M  V30 1822 H 165.563 1.78727 -2.38954 0
M  V30 1823 C 164.312 3.21245 -1.33029 0
M  V30 1824 H 163.635 3.34723 -2.18633 0
M  V30 1825 H 165.075 4.00763 -1.38439 0
M  V30 1826 C 163.534 3.36873 -0.0424635 0
M  V30 1827 O 164.064 3.91177 0.913421 0
M  V30 1828 N 162.27 2.90581 0.0331145 0
M  V30 1829 H 161.817 2.46577 -0.745506 0
M  V30 1830 H 161.775 3.01416 0.894199 0
M  V30 1831 N 165.547 1.27147 0.931209 0
M  V30 1832 C 166.795 1.13055 1.6752 0
M  V30 1833 C 167.116 -0.324791 1.92276 0
M  V30 1834 O 166.386 -1.22775 1.52654 0
M  V30 1835 H 164.966 0.415391 0.620854 0
M  V30 1836 H 167.628 1.59623 1.11833 0
M  V30 1837 H 166.724 1.65694 2.64485 0
M  V30 1838 N 167.025 -1.13721 1.09112 0
M  V30 1839 C 168.273 -1.84559 0.823562 0
M  V30 1840 C 168.594 -1.83754 -0.652658 0
M  V30 1841 O 167.864 -1.29102 -1.47342 0
M  V30 1842 H 166.444 -0.683376 0.301673 0
M  V30 1843 H 169.106 -1.37771 1.37859 0
M  V30 1844 H 168.202 -2.8917 1.17419 0
M  V30 1845 N 168.503 -0.877838 -1.30888 0
M  V30 1846 C 169.919 -0.570844 -1.49042 0
M  V30 1847 C 170.119 0.893159 -1.80624 0
M  V30 1848 O 169.175 1.67485 -1.88958 0
M  V30 1849 C 170.488 -1.47784 -2.61878 0
M  V30 1850 C 172.036 -1.48071 -2.75761 0
M  V30 1851 C 172.511 -2.37347 -3.91702 0
M  V30 1852 N 174.002 -2.35271 -3.99001 0
M  V30 1853 C 174.737 -3.01063 -4.88004 0
M  V30 1854 N 174.233 -3.76055 -5.81854 0
M  V30 1855 N 176.026 -2.90332 -4.81315 0
M  V30 1856 H 168.177 -1.82502 -1.0866 0
M  V30 1857 H 170.44 -0.780797 -0.537644 0
M  V30 1858 H 170.146 -2.51993 -2.45341 0
M  V30 1859 H 170.02 -1.18215 -3.58197 0
M  V30 1860 H 172.407 -0.446166 -2.91708 0
M  V30 1861 H 172.488 -1.81668 -1.80085 0
M  V30 1862 H 172.132 -3.40883 -3.76512 0
M  V30 1863 H 172.062 -2.01071 -4.86701 0
M  V30 1864 H 174.553 -1.80768 -3.3186 0
M  V30 1865 H 174.866 -4.23366 -6.46514 0
M  V30 1866 H 173.211 -3.80163 -5.81808 0
M  V30 1867 H 176.402 -2.31278 -4.06974 0
M  V30 1868 H 176.575 -3.41885 -5.50471 0
M  V30 1869 N 169.982 1.44106 -0.638065 0
M  V30 1870 C 170.914 2.28976 0.101205 0
M  V30 1871 C 171.927 1.4167 0.802088 0
M  V30 1872 O 173.116 1.65755 0.662375 0
M  V30 1873 C 170.216 3.18217 1.16581 0
M  V30 1874 C 169.389 4.33978 0.546066 0
M  V30 1875 C 168.448 5.04202 1.50554 0
M  V30 1876 O 167.474 5.59986 1.01999 0
M  V30 1877 N 168.676 5.06296 2.8398 0
M  V30 1878 H 171.441 2.93064 -0.627186 0
M  V30 1879 H 169.002 1.54629 -0.479731 0
M  V30 1880 H 170.994 3.62061 1.80815 0
M  V30 1881 H 169.564 2.55833 1.79634 0
M  V30 1882 H 168.784 3.93239 -0.275046 0
M  V30 1883 H 170.072 5.08675 0.112793 0
M  V30 1884 H 169.47 4.62319 3.26002 0
M  V30 1885 H 168.027 5.53907 3.43556 0
M  V30 1886 N 171.46 0.379036 1.52974 0
M  V30 1887 C 172.407 -0.461048 2.26148 0
M  V30 1888 C 173.377 -1.06637 1.27349 0
M  V30 1889 O 174.562 -1.09633 1.56157 0
M  V30 1890 C 171.702 -1.58782 3.06402 0
M  V30 1891 C 170.815 -1.00636 4.20115 0
M  V30 1892 C 169.95 -2.10334 4.87784 0
M  V30 1893 C 168.989 -1.49724 5.93506 0
M  V30 1894 N 168.126 -2.5331 6.54812 0
M  V30 1895 H 172.966 0.169429 2.97518 0
M  V30 1896 H 170.503 0.0953806 1.4679 0
M  V30 1897 H 172.461 -2.25174 3.51215 0
M  V30 1898 H 171.091 -2.18876 2.37261 0
M  V30 1899 H 170.143 -0.232332 3.7969 0
M  V30 1900 H 171.455 -0.523343 4.96047 0
M  V30 1901 H 170.609 -2.84519 5.35849 0
M  V30 1902 H 169.348 -2.61992 4.11353 0
M  V30 1903 H 168.353 -0.740598 5.44789 0
M  V30 1904 H 169.578 -0.988732 6.71864 0
M  V30 1905 H 167.524 -3.04156 5.81227 0
M  V30 1906 H 167.441 -2.09734 7.26325 0
M  V30 1907 H 168.709 -3.27155 7.07524 0
M  V30 1908 N 172.938 -1.57226 0.108567 0
M  V30 1909 C 174.184 -1.95919 -0.546564 0
M  V30 1910 C 174.539 -0.990417 -1.6495 0
M  V30 1911 O 173.832 -0.0186593 -1.91591 0
M  V30 1912 C 174.026 -3.38911 -1.13463 0
M  V30 1913 C 173.855 -4.4961 -0.0901926 0
M  V30 1914 C 172.625 -5.04168 0.338008 0
M  V30 1915 C 174.823 -5.09693 0.686808 0
M  V30 1916 N 172.805 -5.98434 1.36931 0
M  V30 1917 C 174.176 -5.99804 1.56958 0
M  V30 1918 C 176.231 -4.92388 0.738846 0
M  V30 1919 C 174.934 -6.74463 2.49983 0
M  V30 1920 C 176.96 -5.67719 1.65676 0
M  V30 1921 C 176.322 -6.57507 2.52713 0
M  V30 1922 H 172.421 -0.763312 -0.169936 0
M  V30 1923 H 175.005 -1.93728 0.194264 0
M  V30 1924 H 173.176 -3.41769 -1.84522 0
M  V30 1925 H 174.908 -3.64752 -1.75322 0
M  V30 1926 H 171.663 -4.73571 -0.0523673 0
M  V30 1927 H 172.087 -6.5027 1.88356 0
M  V30 1928 H 176.729 -4.22724 0.080084 0
M  V30 1929 H 174.447 -7.4338 3.16878 0
M  V30 1930 H 178.033 -5.56338 1.70233 0
M  V30 1931 H 176.913 -7.14778 3.22586 0
M  V30 1932 N 174.416 0.165178 -1.56732 0
M  V30 1933 C 175.662 0.882112 -1.82611 0
M  V30 1934 C 175.995 1.81628 -0.687378 0
M  V30 1935 O 175.27 1.92009 0.310267 0
M  V30 1936 C 175.553 1.67245 -3.18906 0
M  V30 1937 C 175.406 0.760987 -4.43316 0
M  V30 1938 C 176.725 2.63884 -3.52212 0
M  V30 1939 H 173.844 0.319242 -0.664269 0
M  V30 1940 H 176.486 0.148052 -1.89422 0
M  V30 1941 H 174.636 2.29824 -3.1323 0
M  V30 1942 H 176.308 0.147596 -4.61064 0
M  V30 1943 H 174.551 0.0694102 -4.33744 0
M  V30 1944 H 175.222 1.34962 -5.35247 0
M  V30 1945 H 177.698 2.11429 -3.58381 0
M  V30 1946 H 176.574 3.16245 -4.48643 0
M  V30 1947 H 176.835 3.44377 -2.77231 0
M  V30 1948 N 175.894 1.51508 0.433938 0
M  V30 1949 C 176.804 1.75917 1.5521 0
M  V30 1950 C 177.82 0.643545 1.61662 0
M  V30 1951 O 178.996 0.926183 1.7884 0
M  V30 1952 C 176.061 1.88213 2.91164 0
M  V30 1953 C 175.122 3.12074 2.94802 0
M  V30 1954 C 174.355 3.23774 4.24271 0
M  V30 1955 O 174.578 2.4133 5.16833 0
M  V30 1956 O 173.512 4.16774 4.34262 0
M  V30 1957 H 177.338 2.70777 1.37527 0
M  V30 1958 H 174.923 1.36051 0.617293 0
M  V30 1959 H 176.805 1.98267 3.71845 0
M  V30 1960 H 175.48 0.965413 3.08968 0
M  V30 1961 H 174.387 3.07497 2.13065 0
M  V30 1962 H 175.72 4.03446 2.81943 0
M  V30 1963 N 177.372 -0.689602 1.41712 0
M  V30 1964 C 178.282 -1.83314 1.46401 0
M  V30 1965 C 179.298 -1.7036 0.35405 0
M  V30 1966 O 180.474 -1.92171 0.602692 0
M  V30 1967 C 177.539 -3.19344 1.34982 0
M  V30 1968 C 176.6 -3.44363 2.56344 0
M  V30 1969 C 175.833 -4.73904 2.45461 0
M  V30 1970 O 176.056 -5.508 1.48241 0
M  V30 1971 O 174.99 -4.99839 3.35328 0
M  V30 1972 H 178.816 -1.82314 2.42889 0
M  V30 1973 H 176.401 -0.843438 1.23315 0
M  V30 1974 H 178.283 -4.00547 1.3092 0
M  V30 1975 H 176.958 -3.21014 0.41612 0
M  V30 1976 H 175.865 -2.63067 2.65982 0
M  V30 1977 H 177.198 -3.47512 3.48563 0
M  V30 1978 N 178.85 -1.27639 -0.924453 0
M  V30 1979 C 180.098 -1.13941 -1.66918 0
M  V30 1980 C 180.419 0.314589 -1.92446 0
M  V30 1981 O 179.689 1.21964 -1.53303 0
M  V30 1982 H 178.269 -0.418678 -0.618642 0
M  V30 1983 H 180.931 -1.60213 -1.10985 0
M  V30 1984 H 180.027 -1.67094 -2.63602 0
M  V30 1985 N 180.328 1.1314 -1.09713 0
M  V30 1986 C 181.744 1.36477 -0.827423 0
M  V30 1987 C 181.944 1.93654 0.556817 0
M  V30 1988 O 181 2.15791 1.31112 0
M  V30 1989 C 182.313 2.31334 -1.92106 0
M  V30 1990 C 183.861 2.44943 -1.94864 0
M  V30 1991 C 184.336 3.4311 -3.0338 0
M  V30 1992 N 185.827 3.50662 -3.02639 0
M  V30 1993 C 186.562 4.2651 -3.83246 0
M  V30 1994 N 186.058 5.05485 -4.73768 0
M  V30 1995 N 187.851 4.2184 -3.71493 0
M  V30 1996 H 180.002 0.743807 -1.9895 0
M  V30 1997 H 182.265 0.389823 -0.864143 0
M  V30 1998 H 181.971 1.96483 -2.91698 0
M  V30 1999 H 181.845 3.31381 -1.80184 0
M  V30 2000 H 184.232 2.79079 -0.959099 0
M  V30 2001 H 184.313 1.4481 -2.10864 0
M  V30 2002 H 183.957 3.09704 -4.02549 0
M  V30 2003 H 183.887 4.43055 -2.84622 0
M  V30 2004 H 186.378 2.94315 -2.37039 0
M  V30 2005 H 186.691 5.60675 -5.3185 0
M  V30 2006 H 185.036 5.04708 -4.77802 0
M  V30 2007 H 188.227 3.5922 -3.00131 0
M  V30 2008 H 188.4 4.80697 -4.3455 0
M  V30 2009 N 181.806 0.884767 1.30421 0
M  V30 2010 C 183.217 0.553656 1.78302 0
M  V30 2011 C 183.568 -0.930153 1.7275 0
M  V30 2012 O 182.693 -1.72681 1.30423 0
M  V30 2013 C 183.288 0.998234 3.2376 0
M  V30 2014 C 181.847 0.71854 3.69478 0
M  V30 2015 C 180.994 1.18132 2.50879 0
M  V30 2016 H 183.945 1.06901 1.17294 0
M  V30 2017 H 183.966 0.327118 3.79091 0
M  V30 2018 H 183.478 2.0782 3.27769 0
M  V30 2019 H 181.579 -0.349444 3.70958 0
M  V30 2020 H 181.692 1.30595 4.60958 0
M  V30 2021 H 180.056 0.600669 2.47516 0
M  V30 2022 H 180.839 2.26902 2.57624 0
M  V30 2023 N 183.284 -1.43765 0.645699 0
M  V30 2024 C 184.214 -2.33471 -0.0370477 0
M  V30 2025 C 185.195 -1.49042 -0.819779 0
M  V30 2026 O 186.38 -1.77726 -0.782758 0
M  V30 2027 C 183.51 -3.32311 -1.0093 0
M  V30 2028 C 182.464 -4.2667 -0.337201 0
M  V30 2029 C 181.79 -5.1549 -1.42037 0
M  V30 2030 C 183.09 -5.16657 0.765706 0
M  V30 2031 H 184.784 -2.90809 0.712069 0
M  V30 2032 H 182.33 -1.39834 0.343876 0
M  V30 2033 H 184.283 -3.9396 -1.49578 0
M  V30 2034 H 183.007 -2.73213 -1.78948 0
M  V30 2035 H 181.666 -3.66374 0.128771 0
M  V30 2036 H 181.314 -4.52735 -2.1918 0
M  V30 2037 H 181.014 -5.79438 -0.975966 0
M  V30 2038 H 182.538 -5.80012 -1.90838 0
M  V30 2039 H 183.952 -5.72158 0.361702 0
M  V30 2040 H 182.349 -5.89286 1.13413 0
M  V30 2041 H 183.419 -4.56796 1.62683 0
M  V30 2042 N 184.763 -0.387143 -1.52771 0
M  V30 2043 C 185.991 0.195869 -2.05971 0
M  V30 2044 C 186.406 1.40691 -1.25903 0
M  V30 2045 O 185.763 1.79931 -0.305134 0
M  V30 2046 C 185.814 0.56812 -3.57008 0
M  V30 2047 O 185.535 -0.594803 -4.34043 0
M  V30 2048 C 187.036 1.20723 -4.26545 0
M  V30 2049 H 184.256 0.0300578 -0.670326 0
M  V30 2050 H 186.8 -0.551749 -1.96916 0
M  V30 2051 H 184.955 1.26564 -3.66143 0
M  V30 2052 H 185.369 -0.289322 -5.23701 0
M  V30 2053 H 186.843 1.41807 -5.33474 0
M  V30 2054 H 187.32 2.17395 -3.81623 0
M  V30 2055 H 187.926 0.550535 -4.21722 0
M  V30 2056 N 186.241 1.57166 -0.116904 0
M  V30 2057 C 187.469 1.99473 0.549383 0
M  V30 2058 C 187.884 0.996541 1.60357 0
M  V30 2059 O 187.241 -0.0108731 1.82497 0
M  V30 2060 C 187.292 3.41788 1.17741 0
M  V30 2061 O 187.013 4.37788 0.165362 0
M  V30 2062 C 188.514 3.99216 1.92722 0
M  V30 2063 H 185.734 0.655009 0.145616 0
M  V30 2064 H 188.278 2.03494 -0.202625 0
M  V30 2065 H 186.433 3.38713 1.88021 0
M  V30 2066 H 186.847 5.20806 0.621403 0
M  V30 2067 H 188.321 5.00882 2.31995 0
M  V30 2068 H 188.798 3.3824 2.80161 0
M  V30 2069 H 189.404 4.0583 1.27209 0
M  V30 2070 N 187.719 -0.156864 1.56817 0
M  V30 2071 C 188.629 -1.2136 2.00771 0
M  V30 2072 C 189.645 -1.47598 0.921459 0
M  V30 2073 O 190.821 -1.59462 1.2302 0
M  V30 2074 C 187.886 -2.52943 2.37109 0
M  V30 2075 C 186.947 -2.34439 3.59634 0
M  V30 2076 C 186.18 -3.59748 3.94229 0
M  V30 2077 O 186.403 -4.65526 3.29609 0
M  V30 2078 O 185.337 -3.52998 4.8752 0
M  V30 2079 H 189.163 -0.870468 2.90958 0
M  V30 2080 H 186.748 -0.36484 1.44877 0
M  V30 2081 H 188.63 -3.30538 2.61386 0
M  V30 2082 H 187.305 -2.86806 1.5008 0
M  V30 2083 H 186.212 -1.54828 3.40557 0
M  V30 2084 H 187.545 -2.05496 4.4725 0
M  V30 2085 N 189.197 -1.51736 -0.425897 0
M  V30 2086 C 190.443 -1.65214 -1.1761 0
M  V30 2087 C 190.776 -0.372778 -1.90589 0
M  V30 2088 O 190.051 0.628139 -1.84078 0
M  V30 2089 C 190.334 -2.86312 -2.18398 0
M  V30 2090 C 190.187 -4.24254 -1.49426 0
M  V30 2091 C 191.506 -3.02925 -3.19256 0
M  V30 2092 H 188.625 -0.601263 -0.426206 0
M  V30 2093 H 191.267 -1.8425 -0.463882 0
M  V30 2094 H 189.417 -2.70213 -2.79137 0
M  V30 2095 H 191.089 -4.52046 -0.919362 0
M  V30 2096 H 189.332 -4.26426 -0.796432 0
M  V30 2097 H 190.003 -5.05001 -2.22885 0
M  V30 2098 H 192.479 -3.1781 -2.68581 0
M  V30 2099 H 191.355 -3.89199 -3.8706 0
M  V30 2100 H 191.616 -2.15497 -3.86023 0
M  V30 2101 N 190.675 0.682077 -1.42076 0
M  V30 2102 C 192.086 1.26246 -1.37546 0
M  V30 2103 C 192.437 1.96092 -0.0651481 0
M  V30 2104 O 191.562 1.99587 0.836297 0
M  V30 2105 C 192.157 2.29594 -2.49143 0
M  V30 2106 C 190.716 2.83175 -2.47969 0
M  V30 2107 C 189.863 1.57395 -2.28303 0
M  V30 2108 H 192.814 0.475937 -1.51395 0
M  V30 2109 H 192.835 3.11175 -2.18976 0
M  V30 2110 H 192.347 1.78729 -3.44496 0
M  V30 2111 H 190.448 3.3818 -1.56413 0
M  V30 2112 H 190.561 3.32687 -3.44755 0
M  V30 2113 H 188.925 1.83699 -1.76428 0
M  V30 2114 H 189.708 1.08507 -3.25701 0
M  V30 2115 N 192.153 1.28127 0.917671 0
M  V30 2116 C 193.378 1.18007 1.70555 0
M  V30 2117 C 193.803 -0.258257 1.86319 0
M  V30 2118 O 193.161 -1.1869 1.37049 0
M  V30 2119 C 193.209 1.87948 3.07746 0
M  V30 2120 O 192.313 1.18427 3.9503 0
M  V30 2121 H 191.654 0.409867 0.522403 0
M  V30 2122 H 194.184 1.69379 1.1477 0
M  V30 2123 H 194.194 1.95701 3.58001 0
M  V30 2124 H 192.869 2.92573 2.95591 0
M  V30 2125 H 191.446 1.18811 3.53466 0
M  V30 2126 N 193.631 -1.12557 1.10312 0
M  V30 2127 C 194.861 -1.87592 0.865617 0
M  V30 2128 C 195.269 -1.79851 -0.587389 0
M  V30 2129 O 194.612 -1.16949 -1.41664 0
M  V30 2130 C 194.674 -3.37665 1.23381 0
M  V30 2131 C 194.338 -3.69181 2.69359 0
M  V30 2132 C 195.335 -3.67652 3.67597 0
M  V30 2133 C 193.02 -3.98555 3.05711 0
M  V30 2134 C 195.014 -3.95053 5.00212 0
M  V30 2135 C 192.701 -4.25616 4.38514 0
M  V30 2136 C 193.699 -4.23851 5.35574 0
M  V30 2137 O 193.387 -4.50242 6.65986 0
M  V30 2138 H 193.119 -0.600442 0.310557 0
M  V30 2139 H 195.673 -1.4335 1.47105 0
M  V30 2140 H 193.903 -3.82454 0.571467 0
M  V30 2141 H 195.592 -3.94041 0.973994 0
M  V30 2142 H 196.358 -3.45024 3.40857 0
M  V30 2143 H 192.237 -3.99071 2.30789 0
M  V30 2144 H 195.781 -3.93591 5.75962 0
M  V30 2145 H 191.678 -4.47718 4.64994 0
M  V30 2146 H 192.446 -4.67867 6.71597 0
M  V30 2147 N 195.109 -0.891671 -1.2995 0
M  V30 2148 C 196.52 -0.563104 -1.78006 0
M  V30 2149 C 196.871 0.920978 -1.73241 0
M  V30 2150 O 195.996 1.71987 -1.31337 0
M  V30 2151 C 196.591 -1.01539 -3.23226 0
M  V30 2152 C 195.15 -0.738124 -3.69092 0
M  V30 2153 C 194.297 -1.19461 -2.50249 0
M  V30 2154 H 197.248 -1.07522 -1.16725 0
M  V30 2155 H 197.269 -0.347217 -3.78912 0
M  V30 2156 H 196.781 -2.09555 -3.26662 0
M  V30 2157 H 194.882 0.329766 -3.71138 0
M  V30 2158 H 194.995 -1.33037 -4.60259 0
M  V30 2159 H 193.359 -0.613787 -2.47194 0
M  V30 2160 H 194.142 -2.28265 -2.56417 0
M  V30 2161 N 196.587 1.43421 -0.653314 0
M  V30 2162 C 197.998 1.85065 -0.246537 0
M  V30 2163 C 198.349 1.54688 1.2069 0
M  V30 2164 O 197.474 0.995896 1.92122 0
M  V30 2165 C 198.069 3.35922 -0.440666 0
M  V30 2166 C 196.628 3.76297 -0.0882064 0
M  V30 2167 C 195.775 2.67147 -0.743484 0
M  V30 2168 H 198.726 1.33572 -0.856979 0
M  V30 2169 H 198.747 3.79204 0.313798 0
M  V30 2170 H 198.259 3.58 -1.49858 0
M  V30 2171 H 196.36 3.5983 0.96711 0
M  V30 2172 H 196.473 4.76338 -0.513738 0
M  V30 2173 H 194.837 2.54086 -0.176712 0
M  V30 2174 H 195.62 2.92053 -1.80443 0
M  V30 2175 N 198.065 0.39524 1.52563 0
M  V30 2176 C 199.313 -0.184678 2.01254 0
M  V30 2177 C 199.634 -1.46822 1.28329 0
M  V30 2178 O 198.904 -1.91666 0.405094 0
M  V30 2179 H 197.484 -0.0712355 0.743596 0
M  V30 2180 H 200.146 0.528293 1.87603 0
M  V30 2181 H 199.242 -0.390681 3.09645 0
M  V30 2182 N 199.544 -1.57102 0.125237 0
M  V30 2183 C 200.96 -1.57915 -0.231322 0
M  V30 2184 C 201.16 -1.13833 -1.66266 0
M  V30 2185 O 200.216 -0.828581 -2.38518 0
M  V30 2186 C 201.529 -3.00699 0.00766489 0
M  V30 2187 C 203.077 -3.12947 -0.0577483 0
M  V30 2188 C 203.552 -4.57742 0.153626 0
M  V30 2189 N 205.043 -4.63092 0.0998073 0
M  V30 2190 C 205.778 -5.72905 0.238174 0
M  V30 2191 N 205.274 -6.91445 0.433057 0
M  V30 2192 N 207.067 -5.6182 0.177308 0
M  V30 2193 H 199.218 -1.84055 1.06007 0
M  V30 2194 H 201.481 -0.850905 0.417929 0
M  V30 2195 H 201.187 -3.3726 0.997431 0
M  V30 2196 H 201.061 -3.70236 -0.721452 0
M  V30 2197 H 203.448 -2.7624 -1.03804 0
M  V30 2198 H 203.529 -2.4594 0.70335 0
M  V30 2199 H 203.173 -4.95149 1.13092 0
M  V30 2200 H 203.103 -5.22848 -0.627534 0
M  V30 2201 H 205.594 -3.77871 -0.047051 0
M  V30 2202 H 205.907 -7.70985 0.529332 0
M  V30 2203 H 204.252 -6.93415 0.469109 0
M  V30 2204 H 207.443 -4.68093 0.0259748 0
M  V30 2205 H 207.616 -6.47357 0.288582 0
M  V30 2206 N 201.022 0.148545 -1.56898 0
M  V30 2207 C 202.252 0.875118 -1.8715 0
M  V30 2208 C 202.66 1.75322 -0.711262 0
M  V30 2209 O 202.003 1.80745 0.328151 0
M  V30 2210 C 202.065 1.7844 -3.12089 0
M  V30 2211 C 201.729 1.08361 -4.43967 0
M  V30 2212 C 202.726 0.438247 -5.1805 0
M  V30 2213 C 200.411 1.07358 -4.90693 0
M  V30 2214 C 202.405 -0.20779 -6.37061 0
M  V30 2215 C 200.092 0.42373 -6.09629 0
M  V30 2216 C 201.09 -0.215829 -6.82659 0
M  V30 2217 O 200.778 -0.855378 -7.99336 0
M  V30 2218 H 200.51 0.258504 -0.624621 0
M  V30 2219 H 203.064 0.14652 -2.04877 0
M  V30 2220 H 201.294 2.55389 -2.90367 0
M  V30 2221 H 202.983 2.38279 -3.286 0
M  V30 2222 H 203.749 0.437817 -4.8302 0
M  V30 2223 H 199.628 1.5608 -4.33774 0
M  V30 2224 H 203.172 -0.70758 -6.94002 0
M  V30 2225 H 199.069 0.421822 -6.4412 0
M  V30 2226 H 199.837 -0.756892 -8.14993 0
M  V30 2227 N 202.5 1.5196 0.417844 0
M  V30 2228 C 203.41 1.77554 1.53336 0
M  V30 2229 C 204.426 0.660655 1.6097 0
M  V30 2230 O 205.602 0.945099 1.77848 0
M  V30 2231 C 202.667 1.91291 2.89152 0
M  V30 2232 C 201.728 3.15183 2.91475 0
M  V30 2233 C 200.961 3.28256 4.20813 0
M  V30 2234 O 201.184 2.46798 5.14244 0
M  V30 2235 O 200.118 4.21356 4.29817 0
M  V30 2236 H 203.944 2.7222 1.34647 0
M  V30 2237 H 201.529 1.36698 0.602828 0
M  V30 2238 H 203.411 2.02199 3.69721 0
M  V30 2239 H 202.086 0.998129 3.07927 0
M  V30 2240 H 200.993 3.09739 2.09791 0
M  V30 2241 H 202.326 4.06414 2.77648 0
M  V30 2242 N 203.978 -0.674533 1.42435 0
M  V30 2243 C 205.224 -1.43671 1.43131 0
M  V30 2244 C 205.557 -1.94142 0.0476021 0
M  V30 2245 O 204.832 -1.70924 -0.928188 0
M  V30 2246 C 205.115 -2.63355 2.45594 0
M  V30 2247 C 204.968 -2.18514 3.93156 0
M  V30 2248 C 206.287 -3.65571 2.45043 0
M  V30 2249 H 203.406 -0.521077 0.521198 0
M  V30 2250 H 206.048 -0.766551 1.7385 0
M  V30 2251 H 204.198 -3.2053 2.19528 0
M  V30 2252 H 205.87 -1.66504 4.30202 0
M  V30 2253 H 204.113 -1.50086 4.07009 0
M  V30 2254 H 204.784 -3.04484 4.60428 0
M  V30 2255 H 207.26 -3.18113 2.68223 0
M  V30 2256 H 206.136 -4.46893 3.18713 0
M  V30 2257 H 206.397 -4.16716 1.47649 0
M  V30 2258 N 205.456 -1.28612 -0.910864 0
M  V30 2259 C 206.867 -1.14406 -1.47541 0
M  V30 2260 C 207.218 0.264901 -1.94403 0
M  V30 2261 O 206.343 1.15942 -1.82719 0
M  V30 2262 C 206.938 -2.07073 -2.68153 0
M  V30 2263 C 205.497 -1.96923 -3.20778 0
M  V30 2264 C 204.644 -1.98646 -1.93481 0
M  V30 2265 H 207.595 -1.41259 -0.723291 0
M  V30 2266 H 207.616 -1.63642 -3.43514 0
M  V30 2267 H 207.128 -3.09611 -2.34015 0
M  V30 2268 H 205.229 -0.97433 -3.59635 0
M  V30 2269 H 205.342 -2.84026 -3.85832 0
M  V30 2270 H 203.706 -1.43093 -2.10705 0
M  V30 2271 H 204.489 -3.02868 -1.61634 0
M  V30 2272 N 206.934 1.1197 -1.10907 0
M  V30 2273 C 208.164 1.8713 -0.875553 0
M  V30 2274 C 208.572 1.8016 0.577843 0
M  V30 2275 O 207.915 1.17699 1.41042 0
M  V30 2276 C 207.977 3.37005 -1.2517 0
M  V30 2277 C 207.641 3.67748 -2.71313 0
M  V30 2278 C 208.638 3.65698 -3.69542 0
M  V30 2279 C 206.323 3.96928 -3.07821 0
M  V30 2280 C 208.317 3.92395 -5.023 0
M  V30 2281 C 206.004 4.23284 -4.40765 0
M  V30 2282 C 207.002 4.21005 -5.37814 0
M  V30 2283 O 206.69 4.46704 -6.68364 0
M  V30 2284 H 206.422 0.598786 -0.313737 0
M  V30 2285 H 208.976 1.42568 -1.47863 0
M  V30 2286 H 207.206 3.82146 -0.591741 0
M  V30 2287 H 208.895 3.93519 -0.994877 0
M  V30 2288 H 209.661 3.43211 -3.42682 0
M  V30 2289 H 205.54 3.97841 -2.32902 0
M  V30 2290 H 209.084 3.90531 -5.78041 0
M  V30 2291 H 204.981 4.45246 -4.67361 0
M  V30 2292 H 205.749 4.64299 -6.74069 0
M  V30 2293 N 208.412 0.89855 1.29475 0
M  V30 2294 C 209.828 0.594483 1.48115 0
M  V30 2295 C 210.028 -0.86431 1.82022 0
M  V30 2296 O 209.084 -1.64457 1.91599 0
M  V30 2297 C 210.397 1.51932 2.59494 0
M  V30 2298 C 211.945 1.5244 2.7337 0
M  V30 2299 C 212.42 2.43548 3.87877 0
M  V30 2300 N 213.911 2.41589 3.95208 0
M  V30 2301 C 214.646 3.08789 4.83153 0
M  V30 2302 N 214.142 3.85265 5.75798 0
M  V30 2303 N 215.935 2.97952 4.76635 0
M  V30 2304 H 208.086 1.84207 1.05742 0
M  V30 2305 H 210.349 0.789251 0.525154 0
M  V30 2306 H 210.055 2.55865 2.41301 0
M  V30 2307 H 209.929 1.23899 3.56271 0
M  V30 2308 H 212.316 0.492518 2.90961 0
M  V30 2309 H 212.397 1.8451 1.77172 0
M  V30 2310 H 212.041 3.46829 3.71041 0
M  V30 2311 H 211.971 2.08788 4.83441 0
M  V30 2312 H 214.462 1.86025 3.28943 0
M  V30 2313 H 214.775 4.33598 6.39697 0
M  V30 2314 H 213.12 3.89371 5.75687 0
M  V30 2315 H 216.311 2.37723 4.03244 0
M  V30 2316 H 216.484 3.50599 5.44962 0
M  V30 2317 N 209.89 -1.43072 0.660911 0
M  V30 2318 C 211.167 -1.95307 0.107017 0
M  V30 2319 C 211.547 -1.60192 -1.37484 0
M  V30 2320 O 210.895 -0.890949 -2.10415 0
M  V30 2321 C 211.105 -3.47124 0.361402 0
M  V30 2322 C 212.453 -4.23738 0.270455 0
M  V30 2323 O 213.477 -3.54981 0.294382 0
M  V30 2324 O 212.336 -5.46131 0.200737 0
M  V30 2325 H 209.43 -0.826984 -0.00517729 0
M  V30 2326 H 211.976 -1.52972 0.734681 0
M  V30 2327 H 210.748 -3.65837 1.38848 0
M  V30 2328 H 210.371 -3.96475 -0.298953 0
M  V30 2329 N 211.368 -0.403325 -1.52352 0
M  V30 2330 C 212.278 0.432009 -2.30588 0
M  V30 2331 C 213.294 1.05884 -1.38075 0
M  V30 2332 O 214.47 1.06161 -1.71148 0
M  V30 2333 C 211.535 1.53669 -3.10784 0
M  V30 2334 C 210.596 0.933525 -4.19027 0
M  V30 2335 C 209.829 1.98557 -4.9539 0
M  V30 2336 O 210.052 3.20283 -4.71991 0
M  V30 2337 O 208.986 1.59504 -5.80381 0
M  V30 2338 H 212.812 -0.205739 -3.03002 0
M  V30 2339 H 210.397 -0.166675 -1.48467 0
M  V30 2340 H 212.279 2.17814 -3.60742 0
M  V30 2341 H 210.954 2.15915 -2.41169 0
M  V30 2342 H 209.861 0.254954 -3.7323 0
M  V30 2343 H 211.194 0.35508 -4.90918 0
M  V30 2344 N 212.846 1.57033 -0.133567 0
M  V30 2345 C 214.071 2.00475 0.531477 0
M  V30 2346 C 214.496 1.01291 1.58499 0
M  V30 2347 O 213.854 -0.0133279 1.81295 0
M  V30 2348 C 213.902 3.42729 1.12113 0
M  V30 2349 O 213.006 3.46498 2.23636 0
M  V30 2350 H 212.347 0.650876 0.131362 0
M  V30 2351 H 214.877 2.03344 -0.22634 0
M  V30 2352 H 214.887 3.81246 1.4531 0
M  V30 2353 H 213.562 4.14428 0.349557 0
M  V30 2354 H 212.139 3.19811 1.91769 0
M  V30 2355 N 214.325 -0.140222 1.56975 0
M  V30 2356 C 215.574 -0.850152 1.82908 0
M  V30 2357 C 215.887 -1.82028 0.715892 0
M  V30 2358 O 217.093 -2.57485 0.861016 0
M  V30 2359 C 215.549 -1.5625 3.24213 0
M  V30 2360 C 215.157 -0.63443 4.43485 0
M  V30 2361 C 216.901 -2.25881 3.59413 0
M  V30 2362 C 214.808 -1.34879 5.75814 0
M  V30 2363 H 213.738 -0.321221 0.682153 0
M  V30 2364 H 216.389 -0.102874 1.83211 0
M  V30 2365 H 214.771 -2.35565 3.18316 0
M  V30 2366 H 215.945 0.12398 4.60633 0
M  V30 2367 H 214.26 -0.0461836 4.16374 0
M  V30 2368 H 216.857 -2.79978 4.5554 0
M  V30 2369 H 217.2 -3.02693 2.85802 0
M  V30 2370 H 217.733 -1.53477 3.67001 0
M  V30 2371 H 214.472 -0.622385 6.52539 0
M  V30 2372 H 213.992 -2.07974 5.6259 0
M  V30 2373 H 215.671 -1.88784 6.18845 0
M  V30 2374 N 215.803 -1.52179 -0.40978 0
M  V30 2375 C 217.219 -1.40968 -0.74835 0
M  V30 2376 C 217.419 -0.513657 -1.94843 0
M  V30 2377 O 216.475 0.0208026 -2.52491 0
M  V30 2378 C 217.788 -2.83483 -1.0029 0
M  V30 2379 C 219.336 -2.92821 -1.10565 0
M  V30 2380 C 219.811 -4.36303 -1.39296 0
M  V30 2381 N 221.302 -4.39535 -1.46162 0
M  V30 2382 C 222.037 -5.47614 -1.70018 0
M  V30 2383 N 221.533 -6.65812 -1.91483 0
M  V30 2384 N 223.326 -5.35129 -1.72027 0
M  V30 2385 H 215.477 -2.0897 0.380186 0
M  V30 2386 H 217.74 -0.94185 0.107805 0
M  V30 2387 H 217.446 -3.51168 -0.193461 0
M  V30 2388 H 217.32 -3.24487 -1.92323 0
M  V30 2389 H 219.707 -2.25318 -1.90568 0
M  V30 2390 H 219.788 -2.55276 -0.16369 0
M  V30 2391 H 219.432 -5.04366 -0.598109 0
M  V30 2392 H 219.362 -4.71385 -2.34743 0
M  V30 2393 H 221.853 -3.54332 -1.31367 0
M  V30 2394 H 222.166 -7.43964 -2.09134 0
M  V30 2395 H 220.511 -6.68879 -1.88749 0
M  V30 2396 H 223.702 -4.41764 -1.54796 0
M  V30 2397 H 223.875 -6.19433 -1.9028 0
M  V30 2398 N 217.281 0.66697 -1.42791 0
M  V30 2399 C 218.244 1.76211 -1.46568 0
M  V30 2400 C 219.244 1.56896 -0.352196 0
M  V30 2401 O 220.434 1.63044 -0.613364 0
M  V30 2402 C 217.566 3.14935 -1.30494 0
M  V30 2403 H 218.759 1.74247 -2.44086 0
M  V30 2404 H 216.312 0.877342 -1.29354 0
M  V30 2405 H 217.047 3.2252 -0.339301 0
M  V30 2406 H 216.832 3.30359 -2.11199 0
M  V30 2407 H 218.322 3.94821 -1.36038 0
M  V30 2408 N 218.759 1.29093 0.90403 0
M  V30 2409 C 219.989 1.19516 1.68522 0
M  V30 2410 C 220.397 -0.24738 1.87576 0
M  V30 2411 O 219.74 -1.17798 1.40959 0
M  V30 2412 C 219.802 1.83249 3.0929 0
M  V30 2413 C 219.466 3.32531 3.13484 0
M  V30 2414 C 220.463 4.28821 2.93953 0
M  V30 2415 C 218.148 3.73656 3.35688 0
M  V30 2416 C 220.142 5.64212 2.96553 0
M  V30 2417 C 217.829 5.0917 3.37919 0
M  V30 2418 C 218.827 6.04258 3.18373 0
M  V30 2419 O 218.515 7.37298 3.20385 0
M  V30 2420 H 218.247 0.415467 0.533257 0
M  V30 2421 H 220.801 1.70912 1.13922 0
M  V30 2422 H 219.031 1.26358 3.65473 0
M  V30 2423 H 220.72 1.68054 3.69476 0
M  V30 2424 H 221.486 3.98382 2.76616 0
M  V30 2425 H 217.365 3.00101 3.49943 0
M  V30 2426 H 220.909 6.38407 2.81216 0
M  V30 2427 H 216.806 5.39256 3.54787 0
M  V30 2428 H 217.574 7.46048 3.36681 0
M  V30 2429 N 220.237 -1.11381 1.11499 0
M  V30 2430 C 221.653 -1.35143 0.849031 0
M  V30 2431 C 221.853 -1.94515 -0.525938 0
M  V30 2432 O 220.909 -2.1785 -1.27662 0
M  V30 2433 C 222.222 -2.28249 1.95762 0
M  V30 2434 C 223.77 -2.41812 1.98736 0
M  V30 2435 C 224.245 -3.3824 3.088 0
M  V30 2436 N 225.736 -3.45803 3.08179 0
M  V30 2437 C 226.471 -4.20358 3.89982 0
M  V30 2438 N 225.967 -4.97884 4.8175 0
M  V30 2439 N 227.76 -4.15877 3.78157 0
M  V30 2440 H 219.911 -0.712062 2.00109 0
M  V30 2441 H 222.174 -0.376025 0.870235 0
M  V30 2442 H 221.88 -1.91817 2.94787 0
M  V30 2443 H 221.754 -3.28473 1.85433 0
M  V30 2444 H 224.141 -2.77518 1.00338 0
M  V30 2445 H 224.222 -1.41437 2.13141 0
M  V30 2446 H 223.866 -3.03261 4.07425 0
M  V30 2447 H 223.796 -4.38471 2.91635 0
M  V30 2448 H 226.287 -2.90506 2.41691 0
M  V30 2449 H 226.6 -5.52142 5.40702 0
M  V30 2450 H 224.945 -4.97043 4.85771 0
M  V30 2451 H 228.136 -3.544 3.05808 0
M  V30 2452 H 228.309 -4.73723 4.42143 0
M  V30 2453 N 221.715 -0.905404 -1.28997 0
M  V30 2454 C 222.992 -0.453513 -1.9027 0
M  V30 2455 C 223.372 1.06721 -1.82137 0
M  V30 2456 O 222.72 1.91159 -1.25182 0
M  V30 2457 C 222.93 -0.974494 -3.35119 0
M  V30 2458 C 224.278 -1.0216 -4.12127 0
M  V30 2459 O 225.302 -0.922557 -3.44046 0
M  V30 2460 O 224.161 -1.17121 -5.33802 0
M  V30 2461 H 221.255 -0.142347 -0.814657 0
M  V30 2462 H 223.801 -0.995642 -1.37423 0
M  V30 2463 H 222.573 -2.01848 -3.35221 0
M  V30 2464 H 222.196 -0.412706 -3.95452 0
M  V30 2465 N 223.193 1.4272 -0.668489 0
M  V30 2466 C 224.47 1.95248 -0.117373 0
M  V30 2467 C 224.85 1.60919 1.36632 0
M  V30 2468 O 224.198 0.902095 2.09939 0
M  V30 2469 C 224.408 3.46927 -0.379806 0
M  V30 2470 C 225.756 4.23588 -0.292923 0
M  V30 2471 O 226.78 3.5482 -0.313204 0
M  V30 2472 O 225.639 5.46017 -0.229697 0
M  V30 2473 H 222.733 0.827 0.00079152 0
M  V30 2474 H 225.279 1.52581 -0.742783 0
M  V30 2475 H 224.051 3.65096 -1.40786 0
M  V30 2476 H 223.674 3.96627 0.277923 0
M  V30 2477 N 224.671 0.411399 1.52136 0
M  V30 2478 C 225.917 -0.163888 2.02137 0
M  V30 2479 C 226.25 -1.44597 1.29636 0
M  V30 2480 O 225.525 -1.90272 0.403353 0
M  V30 2481 C 225.808 -0.40927 3.57767 0
M  V30 2482 C 225.661 0.889643 4.40914 0
M  V30 2483 C 226.98 -1.19042 4.23694 0
M  V30 2484 H 224.099 -0.0580896 0.734707 0
M  V30 2485 H 226.741 0.54531 1.82007 0
M  V30 2486 H 224.891 -1.0134 3.7505 0
M  V30 2487 H 226.563 1.52575 4.35337 0
M  V30 2488 H 224.806 1.50011 4.07037 0
M  V30 2489 H 225.477 0.672314 5.4789 0
M  V30 2490 H 227.953 -0.678942 4.10524 0
M  V30 2491 H 226.829 -1.33086 5.32522 0
M  V30 2492 H 227.09 -2.21166 3.82803 0
M  V30 2493 N 226.149 -1.5696 0.141893 0
M  V30 2494 C 227.079 -2.19516 -0.795936 0
M  V30 2495 C 228.06 -1.14187 -1.26077 0
M  V30 2496 O 229.245 -1.42511 -1.31925 0
M  V30 2497 C 226.375 -2.81272 -2.03723 0
M  V30 2498 C 225.329 -3.92384 -1.70936 0
M  V30 2499 C 224.655 -4.41052 -3.02287 0
M  V30 2500 C 225.955 -5.13403 -0.959954 0
M  V30 2501 H 227.649 -2.98138 -0.274596 0
M  V30 2502 H 225.195 -1.43406 -0.130636 0
M  V30 2503 H 227.148 -3.237 -2.69808 0
M  V30 2504 H 225.872 -1.99973 -2.58221 0
M  V30 2505 H 224.531 -3.50566 -1.07232 0
M  V30 2506 H 224.179 -3.56582 -3.54765 0
M  V30 2507 H 223.879 -5.15993 -2.81114 0
M  V30 2508 H 225.403 -4.86146 -3.69451 0
M  V30 2509 H 226.817 -5.52706 -1.52279 0
M  V30 2510 H 225.214 -5.94073 -0.848357 0
M  V30 2511 H 226.284 -4.84875 0.0492434 0
M  V30 2512 N 227.627 0.131896 -1.57047 0
M  V30 2513 C 228.537 1.1815 -2.02676 0
M  V30 2514 C 229.553 1.46113 -0.944824 0
M  V30 2515 O 230.729 1.57485 -1.25541 0
M  V30 2516 C 227.794 2.49139 -2.41103 0
M  V30 2517 C 226.855 2.28688 -3.63318 0
M  V30 2518 C 226.088 3.53431 -3.99903 0
M  V30 2519 O 226.311 4.60223 -3.36973 0
M  V30 2520 O 225.245 3.45198 -4.93074 0
M  V30 2521 H 229.071 0.824069 -2.92306 0
M  V30 2522 H 226.656 0.341745 -1.45439 0
M  V30 2523 H 228.538 3.26338 -2.66611 0
M  V30 2524 H 227.213 2.84382 -1.54624 0
M  V30 2525 H 226.12 1.4939 -3.42977 0
M  V30 2526 H 227.453 1.98355 -4.50462 0
M  V30 2527 N 229.106 1.52395 0.401703 0
M  V30 2528 C 230.056 1.72649 1.48917 0
M  V30 2529 C 231.04 0.580436 1.50066 0
M  V30 2530 O 232.232 0.83779 1.55917 0
M  V30 2531 C 229.361 1.88729 2.86769 0
M  V30 2532 C 228.447 3.09228 2.90239 0
M  V30 2533 N 228.838 4.31805 2.63396 0
M  V30 2534 C 227.136 3.09214 3.21408 0
M  V30 2535 C 227.837 5.13326 2.73625 0
M  V30 2536 N 226.813 4.48735 3.06819 0
M  V30 2537 H 230.615 2.65058 1.26971 0
M  V30 2538 H 228.129 1.50528 0.609504 0
M  V30 2539 H 230.126 2.01358 3.65049 0
M  V30 2540 H 228.786 0.975252 3.09708 0
M  V30 2541 H 229.797 4.60154 2.37653 0
M  V30 2542 H 226.474 2.27774 3.49893 0
M  V30 2543 H 227.864 6.21003 2.56524 0
M  V30 2544 N 230.584 -0.659388 1.43143 0
M  V30 2545 C 231.833 -1.41518 1.43721 0
M  V30 2546 C 232.146 -1.95499 0.0628176 0
M  V30 2547 O 233.352 -2.71446 -0.0539683 0
M  V30 2548 C 231.808 -2.5608 2.52885 0
M  V30 2549 C 231.416 -2.08733 3.96402 0
M  V30 2550 C 233.16 -3.3349 2.62649 0
M  V30 2551 C 231.067 -3.20469 4.97045 0
M  V30 2552 H 229.997 -0.531705 0.534608 0
M  V30 2553 H 232.648 -0.712343 1.69109 0
M  V30 2554 H 231.03 -3.28805 2.20688 0
M  V30 2555 H 232.204 -1.43059 4.3803 0
M  V30 2556 H 230.519 -1.44219 3.90627 0
M  V30 2557 H 233.116 -4.16734 3.35017 0
M  V30 2558 H 233.459 -3.8111 1.67513 0
M  V30 2559 H 233.992 -2.67842 2.94118 0
M  V30 2560 H 230.731 -2.77824 5.93712 0
M  V30 2561 H 230.251 -3.84874 4.60034 0
M  V30 2562 H 231.93 -3.85698 5.19467 0
M  V30 2563 N 232.062 -1.29571 -0.897171 0
M  V30 2564 C 233.311 -1.1706 -1.64256 0
M  V30 2565 C 233.624 0.276476 -1.93636 0
M  V30 2566 O 234.83 0.52294 -2.66416 0
M  V30 2567 C 233.286 -2.0475 -2.95982 0
M  V30 2568 C 232.894 -3.54295 -2.74187 0
M  V30 2569 C 234.638 -2.0097 -3.73914 0
M  V30 2570 C 232.545 -4.34081 -4.01656 0
M  V30 2571 H 231.475 -0.43452 -0.616205 0
M  V30 2572 H 234.126 -1.54229 -0.994268 0
M  V30 2573 H 232.508 -1.60452 -3.62038 0
M  V30 2574 H 233.682 -4.06662 -2.1671 0
M  V30 2575 H 231.997 -3.59773 -2.09648 0
M  V30 2576 H 234.594 -2.57838 -4.68427 0
M  V30 2577 H 234.937 -0.990273 -4.0435 0
M  V30 2578 H 235.47 -2.43325 -3.14703 0
M  V30 2579 H 232.209 -5.36671 -3.76384 0
M  V30 2580 H 231.729 -3.86483 -4.58684 0
M  V30 2581 H 233.408 -4.44877 -4.69781 0
M  V30 2582 N 233.54 1.10788 -1.12088 0
M  V30 2583 C 234.487 2.17025 -0.785407 0
M  V30 2584 C 235.457 1.64265 0.246191 0
M  V30 2585 O 236.642 1.90412 0.121584 0
M  V30 2586 C 233.782 3.44249 -0.242177 0
M  V30 2587 C 232.895 4.1098 -1.33115 0
M  V30 2588 C 232.03 5.25911 -0.747741 0
M  V30 2589 C 231.069 5.84538 -1.81609 0
M  V30 2590 N 230.206 6.90853 -1.25167 0
M  V30 2591 H 235.046 2.45066 -1.69548 0
M  V30 2592 H 232.583 1.20297 -0.846582 0
M  V30 2593 H 234.541 4.17101 0.0908026 0
M  V30 2594 H 233.171 3.16571 0.631072 0
M  V30 2595 H 232.223 3.36133 -1.78097 0
M  V30 2596 H 233.535 4.50601 -2.13917 0
M  V30 2597 H 232.689 6.056 -0.365216 0
M  V30 2598 H 231.428 4.87614 0.0915188 0
M  V30 2599 H 230.433 5.03522 -2.20785 0
M  V30 2600 H 231.658 6.249 -2.6585 0
M  V30 2601 H 229.604 6.54562 -0.434174 0
M  V30 2602 H 229.521 7.29166 -1.99633 0
M  V30 2603 H 230.789 7.7433 -0.896259 0
M  V30 2604 N 235.018 0.912232 1.28515 0
M  V30 2605 C 236.264 0.545405 1.95328 0
M  V30 2606 C 236.597 -0.908313 1.71649 0
M  V30 2607 O 235.872 -1.64575 1.03659 0
M  V30 2608 C 236.155 0.853483 3.4984 0
M  V30 2609 C 236.008 2.35982 3.82926 0
M  V30 2610 C 237.327 0.348589 4.38717 0
M  V30 2611 H 234.446 0.199626 0.709449 0
M  V30 2612 H 237.088 1.1412 1.5191 0
M  V30 2613 H 235.238 0.34643 3.86952 0
M  V30 2614 H 236.91 2.93738 3.55691 0
M  V30 2615 H 235.153 2.81543 3.30024 0
M  V30 2616 H 235.824 2.52593 4.90816 0
M  V30 2617 H 238.3 0.78294 4.08668 0
M  V30 2618 H 237.176 0.593242 5.45685 0
M  V30 2619 H 237.437 -0.751049 4.35674 0
M  V30 2620 N 236.496 -1.42363 0.676048 0
M  V30 2621 C 237.443 -2.308 -0.00150904 0
M  V30 2622 C 238.413 -1.46032 -0.791444 0
M  V30 2623 O 239.598 -1.74861 -0.76344 0
M  V30 2624 C 236.738 -3.31883 -0.945919 0
M  V30 2625 C 235.851 -4.31741 -0.149675 0
M  V30 2626 C 234.986 -5.19898 -1.08995 0
M  V30 2627 C 234.025 -6.11434 -0.285465 0
M  V30 2628 N 233.162 -6.92138 -1.17851 0
M  V30 2629 H 238.002 -2.88187 0.758455 0
M  V30 2630 H 235.539 -1.41952 0.38576 0
M  V30 2631 H 237.497 -3.89019 -1.50731 0
M  V30 2632 H 236.127 -2.76093 -1.6725 0
M  V30 2633 H 235.179 -3.76713 0.528359 0
M  V30 2634 H 236.491 -4.96534 0.474866 0
M  V30 2635 H 235.645 -5.81772 -1.72123 0
M  V30 2636 H 234.384 -4.55284 -1.74837 0
M  V30 2637 H 233.389 -5.48627 0.359018 0
M  V30 2638 H 234.614 -6.78097 0.368883 0
M  V30 2639 H 232.56 -6.30152 -1.82332 0
M  V30 2640 H 232.477 -7.53542 -0.609082 0
M  V30 2641 H 233.745 -7.58499 -1.79722 0
M  V30 2642 N 237.974 -0.419461 -1.51915 0
M  V30 2643 C 238.884 0.407528 -2.31033 0
M  V30 2644 C 239.9 1.04413 -1.3919 0
M  V30 2645 O 241.076 1.0434 -1.72265 0
M  V30 2646 C 238.141 1.50365 -3.12396 0
M  V30 2647 C 237.202 0.889029 -4.19994 0
M  V30 2648 C 236.435 1.93291 -4.97468 0
M  V30 2649 O 236.658 3.15259 -4.75361 0
M  V30 2650 O 235.592 1.53339 -5.8204 0
M  V30 2651 H 239.418 -0.237865 -3.02767 0
M  V30 2652 H 237.003 -0.182413 -1.48282 0
M  V30 2653 H 238.885 2.13975 -3.63032 0
M  V30 2654 H 237.56 2.13345 -2.43445 0
M  V30 2655 H 236.467 0.215353 -3.7348 0
M  V30 2656 H 237.8 0.302991 -4.91267 0
M  V30 2657 N 239.452 1.56882 -0.150215 0
M  V30 2658 C 240.7 1.9584 0.499105 0
M  V30 2659 C 241.021 1.03623 1.65188 0
M  V30 2660 O 240.291 0.0984084 1.95653 0
M  V30 2661 H 238.871 0.723119 0.187373 0
M  V30 2662 H 241.533 1.9358 -0.226466 0
M  V30 2663 H 240.629 2.99638 0.873122 0
M  V30 2664 N 240.93 -0.123565 1.57115 0
M  V30 2665 C 241.877 -1.15177 2.00007 0
M  V30 2666 C 242.847 -1.41403 0.871454 0
M  V30 2667 O 244.032 -1.53346 1.13533 0
M  V30 2668 C 241.172 -2.47436 2.40561 0
M  V30 2669 C 240.285 -2.28184 3.66819 0
M  V30 2670 C 239.42 -3.53641 3.96373 0
M  V30 2671 C 238.459 -3.29528 5.15827 0
M  V30 2672 N 237.596 -4.47175 5.41275 0
M  V30 2673 H 242.436 -0.779008 2.87638 0
M  V30 2674 H 239.973 -0.373166 1.42288 0
M  V30 2675 H 241.931 -3.24584 2.62109 0
M  V30 2676 H 240.561 -2.82614 1.55978 0
M  V30 2677 H 239.613 -1.41976 3.52912 0
M  V30 2678 H 240.925 -2.0634 4.5412 0
M  V30 2679 H 240.079 -4.39209 4.18545 0
M  V30 2680 H 238.818 -3.78512 3.07538 0
M  V30 2681 H 237.823 -2.42349 4.93505 0
M  V30 2682 H 239.048 -3.06031 6.06236 0
M  V30 2683 H 236.994 -4.72175 4.55397 0
M  V30 2684 H 236.911 -4.28419 6.22891 0
M  V30 2685 H 238.179 -5.3389 5.67963 0
M  V30 2686 N 242.408 -1.52605 -0.393616 0
M  V30 2687 C 243.656 -1.67093 -1.13685 0
M  V30 2688 C 243.977 -0.411011 -1.90619 0
M  V30 2689 O 243.247 0.574491 -1.87287 0
M  V30 2690 H 241.827 -0.615923 -0.422668 0
M  V30 2691 H 244.489 -1.89704 -0.447039 0
M  V30 2692 H 243.585 -2.51922 -1.84232 0
M  V30 2693 N 243.887 0.651787 -1.4349 0
M  V30 2694 C 244.85 1.74647 -1.48429 0
M  V30 2695 C 245.85 1.56513 -0.368817 0
M  V30 2696 O 247.04 1.62385 -0.630623 0
M  V30 2697 C 244.172 3.13533 -1.33827 0
M  V30 2698 H 245.365 1.71649 -2.4592 0
M  V30 2699 H 242.918 0.863573 -1.30277 0
M  V30 2700 H 243.653 3.22142 -0.37349 0
M  V30 2701 H 243.438 3.28101 -2.14691 0
M  V30 2702 H 244.928 3.93356 -1.40218 0
M  V30 2703 N 245.365 1.30045 0.890287 0
M  V30 2704 C 246.295 1.18541 2.01172 0
M  V30 2705 C 247.276 0.0773356 1.69924 0
M  V30 2706 O 248.461 0.25845 1.92473 0
M  V30 2707 C 245.591 0.870941 3.36202 0
M  V30 2708 C 244.545 1.93637 3.81692 0
M  V30 2709 C 243.871 1.475 5.13953 0
M  V30 2710 C 245.171 3.34666 4.00994 0
M  V30 2711 H 246.865 2.12359 2.11054 0
M  V30 2712 H 244.411 1.02238 1.01407 0
M  V30 2713 H 246.364 0.777141 4.14172 0
M  V30 2714 H 245.088 -0.102926 3.26438 0
M  V30 2715 H 243.747 2.01972 3.05946 0
M  V30 2716 H 243.395 0.489551 5.00612 0
M  V30 2717 H 243.095 2.1876 5.4536 0
M  V30 2718 H 244.619 1.39489 5.94454 0
M  V30 2719 H 246.033 3.2912 4.69417 0
M  V30 2720 H 244.43 4.03966 4.43769 0
M  V30 2721 H 245.5 3.76949 3.05021 0
M  V30 2722 N 246.843 -1.10192 1.12674 0
M  V30 2723 C 248.089 -1.82475 0.884915 0
M  V30 2724 C 248.422 -1.85093 -0.58773 0
M  V30 2725 O 247.697 -1.3134 -1.43457 0
M  V30 2726 C 247.98 -3.29018 1.46353 0
M  V30 2727 C 247.833 -3.34718 3.00473 0
M  V30 2728 C 249.152 -4.25473 1.12519 0
M  V30 2729 H 246.271 -0.662492 0.322915 0
M  V30 2730 H 248.913 -1.2913 1.39375 0
M  V30 2731 H 247.063 -3.74576 1.03077 0
M  V30 2732 H 248.735 -2.97622 3.52447 0
M  V30 2733 H 246.978 -2.74541 3.35872 0
M  V30 2734 H 247.649 -4.37918 3.36053 0
M  V30 2735 H 250.125 -3.88161 1.499 0
M  V30 2736 H 249.001 -5.26365 1.55663 0
M  V30 2737 H 249.262 -4.42084 0.0377407 0
M  V30 2738 N 248.321 -0.919034 -1.28029 0
M  V30 2739 C 249.598 -0.473668 -1.89778 0
M  V30 2740 C 249.978 1.04783 -1.83259 0
M  V30 2741 O 249.326 1.8982 -1.27202 0
M  V30 2742 C 249.536 -1.00998 -3.34066 0
M  V30 2743 C 250.884 -1.06525 -4.1102 0
M  V30 2744 O 251.908 -0.958996 -3.43048 0
M  V30 2745 O 250.767 -1.22776 -5.3253 0
M  V30 2746 H 247.861 -0.15098 -0.813101 0
M  V30 2747 H 250.407 -1.01016 -1.36359 0
M  V30 2748 H 249.179 -2.05392 -3.33061 0
M  V30 2749 H 248.802 -0.454626 -3.94992 0
M  V30 2750 N 249.799 1.42003 -0.683588 0
M  V30 2751 C 251.045 2.01712 -0.209825 0
M  V30 2752 C 251.378 1.53968 1.18353 0
M  V30 2753 O 250.653 0.745661 1.79639 0
M  V30 2754 C 250.936 3.59202 -0.254197 0
M  V30 2755 C 250.789 4.17102 -1.68363 0
M  V30 2756 C 252.108 4.38344 0.392709 0
M  V30 2757 H 249.227 0.732891 -0.0777189 0
M  V30 2758 H 251.869 1.68909 -0.87004 0
M  V30 2759 H 250.019 3.87278 0.307954 0
M  V30 2760 H 251.691 3.99946 -2.29871 0
M  V30 2761 H 249.934 3.72597 -2.22157 0
M  V30 2762 H 250.605 5.26249 -1.6663 0
M  V30 2763 H 253.081 4.16011 -0.0859162 0
M  V30 2764 H 251.957 5.47901 0.331063 0
M  V30 2765 H 252.218 4.16887 1.47164 0
M  V30 2766 N 251.277 0.427512 1.51691 0
M  V30 2767 C 252.693 0.0792977 1.59403 0
M  V30 2768 C 252.893 -1.41035 1.43914 0
M  V30 2769 O 251.949 -2.17922 1.27539 0
M  V30 2770 C 253.262 0.590636 2.94842 0
M  V30 2771 C 254.81 0.550215 3.08126 0
M  V30 2772 C 255.285 1.03836 4.46074 0
M  V30 2773 N 256.776 0.995943 4.52366 0
M  V30 2774 C 257.511 1.34463 5.57411 0
M  V30 2775 N 257.007 1.76569 6.69922 0
M  V30 2776 N 258.8 1.26343 5.47717 0
M  V30 2777 H 250.951 1.39687 1.60004 0
M  V30 2778 H 253.214 0.575003 0.753708 0
M  V30 2779 H 252.92 1.63251 3.11516 0
M  V30 2780 H 252.794 0.0102061 3.77199 0
M  V30 2781 H 255.181 -0.482654 2.91126 0
M  V30 2782 H 255.262 1.16693 2.27632 0
M  V30 2783 H 254.906 2.06965 4.63819 0
M  V30 2784 H 254.836 0.398286 5.25092 0
M  V30 2785 H 257.327 0.68661 3.7161 0
M  V30 2786 H 257.64 2.01438 7.46085 0
M  V30 2787 H 255.985 1.80488 6.71155 0
M  V30 2788 H 259.176 0.933209 4.58703 0
M  V30 2789 H 259.349 1.53846 6.29472 0
M  V30 2790 N 252.755 -1.56801 0.158532 0
M  V30 2791 C 253.98 -2.01295 -0.499516 0
M  V30 2792 C 254.405 -1.03799 -1.56867 0
M  V30 2793 O 253.763 -0.0155162 -1.81293 0
M  V30 2794 C 253.811 -3.44469 -1.06647 0
M  V30 2795 O 252.915 -3.50012 -2.18095 0
M  V30 2796 H 252.256 -0.652884 -0.12099 0
M  V30 2797 H 254.786 -2.02958 0.258661 0
M  V30 2798 H 254.796 -3.8351 -1.39227 0
M  V30 2799 H 253.471 -4.14932 -0.283581 0
M  V30 2800 H 252.048 -3.22822 -1.86656 0
M  V30 2801 N 254.233 0.115231 -1.57178 0
M  V30 2802 C 255.644 0.67197 -1.74188 0
M  V30 2803 C 255.995 1.80125 -0.777777 0
M  V30 2804 O 255.12 2.16346 0.0484376 0
M  V30 2805 C 255.715 1.22573 -3.1585 0
M  V30 2806 C 254.274 1.72872 -3.34353 0
M  V30 2807 C 253.421 0.629972 -2.70049 0
M  V30 2808 H 256.372 -0.110712 -1.58313 0
M  V30 2809 H 256.393 2.09535 -3.17609 0
M  V30 2810 H 255.905 0.403598 -3.85996 0
M  V30 2811 H 254.006 2.5755 -2.69256 0
M  V30 2812 H 254.119 1.83557 -4.42542 0
M  V30 2813 H 252.483 1.0645 -2.31388 0
M  V30 2814 H 253.266 -0.181241 -3.42821 0
M  V30 2815 N 255.711 1.52812 0.385517 0
M  V30 2816 C 256.643 1.74096 1.49074 0
M  V30 2817 C 257.656 0.621462 1.50472 0
M  V30 2818 O 258.845 0.897245 1.54311 0
M  V30 2819 C 255.945 1.78774 2.87911 0
M  V30 2820 C 255.118 3.08134 3.10439 0
M  V30 2821 C 254.177 3.04313 4.29278 0
M  V30 2822 O 253.203 3.78168 4.25415 0
M  V30 2823 N 254.405 2.23741 5.35649 0
M  V30 2824 H 257.17 2.69455 1.31202 0
M  V30 2825 H 254.731 1.51343 0.575065 0
M  V30 2826 H 256.723 1.73721 3.65518 0
M  V30 2827 H 255.293 0.907869 2.99126 0
M  V30 2828 H 254.513 3.26649 2.20667 0
M  V30 2829 H 255.801 3.93662 3.22347 0
M  V30 2830 H 255.199 1.63211 5.41645 0
M  V30 2831 H 253.756 2.24524 6.11909 0
M  V30 2832 N 257.189 -0.644168 1.43834 0
M  V30 2833 C 258.099 -1.78563 1.52159 0
M  V30 2834 C 259.115 -1.69147 0.408069 0
M  V30 2835 O 260.291 -1.90156 0.663524 0
M  V30 2836 C 257.356 -3.14888 1.45073 0
M  V30 2837 C 256.417 -3.36034 2.6717 0
M  V30 2838 C 255.65 -4.65855 2.60413 0
M  V30 2839 O 255.873 -5.45805 1.65689 0
M  V30 2840 O 254.807 -4.88918 3.5106 0
M  V30 2841 H 258.633 -1.74494 2.48567 0
M  V30 2842 H 256.218 -0.80378 1.25935 0
M  V30 2843 H 258.1 -3.96179 1.43597 0
M  V30 2844 H 256.775 -3.19528 0.518037 0
M  V30 2845 H 255.682 -2.54472 2.74217 0
M  V30 2846 H 257.015 -3.36247 3.59442 0
M  V30 2847 N 258.668 -1.30515 -0.883378 0
M  V30 2848 C 259.898 -1.22182 -1.66599 0
M  V30 2849 C 260.306 0.217507 -1.87946 0
M  V30 2850 O 259.649 1.1554 -1.42815 0
M  V30 2851 C 259.711 -1.88146 -3.06335 0
M  V30 2852 C 259.375 -3.37476 -3.08154 0
M  V30 2853 C 260.372 -4.33443 -2.87094 0
M  V30 2854 C 258.057 -3.7895 -3.29701 0
M  V30 2855 C 260.051 -5.68858 -2.8754 0
M  V30 2856 C 257.738 -5.14482 -3.29776 0
M  V30 2857 C 258.736 -6.09246 -3.0872 0
M  V30 2858 O 258.424 -7.42302 -3.08615 0
M  V30 2859 H 258.156 -0.423898 -0.52658 0
M  V30 2860 H 260.71 -1.72703 -1.11188 0
M  V30 2861 H 258.94 -1.32157 -3.63416 0
M  V30 2862 H 260.629 -1.7391 -3.66756 0
M  V30 2863 H 261.395 -4.02733 -2.70243 0
M  V30 2864 H 257.274 -3.05631 -3.45124 0
M  V30 2865 H 260.818 -6.428 -2.71024 0
M  V30 2866 H 256.715 -5.44832 -3.46163 0
M  V30 2867 H 257.483 -7.5131 -3.24769 0
M  V30 2868 N 260.146 1.09593 -1.13257 0
M  V30 2869 C 261.562 1.33775 -0.870423 0
M  V30 2870 C 261.762 1.95327 0.494926 0
M  V30 2871 O 260.818 2.19853 1.2418 0
M  V30 2872 C 262.131 2.25106 -1.99369 0
M  V30 2873 C 263.679 2.3862 -2.02558 0
M  V30 2874 C 264.154 3.33285 -3.14142 0
M  V30 2875 N 265.645 3.40857 -3.13641 0
M  V30 2876 C 266.38 4.14101 -3.96621 0
M  V30 2877 N 265.876 4.90157 -4.8961 0
M  V30 2878 N 267.669 4.09808 -3.84726 0
M  V30 2879 H 259.82 0.680136 -2.01216 0
M  V30 2880 H 262.083 0.362133 -0.876107 0
M  V30 2881 H 261.789 1.87103 -2.97801 0
M  V30 2882 H 261.663 3.25481 -1.90635 0
M  V30 2883 H 264.05 2.75887 -1.0474 0
M  V30 2884 H 264.131 1.38028 -2.15364 0
M  V30 2885 H 263.775 2.96741 -4.12198 0
M  V30 2886 H 263.705 4.33776 -2.98574 0
M  V30 2887 H 266.196 2.86624 -2.46282 0
M  V30 2888 H 266.509 5.4347 -5.49418 0
M  V30 2889 H 264.854 4.89251 -4.93617 0
M  V30 2890 H 268.045 3.4949 -3.11408 0
M  V30 2891 H 268.218 4.66629 -4.49623 0
M  V30 2892 N 261.624 0.925811 1.2754 0
M  V30 2893 C 262.872 0.564138 1.94067 0
M  V30 2894 C 263.193 -0.897188 1.73134 0
M  V30 2895 O 262.463 -1.63573 1.07799 0
M  V30 2896 H 261.043 0.205645 0.718136 0
M  V30 2897 H 263.705 1.1778 1.55287 0
M  V30 2898 H 262.801 0.76881 3.02483 0
M  V30 2899 N 263.102 -1.41638 0.69111 0
M  V30 2900 C 264.012 -2.34588 0.0233487 0
M  V30 2901 C 265.028 -1.55987 -0.770984 0
M  V30 2902 O 266.204 -1.88486 -0.709569 0
M  V30 2903 C 263.269 -3.34684 -0.904851 0
M  V30 2904 C 262.33 -4.29176 -0.103225 0
M  V30 2905 C 261.563 -5.2449 -0.987216 0
M  V30 2906 O 261.786 -5.2514 -2.22674 0
M  V30 2907 O 260.72 -6.00295 -0.439281 0
M  V30 2908 H 264.546 -2.93261 0.789416 0
M  V30 2909 H 262.131 -1.42417 0.45142 0
M  V30 2910 H 264.013 -3.96133 -1.43724 0
M  V30 2911 H 262.688 -2.78461 -1.65049 0
M  V30 2912 H 261.595 -3.71089 0.473655 0
M  V30 2913 H 262.928 -4.88484 0.60365 0
M  V30 2914 N 264.58 -0.43555 -1.51462 0
M  V30 2915 C 265.51 0.367376 -2.30592 0
M  V30 2916 C 266.491 1.02263 -1.35928 0
M  V30 2917 O 267.676 1.02661 -1.64847 0
M  V30 2918 C 264.806 1.46983 -3.14664 0
M  V30 2919 C 263.76 0.938161 -4.17591 0
M  V30 2920 C 263.086 2.13622 -4.90173 0
M  V30 2921 C 264.386 -0.0261621 -5.22293 0
M  V30 2922 H 266.08 -0.292969 -2.97963 0
M  V30 2923 H 263.626 -0.14234 -1.43295 0
M  V30 2924 H 265.579 2.03873 -3.688 0
M  V30 2925 H 264.303 2.15843 -2.4511 0
M  V30 2926 H 262.962 0.391481 -3.64504 0
M  V30 2927 H 262.61 2.81098 -4.17124 0
M  V30 2928 H 262.31 1.78688 -5.59772 0
M  V30 2929 H 263.834 2.7107 -5.47132 0
M  V30 2930 H 265.248 0.452384 -5.71512 0
M  V30 2931 H 263.645 -0.287992 -5.99409 0
M  V30 2932 H 264.715 -0.963391 -4.75233 0
M  V30 2933 N 266.058 1.56714 -0.166846 0
M  V30 2934 C 267.286 2.0112 0.485644 0
M  V30 2935 C 267.701 1.04705 1.57106 0
M  V30 2936 O 267.058 0.0471923 1.82439 0
M  V30 2937 C 267.109 3.45361 1.06808 0
M  V30 2938 O 266.83 4.38092 0.0259995 0
M  V30 2939 C 268.331 4.05145 1.79924 0
M  V30 2940 H 265.551 0.65931 0.124704 0
M  V30 2941 H 268.095 2.02746 -0.267262 0
M  V30 2942 H 266.25 3.44524 1.7715 0
M  V30 2943 H 266.664 5.22519 0.455398 0
M  V30 2944 H 268.138 5.08009 2.15942 0
M  V30 2945 H 268.615 3.46982 2.69258 0
M  V30 2946 H 269.221 4.09672 1.14234 0
M  V30 2947 N 267.536 -0.106894 1.57237 0
M  V30 2948 C 268.486 -1.1366 1.9765 0
M  V30 2949 C 269.47 -1.36416 0.853203 0
M  V30 2950 O 270.662 -1.37305 1.11697 0
M  V30 2951 C 267.791 -2.46 2.39455 0
M  V30 2952 C 266.877 -2.26668 3.58445 0
M  V30 2953 N 267.268 -1.77176 4.73754 0
M  V30 2954 C 265.566 -2.57279 3.64312 0
M  V30 2955 C 266.267 -1.71836 5.5574 0
M  V30 2956 N 265.243 -2.16623 4.98573 0
M  V30 2957 H 269.045 -0.74669 2.84256 0
M  V30 2958 H 266.559 -0.314483 1.59326 0
M  V30 2959 H 268.556 -3.2049 2.6663 0
M  V30 2960 H 267.216 -2.85738 1.54219 0
M  V30 2961 H 268.227 -1.46545 4.96734 0
M  V30 2962 H 264.904 -3.00622 2.89711 0
M  V30 2963 H 266.294 -1.34723 6.58255 0
M  V30 2964 N 269.014 -1.53014 -0.377408 0
M  V30 2965 C 269.947 -1.73382 -1.48371 0
M  V30 2966 C 270.925 -0.581879 -1.51832 0
M  V30 2967 O 272.109 -0.81307 -1.70063 0
M  V30 2968 C 269.236 -1.80192 -2.8679 0
M  V30 2969 C 268.282 -3.02056 -3.01105 0
M  V30 2970 S 269.115 -4.61811 -2.71093 0
M  V30 2971 C 270.271 -4.71453 -4.11683 0
M  V30 2972 H 270.504 -2.66946 -1.30872 0
M  V30 2973 H 268.037 -1.43453 -0.571012 0
M  V30 2974 H 269.995 -1.84802 -3.6655 0
M  V30 2975 H 268.656 -0.877008 -3.01608 0
M  V30 2976 H 267.849 -3.03396 -4.02451 0
M  V30 2977 H 267.451 -2.95498 -2.29253 0
M  V30 2978 H 269.743 -4.50781 -5.0577 0
M  V30 2979 H 270.686 -5.73487 -4.15353 0
M  V30 2980 H 271.094 -4.00189 -3.98132 0
M  V30 2981 N 270.492 0.636531 -1.44174 0
M  V30 2982 C 271.903 1.21806 -1.41493 0
M  V30 2983 C 272.254 1.95785 -0.1275 0
M  V30 2984 O 271.379 2.02147 0.772376 0
M  V30 2985 C 271.974 2.21551 -2.56321 0
M  V30 2986 C 270.533 2.75143 -2.56853 0
M  V30 2987 C 269.68 1.50052 -2.33195 0
M  V30 2988 H 272.631 0.427531 -1.52833 0
M  V30 2989 H 272.652 3.0405 -2.28765 0
M  V30 2990 H 272.164 1.67679 -3.50008 0
M  V30 2991 H 270.265 3.33033 -1.67093 0
M  V30 2992 H 270.378 3.2155 -3.55165 0
M  V30 2993 H 268.742 1.77993 -1.82183 0
M  V30 2994 H 269.525 0.980903 -3.28988 0
M  V30 2995 N 271.97 1.30982 0.876444 0
M  V30 2996 C 273.247 1.10942 1.61094 0
M  V30 2997 C 273.627 -0.338223 2.08373 0
M  V30 2998 O 272.975 -1.33122 1.85717 0
M  V30 2999 C 273.185 2.11789 2.77392 0
M  V30 3000 C 274.533 2.43965 3.47514 0
M  V30 3001 O 275.557 2.10166 2.87591 0
M  V30 3002 O 274.416 3.01817 4.55597 0
M  V30 3003 H 271.51 0.42667 0.708436 0
M  V30 3004 H 274.056 1.42438 0.922474 0
M  V30 3005 H 272.828 3.09194 2.39823 0
M  V30 3006 H 272.451 1.81161 3.5393 0
M  V30 3007 N 273.449 -1.08991 1.13837 0
M  V30 3008 C 274.679 -1.84743 0.924859 0
M  V30 3009 C 275.087 -1.81629 -0.529874 0
M  V30 3010 O 274.43 -1.21397 -1.37872 0
M  V30 3011 C 274.492 -3.33568 1.34061 0
M  V30 3012 C 274.156 -3.60425 2.80968 0
M  V30 3013 C 275.153 -3.55771 3.79108 0
M  V30 3014 C 272.838 -3.88627 3.18236 0
M  V30 3015 C 274.832 -3.78939 5.12527 0
M  V30 3016 C 272.519 -4.11449 4.51833 0
M  V30 3017 C 273.517 -4.06598 5.48787 0
M  V30 3018 O 273.205 -4.28826 6.79973 0
M  V30 3019 H 272.937 -0.590258 0.329502 0
M  V30 3020 H 275.491 -1.38598 1.51591 0
M  V30 3021 H 273.721 -3.80442 0.692853 0
M  V30 3022 H 275.41 -3.90743 1.09886 0
M  V30 3023 H 276.176 -3.34005 3.51661 0
M  V30 3024 H 272.055 -3.91526 2.43369 0
M  V30 3025 H 275.599 -3.75068 5.88192 0
M  V30 3026 H 271.496 -4.32698 4.79002 0
M  V30 3027 H 272.264 -4.46264 6.86142 0
M  V30 3028 N 274.927 -0.932562 -1.27047 0
M  V30 3029 C 276.338 -0.619451 -1.76124 0
M  V30 3030 C 276.689 0.865397 -1.76083 0
M  V30 3031 O 275.814 1.67722 -1.36742 0
M  V30 3032 C 276.409 -1.11771 -3.19832 0
M  V30 3033 C 274.968 -0.855174 -3.66557 0
M  V30 3034 C 274.115 -1.27362 -2.46321 0
M  V30 3035 H 277.066 -1.11181 -1.13245 0
M  V30 3036 H 277.087 -0.46759 -3.77616 0
M  V30 3037 H 276.599 -2.19842 -3.1983 0
M  V30 3038 H 274.7 0.211524 -3.71999 0
M  V30 3039 H 274.813 -1.47613 -4.55793 0
M  V30 3040 H 273.177 -0.692119 -2.45116 0
M  V30 3041 H 273.96 -2.36307 -2.49025 0
M  V30 3042 N 276.405 1.4127 -0.698611 0
M  V30 3043 C 277.337 2.292 0.00399731 0
M  V30 3044 C 278.35 1.44944 0.741279 0
M  V30 3045 O 279.539 1.68416 0.591477 0
M  V30 3046 C 276.639 3.22875 1.02979 0
M  V30 3047 C 275.812 4.35904 0.36151 0
M  V30 3048 C 274.871 5.10134 1.29033 0
M  V30 3049 O 273.897 5.63809 0.781562 0
M  V30 3050 N 275.099 5.17885 2.6225 0
M  V30 3051 H 277.864 2.9014 -0.750921 0
M  V30 3052 H 275.425 1.52455 -0.544882 0
M  V30 3053 H 277.417 3.69404 1.65296 0
M  V30 3054 H 275.987 2.63221 1.68622 0
M  V30 3055 H 275.207 3.91719 -0.441584 0
M  V30 3056 H 276.495 5.08696 -0.103055 0
M  V30 3057 H 275.893 4.7573 3.061 0
M  V30 3058 H 274.45 5.6798 3.19754 0
M  V30 3059 N 277.883 0.443576 1.51229 0
M  V30 3060 C 278.793 -0.370721 2.31652 0
M  V30 3061 C 279.809 -1.02186 1.40833 0
M  V30 3062 O 280.985 -1.01586 1.73903 0
M  V30 3063 C 278.05 -1.45376 3.14749 0
M  V30 3064 C 277.111 -0.822099 4.21355 0
M  V30 3065 C 276.344 -1.85353 5.0048 0
M  V30 3066 O 276.567 -3.07656 4.80316 0
M  V30 3067 O 275.501 -1.4406 5.84406 0
M  V30 3068 H 279.327 0.286002 3.0235 0
M  V30 3069 H 276.912 0.20598 1.47973 0
M  V30 3070 H 278.794 -2.08173 3.66391 0
M  V30 3071 H 277.469 -2.09445 2.46809 0
M  V30 3072 H 276.376 -0.155909 3.73775 0
M  V30 3073 H 277.709 -0.224797 4.91686 0
M  V30 3074 N 279.361 -1.56624 0.175154 0
M  V30 3075 C 280.609 -1.96609 -0.467885 0
M  V30 3076 C 280.93 -1.06238 -1.63519 0
M  V30 3077 O 280.2 -0.129523 -1.95471 0
M  V30 3078 H 278.78 -0.726008 -0.175845 0
M  V30 3079 H 281.442 -1.93195 0.257234 0
M  V30 3080 H 280.538 -3.00989 -0.825342 0
M  V30 3081 N 280.839 0.0985539 -1.57292 0
M  V30 3082 C 281.802 1.10402 -2.00858 0
M  V30 3083 C 282.802 1.33146 -0.901593 0
M  V30 3084 O 283.992 1.29318 -1.16716 0
M  V30 3085 C 281.124 2.45394 -2.36632 0
M  V30 3086 H 282.317 0.729099 -2.90902 0
M  V30 3087 H 279.87 0.343495 -1.52479 0
M  V30 3088 H 280.605 2.87769 -1.49531 0
M  V30 3089 H 280.39 2.30235 -3.17387 0
M  V30 3090 H 281.88 3.17718 -2.71007 0
M  V30 3091 N 282.317 1.53212 0.369288 0
M  V30 3092 C 283.247 1.82365 1.45826 0
M  V30 3093 C 284.228 0.676907 1.56051 0
M  V30 3094 O 285.413 0.926401 1.70679 0
M  V30 3095 C 282.543 2.01023 2.83208 0
M  V30 3096 C 281.497 3.1678 2.8781 0
M  V30 3097 C 280.823 3.20724 4.27832 0
M  V30 3098 C 282.123 4.55447 2.55667 0
M  V30 3099 H 283.817 2.73559 1.21678 0
M  V30 3100 H 281.363 1.3163 0.583911 0
M  V30 3101 H 283.316 2.20001 3.59413 0
M  V30 3102 H 282.04 1.06536 3.08736 0
M  V30 3103 H 280.699 2.97616 2.14056 0
M  V30 3104 H 280.347 2.23882 4.50429 0
M  V30 3105 H 280.047 3.98496 4.31827 0
M  V30 3106 H 281.571 3.41881 5.05915 0
M  V30 3107 H 282.985 4.74611 3.21586 0
M  V30 3108 H 281.382 5.35432 2.70984 0
M  V30 3109 H 282.452 4.60812 1.5093 0
M  V30 3110 N 283.795 -0.628877 1.44509 0
M  V30 3111 C 285.211 -0.947305 1.28446 0
M  V30 3112 C 285.411 -2.00275 0.221872 0
M  V30 3113 O 284.467 -2.49447 -0.391471 0
M  V30 3114 C 285.78 -1.40843 2.65676 0
M  V30 3115 C 287.328 -1.52379 2.73404 0
M  V30 3116 C 287.803 -2.01875 4.11109 0
M  V30 3117 N 289.294 -2.09142 4.13296 0
M  V30 3118 C 290.029 -2.48615 5.16699 0
M  V30 3119 N 289.525 -2.87209 6.30462 0
M  V30 3120 N 291.318 -2.48768 5.04054 0
M  V30 3121 H 283.469 0.0690977 2.12288 0
M  V30 3122 H 285.732 -0.0317164 0.947469 0
M  V30 3123 H 285.438 -0.707206 3.44516 0
M  V30 3124 H 285.312 -2.37902 2.92716 0
M  V30 3125 H 287.699 -2.21598 1.9488 0
M  V30 3126 H 287.78 -0.536898 2.50102 0
M  V30 3127 H 287.424 -1.3325 4.90109 0
M  V30 3128 H 287.354 -3.0144 4.31789 0
M  V30 3129 H 289.845 -1.81991 3.31191 0
M  V30 3130 H 290.158 -3.16149 7.05174 0
M  V30 3131 H 288.503 -2.84955 6.33897 0
M  V30 3132 H 291.694 -2.18009 4.14234 0
M  V30 3133 H 291.867 -2.79207 5.84763 0
M  V30 3134 N 285.273 -1.31445 -0.869486 0
M  V30 3135 C 286.236 -1.19094 -1.9583 0
M  V30 3136 C 287.236 -0.117906 -1.60367 0
M  V30 3137 O 288.426 -0.367208 -1.70286 0
M  V30 3138 C 285.558 -0.828165 -3.30688 0
M  V30 3139 H 286.751 -2.15842 -2.08212 0
M  V30 3140 H 284.304 -1.15063 -1.05784 0
M  V30 3141 H 285.039 0.138142 -3.24006 0
M  V30 3142 H 284.824 -1.6038 -3.578 0
M  V30 3143 H 286.314 -0.765658 -4.10521 0
M  V30 3144 N 286.751 1.08385 -1.14413 0
M  V30 3145 C 287.999 1.80419 -0.910679 0
M  V30 3146 C 288.32 1.86658 0.564243 0
M  V30 3147 O 287.59 1.35985 1.41014 0
M  V30 3148 H 286.17 0.668204 -0.333934 0
M  V30 3149 H 288.832 1.31037 -1.44275 0
M  V30 3150 H 287.928 2.83238 -1.31082 0
M  V30 3151 N 288.23 0.939286 1.26551 0
M  V30 3152 C 289.18 0.418284 2.2413 0
M  V30 3153 C 290.164 -0.483935 1.5345 0
M  V30 3154 O 291.356 -0.319489 1.74093 0
M  V30 3155 C 288.485 -0.31709 3.41832 0
M  V30 3156 C 287.571 0.602311 4.19801 0
M  V30 3157 N 287.962 1.72726 4.75394 0
M  V30 3158 C 286.26 0.407534 4.44134 0
M  V30 3159 C 286.961 2.30004 5.34297 0
M  V30 3160 N 285.937 1.58828 5.1988 0
M  V30 3161 H 289.739 1.27705 2.64705 0
M  V30 3162 H 287.253 0.794929 1.41614 0
M  V30 3163 H 289.25 -0.707364 4.10855 0
M  V30 3164 H 287.91 -1.17264 3.02786 0
M  V30 3165 H 288.921 2.10944 4.72994 0
M  V30 3166 H 285.598 -0.406406 4.15517 0
M  V30 3167 H 286.988 3.24778 5.88191 0
M  V30 3168 N 289.708 -1.40897 0.706093 0
M  V30 3169 C 290.957 -2.00284 0.238574 0
M  V30 3170 C 291.27 -1.56604 -1.17194 0
M  V30 3171 O 292.476 -2.08624 -1.73748 0
M  V30 3172 C 290.932 -3.57934 0.375623 0
M  V30 3173 C 290.54 -4.10591 1.79217 0
M  V30 3174 C 292.284 -4.24488 -0.0315857 0
M  V30 3175 C 290.191 -5.60712 1.88032 0
M  V30 3176 H 289.121 -0.749144 0.0854398 0
M  V30 3177 H 291.772 -1.61251 0.875813 0
M  V30 3178 H 290.154 -3.94622 -0.330042 0
M  V30 3179 H 291.328 -3.85301 2.52745 0
M  V30 3180 H 289.643 -3.56601 2.15 0
M  V30 3181 H 292.24 -5.34698 0.0136842 0
M  V30 3182 H 292.583 -4.02261 -1.072 0
M  V30 3183 H 293.116 -3.92873 0.624181 0
M  V30 3184 H 289.855 -5.87781 2.90161 0
M  V30 3185 H 289.375 -5.87896 1.18903 0
M  V30 3186 H 291.054 -6.25658 1.64805 0
M  V30 3187 N 291.186 -0.45159 -1.50991 0
M  V30 3188 C 292.597 0.00818571 -1.86698 0
M  V30 3189 C 292.948 1.40661 -1.3678 0
M  V30 3190 O 292.073 2.0391 -0.724546 0
M  V30 3191 C 292.668 0.0216303 -3.38793 0
M  V30 3192 C 291.227 0.425865 -3.73983 0
M  V30 3193 C 290.374 -0.372163 -2.74791 0
M  V30 3194 H 293.325 -0.666785 -1.44013 0
M  V30 3195 H 293.346 0.828078 -3.7138 0
M  V30 3196 H 292.858 -0.996288 -3.75094 0
M  V30 3197 H 290.959 1.44886 -3.43277 0
M  V30 3198 H 291.072 0.140761 -4.78893 0
M  V30 3199 H 289.436 0.171498 -2.54122 0
M  V30 3200 H 290.219 -1.38922 -3.13935 0
M  V30 3201 N 292.664 1.56529 -0.183458 0
M  V30 3202 C 293.912 1.96855 0.457452 0
M  V30 3203 C 294.233 1.07104 1.62953 0
M  V30 3204 O 293.503 0.139887 1.954 0
M  V30 3205 H 292.083 0.72693 0.171992 0
M  V30 3206 H 294.745 1.93056 -0.267476 0
M  V30 3207 H 293.841 3.01423 0.809368 0
M  V30 3208 N 294.142 -0.090211 1.57342 0
M  V30 3209 C 295.105 -1.09335 2.01441 0
M  V30 3210 C 296.105 -1.32666 0.908641 0
M  V30 3211 O 297.295 -1.28697 1.174 0
M  V30 3212 C 294.427 -2.44136 2.3793 0
M  V30 3213 H 295.62 -0.713662 2.91285 0
M  V30 3214 H 293.173 -0.335404 1.52659 0
M  V30 3215 H 293.908 -2.86972 1.51055 0
M  V30 3216 H 293.693 -2.28548 3.18603 0
M  V30 3217 H 295.183 -3.16277 2.72688 0
M  V30 3218 N 295.62 -1.53406 -0.361157 0
M  V30 3219 C 296.567 -1.80156 -1.44265 0
M  V30 3220 C 297.537 -0.646183 -1.53015 0
M  V30 3221 O 298.722 -0.888818 -1.68833 0
M  V30 3222 C 295.862 -2.00116 -2.81154 0
M  V30 3223 C 294.975 -3.27833 -2.81335 0
M  V30 3224 C 294.11 -3.37957 -4.09828 0
M  V30 3225 C 293.149 -4.59689 -4.04168 0
M  V30 3226 N 292.286 -4.66942 -5.24318 0
M  V30 3227 H 297.126 -2.72438 -1.20754 0
M  V30 3228 H 294.663 -1.34954 -0.585296 0
M  V30 3229 H 296.621 -2.09677 -3.60682 0
M  V30 3230 H 295.251 -1.11167 -3.03054 0
M  V30 3231 H 294.303 -3.27204 -1.94014 0
M  V30 3232 H 295.615 -4.17442 -2.73027 0
M  V30 3233 H 294.769 -3.46853 -4.97773 0
M  V30 3234 H 293.508 -2.46372 -4.20894 0
M  V30 3235 H 292.513 -4.50889 -3.14609 0
M  V30 3236 H 293.738 -5.5262 -3.947 0
M  V30 3237 H 291.684 -3.7826 -5.35962 0
M  V30 3238 H 291.601 -5.50462 -5.18197 0
M  V30 3239 H 292.869 -4.80127 -6.14084 0
M  V30 3240 N 297.098 0.621204 -1.44841 0
M  V30 3241 C 298.046 1.75385 -1.52784 0
M  V30 3242 C 299.04 1.64639 -0.398779 0
M  V30 3243 O 300.246 1.70598 -0.574137 0
M  V30 3244 H 296.621 0.579193 -0.479625 0
M  V30 3245 H 298.592 1.6581 -2.48092 0
M  V30 3246 C 297.341 3.13742 -1.4987 0
M  V30 3247 H 296.664 3.22663 -2.36069 0
M  V30 3248 H 298.104 3.92861 -1.59487 0
M  V30 3249 C 296.563 3.36175 -0.220973 0
M  V30 3250 O 297.093 3.95469 0.704782 0
M  V30 3251 N 295.299 2.90348 -0.120963 0
M  V30 3252 H 294.846 2.42278 -0.875162 0
M  V30 3253 H 294.804 3.05732 0.733168 0
M  V30 3254 N 298.576 1.31904 0.862503 0
M  V30 3255 C 299.825 1.21373 1.61094 0
M  V30 3256 C 300.138 -0.22504 1.94301 0
M  V30 3257 O 301.344 -0.452121 2.67709 0
M  V30 3258 C 299.8 2.12525 2.9045 0
M  V30 3259 C 299.408 3.61441 2.64697 0
M  V30 3260 C 301.152 2.10813 3.68454 0
M  V30 3261 C 299.059 4.44578 3.90006 0
M  V30 3262 H 297.989 0.450705 0.604468 0
M  V30 3263 H 300.64 1.56811 0.953027 0
M  V30 3264 H 299.022 1.69994 3.57656 0
M  V30 3265 H 300.196 4.12264 2.05851 0
M  V30 3266 H 298.511 3.65205 2.00036 0
M  V30 3267 H 301.108 2.70167 4.61426 0
M  V30 3268 H 301.451 1.09713 4.01583 0
M  V30 3269 H 301.984 2.51583 3.08141 0
M  V30 3270 H 298.723 5.46461 3.62023 0
M  V30 3271 H 298.243 3.98508 4.48276 0
M  V30 3272 H 299.922 4.57176 4.5782 0
M  V30 3273 N 300.054 -1.07777 1.14986 0
M  V30 3274 C 301.465 -1.61766 0.932127 0
M  V30 3275 C 301.816 -1.88974 -0.527581 0
M  V30 3276 O 300.941 -1.65198 -1.39781 0
M  V30 3277 C 301.536 -2.93891 1.68563 0
M  V30 3278 C 300.095 -3.44639 1.5133 0
M  V30 3279 C 299.242 -2.18767 1.704 0
M  V30 3280 H 302.193 -0.909201 1.30074 0
M  V30 3281 H 302.214 -3.62623 1.15259 0
M  V30 3282 H 301.726 -2.74057 2.74799 0
M  V30 3283 H 299.827 -3.69564 0.474702 0
M  V30 3284 H 299.94 -4.20966 2.28746 0
M  V30 3285 H 298.304 -2.28253 1.13016 0
M  V30 3286 H 299.087 -2.01433 2.77992 0
M  V30 3287 N 301.532 -0.945985 -1.26051 0
M  V30 3288 C 302.778 -0.606539 -1.94146 0
M  V30 3289 C 303.133 0.84586 -1.72809 0
M  V30 3290 O 302.426 1.59781 -1.05738 0
M  V30 3291 C 302.62 -0.890475 -3.46129 0
M  V30 3292 C 302.449 -2.36892 -3.82246 0
M  V30 3293 C 301.219 -3.02494 -4.04753 0
M  V30 3294 C 303.417 -3.34772 -3.90425 0
M  V30 3295 N 301.399 -4.40302 -4.27794 0
M  V30 3296 C 302.77 -4.57855 -4.18054 0
M  V30 3297 C 304.825 -3.2973 -3.73072 0
M  V30 3298 C 303.528 -5.76522 -4.30134 0
M  V30 3299 C 305.554 -4.47727 -3.86386 0
M  V30 3300 C 304.916 -5.69593 -4.14419 0
M  V30 3301 H 301.015 -0.272407 -0.73302 0
M  V30 3302 H 303.599 -1.21638 -1.52027 0
M  V30 3303 H 301.77 -0.309638 -3.87164 0
M  V30 3304 H 303.502 -0.51181 -4.01451 0
M  V30 3305 H 300.257 -2.53095 -4.003 0
M  V30 3306 H 300.681 -5.11646 -4.43337 0
M  V30 3307 H 305.323 -2.36565 -3.50424 0
M  V30 3308 H 303.041 -6.70136 -4.51601 0
M  V30 3309 H 306.627 -4.45363 -3.74356 0
M  V30 3310 H 305.507 -6.59375 -4.24493 0
M  V30 3311 N 303.011 1.40521 -0.713556 0
M  V30 3312 C 303.974 2.29098 -0.0684347 0
M  V30 3313 C 304.974 1.45268 0.689472 0
M  V30 3314 O 306.164 1.66205 0.521677 0
M  V30 3315 C 303.296 3.28446 0.913024 0
M  V30 3316 H 304.489 2.87645 -0.84855 0
M  V30 3317 H 302.042 1.48809 -0.47809 0
M  V30 3318 H 302.777 2.74913 1.72027 0
M  V30 3319 H 302.562 3.90327 0.372472 0
M  V30 3320 H 304.052 3.94777 1.36165 0
M  V30 3321 N 304.489 0.459591 1.5075 0
M  V30 3322 C 305.436 -0.340524 2.28274 0
M  V30 3323 C 306.406 -0.997371 1.32822 0
M  V30 3324 O 307.591 -1.01202 1.61749 0
M  V30 3325 C 304.731 -1.42317 3.14388 0
M  V30 3326 C 303.844 -0.782251 4.24859 0
M  V30 3327 C 302.979 -1.84182 4.98247 0
M  V30 3328 C 302.018 -1.18053 6.00608 0
M  V30 3329 N 301.155 -2.18244 6.67319 0
M  V30 3330 H 305.995 0.326899 2.96202 0
M  V30 3331 H 303.532 0.173057 1.46078 0
M  V30 3332 H 305.49 -2.06241 3.62658 0
M  V30 3333 H 304.12 -2.05992 2.4853 0
M  V30 3334 H 303.172 -0.0307404 3.80388 0
M  V30 3335 H 304.484 -0.259663 4.98124 0
M  V30 3336 H 303.638 -2.55714 5.50177 0
M  V30 3337 H 302.377 -2.39819 4.24662 0
M  V30 3338 H 301.382 -0.450776 5.47949 0
M  V30 3339 H 302.607 -0.631202 6.7616 0
M  V30 3340 H 300.553 -2.72919 5.96533 0
M  V30 3341 H 300.47 -1.70938 7.36421 0
M  V30 3342 H 301.738 -2.89191 7.23871 0
M  V30 3343 N 305.967 -1.56429 0.191757 0
M  V30 3344 C 306.93 -2.17707 -0.716688 0
M  V30 3345 C 307.93 -1.13061 -1.14341 0
M  V30 3346 O 309.12 -1.38464 -1.05704 0
M  V30 3347 C 306.252 -2.77644 -1.97804 0
M  V30 3348 H 307.445 -2.99342 -0.1829 0
M  V30 3349 H 304.998 -1.56193 -0.0578566 0
M  V30 3350 H 305.733 -1.99799 -2.55443 0
M  V30 3351 H 305.518 -3.54246 -1.68083 0
M  V30 3352 H 307.008 -3.24708 -2.62592 0
M  V30 3353 N 307.445 0.0818655 -1.57387 0
M  V30 3354 C 308.691 0.784074 -1.8703 0
M  V30 3355 C 309.024 1.77729 -0.782689 0
M  V30 3356 O 308.299 1.93384 0.208051 0
M  V30 3357 C 308.582 1.50105 -3.27323 0
M  V30 3358 C 308.435 0.524925 -4.46727 0
M  V30 3359 C 309.754 2.44843 -3.65705 0
M  V30 3360 H 306.873 0.283582 -0.680257 0
M  V30 3361 H 309.515 0.0474352 -1.89941 0
M  V30 3362 H 307.665 2.12897 -3.24972 0
M  V30 3363 H 309.337 -0.0970111 -4.61198 0
M  V30 3364 H 307.58 -0.160606 -4.33503 0
M  V30 3365 H 308.251 1.064 -5.41648 0
M  V30 3366 H 310.727 1.92135 -3.69085 0
M  V30 3367 H 309.603 2.92018 -4.64776 0
M  V30 3368 H 309.864 3.29197 -2.95096 0
M  V30 3369 N 308.923 1.53595 0.353017 0
M  V30 3370 C 309.871 1.81605 1.45335 0
M  V30 3371 C 310.865 0.685923 1.54892 0
M  V30 3372 O 312.071 0.869095 1.57628 0
M  V30 3373 H 308.446 0.575204 0.484401 0
M  V30 3374 H 310.417 2.73679 1.18921 0
M  V30 3375 C 309.166 2.03406 2.81995 0
M  V30 3376 H 308.489 2.89814 2.75405 0
M  V30 3377 H 309.929 2.26975 3.58132 0
M  V30 3378 C 308.388 0.816794 3.26849 0
M  V30 3379 O 308.918 0.0115856 4.01698 0
M  V30 3380 N 307.124 0.636682 2.8354 0
M  V30 3381 H 306.671 1.2931 2.22793 0
M  V30 3382 H 306.629 -0.176336 3.13905 0
M  V30 3383 N 310.401 -0.613514 1.45168 0
M  V30 3384 C 311.812 -1.19539 1.43413 0
M  V30 3385 C 312.163 -1.95558 0.158632 0
M  V30 3386 O 311.288 -2.0335 -0.740119 0
M  V30 3387 C 311.883 -2.17445 2.59813 0
M  V30 3388 C 310.442 -2.71022 2.61197 0
M  V30 3389 C 309.589 -1.46323 2.35552 0
M  V30 3390 H 312.54 -0.403163 1.53494 0
M  V30 3391 H 312.561 -3.00373 2.33574 0
M  V30 3392 H 312.073 -1.62089 3.52631 0
M  V30 3393 H 310.174 -3.30332 1.7237 0
M  V30 3394 H 310.287 -3.15859 3.60236 0
M  V30 3395 H 308.651 -1.75072 1.84992 0
M  V30 3396 H 309.434 -0.92844 3.30507 0
M  V30 3397 N 311.879 -1.3236 -0.855495 0
M  V30 3398 C 313.156 -1.13491 -1.59309 0
M  V30 3399 C 313.536 0.30503 -2.08885 0
M  V30 3400 O 312.884 1.30151 -1.87811 0
M  V30 3401 C 313.094 -2.16176 -2.73987 0
M  V30 3402 C 314.442 -2.49463 -3.43589 0
M  V30 3403 O 315.466 -2.14715 -2.84211 0
M  V30 3404 O 314.325 -3.09027 -4.50738 0
M  V30 3405 H 311.419 -0.437887 -0.701559 0
M  V30 3406 H 313.965 -1.43887 -0.899696 0
M  V30 3407 H 312.737 -3.1297 -2.34873 0
M  V30 3408 H 312.36 -1.86769 -3.51003 0
M  V30 3409 N 313.357 1.07166 -1.15556 0
M  V30 3410 C 314.605 1.79443 -0.929764 0
M  V30 3411 C 314.926 1.87246 0.544414 0
M  V30 3412 O 314.196 1.37473 1.39564 0
M  V30 3413 H 312.776 0.664625 -0.341003 0
M  V30 3414 H 315.438 1.29499 -1.45657 0
M  V30 3415 H 314.534 2.81832 -1.34079 0
M  V30 3416 N 314.835 0.952656 1.25548 0
M  V30 3417 C 316.063 0.623496 1.97282 0
M  V30 3418 C 316.478 -0.803987 1.70826 0
M  V30 3419 O 315.835 -1.53755 0.983147 0
M  V30 3420 C 315.886 0.870209 3.5087 0
M  V30 3421 O 315.607 2.24156 3.76412 0
M  V30 3422 C 317.108 0.553164 4.39835 0
M  V30 3423 H 314.328 0.233931 0.628902 0
M  V30 3424 H 316.872 1.27649 1.59768 0
M  V30 3425 H 315.027 0.263652 3.86502 0
M  V30 3426 H 315.441 2.31021 4.70882 0
M  V30 3427 H 316.915 0.776342 5.46513 0
M  V30 3428 H 317.392 -0.512215 4.36203 0
M  V30 3429 H 317.998 1.13896 4.09766 0
M  V30 3430 N 316.313 -1.40141 0.720998 0
M  V30 3431 C 317.56 -2.00787 0.262842 0
M  V30 3432 C 317.888 -1.5718 -1.14563 0
M  V30 3433 O 317.143 -0.785391 -1.79249 0
M  V30 3434 C 317.442 -3.56165 0.296892 0
M  V30 3435 C 317.108 -4.19373 1.65641 0
M  V30 3436 C 315.77 -4.36352 2.02855 0
M  V30 3437 C 318.122 -4.54578 2.54968 0
M  V30 3438 C 315.45 -4.8582 3.28931 0
M  V30 3439 C 317.802 -5.05447 3.80402 0
M  V30 3440 C 316.466 -5.20635 4.17726 0
M  V30 3441 H 315.736 -0.734731 0.0961807 0
M  V30 3442 H 318.383 -1.67673 0.925093 0
M  V30 3443 H 316.688 -3.8922 -0.448932 0
M  V30 3444 H 318.385 -4.00929 -0.0755208 0
M  V30 3445 H 314.975 -4.06549 1.35704 0
M  V30 3446 H 319.159 -4.41091 2.27491 0
M  V30 3447 H 314.415 -4.95764 3.57811 0
M  V30 3448 H 318.589 -5.31663 4.49786 0
M  V30 3449 H 316.216 -5.58728 5.15487 0
M  V30 3450 N 317.792 -0.46758 -1.50504 0
M  V30 3451 C 318.739 0.328413 -2.28452 0
M  V30 3452 C 319.709 0.990313 -1.33349 0
M  V30 3453 O 320.894 1.00343 -1.62284 0
M  V30 3454 C 318.034 1.40648 -3.15138 0
M  V30 3455 C 317.147 0.759709 -4.25267 0
M  V30 3456 C 316.282 1.81537 -4.99217 0
M  V30 3457 C 315.321 1.14866 -6.01226 0
M  V30 3458 N 314.458 2.14702 -6.68467 0
M  V30 3459 H 319.298 -0.342603 -2.96024 0
M  V30 3460 H 316.835 -0.180801 -1.45985 0
M  V30 3461 H 318.793 2.04315 -3.63746 0
M  V30 3462 H 317.423 2.04671 -2.49619 0
M  V30 3463 H 316.475 0.0105671 -3.80399 0
M  V30 3464 H 317.787 0.233243 -4.98254 0
M  V30 3465 H 316.941 2.52793 -5.51526 0
M  V30 3466 H 315.68 2.37564 -4.25928 0
M  V30 3467 H 314.685 0.42171 -5.4818 0
M  V30 3468 H 315.91 0.595334 -6.76485 0
M  V30 3469 H 313.856 2.69752 -5.97972 0
M  V30 3470 H 313.773 1.6703 -7.37317 0
M  V30 3471 H 315.041 2.85348 -7.25394 0
M  V30 3472 N 319.27 1.56325 -0.20005 0
M  V30 3473 C 320.495 2.02548 0.44597 0
M  V30 3474 C 320.92 1.07922 1.5406 0
M  V30 3475 O 320.278 0.0635775 1.81188 0
M  V30 3476 C 320.326 3.47175 0.974761 0
M  V30 3477 O 319.43 3.55671 2.08739 0
M  V30 3478 H 318.771 0.655862 0.103638 0
M  V30 3479 H 321.301 2.02201 -0.312381 0
M  V30 3480 H 321.311 3.87067 1.2901 0
M  V30 3481 H 319.986 4.15538 0.17347 0
M  V30 3482 H 318.563 3.27657 1.78032 0
M  V30 3483 N 320.748 -0.0735177 1.57428 0
M  V30 3484 C 321.711 -1.07192 2.02589 0
M  V30 3485 C 322.711 -1.31695 0.922661 0
M  V30 3486 O 323.901 -1.27445 1.18758 0
M  V30 3487 C 321.033 -2.41599 2.40506 0
M  V30 3488 H 322.226 -0.682727 2.92025 0
M  V30 3489 H 319.779 -0.319193 1.53006 0
M  V30 3490 H 320.514 -2.85354 1.5409 0
M  V30 3491 H 320.299 -2.25156 3.21009 0
M  V30 3492 H 321.789 -3.13367 2.76027 0
M  V30 3493 N 322.226 -1.5378 -0.344866 0
M  V30 3494 C 323.136 -1.84667 -1.4469 0
M  V30 3495 C 324.152 -0.736704 -1.57635 0
M  V30 3496 O 325.328 -1.02888 -1.73136 0
M  V30 3497 C 322.393 -2.04869 -2.79696 0
M  V30 3498 C 321.454 -3.28731 -2.76106 0
M  V30 3499 C 320.687 -3.4796 -4.04673 0
M  V30 3500 O 320.91 -2.71052 -5.01883 0
M  V30 3501 O 319.844 -4.41383 -4.09224 0
M  V30 3502 H 323.67 -2.78334 -1.21506 0
M  V30 3503 H 321.255 -1.39418 -0.536921 0
M  V30 3504 H 323.137 -2.19609 -3.59652 0
M  V30 3505 H 321.812 -1.14391 -3.02814 0
M  V30 3506 H 320.719 -3.19396 -1.94774 0
M  V30 3507 H 322.052 -4.19198 -2.57941 0
M  V30 3508 N 323.704 0.605807 -1.45491 0
M  V30 3509 C 324.614 1.74466 -1.56839 0
M  V30 3510 C 325.63 1.68006 -0.452772 0
M  V30 3511 O 326.806 1.8833 -0.713708 0
M  V30 3512 C 323.871 3.10931 -1.53371 0
M  V30 3513 C 322.932 3.28832 -2.75986 0
M  V30 3514 C 322.165 4.58787 -2.72673 0
M  V30 3515 O 322.388 5.4122 -1.80102 0
M  V30 3516 O 321.322 4.79438 -3.63899 0
M  V30 3517 H 325.148 1.67843 -2.53106 0
M  V30 3518 H 322.733 0.770108 -1.28022 0
M  V30 3519 H 324.615 3.92233 -1.54051 0
M  V30 3520 H 323.29 3.18042 -0.602572 0
M  V30 3521 H 322.197 2.47112 -2.80867 0
M  V30 3522 H 323.53 3.26599 -3.68231 0
M  V30 3523 N 325.182 1.32811 0.848464 0
M  V30 3524 C 326.112 1.24882 1.97299 0
M  V30 3525 C 327.093 0.131357 1.69592 0
M  V30 3526 O 328.278 0.319553 1.91553 0
M  V30 3527 C 325.408 0.97746 3.33261 0
M  V30 3528 C 324.362 2.05682 3.75338 0
M  V30 3529 C 323.688 1.63777 5.09 0
M  V30 3530 C 324.988 3.47254 3.90144 0
M  V30 3531 H 326.682 2.18966 2.04191 0
M  V30 3532 H 324.228 1.05413 0.981029 0
M  V30 3533 H 326.181 0.908513 4.1149 0
M  V30 3534 H 324.905 0.000980011 3.266 0
M  V30 3535 H 323.564 2.11603 2.99366 0
M  V30 3536 H 323.212 0.648569 4.98801 0
M  V30 3537 H 322.912 2.36 5.38124 0
M  V30 3538 H 324.436 1.5833 5.89715 0
M  V30 3539 H 325.85 3.43888 4.58709 0
M  V30 3540 H 324.247 4.1788 4.30693 0
M  V30 3541 H 325.317 3.86462 2.92874 0
M  V30 3542 N 326.66 -1.06551 1.16123 0
M  V30 3543 C 328.076 -1.3142 0.905585 0
M  V30 3544 C 328.276 -1.96571 -0.442964 0
M  V30 3545 O 327.332 -2.23068 -1.18308 0
M  V30 3546 C 328.645 -2.19741 2.05267 0
M  V30 3547 C 330.193 -2.33165 2.08813 0
M  V30 3548 C 330.668 -3.24838 3.22868 0
M  V30 3549 N 332.159 -3.32421 3.22568 0
M  V30 3550 C 332.894 -4.0344 4.0746 0
M  V30 3551 N 332.39 -4.77003 5.02434 0
M  V30 3552 N 334.183 -3.99464 3.95456 0
M  V30 3553 H 326.334 -0.626548 2.02949 0
M  V30 3554 H 328.597 -0.338777 0.8854 0
M  V30 3555 H 328.303 -1.79142 3.02657 0
M  V30 3556 H 328.177 -3.20313 1.99198 0
M  V30 3557 H 330.564 -2.73013 1.12018 0
M  V30 3558 H 330.645 -1.3227 2.18948 0
M  V30 3559 H 330.289 -2.85708 4.19921 0
M  V30 3560 H 330.219 -4.25707 3.0997 0
M  V30 3561 H 332.71 -2.79994 2.53795 0
M  V30 3562 H 333.023 -5.28712 5.63634 0
M  V30 3563 H 331.368 -4.75992 5.06415 0
M  V30 3564 H 334.559 -3.4111 3.20564 0
M  V30 3565 H 334.732 -4.54544 4.61837 0
M  V30 3566 N 328.138 -0.959301 -1.25041 0
M  V30 3567 C 329.101 -0.487677 -2.23952 0
M  V30 3568 C 330.101 0.41119 -1.55454 0
M  V30 3569 O 331.291 0.207825 -1.72956 0
M  V30 3570 C 328.423 0.294807 -3.39623 0
M  V30 3571 H 329.616 -1.36198 -2.67189 0
M  V30 3572 H 327.169 -0.743042 -1.37508 0
M  V30 3573 H 327.904 1.18658 -3.01813 0
M  V30 3574 H 327.689 -0.35012 -3.90534 0
M  V30 3575 H 329.179 0.614089 -4.1306 0
M  V30 3576 N 329.616 1.39756 -0.72842 0
M  V30 3577 C 330.546 2.33289 -0.0991354 0
M  V30 3578 C 331.527 1.53568 0.731489 0
M  V30 3579 O 332.712 1.81987 0.677807 0
M  V30 3580 C 329.842 3.3763 0.813834 0
M  V30 3581 C 328.796 4.2791 0.0878663 0
M  V30 3582 C 328.122 5.22894 1.11741 0
M  V30 3583 C 329.422 5.11314 -1.06563 0
M  V30 3584 H 331.116 2.86163 -0.880408 0
M  V30 3585 H 328.662 1.37591 -0.424819 0
M  V30 3586 H 330.615 4.0201 1.26355 0
M  V30 3587 H 329.339 2.83181 1.62715 0
M  V30 3588 H 327.998 3.65 -0.342159 0
M  V30 3589 H 327.646 4.64744 1.92412 0
M  V30 3590 H 327.346 5.84143 0.636477 0
M  V30 3591 H 328.87 5.90151 1.56697 0
M  V30 3592 H 330.284 5.69076 -0.694671 0
M  V30 3593 H 328.681 5.81671 -1.47577 0
M  V30 3594 H 329.751 4.46534 -1.89038 0
M  V30 3595 N 331.094 0.475555 1.50254 0
M  V30 3596 C 332.324 -0.0753399 2.06463 0
M  V30 3597 C 332.732 -1.33661 1.33908 0
M  V30 3598 O 332.075 -1.79219 0.403257 0
M  V30 3599 C 332.137 -0.424921 3.5698 0
M  V30 3600 C 331.801 0.734965 4.51051 0
M  V30 3601 C 332.798 1.61827 4.94073 0
M  V30 3602 C 330.483 0.926557 4.9368 0
M  V30 3603 C 332.477 2.67754 5.78434 0
M  V30 3604 C 330.164 1.98904 5.77824 0
M  V30 3605 C 331.162 2.8629 6.20103 0
M  V30 3606 O 330.85 3.90708 7.02568 0
M  V30 3607 H 330.582 0.00576308 0.675975 0
M  V30 3608 H 333.136 0.664662 1.94349 0
M  V30 3609 H 331.366 -1.21817 3.67012 0
M  V30 3610 H 333.055 -0.911422 3.95535 0
M  V30 3611 H 333.821 1.48196 4.61804 0
M  V30 3612 H 329.7 0.25584 4.6029 0
M  V30 3613 H 333.244 3.35992 6.11355 0
M  V30 3614 H 329.141 2.12541 6.09505 0
M  V30 3615 H 329.909 3.87751 7.20827 0
M  V30 3616 N 332.573 -1.56217 0.208337 0
M  V30 3617 C 333.483 -2.23316 -0.718836 0
M  V30 3618 C 334.499 -1.23648 -1.22422 0
M  V30 3619 O 335.675 -1.56423 -1.26861 0
M  V30 3620 C 332.74 -2.88968 -1.91568 0
M  V30 3621 C 331.801 -4.03943 -1.45357 0
M  V30 3622 C 331.034 -4.66455 -2.59337 0
M  V30 3623 O 331.257 -4.27919 -3.77149 0
M  V30 3624 O 330.191 -5.55686 -2.31293 0
M  V30 3625 H 334.017 -3.03182 -0.177315 0
M  V30 3626 H 331.602 -1.49384 -0.0215402 0
M  V30 3627 H 333.484 -3.30455 -2.61491 0
M  V30 3628 H 332.159 -2.12071 -2.44556 0
M  V30 3629 H 331.066 -3.67052 -0.722746 0
M  V30 3630 H 332.399 -4.82543 -0.970219 0
M  V30 3631 N 334.051 0.0651679 -1.57465 0
M  V30 3632 C 335.462 0.616213 -1.76238 0
M  V30 3633 C 335.813 1.7756 -0.834689 0
M  V30 3634 O 334.938 2.1639 -0.0204156 0
M  V30 3635 C 335.533 1.12462 -3.1959 0
M  V30 3636 C 334.092 1.62147 -3.39684 0
M  V30 3637 C 333.239 0.543739 -2.71917 0
M  V30 3638 H 336.19 -0.161022 -1.57881 0
M  V30 3639 H 336.211 1.99324 -3.24114 0
M  V30 3640 H 335.723 0.280592 -3.87084 0
M  V30 3641 H 333.824 2.48854 -2.77313 0
M  V30 3642 H 333.937 1.69385 -4.48158 0
M  V30 3643 H 332.301 0.990352 -2.34657 0
M  V30 3644 H 333.084 -0.290216 -3.42071 0
M  V30 3645 N 335.529 1.53961 0.336706 0
M  V30 3646 C 336.459 1.85417 1.41925 0
M  V30 3647 C 337.44 0.709856 1.5458 0
M  V30 3648 O 338.625 0.962396 1.68676 0
M  V30 3649 C 335.755 2.06985 2.78881 0
M  V30 3650 C 334.709 3.22813 2.81026 0
M  V30 3651 C 334.035 3.29727 4.20932 0
M  V30 3652 C 335.335 4.60767 2.45949 0
M  V30 3653 H 337.029 2.76079 1.15848 0
M  V30 3654 H 334.575 1.32839 0.555859 0
M  V30 3655 H 336.528 2.27575 3.54665 0
M  V30 3656 H 335.252 1.13061 3.06406 0
M  V30 3657 H 333.911 3.0209 2.07695 0
M  V30 3658 H 333.559 2.33385 4.45579 0
M  V30 3659 H 333.259 4.07566 4.23277 0
M  V30 3660 H 334.783 3.52536 4.98549 0
M  V30 3661 H 336.197 4.81325 3.11446 0
M  V30 3662 H 334.594 5.4106 2.59566 0
M  V30 3663 H 335.664 4.6391 1.41122 0
M  V30 3664 N 337.007 -0.598083 1.45811 0
M  V30 3665 C 338.255 -1.35413 1.50026 0
M  V30 3666 C 338.576 -1.94444 0.147177 0
M  V30 3667 O 337.846 -1.77701 -0.824571 0
M  V30 3668 H 336.426 -0.502727 0.552517 0
M  V30 3669 H 339.088 -0.701606 1.81834 0
M  V30 3670 H 338.184 -2.16871 2.2444 0
M  V30 3671 N 338.485 -1.33259 -0.841409 0
M  V30 3672 C 339.734 -1.23921 -1.59143 0
M  V30 3673 C 340.047 0.1941 -1.94635 0
M  V30 3674 O 341.253 0.409474 -2.68394 0
M  V30 3675 C 339.709 -2.17119 -2.87032 0
M  V30 3676 C 339.317 -3.65606 -2.58914 0
M  V30 3677 C 341.061 -2.16648 -3.65053 0
M  V30 3678 C 338.968 -4.50726 -3.82884 0
M  V30 3679 H 337.898 -0.460264 -0.597221 0
M  V30 3680 H 340.549 -1.58307 -0.927959 0
M  V30 3681 H 338.931 -1.75663 -3.54906 0
M  V30 3682 H 340.105 -4.15487 -1.99267 0
M  V30 3683 H 338.42 -3.68341 -1.942 0
M  V30 3684 H 341.017 -2.77474 -4.57069 0
M  V30 3685 H 341.36 -1.16088 -3.99787 0
M  V30 3686 H 341.893 -2.56453 -3.041 0
M  V30 3687 H 338.632 -5.52151 -3.53283 0
M  V30 3688 H 338.152 -4.0559 -4.41879 0
M  V30 3689 H 339.831 -4.64401 -4.50489 0
M  V30 3690 N 339.963 1.05934 -1.16686 0
M  V30 3691 C 341.191 1.8249 -0.974929 0
M  V30 3692 C 341.606 1.82679 0.476861 0
M  V30 3693 O 340.963 1.2486 1.33103 0
M  V30 3694 C 341.014 3.28943 -1.49929 0
M  V30 3695 O 340.735 3.28886 -2.89423 0
M  V30 3696 C 342.236 4.22215 -1.35089 0
M  V30 3697 H 339.456 0.575295 -0.345365 0
M  V30 3698 H 342 1.33631 -1.548 0
M  V30 3699 H 340.155 3.751 -0.968423 0
M  V30 3700 H 340.569 4.20493 -3.13506 0
M  V30 3701 H 342.043 5.22987 -1.76603 0
M  V30 3702 H 342.52 4.38195 -0.296935 0
M  V30 3703 H 343.126 3.81907 -1.87155 0
M  V30 3704 N 341.441 0.965919 1.2453 0
M  V30 3705 C 342.388 0.49402 2.25451 0
M  V30 3706 C 343.358 -0.45948 1.59618 0
M  V30 3707 O 344.543 -0.370238 1.87173 0
M  V30 3708 C 341.683 -0.211359 3.44452 0
M  V30 3709 C 340.796 0.7807 4.24887 0
M  V30 3710 C 339.931 0.0516105 5.31175 0
M  V30 3711 C 338.97 1.03385 6.03306 0
M  V30 3712 N 338.107 0.334887 7.01301 0
M  V30 3713 H 342.947 1.35946 2.65184 0
M  V30 3714 H 340.484 0.681515 1.3036 0
M  V30 3715 H 342.442 -0.637 4.12308 0
M  V30 3716 H 341.072 -1.04077 3.05562 0
M  V30 3717 H 340.124 1.32479 3.56586 0
M  V30 3718 H 341.436 1.52978 4.74762 0
M  V30 3719 H 340.59 -0.432114 6.05159 0
M  V30 3720 H 339.329 -0.730179 4.82203 0
M  V30 3721 H 338.334 1.52847 5.28127 0
M  V30 3722 H 339.559 1.81606 6.54367 0
M  V30 3723 H 337.505 -0.427959 6.54603 0
M  V30 3724 H 337.422 1.02287 7.49048 0
M  V30 3725 H 338.69 -0.126928 7.79397 0
M  V30 3726 N 342.919 -1.39368 0.735821 0
M  V30 3727 C 344.196 -1.94465 0.210395 0
M  V30 3728 C 344.576 -1.67254 -1.28799 0
M  V30 3729 O 343.924 -1.00123 -2.05396 0
M  V30 3730 C 344.134 -3.4472 0.544897 0
M  V30 3731 C 345.482 -4.21708 0.494689 0
M  V30 3732 O 346.506 -3.52922 0.482136 0
M  V30 3733 O 345.365 -5.44299 0.489947 0
M  V30 3734 H 342.459 -0.826096 0.0386666 0
M  V30 3735 H 345.005 -1.48863 0.814735 0
M  V30 3736 H 343.777 -3.57963 1.58045 0
M  V30 3737 H 343.4 -3.97502 -0.08837 0
M  V30 3738 N 344.397 -0.483516 -1.5 0
M  V30 3739 C 345.344 0.304164 -2.28787 0
M  V30 3740 C 346.314 0.976114 -1.34392 0
M  V30 3741 O 347.499 0.986156 -1.63339 0
M  V30 3742 C 344.639 1.37298 -3.16612 0
M  V30 3743 C 343.752 0.714561 -4.26049 0
M  V30 3744 C 342.887 1.76232 -5.01114 0
M  V30 3745 C 341.926 1.08483 -6.0241 0
M  V30 3746 N 341.063 2.076 -6.70706 0
M  V30 3747 H 345.903 -0.373981 -2.95644 0
M  V30 3748 H 343.44 -0.196275 -1.45785 0
M  V30 3749 H 345.398 2.00445 -3.65893 0
M  V30 3750 H 344.028 2.02012 -2.51776 0
M  V30 3751 H 343.08 -0.0297798 -3.80388 0
M  V30 3752 H 344.392 0.180383 -4.98474 0
M  V30 3753 H 343.546 2.46929 -5.54176 0
M  V30 3754 H 342.285 2.33033 -4.28424 0
M  V30 3755 H 341.29 0.363545 -5.48597 0
M  V30 3756 H 342.515 0.523551 -6.77079 0
M  V30 3757 H 340.461 2.63394 -6.00799 0
M  V30 3758 H 340.378 1.59201 -7.39047 0
M  V30 3759 H 341.646 2.77639 -7.2838 0
M  V30 3760 N 345.875 1.56104 -0.216619 0
M  V30 3761 C 347.152 1.89988 0.465165 0
M  V30 3762 C 347.532 1.13326 1.78102 0
M  V30 3763 O 346.88 0.241033 2.27225 0
M  V30 3764 C 347.09 3.42646 0.662939 0
M  V30 3765 C 348.438 4.13311 0.972602 0
M  V30 3766 O 349.462 3.48217 0.749901 0
M  V30 3767 O 348.321 5.28396 1.39499 0
M  V30 3768 H 345.415 0.78979 0.245276 0
M  V30 3769 H 347.961 1.67721 -0.258436 0
M  V30 3770 H 346.733 3.90399 -0.26543 0
M  V30 3771 H 346.356 3.70677 1.43821 0
M  V30 3772 N 347.353 -0.0568162 1.57498 0
M  V30 3773 C 348.602 -0.752001 1.87157 0
M  V30 3774 C 348.915 -1.77978 0.811375 0
M  V30 3775 O 350.121 -2.52559 0.996293 0
M  V30 3776 C 348.577 -1.38844 3.3204 0
M  V30 3777 C 348.185 -0.398456 4.46225 0
M  V30 3778 C 349.929 -2.06512 3.70882 0
M  V30 3779 C 347.836 -1.04166 5.82154 0
M  V30 3780 H 346.766 -0.28461 0.698222 0
M  V30 3781 H 349.417 -0.00561272 1.83499 0
M  V30 3782 H 347.799 -2.1836 3.30356 0
M  V30 3783 H 348.973 0.367977 4.59328 0
M  V30 3784 H 347.288 0.174592 4.16034 0
M  V30 3785 H 349.885 -2.55437 4.6974 0
M  V30 3786 H 350.228 -2.87117 3.01445 0
M  V30 3787 H 350.761 -1.33808 3.7462 0
M  V30 3788 H 347.5 -0.275614 6.5492 0
M  V30 3789 H 347.02 -1.7786 5.72823 0
M  V30 3790 H 348.699 -1.55715 6.27982 0
M  V30 3791 N 348.832 -1.54138 -0.328536 0
M  V30 3792 C 350.078 -1.7236 -1.06865 0
M  V30 3793 C 350.411 -0.493231 -1.87832 0
M  V30 3794 O 349.686 0.5098 -1.877 0
M  V30 3795 C 349.969 -2.99621 -1.99747 0
M  V30 3796 C 349.822 -4.32899 -1.22143 0
M  V30 3797 C 351.141 -3.22615 -2.99345 0
M  V30 3798 H 348.26 -0.627151 -0.387105 0
M  V30 3799 H 350.902 -1.86827 -0.345767 0
M  V30 3800 H 349.052 -2.87418 -2.61387 0
M  V30 3801 H 350.724 -4.56978 -0.630017 0
M  V30 3802 H 348.967 -4.30628 -0.523628 0
M  V30 3803 H 349.638 -5.18154 -1.90318 0
M  V30 3804 H 352.114 -3.34248 -2.47826 0
M  V30 3805 H 350.99 -4.13027 -3.61524 0
M  V30 3806 H 351.251 -2.3961 -3.71536 0
M  V30 3807 N 350.31 0.590341 -1.46126 0
M  V30 3808 C 351.556 1.35082 -1.51264 0
M  V30 3809 C 351.889 1.93534 -0.160711 0
M  V30 3810 O 351.164 1.76045 0.826956 0
M  V30 3811 C 351.447 2.48588 -2.6053 0
M  V30 3812 C 351.3 1.95221 -4.05227 0
M  V30 3813 C 352.619 3.50662 -2.6594 0
M  V30 3814 H 349.738 0.489803 -0.550692 0
M  V30 3815 H 352.38 0.663887 -1.78024 0
M  V30 3816 H 350.53 3.07186 -2.37843 0
M  V30 3817 H 352.202 1.41139 -4.39178 0
M  V30 3818 H 350.445 1.26101 -4.15068 0
M  V30 3819 H 351.116 2.77121 -4.77397 0
M  V30 3820 H 353.592 3.01934 -2.86313 0
M  V30 3821 H 352.468 4.27551 -3.44226 0
M  V30 3822 H 352.729 4.07399 -1.71694 0
M  V30 3823 N 351.788 1.33704 0.83433 0
M  V30 3824 C 353.018 1.28281 1.6195 0
M  V30 3825 C 353.426 -0.147603 1.88623 0
M  V30 3826 O 352.769 -1.1016 1.47005 0
M  V30 3827 C 352.831 1.99386 2.99141 0
M  V30 3828 C 352.495 3.48681 2.95416 0
M  V30 3829 C 353.492 4.438 2.70809 0
M  V30 3830 C 351.177 3.90925 3.15409 0
M  V30 3831 C 353.171 5.79138 2.66229 0
M  V30 3832 C 350.858 5.26366 3.10454 0
M  V30 3833 C 351.856 6.20284 2.85895 0
M  V30 3834 O 351.544 7.53245 2.80852 0
M  V30 3835 H 351.276 0.44315 0.510484 0
M  V30 3836 H 353.83 1.76711 1.04702 0
M  V30 3837 H 352.06 1.45554 3.58261 0
M  V30 3838 H 353.749 1.87403 3.60049 0
M  V30 3839 H 354.515 4.12485 2.5511 0
M  V30 3840 H 350.394 3.18229 3.33543 0
M  V30 3841 H 353.938 6.52416 2.4698 0
M  V30 3842 H 349.835 5.57304 3.25703 0
M  V30 3843 H 350.603 7.62846 2.96661 0
M  V30 3844 N 353.266 -1.05314 1.17247 0
M  V30 3845 C 354.506 -1.79869 0.970898 0
M  V30 3846 C 354.87 -1.85594 -0.491808 0
M  V30 3847 O 356.071 -2.56229 -0.812409 0
M  V30 3848 C 354.342 -3.19937 1.59295 0
M  V30 3849 S 355.901 -4.10986 1.53741 0
M  V30 3850 H 352.719 -0.61949 0.348931 0
M  V30 3851 H 355.321 -1.26368 1.49169 0
M  V30 3852 H 354.025 -3.13372 2.65003 0
M  V30 3853 H 353.556 -3.78515 1.07191 0
M  V30 3854 H 355.571 -4.93203 0.544537 0
M  V30 3855 N 354.744 -0.972509 -1.24016 0
M  V30 3856 C 356.16 -0.679827 -1.44397 0
M  V30 3857 C 356.36 0.756716 -1.86751 0
M  V30 3858 O 355.416 1.53007 -2.00861 0
M  V30 3859 C 356.729 -1.66803 -2.50195 0
M  V30 3860 C 358.277 -1.68119 -2.64017 0
M  V30 3861 C 358.752 -2.65748 -3.73017 0
M  V30 3862 N 360.243 -2.64219 -3.8045 0
M  V30 3863 C 360.978 -3.36433 -4.64328 0
M  V30 3864 N 360.474 -4.1818 -5.52356 0
M  V30 3865 N 362.267 -3.25235 -4.58453 0
M  V30 3866 H 354.418 -1.90059 -0.948228 0
M  V30 3867 H 356.681 -0.818527 -0.478245 0
M  V30 3868 H 356.387 -2.69498 -2.25973 0
M  V30 3869 H 356.261 -1.4446 -3.48441 0
M  V30 3870 H 358.648 -0.661319 -2.87594 0
M  V30 3871 H 358.729 -1.94525 -1.66113 0
M  V30 3872 H 358.373 -3.67872 -3.50189 0
M  V30 3873 H 358.303 -2.36619 -4.70446 0
M  V30 3874 H 360.794 -2.04887 -3.17537 0
M  V30 3875 H 361.107 -4.70157 -6.13329 0
M  V30 3876 H 359.452 -4.22273 -5.52006 0
M  V30 3877 H 362.643 -2.60829 -3.88698 0
M  V30 3878 H 362.816 -3.81776 -5.23594 0
M  V30 3879 N 356.222 1.38976 -0.743202 0
M  V30 3880 C 357.471 1.99581 -0.291592 0
M  V30 3881 C 357.784 1.59656 1.13001 0
M  V30 3882 O 358.99 2.13157 1.68156 0
M  V30 3883 C 357.446 3.56813 -0.470391 0
M  V30 3884 C 357.054 4.05695 -1.90041 0
M  V30 3885 C 358.798 4.24423 -0.0809709 0
M  V30 3886 C 356.705 5.5553 -2.02832 0
M  V30 3887 H 355.635 0.746615 -0.105272 0
M  V30 3888 H 358.286 1.58872 -0.918258 0
M  V30 3889 H 356.668 3.95359 0.225299 0
M  V30 3890 H 357.842 3.78464 -2.62872 0
M  V30 3891 H 356.157 3.50775 -2.24379 0
M  V30 3892 H 358.754 5.34474 -0.155445 0
M  V30 3893 H 359.097 4.04962 0.96497 0
M  V30 3894 H 359.63 3.9108 -0.728124 0
M  V30 3895 H 356.369 5.79881 -3.05643 0
M  V30 3896 H 355.889 5.84537 -1.34448 0
M  V30 3897 H 357.568 6.21069 -1.81335 0
M  V30 3898 N 357.7 0.491464 1.49741 0
M  V30 3899 C 358.663 -0.280906 2.27472 0
M  V30 3900 C 359.663 -0.902454 1.33088 0
M  V30 3901 O 360.853 -0.768465 1.56334 0
M  V30 3902 C 357.985 -1.40209 3.10732 0
M  V30 3903 H 359.178 0.401056 2.97206 0
M  V30 3904 H 356.731 0.246131 1.5435 0
M  V30 3905 H 357.466 -2.11849 2.45541 0
M  V30 3906 H 357.251 -0.961969 3.80117 0
M  V30 3907 H 358.741 -1.9464 3.69466 0
M  V30 3908 N 359.178 -1.55987 0.224894 0
M  V30 3909 C 360.088 -2.24066 -0.69511 0
M  V30 3910 C 361.104 -1.24939 -1.21104 0
M  V30 3911 O 362.28 -1.5776 -1.25195 0
M  V30 3912 C 359.345 -2.90983 -1.88493 0
M  V30 3913 C 358.406 -4.05462 -1.41064 0
M  V30 3914 C 357.639 -4.69179 -2.54375 0
M  V30 3915 O 357.862 -4.31895 -3.72589 0
M  V30 3916 O 356.796 -5.58108 -2.25386 0
M  V30 3917 H 360.622 -3.03353 -0.145149 0
M  V30 3918 H 358.207 -1.49399 -0.00569476 0
M  V30 3919 H 360.089 -3.33209 -2.57972 0
M  V30 3920 H 358.764 -2.14653 -2.42293 0
M  V30 3921 H 357.671 -3.67798 -0.683774 0
M  V30 3922 H 359.004 -4.83545 -0.918985 0
M  V30 3923 N 360.656 0.0484629 -1.57525 0
M  V30 3924 C 362.072 0.40375 -1.54409 0
M  V30 3925 C 362.272 1.77786 -0.948384 0
M  V30 3926 O 361.328 2.46189 -0.560983 0
M  V30 3927 C 362.641 0.323394 -2.98956 0
M  V30 3928 C 364.189 0.401892 -3.10409 0
M  V30 3929 C 364.664 0.351195 -4.56652 0
M  V30 3930 N 366.155 0.410576 -4.61377 0
M  V30 3931 C 366.89 0.393933 -5.72045 0
M  V30 3932 N 366.386 0.330724 -6.9201 0
M  V30 3933 N 368.179 0.442227 -5.60358 0
M  V30 3934 H 360.33 -0.851016 -1.94606 0
M  V30 3935 H 362.593 -0.321721 -0.89174 0
M  V30 3936 H 362.299 -0.62011 -3.4619 0
M  V30 3937 H 362.173 1.12463 -3.60044 0
M  V30 3938 H 364.56 1.33582 -2.63134 0
M  V30 3939 H 364.641 -0.428342 -2.52188 0
M  V30 3940 H 364.285 -0.578987 -5.04589 0
M  V30 3941 H 364.215 1.19928 -5.12762 0
M  V30 3942 H 366.706 0.462729 -3.75056 0
M  V30 3943 H 367.019 0.322592 -7.72126 0
M  V30 3944 H 365.364 0.29706 -6.94365 0
M  V30 3945 H 368.555 0.489464 -4.65534 0
M  V30 3946 H 368.728 0.425788 -6.466 0
M  V30 3947 N 362.134 1.5431 0.320358 0
M  V30 3948 C 363.359 1.76954 1.08175 0
M  V30 3949 C 363.784 0.518193 1.80821 0
M  V30 3950 O 363.142 -0.530411 1.73368 0
M  V30 3951 C 363.19 2.96451 2.05303 0
M  V30 3952 O 362.294 2.68221 3.13259 0
M  V30 3953 H 361.635 0.586275 0.311733 0
M  V30 3954 H 364.165 2.01342 0.363676 0
M  V30 3955 H 364.175 3.23887 2.48116 0
M  V30 3956 H 362.85 3.87196 1.51829 0
M  V30 3957 H 361.427 2.51744 2.75099 0
M  V30 3958 N 363.613 -0.582584 1.46437 0
M  V30 3959 C 364.838 -1.37168 1.55563 0
M  V30 3960 C 365.263 -1.87061 0.19743 0
M  V30 3961 O 364.621 -1.61572 -0.822451 0
M  V30 3962 C 364.669 -2.53511 2.56446 0
M  V30 3963 O 363.773 -3.54953 2.09958 0
M  V30 3964 H 363.114 -0.408494 0.523477 0
M  V30 3965 H 365.644 -0.706646 1.9201 0
M  V30 3966 H 365.654 -3.00426 2.76058 0
M  V30 3967 H 364.329 -2.16549 3.55076 0
M  V30 3968 H 362.906 -3.14516 2.00334 0
M  V30 3969 N 365.091 -1.34144 -0.827227 0
M  V30 3970 C 366.041 -1.21923 -1.92663 0
M  V30 3971 C 367.025 -0.119294 -1.60457 0
M  V30 3972 O 368.217 -0.348539 -1.73534 0
M  V30 3973 C 365.346 -0.972492 -3.29238 0
M  V30 3974 C 364.432 -2.1154 -3.67576 0
M  V30 3975 N 364.823 -3.36627 -3.77512 0
M  V30 3976 C 363.121 -2.02468 -3.97395 0
M  V30 3977 C 363.822 -4.11658 -4.1099 0
M  V30 3978 N 362.798 -3.40207 -4.23981 0
M  V30 3979 H 366.6 -2.16721 -1.98517 0
M  V30 3980 H 364.114 -1.2632 -1.02064 0
M  V30 3981 H 366.111 -0.865847 -4.0781 0
M  V30 3982 H 364.771 -0.0331509 -3.24683 0
M  V30 3983 H 365.782 -3.71234 -3.61118 0
M  V30 3984 H 362.459 -1.16265 -4.00985 0
M  V30 3985 H 363.849 -5.19657 -4.25918 0
M  V30 3986 N 366.569 1.04691 -1.17803 0
M  V30 3987 C 367.794 1.81984 -0.994813 0
M  V30 3988 C 368.219 1.82586 0.452112 0
M  V30 3989 O 367.577 1.23854 1.324 0
M  V30 3990 C 367.625 3.2575 -1.54659 0
M  V30 3991 O 366.729 4.05267 -0.763728 0
M  V30 3992 H 366.07 0.562483 -0.352857 0
M  V30 3993 H 368.6 1.3189 -1.56417 0
M  V30 3994 H 368.61 3.76541 -1.57102 0
M  V30 3995 H 367.285 3.24627 -2.59981 0
M  V30 3996 H 365.862 3.63972 -0.811108 0
M  V30 3997 N 368.047 0.979072 1.23499 0
M  V30 3998 C 369.293 0.6578 1.9247 0
M  V30 3999 C 369.648 -0.799746 1.74991 0
M  V30 4000 O 368.941 -1.56922 1.09937 0
M  V30 4001 C 369.135 0.981932 3.43646 0
M  V30 4002 C 368.964 2.46944 3.75831 0
M  V30 4003 C 367.734 3.13119 3.96591 0
M  V30 4004 C 369.932 3.45006 3.81412 0
M  V30 4005 N 367.914 4.51489 4.15969 0
M  V30 4006 C 369.285 4.68778 4.05768 0
M  V30 4007 C 371.34 3.39505 3.64198 0
M  V30 4008 C 370.043 5.87723 4.14697 0
M  V30 4009 C 372.069 4.57814 3.7438 0
M  V30 4010 C 371.431 5.80381 3.99171 0
M  V30 4011 H 367.53 0.291746 0.72554 0
M  V30 4012 H 370.114 1.25626 1.48749 0
M  V30 4013 H 368.285 0.412179 3.86207 0
M  V30 4014 H 370.017 0.618068 3.99953 0
M  V30 4015 H 366.772 2.63619 3.93449 0
M  V30 4016 H 367.196 5.23221 4.29615 0
M  V30 4017 H 371.838 2.45773 3.44029 0
M  V30 4018 H 369.556 6.81874 4.33675 0
M  V30 4019 H 373.142 4.55132 3.62417 0
M  V30 4020 H 372.022 6.70398 4.06861 0
M  V30 4021 N 369.525 -1.3858 0.750561 0
M  V30 4022 C 370.772 -2.00184 0.305373 0
M  V30 4023 C 371.1 -1.59575 -1.11203 0
M  V30 4024 O 370.355 -0.823236 -1.77542 0
M  V30 4025 C 370.654 -3.55455 0.372373 0
M  V30 4026 C 370.32 -4.15765 1.745 0
M  V30 4027 C 368.982 -4.31951 2.12065 0
M  V30 4028 C 371.334 -4.49067 2.64553 0
M  V30 4029 C 368.662 -4.78734 3.39162 0
M  V30 4030 C 371.014 -4.97265 3.91038 0
M  V30 4031 C 369.678 -5.11658 4.28676 0
M  V30 4032 H 368.948 -0.732526 0.111744 0
M  V30 4033 H 371.595 -1.65673 0.960451 0
M  V30 4034 H 369.9 -3.90084 -0.366272 0
M  V30 4035 H 371.597 -4.00999 0.00953918 0
M  V30 4036 H 368.187 -4.03579 1.44297 0
M  V30 4037 H 372.371 -4.36166 2.36796 0
M  V30 4038 H 367.627 -4.88062 3.68246 0
M  V30 4039 H 371.801 -5.22003 4.60962 0
M  V30 4040 H 369.428 -5.47668 5.27222 0
M  V30 4041 N 371.003 -0.499398 -1.49478 0
M  V30 4042 C 372.249 0.0457576 -2.02748 0
M  V30 4043 C 372.582 1.36793 -1.37846 0
M  V30 4044 O 371.857 1.87596 -0.513601 0
M  V30 4045 C 372.14 0.199986 -3.59544 0
M  V30 4046 C 371.993 -1.1452 -4.34977 0
M  V30 4047 C 373.312 0.94137 -4.29914 0
M  V30 4048 H 370.431 0.0151552 -0.736844 0
M  V30 4049 H 373.073 -0.650498 -1.78518 0
M  V30 4050 H 371.223 0.793007 -3.8032 0
M  V30 4051 H 372.895 -1.77697 -4.25701 0
M  V30 4052 H 371.138 -1.73488 -3.97598 0
M  V30 4053 H 371.809 -0.990607 -5.43039 0
M  V30 4054 H 374.285 0.43844 -4.13784 0
M  V30 4055 H 373.161 1.01812 -5.39375 0
M  V30 4056 H 373.422 1.98471 -3.95046 0
M  V30 4057 N 372.481 1.55866 -0.233164 0
M  V30 4058 C 373.411 2.23783 0.666599 0
M  V30 4059 C 374.392 1.21343 1.19205 0
M  V30 4060 O 375.577 1.4996 1.23392 0
M  V30 4061 C 372.707 2.92671 1.86978 0
M  V30 4062 C 371.661 4.01682 1.47768 0
M  V30 4063 C 370.987 4.57926 2.76058 0
M  V30 4064 C 372.287 5.18126 0.658993 0
M  V30 4065 H 373.981 2.99232 0.100306 0
M  V30 4066 H 371.527 1.43924 0.046804 0
M  V30 4067 H 373.48 3.3888 2.50476 0
M  V30 4068 H 372.204 2.14688 2.46123 0
M  V30 4069 H 370.863 3.56222 0.866106 0
M  V30 4070 H 370.511 3.76659 3.33372 0
M  V30 4071 H 370.211 5.31505 2.50552 0
M  V30 4072 H 371.735 5.06859 3.40479 0
M  V30 4073 H 373.149 5.60644 1.19795 0
M  V30 4074 H 371.546 5.98009 0.500552 0
M  V30 4075 H 372.616 4.83763 -0.331856 0
M  V30 4076 N 373.959 -0.0401083 1.57549 0
M  V30 4077 C 374.906 -1.04413 2.05831 0
M  V30 4078 C 375.876 -1.36585 0.945184 0
M  V30 4079 O 377.061 -1.47112 1.21502 0
M  V30 4080 C 374.201 -2.34336 2.53339 0
M  V30 4081 C 373.314 -2.08419 3.78398 0
M  V30 4082 C 372.449 -3.32133 4.14561 0
M  V30 4083 C 371.488 -3.01721 5.3257 0
M  V30 4084 N 370.625 -4.17855 5.64218 0
M  V30 4085 H 375.465 -0.625442 2.91363 0
M  V30 4086 H 373.002 -0.297218 1.44066 0
M  V30 4087 H 374.96 -3.10234 2.78946 0
M  V30 4088 H 373.59 -2.73948 1.7074 0
M  V30 4089 H 372.642 -1.23069 3.59942 0
M  V30 4090 H 373.954 -1.81978 4.64419 0
M  V30 4091 H 373.108 -4.16406 4.41238 0
M  V30 4092 H 371.847 -3.61678 3.2717 0
M  V30 4093 H 370.852 -2.15849 5.05657 0
M  V30 4094 H 372.077 -2.73466 6.21605 0
M  V30 4095 H 370.023 -4.47372 4.79786 0
M  V30 4096 H 369.94 -3.94798 6.44725 0
M  V30 4097 H 371.208 -5.03033 5.95465 0
M  V30 4098 N 375.437 -1.54477 -0.31217 0
M  V30 4099 C 376.667 -1.76948 -1.06645 0
M  V30 4100 C 377.075 -0.523593 -1.81811 0
M  V30 4101 O 376.418 0.51578 -1.76311 0
M  V30 4102 C 376.48 -2.91668 -2.10166 0
M  V30 4103 C 376.144 -4.30165 -1.54296 0
M  V30 4104 C 377.141 -5.10603 -0.978793 0
M  V30 4105 C 374.826 -4.76738 -1.58196 0
M  V30 4106 C 376.82 -6.3573 -0.461048 0
M  V30 4107 C 374.507 -6.01831 -1.06034 0
M  V30 4108 C 375.505 -6.81161 -0.500844 0
M  V30 4109 O 375.193 -8.03899 0.0128958 0
M  V30 4110 H 374.925 -0.594088 -0.322546 0
M  V30 4111 H 377.479 -2.02213 -0.360441 0
M  V30 4112 H 375.709 -2.62001 -2.84416 0
M  V30 4113 H 377.398 -3.01817 -2.71406 0
M  V30 4114 H 378.164 -4.75771 -0.941651 0
M  V30 4115 H 374.043 -4.15027 -2.00683 0
M  V30 4116 H 377.587 -6.97596 -0.0236894 0
M  V30 4117 H 373.484 -6.36152 -1.09459 0
M  V30 4118 H 374.252 -8.18437 -0.101457 0
M  V30 4119 N 376.915 0.57481 -1.46744 0
M  V30 4120 C 377.845 1.69337 -1.60771 0
M  V30 4121 C 378.826 1.63825 -0.457736 0
M  V30 4122 O 380.011 1.8172 -0.684947 0
M  V30 4123 C 377.141 3.0798 -1.60517 0
M  V30 4124 C 376.095 3.28327 -2.74564 0
M  V30 4125 C 375.421 4.67578 -2.59373 0
M  V30 4126 C 376.721 3.15398 -4.16319 0
M  V30 4127 H 378.415 1.57853 -2.54407 0
M  V30 4128 H 375.961 0.75799 -1.22436 0
M  V30 4129 H 377.914 3.86061 -1.68923 0
M  V30 4130 H 376.638 3.20381 -0.634305 0
M  V30 4131 H 375.297 2.52649 -2.65639 0
M  V30 4132 H 374.945 4.76755 -1.60353 0
M  V30 4133 H 374.645 4.82144 -3.35873 0
M  V30 4134 H 376.169 5.47817 -2.69682 0
M  V30 4135 H 377.583 3.83315 -4.26313 0
M  V30 4136 H 375.98 3.41482 -4.93468 0
M  V30 4137 H 377.05 2.12372 -4.3592 0
M  V30 4138 N 378.394 1.34581 0.820102 0
M  V30 4139 C 379.324 1.29038 1.94606 0
M  V30 4140 C 380.305 0.1673 1.69275 0
M  V30 4141 O 381.49 0.360112 1.90832 0
M  V30 4142 C 378.62 1.04793 3.31113 0
M  V30 4143 C 377.574 2.13597 3.70891 0
M  V30 4144 C 376.9 1.74537 5.05412 0
M  V30 4145 C 378.2 3.55451 3.8269 0
M  V30 4146 H 379.894 2.23248 1.99501 0
M  V30 4147 H 377.44 1.0747 0.958449 0
M  V30 4148 H 379.393 0.995592 4.0947 0
M  V30 4149 H 378.117 0.0702565 3.26524 0
M  V30 4150 H 376.776 2.17905 2.9481 0
M  V30 4151 H 376.424 0.754226 4.97313 0
M  V30 4152 H 376.124 2.47361 5.32997 0
M  V30 4153 H 377.648 1.70803 5.86224 0
M  V30 4154 H 379.062 3.5354 4.51312 0
M  V30 4155 H 377.459 4.26922 4.21732 0
M  V30 4156 H 378.529 3.92587 2.84611 0
M  V30 4157 N 379.872 -1.04064 1.18357 0
M  V30 4158 C 381.12 -1.76915 0.977013 0
M  V30 4159 C 381.441 -1.88624 -0.494577 0
M  V30 4160 O 380.711 -1.41125 -1.3587 0
M  V30 4161 H 379.291 -0.65535 0.358504 0
M  V30 4162 H 381.953 -1.25592 1.49039 0
M  V30 4163 H 381.049 -2.78178 1.41504 0
M  V30 4164 N 381.35 -0.985608 -1.22978 0
M  V30 4165 C 382.58 -0.674603 -1.95276 0
M  V30 4166 C 382.988 0.763483 -1.73111 0
M  V30 4167 O 382.331 1.52601 -1.02268 0
M  V30 4168 C 382.393 -0.891597 -3.48268 0
M  V30 4169 C 382.057 -2.31275 -3.94158 0
M  V30 4170 C 383.054 -3.29179 -4.02415 0
M  V30 4171 C 380.739 -2.64524 -4.27004 0
M  V30 4172 C 382.733 -4.58407 -4.42879 0
M  V30 4173 C 380.42 -3.93974 -4.67149 0
M  V30 4174 C 381.418 -4.90727 -4.75053 0
M  V30 4175 O 381.106 -6.17865 -5.14294 0
M  V30 4176 H 380.838 -0.249251 -0.628371 0
M  V30 4177 H 383.392 -1.32106 -1.5728 0
M  V30 4178 H 381.622 -0.187962 -3.86243 0
M  V30 4179 H 383.311 -0.576957 -4.01779 0
M  V30 4180 H 384.077 -3.04823 -3.77237 0
M  V30 4181 H 379.956 -1.89923 -4.2006 0
M  V30 4182 H 383.5 -5.33926 -4.48964 0
M  V30 4183 H 379.397 -4.18122 -4.91777 0
M  V30 4184 H 380.165 -6.21694 -5.32389 0
M  V30 4185 N 382.828 1.3818 -0.7579 0
M  V30 4186 C 384.239 1.82726 -0.383134 0
M  V30 4187 C 384.59 1.63214 1.08884 0
M  V30 4188 O 383.715 1.13566 1.84205 0
M  V30 4189 C 384.31 3.31728 -0.688631 0
M  V30 4190 C 382.869 3.74606 -0.367091 0
M  V30 4191 C 382.016 2.60896 -0.939599 0
M  V30 4192 H 384.967 1.26847 -0.953699 0
M  V30 4193 H 384.988 3.80487 0.0316492 0
M  V30 4194 H 384.5 3.45898 -1.76001 0
M  V30 4195 H 382.601 3.66013 0.697532 0
M  V30 4196 H 382.714 4.71215 -0.865658 0
M  V30 4197 H 381.078 2.52075 -0.3647 0
M  V30 4198 H 381.861 2.77864 -2.0161 0
M  V30 4199 N 384.306 0.507319 1.49211 0
M  V30 4200 C 385.256 -0.287112 2.26185 0
M  V30 4201 C 386.24 -0.929983 1.31302 0
M  V30 4202 O 387.432 -0.836538 1.55984 0
M  V30 4203 C 384.561 -1.34718 3.15763 0
M  V30 4204 C 383.647 -0.710235 4.18111 0
M  V30 4205 N 384.038 0.190836 5.0544 0
M  V30 4206 C 382.336 -0.97009 4.35322 0
M  V30 4207 C 383.037 0.55606 5.79036 0
M  V30 4208 N 382.013 -0.0775232 5.43545 0
M  V30 4209 H 385.815 0.406445 2.91076 0
M  V30 4210 H 383.329 0.323814 1.59139 0
M  V30 4211 H 385.326 -1.92982 3.69545 0
M  V30 4212 H 383.986 -2.04235 2.52424 0
M  V30 4213 H 384.997 0.562047 5.14841 0
M  V30 4214 H 381.674 -1.65753 3.83187 0
M  V30 4215 H 383.064 1.2936 6.5933 0
M  V30 4216 N 385.784 -1.5574 0.241426 0
M  V30 4217 C 387.03 -1.99104 -0.385406 0
M  V30 4218 C 387.363 -1.1293 -1.57988 0
M  V30 4219 O 386.638 -0.191449 -1.93555 0
M  V30 4220 C 386.921 -3.51087 -0.800616 0
M  V30 4221 C 386.774 -4.48028 0.398874 0
M  V30 4222 C 388.093 -4.08015 -1.64959 0
M  V30 4223 H 385.212 -0.723848 -0.138614 0
M  V30 4224 H 387.854 -1.86903 0.341642 0
M  V30 4225 H 386.004 -3.61615 -1.4201 0
M  V30 4226 H 387.676 -4.49487 1.03726 0
M  V30 4227 H 385.919 -4.21077 1.04293 0
M  V30 4228 H 386.59 -5.51962 0.0651056 0
M  V30 4229 H 389.066 -4.00555 -1.12672 0
M  V30 4230 H 387.942 -5.14635 -1.90898 0
M  V30 4231 H 388.203 -3.56131 -2.61961 0
M  V30 4232 N 387.262 0.0317525 -1.57568 0
M  V30 4233 C 388.209 1.0332 -2.06382 0
M  V30 4234 C 389.179 1.36082 -0.952414 0
M  V30 4235 O 390.364 1.46466 -1.2228 0
M  V30 4236 C 387.504 2.32989 -2.54578 0
M  V30 4237 C 386.617 2.0641 -3.79498 0
M  V30 4238 C 385.752 3.2993 -4.16317 0
M  V30 4239 C 384.791 2.98893 -5.34162 0
M  V30 4240 N 383.928 4.14857 -5.66426 0
M  V30 4241 H 388.768 0.609982 -2.9169 0
M  V30 4242 H 386.305 0.289573 -1.44222 0
M  V30 4243 H 388.263 3.0875 -2.80587 0
M  V30 4244 H 386.893 2.73039 -1.7219 0
M  V30 4245 H 385.945 1.21158 -3.6059 0
M  V30 4246 H 387.257 1.79513 -4.65378 0
M  V30 4247 H 386.411 4.1406 -4.4344 0
M  V30 4248 H 385.15 3.59938 -3.29083 0
M  V30 4249 H 384.155 2.13164 -5.06795 0
M  V30 4250 H 385.38 2.70165 -6.23047 0
M  V30 4251 H 383.326 4.44821 -4.82151 0
M  V30 4252 H 383.243 3.91374 -6.4681 0
M  V30 4253 H 384.511 4.99868 -5.98124 0
M  V30 4254 N 388.74 1.54641 0.303973 0
M  V30 4255 C 389.688 1.86137 1.39484 0
M  V30 4256 C 390.682 0.734854 1.52631 0
M  V30 4257 O 391.888 0.918803 1.54784 0
M  V30 4258 H 388.263 0.590324 0.465856 0
M  V30 4259 H 390.234 2.77324 1.10154 0
M  V30 4260 C 388.983 2.12274 2.75382 0
M  V30 4261 H 388.306 2.98429 2.66046 0
M  V30 4262 H 389.746 2.38254 3.5073 0
M  V30 4263 C 388.205 0.920365 3.24085 0
M  V30 4264 O 388.735 0.139377 4.01458 0
M  V30 4265 N 386.941 0.726566 2.81371 0
M  V30 4266 H 386.488 1.36332 2.18567 0
M  V30 4267 H 386.446 -0.0763799 3.14307 0
M  V30 4268 N 390.218 -0.567019 1.47046 0
M  V30 4269 C 391.448 -1.34831 1.56538 0
M  V30 4270 C 391.856 -1.8802 0.21101 0
M  V30 4271 O 391.199 -1.65152 -0.804387 0
M  V30 4272 C 391.261 -2.56139 2.52256 0
M  V30 4273 C 390.925 -2.24307 3.98165 0
M  V30 4274 C 391.922 -1.82192 4.86931 0
M  V30 4275 C 389.607 -2.35968 4.43423 0
M  V30 4276 C 391.601 -1.52153 6.18973 0
M  V30 4277 C 389.288 -2.05542 5.75496 0
M  V30 4278 C 390.286 -1.63701 6.63092 0
M  V30 4279 O 389.974 -1.33657 7.92711 0
M  V30 4280 H 389.706 -0.417683 0.531523 0
M  V30 4281 H 392.26 -0.694726 1.93294 0
M  V30 4282 H 390.49 -3.24356 2.10548 0
M  V30 4283 H 392.179 -3.18214 2.51982 0
M  V30 4284 H 392.945 -1.72684 4.53217 0
M  V30 4285 H 388.824 -2.67495 3.75456 0
M  V30 4286 H 392.368 -1.19421 6.87302 0
M  V30 4287 H 388.265 -2.14679 6.08755 0
M  V30 4288 H 389.033 -1.4737 8.05124 0
M  V30 4289 N 391.696 -1.35014 -0.812953 0
M  V30 4290 C 392.973 -1.18502 -1.55617 0
M  V30 4291 C 393.353 0.238421 -2.09749 0
M  V30 4292 O 392.701 1.2411 -1.91857 0
M  V30 4293 C 392.911 -2.24783 -2.66971 0
M  V30 4294 C 394.259 -2.60268 -3.35478 0
M  V30 4295 O 395.283 -2.23648 -2.77236 0
M  V30 4296 O 394.142 -3.2321 -4.40678 0
M  V30 4297 H 391.236 -0.459984 -0.687272 0
M  V30 4298 H 393.782 -1.46677 -0.853464 0
M  V30 4299 H 392.554 -3.20284 -2.24798 0
M  V30 4300 H 392.177 -1.97841 -3.44884 0
M  V30 4301 N 393.175 1.03435 -1.18907 0
M  V30 4302 C 394.423 1.76394 -0.986382 0
M  V30 4303 C 394.744 1.88883 0.484567 0
M  V30 4304 O 394.014 1.41843 1.3512 0
M  V30 4305 H 392.594 0.65344 -0.361975 0
M  V30 4306 H 395.256 1.248 -1.49703 0
M  V30 4307 H 394.352 2.77424 -1.42978 0
M  V30 4308 N 394.653 0.992116 1.22453 0
M  V30 4309 C 395.878 0.685644 1.95739 0
M  V30 4310 C 396.303 -0.743 1.72804 0
M  V30 4311 O 395.661 -1.50778 1.00676 0
M  V30 4312 C 395.709 0.996293 3.46564 0
M  V30 4313 O 394.813 0.0945512 4.12292 0
M  V30 4314 H 394.154 0.256694 0.612376 0
M  V30 4315 H 396.684 1.32888 1.5557 0
M  V30 4316 H 396.694 0.93781 3.97076 0
M  V30 4317 H 395.369 2.03733 3.62582 0
M  V30 4318 H 393.946 0.208451 3.72317 0
M  V30 4319 N 396.131 -1.37776 0.765217 0
M  V30 4320 C 397.377 -2.00604 0.336066 0
M  V30 4321 C 397.732 -1.59657 -1.07366 0
M  V30 4322 O 397.025 -0.829565 -1.7271 0
M  V30 4323 C 397.219 -3.5504 0.410053 0
M  V30 4324 C 397.048 -4.10985 1.82542 0
M  V30 4325 C 395.818 -4.42229 2.44461 0
M  V30 4326 C 398.016 -4.32438 2.78392 0
M  V30 4327 N 395.998 -4.8385 3.77839 0
M  V30 4328 C 397.369 -4.76596 3.96556 0
M  V30 4329 C 399.424 -4.14559 2.75764 0
M  V30 4330 C 398.127 -5.04748 5.12466 0
M  V30 4331 C 400.153 -4.43843 3.90842 0
M  V30 4332 C 399.515 -4.88235 5.07746 0
M  V30 4333 H 395.614 -0.763325 0.169881 0
M  V30 4334 H 398.198 -1.67197 0.997656 0
M  V30 4335 H 396.369 -3.87769 -0.221325 0
M  V30 4336 H 398.101 -4.0468 -0.0405285 0
M  V30 4337 H 394.856 -4.31079 1.96131 0
M  V30 4338 H 395.28 -5.08979 4.46396 0
M  V30 4339 H 399.922 -3.79415 1.86558 0
M  V30 4340 H 397.64 -5.38783 6.02277 0
M  V30 4341 H 401.226 -4.31603 3.90141 0
M  V30 4342 H 400.106 -5.10461 5.95315 0
M  V30 4343 N 397.609 -0.515225 -1.4894 0
M  V30 4344 C 398.837 0.0206034 -2.0689 0
M  V30 4345 C 399.252 1.29514 -1.37374 0
M  V30 4346 O 398.609 1.76698 -0.456529 0
M  V30 4347 C 398.66 0.26351 -3.60538 0
M  V30 4348 O 398.381 -0.960517 -4.27441 0
M  V30 4349 C 399.882 0.841383 -4.35242 0
M  V30 4350 H 397.102 -0.0268608 -0.670462 0
M  V30 4351 H 399.646 -0.716651 -1.91532 0
M  V30 4352 H 397.801 0.950777 -3.75552 0
M  V30 4353 H 398.215 -0.73212 -5.19365 0
M  V30 4354 H 399.689 0.96085 -5.43573 0
M  V30 4355 H 400.166 1.8427 -3.98674 0
M  V30 4356 H 400.772 0.191143 -4.2487 0
M  V30 4357 N 399.087 1.5561 -0.249682 0
M  V30 4358 C 399.997 2.25143 0.659375 0
M  V30 4359 C 401.013 1.2685 1.19101 0
M  V30 4360 O 402.189 1.59732 1.22669 0
M  V30 4361 C 399.254 2.93945 1.8384 0
M  V30 4362 C 398.315 4.07655 1.34596 0
M  V30 4363 C 397.548 4.73167 2.46878 0
M  V30 4364 O 397.771 4.37768 3.65671 0
M  V30 4365 O 396.705 5.61623 2.16478 0
M  V30 4366 H 400.531 3.03545 0.0968698 0
M  V30 4367 H 398.116 1.49389 -0.018074 0
M  V30 4368 H 399.998 3.37271 2.52638 0
M  V30 4369 H 398.673 2.18481 2.38847 0
M  V30 4370 H 397.58 3.68839 0.625174 0
M  V30 4371 H 398.913 4.84946 0.841941 0
M  V30 4372 N 400.565 -0.0233959 1.57583 0
M  V30 4373 C 401.811 -0.708611 1.90657 0
M  V30 4374 C 402.166 -1.7266 0.848895 0
M  V30 4375 O 401.459 -1.91075 -0.141749 0
M  V30 4376 C 401.653 -1.41428 3.28227 0
M  V30 4377 C 401.482 -0.466155 4.47277 0
M  V30 4378 C 400.252 -0.085117 5.05228 0
M  V30 4379 C 402.45 0.257836 5.13653 0
M  V30 4380 N 400.432 0.863672 6.07794 0
M  V30 4381 C 401.803 1.06209 6.10835 0
M  V30 4382 C 403.858 0.324174 4.96844 0
M  V30 4383 C 402.561 1.9266 6.93018 0
M  V30 4384 C 404.587 1.17583 5.79593 0
M  V30 4385 C 403.949 1.96799 6.7635 0
M  V30 4386 H 400.048 -0.233222 0.746412 0
M  V30 4387 H 402.632 0.0314512 1.94675 0
M  V30 4388 H 400.803 -2.12477 3.25128 0
M  V30 4389 H 402.535 -2.05233 3.488 0
M  V30 4390 H 399.29 -0.448516 4.71471 0
M  V30 4391 H 399.714 1.33274 6.63752 0
M  V30 4392 H 404.356 -0.273975 4.21911 0
M  V30 4393 H 402.074 2.53552 7.67292 0
M  V30 4394 H 405.66 1.23076 5.68633 0
M  V30 4395 H 404.54 2.61635 7.39268 0
M  V30 4396 N 402.043 -1.548 -0.295768 0
M  V30 4397 C 403.291 -1.73985 -1.02828 0
M  V30 4398 C 403.612 -0.531406 -1.87619 0
M  V30 4399 O 402.882 0.454221 -1.90561 0
M  V30 4400 H 401.462 -0.641556 -0.382642 0
M  V30 4401 H 404.124 -1.92163 -0.325489 0
M  V30 4402 H 403.22 -2.63129 -1.67838 0
M  V30 4403 N 403.521 0.559213 -1.47345 0
M  V30 4404 C 404.469 1.68747 -1.60085 0
M  V30 4405 C 405.463 1.628 -0.46825 0
M  V30 4406 O 406.669 1.68009 -0.645977 0
M  V30 4407 H 403.044 0.558329 -0.503759 0
M  V30 4408 H 405.015 1.55138 -2.54902 0
M  V30 4409 C 403.764 3.07103 -1.63042 0
M  V30 4410 H 403.087 3.12361 -2.49541 0
M  V30 4411 H 404.527 3.85743 -1.76006 0
M  V30 4412 C 402.986 3.34935 -0.363357 0
M  V30 4413 O 403.516 3.98102 0.536416 0
M  V30 4414 N 401.722 2.89574 -0.244 0
M  V30 4415 H 401.269 2.38348 -0.977133 0
M  V30 4416 H 401.227 3.08566 0.602836 0
M  V30 4417 N 404.999 1.35443 0.805782 0
M  V30 4418 C 405.929 1.31095 1.93226 0
M  V30 4419 C 406.91 0.185244 1.69088 0
M  V30 4420 O 408.095 0.380332 1.90439 0
M  V30 4421 C 405.225 1.08299 3.29983 0
M  V30 4422 C 404.179 2.17519 3.68605 0
M  V30 4423 C 403.505 1.79887 5.03532 0
M  V30 4424 C 404.805 3.5949 3.78898 0
M  V30 4425 H 406.499 2.25352 1.97122 0
M  V30 4426 H 404.045 1.0848 0.946996 0
M  V30 4427 H 405.998 1.03897 4.08391 0
M  V30 4428 H 404.722 0.104885 3.26432 0
M  V30 4429 H 403.381 2.2102 2.92482 0
M  V30 4430 H 403.029 0.80693 4.96485 0
M  V30 4431 H 402.729 2.53001 5.30344 0
M  V30 4432 H 404.253 1.77011 5.84379 0
M  V30 4433 H 405.667 3.58307 4.47536 0
M  V30 4434 H 404.064 4.31371 4.1718 0
M  V30 4435 H 405.134 3.95584 2.80431 0
M  V30 4436 N 406.477 -1.02803 1.19454 0
M  V30 4437 C 407.723 -1.76478 0.999171 0
M  V30 4438 C 408.056 -1.88456 -0.468828 0
M  V30 4439 O 407.331 -1.40198 -1.34814 0
M  V30 4440 C 407.614 -3.19044 1.66981 0
M  V30 4441 C 407.467 -3.14932 3.21151 0
M  V30 4442 C 408.786 -4.17456 1.39349 0
M  V30 4443 H 405.905 -0.640614 0.364393 0
M  V30 4444 H 408.547 -1.20005 1.47305 0
M  V30 4445 H 406.697 -3.67263 1.2669 0
M  V30 4446 H 408.369 -2.74605 3.70661 0
M  V30 4447 H 406.612 -2.52625 3.52652 0
M  V30 4448 H 407.283 -4.1566 3.63223 0
M  V30 4449 H 409.759 -3.77842 1.74283 0
M  V30 4450 H 408.635 -5.154 1.88823 0
M  V30 4451 H 408.896 -4.40949 0.318813 0
M  V30 4452 N 407.956 -0.998596 -1.21925 0
M  V30 4453 C 409.204 -0.676325 -1.90448 0
M  V30 4454 C 409.525 0.794719 -1.78071 0
M  V30 4455 O 408.795 1.5701 -1.17152 0
M  V30 4456 H 407.375 -0.247165 -0.704925 0
M  V30 4457 H 410.037 -1.26633 -1.48156 0
M  V30 4458 H 409.133 -0.943858 -2.97486 0
M  V30 4459 N 409.434 1.37368 -0.772513 0
M  V30 4460 C 410.68 1.99969 -0.337681 0
M  V30 4461 C 411.013 1.61184 1.08321 0
M  V30 4462 O 410.288 0.858395 1.74533 0
M  V30 4463 C 410.571 3.56858 -0.482121 0
M  V30 4464 C 410.424 4.0555 -1.94549 0
M  V30 4465 C 411.743 4.39955 0.113143 0
M  V30 4466 H 408.862 0.726464 -0.124171 0
M  V30 4467 H 411.504 1.63034 -0.975699 0
M  V30 4468 H 409.654 3.88452 0.0610361 0
M  V30 4469 H 411.326 3.84518 -2.54841 0
M  V30 4470 H 409.569 3.57715 -2.45403 0
M  V30 4471 H 410.24 5.14587 -1.9976 0
M  V30 4472 H 412.716 4.14623 -0.35031 0
M  V30 4473 H 411.592 5.48897 -0.0180514 0
M  V30 4474 H 411.853 4.25403 1.20354 0
M  V30 4475 N 410.912 0.523116 1.48665 0
M  V30 4476 C 412.323 0.0808997 1.86525 0
M  V30 4477 C 412.674 -1.33975 1.43336 0
M  V30 4478 O 411.799 -2.00221 0.821009 0
M  V30 4479 C 412.394 0.140037 3.3851 0
M  V30 4480 C 410.953 -0.246948 3.75589 0
M  V30 4481 C 410.1 0.502845 2.72703 0
M  V30 4482 H 413.051 0.734736 1.40667 0
M  V30 4483 H 413.072 -0.649945 3.74908 0
M  V30 4484 H 412.584 1.17412 3.69914 0
M  V30 4485 H 410.685 -1.28343 3.49798 0
M  V30 4486 H 410.798 0.0878859 4.79019 0
M  V30 4487 H 409.162 -0.0500581 2.54651 0
M  V30 4488 H 409.945 1.53743 3.0695 0
M  V30 4489 N 412.39 -1.55475 0.257931 0
M  V30 4490 C 413.639 -1.98383 -0.364275 0
M  V30 4491 C 413.952 -1.14952 -1.58258 0
M  V30 4492 O 415.158 -1.47924 -2.27664 0
M  V30 4493 C 413.614 -3.53037 -0.699479 0
M  V30 4494 C 413.222 -4.45223 0.498046 0
M  V30 4495 C 414.966 -4.04575 -1.28526 0
M  V30 4496 C 412.873 -5.91238 0.138383 0
M  V30 4497 H 411.803 -0.740911 -0.13988 0
M  V30 4498 H 414.454 -1.79936 0.359883 0
M  V30 4499 H 412.836 -3.6722 -1.48207 0
M  V30 4500 H 414.01 -4.42803 1.27522 0
M  V30 4501 H 412.325 -4.04226 0.999503 0
M  V30 4502 H 414.922 -5.11196 -1.56788 0
M  V30 4503 H 415.265 -3.5258 -2.21344 0
M  V30 4504 H 415.798 -3.93762 -0.565337 0
M  V30 4505 H 412.537 -6.47294 1.03398 0
M  V30 4506 H 412.057 -5.96768 -0.602374 0
M  V30 4507 H 413.736 -6.46413 -0.27553 0
M  V30 4508 N 413.868 0.0150385 -1.57593 0
M  V30 4509 C 414.831 0.995996 -2.06428 0
M  V30 4510 C 415.831 1.2818 -0.970903 0
M  V30 4511 O 417.021 1.22949 -1.23406 0
M  V30 4512 C 414.153 2.32506 -2.49307 0
M  V30 4513 H 415.346 0.573873 -2.94358 0
M  V30 4514 H 412.899 0.262186 -1.54085 0
M  V30 4515 H 413.634 2.79438 -1.64575 0
M  V30 4516 H 413.419 2.13087 -3.29145 0
M  V30 4517 H 414.909 3.02906 -2.87468 0
M  V30 4518 N 415.346 1.54954 0.287554 0
M  V30 4519 C 416.293 1.86834 1.35505 0
M  V30 4520 C 417.263 0.718452 1.49758 0
M  V30 4521 O 418.448 0.968358 1.644 0
M  V30 4522 C 415.588 2.13303 2.71286 0
M  V30 4523 C 414.701 3.40883 2.65373 0
M  V30 4524 C 413.836 3.57125 3.93236 0
M  V30 4525 C 412.875 4.78449 3.81776 0
M  V30 4526 N 412.012 4.91426 5.01443 0
M  V30 4527 H 416.852 2.77889 1.07619 0
M  V30 4528 H 414.389 1.37593 0.520241 0
M  V30 4529 H 416.347 2.26646 3.50267 0
M  V30 4530 H 414.977 1.25499 2.97405 0
M  V30 4531 H 414.029 3.36088 1.78182 0
M  V30 4532 H 415.341 4.29993 2.52799 0
M  V30 4533 H 414.495 3.70207 4.80658 0
M  V30 4534 H 413.234 2.66173 4.0866 0
M  V30 4535 H 412.239 4.65386 2.92738 0
M  V30 4536 H 413.464 5.70822 3.67884 0
M  V30 4537 H 411.41 4.03401 5.17304 0
M  V30 4538 H 411.327 5.74559 4.91343 0
M  V30 4539 H 412.595 5.08879 5.90477 0
M  V30 4540 N 416.824 -0.551391 1.4764 0
M  V30 4541 C 418.072 -1.30572 1.54258 0
M  V30 4542 C 418.393 -1.93877 0.208963 0
M  V30 4543 O 417.663 -1.80234 -0.767619 0
M  V30 4544 H 416.243 -0.484894 0.568231 0
M  V30 4545 H 418.905 -0.643402 1.83974 0
M  V30 4546 H 418.001 -2.09621 2.31226 0
M  V30 4547 N 418.302 -1.35869 -0.798587 0
M  V30 4548 C 419.212 -1.31578 -1.94228 0
M  V30 4549 C 420.228 -0.21939 -1.72611 0
M  V30 4550 O 421.404 -0.450167 -1.96305 0
M  V30 4551 C 418.469 -1.09528 -3.28944 0
M  V30 4552 C 417.53 -2.28556 -3.63402 0
M  V30 4553 C 416.763 -2.07549 -4.9169 0
M  V30 4554 O 416.986 -1.046 -5.60727 0
M  V30 4555 O 415.92 -2.95106 -5.24591 0
M  V30 4556 H 419.746 -2.27847 -2.00796 0
M  V30 4557 H 417.331 -1.16322 -0.937526 0
M  V30 4558 H 419.213 -0.991127 -4.09579 0
M  V30 4559 H 417.888 -0.16315 -3.23289 0
M  V30 4560 H 416.795 -2.44538 -2.83112 0
M  V30 4561 H 418.128 -3.20244 -3.73771 0
M  V30 4562 N 419.78 1.02168 -1.19998 0
M  V30 4563 C 420.69 2.14069 -0.959774 0
M  V30 4564 C 421.706 1.73804 0.082655 0
M  V30 4565 O 422.882 2.01133 -0.103633 0
M  V30 4566 C 419.947 3.42936 -0.509459 0
M  V30 4567 C 419.008 3.97474 -1.62213 0
M  V30 4568 C 418.241 5.2019 -1.19321 0
M  V30 4569 O 418.464 5.70369 -0.0597726 0
M  V30 4570 O 417.398 5.67749 -1.99863 0
M  V30 4571 H 421.224 2.37199 -1.89658 0
M  V30 4572 H 418.809 1.12469 -0.983411 0
M  V30 4573 H 420.691 4.20551 -0.267322 0
M  V30 4574 H 419.366 3.21234 0.398821 0
M  V30 4575 H 418.273 3.21161 -1.9185 0
M  V30 4576 H 419.606 4.23555 -2.50723 0
M  V30 4577 O 421.297 1.13266 1.15122 0
M  V30 4578 H 421.988 0.848237 1.7414 0
M  V30 END ATOM
M  V30 BEGIN BOND
M  V30 END BOND
M  V30 END CTAB
M  END
$$$$
