drugbank_target|P50281 Matrix metalloproteinase-14 (DB00786)
 OpenBabel12092120363D

  0  0  0     0  0            999 V3000
M  V30 BEGIN CTAB
M  V30 COUNTS 9177 9322 0 0 0
M  V30 BEGIN ATOM
M  V30 1 H -0.908 1.98254 -0.117106 0
M  V30 2 N 0 1.576 0 0
M  V30 3 C 0.933 2.03868 1.02534 0
M  V30 4 C 1.911 0.928543 1.3348 0
M  V30 5 O 3.095 1.19667 1.45644 0
M  V30 6 C 0.222 2.43627 2.35294 0
M  V30 7 C -0.732 3.65373 2.2001 0
M  V30 8 S 0.101 5.13292 1.52614 0
M  V30 9 C 1.257 5.56322 2.86805 0
M  V30 10 H 1.49 2.90518 0.631377 0
M  V30 11 H -0.977 1.52953 0.210867 0
M  V30 12 H 0.981 2.67203 3.11629 0
M  V30 13 H -0.358 1.57376 2.7183 0
M  V30 14 H -1.165 3.90944 3.18086 0
M  V30 15 H -1.563 3.418 1.51819 0
M  V30 16 H 0.729 5.58782 3.83104 0
M  V30 17 H 1.672 6.56266 2.65933 0
M  V30 18 H 2.08 4.83886 2.90714 0
M  V30 19 N 1.4781 -0.272755 1.55222 0
M  V30 20 C 2.7031 -1.02683 1.80197 0
M  V30 21 C 3.1281 -1.79142 0.573551 0
M  V30 22 O 2.4861 -1.74917 -0.476849 0
M  V30 23 C 2.5341 -1.9609 3.02624 0
M  V30 24 O 1.6381 -3.04863 2.77727 0
M  V30 25 H 0.9791 -0.293557 0.595584 0
M  V30 26 H 3.5091 -0.30159 2.02365 0
M  V30 27 H 3.5191 -2.38039 3.31363 0
M  V30 28 H 2.1941 -1.39851 3.91682 0
M  V30 29 H 0.7711 -2.67228 2.60084 0
M  V30 30 N 2.9562 -1.48159 -0.537278 0
M  V30 31 C 4.3672 -1.49429 -1.11928 0
M  V30 32 C 4.7182 -0.26 -1.9447 0
M  V30 33 O 3.8432 0.633489 -2.0692 0
M  V30 34 C 4.4382 -2.70758 -2.03656 0
M  V30 35 C 2.9972 -2.74923 -2.57088 0
M  V30 36 C 2.1442 -2.42835 -1.3389 0
M  V30 37 H 5.0952 -1.55381 -0.322886 0
M  V30 38 H 5.1162 -2.48861 -2.87834 0
M  V30 39 H 4.6282 -3.60575 -1.43553 0
M  V30 40 H 2.7292 -1.89296 -3.20933 0
M  V30 41 H 2.8422 -3.76157 -2.9672 0
M  V30 42 H 1.2062 -1.93836 -1.65226 0
M  V30 43 H 1.9892 -3.34884 -0.755504 0
M  V30 44 N 4.4343 0.785586 -1.36625 0
M  V30 45 C 5.3973 1.87999 -1.31107 0
M  V30 46 C 6.3973 1.59316 -0.217959 0
M  V30 47 O 7.5873 1.67656 -0.472977 0
M  V30 48 C 4.7193 3.24861 -1.03334 0
M  V30 49 H 5.9123 1.94307 -2.2844 0
M  V30 50 H 3.4653 0.983813 -1.21453 0
M  V30 51 H 4.2003 3.24235 -0.0647432 0
M  V30 52 H 3.9853 3.4707 -1.82441 0
M  V30 53 H 5.4753 4.04929 -1.02088 0
M  V30 54 N 5.9124 1.20967 1.01018 0
M  V30 55 C 7.3234 1.02319 1.56165 0
M  V30 56 C 7.6744 -0.418546 1.91684 0
M  V30 57 O 6.7994 -1.30096 1.72928 0
M  V30 58 C 7.3944 1.85109 2.8376 0
M  V30 59 C 5.9534 1.70809 3.35412 0
M  V30 60 C 5.1004 1.82643 2.08655 0
M  V30 61 H 8.0514 1.35065 0.833255 0
M  V30 62 H 8.0724 1.35827 3.55431 0
M  V30 63 H 7.5844 2.90035 2.57878 0
M  V30 64 H 5.6854 0.685464 3.66241 0
M  V30 65 H 5.7984 2.52467 4.07182 0
M  V30 66 H 4.1624 1.25896 2.21409 0
M  V30 67 H 4.9454 2.89066 1.85191 0
M  V30 68 N 7.3905 -1.2043 1.01659 0
M  V30 69 C 8.8065 -1.41852 0.731442 0
M  V30 70 C 9.0065 -1.89358 -0.688898 0
M  V30 71 O 8.0625 -2.06247 -1.45666 0
M  V30 72 C 9.3755 -2.44019 1.75714 0
M  V30 73 C 10.9235 -2.57785 1.77527 0
M  V30 74 C 11.3985 -3.63194 2.79023 0
M  V30 75 N 12.8895 -3.70678 2.77763 0
M  V30 76 C 13.6245 -4.51897 3.52954 0
M  V30 77 N 13.1205 -5.36921 4.37821 0
M  V30 78 N 14.9135 -4.4643 3.41551 0
M  V30 79 H 7.0645 -0.879093 1.93354 0
M  V30 80 H 9.3275 -0.448425 0.835236 0
M  V30 81 H 9.0335 -2.1611 2.77469 0
M  V30 82 H 8.9075 -3.43007 1.56927 0
M  V30 83 H 11.2945 -2.85023 0.764569 0
M  V30 84 H 11.3755 -1.58992 2.00387 0
M  V30 85 H 11.0195 -3.36699 3.80258 0
M  V30 86 H 10.9495 -4.61609 2.53425 0
M  V30 87 H 13.4405 -3.09944 2.16201 0
M  V30 88 H 13.7535 -5.95981 4.91962 0
M  V30 89 H 12.0985 -5.36424 4.41899 0
M  V30 90 H 15.2895 -3.79042 2.74672 0
M  V30 91 H 15.4625 -5.09491 4.00404 0
M  V30 92 N 8.8686 -0.792821 -1.36206 0
M  V30 93 C 10.2796 -0.429513 -1.81692 0
M  V30 94 C 10.6306 1.04695 -1.65932 0
M  V30 95 O 9.7556 1.81256 -1.18218 0
M  V30 96 C 10.3506 -0.772831 -3.29868 0
M  V30 97 C 8.9096 -0.462307 -3.7355 0
M  V30 98 C 8.0566 -1.00569 -2.5842 0
M  V30 99 H 11.0076 -0.985672 -1.24379 0
M  V30 100 H 11.0286 -0.0651928 -3.80444 0
M  V30 101 H 10.5406 -1.84747 -3.41307 0
M  V30 102 H 8.6416 0.604158 -3.67669 0
M  V30 103 H 8.7546 -0.985299 -4.68859 0
M  V30 104 H 7.1186 -0.428734 -2.51066 0
M  V30 105 H 7.9016 -2.08616 -2.72643 0
M  V30 106 N 10.3467 1.47872 -0.545128 0
M  V30 107 C 11.7577 1.86384 -0.108581 0
M  V30 108 C 12.1087 1.45309 1.31832 0
M  V30 109 O 11.2337 0.850641 1.9898 0
M  V30 110 C 11.8287 3.38265 -0.190274 0
M  V30 111 C 10.3877 3.75914 0.191164 0
M  V30 112 C 9.5347 2.71926 -0.543273 0
M  V30 113 H 12.4857 1.39561 -0.755537 0
M  V30 114 H 12.5067 3.75831 0.594217 0
M  V30 115 H 12.0187 3.6813 -1.2289 0
M  V30 116 H 10.1197 3.51665 1.23136 0
M  V30 117 H 10.2327 4.78836 -0.158987 0
M  V30 118 H 8.5967 2.54697 0.0122495 0
M  V30 119 H 9.3797 3.04634 -1.58282 0
M  V30 120 N 11.8248 0.280983 1.55075 0
M  V30 121 C 13.2408 -0.0729964 1.59433 0
M  V30 122 C 13.4408 -1.5411 1.29817 0
M  V30 123 O 12.4968 -2.29086 1.06187 0
M  V30 124 C 13.8098 0.306921 2.9913 0
M  V30 125 C 15.3578 0.254023 3.11968 0
M  V30 126 C 15.8328 0.608467 4.5394 0
M  V30 127 N 17.3238 0.560241 4.59799 0
M  V30 128 C 18.0588 0.80722 5.6769 0
M  V30 129 N 17.5548 1.11912 6.83701 0
M  V30 130 N 19.3478 0.735623 5.57266 0
M  V30 131 H 11.4988 1.238 1.7259 0
M  V30 132 H 13.7618 0.500547 0.805082 0
M  V30 133 H 13.4678 1.32816 3.25657 0
M  V30 134 H 13.3418 -0.349363 3.75579 0
M  V30 135 H 15.7288 -0.75794 2.852 0
M  V30 136 H 15.8098 0.944649 2.37718 0
M  V30 137 H 15.4538 1.61814 4.81434 0
M  V30 138 H 15.3838 -0.104013 5.26497 0
M  V30 139 H 17.8748 0.329288 3.76463 0
M  V30 140 H 18.1878 1.29409 7.61888 0
M  V30 141 H 16.5328 1.15695 6.85303 0
M  V30 142 H 19.7238 0.491752 4.6551 0
M  V30 143 H 19.8968 0.931482 6.4127 0
M  V30 144 N 13.3029 -1.57598 0.00835791 0
M  V30 145 C 14.5429 -1.92788 -0.679136 0
M  V30 146 C 14.9069 -0.883378 -1.70471 0
M  V30 147 O 16.1079 -1.12079 -2.44319 0
M  V30 148 C 14.3789 -3.32994 -1.29807 0
M  V30 149 S 15.9379 -3.90082 -2.00952 0
M  V30 150 H 12.7559 -0.67475 -0.224127 0
M  V30 151 H 15.3579 -1.95385 0.0670497 0
M  V30 152 H 14.0619 -4.06846 -0.538922 0
M  V30 153 H 13.5929 -3.33791 -2.082 0
M  V30 154 H 15.6079 -3.71834 -3.28563 0
M  V30 155 N 14.781 0.264519 -1.55364 0
M  V30 156 C 15.711 1.33121 -1.91836 0
M  V30 157 C 16.692 1.51101 -0.781192 0
M  V30 158 O 17.877 1.64003 -1.04003 0
M  V30 159 C 15.007 2.68921 -2.19769 0
M  V30 160 C 13.961 2.65661 -3.35571 0
M  V30 161 C 13.287 4.05093 -3.49004 0
M  V30 162 C 14.587 2.24187 -4.71739 0
M  V30 163 H 16.281 1.02844 -2.81182 0
M  V30 164 H 13.827 0.493286 -1.35287 0
M  V30 165 H 15.78 3.43663 -2.43872 0
M  V30 166 H 14.504 3.00799 -1.27231 0
M  V30 167 H 13.163 1.93377 -3.1145 0
M  V30 168 H 12.811 4.34206 -2.53917 0
M  V30 169 H 12.511 4.03804 -4.26868 0
M  V30 170 H 14.035 4.81561 -3.75408 0
M  V30 171 H 15.449 2.88654 -4.9533 0
M  V30 172 H 13.846 2.34044 -5.52579 0
M  V30 173 H 14.916 1.19327 -4.69988 0
M  V30 174 N 16.2591 1.48442 0.529413 0
M  V30 175 C 17.1891 1.65902 1.64313 0
M  V30 176 C 18.1701 0.507897 1.6234 0
M  V30 177 O 19.3551 0.740503 1.79528 0
M  V30 178 C 16.4851 1.69911 3.02898 0
M  V30 179 C 15.4391 2.8453 3.19729 0
M  V30 180 C 14.7651 2.73629 4.59381 0
M  V30 181 C 16.0651 4.25821 3.02447 0
M  V30 182 H 17.7591 2.5914 1.49955 0
M  V30 183 H 15.3051 1.24709 0.719982 0
M  V30 184 H 17.2581 1.80715 3.80684 0
M  V30 185 H 15.9821 0.732524 3.18279 0
M  V30 186 H 14.6411 2.73283 2.44361 0
M  V30 187 H 14.2891 1.74938 4.71599 0
M  V30 188 H 13.9891 3.50541 4.71588 0
M  V30 189 H 15.5131 2.86401 5.39265 0
M  V30 190 H 16.9271 4.37898 3.70024 0
M  V30 191 H 15.3241 5.03735 3.26146 0
M  V30 192 H 16.3941 4.42244 1.98867 0
M  V30 193 N 17.7372 -0.778329 1.37039 0
M  V30 194 C 18.6672 -1.90546 1.34962 0
M  V30 195 C 19.6482 -1.68681 0.219274 0
M  V30 196 O 20.8332 -1.89634 0.418624 0
M  V30 197 C 17.9632 -3.27734 1.14925 0
M  V30 198 C 16.9172 -3.64147 2.24902 0
M  V30 199 C 16.2432 -4.99806 1.89996 0
M  V30 200 C 17.5432 -3.71579 3.67051 0
M  V30 201 H 19.2372 -1.92541 2.29277 0
M  V30 202 H 16.7832 -0.924948 1.10366 0
M  V30 203 H 18.7362 -4.06215 1.12104 0
M  V30 204 H 17.4602 -3.26154 0.170631 0
M  V30 205 H 16.1192 -2.8797 2.26868 0
M  V30 206 H 15.7672 -4.94759 0.906796 0
M  V30 207 H 15.4672 -5.25139 2.63634 0
M  V30 208 H 16.9912 -5.80694 1.88749 0
M  V30 209 H 18.4052 -4.40227 3.67251 0
M  V30 210 H 16.8022 -4.08405 4.39688 0
M  V30 211 H 17.8722 -2.72404 4.01154 0
M  V30 212 N 19.2153 -1.21501 -1.00376 0
M  V30 213 C 20.6263 -1.03146 -1.55621 0
M  V30 214 C 20.9773 0.408375 -1.91903 0
M  V30 215 O 20.1023 1.29177 -1.73616 0
M  V30 216 C 20.6973 -1.86612 -2.82775 0
M  V30 217 C 19.2563 -1.72586 -3.34501 0
M  V30 218 C 18.4033 -1.83747 -2.07683 0
M  V30 219 H 21.3543 -1.35505 -0.826081 0
M  V30 220 H 21.3753 -1.3771 -3.54706 0
M  V30 221 H 20.8873 -2.91399 -2.56336 0
M  V30 222 H 18.9883 -0.704877 -3.65872 0
M  V30 223 H 19.1013 -2.54623 -4.05837 0
M  V30 224 H 17.4653 -1.27069 -2.20739 0
M  V30 225 H 18.2483 -2.90044 -1.83655 0
M  V30 226 N 20.6934 1.19889 -1.02296 0
M  V30 227 C 21.6234 2.25141 -0.619174 0
M  V30 228 C 22.6044 1.66051 0.368915 0
M  V30 229 O 23.7894 1.92546 0.252941 0
M  V30 230 C 20.9194 3.4728 0.0368783 0
M  V30 231 C 19.8734 4.19005 -0.872865 0
M  V30 232 C 19.1994 5.34637 -0.0822402 0
M  V30 233 C 20.4994 4.74452 -2.18387 0
M  V30 234 H 22.1934 2.59171 -1.49903 0
M  V30 235 H 19.7394 1.24579 -0.722222 0
M  V30 236 H 21.6924 4.20098 0.330958 0
M  V30 237 H 20.4164 3.12433 0.95149 0
M  V30 238 H 19.0754 3.48061 -1.15105 0
M  V30 239 H 18.7234 4.96034 0.83422 0
M  V30 240 H 18.4234 5.83557 -0.688149 0
M  V30 241 H 19.9474 6.10255 0.205238 0
M  V30 242 H 21.3614 5.39055 -1.95172 0
M  V30 243 H 19.7584 5.33834 -2.74119 0
M  V30 244 H 20.8284 3.92844 -2.84257 0
M  V30 245 N 22.1715 0.800033 1.35784 0
M  V30 246 C 23.1015 0.220184 2.3246 0
M  V30 247 C 24.0825 -0.65073 1.57161 0
M  V30 248 O 25.2675 -0.582359 1.85263 0
M  V30 249 C 22.3975 -0.637353 3.41402 0
M  V30 250 C 21.3515 0.134531 4.27789 0
M  V30 251 C 20.6775 -0.844285 5.27992 0
M  V30 252 C 21.9775 1.32979 5.05088 0
M  V30 253 H 23.6715 1.02787 2.81203 0
M  V30 254 H 21.2175 0.495717 1.35199 0
M  V30 255 H 23.1705 -1.05302 4.08031 0
M  V30 256 H 21.8945 -1.47785 2.91251 0
M  V30 257 H 20.5535 0.531296 3.6273 0
M  V30 258 H 20.2015 -1.68011 4.74111 0
M  V30 259 H 19.9015 -0.332184 5.8666 0
M  V30 260 H 21.4255 -1.2583 5.97494 0
M  V30 261 H 22.8395 0.98934 5.64699 0
M  V30 262 H 21.2365 1.77593 5.7322 0
M  V30 263 H 22.3065 2.11978 4.36111 0
M  V30 264 N 23.6496 -1.47581 0.552962 0
M  V30 265 C 24.8776 -2.06875 0.0320556 0
M  V30 266 C 25.2926 -1.40625 -1.25976 0
M  V30 267 O 24.6496 -0.501349 -1.75479 0
M  V30 268 C 24.7006 -3.61092 -0.17167 0
M  V30 269 O 24.4216 -4.24858 1.06899 0
M  V30 270 C 25.9226 -4.37242 -0.730344 0
M  V30 271 H 23.1426 -0.669561 0.043915 0
M  V30 272 H 25.6866 -1.89646 0.765163 0
M  V30 273 H 23.8416 -3.7785 -0.854894 0
M  V30 274 H 24.2556 -5.17334 0.864059 0
M  V30 275 H 25.7296 -5.45842 -0.822203 0
M  V30 276 H 26.2066 -4.03235 -1.74064 0
M  V30 277 H 26.8126 -4.25219 -0.0829543 0
M  V30 278 N 25.1277 -0.289203 -1.54924 0
M  V30 279 C 26.0577 0.58549 -2.2604 0
M  V30 280 C 27.0387 1.14753 -1.25562 0
M  V30 281 O 28.2237 1.17906 -1.54311 0
M  V30 282 C 25.3537 1.76305 -2.99222 0
M  V30 283 C 24.3077 1.33191 -4.06748 0
M  V30 284 C 23.6337 2.5937 -4.6758 0
M  V30 285 C 24.9337 0.471775 -5.20165 0
M  V30 286 H 26.6277 -0.00763532 -2.99399 0
M  V30 287 H 24.1737 -0.00511229 -1.43999 0
M  V30 288 H 26.1267 2.38097 -3.47689 0
M  V30 289 H 24.8507 2.38223 -2.23422 0
M  V30 290 H 23.5097 0.737121 -3.59113 0
M  V30 291 H 23.1577 3.19576 -3.88433 0
M  V30 292 H 22.8577 2.31228 -5.40192 0
M  V30 293 H 24.3817 3.21985 -5.18804 0
M  V30 294 H 25.7957 0.995056 -5.64599 0
M  V30 295 H 24.1927 0.284639 -5.99425 0
M  V30 296 H 25.2627 -0.506041 -4.82252 0
M  V30 297 N 26.6058 1.57591 -0.0167156 0
M  V30 298 C 27.8538 1.90906 0.663285 0
M  V30 299 C 28.1748 0.892509 1.73376 0
M  V30 300 O 27.4448 -0.0677623 1.95783 0
M  V30 301 H 26.0248 0.704637 0.247983 0
M  V30 302 H 28.6868 1.94803 -0.0615909 0
M  V30 303 H 27.7828 2.9116 1.12393 0
M  V30 304 N 28.0839 -0.256276 1.55502 0
M  V30 305 C 29.3119 -1.00342 1.8094 0
M  V30 306 C 29.7269 -1.79307 0.59114 0
M  V30 307 O 29.0839 -1.77114 -0.440081 0
M  V30 308 C 29.1349 -1.94875 3.04476 0
M  V30 309 O 28.8559 -1.19107 4.21598 0
M  V30 310 C 30.3569 -2.81266 3.42644 0
M  V30 311 H 27.5769 -0.295685 0.602338 0
M  V30 312 H 30.1209 -0.281998 2.02546 0
M  V30 313 H 28.2759 -2.62457 2.84947 0
M  V30 314 H 28.6899 -1.82969 4.91551 0
M  V30 315 H 30.1639 -3.43362 4.32211 0
M  V30 316 H 30.6409 -3.51897 2.62802 0
M  V30 317 H 31.2469 -2.1915 3.64491 0
M  V30 318 N 29.562 -1.4872 -0.521534 0
M  V30 319 C 30.525 -1.63379 -1.60748 0
M  V30 320 C 31.525 -0.50661 -1.52611 0
M  V30 321 O 32.715 -0.772601 -1.5613 0
M  V30 322 C 29.847 -1.61192 -3.00383 0
M  V30 323 H 31.04 -2.60217 -1.49087 0
M  V30 324 H 28.593 -1.37444 -0.744235 0
M  V30 325 H 29.328 -0.65863 -3.17541 0
M  V30 326 H 29.113 -2.43032 -3.07698 0
M  V30 327 H 30.603 -1.7466 -3.7932 0
M  V30 328 N 31.0401 0.771051 -1.3745 0
M  V30 329 C 31.9701 1.89827 -1.3597 0
M  V30 330 C 32.9511 1.68562 -0.228216 0
M  V30 331 O 34.1361 1.8941 -0.428675 0
M  V30 332 C 31.2661 3.2712 -1.16662 0
M  V30 333 C 30.2201 3.6295 -2.2683 0
M  V30 334 C 29.5461 4.98791 -1.92644 0
M  V30 335 C 30.8461 3.69627 -3.69017 0
M  V30 336 H 32.5401 1.91323 -2.30295 0
M  V30 337 H 30.0861 0.919082 -1.10855 0
M  V30 338 H 32.0391 4.05615 -1.14256 0
M  V30 339 H 30.7631 3.26059 -0.187926 0
M  V30 340 H 29.4221 2.86763 -2.28392 0
M  V30 341 H 29.0701 4.94271 -0.933021 0
M  V30 342 H 28.7701 5.23733 -2.66416 0
M  V30 343 H 30.2941 5.79685 -1.91826 0
M  V30 344 H 31.7081 4.38273 -3.69581 0
M  V30 345 H 30.1051 4.06067 -4.41848 0
M  V30 346 H 31.1751 2.70273 -4.02592 0
M  V30 347 N 32.5182 1.22032 0.997298 0
M  V30 348 C 33.4812 0.987909 2.06816 0
M  V30 349 C 34.4812 -0.0440084 1.6074 0
M  V30 350 O 35.6712 0.194053 1.73116 0
M  V30 351 C 32.8032 0.49132 3.37341 0
M  V30 352 H 33.9962 1.93803 2.28868 0
M  V30 353 H 31.5492 1.03838 1.16822 0
M  V30 354 H 32.2842 -0.463364 3.20973 0
M  V30 355 H 32.0692 1.23575 3.72118 0
M  V30 356 H 33.5592 0.348824 4.16141 0
M  V30 357 N 33.9963 -1.19345 1.0293 0
M  V30 358 C 35.2213 -1.93538 0.745511 0
M  V30 359 C 35.6463 -1.75007 -0.689511 0
M  V30 360 O 35.0043 -1.05265 -1.47611 0
M  V30 361 C 35.0523 -3.43336 1.10239 0
M  V30 362 O 34.1563 -4.11806 0.221289 0
M  V30 363 H 33.4973 -0.604193 0.275404 0
M  V30 364 H 36.0273 -1.5141 1.37609 0
M  V30 365 H 36.0373 -3.94004 1.05947 0
M  V30 366 H 34.7123 -3.56146 2.14786 0
M  V30 367 H 33.2893 -3.715 0.322842 0
M  V30 368 N 35.4744 -0.807222 -1.35358 0
M  V30 369 C 36.4044 -0.232509 -2.3234 0
M  V30 370 C 37.3854 0.642386 -1.57504 0
M  V30 371 O 38.5704 0.572526 -1.85569 0
M  V30 372 C 35.7004 0.619238 -3.41735 0
M  V30 373 C 34.6544 -0.157215 -4.27711 0
M  V30 374 C 33.9804 0.816273 -5.28433 0
M  V30 375 C 35.2804 -1.35656 -5.04376 0
M  V30 376 H 36.9744 -1.04276 -2.80654 0
M  V30 377 H 34.5204 -0.50288 -1.34934 0
M  V30 378 H 36.4734 1.03137 -4.08584 0
M  V30 379 H 35.1974 1.46239 -2.92031 0
M  V30 380 H 33.8564 -0.550525 -3.62443 0
M  V30 381 H 33.5044 1.65494 -4.74996 0
M  V30 382 H 33.2044 0.301067 -5.86828 0
M  V30 383 H 34.7284 1.22659 -5.98153 0
M  V30 384 H 36.1424 -1.01927 -5.64166 0
M  V30 385 H 34.5394 -1.8063 -5.7227 0
M  V30 386 H 35.6094 -2.14288 -4.34981 0
M  V30 387 N 36.9525 1.47285 -0.560781 0
M  V30 388 C 38.2005 2.02064 -0.0379868 0
M  V30 389 C 38.5215 1.43711 1.31803 0
M  V30 390 O 37.7915 0.61362 1.86042 0
M  V30 391 H 36.3715 0.746918 -0.0110531 0
M  V30 392 H 39.0335 1.80648 -0.731598 0
M  V30 393 H 38.1295 3.12064 0.0474463 0
M  V30 394 N 38.4306 0.297415 1.54768 0
M  V30 395 C 39.6556 -0.318435 2.04941 0
M  V30 396 C 40.0806 -1.4701 1.17345 0
M  V30 397 O 39.4386 -1.80436 0.176758 0
M  V30 398 C 39.4866 -0.755749 3.52592 0
M  V30 399 O 38.5906 -1.86088 3.68028 0
M  V30 400 H 37.9316 -0.062421 0.661059 0
M  V30 401 H 40.4616 0.438215 1.99852 0
M  V30 402 H 40.4716 -1.04552 3.94376 0
M  V30 403 H 39.1466 0.0867233 4.1581 0
M  V30 404 H 37.7236 -1.57193 3.38149 0
M  V30 405 N 39.9087 -1.5758 0.0250728 0
M  V30 406 C 40.8717 -2.08896 -0.943139 0
M  V30 407 C 41.8717 -1.00321 -1.25668 0
M  V30 408 O 43.0617 -1.26495 -1.19769 0
M  V30 409 C 40.1937 -2.55143 -2.26086 0
M  V30 410 H 41.3867 -2.95723 -0.498775 0
M  V30 411 H 38.9397 -1.54703 -0.222888 0
M  V30 412 H 39.6747 -1.71633 -2.75159 0
M  V30 413 H 39.4597 -3.34461 -2.04641 0
M  V30 414 H 40.9497 -2.95083 -2.95492 0
M  V30 415 N 41.3868 0.248026 -1.55636 0
M  V30 416 C 42.3188 1.32993 -1.8667 0
M  V30 417 C 43.3318 1.44345 -0.752877 0
M  V30 418 O 44.5208 1.45715 -1.03098 0
M  V30 419 C 41.6208 2.70863 -2.03682 0
M  V30 420 C 40.7938 2.81792 -3.34532 0
M  V30 421 C 39.8528 4.005 -3.41301 0
M  V30 422 O 38.8788 3.9008 -4.14519 0
M  V30 423 N 40.0808 5.13618 -2.70512 0
M  V30 424 H 42.8458 1.06707 -2.8006 0
M  V30 425 H 40.4068 0.438129 -1.55859 0
M  V30 426 H 42.3988 3.48612 -2.05553 0
M  V30 427 H 40.9688 2.89862 -1.17041 0
M  V30 428 H 40.1888 1.90729 -3.44987 0
M  V30 429 H 41.4768 2.86043 -4.20781 0
M  V30 430 H 40.8748 5.24975 -2.10755 0
M  V30 431 H 39.4318 5.89505 -2.78077 0
M  V30 432 N 42.8649 1.48995 0.513639 0
M  V30 433 C 44.0899 1.61792 1.29762 0
M  V30 434 C 44.5149 0.284475 1.85936 0
M  V30 435 O 43.8729 -0.746185 1.65232 0
M  V30 436 C 43.9209 2.67993 2.41272 0
M  V30 437 O 43.0249 2.26287 3.44772 0
M  V30 438 H 42.3659 0.541963 0.38363 0
M  V30 439 H 44.8959 1.95097 0.616307 0
M  V30 440 H 44.9059 2.89772 2.87221 0
M  V30 441 H 43.5809 3.64791 1.9975 0
M  V30 442 H 42.1579 2.14788 3.04829 0
M  V30 443 N 44.343 -0.763751 1.37857 0
M  V30 444 C 45.568 -1.55805 1.36893 0
M  V30 445 C 45.993 -1.88054 -0.0416135 0
M  V30 446 O 45.351 -1.49825 -1.02089 0
M  V30 447 C 45.399 -2.84012 2.22192 0
M  V30 448 O 44.503 -3.78732 1.63204 0
M  V30 449 H 43.844 -0.471638 0.46739 0
M  V30 450 H 46.374 -0.944657 1.81487 0
M  V30 451 H 46.384 -3.33037 2.35691 0
M  V30 452 H 45.059 -2.59869 3.24716 0
M  V30 453 H 43.636 -3.37402 1.58791 0
M  V30 454 N 45.8211 -1.22559 -0.990812 0
M  V30 455 C 47.0461 -1.07862 -1.77145 0
M  V30 456 C 47.4711 0.366447 -1.84496 0
M  V30 457 O 46.8291 1.26478 -1.29896 0
M  V30 458 C 46.8771 -1.69686 -3.18181 0
M  V30 459 O 45.9811 -0.951946 -4.01263 0
M  V30 460 H 45.3221 -0.378712 -0.545411 0
M  V30 461 H 47.8521 -1.62399 -1.2445 0
M  V30 462 H 47.8621 -1.74496 -3.68802 0
M  V30 463 H 46.5371 -2.74841 -3.12146 0
M  V30 464 H 45.1141 -0.980011 -3.59792 0
M  V30 465 N 47.2992 1.18797 -1.03562 0
M  V30 466 C 48.5462 1.8865 -0.736023 0
M  V30 467 C 48.8742 1.80041 0.735889 0
M  V30 468 O 48.1292 1.19179 1.55225 0
M  V30 469 C 48.4282 3.38692 -1.14117 0
M  V30 470 C 48.0942 3.67504 -2.6125 0
M  V30 471 C 46.7562 3.75078 -3.01447 0
M  V30 472 C 49.1082 3.80293 -3.56408 0
M  V30 473 C 46.4362 3.92915 -4.35701 0
M  V30 474 C 48.7882 3.99645 -4.90374 0
M  V30 475 C 47.4522 4.05453 -5.30249 0
M  V30 476 H 46.7222 0.690321 -0.26933 0
M  V30 477 H 49.3692 1.40641 -1.29971 0
M  V30 478 H 47.6742 3.88645 -0.496202 0
M  V30 479 H 49.3712 3.91072 -0.886789 0
M  V30 480 H 45.9612 3.62223 -2.29113 0
M  V30 481 H 50.1452 3.73779 -3.26501 0
M  V30 482 H 45.4012 3.95653 -4.66121 0
M  V30 483 H 49.5752 4.08482 -5.64017 0
M  V30 484 H 47.2022 4.19027 -6.34288 0
M  V30 485 N 48.7773 0.814389 1.34928 0
M  V30 486 C 50.0023 0.410097 2.03305 0
M  V30 487 C 50.4273 -0.973464 1.60951 0
M  V30 488 O 49.7853 -1.63185 0.789964 0
M  V30 489 C 49.8333 0.51049 3.56968 0
M  V30 490 O 48.9373 -0.473035 4.09678 0
M  V30 491 H 48.2783 0.170088 0.641846 0
M  V30 492 H 50.8083 1.10244 1.72358 0
M  V30 493 H 50.8183 0.383135 4.06197 0
M  V30 494 H 49.4933 1.51963 3.87144 0
M  V30 495 H 48.0703 -0.305272 3.71648 0
M  V30 496 N 50.2554 -1.46986 0.568584 0
M  V30 497 C 51.6664 -1.86188 0.138219 0
M  V30 498 C 52.0174 -1.47388 -1.29504 0
M  V30 499 O 51.1424 -0.88219 -1.97602 0
M  V30 500 C 51.7374 -3.3792 0.244065 0
M  V30 501 C 50.2964 -3.76171 -0.131335 0
M  V30 502 C 49.4434 -2.71027 0.586465 0
M  V30 503 H 52.3944 -1.38342 0.777645 0
M  V30 504 H 52.4154 -3.76729 -0.534351 0
M  V30 505 H 51.9274 -3.66128 1.28731 0
M  V30 506 H 50.0284 -3.5358 -1.17526 0
M  V30 507 H 50.1414 -4.78523 0.235146 0
M  V30 508 H 48.5054 -2.54684 0.0282722 0
M  V30 509 H 49.2884 -3.02077 1.63109 0
M  V30 510 N 51.7335 -0.305618 -1.54608 0
M  V30 511 C 52.6435 0.57778 -2.27374 0
M  V30 512 C 53.6595 1.14451 -1.31061 0
M  V30 513 O 54.8355 1.16831 -1.6405 0
M  V30 514 C 51.9005 1.73123 -3.00382 0
M  V30 515 C 50.9615 1.19812 -4.12242 0
M  V30 516 C 50.1945 2.2966 -4.81759 0
M  V30 517 O 50.4175 3.49651 -4.50666 0
M  V30 518 O 49.3515 1.96091 -5.69062 0
M  V30 519 H 53.1775 -0.012624 -3.03697 0
M  V30 520 H 50.7625 -0.0719184 -1.49227 0
M  V30 521 H 52.6445 2.40315 -3.4616 0
M  V30 522 H 51.3195 2.30815 -2.26949 0
M  V30 523 H 50.2265 0.491798 -3.70853 0
M  V30 524 H 51.5595 0.666566 -4.87666 0
M  V30 525 N 53.2116 1.57565 -0.0334293 0
M  V30 526 C 54.1746 2.09393 0.932048 0
M  V30 527 C 55.1746 1.00986 1.25134 0
M  V30 528 O 56.3646 1.27129 1.19096 0
M  V30 529 C 53.4966 2.56338 2.2473 0
M  V30 530 H 54.6896 2.95984 0.483085 0
M  V30 531 H 52.2426 1.54819 0.21468 0
M  V30 532 H 52.9776 1.7309 2.74245 0
M  V30 533 H 52.7626 3.35542 2.02865 0
M  V30 534 H 54.2526 2.96646 2.93923 0
M  V30 535 N 54.6897 -0.239769 1.55765 0
M  V30 536 C 55.9357 -0.963942 1.79108 0
M  V30 537 C 56.2907 -1.82689 0.60352 0
M  V30 538 O 55.5837 -1.87313 -0.403033 0
M  V30 539 C 55.7777 -1.852 3.05672 0
M  V30 540 C 55.6067 -1.07651 4.36625 0
M  V30 541 C 54.3767 -0.778738 4.99263 0
M  V30 542 C 56.5747 -0.45062 5.12322 0
M  V30 543 N 54.5567 0.0200708 6.13897 0
M  V30 544 C 55.9277 0.212429 6.19636 0
M  V30 545 C 57.9827 -0.361806 4.96584 0
M  V30 546 C 56.6857 0.955772 7.12922 0
M  V30 547 C 58.7117 0.368023 5.90254 0
M  V30 548 C 58.0737 1.01968 6.96981 0
M  V30 549 H 54.1727 -0.333601 0.707272 0
M  V30 550 H 56.7567 -0.236425 1.93259 0
M  V30 551 H 54.9277 -2.55149 2.92837 0
M  V30 552 H 56.6597 -2.51228 3.1728 0
M  V30 553 H 53.4147 -1.09229 4.60832 0
M  V30 554 H 53.8387 0.407777 6.75771 0
M  V30 555 H 58.4807 -0.851286 4.14141 0
M  V30 556 H 56.1987 1.45683 7.9486 0
M  V30 557 H 59.7847 0.437504 5.80153 0
M  V30 558 H 58.6647 1.5754 7.68213 0
M  V30 559 N 56.1678 -1.49265 -0.50573 0
M  V30 560 C 57.0978 -1.68495 -1.61653 0
M  V30 561 C 58.0788 -0.53366 -1.61512 0
M  V30 562 O 59.2638 -0.76897 -1.78327 0
M  V30 563 C 56.3938 -1.74709 -3.00157 0
M  V30 564 C 55.3478 -2.89581 -3.15162 0
M  V30 565 C 54.6738 -2.80903 -4.5497 0
M  V30 566 C 55.9738 -4.30578 -2.95634 0
M  V30 567 H 57.6678 -2.61493 -1.45814 0
M  V30 568 H 55.2138 -1.25838 -0.70005 0
M  V30 569 H 57.1668 -1.86748 -3.77761 0
M  V30 570 H 55.8908 -0.783067 -3.17074 0
M  V30 571 H 54.5498 -2.77136 -2.39982 0
M  V30 572 H 54.1978 -1.82419 -4.68756 0
M  V30 573 H 53.8978 -3.57999 -4.65951 0
M  V30 574 H 55.4218 -2.94944 -5.34641 0
M  V30 575 H 56.8358 -4.4373 -3.63011 0
M  V30 576 H 55.2328 -5.0886 -3.18091 0
M  V30 577 H 56.3028 -4.45352 -1.91806 0
M  V30 578 N 57.6459 0.756429 -1.3826 0
M  V30 579 C 58.5779 1.87971 -1.31147 0
M  V30 580 C 59.5909 1.61248 -0.224239 0
M  V30 581 O 60.7799 1.71881 -0.481581 0
M  V30 582 C 57.8799 3.23545 -1.00857 0
M  V30 583 C 57.0529 3.77794 -2.20432 0
M  V30 584 C 56.1119 4.91877 -1.86931 0
M  V30 585 O 55.1379 5.06659 -2.59395 0
M  V30 586 N 56.3399 5.74643 -0.822568 0
M  V30 587 H 59.1049 1.94585 -2.2794 0
M  V30 588 H 56.6659 0.936234 -1.32084 0
M  V30 589 H 58.6579 3.97403 -0.765021 0
M  V30 590 H 57.2279 3.12335 -0.128687 0
M  V30 591 H 56.4479 2.95534 -2.6087 0
M  V30 592 H 57.7359 4.10771 -3.00241 0
M  V30 593 H 57.1339 5.65266 -0.221575 0
M  V30 594 H 55.6909 6.48661 -0.638899 0
M  V30 595 N 59.124 1.23083 0.984299 0
M  V30 596 C 60.056 0.96636 2.07832 0
M  V30 597 C 61.069 -0.0582135 1.62696 0
M  V30 598 O 62.258 0.176843 1.77622 0
M  V30 599 C 59.358 0.433397 3.36117 0
M  V30 600 C 58.531 1.51722 4.10243 0
M  V30 601 C 57.59 0.989821 5.16807 0
M  V30 602 O 56.616 1.67794 5.43906 0
M  V30 603 N 57.818 -0.184367 5.80207 0
M  V30 604 H 60.583 1.90824 2.31098 0
M  V30 605 H 58.144 1.13888 1.1507 0
M  V30 606 H 60.136 0.065699 4.04647 0
M  V30 607 H 58.706 -0.413806 3.09849 0
M  V30 608 H 57.926 2.05786 3.36223 0
M  V30 609 H 59.214 2.24619 4.56534 0
M  V30 610 H 58.612 -0.760062 5.60571 0
M  V30 611 H 57.169 -0.493366 6.4993 0
M  V30 612 N 60.6021 -1.18246 1.0419 0
M  V30 613 C 61.8321 -1.91916 0.764961 0
M  V30 614 C 62.2401 -1.76485 -0.681898 0
M  V30 615 O 61.5831 -1.09275 -1.47664 0
M  V30 616 C 61.6451 -3.4373 1.05309 0
M  V30 617 C 61.3091 -3.8294 2.4941 0
M  V30 618 C 62.3061 -3.86621 3.47592 0
M  V30 619 C 59.9911 -4.142 2.84155 0
M  V30 620 C 61.9851 -4.21013 4.78568 0
M  V30 621 C 59.6721 -4.48262 4.15337 0
M  V30 622 C 60.6701 -4.51645 5.12353 0
M  V30 623 O 60.3581 -4.84911 6.41183 0
M  V30 624 H 60.0901 -0.61606 0.278292 0
M  V30 625 H 62.6441 -1.50947 1.39299 0
M  V30 626 H 60.8741 -3.84946 0.367933 0
M  V30 627 H 62.5631 -3.9865 0.763752 0
M  V30 628 H 63.3291 -3.62607 3.22089 0
M  V30 629 H 59.2081 -4.10743 2.09311 0
M  V30 630 H 62.7521 -4.23568 5.54289 0
M  V30 631 H 58.6491 -4.71737 4.40607 0
M  V30 632 H 59.4171 -5.02809 6.45852 0
M  V30 633 N 62.0802 -0.821533 -1.34494 0
M  V30 634 C 63.3282 -0.408139 -1.97936 0
M  V30 635 C 63.6492 1.03193 -1.65457 0
M  V30 636 O 62.9192 1.71622 -0.944595 0
M  V30 637 H 61.4992 -0.147928 -0.732206 0
M  V30 638 H 64.1612 -1.05067 -1.64155 0
M  V30 639 H 63.2572 -0.52601 -3.07635 0
M  V30 640 N 63.5583 1.46682 -0.576371 0
M  V30 641 C 64.7883 2.06498 -0.0648694 0
M  V30 642 C 65.1963 1.42665 1.24271 0
M  V30 643 O 64.5393 0.523886 1.76071 0
M  V30 644 C 64.6013 3.5904 0.181816 0
M  V30 645 C 64.2653 4.45028 -1.0392 0
M  V30 646 C 65.2623 4.81959 -1.94966 0
M  V30 647 C 62.9473 4.86259 -1.25927 0
M  V30 648 C 64.9413 5.58942 -3.06371 0
M  V30 649 C 62.6283 5.63002 -2.37638 0
M  V30 650 C 63.6263 5.99257 -3.2769 0
M  V30 651 O 63.3143 6.7445 -4.37461 0
M  V30 652 H 63.0463 0.674028 -0.0515987 0
M  V30 653 H 65.6003 1.89393 -0.794951 0
M  V30 654 H 63.8303 3.74429 0.966436 0
M  V30 655 H 65.5193 4.00806 0.641047 0
M  V30 656 H 66.2853 4.50689 -1.79177 0
M  V30 657 H 62.1643 4.57494 -0.567448 0
M  V30 658 H 65.7083 5.87158 -3.76684 0
M  V30 659 H 61.6053 5.93686 -2.53392 0
M  V30 660 H 62.3733 6.92867 -4.35749 0
M  V30 661 N 65.0364 0.313813 1.54444 0
M  V30 662 C 65.9664 -0.549454 2.26943 0
M  V30 663 C 66.9474 -1.12741 1.27372 0
M  V30 664 O 68.1324 -1.15436 1.56167 0
M  V30 665 C 65.2624 -1.71523 3.01989 0
M  V30 666 C 64.2164 -1.26703 4.08816 0
M  V30 667 C 63.5424 -2.51898 4.71647 0
M  V30 668 C 64.8424 -0.388962 5.2085 0
M  V30 669 H 66.5364 0.0552661 2.99349 0
M  V30 670 H 64.0824 0.0280207 1.43973 0
M  V30 671 H 66.0354 -2.32535 3.51433 0
M  V30 672 H 64.7594 -2.34639 2.27183 0
M  V30 673 H 63.4184 -0.679896 3.6024 0
M  V30 674 H 63.0664 -3.13356 3.93468 0
M  V30 675 H 62.7664 -2.22605 5.43802 0
M  V30 676 H 64.2904 -3.1369 5.23861 0
M  V30 677 H 65.7044 -0.905107 5.6611 0
M  V30 678 H 64.1014 -0.18924 5.99802 0
M  V30 679 H 65.1714 0.582699 4.81386 0
M  V30 680 N 66.5145 -1.57545 0.0417849 0
M  V30 681 C 67.9255 -1.80011 -0.495259 0
M  V30 682 C 68.2765 -0.953199 -1.71489 0
M  V30 683 O 67.4015 -0.167138 -2.15754 0
M  V30 684 C 67.9965 -3.26482 -0.905265 0
M  V30 685 C 66.5555 -3.499 -1.38734 0
M  V30 686 C 65.7025 -2.74979 -0.358056 0
M  V30 687 H 68.6535 -1.56425 0.267736 0
M  V30 688 H 68.6745 -3.36887 -1.76882 0
M  V30 689 H 68.1865 -3.88096 -0.017401 0
M  V30 690 H 66.2875 -2.93553 -2.29471 0
M  V30 691 H 66.4005 -4.58615 -1.38598 0
M  V30 692 H 64.7645 -2.40834 -0.828912 0
M  V30 693 H 65.5475 -3.39315 0.521561 0
M  V30 694 N 67.9926 0.231505 -1.5589 0
M  V30 695 C 69.4036 0.799327 -1.68724 0
M  V30 696 C 69.7546 1.85398 -0.642022 0
M  V30 697 O 68.8796 2.1539 0.208784 0
M  V30 698 C 69.4746 1.45664 -3.05888 0
M  V30 699 C 68.0336 1.97197 -3.20609 0
M  V30 700 C 67.1806 0.828552 -2.64632 0
M  V30 701 H 70.1316 0.00702616 -1.58698 0
M  V30 702 H 70.1526 2.32517 -3.01191 0
M  V30 703 H 69.6646 0.688808 -3.81939 0
M  V30 704 H 67.7656 2.76813 -2.4941 0
M  V30 705 H 67.8786 2.15878 -4.27707 0
M  V30 706 H 66.2426 1.23321 -2.22854 0
M  V30 707 H 67.0256 0.0735544 -3.43221 0
M  V30 708 N 69.4707 1.49531 0.497807 0
M  V30 709 C 70.7187 1.58865 1.24926 0
M  V30 710 C 71.0397 0.278721 1.92998 0
M  V30 711 O 70.3097 -0.702144 1.82885 0
M  V30 712 H 68.8897 0.585343 0.464094 0
M  V30 713 H 71.5517 1.86174 0.57666 0
M  V30 714 H 70.6477 2.38633 2.01149 0
M  V30 715 N 70.9488 -0.749086 1.3866 0
M  V30 716 C 72.2258 -1.4992 1.25632 0
M  V30 717 C 72.6058 -2.10633 -0.140317 0
M  V30 718 O 71.9538 -1.97437 -1.15025 0
M  V30 719 C 72.1638 -2.56195 2.36992 0
M  V30 720 C 73.5118 -3.22972 2.75634 0
M  V30 721 O 74.5358 -2.66502 2.36337 0
M  V30 722 O 73.3948 -4.25122 3.43415 0
M  V30 723 H 70.4888 -0.665067 0.491544 0
M  V30 724 H 73.0348 -0.784113 1.50498 0
M  V30 725 H 71.8068 -2.09612 3.30422 0
M  V30 726 H 71.4298 -3.35279 2.13714 0
M  V30 727 N 72.4269 -1.23603 -0.977757 0
M  V30 728 C 73.3569 -1.04401 -2.0886 0
M  V30 729 C 74.3379 0.0399052 -1.70053 0
M  V30 730 O 75.5229 -0.125246 -1.93796 0
M  V30 731 C 72.6529 -0.637269 -3.41403 0
M  V30 732 C 71.6069 -1.66883 -3.94124 0
M  V30 733 C 70.9329 -1.11745 -5.22893 0
M  V30 734 C 72.2329 -3.06247 -4.23096 0
M  V30 735 H 73.9269 -1.97316 -2.25182 0
M  V30 736 H 71.4729 -0.950096 -1.08209 0
M  V30 737 H 73.4259 -0.48998 -4.18542 0
M  V30 738 H 72.1499 0.327557 -3.24953 0
M  V30 739 H 70.8089 -1.80416 -3.19133 0
M  V30 740 H 70.4569 -0.143527 -5.02795 0
M  V30 741 H 70.1569 -1.80672 -5.59134 0
M  V30 742 H 71.6809 -0.982067 -6.02651 0
M  V30 743 H 73.0949 -2.96001 -4.90975 0
M  V30 744 H 71.4919 -3.72436 -4.70544 0
M  V30 745 H 72.5619 -3.55041 -3.30263 0
M  V30 746 N 73.905 1.17692 -1.04816 0
M  V30 747 C 75.321 1.39863 -0.768794 0
M  V30 748 C 75.521 1.91118 0.638451 0
M  V30 749 O 74.577 2.10036 1.40146 0
M  V30 750 C 75.89 2.39274 -1.82122 0
M  V30 751 C 77.438 2.52987 -1.843 0
M  V30 752 C 77.913 3.55669 -2.88555 0
M  V30 753 N 79.404 3.63183 -2.87493 0
M  V30 754 C 80.139 4.42381 -3.64811 0
M  V30 755 N 79.635 5.25125 -4.51903 0
M  V30 756 N 81.428 4.37217 -3.53267 0
M  V30 757 H 73.579 0.82752 -1.95617 0
M  V30 758 H 75.842 0.426123 -0.846831 0
M  V30 759 H 75.548 2.08678 -2.83102 0
M  V30 760 H 75.422 3.38725 -1.65967 0
M  V30 761 H 77.809 2.82896 -0.839869 0
M  V30 762 H 77.89 1.53623 -2.04532 0
M  V30 763 H 77.534 3.26499 -3.89051 0
M  V30 764 H 77.464 4.54728 -2.65575 0
M  V30 765 H 79.955 3.04103 -2.24343 0
M  V30 766 H 80.268 5.82728 -5.07591 0
M  V30 767 H 78.613 5.24519 -4.55966 0
M  V30 768 H 81.804 3.71626 -2.84625 0
M  V30 769 H 81.977 4.98696 -4.13771 0
M  V30 770 N 75.3831 0.828654 1.34056 0
M  V30 771 C 76.6111 0.43262 2.02326 0
M  V30 772 C 77.0261 -0.963147 1.62385 0
M  V30 773 O 76.3831 -1.62425 0.832121 0
M  V30 774 C 76.4341 0.53182 3.57567 0
M  V30 775 O 76.1551 1.87258 3.96063 0
M  V30 776 C 77.6561 0.131422 4.43105 0
M  V30 777 H 74.8761 0.172923 0.648335 0
M  V30 778 H 77.4201 1.1184 1.71208 0
M  V30 779 H 75.5751 -0.105938 3.87255 0
M  V30 780 H 75.9891 1.85087 4.90758 0
M  V30 781 H 77.4631 0.251904 5.51425 0
M  V30 782 H 77.9401 -0.925645 4.29335 0
M  V30 783 H 78.5461 0.743207 4.18756 0
M  V30 784 N 76.8612 -1.46375 0.584142 0
M  V30 785 C 77.8112 -2.27371 -0.169232 0
M  V30 786 C 78.7952 -1.35955 -0.860523 0
M  V30 787 O 79.9872 -1.60119 -0.754382 0
M  V30 788 C 77.1162 -3.22334 -1.18134 0
M  V30 789 C 76.2022 -4.21235 -0.492088 0
M  V30 790 N 76.5932 -5.03766 0.453129 0
M  V30 791 C 74.8912 -4.39773 -0.742652 0
M  V30 792 C 75.5922 -5.75366 0.85609 0
M  V30 793 N 74.5682 -5.43214 0.204926 0
M  V30 794 H 78.3702 -2.88572 0.557097 0
M  V30 795 H 75.8842 -1.57242 0.406042 0
M  V30 796 H 77.8812 -3.79071 -1.73525 0
M  V30 797 H 76.5412 -2.62693 -1.90847 0
M  V30 798 H 77.5522 -5.11227 0.828723 0
M  V30 799 H 74.2292 -3.91279 -1.45625 0
M  V30 800 H 75.6192 -6.5172 1.63434 0
M  V30 801 N 78.3393 -0.321999 -1.54275 0
M  V30 802 C 79.5673 0.283052 -2.04955 0
M  V30 803 C 79.9823 1.45904 -1.19823 0
M  V30 804 O 79.3393 1.81063 -0.228545 0
M  V30 805 C 79.3903 0.719028 -3.54277 0
M  V30 806 O 79.1113 -0.410175 -4.36176 0
M  V30 807 C 80.6123 1.38705 -4.21041 0
M  V30 808 H 77.8323 0.0584616 -0.668448 0
M  V30 809 H 80.3763 -0.467734 -1.99079 0
M  V30 810 H 78.5313 1.41979 -3.60445 0
M  V30 811 H 78.9453 -0.0669416 -5.24457 0
M  V30 812 H 80.4193 1.64306 -5.2698 0
M  V30 813 H 80.8963 2.33385 -3.72059 0
M  V30 814 H 81.5023 0.728906 -4.19007 0
M  V30 815 N 79.8174 1.5752 -0.0501392 0
M  V30 816 C 80.7494 2.08413 0.95376 0
M  V30 817 C 81.7624 1.01175 1.27544 0
M  V30 818 O 82.9514 1.28744 1.23641 0
M  V30 819 C 80.0514 2.51138 2.27559 0
M  V30 820 C 79.2244 3.817 2.13598 0
M  V30 821 C 78.2834 4.10749 3.28895 0
M  V30 822 O 77.3094 4.80685 3.04845 0
M  V30 823 N 78.5114 3.62579 4.5334 0
M  V30 824 H 81.2764 2.95165 0.519383 0
M  V30 825 H 78.8374 1.61327 0.136127 0
M  V30 826 H 80.8294 2.67648 3.03557 0
M  V30 827 H 79.3994 1.6964 2.62567 0
M  V30 828 H 78.6194 3.74782 1.22197 0
M  V30 829 H 79.9074 4.67201 2.01496 0
M  V30 830 H 79.3054 3.06039 4.75769 0
M  V30 831 H 77.8624 3.84329 5.26436 0
M  V30 832 N 81.2955 -0.223234 1.56011 0
M  V30 833 C 82.7115 -0.572856 1.48965 0
M  V30 834 C 82.9115 -1.87225 0.74492 0
M  V30 835 O 81.9675 -2.50899 0.283896 0
M  V30 836 C 83.2805 -0.653646 2.9351 0
M  V30 837 C 84.8285 -0.744386 3.0402 0
M  V30 838 C 85.3035 -0.856535 4.49919 0
M  V30 839 N 86.7945 -0.9208 4.53955 0
M  V30 840 C 87.5295 -1.02726 5.64123 0
M  V30 841 N 87.0255 -1.09777 6.84047 0
M  V30 842 N 88.8185 -1.06226 5.51971 0
M  V30 843 H 80.9695 0.629462 2.02858 0
M  V30 844 H 83.2325 0.220621 0.921971 0
M  V30 845 H 82.9385 0.231518 3.50937 0
M  V30 846 H 82.8125 -1.51781 3.45315 0
M  V30 847 H 85.1995 -1.61999 2.46658 0
M  V30 848 H 85.2805 0.14541 2.55386 0
M  V30 849 H 84.9245 0.0146069 5.07898 0
M  V30 850 H 84.8545 -1.76172 4.96257 0
M  V30 851 H 87.3455 -0.876694 3.6759 0
M  V30 852 H 87.6585 -1.17872 7.63758 0
M  V30 853 H 86.0035 -1.06693 6.86762 0
M  V30 854 H 89.1945 -1.00382 4.5721 0
M  V30 855 H 89.3675 -1.14177 6.37862 0
M  V30 856 N 82.7736 -1.49793 -0.48987 0
M  V30 857 C 83.9986 -1.63836 -1.27172 0
M  V30 858 C 84.4236 -0.31402 -1.8546 0
M  V30 859 O 83.7816 0.719803 -1.66399 0
M  V30 860 C 83.8296 -2.71797 -2.36978 0
M  V30 861 O 82.9336 -2.31744 -3.41128 0
M  V30 862 H 82.2746 -0.547997 -0.37496 0
M  V30 863 H 84.8046 -1.96053 -0.585191 0
M  V30 864 H 84.8146 -2.94305 -2.82575 0
M  V30 865 H 83.4896 -3.67923 -1.93921 0
M  V30 866 H 82.0666 -2.1961 -3.01373 0
M  V30 867 N 84.2517 0.741722 -1.39055 0
M  V30 868 C 85.6627 1.31966 -1.32068 0
M  V30 869 C 86.0137 1.96192 0.0180797 0
M  V30 870 O 85.1387 1.95861 0.920196 0
M  V30 871 C 85.7337 2.39954 -2.39181 0
M  V30 872 C 84.2927 2.93438 -2.35735 0
M  V30 873 C 83.4397 1.66936 -2.21422 0
M  V30 874 H 86.3907 0.539721 -1.4924 0
M  V30 875 H 86.4117 3.20182 -2.05581 0
M  V30 876 H 85.9237 1.9318 -3.36605 0
M  V30 877 H 84.0247 3.4451 -1.41929 0
M  V30 878 H 84.1377 3.4701 -3.30335 0
M  V30 879 H 82.5017 1.91016 -1.68478 0
M  V30 880 H 83.2847 1.22224 -3.20806 0
M  V30 881 N 85.7298 1.2412 0.971189 0
M  V30 882 C 86.6618 0.988349 2.06795 0
M  V30 883 C 87.6748 -0.0409541 1.62748 0
M  V30 884 O 88.8638 0.195673 1.77424 0
M  V30 885 C 85.9638 0.469023 3.35639 0
M  V30 886 C 85.1368 1.56065 4.08611 0
M  V30 887 C 84.1958 1.04458 5.15728 0
M  V30 888 O 83.2218 1.73553 5.42096 0
M  V30 889 N 84.4238 -0.122817 5.8037 0
M  V30 890 H 87.1888 1.93265 2.29061 0
M  V30 891 H 84.7498 1.15102 1.13856 0
M  V30 892 H 86.7418 0.108613 4.04554 0
M  V30 893 H 85.3118 -0.380919 3.1027 0
M  V30 894 H 84.5318 2.09341 3.34021 0
M  V30 895 H 85.8198 2.29449 4.54126 0
M  V30 896 H 85.2178 -0.700563 5.61345 0
M  V30 897 H 83.7748 -0.424404 6.50417 0
M  V30 898 N 87.2079 -1.17134 1.05439 0
M  V30 899 C 88.4329 -1.91913 0.786396 0
M  V30 900 C 88.8579 -1.7643 -0.652234 0
M  V30 901 O 88.2159 -1.08372 -1.45345 0
M  V30 902 C 88.2639 -3.40921 1.17497 0
M  V30 903 O 87.3679 -4.11244 0.308589 0
M  V30 904 H 86.7089 -0.598215 0.288158 0
M  V30 905 H 89.2389 -1.48457 1.4079 0
M  V30 906 H 89.2489 -3.91668 1.14281 0
M  V30 907 H 87.9239 -3.5151 2.22292 0
M  V30 908 H 86.5009 -3.70731 0.40157 0
M  V30 909 N 88.686 -0.835752 -1.33615 0
M  V30 910 C 89.616 -0.281739 -2.31794 0
M  V30 911 C 90.597 0.608833 -1.58831 0
M  V30 912 O 91.782 0.533035 -1.86741 0
M  V30 913 C 88.912 0.546612 -3.42971 0
M  V30 914 C 87.866 -0.247904 -4.27281 0
M  V30 915 C 87.192 0.704001 -5.30045 0
M  V30 916 C 88.492 -1.46324 -5.01385 0
M  V30 917 H 90.186 -1.10206 -2.78379 0
M  V30 918 H 87.732 -0.531388 -1.33837 0
M  V30 919 H 89.685 0.944467 -4.1068 0
M  V30 920 H 88.409 1.40011 -2.95067 0
M  V30 921 H 87.068 -0.627281 -3.61194 0
M  V30 922 H 86.716 1.55381 -4.78399 0
M  V30 923 H 86.416 0.176524 -5.87335 0
M  V30 924 H 87.94 1.09944 -6.0062 0
M  V30 925 H 89.354 -1.13871 -5.61877 0
M  V30 926 H 87.751 -1.92728 -5.6831 0
M  V30 927 H 88.821 -2.23467 -4.30338 0
M  V30 928 N 90.1641 1.46063 -0.591896 0
M  V30 929 C 91.3891 2.07226 -0.0850314 0
M  V30 930 C 91.8141 1.43625 1.21463 0
M  V30 931 O 91.1721 0.523305 1.73583 0
M  V30 932 C 91.2201 3.60554 0.0576567 0
M  V30 933 O 90.3241 3.97128 1.11188 0
M  V30 934 H 89.6651 0.660615 -0.0669568 0
M  V30 935 H 92.1951 1.8756 -0.81745 0
M  V30 936 H 92.2051 4.07165 0.2609 0
M  V30 937 H 90.8801 4.06235 -0.891416 0
M  V30 938 H 89.4571 3.62213 0.886356 0
M  V30 939 N 91.6422 0.330177 1.54103 0
M  V30 940 C 92.6052 -0.520144 2.2322 0
M  V30 941 C 93.6052 -1.03828 1.22786 0
M  V30 942 O 94.7952 -0.929652 1.4732 0
M  V30 943 C 91.9272 -1.72317 2.94142 0
M  V30 944 H 93.1202 0.0841605 2.99782 0
M  V30 945 H 90.6732 0.0813433 1.56088 0
M  V30 946 H 91.4082 -2.36653 2.21734 0
M  V30 947 H 91.1932 -1.35898 3.67796 0
M  V30 948 H 92.6832 -2.3266 3.46784 0
M  V30 949 N 93.1203 -1.57491 0.0584922 0
M  V30 950 C 94.0833 -2.1085 -0.898617 0
M  V30 951 C 95.0833 -1.02964 -1.23511 0
M  V30 952 O 96.2733 -1.29007 -1.17059 0
M  V30 953 C 93.4053 -2.59881 -2.20623 0
M  V30 954 H 94.5983 -2.96715 -0.435936 0
M  V30 955 H 92.1513 -1.55141 -0.190023 0
M  V30 956 H 92.8863 -1.77431 -2.71457 0
M  V30 957 H 92.6713 -3.38727 -1.97501 0
M  V30 958 H 94.1613 -3.01285 -2.89166 0
M  V30 959 N 94.5984 0.214957 -1.56127 0
M  V30 960 C 95.8474 0.936451 -1.78643 0
M  V30 961 C 96.1604 1.85237 -0.628229 0
M  V30 962 O 97.3664 2.613 -0.737186 0
M  V30 963 C 95.8224 1.7154 -3.16389 0
M  V30 964 C 95.4304 0.845299 -4.39953 0
M  V30 965 C 97.1744 2.42772 -3.48227 0
M  V30 966 C 95.0814 1.62198 -5.68723 0
M  V30 967 H 94.0114 0.353401 -0.666051 0
M  V30 968 H 96.6624 0.190169 -1.82512 0
M  V30 969 H 95.0444 2.50484 -3.06715 0
M  V30 970 H 96.2184 0.0959353 -4.607 0
M  V30 971 H 94.5334 0.244789 -4.1568 0
M  V30 972 H 97.1304 3.01394 -4.41663 0
M  V30 973 H 97.4734 3.15984 -2.71035 0
M  V30 974 H 98.0064 1.70813 -3.5926 0
M  V30 975 H 94.7454 0.933011 -6.48826 0
M  V30 976 H 94.2654 2.34579 -5.52026 0
M  V30 977 H 95.9444 2.18095 -6.09133 0
M  V30 978 N 96.0765 1.50051 0.48192 0
M  V30 979 C 97.0395 1.67584 1.5636 0
M  V30 980 C 98.0395 0.546894 1.51214 0
M  V30 981 O 99.2295 0.813725 1.54026 0
M  V30 982 C 96.3615 1.691 2.96003 0
M  V30 983 H 97.5545 2.64078 1.42136 0
M  V30 984 H 95.1075 1.39369 0.707533 0
M  V30 985 H 95.8425 0.742589 3.15684 0
M  V30 986 H 95.6275 2.51105 3.01146 0
M  V30 987 H 97.1175 1.84656 3.74556 0
M  V30 988 N 97.5546 -0.734337 1.39446 0
M  V30 989 C 98.5176 -1.83004 1.37994 0
M  V30 990 C 99.5176 -1.58397 0.276938 0
M  V30 991 O 100.708 -1.65785 0.534875 0
M  V30 992 C 97.8396 -3.20802 1.1532 0
M  V30 993 H 99.0326 -1.85694 2.35494 0
M  V30 994 H 96.5856 -0.938059 1.25021 0
M  V30 995 H 97.3206 -3.23772 0.185036 0
M  V30 996 H 97.1056 -3.4006 1.95197 0
M  V30 997 H 98.5956 -4.00862 1.17046 0
M  V30 998 N 99.0327 -1.24633 -0.964593 0
M  V30 999 C 99.9657 -0.984662 -2.05863 0
M  V30 1000 C 100.944 0.0826554 -1.6239 0
M  V30 1001 O 102.128 -0.0549296 -1.8842 0
M  V30 1002 C 99.2547 -0.486529 -3.35187 0
M  V30 1003 C 98.3007 -1.54286 -3.97615 0
M  V30 1004 S 99.1337 -3.12513 -4.34851 0
M  V30 1005 C 100.29 -2.6441 -5.67308 0
M  V30 1006 H 100.523 -1.91104 -2.27743 0
M  V30 1007 H 98.0557 -1.08052 -1.10291 0
M  V30 1008 H 100.014 -0.205757 -4.09984 0
M  V30 1009 H 98.6747 0.419186 -3.1129 0
M  V30 1010 H 97.8677 -1.14481 -4.90826 0
M  V30 1011 H 97.4697 -1.7738 -3.2926 0
M  V30 1012 H 99.7617 -2.07416 -6.44969 0
M  V30 1013 H 100.705 -3.56222 -6.11973 0
M  V30 1014 H 101.113 -2.04734 -5.26065 0
M  V30 1015 N 100.511 1.16574 -1.06058 0
M  V30 1016 C 101.443 2.2045 -0.627239 0
M  V30 1017 C 102.456 1.59752 0.313534 0
M  V30 1018 O 103.645 1.78192 0.104896 0
M  V30 1019 C 100.745 3.3875 0.100974 0
M  V30 1020 C 99.9178 4.29008 -0.852687 0
M  V30 1021 C 98.9768 5.25944 -0.164152 0
M  V30 1022 O 98.0028 5.63535 -0.801047 0
M  V30 1023 N 99.2048 5.70075 1.09518 0
M  V30 1024 H 101.97 2.58249 -1.52077 0
M  V30 1025 H 99.5308 1.3156 -0.943594 0
M  V30 1026 H 101.523 4.00638 0.57194 0
M  V30 1027 H 100.093 2.99476 0.89628 0
M  V30 1028 H 99.3128 3.64419 -1.50308 0
M  V30 1029 H 100.601 4.86195 -1.49972 0
M  V30 1030 H 99.9988 5.41624 1.6328 0
M  V30 1031 H 98.5558 6.34067 1.51006 0
M  V30 1032 N 101.989 0.842826 1.3317 0
M  V30 1033 C 102.936 0.276885 2.29133 0
M  V30 1034 C 103.906 -0.609527 1.54512 0
M  V30 1035 O 105.091 -0.546955 1.82792 0
M  V30 1036 C 102.231 -0.538707 3.40869 0
M  V30 1037 C 101.344 0.372169 4.30394 0
M  V30 1038 C 100.479 -0.454908 5.29249 0
M  V30 1039 C 99.5179 0.45411 6.10413 0
M  V30 1040 N 98.6549 -0.335075 7.013 0
M  V30 1041 H 103.495 1.10052 2.76934 0
M  V30 1042 H 101.032 0.554161 1.36262 0
M  V30 1043 H 102.99 -1.02709 4.0436 0
M  V30 1044 H 101.62 -1.32727 2.9425 0
M  V30 1045 H 100.672 0.97888 3.6759 0
M  V30 1046 H 101.984 1.0703 4.87182 0
M  V30 1047 H 101.138 -1.00695 5.98285 0
M  V30 1048 H 99.8769 -1.18646 4.73048 0
M  V30 1049 H 98.8819 1.01813 5.40291 0
M  V30 1050 H 100.107 1.18409 6.68697 0
M  V30 1051 H 98.0529 -1.04994 6.47543 0
M  V30 1052 H 97.9699 0.304262 7.55387 0
M  V30 1053 H 99.2379 -0.869224 7.74638 0
M  V30 1054 N 103.467 -1.45747 0.599634 0
M  V30 1055 C 104.714 -2.02292 0.0917284 0
M  V30 1056 C 105.042 -1.46906 -1.27472 0
M  V30 1057 O 104.297 -0.630652 -1.8526 0
M  V30 1058 C 104.596 -3.57399 -0.00602758 0
M  V30 1059 C 104.262 -4.31902 1.29503 0
M  V30 1060 C 102.924 -4.51974 1.65144 0
M  V30 1061 C 105.276 -4.74551 2.15525 0
M  V30 1062 C 102.604 -5.11949 2.86574 0
M  V30 1063 C 104.956 -5.35868 3.36196 0
M  V30 1064 C 103.62 -5.54165 3.72099 0
M  V30 1065 H 102.89 -0.740239 0.0335658 0
M  V30 1066 H 105.537 -1.7491 0.779661 0
M  V30 1067 H 103.842 -3.84014 -0.777183 0
M  V30 1068 H 105.539 -3.98846 -0.415038 0
M  V30 1069 H 102.129 -4.16588 1.00761 0
M  V30 1070 H 106.313 -4.58784 1.8929 0
M  V30 1071 H 101.569 -5.24305 3.14507 0
M  V30 1072 H 105.743 -5.6787 4.03109 0
M  V30 1073 H 103.37 -6.00406 4.6628 0
M  V30 1074 N 104.945 -0.338344 -1.53925 0
M  V30 1075 C 106.175 0.260919 -2.04946 0
M  V30 1076 C 106.583 1.45174 -1.2133 0
M  V30 1077 O 105.926 1.82122 -0.240262 0
M  V30 1078 C 105.988 0.744596 -3.51704 0
M  V30 1079 C 105.652 -0.325883 -4.55837 0
M  V30 1080 C 106.649 -1.16687 -5.06636 0
M  V30 1081 C 104.334 -0.478317 -5.00017 0
M  V30 1082 C 106.328 -2.14588 -6.00192 0
M  V30 1083 C 104.015 -1.46073 -5.93385 0
M  V30 1084 C 105.013 -2.29297 -6.4336 0
M  V30 1085 O 104.701 -3.25867 -7.34892 0
M  V30 1086 H 104.433 0.0551207 -0.673749 0
M  V30 1087 H 106.987 -0.486984 -1.99544 0
M  V30 1088 H 105.217 1.54366 -3.54553 0
M  V30 1089 H 106.906 1.26383 -3.85723 0
M  V30 1090 H 107.672 -1.06016 -4.73271 0
M  V30 1091 H 103.551 0.159613 -4.60724 0
M  V30 1092 H 107.095 -2.79585 -6.39123 0
M  V30 1093 H 102.992 -1.56802 -6.26166 0
M  V30 1094 H 103.76 -3.21278 -7.5281 0
M  V30 1095 N 106.423 1.57458 -0.0668435 0
M  V30 1096 C 107.671 1.92919 0.602214 0
M  V30 1097 C 107.992 0.947215 1.70449 0
M  V30 1098 O 107.262 -0.00544117 1.95899 0
M  V30 1099 H 105.842 0.71217 0.22544 0
M  V30 1100 H 108.504 1.94508 -0.123535 0
M  V30 1101 H 107.6 2.94589 1.03073 0
M  V30 1102 N 107.901 -0.206675 1.56239 0
M  V30 1103 C 108.831 -1.25909 1.96645 0
M  V30 1104 C 109.812 -1.48097 0.836734 0
M  V30 1105 O 110.997 -1.6003 1.10019 0
M  V30 1106 C 108.127 -2.6058 2.29599 0
M  V30 1107 C 107.081 -2.53024 3.452 0
M  V30 1108 C 106.407 -3.91861 3.63798 0
M  V30 1109 C 107.707 -2.06524 4.79734 0
M  V30 1110 H 109.401 -0.923369 2.84806 0
M  V30 1111 H 106.947 -0.442735 1.37025 0
M  V30 1112 H 108.9 -3.34375 2.56459 0
M  V30 1113 H 107.624 -2.95869 1.38307 0
M  V30 1114 H 106.283 -1.81684 3.18412 0
M  V30 1115 H 105.931 -4.24483 2.69857 0
M  V30 1116 H 105.631 -3.87683 4.4156 0
M  V30 1117 H 107.155 -4.67296 3.93022 0
M  V30 1118 H 108.569 -2.70072 5.05702 0
M  V30 1119 H 106.966 -2.13374 5.60885 0
M  V30 1120 H 108.036 -1.01802 4.74093 0
M  V30 1121 N 109.379 -1.50304 -0.473955 0
M  V30 1122 C 110.311 -1.65109 -1.58971 0
M  V30 1123 C 111.324 -0.532676 -1.53839 0
M  V30 1124 O 112.513 -0.805751 -1.59279 0
M  V30 1125 C 109.613 -1.61684 -2.97845 0
M  V30 1126 C 108.786 -2.8951 -3.27876 0
M  V30 1127 C 107.845 -2.78768 -4.4629 0
M  V30 1128 O 106.871 -3.52722 -4.46739 0
M  V30 1129 N 108.073 -1.9213 -5.47783 0
M  V30 1130 H 110.838 -2.61347 -1.46689 0
M  V30 1131 H 108.399 -1.47732 -0.662324 0
M  V30 1132 H 110.391 -1.52114 -3.75024 0
M  V30 1133 H 108.961 -0.731925 -3.03911 0
M  V30 1134 H 108.181 -3.13228 -2.39336 0
M  V30 1135 H 109.469 -3.74199 -3.4475 0
M  V30 1136 H 108.867 -1.31353 -5.50239 0
M  V30 1137 H 107.424 -1.88466 -6.23958 0
M  V30 1138 N 110.857 0.726932 -1.39834 0
M  V30 1139 C 112.103 1.48884 -1.377 0
M  V30 1140 C 112.436 1.94185 0.0244852 0
M  V30 1141 O 111.711 1.67361 0.990986 0
M  V30 1142 C 111.994 2.72288 -2.3565 0
M  V30 1143 C 111.847 2.32956 -3.84775 0
M  V30 1144 C 113.166 3.74414 -2.31306 0
M  V30 1145 H 110.285 0.540062 -0.5015 0
M  V30 1146 H 112.927 0.830547 -1.70886 0
M  V30 1147 H 111.077 3.28457 -2.07481 0
M  V30 1148 H 112.749 1.82356 -4.23726 0
M  V30 1149 H 110.992 1.65088 -4.01159 0
M  V30 1150 H 111.663 3.21362 -4.4881 0
M  V30 1151 H 114.139 3.27849 -2.56231 0
M  V30 1152 H 113.015 4.58414 -3.01907 0
M  V30 1153 H 113.276 4.21909 -1.32081 0
M  V30 1154 N 112.336 1.25143 0.95797 0
M  V30 1155 C 113.564 1.12424 1.73691 0
M  V30 1156 C 113.979 -0.322304 1.86029 0
M  V30 1157 O 113.336 -1.22186 1.35561 0
M  V30 1158 C 113.387 1.76933 3.15241 0
M  V30 1159 O 113.108 3.15932 3.03511 0
M  V30 1160 C 114.609 1.6995 4.09429 0
M  V30 1161 H 111.829 0.3923 0.544373 0
M  V30 1162 H 114.373 1.6544 1.20207 0
M  V30 1163 H 112.528 1.27895 3.6568 0
M  V30 1164 H 112.942 3.47598 3.9278 0
M  V30 1165 H 114.416 2.19753 5.06372 0
M  V30 1166 H 114.893 0.662619 4.34173 0
M  V30 1167 H 115.499 2.18461 3.64904 0
M  V30 1168 N 113.814 -1.1601 1.06675 0
M  V30 1169 C 115.062 -1.86264 0.784229 0
M  V30 1170 C 115.383 -1.82328 -0.691488 0
M  V30 1171 O 114.653 -1.25947 -1.50047 0
M  V30 1172 H 113.233 -0.689621 0.28711 0
M  V30 1173 H 115.895 -1.40664 1.34906 0
M  V30 1174 H 114.991 -2.91595 1.11259 0
M  V30 1175 N 115.292 -0.849877 -1.32721 0
M  V30 1176 C 116.239 -0.289033 -2.28983 0
M  V30 1177 C 117.209 0.601324 -1.54833 0
M  V30 1178 O 118.394 0.537253 -1.8308 0
M  V30 1179 C 115.534 0.520623 -3.4115 0
M  V30 1180 C 114.647 -0.394989 -4.3019 0
M  V30 1181 C 113.782 0.426834 -5.29482 0
M  V30 1182 C 112.821 -0.486476 -6.10164 0
M  V30 1183 N 111.958 0.297879 -7.01468 0
M  V30 1184 H 116.798 -1.11519 -2.76347 0
M  V30 1185 H 114.335 -0.56138 -1.35967 0
M  V30 1186 H 116.293 1.00563 -4.04899 0
M  V30 1187 H 114.923 1.31165 -2.9495 0
M  V30 1188 H 113.975 -0.99836 -3.67065 0
M  V30 1189 H 115.287 -1.09612 -4.86607 0
M  V30 1190 H 114.441 0.975205 -5.98811 0
M  V30 1191 H 113.18 1.16136 -4.73671 0
M  V30 1192 H 112.185 -1.04677 -5.39743 0
M  V30 1193 H 113.41 -1.21953 -6.6806 0
M  V30 1194 H 111.356 1.01558 -6.48091 0
M  V30 1195 H 111.273 -0.344318 -7.55216 0
M  V30 1196 H 112.541 0.828131 -7.75089 0
M  V30 1197 N 116.77 1.45427 -0.607355 0
M  V30 1198 C 117.733 2.28974 0.101693 0
M  V30 1199 C 118.733 1.39754 0.795329 0
M  V30 1200 O 119.923 1.61878 0.643527 0
M  V30 1201 C 117.055 3.20768 1.15414 0
M  V30 1202 H 118.248 2.93147 -0.632844 0
M  V30 1203 H 115.801 1.51945 -0.366391 0
M  V30 1204 H 116.536 2.61395 1.91945 0
M  V30 1205 H 116.321 3.86489 0.66098 0
M  V30 1206 H 117.811 3.83589 1.65073 0
M  V30 1207 N 118.248 0.346503 1.53744 0
M  V30 1208 C 119.525 -0.304532 1.93215 0
M  V30 1209 C 119.905 -1.67993 1.27834 0
M  V30 1210 O 119.253 -2.24411 0.430352 0
M  V30 1211 C 119.463 -0.373852 3.46992 0
M  V30 1212 C 120.811 -0.62329 4.2 0
M  V30 1213 O 121.835 -0.455847 3.53271 0
M  V30 1214 O 120.694 -0.947879 5.38217 0
M  V30 1215 H 117.788 -0.178318 0.807547 0
M  V30 1216 H 120.334 0.397895 1.64969 0
M  V30 1217 H 119.106 0.591224 3.86808 0
M  V30 1218 H 118.729 -1.12294 3.81413 0
M  V30 1219 N 119.726 -1.57421 0.075193 0
M  V30 1220 C 120.689 -2.11791 -0.876203 0
M  V30 1221 C 121.689 -1.04268 -1.22412 0
M  V30 1222 O 122.879 -1.30242 -1.15684 0
M  V30 1223 C 120.011 -2.62207 -2.17854 0
M  V30 1224 H 121.204 -2.9716 -0.40444 0
M  V30 1225 H 118.757 -1.55333 -0.173557 0
M  V30 1226 H 119.492 -1.803 -2.6956 0
M  V30 1227 H 119.277 -3.40802 -1.93897 0
M  V30 1228 H 120.767 -3.04335 -2.85955 0
M  V30 1229 N 121.204 0.198386 -1.56346 0
M  V30 1230 C 122.481 0.944982 -1.71258 0
M  V30 1231 C 122.861 2.0151 -0.629048 0
M  V30 1232 O 122.209 2.25639 0.360473 0
M  V30 1233 C 122.419 1.5344 -3.1346 0
M  V30 1234 C 123.767 2.01778 -3.73591 0
M  V30 1235 O 124.791 1.63288 -3.16568 0
M  V30 1236 O 123.65 2.72594 -4.73661 0
M  V30 1237 H 120.744 0.442939 -0.69838 0
M  V30 1238 H 123.29 0.188342 -1.68652 0
M  V30 1239 H 122.062 0.762869 -3.83792 0
M  V30 1240 H 121.685 2.35596 -3.20282 0
M  V30 1241 N 122.682 1.50554 0.465978 0
M  V30 1242 C 123.91 1.65563 1.24083 0
M  V30 1243 C 124.325 0.341051 1.85694 0
M  V30 1244 O 123.682 -0.677543 1.69457 0
M  V30 1245 C 123.733 2.75051 2.34583 0
M  V30 1246 O 123.454 4.01413 1.75497 0
M  V30 1247 C 124.955 3.01078 3.25372 0
M  V30 1248 H 122.175 0.55638 0.375077 0
M  V30 1249 H 124.719 1.96807 0.555624 0
M  V30 1250 H 122.874 2.46486 2.9887 0
M  V30 1251 H 123.288 4.62002 2.48303 0
M  V30 1252 H 124.762 3.81339 3.99105 0
M  V30 1253 H 125.239 2.12349 3.84453 0
M  V30 1254 H 125.845 3.31194 2.66816 0
M  V30 1255 N 124.16 -0.719506 1.40217 0
M  V30 1256 C 125.093 -1.84298 1.34571 0
M  V30 1257 C 126.071 -1.61149 0.216741 0
M  V30 1258 O 127.255 -1.84212 0.399756 0
M  V30 1259 C 124.382 -3.20568 1.09335 0
M  V30 1260 C 123.428 -3.62551 2.24631 0
M  V30 1261 S 124.261 -3.7012 3.87004 0
M  V30 1262 C 125.417 -5.09154 3.64024 0
M  V30 1263 H 125.65 -1.88807 2.2965 0
M  V30 1264 H 123.183 -0.885901 1.26456 0
M  V30 1265 H 125.141 -3.99246 0.954602 0
M  V30 1266 H 123.802 -3.13696 0.159164 0
M  V30 1267 H 122.995 -4.61483 2.02606 0
M  V30 1268 H 122.597 -2.91119 2.34789 0
M  V30 1269 H 124.889 -5.95955 3.22248 0
M  V30 1270 H 125.832 -5.36213 4.62473 0
M  V30 1271 H 126.24 -4.79562 2.97793 0
M  V30 1272 N 125.638 -1.25649 -0.95132 0
M  V30 1273 C 126.585 -1.06323 -2.04851 0
M  V30 1274 C 127.555 0.0286491 -1.66075 0
M  V30 1275 O 128.74 -0.12917 -1.90362 0
M  V30 1276 C 125.88 -0.691529 -3.381 0
M  V30 1277 C 124.993 -1.85861 -3.89974 0
M  V30 1278 C 124.128 -1.43096 -5.11563 0
M  V30 1279 C 123.167 -2.56696 -5.55674 0
M  V30 1280 N 122.304 -2.14684 -6.68472 0
M  V30 1281 H 127.144 -2.00222 -2.20715 0
M  V30 1282 H 124.681 -0.997027 -1.08156 0
M  V30 1283 H 126.639 -0.456963 -4.1469 0
M  V30 1284 H 125.269 0.210474 -3.22113 0
M  V30 1285 H 124.321 -2.20639 -3.09875 0
M  V30 1286 H 125.633 -2.71161 -4.18657 0
M  V30 1287 H 124.787 -1.15624 -5.9558 0
M  V30 1288 H 123.526 -0.548722 -4.84603 0
M  V30 1289 H 122.531 -2.84909 -4.7022 0
M  V30 1290 H 123.756 -3.45503 -5.8464 0
M  V30 1291 H 121.702 -1.28881 -6.43215 0
M  V30 1292 H 121.619 -2.9353 -6.96689 0
M  V30 1293 H 122.887 -1.90397 -7.5589 0
M  V30 1294 N 127.117 1.15442 -1.07289 0
M  V30 1295 C 128.08 2.18358 -0.696591 0
M  V30 1296 C 129.08 1.58637 0.262837 0
M  V30 1297 O 130.27 1.74145 0.0438809 0
M  V30 1298 C 127.402 3.4089 -0.0266151 0
M  V30 1299 H 128.595 2.53162 -1.60776 0
M  V30 1300 H 126.148 1.29893 -0.869342 0
M  V30 1301 H 126.883 3.11653 0.896822 0
M  V30 1302 H 126.668 3.85495 -0.716657 0
M  V30 1303 H 128.158 4.17009 0.222028 0
M  V30 1304 N 128.595 0.856903 1.32268 0
M  V30 1305 C 129.528 0.247937 2.26849 0
M  V30 1306 C 130.506 -0.615382 1.50505 0
M  V30 1307 O 131.69 -0.571689 1.79622 0
M  V30 1308 C 128.817 -0.650093 3.32403 0
M  V30 1309 C 127.863 0.140138 4.2627 0
M  V30 1310 S 128.696 1.51004 5.13769 0
M  V30 1311 C 129.852 0.61778 6.22844 0
M  V30 1312 H 130.085 1.04971 2.78152 0
M  V30 1313 H 127.618 0.654665 1.39834 0
M  V30 1314 H 129.576 -1.16256 3.93694 0
M  V30 1315 H 128.237 -1.4257 2.7988 0
M  V30 1316 H 127.43 -0.543945 5.01056 0
M  V30 1317 H 127.032 0.584267 3.69408 0
M  V30 1318 H 129.324 -0.177053 6.77269 0
M  V30 1319 H 130.267 1.33636 6.95375 0
M  V30 1320 H 130.675 0.191124 5.64176 0
M  V30 1321 N 130.073 -1.45103 0.615059 0
M  V30 1322 C 131.489 -1.57137 0.279322 0
M  V30 1323 C 131.689 -1.60523 -1.21797 0
M  V30 1324 O 130.745 -1.53956 -2.00134 0
M  V30 1325 C 132.058 -2.85062 0.957083 0
M  V30 1326 C 133.606 -2.98749 0.933706 0
M  V30 1327 C 134.081 -4.29455 1.59162 0
M  V30 1328 N 135.572 -4.36231 1.55746 0
M  V30 1329 C 136.307 -5.36051 2.0356 0
M  V30 1330 N 135.803 -6.42367 2.59494 0
M  V30 1331 N 137.596 -5.27456 1.94284 0
M  V30 1332 H 129.747 -1.41148 1.58717 0
M  V30 1333 H 132.01 -0.675331 0.665306 0
M  V30 1334 H 131.716 -2.88488 2.01166 0
M  V30 1335 H 131.59 -3.7407 0.48494 0
M  V30 1336 H 133.977 -2.94886 -0.112347 0
M  V30 1337 H 134.058 -2.11132 1.44419 0
M  V30 1338 H 133.702 -4.34077 2.63704 0
M  V30 1339 H 133.632 -5.15901 1.0561 0
M  V30 1340 H 136.123 -3.60011 1.14893 0
M  V30 1341 H 136.436 -7.14793 2.93752 0
M  V30 1342 H 134.781 -6.43097 2.63537 0
M  V30 1343 H 137.972 -4.43308 1.5032 0
M  V30 1344 H 138.145 -6.05099 2.3186 0
M  V30 1345 N 131.551 -0.354651 -1.53558 0
M  V30 1346 C 132.967 -0.00315426 -1.596 0
M  V30 1347 C 133.167 1.47741 -1.37021 0
M  V30 1348 O 132.223 2.23759 -1.16996 0
M  V30 1349 C 133.536 -0.44929 -2.97325 0
M  V30 1350 C 135.084 -0.402578 -3.104 0
M  V30 1351 C 135.559 -0.824355 -4.5052 0
M  V30 1352 N 137.05 -0.778979 -4.56603 0
M  V30 1353 C 137.785 -1.07715 -5.63192 0
M  V30 1354 N 137.281 -1.44405 -6.77583 0
M  V30 1355 N 139.074 -1.00066 -5.53121 0
M  V30 1356 H 131.225 -1.31893 -1.66487 0
M  V30 1357 H 133.488 -0.538388 -0.780284 0
M  V30 1358 H 133.194 -1.48202 -3.1895 0
M  V30 1359 H 133.068 0.169772 -3.76818 0
M  V30 1360 H 135.455 0.621004 -2.88492 0
M  V30 1361 H 135.536 -1.05699 -2.32941 0
M  V30 1362 H 135.18 -1.846 -4.73165 0
M  V30 1363 H 135.11 -0.147304 -5.26394 0
M  V30 1364 H 137.601 -0.508528 -3.74463 0
M  V30 1365 H 137.914 -1.65612 -7.54846 0
M  V30 1366 H 136.259 -1.4826 -6.79002 0
M  V30 1367 H 139.45 -0.713293 -4.62633 0
M  V30 1368 H 139.623 -1.23638 -6.36096 0
M  V30 1369 N 133.029 1.57378 -0.0835403 0
M  V30 1370 C 134.44 1.81261 0.447358 0
M  V30 1371 C 134.791 0.998331 1.68902 0
M  V30 1372 O 133.916 0.224282 2.15235 0
M  V30 1373 C 134.511 3.28767 0.818386 0
M  V30 1374 C 133.07 3.53455 1.29409 0
M  V30 1375 C 132.217 2.75831 0.285024 0
M  V30 1376 H 135.168 1.5566 -0.309115 0
M  V30 1377 H 135.189 3.41459 1.67887 0
M  V30 1378 H 134.701 3.88006 -0.0855019 0
M  V30 1379 H 132.802 2.99534 2.21608 0
M  V30 1380 H 132.915 4.62128 1.2639 0
M  V30 1381 H 131.279 2.42947 0.764767 0
M  V30 1382 H 132.062 3.37813 -0.611341 0
M  V30 1383 N 134.507 -0.190092 1.56449 0
M  V30 1384 C 135.923 -0.54113 1.50146 0
M  V30 1385 C 136.123 -1.85603 0.784465 0
M  V30 1386 O 135.179 -2.5024 0.337051 0
M  V30 1387 C 136.492 -0.591241 2.9483 0
M  V30 1388 C 138.04 -0.679732 3.0553 0
M  V30 1389 C 138.515 -0.760908 4.51635 0
M  V30 1390 N 140.006 -0.824302 4.55806 0
M  V30 1391 C 140.741 -0.907365 5.66175 0
M  V30 1392 N 140.237 -0.952422 6.86222 0
M  V30 1393 N 142.03 -0.94494 5.541 0
M  V30 1394 H 134.181 0.67235 2.01478 0
M  V30 1395 H 136.444 0.240127 0.917084 0
M  V30 1396 H 136.15 0.305905 3.50367 0
M  V30 1397 H 136.024 -1.44422 3.48457 0
M  V30 1398 H 138.411 -1.56731 2.50039 0
M  V30 1399 H 138.492 0.199549 2.5502 0
M  V30 1400 H 138.136 0.122336 5.07753 0
M  V30 1401 H 138.066 -1.65606 4.99882 0
M  V30 1402 H 140.557 -0.798526 3.69367 0
M  V30 1403 H 140.87 -1.01645 7.66086 0
M  V30 1404 H 139.215 -0.921014 6.8887 0
M  V30 1405 H 142.406 -0.906612 4.59236 0
M  V30 1406 H 142.579 -1.00622 6.4014 0
M  V30 1407 N 135.985 -1.50799 -0.457987 0
M  V30 1408 C 137.225 -1.64088 -1.21879 0
M  V30 1409 C 137.589 -0.339848 -1.88968 0
M  V30 1410 O 138.79 -0.348301 -2.66534 0
M  V30 1411 C 137.061 -2.79726 -2.2246 0
M  V30 1412 S 138.62 -3.13225 -3.07303 0
M  V30 1413 H 135.438 -0.578314 -0.41361 0
M  V30 1414 H 138.04 -1.88632 -0.513645 0
M  V30 1415 H 136.744 -3.72722 -1.71775 0
M  V30 1416 H 136.275 -2.57308 -2.97584 0
M  V30 1417 H 138.29 -2.58062 -4.23814 0
M  V30 1418 N 137.463 0.71206 -1.40597 0
M  V30 1419 C 138.711 1.46907 -1.38791 0
M  V30 1420 C 139.032 1.94998 0.00780391 0
M  V30 1421 O 138.302 1.70587 0.963174 0
M  V30 1422 H 136.882 0.545043 -0.51082 0
M  V30 1423 H 139.544 0.843882 -1.75683 0
M  V30 1424 H 138.64 2.34021 -2.06496 0
M  V30 1425 N 138.941 1.26152 0.944643 0
M  V30 1426 C 140.187 1.11657 1.69294 0
M  V30 1427 C 140.52 -0.339926 1.91202 0
M  V30 1428 O 139.795 -1.24994 1.49019 0
M  V30 1429 C 140.078 1.88236 3.06984 0
M  V30 1430 C 139.931 3.41772 2.92424 0
M  V30 1431 C 141.25 1.67343 4.07043 0
M  V30 1432 H 138.369 0.407004 0.614424 0
M  V30 1433 H 141.011 1.55106 1.09737 0
M  V30 1434 H 139.161 1.51308 3.57824 0
M  V30 1435 H 140.833 3.88433 2.48832 0
M  V30 1436 H 139.076 3.68974 2.28124 0
M  V30 1437 H 139.747 3.90579 3.90067 0
M  V30 1438 H 142.223 1.99509 3.65151 0
M  V30 1439 H 141.099 2.23346 5.01406 0
M  V30 1440 H 141.36 0.617158 4.37771 0
M  V30 1441 N 140.419 -1.14872 1.07899 0
M  V30 1442 C 141.83 -1.67367 0.827363 0
M  V30 1443 C 142.181 -1.85236 -0.646693 0
M  V30 1444 O 141.306 -1.55974 -1.50004 0
M  V30 1445 C 141.901 -3.04016 1.49532 0
M  V30 1446 C 140.46 -3.53566 1.29106 0
M  V30 1447 C 139.607 -2.29161 1.56143 0
M  V30 1448 H 142.558 -0.990083 1.24028 0
M  V30 1449 H 142.579 -3.69219 0.919643 0
M  V30 1450 H 142.091 -2.90978 2.56814 0
M  V30 1451 H 140.192 -3.71835 0.238713 0
M  V30 1452 H 140.305 -4.34661 2.01511 0
M  V30 1453 H 138.669 -2.34978 0.982717 0
M  V30 1454 H 139.452 -2.18705 2.64619 0
M  V30 1455 N 141.898 -0.863906 -1.31812 0
M  V30 1456 C 143.175 -0.39275 -1.91616 0
M  V30 1457 C 143.555 1.12461 -1.7865 0
M  V30 1458 O 142.903 1.95045 -1.19037 0
M  V30 1459 C 143.113 -0.867385 -3.38049 0
M  V30 1460 C 144.461 -0.889966 -4.15168 0
M  V30 1461 O 145.485 -0.812635 -3.46806 0
M  V30 1462 O 144.344 -1.00079 -5.37258 0
M  V30 1463 H 141.438 -0.116358 -0.818773 0
M  V30 1464 H 143.984 -0.951418 -1.40521 0
M  V30 1465 H 142.756 -1.91081 -3.41473 0
M  V30 1466 H 142.379 -0.286687 -3.96565 0
M  V30 1467 N 143.376 1.44774 -0.622745 0
M  V30 1468 C 144.323 2.30635 0.0871679 0
M  V30 1469 C 145.293 1.42994 0.845097 0
M  V30 1470 O 146.478 1.71907 0.827812 0
M  V30 1471 C 143.618 3.28144 1.06844 0
M  V30 1472 C 142.731 4.30888 0.309809 0
M  V30 1473 C 141.866 5.15494 1.28215 0
M  V30 1474 C 140.905 6.09953 0.512198 0
M  V30 1475 N 140.042 6.87287 1.43458 0
M  V30 1476 H 144.882 2.90803 -0.650974 0
M  V30 1477 H 142.419 1.43286 -0.33281 0
M  V30 1478 H 144.377 3.83157 1.65066 0
M  V30 1479 H 143.007 2.69695 1.77382 0
M  V30 1480 H 142.059 3.78414 -0.388181 0
M  V30 1481 H 143.371 4.97955 -0.290254 0
M  V30 1482 H 142.525 5.74983 1.93596 0
M  V30 1483 H 141.264 4.48481 1.91614 0
M  V30 1484 H 140.269 5.49581 -0.155151 0
M  V30 1485 H 141.494 6.78999 -0.116958 0
M  V30 1486 H 139.44 6.2295 2.05594 0
M  V30 1487 H 139.357 7.50763 0.888335 0
M  V30 1488 H 140.625 7.51306 2.07749 0
M  V30 1489 N 144.854 0.36279 1.53368 0
M  V30 1490 C 146.101 -0.227776 2.01215 0
M  V30 1491 C 146.429 -1.49003 1.25014 0
M  V30 1492 O 145.684 -1.92876 0.331236 0
M  V30 1493 C 145.983 -0.568417 3.52851 0
M  V30 1494 C 145.649 0.59918 4.46901 0
M  V30 1495 C 144.311 0.919559 4.72332 0
M  V30 1496 C 146.663 1.38156 5.02556 0
M  V30 1497 C 143.991 2.02434 5.5067 0
M  V30 1498 C 146.343 2.47674 5.821 0
M  V30 1499 C 145.007 2.8025 6.05819 0
M  V30 1500 H 144.277 -0.083349 0.736297 0
M  V30 1501 H 146.924 0.494677 1.85001 0
M  V30 1502 H 145.229 -1.37185 3.66998 0
M  V30 1503 H 146.926 -1.03756 3.87344 0
M  V30 1504 H 143.516 0.339437 4.27254 0
M  V30 1505 H 147.7 1.14729 4.82857 0
M  V30 1506 H 142.956 2.28075 5.67267 0
M  V30 1507 H 147.13 3.08716 6.24234 0
M  V30 1508 H 144.757 3.65979 6.66306 0
M  V30 1509 N 146.332 -1.57332 0.0918853 0
M  V30 1510 C 147.58 -1.93853 -0.571446 0
M  V30 1511 C 147.901 -0.974212 -1.6892 0
M  V30 1512 O 147.171 -0.0257254 -1.95883 0
M  V30 1513 H 145.751 -0.715666 -0.214082 0
M  V30 1514 H 148.413 -1.94287 0.154464 0
M  V30 1515 H 147.509 -2.96191 -0.983729 0
M  V30 1516 N 147.81 0.181792 -1.56548 0
M  V30 1517 C 148.773 1.20894 -1.94724 0
M  V30 1518 C 149.773 1.37738 -0.829747 0
M  V30 1519 O 150.963 1.35323 -1.09697 0
M  V30 1520 C 148.095 2.57593 -2.23291 0
M  V30 1521 H 149.288 0.882275 -2.86629 0
M  V30 1522 H 146.841 0.423838 -1.50444 0
M  V30 1523 H 147.576 2.95291 -1.34067 0
M  V30 1524 H 147.361 2.46735 -3.04736 0
M  V30 1525 H 148.851 3.31637 -2.53785 0
M  V30 1526 N 149.288 1.51039 0.449983 0
M  V30 1527 C 150.198 1.74261 1.57067 0
M  V30 1528 C 151.214 0.626363 1.62335 0
M  V30 1529 O 152.39 0.907162 1.79812 0
M  V30 1530 C 149.455 1.85114 2.93144 0
M  V30 1531 C 148.516 3.0893 2.98095 0
M  V30 1532 C 147.749 3.19256 4.27681 0
M  V30 1533 O 147.972 2.35835 5.19363 0
M  V30 1534 O 146.906 4.12144 4.38658 0
M  V30 1535 H 150.732 2.69303 1.40391 0
M  V30 1536 H 148.317 1.35389 0.631688 0
M  V30 1537 H 150.199 1.94311 3.73926 0
M  V30 1538 H 148.874 0.932588 3.09975 0
M  V30 1539 H 147.781 3.0522 2.16314 0
M  V30 1540 H 149.114 4.00433 2.86206 0
M  V30 1541 N 150.766 -0.704594 1.40972 0
M  V30 1542 C 152.015 -1.46018 1.39146 0
M  V30 1543 C 152.328 -1.956 0.000589254 0
M  V30 1544 O 153.534 -2.71137 -0.1403 0
M  V30 1545 C 151.99 -2.63996 2.4461 0
M  V30 1546 C 151.598 -2.21238 3.89561 0
M  V30 1547 C 153.342 -3.41677 2.51907 0
M  V30 1548 C 151.249 -3.3612 4.86598 0
M  V30 1549 H 150.179 -0.548444 0.517422 0
M  V30 1550 H 152.83 -0.765784 1.66757 0
M  V30 1551 H 151.212 -3.3566 2.10115 0
M  V30 1552 H 152.386 -1.56923 4.33257 0
M  V30 1553 H 150.701 -1.56574 3.85841 0
M  V30 1554 H 153.298 -4.27182 3.2159 0
M  V30 1555 H 153.641 -3.86247 1.55303 0
M  V30 1556 H 154.174 -2.77064 2.85448 0
M  V30 1557 H 150.913 -2.96572 5.84573 0
M  V30 1558 H 150.433 -3.99315 4.47557 0
M  V30 1559 H 152.112 -4.02029 5.06934 0
M  V30 1560 N 152.244 -1.26651 -0.937939 0
M  V30 1561 C 153.191 -1.0849 -2.03712 0
M  V30 1562 C 154.161 0.011033 -1.66096 0
M  V30 1563 O 155.346 -0.149353 -1.90215 0
M  V30 1564 C 152.486 -0.72735 -3.37348 0
M  V30 1565 C 151.599 -1.89986 -3.87981 0
M  V30 1566 C 150.734 -1.48513 -5.10017 0
M  V30 1567 C 149.773 -2.62575 -5.5292 0
M  V30 1568 N 148.91 -2.21762 -6.66158 0
M  V30 1569 H 153.75 -2.02551 -2.18579 0
M  V30 1570 H 151.287 -1.00844 -1.07093 0
M  V30 1571 H 153.245 -0.50092 -4.14182 0
M  V30 1572 H 151.875 0.176298 -3.22318 0
M  V30 1573 H 150.927 -2.23913 -3.07518 0
M  V30 1574 H 152.239 -2.75586 -4.15757 0
M  V30 1575 H 151.393 -1.21934 -5.94321 0
M  V30 1576 H 150.132 -0.60009 -4.83994 0
M  V30 1577 H 149.137 -2.8988 -4.67172 0
M  V30 1578 H 150.362 -3.51685 -5.80943 0
M  V30 1579 H 148.308 -1.35696 -6.41812 0
M  V30 1580 H 148.225 -3.00903 -6.93537 0
M  V30 1581 H 149.493 -1.98403 -7.53828 0
M  V30 1582 N 153.722 1.14298 -1.08507 0
M  V30 1583 C 154.685 2.17607 -0.719711 0
M  V30 1584 C 155.685 1.58907 0.245997 0
M  V30 1585 O 156.875 1.74181 0.0254081 0
M  V30 1586 C 154.007 3.40842 -0.0627695 0
M  V30 1587 H 155.2 2.51443 -1.63452 0
M  V30 1588 H 152.753 1.28963 -0.88307 0
M  V30 1589 H 153.488 3.12587 0.863716 0
M  V30 1590 H 153.273 3.84713 -0.757504 0
M  V30 1591 H 154.763 4.17221 0.177786 0
M  V30 1592 N 155.201 0.870884 1.31352 0
M  V30 1593 C 156.149 0.316445 2.30437 0
M  V30 1594 C 157.143 -0.568965 1.59559 0
M  V30 1595 O 158.349 -0.454964 1.74155 0
M  V30 1596 H 154.724 0.0836521 0.747333 0
M  V30 1597 H 156.695 1.16606 2.74673 0
M  V30 1598 C 155.444 -0.46635 3.44558 0
M  V30 1599 H 154.767 0.205687 3.99271 0
M  V30 1600 H 156.207 -0.819614 4.16003 0
M  V30 1601 C 154.666 -1.65797 2.9328 0
M  V30 1602 O 155.196 -2.75728 2.92125 0
M  V30 1603 N 153.402 -1.49041 2.4947 0
M  V30 1604 H 152.949 -0.59612 2.50608 0
M  V30 1605 H 152.907 -2.28911 2.15516 0
M  V30 1606 N 156.679 -1.44442 0.630414 0
M  V30 1607 C 157.925 -2.02351 0.134816 0
M  V30 1608 C 158.258 -1.4947 -1.23986 0
M  V30 1609 O 157.533 -0.678475 -1.82283 0
M  V30 1610 C 157.816 -3.59898 0.120707 0
M  V30 1611 C 157.669 -4.23063 1.52767 0
M  V30 1612 C 158.988 -4.36585 -0.555127 0
M  V30 1613 H 156.107 -0.73527 0.0504646 0
M  V30 1614 H 158.749 -1.72022 0.806751 0
M  V30 1615 H 156.899 -3.85868 -0.451477 0
M  V30 1616 H 158.571 -4.08202 2.14869 0
M  V30 1617 H 156.814 -3.80586 2.08175 0
M  V30 1618 H 157.485 -5.32071 1.46984 0
M  V30 1619 H 159.961 -4.16044 -0.0685429 0
M  V30 1620 H 158.837 -5.46294 -0.534185 0
M  V30 1621 H 159.098 -4.11138 -1.62535 0
M  V30 1622 N 158.157 -0.370918 -1.53173 0
M  V30 1623 C 159.573 -0.0200818 -1.59587 0
M  V30 1624 C 159.773 1.46279 -1.38581 0
M  V30 1625 O 158.829 2.22506 -1.19363 0
M  V30 1626 C 160.142 -0.4808 -2.96831 0
M  V30 1627 C 161.69 -0.435477 -3.09956 0
M  V30 1628 C 162.165 -0.872092 -4.4962 0
M  V30 1629 N 163.656 -0.827364 -4.55751 0
M  V30 1630 C 164.391 -1.13683 -5.62018 0
M  V30 1631 N 163.887 -1.51584 -6.76014 0
M  V30 1632 N 165.68 -1.05927 -5.52029 0
M  V30 1633 H 157.831 -1.33652 -1.65079 0
M  V30 1634 H 160.094 -0.546634 -0.774529 0
M  V30 1635 H 159.8 -1.51577 -3.1736 0
M  V30 1636 H 159.674 0.129796 -3.76977 0
M  V30 1637 H 162.061 0.590371 -2.89134 0
M  V30 1638 H 162.142 -1.08164 -2.31806 0
M  V30 1639 H 161.786 -1.89608 -4.71181 0
M  V30 1640 H 161.716 -0.203127 -5.26208 0
M  V30 1641 H 164.207 -0.548216 -3.73902 0
M  V30 1642 H 164.52 -1.73609 -7.53047 0
M  V30 1643 H 162.865 -1.55454 -6.77391 0
M  V30 1644 H 166.056 -0.762321 -4.61851 0
M  V30 1645 H 166.229 -1.30378 -6.34749 0
M  V30 1646 N 159.635 1.57281 -0.100228 0
M  V30 1647 C 161.051 1.57527 0.256416 0
M  V30 1648 C 161.251 1.11173 1.68056 0
M  V30 1649 O 160.307 0.79053 2.39806 0
M  V30 1650 C 161.62 3.00673 0.0401747 0
M  V30 1651 C 163.168 3.12815 0.107528 0
M  V30 1652 C 163.643 4.57929 -0.0807834 0
M  V30 1653 N 165.134 4.63193 -0.0261207 0
M  V30 1654 C 165.869 5.73212 -0.146999 0
M  V30 1655 N 165.365 6.92047 -0.322999 0
M  V30 1656 N 167.158 5.62031 -0.0879044 0
M  V30 1657 H 159.309 1.85718 -1.03065 0
M  V30 1658 H 161.572 0.857446 -0.404339 0
M  V30 1659 H 161.278 3.38804 -0.943649 0
M  V30 1660 H 161.152 3.69042 0.780262 0
M  V30 1661 H 163.539 2.74554 1.08186 0
M  V30 1662 H 163.62 2.47028 -0.664134 0
M  V30 1663 H 163.264 4.96886 -1.05201 0
M  V30 1664 H 163.194 5.21783 0.710635 0
M  V30 1665 H 165.685 3.77748 0.107161 0
M  V30 1666 H 165.998 7.7173 -0.406608 0
M  V30 1667 H 164.343 6.94074 -0.358733 0
M  V30 1668 H 167.534 4.68075 0.048498 0
M  V30 1669 H 167.707 6.47734 -0.185557 0
M  V30 1670 N 161.113 -0.173488 1.56642 0
M  V30 1671 C 162.06 -1.21482 1.96242 0
M  V30 1672 C 163.03 -1.44104 0.826027 0
M  V30 1673 O 164.215 -1.5688 1.08597 0
M  V30 1674 C 161.355 -2.54964 2.32567 0
M  V30 1675 C 160.468 -2.39739 3.59373 0
M  V30 1676 C 159.603 -3.66072 3.84921 0
M  V30 1677 C 158.642 -3.45771 5.05083 0
M  V30 1678 N 157.779 -4.64169 5.26775 0
M  V30 1679 H 162.619 -0.870123 2.85014 0
M  V30 1680 H 160.156 -0.418245 1.41029 0
M  V30 1681 H 162.114 -3.32758 2.5165 0
M  V30 1682 H 160.744 -2.87433 1.46908 0
M  V30 1683 H 159.796 -1.53131 3.48217 0
M  V30 1684 H 161.108 -2.20683 4.47326 0
M  V30 1685 H 160.262 -4.52303 4.0436 0
M  V30 1686 H 159.001 -3.88105 2.9534 0
M  V30 1687 H 158.006 -2.57927 4.85545 0
M  V30 1688 H 159.231 -3.25163 5.96193 0
M  V30 1689 H 157.177 -4.86425 4.40144 0
M  V30 1690 H 157.094 -4.48019 6.08946 0
M  V30 1691 H 158.362 -5.51689 5.5069 0
M  V30 1692 N 162.591 -1.51276 -0.441967 0
M  V30 1693 C 164.007 -1.39349 -0.778083 0
M  V30 1694 C 164.207 -0.472212 -1.95889 0
M  V30 1695 O 163.263 0.0743551 -2.5239 0
M  V30 1696 C 164.576 -2.81292 -1.0628 0
M  V30 1697 C 166.124 -2.9041 -1.16751 0
M  V30 1698 C 166.599 -4.33251 -1.48519 0
M  V30 1699 N 168.09 -4.36336 -1.55453 0
M  V30 1700 C 168.825 -5.43885 -1.81596 0
M  V30 1701 N 168.321 -6.61601 -2.05562 0
M  V30 1702 N 170.114 -5.3136 -1.8334 0
M  V30 1703 H 162.265 -2.09729 0.335774 0
M  V30 1704 H 164.528 -0.943925 0.0878028 0
M  V30 1705 H 164.234 -3.50678 -0.267905 0
M  V30 1706 H 164.108 -3.20334 -1.99163 0
M  V30 1707 H 166.495 -2.21225 -1.95304 0
M  V30 1708 H 166.576 -2.54871 -0.217801 0
M  V30 1709 H 166.22 -5.02984 -0.704958 0
M  V30 1710 H 166.15 -4.66299 -2.44689 0
M  V30 1711 H 168.641 -3.51466 -1.38853 0
M  V30 1712 H 168.954 -7.39361 -2.24867 0
M  V30 1713 H 167.299 -6.64725 -2.02894 0
M  V30 1714 H 170.49 -4.38382 -1.64132 0
M  V30 1715 H 170.663 -6.15258 -2.03377 0
M  V30 1716 N 164.069 0.697108 -1.41344 0
M  V30 1717 C 165.299 1.48377 -1.43763 0
M  V30 1718 C 165.707 1.89156 -0.0408726 0
M  V30 1719 O 165.05 1.57239 0.949812 0
M  V30 1720 C 165.112 2.7781 -2.2817 0
M  V30 1721 C 164.776 2.59244 -3.76353 0
M  V30 1722 C 165.773 2.25292 -4.68551 0
M  V30 1723 C 163.458 2.74933 -4.20378 0
M  V30 1724 C 165.452 2.07264 -6.02761 0
M  V30 1725 C 163.139 2.56521 -5.54653 0
M  V30 1726 C 164.137 2.22737 -6.4566 0
M  V30 1727 O 163.825 2.04485 -7.77458 0
M  V30 1728 H 163.557 0.463842 -0.491759 0
M  V30 1729 H 166.111 0.865934 -1.86255 0
M  V30 1730 H 164.341 3.41995 -1.8049 0
M  V30 1731 H 166.03 3.39608 -2.22309 0
M  V30 1732 H 166.796 2.12787 -4.35829 0
M  V30 1733 H 162.675 3.00213 -3.49848 0
M  V30 1734 H 166.219 1.80817 -6.73759 0
M  V30 1735 H 162.116 2.68616 -5.86955 0
M  V30 1736 H 162.884 2.1926 -7.88586 0
M  V30 1737 N 165.547 1.27147 0.931209 0
M  V30 1738 C 166.51 1.09615 2.01289 0
M  V30 1739 C 167.51 0.0412581 1.60747 0
M  V30 1740 O 168.7 0.285545 1.71844 0
M  V30 1741 C 165.832 0.669447 3.34262 0
M  V30 1742 H 167.025 2.05662 2.18273 0
M  V30 1743 H 164.578 1.09885 1.11153 0
M  V30 1744 H 165.313 -0.292572 3.22978 0
M  V30 1745 H 165.098 1.43127 3.65044 0
M  V30 1746 H 166.588 0.568921 4.13706 0
M  V30 1747 N 167.025 -1.13721 1.09112 0
M  V30 1748 C 168.274 -1.84275 0.82009 0
M  V30 1749 C 168.587 -1.84253 -0.656509 0
M  V30 1750 O 169.793 -2.50668 -1.04296 0
M  V30 1751 C 168.249 -3.30825 1.41714 0
M  V30 1752 C 167.857 -3.39244 2.92605 0
M  V30 1753 C 169.601 -4.06443 1.22492 0
M  V30 1754 C 167.508 -4.80047 3.45411 0
M  V30 1755 H 166.438 -0.690387 0.30312 0
M  V30 1756 H 169.089 -1.28146 1.31343 0
M  V30 1757 H 167.471 -3.86737 0.851498 0
M  V30 1758 H 168.645 -2.93344 3.55367 0
M  V30 1759 H 166.96 -2.77088 3.10823 0
M  V30 1760 H 169.557 -5.10387 1.59402 0
M  V30 1761 H 169.9 -4.15972 0.165299 0
M  V30 1762 H 170.433 -3.56852 1.75788 0
M  V30 1763 H 167.172 -4.75709 4.50978 0
M  V30 1764 H 166.692 -5.26455 2.87411 0
M  V30 1765 H 168.371 -5.48957 3.42425 0
M  V30 1766 N 168.503 -0.877838 -1.30888 0
M  V30 1767 C 169.435 -0.296607 -2.27273 0
M  V30 1768 C 170.448 0.544799 -1.53414 0
M  V30 1769 O 171.637 0.365511 -1.74718 0
M  V30 1770 C 168.737 0.597481 -3.33592 0
M  V30 1771 C 167.91 -0.213251 -4.3688 0
M  V30 1772 C 166.969 0.610208 -5.2265 0
M  V30 1773 O 165.995 0.035441 -5.69189 0
M  V30 1774 N 167.197 1.92071 -5.47804 0
M  V30 1775 H 169.962 -1.12492 -2.77787 0
M  V30 1776 H 167.523 -0.740105 -1.43993 0
M  V30 1777 H 169.515 1.15425 -3.87891 0
M  V30 1778 H 168.085 1.32647 -2.83061 0
M  V30 1779 H 167.305 -0.951466 -3.82545 0
M  V30 1780 H 168.593 -0.769262 -5.02951 0
M  V30 1781 H 167.991 2.4107 -5.11763 0
M  V30 1782 H 166.548 2.42508 -6.05007 0
M  V30 1783 N 169.982 1.44106 -0.638065 0
M  V30 1784 C 171.23 2.01579 -0.145043 0
M  V30 1785 C 171.551 1.50496 1.24 0
M  V30 1786 O 170.821 0.711374 1.82527 0
M  V30 1787 H 169.401 0.745282 -0.05063 0
M  V30 1788 H 172.063 1.76516 -0.826327 0
M  V30 1789 H 171.159 3.11877 -0.118039 0
M  V30 1790 N 171.46 0.379036 1.52974 0
M  V30 1791 C 172.39 -0.452706 2.29069 0
M  V30 1792 C 173.371 -1.07237 1.32039 0
M  V30 1793 O 174.556 -1.08708 1.60923 0
M  V30 1794 C 171.686 -1.5856 3.08992 0
M  V30 1795 C 170.64 -1.0925 4.13822 0
M  V30 1796 C 169.966 -2.31668 4.81907 0
M  V30 1797 C 171.266 -0.167702 5.22031 0
M  V30 1798 H 172.96 0.182181 2.98845 0
M  V30 1799 H 170.506 0.0890592 1.43724 0
M  V30 1800 H 172.459 -2.1742 3.6098 0
M  V30 1801 H 171.183 -2.24792 2.36931 0
M  V30 1802 H 169.842 -0.526494 3.628 0
M  V30 1803 H 169.49 -2.96386 4.06404 0
M  V30 1804 H 169.19 -1.9934 5.52754 0
M  V30 1805 H 170.714 -2.91189 5.36695 0
M  V30 1806 H 172.128 -0.664186 5.6944 0
M  V30 1807 H 170.525 0.0653265 6.00064 0
M  V30 1808 H 171.595 0.786347 4.78482 0
M  V30 1809 N 172.938 -1.57226 0.108567 0
M  V30 1810 C 173.885 -2.14756 -0.845481 0
M  V30 1811 C 174.855 -1.06971 -1.27068 0
M  V30 1812 O 176.04 -1.34827 -1.35005 0
M  V30 1813 C 173.18 -2.74298 -2.09415 0
M  V30 1814 C 172.293 -3.96358 -1.71826 0
M  V30 1815 C 171.428 -4.44021 -2.9158 0
M  V30 1816 C 170.467 -5.58637 -2.50181 0
M  V30 1817 N 169.604 -6.01091 -3.62814 0
M  V30 1818 H 174.444 -2.95961 -0.348035 0
M  V30 1819 H 171.981 -1.46226 -0.160106 0
M  V30 1820 H 173.939 -3.06945 -2.82561 0
M  V30 1821 H 172.569 -1.95801 -2.56636 0
M  V30 1822 H 171.621 -3.69939 -0.885947 0
M  V30 1823 H 172.933 -4.79504 -1.37394 0
M  V30 1824 H 172.087 -4.78522 -3.72963 0
M  V30 1825 H 170.826 -3.59803 -3.29231 0
M  V30 1826 H 169.831 -5.23751 -1.67228 0
M  V30 1827 H 171.056 -6.44613 -2.13659 0
M  V30 1828 H 169.002 -5.19817 -4.00158 0
M  V30 1829 H 168.919 -6.79066 -3.32273 0
M  V30 1830 H 170.187 -6.40227 -4.44668 0
M  V30 1831 N 174.416 0.165178 -1.56732 0
M  V30 1832 C 175.662 0.877389 -1.83503 0
M  V30 1833 C 176.017 1.79602 -0.689996 0
M  V30 1834 O 175.31 1.89023 0.313205 0
M  V30 1835 C 175.504 1.70405 -3.1416 0
M  V30 1836 C 175.333 0.866961 -4.41264 0
M  V30 1837 C 174.103 0.539646 -5.0241 0
M  V30 1838 C 176.301 0.205671 -5.13889 0
M  V30 1839 N 174.283 -0.312946 -6.13102 0
M  V30 1840 C 175.654 -0.507823 -6.17917 0
M  V30 1841 C 177.709 0.124468 -4.97744 0
M  V30 1842 C 176.412 -1.29483 -7.0755 0
M  V30 1843 C 178.438 -0.649222 -5.87826 0
M  V30 1844 C 177.8 -1.35106 -6.91322 0
M  V30 1845 H 173.899 0.299477 -0.722383 0
M  V30 1846 H 176.483 0.143949 -1.94167 0
M  V30 1847 H 174.654 2.40887 -3.04677 0
M  V30 1848 H 176.386 2.35804 -3.28905 0
M  V30 1849 H 173.141 0.871176 -4.65519 0
M  V30 1850 H 173.565 -0.729731 -6.73056 0
M  V30 1851 H 178.207 0.652724 -4.17731 0
M  V30 1852 H 175.925 -1.83441 -7.87004 0
M  V30 1853 H 179.511 -0.713804 -5.77405 0
M  V30 1854 H 178.391 -1.94013 -7.59821 0
M  V30 1855 N 175.894 1.51508 0.433938 0
M  V30 1856 C 176.826 1.69266 1.54537 0
M  V30 1857 C 177.839 0.573276 1.52373 0
M  V30 1858 O 179.028 0.847698 1.57087 0
M  V30 1859 C 176.128 1.69524 2.93453 0
M  V30 1860 C 175.301 2.98101 3.20085 0
M  V30 1861 C 174.36 2.90502 4.38742 0
M  V30 1862 O 173.386 3.64442 4.3723 0
M  V30 1863 N 174.588 2.06586 5.42496 0
M  V30 1864 H 177.353 2.65145 1.39708 0
M  V30 1865 H 174.914 1.49437 0.622922 0
M  V30 1866 H 176.906 1.62004 3.70859 0
M  V30 1867 H 175.476 0.812245 3.01863 0
M  V30 1868 H 174.696 3.19464 2.30947 0
M  V30 1869 H 175.984 3.83207 3.34708 0
M  V30 1870 H 175.382 1.45896 5.46563 0
M  V30 1871 H 173.939 2.04943 6.18742 0
M  V30 1872 N 177.372 -0.689602 1.41712 0
M  V30 1873 C 178.322 -1.79571 1.40493 0
M  V30 1874 C 179.306 -1.58473 0.278409 0
M  V30 1875 O 180.498 -1.69204 0.519532 0
M  V30 1876 C 177.627 -3.17923 1.29536 0
M  V30 1877 C 176.713 -3.44695 2.47075 0
M  V30 1878 N 177.104 -3.42132 3.72531 0
M  V30 1879 C 175.402 -3.75269 2.41017 0
M  V30 1880 C 176.103 -3.67976 4.50521 0
M  V30 1881 N 175.079 -3.88014 3.80718 0
M  V30 1882 H 178.881 -1.75961 2.35404 0
M  V30 1883 H 176.395 -0.889839 1.35851 0
M  V30 1884 H 178.392 -3.97167 1.26745 0
M  V30 1885 H 177.052 -3.22741 0.356153 0
M  V30 1886 H 178.063 -3.22375 4.05333 0
M  V30 1887 H 174.74 -3.87421 1.55599 0
M  V30 1888 H 176.13 -3.7208 5.59469 0
M  V30 1889 N 178.85 -1.27639 -0.924453 0
M  V30 1890 C 179.798 -1.10485 -2.04685 0
M  V30 1891 C 180.792 -0.0270421 -1.69378 0
M  V30 1892 O 181.998 -0.185008 -1.79047 0
M  V30 1893 H 178.373 -0.340546 -0.670472 0
M  V30 1894 H 180.344 -2.05566 -2.16298 0
M  V30 1895 C 179.093 -0.772229 -3.39016 0
M  V30 1896 H 178.416 -1.59351 -3.66671 0
M  V30 1897 H 179.856 -0.692097 -4.18313 0
M  V30 1898 C 178.315 0.523554 -3.32807 0
M  V30 1899 O 178.845 1.55702 -3.70297 0
M  V30 1900 N 177.051 0.520363 -2.85903 0
M  V30 1901 H 176.598 -0.32107 -2.55591 0
M  V30 1902 H 176.556 1.38742 -2.82131 0
M  V30 1903 N 180.328 1.1314 -1.09713 0
M  V30 1904 C 181.238 2.22242 -0.751367 0
M  V30 1905 C 182.254 1.72224 0.247938 0
M  V30 1906 O 183.43 2.01205 0.0885463 0
M  V30 1907 C 180.495 3.46231 -0.180274 0
M  V30 1908 C 179.556 4.11125 -1.2359 0
M  V30 1909 C 178.789 5.29195 -0.691966 0
M  V30 1910 O 179.012 5.68342 0.48414 0
M  V30 1911 O 177.946 5.84214 -1.44838 0
M  V30 1912 H 181.772 2.54197 -1.66186 0
M  V30 1913 H 179.357 1.21331 -0.871735 0
M  V30 1914 H 181.239 4.21185 0.134739 0
M  V30 1915 H 179.914 3.1597 0.703185 0
M  V30 1916 H 178.821 3.37985 -1.60366 0
M  V30 1917 H 180.154 4.45524 -2.09211 0
M  V30 1918 N 181.806 0.884767 1.30421 0
M  V30 1919 C 183.055 0.499164 1.95426 0
M  V30 1920 C 183.368 -0.95645 1.70621 0
M  V30 1921 O 184.574 -1.44889 2.29607 0
M  V30 1922 C 183.03 0.84177 3.49917 0
M  V30 1923 C 182.638 2.31514 3.83543 0
M  V30 1924 C 184.382 0.525355 4.21237 0
M  V30 1925 C 182.289 2.59939 5.31212 0
M  V30 1926 H 181.219 0.182944 0.73147 0
M  V30 1927 H 183.87 1.07971 1.48373 0
M  V30 1928 H 182.252 0.190311 3.95542 0
M  V30 1929 H 183.426 3.0109 3.48829 0
M  V30 1930 H 181.741 2.59907 3.25326 0
M  V30 1931 H 184.338 0.714762 5.29901 0
M  V30 1932 H 184.681 -0.535222 4.12845 0
M  V30 1933 H 185.214 1.134 3.81294 0
M  V30 1934 H 181.953 3.64736 5.44654 0
M  V30 1935 H 181.473 1.94972 5.67227 0
M  V30 1936 H 183.152 2.45429 5.98643 0
M  V30 1937 N 183.284 -1.43765 0.645699 0
M  V30 1938 C 184.512 -2.06253 0.163556 0
M  V30 1939 C 184.927 -1.48352 -1.16778 0
M  V30 1940 O 184.284 -0.611932 -1.71935 0
M  V30 1941 C 184.335 -3.61453 0.0583186 0
M  V30 1942 O 184.056 -4.172 1.33702 0
M  V30 1943 C 185.557 -4.41002 -0.450795 0
M  V30 1944 H 182.777 -0.665413 0.0864077 0
M  V30 1945 H 185.321 -1.84396 0.884222 0
M  V30 1946 H 183.476 -3.82522 -0.612865 0
M  V30 1947 H 183.89 -5.10791 1.19131 0
M  V30 1948 H 185.364 -5.49966 -0.473403 0
M  V30 1949 H 185.841 -4.13488 -1.48068 0
M  V30 1950 H 186.447 -4.24886 0.187637 0
M  V30 1951 N 184.763 -0.387143 -1.52771 0
M  V30 1952 C 186.01 0.195735 -2.01552 0
M  V30 1953 C 186.338 1.46995 -1.27369 0
M  V30 1954 O 185.593 1.92325 -0.361879 0
M  V30 1955 C 185.892 0.512209 -3.53711 0
M  V30 1956 C 185.558 -0.670202 -4.45891 0
M  V30 1957 C 184.22 -0.994586 -4.70809 0
M  V30 1958 C 186.572 -1.46134 -5.00294 0
M  V30 1959 C 183.9 -2.11169 -5.4738 0
M  V30 1960 C 186.252 -2.56903 -5.78086 0
M  V30 1961 C 184.916 -2.89852 -6.01284 0
M  V30 1962 H 184.186 0.0716246 -0.73753 0
M  V30 1963 H 186.833 -0.524046 -1.8419 0
M  V30 1964 H 185.138 1.31329 -3.69134 0
M  V30 1965 H 186.835 0.975804 -3.88946 0
M  V30 1966 H 183.425 -0.407366 -4.2666 0
M  V30 1967 H 187.609 -1.22397 -4.80971 0
M  V30 1968 H 182.865 -2.3707 -5.63567 0
M  V30 1969 H 187.039 -3.18608 -6.19243 0
M  V30 1970 H 184.666 -3.76533 -6.60399 0
M  V30 1971 N 186.241 1.57166 -0.116904 0
M  V30 1972 C 187.481 1.97008 0.544715 0
M  V30 1973 C 187.845 0.998713 1.63981 0
M  V30 1974 O 189.046 1.28644 2.36018 0
M  V30 1975 C 187.317 3.41145 1.06559 0
M  V30 1976 S 188.876 4.02998 1.73603 0
M  V30 1977 H 185.694 0.688587 0.177112 0
M  V30 1978 H 188.296 1.94459 -0.201487 0
M  V30 1979 H 187 4.09592 0.257374 0
M  V30 1980 H 186.531 3.4734 1.84712 0
M  V30 1981 H 188.546 3.93585 3.02168 0
M  V30 1982 N 187.719 -0.156864 1.56817 0
M  V30 1983 C 188.968 -0.869504 1.81996 0
M  V30 1984 C 189.281 -1.82777 0.696545 0
M  V30 1985 O 190.487 -2.58384 0.833658 0
M  V30 1986 C 188.943 -1.59679 3.22538 0
M  V30 1987 C 188.551 -0.681431 4.42787 0
M  V30 1988 C 190.295 -2.2968 3.56997 0
M  V30 1989 C 188.202 -1.40978 5.74351 0
M  V30 1990 H 187.132 -0.328438 0.678708 0
M  V30 1991 H 189.783 -0.1223 1.83092 0
M  V30 1992 H 188.165 -2.38927 3.158 0
M  V30 1993 H 189.339 0.0751166 4.60739 0
M  V30 1994 H 187.654 -0.0903431 4.16302 0
M  V30 1995 H 190.251 -2.84794 4.52544 0
M  V30 1996 H 190.594 -3.05707 2.82576 0
M  V30 1997 H 191.127 -1.57361 3.65352 0
M  V30 1998 H 187.866 -0.691561 6.51842 0
M  V30 1999 H 187.386 -2.13929 5.60352 0
M  V30 2000 H 189.065 -1.95337 6.16808 0
M  V30 2001 N 189.197 -1.51736 -0.425897 0
M  V30 2002 C 190.129 -1.70083 -1.53638 0
M  V30 2003 C 191.142 -0.581349 -1.52066 0
M  V30 2004 O 192.331 -0.856017 -1.56635 0
M  V30 2005 C 189.431 -1.71078 -2.9255 0
M  V30 2006 C 188.604 -2.99795 -3.185 0
M  V30 2007 C 187.663 -2.92825 -4.37196 0
M  V30 2008 O 186.689 -3.66756 -4.35291 0
M  V30 2009 N 187.891 -2.0946 -5.41393 0
M  V30 2010 H 190.656 -2.65882 -1.383 0
M  V30 2011 H 188.217 -1.49765 -0.614988 0
M  V30 2012 H 190.209 -1.63969 -3.69995 0
M  V30 2013 H 188.779 -0.828242 -3.01428 0
M  V30 2014 H 187.999 -3.20684 -2.2925 0
M  V30 2015 H 189.287 -3.84977 -3.32671 0
M  V30 2016 H 188.685 -1.48792 -5.45781 0
M  V30 2017 H 187.242 -2.08221 -6.17647 0
M  V30 2018 N 190.675 0.682077 -1.42076 0
M  V30 2019 C 191.623 1.81707 -1.45208 0
M  V30 2020 C 192.617 1.66183 -0.328591 0
M  V30 2021 O 193.823 1.7288 -0.501264 0
M  V30 2022 H 190.198 0.599014 -0.454628 0
M  V30 2023 H 192.169 1.76183 -2.40836 0
M  V30 2024 C 190.918 3.19816 -1.36428 0
M  V30 2025 H 190.241 3.32385 -2.22171 0
M  V30 2026 H 191.681 3.99272 -1.42681 0
M  V30 2027 C 190.14 3.36809 -0.078191 0
M  V30 2028 O 190.67 3.92124 0.87188 0
M  V30 2029 N 188.876 2.906 0.00229266 0
M  V30 2030 H 188.423 2.45772 -0.771616 0
M  V30 2031 H 188.381 3.02347 0.862179 0
M  V30 2032 N 192.153 1.28127 0.917671 0
M  V30 2033 C 193.383 1.17722 1.6978 0
M  V30 2034 C 193.791 -0.267261 1.87303 0
M  V30 2035 O 193.134 -1.19286 1.39702 0
M  V30 2036 C 193.196 1.79958 3.11216 0
M  V30 2037 C 192.86 3.29187 3.16993 0
M  V30 2038 C 193.857 4.25679 2.98485 0
M  V30 2039 C 191.542 3.70075 3.39632 0
M  V30 2040 C 193.536 5.61035 3.02521 0
M  V30 2041 C 191.223 5.05557 3.433 0
M  V30 2042 C 192.221 6.00847 3.24764 0
M  V30 2043 O 191.909 7.33859 3.28187 0
M  V30 2044 H 191.641 0.409788 0.537634 0
M  V30 2045 H 194.195 1.69694 1.15728 0
M  V30 2046 H 192.425 1.22475 3.66793 0
M  V30 2047 H 194.114 1.64125 3.71238 0
M  V30 2048 H 194.88 3.95426 2.80826 0
M  V30 2049 H 190.759 2.96373 3.53106 0
M  V30 2050 H 194.303 6.35388 2.87971 0
M  V30 2051 H 190.2 5.35462 3.60486 0
M  V30 2052 H 190.968 7.42436 3.44575 0
M  V30 2053 N 193.631 -1.12557 1.10312 0
M  V30 2054 C 194.859 -1.87864 0.866873 0
M  V30 2055 C 195.274 -1.79588 -0.582557 0
M  V30 2056 O 194.631 -1.16887 -1.40156 0
M  V30 2057 C 194.682 -3.37125 1.30496 0
M  V30 2058 O 194.403 -3.45201 2.69755 0
M  V30 2059 C 195.904 -4.29373 1.10243 0
M  V30 2060 H 193.124 -0.594452 0.311236 0
M  V30 2061 H 195.668 -1.42429 1.46745 0
M  V30 2062 H 193.823 -3.80109 0.748081 0
M  V30 2063 H 194.237 -4.38056 2.88457 0
M  V30 2064 H 195.711 -5.32394 1.45811 0
M  V30 2065 H 196.188 -4.39181 0.0409492 0
M  V30 2066 H 196.794 -3.92169 1.64571 0
M  V30 2067 N 195.109 -0.891671 -1.2995 0
M  V30 2068 C 196.52 -0.563104 -1.78006 0
M  V30 2069 C 196.871 0.920978 -1.73241 0
M  V30 2070 O 195.996 1.71987 -1.31337 0
M  V30 2071 C 196.591 -1.01539 -3.23226 0
M  V30 2072 C 195.15 -0.738124 -3.69092 0
M  V30 2073 C 194.297 -1.19461 -2.50249 0
M  V30 2074 H 197.248 -1.07522 -1.16725 0
M  V30 2075 H 197.269 -0.347217 -3.78912 0
M  V30 2076 H 196.781 -2.09555 -3.26662 0
M  V30 2077 H 194.882 0.329766 -3.71138 0
M  V30 2078 H 194.995 -1.33037 -4.60259 0
M  V30 2079 H 193.359 -0.613787 -2.47194 0
M  V30 2080 H 194.142 -2.28265 -2.56417 0
M  V30 2081 N 196.587 1.43421 -0.653314 0
M  V30 2082 C 197.534 2.30768 0.0382271 0
M  V30 2083 C 198.504 1.44755 0.814576 0
M  V30 2084 O 199.689 1.73624 0.791162 0
M  V30 2085 C 196.829 3.30336 0.998599 0
M  V30 2086 C 195.942 4.31448 0.218342 0
M  V30 2087 C 195.077 5.18098 1.17252 0
M  V30 2088 C 194.116 6.10902 0.382702 0
M  V30 2089 N 193.253 6.90176 1.28848 0
M  V30 2090 H 198.093 2.89357 -0.712511 0
M  V30 2091 H 195.63 1.42548 -0.363128 0
M  V30 2092 H 197.588 3.86572 1.56901 0
M  V30 2093 H 196.218 2.73397 1.71621 0
M  V30 2094 H 195.27 3.77506 -0.46836 0
M  V30 2095 H 196.582 4.97227 -0.395812 0
M  V30 2096 H 195.736 5.7896 1.81356 0
M  V30 2097 H 194.475 4.52444 1.82058 0
M  V30 2098 H 193.48 5.49128 -0.27169 0
M  V30 2099 H 194.705 6.78598 -0.260957 0
M  V30 2100 H 192.651 6.27171 1.92334 0
M  V30 2101 H 192.568 7.52478 0.728887 0
M  V30 2102 H 193.836 7.55543 1.91766 0
M  V30 2103 N 198.065 0.39524 1.52563 0
M  V30 2104 C 199.311 -0.185318 2.01952 0
M  V30 2105 C 199.644 -1.45964 1.28095 0
M  V30 2106 O 198.919 -1.90689 0.38315 0
M  V30 2107 C 199.202 -0.447193 3.57312 0
M  V30 2108 C 199.055 0.842828 4.41833 0
M  V30 2109 C 200.374 -1.23529 4.22408 0
M  V30 2110 H 197.493 -0.0658788 0.73405 0
M  V30 2111 H 200.135 0.525975 1.82575 0
M  V30 2112 H 198.285 -1.05312 3.73954 0
M  V30 2113 H 199.957 1.4795 4.36931 0
M  V30 2114 H 198.2 1.45686 4.08605 0
M  V30 2115 H 198.871 0.614165 5.48573 0
M  V30 2116 H 201.347 -0.722445 4.0978 0
M  V30 2117 H 200.223 -1.38727 5.3108 0
M  V30 2118 H 200.484 -2.25213 3.80436 0
M  V30 2119 N 199.544 -1.57102 0.125237 0
M  V30 2120 C 200.792 -1.95021 -0.530198 0
M  V30 2121 C 201.113 -1.00982 -1.66816 0
M  V30 2122 O 200.383 -0.0672693 -1.95784 0
M  V30 2123 H 198.963 -0.720046 -0.198853 0
M  V30 2124 H 201.625 -1.93916 0.19564 0
M  V30 2125 H 200.721 -2.98211 -0.920681 0
M  V30 2126 N 201.022 0.148545 -1.56898 0
M  V30 2127 C 201.932 1.20293 -2.01412 0
M  V30 2128 C 202.948 1.47107 -0.929273 0
M  V30 2129 O 204.124 1.58807 -1.23863 0
M  V30 2130 C 201.189 2.51682 -2.38447 0
M  V30 2131 C 200.25 2.32529 -3.60872 0
M  V30 2132 C 199.483 3.57653 -3.96132 0
M  V30 2133 O 199.706 4.63771 -3.32073 0
M  V30 2134 O 198.64 3.50408 -4.89385 0
M  V30 2135 H 202.466 0.855025 -2.91416 0
M  V30 2136 H 200.051 0.357151 -1.45068 0
M  V30 2137 H 201.933 3.29147 -2.63135 0
M  V30 2138 H 200.608 2.86006 -1.51599 0
M  V30 2139 H 199.515 1.53019 -3.41373 0
M  V30 2140 H 200.848 2.03121 -4.48333 0
M  V30 2141 N 202.5 1.5196 0.417844 0
M  V30 2142 C 203.73 1.69181 1.18581 0
M  V30 2143 C 204.138 0.397104 1.84986 0
M  V30 2144 O 203.481 -0.636011 1.72339 0
M  V30 2145 C 203.543 2.76497 2.29759 0
M  V30 2146 C 203.207 4.18514 1.83563 0
M  V30 2147 C 204.204 5.02648 1.32821 0
M  V30 2148 C 201.889 4.64708 1.90661 0
M  V30 2149 C 203.883 6.31044 0.897894 0
M  V30 2150 C 201.57 5.93096 1.47241 0
M  V30 2151 C 202.568 6.76093 0.968891 0
M  V30 2152 O 202.256 8.02078 0.540924 0
M  V30 2153 H 201.988 0.570457 0.362705 0
M  V30 2154 H 204.542 1.99249 0.498885 0
M  V30 2155 H 202.772 2.41786 3.01789 0
M  V30 2156 H 204.461 2.82403 2.91553 0
M  V30 2157 H 205.227 4.68154 1.26716 0
M  V30 2158 H 201.106 4.00216 2.28797 0
M  V30 2159 H 204.65 6.95776 0.504192 0
M  V30 2160 H 200.547 6.271 1.53022 0
M  V30 2161 H 201.315 8.15794 0.66502 0
M  V30 2162 N 203.978 -0.674533 1.42435 0
M  V30 2163 C 204.941 -1.76986 1.45632 0
M  V30 2164 C 205.941 -1.5708 0.343871 0
M  V30 2165 O 207.131 -1.63367 0.604709 0
M  V30 2166 C 204.263 -3.15623 1.28822 0
M  V30 2167 H 205.456 -1.75539 2.43158 0
M  V30 2168 H 203.009 -0.884189 1.28887 0
M  V30 2169 H 203.744 -3.22696 0.322193 0
M  V30 2170 H 203.529 -3.31475 2.09444 0
M  V30 2171 H 205.019 -3.95537 1.33942 0
M  V30 2172 N 205.456 -1.28612 -0.910864 0
M  V30 2173 C 206.684 -1.18792 -1.69399 0
M  V30 2174 C 207.099 0.253039 -1.87097 0
M  V30 2175 O 206.456 1.17071 -1.40003 0
M  V30 2176 C 206.507 -1.88511 -3.08457 0
M  V30 2177 O 206.228 -3.26979 -2.91576 0
M  V30 2178 C 207.729 -1.85029 -4.02839 0
M  V30 2179 H 204.949 -0.412233 -0.529438 0
M  V30 2180 H 207.493 -1.69788 -1.13984 0
M  V30 2181 H 205.648 -1.41379 -3.60681 0
M  V30 2182 H 206.062 -3.61936 -3.79608 0
M  V30 2183 H 207.536 -2.38395 -4.97867 0
M  V30 2184 H 208.013 -0.823303 -4.31414 0
M  V30 2185 H 208.619 -2.31853 -3.56545 0
M  V30 2186 N 206.934 1.1197 -1.10907 0
M  V30 2187 C 208.164 1.8713 -0.875553 0
M  V30 2188 C 208.572 1.8016 0.577843 0
M  V30 2189 O 207.915 1.17699 1.41042 0
M  V30 2190 C 207.977 3.37005 -1.2517 0
M  V30 2191 C 207.641 3.67748 -2.71313 0
M  V30 2192 C 208.638 3.65698 -3.69542 0
M  V30 2193 C 206.323 3.96928 -3.07821 0
M  V30 2194 C 208.317 3.92395 -5.023 0
M  V30 2195 C 206.004 4.23284 -4.40765 0
M  V30 2196 C 207.002 4.21005 -5.37814 0
M  V30 2197 O 206.69 4.46704 -6.68364 0
M  V30 2198 H 206.422 0.598786 -0.313737 0
M  V30 2199 H 208.976 1.42568 -1.47863 0
M  V30 2200 H 207.206 3.82146 -0.591741 0
M  V30 2201 H 208.895 3.93519 -0.994877 0
M  V30 2202 H 209.661 3.43211 -3.42682 0
M  V30 2203 H 205.54 3.97841 -2.32902 0
M  V30 2204 H 209.084 3.90531 -5.78041 0
M  V30 2205 H 204.981 4.45246 -4.67361 0
M  V30 2206 H 205.749 4.64299 -6.74069 0
M  V30 2207 N 208.412 0.89855 1.29475 0
M  V30 2208 C 209.322 0.379974 2.31502 0
M  V30 2209 C 210.338 -0.524695 1.659 0
M  V30 2210 O 211.514 -0.414551 1.97087 0
M  V30 2211 C 208.579 -0.385138 3.44554 0
M  V30 2212 C 207.64 0.550914 4.2575 0
M  V30 2213 C 206.873 -0.177778 5.33404 0
M  V30 2214 O 207.096 -1.40189 5.52904 0
M  V30 2215 O 206.03 0.479106 5.9999 0
M  V30 2216 H 209.856 1.22639 2.77837 0
M  V30 2217 H 207.441 0.662834 1.33891 0
M  V30 2218 H 209.323 -0.817841 4.13388 0
M  V30 2219 H 207.998 -1.20763 3.0033 0
M  V30 2220 H 206.905 1.03271 3.59564 0
M  V30 2221 H 208.238 1.33979 4.73614 0
M  V30 2222 N 209.89 -1.43072 0.660911 0
M  V30 2223 C 210.853 -2.29194 -0.0166406 0
M  V30 2224 C 211.853 -1.42609 -0.742912 0
M  V30 2225 O 213.043 -1.64155 -0.583004 0
M  V30 2226 C 210.175 -3.24831 -1.0343 0
M  V30 2227 H 211.368 -2.90596 0.741208 0
M  V30 2228 H 208.921 -1.5048 0.422532 0
M  V30 2229 H 209.656 -2.68339 -1.82111 0
M  V30 2230 H 209.441 -3.88676 -0.517082 0
M  V30 2231 H 210.931 -3.89451 -1.50723 0
M  V30 2232 N 211.368 -0.403325 -1.52352 0
M  V30 2233 C 212.617 0.175668 -2.00934 0
M  V30 2234 C 212.93 1.46718 -1.29356 0
M  V30 2235 O 214.136 2.12708 -1.68724 0
M  V30 2236 C 212.592 0.363612 -3.58058 0
M  V30 2237 C 212.2 -0.915472 -4.38547 0
M  V30 2238 C 213.944 0.89821 -4.14888 0
M  V30 2239 C 211.851 -0.695035 -5.87302 0
M  V30 2240 H 210.781 0.0694234 -0.750797 0
M  V30 2241 H 213.432 -0.527879 -1.75743 0
M  V30 2242 H 211.814 1.12935 -3.79555 0
M  V30 2243 H 212.988 -1.68691 -4.28812 0
M  V30 2244 H 211.303 -1.37606 -3.93006 0
M  V30 2245 H 213.9 1.07907 -5.23699 0
M  V30 2246 H 214.243 1.87126 -3.71873 0
M  V30 2247 H 214.776 0.191681 -3.97338 0
M  V30 2248 H 211.515 -1.63948 -6.34666 0
M  V30 2249 H 211.035 0.0372116 -5.99788 0
M  V30 2250 H 212.714 -0.33497 -6.46132 0
M  V30 2251 N 212.846 1.57033 -0.133567 0
M  V30 2252 C 214.262 1.58035 0.222944 0
M  V30 2253 C 214.462 1.14713 1.6566 0
M  V30 2254 O 213.518 0.841218 2.38075 0
M  V30 2255 C 214.831 3.00691 -0.0236116 0
M  V30 2256 C 216.379 3.12973 0.0411512 0
M  V30 2257 C 216.854 4.57654 -0.177899 0
M  V30 2258 N 218.345 4.63033 -0.124365 0
M  V30 2259 C 219.08 5.72771 -0.268553 0
M  V30 2260 N 218.576 6.91206 -0.46972 0
M  V30 2261 N 220.369 5.61718 -0.2071 0
M  V30 2262 H 212.52 1.8349 -1.06981 0
M  V30 2263 H 214.783 0.848677 -0.422436 0
M  V30 2264 H 214.489 3.36726 -1.0153 0
M  V30 2265 H 214.363 3.70614 0.701808 0
M  V30 2266 H 216.75 2.76787 1.02338 0
M  V30 2267 H 216.831 2.45564 -0.716383 0
M  V30 2268 H 216.475 4.94542 -1.15717 0
M  V30 2269 H 216.405 5.23173 0.599797 0
M  V30 2270 H 218.896 3.7789 0.027011 0
M  V30 2271 H 219.209 7.70693 -0.570212 0
M  V30 2272 H 217.554 6.93156 -0.505876 0
M  V30 2273 H 220.745 4.68072 -0.0507986 0
M  V30 2274 H 220.918 6.47195 -0.322909 0
M  V30 2275 N 214.325 -0.140222 1.56975 0
M  V30 2276 C 215.272 -1.17292 1.98774 0
M  V30 2277 C 216.242 -1.4232 0.856408 0
M  V30 2278 O 217.427 -1.54541 1.119 0
M  V30 2279 C 214.567 -2.49973 2.37923 0
M  V30 2280 C 213.68 -2.32062 3.64378 0
M  V30 2281 C 212.815 -3.57825 3.926 0
M  V30 2282 C 211.854 -3.3498 5.12303 0
M  V30 2283 N 210.991 -4.52891 5.36502 0
M  V30 2284 H 215.831 -0.809472 2.86795 0
M  V30 2285 H 213.368 -0.388237 1.41884 0
M  V30 2286 H 215.326 -3.27346 2.58652 0
M  V30 2287 H 213.956 -2.84252 1.52972 0
M  V30 2288 H 213.008 -1.45711 3.51387 0
M  V30 2289 H 214.32 -2.11145 4.51906 0
M  V30 2290 H 213.474 -4.43624 4.13863 0
M  V30 2291 H 212.213 -3.81753 3.03506 0
M  V30 2292 H 211.218 -2.4757 4.90906 0
M  V30 2293 H 212.443 -3.12444 6.02956 0
M  V30 2294 H 210.389 -4.76979 4.50363 0
M  V30 2295 H 210.306 -4.35001 6.18312 0
M  V30 2296 H 211.574 -5.39884 5.62268 0
M  V30 2297 N 215.803 -1.52179 -0.40978 0
M  V30 2298 C 216.766 -1.74853 -1.48186 0
M  V30 2299 C 217.766 -0.618417 -1.48433 0
M  V30 2300 O 218.956 -0.886286 -1.49969 0
M  V30 2301 C 216.088 -1.8303 -2.87598 0
M  V30 2302 H 217.281 -2.70559 -1.29374 0
M  V30 2303 H 214.834 -1.42586 -0.640233 0
M  V30 2304 H 215.569 -0.89236 -3.11781 0
M  V30 2305 H 215.354 -2.65187 -2.88822 0
M  V30 2306 H 216.844 -2.02316 -3.65319 0
M  V30 2307 N 217.281 0.66697 -1.42791 0
M  V30 2308 C 218.528 1.42699 -1.43678 0
M  V30 2309 C 218.856 1.94419 -0.0560425 0
M  V30 2310 O 218.111 1.7182 0.936831 0
M  V30 2311 C 218.41 2.6349 -2.4147 0
M  V30 2312 C 218.076 2.30267 -3.8767 0
M  V30 2313 C 216.738 2.20918 -4.27491 0
M  V30 2314 C 219.09 2.03435 -4.79858 0
M  V30 2315 C 216.418 1.82873 -5.57471 0
M  V30 2316 C 218.77 1.66892 -6.10188 0
M  V30 2317 C 217.434 1.56058 -6.49001 0
M  V30 2318 H 216.704 0.522171 -0.525755 0
M  V30 2319 H 219.351 0.759785 -1.75783 0
M  V30 2320 H 217.656 3.35279 -2.0272 0
M  V30 2321 H 219.353 3.21684 -2.39417 0
M  V30 2322 H 215.943 2.38449 -3.56146 0
M  V30 2323 H 220.127 2.09586 -4.49875 0
M  V30 2324 H 215.383 1.7306 -5.86396 0
M  V30 2325 H 219.557 1.45157 -6.81104 0
M  V30 2326 H 217.184 1.26348 -7.49627 0
M  V30 2327 N 218.759 1.29093 0.90403 0
M  V30 2328 C 220.175 1.07011 1.1841 0
M  V30 2329 C 220.375 -0.181358 2.00682 0
M  V30 2330 O 219.431 -0.880331 2.36657 0
M  V30 2331 C 220.744 2.32311 1.90924 0
M  V30 2332 C 222.292 2.37587 2.03768 0
M  V30 2333 C 222.767 3.62679 2.79693 0
M  V30 2334 N 224.258 3.63376 2.87249 0
M  V30 2335 C 224.993 4.56848 3.46522 0
M  V30 2336 N 224.489 5.60648 4.06996 0
M  V30 2337 N 226.282 4.44426 3.44154 0
M  V30 2338 H 218.433 2.09412 0.354993 0
M  V30 2339 H 220.696 0.922181 0.219742 0
M  V30 2340 H 220.402 3.23536 1.37905 0
M  V30 2341 H 220.276 2.39483 2.91424 0
M  V30 2342 H 222.663 1.46853 2.55965 0
M  V30 2343 H 222.744 2.34403 1.02415 0
M  V30 2344 H 222.388 4.53762 2.28173 0
M  V30 2345 H 222.318 3.63119 3.81381 0
M  V30 2346 H 224.809 2.88321 2.44293 0
M  V30 2347 H 225.122 6.28101 4.50232 0
M  V30 2348 H 223.467 5.64463 4.05471 0
M  V30 2349 H 226.658 3.62529 2.96126 0
M  V30 2350 H 226.831 5.17457 3.90054 0
M  V30 2351 N 220.237 -1.11381 1.11499 0
M  V30 2352 C 221.483 -1.83403 0.865512 0
M  V30 2353 C 221.816 -1.84459 -0.607329 0
M  V30 2354 O 221.091 -1.29811 -1.44842 0
M  V30 2355 C 221.374 -3.30552 1.42855 0
M  V30 2356 C 221.227 -3.37886 2.96906 0
M  V30 2357 C 222.546 -4.26643 1.08 0
M  V30 2358 H 219.665 -0.665879 0.31587 0
M  V30 2359 H 222.307 -1.30601 1.37998 0
M  V30 2360 H 220.457 -3.75648 0.990985 0
M  V30 2361 H 222.129 -3.01343 3.49271 0
M  V30 2362 H 220.372 -2.78088 3.32941 0
M  V30 2363 H 221.043 -4.41458 3.31389 0
M  V30 2364 H 223.519 -3.89729 1.45775 0
M  V30 2365 H 222.395 -5.27986 1.50072 0
M  V30 2366 H 222.656 -4.42099 -0.00915037 0
M  V30 2367 N 221.715 -0.905404 -1.28997 0
M  V30 2368 C 222.961 -0.544465 -1.95977 0
M  V30 2369 C 223.316 0.90041 -1.70031 0
M  V30 2370 O 222.609 1.63064 -1.00601 0
M  V30 2371 C 222.803 -0.779906 -3.48787 0
M  V30 2372 C 222.632 -2.24612 -3.89589 0
M  V30 2373 C 221.402 -2.89464 -4.14172 0
M  V30 2374 C 223.6 -3.22182 -4.00878 0
M  V30 2375 N 221.582 -4.26469 -4.41585 0
M  V30 2376 C 222.953 -4.44323 -4.32409 0
M  V30 2377 C 225.008 -3.17694 -3.83373 0
M  V30 2378 C 223.711 -5.62546 -4.48258 0
M  V30 2379 C 225.737 -4.35208 -4.00435 0
M  V30 2380 C 225.099 -5.56121 -4.3233 0
M  V30 2381 H 221.198 -0.248948 -0.741316 0
M  V30 2382 H 223.782 -1.1674 -1.5582 0
M  V30 2383 H 221.953 -0.186308 -3.87953 0
M  V30 2384 H 223.685 -0.383833 -4.02876 0
M  V30 2385 H 220.44 -2.40232 -4.08149 0
M  V30 2386 H 220.864 -4.97283 -4.5939 0
M  V30 2387 H 225.506 -2.25297 -3.57773 0
M  V30 2388 H 223.224 -6.55429 -4.72692 0
M  V30 2389 H 226.81 -4.33228 -3.88336 0
M  V30 2390 H 225.69 -6.45537 -4.45255 0
M  V30 2391 N 223.193 1.4272 -0.668489 0
M  V30 2392 C 224.103 2.34596 0.0139753 0
M  V30 2393 C 225.119 1.5474 0.795703 0
M  V30 2394 O 226.295 1.87334 0.739466 0
M  V30 2395 C 223.36 3.33202 0.957982 0
M  V30 2396 C 222.421 4.28957 0.17149 0
M  V30 2397 C 221.654 5.22853 1.07053 0
M  V30 2398 O 221.877 5.21531 2.31001 0
M  V30 2399 O 220.811 5.9952 0.534727 0
M  V30 2400 H 224.637 2.9448 -0.742661 0
M  V30 2401 H 222.222 1.43117 -0.428705 0
M  V30 2402 H 224.104 3.93796 1.50008 0
M  V30 2403 H 222.779 2.758 1.69458 0
M  V30 2404 H 221.686 3.71796 -0.414558 0
M  V30 2405 H 223.019 4.89383 -0.52586 0
M  V30 2406 N 224.671 0.411399 1.52136 0
M  V30 2407 C 225.896 -0.165538 2.06738 0
M  V30 2408 C 226.321 -1.379 1.27926 0
M  V30 2409 O 225.679 -1.78628 0.310114 0
M  V30 2410 C 225.727 -0.492124 3.57226 0
M  V30 2411 O 224.831 -1.58276 3.80818 0
M  V30 2412 H 224.172 -0.0132132 0.663869 0
M  V30 2413 H 226.702 0.585253 1.96051 0
M  V30 2414 H 226.712 -0.750104 4.01045 0
M  V30 2415 H 225.387 0.394922 4.14021 0
M  V30 2416 H 223.964 -1.31677 3.48877 0
M  V30 2417 N 226.149 -1.5696 0.141893 0
M  V30 2418 C 227.112 -2.15316 -0.785587 0
M  V30 2419 C 228.112 -1.09366 -1.1788 0
M  V30 2420 O 229.302 -1.35031 -1.10056 0
M  V30 2421 C 226.434 -2.71211 -2.06537 0
M  V30 2422 H 227.627 -2.98608 -0.278041 0
M  V30 2423 H 225.18 -1.5593 -0.107519 0
M  V30 2424 H 225.915 -1.91571 -2.6167 0
M  V30 2425 H 225.7 -3.4872 -1.79268 0
M  V30 2426 H 227.19 -3.16189 -2.72789 0
M  V30 2427 N 227.627 0.131896 -1.57047 0
M  V30 2428 C 228.855 0.856461 -1.88341 0
M  V30 2429 C 229.27 1.74042 -0.731757 0
M  V30 2430 O 228.627 1.80051 0.297945 0
M  V30 2431 C 228.678 1.70064 -3.18999 0
M  V30 2432 O 228.399 0.852278 -4.2973 0
M  V30 2433 C 229.9 2.53148 -3.63911 0
M  V30 2434 H 227.12 0.246885 -0.62393 0
M  V30 2435 H 229.664 0.120152 -2.04147 0
M  V30 2436 H 227.819 2.38984 -3.04902 0
M  V30 2437 H 228.233 1.43329 -5.04537 0
M  V30 2438 H 229.707 3.07931 -4.58129 0
M  V30 2439 H 230.184 3.29901 -2.89935 0
M  V30 2440 H 230.79 1.89492 -3.80753 0
M  V30 2441 N 229.106 1.52395 0.401703 0
M  V30 2442 C 230.517 1.58899 0.980202 0
M  V30 2443 C 230.868 0.434032 1.91339 0
M  V30 2444 O 229.993 -0.444619 2.11783 0
M  V30 2445 C 230.588 2.87994 1.78451 0
M  V30 2446 C 229.147 2.96953 2.31292 0
M  V30 2447 C 228.294 2.53903 1.11483 0
M  V30 2448 H 231.245 1.57657 0.18168 0
M  V30 2449 H 231.266 2.73765 2.64259 0
M  V30 2450 H 230.778 3.72035 1.10506 0
M  V30 2451 H 228.879 2.17422 3.02586 0
M  V30 2452 H 228.992 4.01344 2.61649 0
M  V30 2453 H 227.356 2.07925 1.47104 0
M  V30 2454 H 228.139 3.40326 0.450928 0
M  V30 2455 N 230.584 -0.659388 1.43143 0
M  V30 2456 C 231.514 -1.78422 1.50625 0
M  V30 2457 C 232.495 -1.66216 0.361443 0
M  V30 2458 O 233.68 -1.85404 0.577834 0
M  V30 2459 C 230.81 -3.16815 1.42287 0
M  V30 2460 C 229.764 -3.43777 2.54954 0
M  V30 2461 C 229.09 -4.81905 2.31671 0
M  V30 2462 C 230.39 -3.39134 3.97222 0
M  V30 2463 H 232.084 -1.72417 2.44771 0
M  V30 2464 H 229.63 -0.828084 1.17808 0
M  V30 2465 H 231.583 -3.95253 1.46127 0
M  V30 2466 H 230.307 -3.23534 0.446435 0
M  V30 2467 H 228.966 -2.67707 2.50457 0
M  V30 2468 H 228.614 -4.85294 1.32284 0
M  V30 2469 H 228.314 -5.00906 3.07192 0
M  V30 2470 H 229.838 -5.62609 2.37284 0
M  V30 2471 H 231.252 -4.07518 4.03239 0
M  V30 2472 H 229.649 -3.69671 4.72719 0
M  V30 2473 H 230.719 -2.37426 4.22797 0
M  V30 2474 N 232.062 -1.29571 -0.897171 0
M  V30 2475 C 233.478 -1.07637 -1.17841 0
M  V30 2476 C 233.678 0.170713 -2.00776 0
M  V30 2477 O 232.734 0.867768 -2.3712 0
M  V30 2478 C 234.047 -2.3332 -1.8969 0
M  V30 2479 C 235.595 -2.38664 -2.02505 0
M  V30 2480 C 236.07 -3.64157 -2.77765 0
M  V30 2481 N 237.561 -3.64894 -2.85318 0
M  V30 2482 C 238.296 -4.58679 -3.44094 0
M  V30 2483 N 237.792 -5.62799 -4.04017 0
M  V30 2484 N 239.585 -4.46245 -3.41793 0
M  V30 2485 H 231.736 -2.09598 -0.343883 0
M  V30 2486 H 233.999 -0.923333 -0.214848 0
M  V30 2487 H 233.705 -3.24262 -1.36187 0
M  V30 2488 H 233.579 -2.41025 -2.9015 0
M  V30 2489 H 235.966 -1.48208 -2.55183 0
M  V30 2490 H 236.047 -2.34943 -1.01171 0
M  V30 2491 H 235.691 -4.54965 -2.25763 0
M  V30 2492 H 235.621 -3.65137 -3.7945 0
M  V30 2493 H 238.112 -2.89613 -2.42761 0
M  V30 2494 H 238.425 -6.3048 -4.46895 0
M  V30 2495 H 236.77 -5.66605 -4.02472 0
M  V30 2496 H 239.961 -3.64094 -2.94199 0
M  V30 2497 H 240.134 -5.19518 -3.87304 0
M  V30 2498 N 233.54 1.10788 -1.12088 0
M  V30 2499 C 234.787 1.82671 -0.873931 0
M  V30 2500 C 235.115 1.85004 0.600311 0
M  V30 2501 O 234.37 1.30365 1.45957 0
M  V30 2502 C 234.669 3.29294 -1.38926 0
M  V30 2503 C 234.335 3.47113 -2.87791 0
M  V30 2504 C 232.997 3.51684 -3.28439 0
M  V30 2505 C 235.349 3.52808 -3.83635 0
M  V30 2506 C 232.677 3.59513 -4.63646 0
M  V30 2507 C 235.029 3.62169 -5.18668 0
M  V30 2508 C 233.693 3.65003 -5.58864 0
M  V30 2509 H 232.963 0.668441 -0.319794 0
M  V30 2510 H 235.61 1.30613 -1.40045 0
M  V30 2511 H 233.915 3.83894 -0.783122 0
M  V30 2512 H 235.612 3.83416 -1.17443 0
M  V30 2513 H 232.202 3.4423 -2.5535 0
M  V30 2514 H 236.386 3.4853 -3.53328 0
M  V30 2515 H 231.642 3.59987 -4.94185 0
M  V30 2516 H 235.816 3.6552 -5.92763 0
M  V30 2517 H 233.443 3.70822 -6.63623 0
M  V30 2518 N 235.018 0.912232 1.28515 0
M  V30 2519 C 236.434 0.610159 1.47476 0
M  V30 2520 C 236.634 -0.844955 1.82928 0
M  V30 2521 O 235.69 -1.62416 1.93332 0
M  V30 2522 C 237.003 1.54675 2.57868 0
M  V30 2523 C 238.551 1.55331 2.71738 0
M  V30 2524 C 239.026 2.47649 3.85272 0
M  V30 2525 N 240.517 2.45767 3.92623 0
M  V30 2526 C 241.252 3.13896 4.79851 0
M  V30 2527 N 240.748 3.9135 5.71679 0
M  V30 2528 N 242.541 3.02991 4.73448 0
M  V30 2529 H 234.692 1.85318 1.03783 0
M  V30 2530 H 236.955 0.794777 0.516753 0
M  V30 2531 H 236.661 2.5841 2.38574 0
M  V30 2532 H 236.535 1.27671 3.54937 0
M  V30 2533 H 238.922 0.52335 2.90422 0
M  V30 2534 H 239.003 1.86378 1.75205 0
M  V30 2535 H 238.647 3.50745 3.67342 0
M  V30 2536 H 238.577 2.13904 4.81199 0
M  V30 2537 H 241.068 1.89503 3.26951 0
M  V30 2538 H 241.381 4.40359 6.35062 0
M  V30 2539 H 239.726 3.95455 5.71524 0
M  V30 2540 H 242.917 2.41987 4.007 0
M  V30 2541 H 243.09 3.5636 5.41213 0
M  V30 2542 N 236.496 -1.42363 0.676048 0
M  V30 2543 C 237.406 -2.346 -0.00153389 0
M  V30 2544 C 238.422 -1.5516 -0.787485 0
M  V30 2545 O 239.598 -1.87723 -0.729521 0
M  V30 2546 C 236.663 -3.33705 -0.940298 0
M  V30 2547 C 235.724 -4.29042 -0.148739 0
M  V30 2548 C 234.957 -5.23413 -1.04279 0
M  V30 2549 O 235.18 -5.22749 -2.28232 0
M  V30 2550 O 234.114 -5.99795 -0.502925 0
M  V30 2551 H 237.94 -2.94082 0.758268 0
M  V30 2552 H 235.525 -1.42888 0.436289 0
M  V30 2553 H 237.407 -3.94586 -1.47917 0
M  V30 2554 H 236.082 -2.76695 -1.67993 0
M  V30 2555 H 234.989 -3.71571 0.43427 0
M  V30 2556 H 236.322 -4.89097 0.551805 0
M  V30 2557 N 237.974 -0.419461 -1.51915 0
M  V30 2558 C 239.22 0.153166 -2.02221 0
M  V30 2559 C 239.553 1.43907 -1.30401 0
M  V30 2560 O 238.828 1.90055 -0.413438 0
M  V30 2561 C 239.111 0.390291 -3.57979 0
M  V30 2562 C 238.964 -0.913014 -4.40436 0
M  V30 2563 C 240.283 1.16794 -4.2432 0
M  V30 2564 H 237.402 0.0541924 -0.735005 0
M  V30 2565 H 240.044 -0.554955 -1.81715 0
M  V30 2566 H 238.194 0.993491 -3.75582 0
M  V30 2567 H 239.866 -1.54882 -4.34522 0
M  V30 2568 H 238.109 -1.52168 -4.06236 0
M  V30 2569 H 238.78 -0.701361 -5.47526 0
M  V30 2570 H 241.256 0.657161 -4.10878 0
M  V30 2571 H 240.132 1.3026 -5.3322 0
M  V30 2572 H 240.393 2.19132 -3.83971 0
M  V30 2573 N 239.452 1.56882 -0.150215 0
M  V30 2574 C 240.863 1.82995 0.370076 0
M  V30 2575 C 241.214 1.06907 1.64515 0
M  V30 2576 O 240.339 0.315369 2.1409 0
M  V30 2577 C 240.934 3.31942 0.678208 0
M  V30 2578 C 239.493 3.58625 1.14301 0
M  V30 2579 C 238.64 2.76792 0.167778 0
M  V30 2580 H 241.591 1.54209 -0.374858 0
M  V30 2581 H 241.612 3.48272 1.53254 0
M  V30 2582 H 241.124 3.87294 -0.249991 0
M  V30 2583 H 239.225 3.08664 2.08704 0
M  V30 2584 H 239.338 4.67073 1.06676 0
M  V30 2585 H 237.702 2.45972 0.661037 0
M  V30 2586 H 238.485 3.34916 -0.754069 0
M  V30 2587 N 240.93 -0.123565 1.57115 0
M  V30 2588 C 242.16 -0.845233 1.88519 0
M  V30 2589 C 242.568 -1.74168 0.739064 0
M  V30 2590 O 241.911 -1.81244 -0.299355 0
M  V30 2591 C 241.973 -1.73452 3.14888 0
M  V30 2592 C 241.637 -1.01285 4.45635 0
M  V30 2593 C 242.634 -0.355774 5.18681 0
M  V30 2594 C 240.319 -0.99538 4.92339 0
M  V30 2595 C 242.313 0.309114 6.3665 0
M  V30 2596 C 240 -0.32669 6.10226 0
M  V30 2597 C 240.998 0.324406 6.82229 0
M  V30 2598 O 240.686 0.982437 7.97874 0
M  V30 2599 H 240.418 -0.248534 0.628655 0
M  V30 2600 H 242.972 -0.113907 2.05084 0
M  V30 2601 H 241.202 -2.50737 2.94394 0
M  V30 2602 H 242.891 -2.33021 3.32349 0
M  V30 2603 H 243.657 -0.360918 4.83655 0
M  V30 2604 H 239.536 -1.49159 4.36202 0
M  V30 2605 H 243.08 0.8179 6.92789 0
M  V30 2606 H 238.977 -0.319294 6.4471 0
M  V30 2607 H 239.745 0.886454 8.13686 0
M  V30 2608 N 242.408 -1.52605 -0.393616 0
M  V30 2609 C 243.371 -1.76415 -1.46323 0
M  V30 2610 C 244.371 -0.634126 -1.47768 0
M  V30 2611 O 245.561 -0.902142 -1.4902 0
M  V30 2612 C 242.693 -1.8607 -2.85641 0
M  V30 2613 H 243.886 -2.71916 -1.26498 0
M  V30 2614 H 241.439 -1.43257 -0.625073 0
M  V30 2615 H 242.174 -0.925378 -3.10817 0
M  V30 2616 H 241.959 -2.68235 -2.85993 0
M  V30 2617 H 243.449 -2.06179 -3.63153 0
M  V30 2618 N 243.887 0.651787 -1.4349 0
M  V30 2619 C 245.117 1.43728 -1.48411 0
M  V30 2620 C 245.525 1.8893 -0.10103 0
M  V30 2621 O 244.868 1.60182 0.899307 0
M  V30 2622 C 244.93 2.70411 -2.36893 0
M  V30 2623 C 244.594 2.4714 -3.8441 0
M  V30 2624 C 245.591 2.10271 -4.75481 0
M  V30 2625 C 243.276 2.6142 -4.28912 0
M  V30 2626 C 245.27 1.87982 -6.0905 0
M  V30 2627 C 242.957 2.38746 -5.62533 0
M  V30 2628 C 243.955 2.02083 -6.5242 0
M  V30 2629 O 243.643 1.79647 -7.8357 0
M  V30 2630 H 243.375 0.447962 -0.506267 0
M  V30 2631 H 245.929 0.80624 -1.88915 0
M  V30 2632 H 244.159 3.36079 -1.91278 0
M  V30 2633 H 245.848 3.32364 -2.33 0
M  V30 2634 H 246.614 1.98814 -4.42378 0
M  V30 2635 H 242.493 2.88931 -3.59222 0
M  V30 2636 H 246.037 1.5929 -6.7917 0
M  V30 2637 H 241.934 2.49806 -5.95203 0
M  V30 2638 H 242.702 1.9406 -7.95162 0
M  V30 2639 N 245.365 1.30045 0.890287 0
M  V30 2640 C 246.614 1.17929 1.63633 0
M  V30 2641 C 246.927 -0.266204 1.9378 0
M  V30 2642 O 248.133 -0.508804 2.6669 0
M  V30 2643 C 246.589 2.06317 2.94892 0
M  V30 2644 C 246.197 3.55745 2.72305 0
M  V30 2645 C 247.941 2.0295 3.72843 0
M  V30 2646 C 245.848 4.36205 3.99348 0
M  V30 2647 H 244.778 0.437782 0.613892 0
M  V30 2648 H 247.429 1.54754 0.986075 0
M  V30 2649 H 245.811 1.6237 3.61182 0
M  V30 2650 H 246.985 4.07805 2.1455 0
M  V30 2651 H 245.3 3.6088 2.07737 0
M  V30 2652 H 247.897 2.60319 4.67053 0
M  V30 2653 H 248.24 1.0117 4.0382 0
M  V30 2654 H 248.773 2.4499 3.13408 0
M  V30 2655 H 245.512 5.38659 3.73533 0
M  V30 2656 H 245.032 3.8891 4.56628 0
M  V30 2657 H 246.711 4.47362 4.67415 0
M  V30 2658 N 246.843 -1.10192 1.12674 0
M  V30 2659 C 248.259 -1.34235 0.863317 0
M  V30 2660 C 248.459 -1.95062 -0.505277 0
M  V30 2661 O 247.515 -2.19192 -1.25345 0
M  V30 2662 C 248.828 -2.2616 1.98172 0
M  V30 2663 C 250.376 -2.3969 2.0129 0
M  V30 2664 C 250.851 -3.34946 3.1237 0
M  V30 2665 N 252.342 -3.42515 3.11829 0
M  V30 2666 C 253.077 -4.16199 3.94419 0
M  V30 2667 N 252.573 -4.92747 4.87004 0
M  V30 2668 N 254.366 -4.11843 3.82547 0
M  V30 2669 H 246.517 -0.690798 2.00853 0
M  V30 2670 H 248.78 -0.366774 0.874174 0
M  V30 2671 H 248.486 -1.8868 2.96804 0
M  V30 2672 H 248.36 -3.26488 1.88906 0
M  V30 2673 H 250.747 -2.76438 1.03276 0
M  V30 2674 H 250.828 -1.39169 2.14629 0
M  V30 2675 H 250.472 -2.98923 4.10619 0
M  V30 2676 H 250.402 -4.35353 2.96269 0
M  V30 2677 H 252.893 -2.87926 2.44759 0
M  V30 2678 H 253.206 -5.46376 5.46528 0
M  V30 2679 H 251.551 -4.91862 4.91016 0
M  V30 2680 H 254.742 -3.51136 3.0955 0
M  V30 2681 H 254.915 -4.69007 4.47142 0
M  V30 2682 N 248.321 -0.919034 -1.28029 0
M  V30 2683 C 249.231 -0.416756 -2.30869 0
M  V30 2684 C 250.247 0.498235 -1.66714 0
M  V30 2685 O 251.423 0.383144 -1.97722 0
M  V30 2686 C 248.488 0.330274 -3.45123 0
M  V30 2687 C 247.549 -0.618578 -4.2482 0
M  V30 2688 C 246.782 0.0928959 -5.33619 0
M  V30 2689 O 247.005 1.31375 -5.55065 0
M  V30 2690 O 245.939 -0.574499 -5.99152 0
M  V30 2691 H 249.765 -1.27043 -2.75851 0
M  V30 2692 H 247.35 -0.684052 -1.3282 0
M  V30 2693 H 249.232 0.751972 -4.14636 0
M  V30 2694 H 247.907 1.1597 -3.02213 0
M  V30 2695 H 246.814 -1.08978 -3.57875 0
M  V30 2696 H 248.147 -1.41497 -4.71423 0
M  V30 2697 N 249.799 1.42003 -0.683588 0
M  V30 2698 C 251.047 2.01015 -0.209101 0
M  V30 2699 C 251.368 1.54365 1.19149 0
M  V30 2700 O 250.638 0.769083 1.80172 0
M  V30 2701 H 249.218 0.743294 -0.074315 0
M  V30 2702 H 251.88 1.73798 -0.882066 0
M  V30 2703 H 250.976 3.11343 -0.2172 0
M  V30 2704 N 251.277 0.427512 1.51691 0
M  V30 2705 C 252.227 -0.406604 2.24345 0
M  V30 2706 C 253.211 -0.998276 1.26187 0
M  V30 2707 O 254.403 -0.918045 1.51331 0
M  V30 2708 C 251.532 -1.51266 3.08177 0
M  V30 2709 C 250.618 -0.930868 4.13758 0
M  V30 2710 N 251.009 -0.0773552 5.05741 0
M  V30 2711 C 249.307 -1.19948 4.29568 0
M  V30 2712 C 250.008 0.248344 5.8117 0
M  V30 2713 N 248.984 -0.365535 5.4237 0
M  V30 2714 H 252.786 0.251581 2.92821 0
M  V30 2715 H 250.3 0.239003 1.60632 0
M  V30 2716 H 252.297 -2.123 3.58796 0
M  V30 2717 H 250.957 -2.17328 2.41244 0
M  V30 2718 H 251.968 0.288351 5.17097 0
M  V30 2719 H 248.645 -1.85832 3.73862 0
M  V30 2720 H 250.035 0.942286 6.6526 0
M  V30 2721 N 252.755 -1.56801 0.158532 0
M  V30 2722 C 253.665 -2.20916 -0.789518 0
M  V30 2723 C 254.681 -1.1969 -1.26294 0
M  V30 2724 O 255.857 -1.52308 -1.31773 0
M  V30 2725 C 252.922 -2.82727 -2.00665 0
M  V30 2726 C 251.983 -3.99114 -1.58134 0
M  V30 2727 C 251.216 -4.57968 -2.74045 0
M  V30 2728 O 251.439 -4.15704 -3.90572 0
M  V30 2729 O 250.373 -5.48047 -2.48855 0
M  V30 2730 H 254.199 -3.02464 -0.273681 0
M  V30 2731 H 251.784 -1.4924 -0.0690548 0
M  V30 2732 H 253.666 -3.21968 -2.71872 0
M  V30 2733 H 252.341 -2.04184 -2.51179 0
M  V30 2734 H 251.248 -3.64567 -0.839155 0
M  V30 2735 H 252.581 -4.79212 -1.12325 0
M  V30 2736 N 254.233 0.115231 -1.57178 0
M  V30 2737 C 255.18 1.14115 -2.00615 0
M  V30 2738 C 256.15 1.40939 -0.878941 0
M  V30 2739 O 257.335 1.52741 -1.14345 0
M  V30 2740 C 254.475 2.46156 -2.4187 0
M  V30 2741 C 253.588 2.26236 -3.68024 0
M  V30 2742 C 252.723 3.51534 -3.98243 0
M  V30 2743 C 251.762 3.26787 -5.17568 0
M  V30 2744 N 250.899 4.44298 -5.43639 0
M  V30 2745 H 255.739 0.763743 -2.88047 0
M  V30 2746 H 253.276 0.365615 -1.42484 0
M  V30 2747 H 255.234 3.23189 -2.63827 0
M  V30 2748 H 253.864 2.81783 -1.57475 0
M  V30 2749 H 252.916 1.40102 -3.5366 0
M  V30 2750 H 254.228 2.03929 -4.55208 0
M  V30 2751 H 253.382 4.36984 -4.20868 0
M  V30 2752 H 252.121 3.76876 -3.09541 0
M  V30 2753 H 251.126 2.39729 -4.94783 0
M  V30 2754 H 252.351 3.02812 -6.0785 0
M  V30 2755 H 250.297 4.69754 -4.57895 0
M  V30 2756 H 250.214 4.25109 -6.25154 0
M  V30 2757 H 251.482 5.3087 -5.70786 0
M  V30 2758 N 255.711 1.52812 0.385517 0
M  V30 2759 C 256.643 1.74096 1.49074 0
M  V30 2760 C 257.656 0.621462 1.50472 0
M  V30 2761 O 258.845 0.897245 1.54311 0
M  V30 2762 C 255.945 1.78774 2.87911 0
M  V30 2763 C 255.118 3.08134 3.10439 0
M  V30 2764 C 254.177 3.04313 4.29278 0
M  V30 2765 O 253.203 3.78168 4.25415 0
M  V30 2766 N 254.405 2.23741 5.35649 0
M  V30 2767 H 257.17 2.69455 1.31202 0
M  V30 2768 H 254.731 1.51343 0.575065 0
M  V30 2769 H 256.723 1.73721 3.65518 0
M  V30 2770 H 255.293 0.907869 2.99126 0
M  V30 2771 H 254.513 3.26649 2.20667 0
M  V30 2772 H 255.801 3.93662 3.22347 0
M  V30 2773 H 255.199 1.63211 5.41645 0
M  V30 2774 H 253.756 2.24524 6.11909 0
M  V30 2775 N 257.189 -0.644168 1.43834 0
M  V30 2776 C 258.152 -1.73857 1.49353 0
M  V30 2777 C 259.152 -1.56315 0.377112 0
M  V30 2778 O 260.342 -1.62048 0.639226 0
M  V30 2779 C 257.474 -3.12819 1.35488 0
M  V30 2780 H 258.667 -1.70342 2.46827 0
M  V30 2781 H 256.22 -0.856652 1.30733 0
M  V30 2782 H 256.955 -3.2194 0.390569 0
M  V30 2783 H 256.74 -3.26958 2.16428 0
M  V30 2784 H 258.23 -3.92606 1.42302 0
M  V30 2785 N 258.668 -1.30515 -0.883378 0
M  V30 2786 C 259.945 -1.10086 -1.6168 0
M  V30 2787 C 260.325 0.349269 -2.08191 0
M  V30 2788 O 259.673 1.34105 -1.85008 0
M  V30 2789 C 259.883 -2.10315 -2.78511 0
M  V30 2790 C 261.231 -2.42119 -3.48803 0
M  V30 2791 O 262.255 -2.08638 -2.88702 0
M  V30 2792 O 261.114 -2.99396 -4.57192 0
M  V30 2793 H 258.208 -0.422907 -0.710689 0
M  V30 2794 H 260.754 -1.41947 -0.930015 0
M  V30 2795 H 259.526 -3.07917 -2.41459 0
M  V30 2796 H 259.149 -1.79282 -3.54886 0
M  V30 2797 N 260.146 1.09593 -1.13257 0
M  V30 2798 C 261.395 1.81105 -0.887917 0
M  V30 2799 C 261.708 1.86563 0.587672 0
M  V30 2800 O 262.914 2.54367 0.949204 0
M  V30 2801 C 261.37 3.25338 -1.53895 0
M  V30 2802 C 260.978 3.28151 -3.04994 0
M  V30 2803 C 262.722 4.01617 -1.37492 0
M  V30 2804 C 260.629 4.66897 -3.6299 0
M  V30 2805 H 259.559 0.678661 -0.328534 0
M  V30 2806 H 262.21 1.23183 -1.36008 0
M  V30 2807 H 260.592 3.8331 -0.994446 0
M  V30 2808 H 261.766 2.79953 -3.66009 0
M  V30 2809 H 260.081 2.65361 -3.20893 0
M  V30 2810 H 262.678 5.04119 -1.78235 0
M  V30 2811 H 263.021 4.15072 -0.31957 0
M  V30 2812 H 263.554 3.50082 -1.88912 0
M  V30 2813 H 260.293 4.58643 -4.68323 0
M  V30 2814 H 259.813 5.15426 -3.06752 0
M  V30 2815 H 261.492 5.3587 -3.62563 0
M  V30 2816 N 261.624 0.925811 1.2754 0
M  V30 2817 C 262.557 0.367836 2.25216 0
M  V30 2818 C 263.535 -0.534738 1.53556 0
M  V30 2819 O 264.719 -0.475672 1.824 0
M  V30 2820 C 261.846 -0.47298 3.35381 0
M  V30 2821 C 260.892 0.365898 4.24928 0
M  V30 2822 S 261.725 1.78025 5.05042 0
M  V30 2823 C 262.881 0.947068 6.18693 0
M  V30 2824 H 263.114 1.19568 2.72196 0
M  V30 2825 H 260.647 0.727867 1.36167 0
M  V30 2826 H 262.605 -0.952242 3.99303 0
M  V30 2827 H 261.266 -1.27533 2.87044 0
M  V30 2828 H 260.459 -0.277582 5.03235 0
M  V30 2829 H 260.061 0.779261 3.65792 0
M  V30 2830 H 262.353 0.182201 6.77255 0
M  V30 2831 H 263.296 1.70309 6.87314 0
M  V30 2832 H 263.704 0.489913 5.6237 0
M  V30 2833 N 263.102 -1.41638 0.69111 0
M  V30 2834 C 264.351 -2.00526 0.217318 0
M  V30 2835 C 264.664 -1.55353 -1.18848 0
M  V30 2836 O 265.87 -2.06769 -1.75951 0
M  V30 2837 C 264.326 -3.58313 0.337639 0
M  V30 2838 C 263.934 -4.12469 1.74852 0
M  V30 2839 C 265.678 -4.24431 -0.0766066 0
M  V30 2840 C 263.585 -5.62675 1.82074 0
M  V30 2841 H 262.515 -0.750008 0.0774893 0
M  V30 2842 H 265.166 -1.6217 0.858661 0
M  V30 2843 H 263.548 -3.9425 -0.371879 0
M  V30 2844 H 264.722 -3.8796 2.48644 0
M  V30 2845 H 263.037 -3.58861 2.11205 0
M  V30 2846 H 265.634 -5.34683 -0.0430284 0
M  V30 2847 H 265.977 -4.01101 -1.1146 0
M  V30 2848 H 266.51 -3.93512 0.582476 0
M  V30 2849 H 263.249 -5.90826 2.83911 0
M  V30 2850 H 262.769 -5.89124 1.12661 0
M  V30 2851 H 264.448 -6.27371 1.58159 0
M  V30 2852 N 264.58 -0.43555 -1.51462 0
M  V30 2853 C 265.827 0.131514 -2.02072 0
M  V30 2854 C 266.155 1.42868 -1.31981 0
M  V30 2855 O 265.41 1.91076 -0.422883 0
M  V30 2856 C 265.709 0.39942 -3.55161 0
M  V30 2857 C 265.375 -0.81172 -4.43533 0
M  V30 2858 C 264.037 -1.14387 -4.67407 0
M  V30 2859 C 266.389 -1.61976 -4.95392 0
M  V30 2860 C 263.717 -2.28477 -5.40384 0
M  V30 2861 C 266.069 -2.75164 -5.6962 0
M  V30 2862 C 264.733 -3.08835 -5.91758 0
M  V30 2863 H 264.003 0.0481244 -0.739436 0
M  V30 2864 H 266.65 -0.58238 -1.8243 0
M  V30 2865 H 264.955 1.19519 -3.73125 0
M  V30 2866 H 266.652 0.85157 -3.91854 0
M  V30 2867 H 263.242 -0.542898 -4.25148 0
M  V30 2868 H 267.426 -1.37637 -4.76833 0
M  V30 2869 H 262.682 -2.5488 -5.55739 0
M  V30 2870 H 266.856 -3.38147 -6.08793 0
M  V30 2871 H 264.483 -3.97353 -6.48086 0
M  V30 2872 N 266.058 1.56714 -0.166846 0
M  V30 2873 C 267.305 1.96747 0.479252 0
M  V30 2874 C 267.633 1.05263 1.63554 0
M  V30 2875 O 266.888 0.0858098 1.95512 0
M  V30 2876 C 267.187 3.42889 1.00806 0
M  V30 2877 C 266.853 4.50889 -0.0318574 0
M  V30 2878 C 265.515 4.8015 -0.317675 0
M  V30 2879 C 267.867 5.15949 -0.737956 0
M  V30 2880 C 265.195 5.71772 -1.31506 0
M  V30 2881 C 267.547 6.08647 -1.72429 0
M  V30 2882 C 266.211 6.36277 -2.0176 0
M  V30 2883 H 265.481 0.719949 0.175371 0
M  V30 2884 H 268.128 1.89756 -0.257864 0
M  V30 2885 H 266.433 3.4681 1.82291 0
M  V30 2886 H 268.13 3.71203 1.51689 0
M  V30 2887 H 264.72 4.28128 0.201088 0
M  V30 2888 H 268.904 4.93458 -0.530351 0
M  V30 2889 H 264.16 5.91465 -1.54853 0
M  V30 2890 H 268.334 6.58129 -2.27682 0
M  V30 2891 H 265.961 7.07075 -2.79194 0
M  V30 2892 N 267.536 -0.106894 1.57237 0
M  V30 2893 C 268.499 -1.11466 2.0027 0
M  V30 2894 C 269.499 -1.33623 0.894519 0
M  V30 2895 O 270.689 -1.29935 1.16028 0
M  V30 2896 C 267.821 -2.46646 2.35327 0
M  V30 2897 H 269.014 -0.744516 2.90512 0
M  V30 2898 H 266.567 -0.351576 1.52295 0
M  V30 2899 H 267.302 -2.88558 1.48003 0
M  V30 2900 H 267.087 -2.31915 3.16161 0
M  V30 2901 H 268.577 -3.19151 2.69318 0
M  V30 2902 N 269.014 -1.53014 -0.377408 0
M  V30 2903 C 269.924 -1.81557 -1.48574 0
M  V30 2904 C 270.94 -0.703102 -1.59162 0
M  V30 2905 O 272.116 -0.99192 -1.75279 0
M  V30 2906 C 269.181 -1.9889 -2.83978 0
M  V30 2907 C 268.242 -3.22801 -2.83016 0
M  V30 2908 C 267.475 -3.39298 -4.11962 0
M  V30 2909 O 267.698 -2.60345 -5.0752 0
M  V30 2910 O 266.632 -4.32604 -4.18494 0
M  V30 2911 H 270.458 -2.75695 -1.27382 0
M  V30 2912 H 268.043 -1.38248 -0.566373 0
M  V30 2913 H 269.925 -2.11931 -3.6423 0
M  V30 2914 H 268.6 -1.07942 -3.05172 0
M  V30 2915 H 267.507 -3.15193 -2.01505 0
M  V30 2916 H 268.84 -4.13632 -2.66775 0
M  V30 2917 N 270.492 0.636531 -1.44174 0
M  V30 2918 C 271.74 1.39343 -1.46383 0
M  V30 2919 C 272.061 1.94766 -0.0955715 0
M  V30 2920 O 271.331 1.75452 0.871395 0
M  V30 2921 H 269.911 0.517199 -0.538994 0
M  V30 2922 H 272.573 0.74957 -1.7991 0
M  V30 2923 H 271.669 2.22746 -2.18611 0
M  V30 2924 N 271.97 1.30982 0.876444 0
M  V30 2925 C 273.217 1.20296 1.62896 0
M  V30 2926 C 273.545 -0.240395 1.93009 0
M  V30 2927 O 272.8 -1.18733 1.55567 0
M  V30 2928 C 273.099 1.98572 2.9716 0
M  V30 2929 C 272.765 3.48125 2.86566 0
M  V30 2930 C 271.427 3.88905 2.83383 0
M  V30 2931 C 273.779 4.43322 2.74071 0
M  V30 2932 C 271.107 5.2316 2.65556 0
M  V30 2933 C 273.459 5.77695 2.57781 0
M  V30 2934 C 272.123 6.17704 2.52979 0
M  V30 2935 H 271.393 0.440193 0.59608 0
M  V30 2936 H 274.04 1.62177 1.01837 0
M  V30 2937 H 272.345 1.49352 3.62217 0
M  V30 2938 H 274.042 1.8769 3.54364 0
M  V30 2939 H 270.632 3.15723 2.89856 0
M  V30 2940 H 274.816 4.12752 2.75589 0
M  V30 2941 H 270.072 5.53241 2.60259 0
M  V30 2942 H 274.246 6.51091 2.47089 0
M  V30 2943 H 271.873 7.21678 2.38924 0
M  V30 2944 N 273.449 -1.08991 1.13837 0
M  V30 2945 C 274.399 -2.1393 0.788535 0
M  V30 2946 C 275.383 -1.59396 -0.219516 0
M  V30 2947 O 276.575 -1.76985 -0.0227557 0
M  V30 2948 C 273.704 -3.42305 0.261147 0
M  V30 2949 C 272.79 -4.03736 1.29837 0
M  V30 2950 N 273.181 -4.39659 2.50067 0
M  V30 2951 C 271.479 -4.30993 1.1472 0
M  V30 2952 C 272.18 -4.88113 3.16419 0
M  V30 2953 N 271.156 -4.85846 2.43832 0
M  V30 2954 H 274.958 -2.39516 1.70322 0
M  V30 2955 H 272.472 -1.26263 1.02134 0
M  V30 2956 H 274.469 -4.16899 -0.0077405 0
M  V30 2957 H 273.129 -3.18172 -0.647805 0
M  V30 2958 H 274.14 -4.30878 2.8734 0
M  V30 2959 H 270.817 -4.16444 0.296773 0
M  V30 2960 H 272.207 -5.25336 4.18894 0
M  V30 2961 N 274.927 -0.932562 -1.27047 0
M  V30 2962 C 276.175 -0.574422 -1.93765 0
M  V30 2963 C 276.496 0.887993 -1.73608 0
M  V30 2964 O 275.766 1.62999 -1.08665 0
M  V30 2965 H 274.346 -0.209451 -0.717035 0
M  V30 2966 H 277.008 -1.18601 -1.5466 0
M  V30 2967 H 276.104 -0.784841 -3.02071 0
M  V30 2968 N 276.405 1.4127 -0.698611 0
M  V30 2969 C 277.682 1.94955 -0.158762 0
M  V30 2970 C 278.062 1.63781 1.33188 0
M  V30 2971 O 277.41 0.946423 2.07979 0
M  V30 2972 C 277.62 3.46044 -0.453309 0
M  V30 2973 C 278.968 4.22872 -0.382707 0
M  V30 2974 O 279.992 3.54076 -0.388396 0
M  V30 2975 O 278.851 5.45407 -0.345463 0
M  V30 2976 H 275.945 0.82683 -0.0167505 0
M  V30 2977 H 278.491 1.50971 -0.77498 0
M  V30 2978 H 277.263 3.62028 -1.48498 0
M  V30 2979 H 276.886 3.97128 0.19373 0
M  V30 2980 N 277.883 0.443576 1.51229 0
M  V30 2981 C 279.108 -0.121648 2.07043 0
M  V30 2982 C 279.533 -1.35156 1.30823 0
M  V30 2983 O 278.891 -1.7793 0.347934 0
M  V30 2984 C 278.939 -0.41624 3.5819 0
M  V30 2985 O 278.043 -1.50163 3.8409 0
M  V30 2986 H 277.384 0.000871367 0.663999 0
M  V30 2987 H 279.914 0.626706 1.94765 0
M  V30 2988 H 279.924 -0.664867 4.02546 0
M  V30 2989 H 278.599 0.482653 4.1309 0
M  V30 2990 H 277.176 -1.24248 3.51592 0
M  V30 2991 N 279.361 -1.56624 0.175154 0
M  V30 2992 C 280.589 -2.01374 -0.474971 0
M  V30 2993 C 281.004 -1.05537 -1.56548 0
M  V30 2994 O 280.361 -0.0568668 -1.82411 0
M  V30 2995 C 280.412 -3.45923 -1.04975 0
M  V30 2996 O 280.133 -4.381 -0.00276605 0
M  V30 2997 C 281.634 -4.06093 -1.77773 0
M  V30 2998 H 278.854 -0.659962 -0.121206 0
M  V30 2999 H 281.398 -2.02601 0.27801 0
M  V30 3000 H 279.553 -3.45458 -1.75321 0
M  V30 3001 H 279.967 -5.22753 -0.427681 0
M  V30 3002 H 281.441 -5.09147 -2.13245 0
M  V30 3003 H 281.918 -3.48405 -2.67414 0
M  V30 3004 H 282.524 -4.10272 -1.12059 0
M  V30 3005 N 280.839 0.0985539 -1.57292 0
M  V30 3006 C 282.25 0.653457 -1.74891 0
M  V30 3007 C 282.601 1.7929 -0.796838 0
M  V30 3008 O 281.726 2.16385 0.0254886 0
M  V30 3009 C 282.321 1.19216 -3.17133 0
M  V30 3010 C 280.88 1.69316 -3.36168 0
M  V30 3011 C 280.027 0.601294 -2.70702 0
M  V30 3012 H 282.978 -0.127497 -1.58187 0
M  V30 3013 H 282.999 2.06154 -3.19814 0
M  V30 3014 H 282.511 0.362635 -3.86402 0
M  V30 3015 H 280.612 2.5468 -2.71972 0
M  V30 3016 H 280.725 1.78853 -4.44464 0
M  V30 3017 H 279.089 1.0399 -2.32504 0
M  V30 3018 H 279.872 -0.217592 -3.4261 0
M  V30 3019 N 282.317 1.53212 0.369288 0
M  V30 3020 C 283.564 1.69215 1.11232 0
M  V30 3021 C 283.892 0.442048 1.8941 0
M  V30 3022 O 283.147 -0.575944 1.87033 0
M  V30 3023 C 283.446 2.89101 2.10132 0
M  V30 3024 C 283.112 4.25758 1.48463 0
M  V30 3025 C 281.774 4.6292 1.31372 0
M  V30 3026 C 284.126 5.10757 1.03811 0
M  V30 3027 C 281.454 5.82722 0.68207 0
M  V30 3028 C 283.806 6.31201 0.420487 0
M  V30 3029 C 282.47 6.67079 0.237038 0
M  V30 3030 H 281.74 0.619201 0.407027 0
M  V30 3031 H 284.387 1.87391 0.394552 0
M  V30 3032 H 282.692 2.65421 2.88199 0
M  V30 3033 H 284.389 2.98676 2.6757 0
M  V30 3034 H 280.979 3.96494 1.62758 0
M  V30 3035 H 285.163 4.82599 1.1581 0
M  V30 3036 H 280.419 6.09113 0.528316 0
M  V30 3037 H 284.593 6.96368 0.0662874 0
M  V30 3038 H 282.22 7.59774 -0.254477 0
M  V30 3039 N 283.795 -0.628877 1.44509 0
M  V30 3040 C 285.072 -1.38733 1.37886 0
M  V30 3041 C 285.452 -2.11065 0.0387008 0
M  V30 3042 O 284.8 -2.06476 -0.97878 0
M  V30 3043 C 285.01 -2.35188 2.57852 0
M  V30 3044 C 286.358 -2.9845 3.02014 0
M  V30 3045 O 287.382 -2.45513 2.58073 0
M  V30 3046 O 286.241 -3.94487 3.78209 0
M  V30 3047 H 283.335 -0.621015 0.54614 0
M  V30 3048 H 285.881 -0.653744 1.56602 0
M  V30 3049 H 284.653 -1.80855 3.46998 0
M  V30 3050 H 284.276 -3.1596 2.4136 0
M  V30 3051 N 285.273 -1.31445 -0.869486 0
M  V30 3052 C 286.521 -1.20918 -1.61936 0
M  V30 3053 C 286.842 0.232683 -1.93607 0
M  V30 3054 O 286.112 1.15352 -1.58338 0
M  V30 3055 H 284.692 -0.44454 -0.600328 0
M  V30 3056 H 287.354 -1.64776 -1.0409 0
M  V30 3057 H 286.45 -1.78124 -2.56278 0
M  V30 3058 N 286.751 1.08385 -1.14413 0
M  V30 3059 C 287.661 2.18856 -0.844951 0
M  V30 3060 C 288.677 1.73121 0.174668 0
M  V30 3061 O 289.853 2.014 0.00312857 0
M  V30 3062 C 286.918 3.45155 -0.32696 0
M  V30 3063 C 285.979 4.05513 -1.40916 0
M  V30 3064 C 285.212 5.25784 -0.915793 0
M  V30 3065 O 285.435 5.69884 0.242651 0
M  V30 3066 O 284.369 5.77545 -1.69487 0
M  V30 3067 H 288.195 2.46919 -1.76818 0
M  V30 3068 H 285.78 1.17524 -0.922411 0
M  V30 3069 H 287.662 4.21377 -0.0440211 0
M  V30 3070 H 286.337 3.18668 0.568539 0
M  V30 3071 H 285.244 3.30879 -1.74556 0
M  V30 3072 H 286.577 4.3625 -2.27919 0
M  V30 3073 N 288.23 0.939286 1.26551 0
M  V30 3074 C 289.478 0.58469 1.93457 0
M  V30 3075 C 289.799 -0.878774 1.74076 0
M  V30 3076 O 289.069 -1.62421 1.09528 0
M  V30 3077 H 287.649 0.21325 0.715914 0
M  V30 3078 H 290.311 1.1942 1.54029 0
M  V30 3079 H 289.407 0.800849 3.0165 0
M  V30 3080 N 289.708 -1.40897 0.706093 0
M  V30 3081 C 290.956 -2.00657 0.241054 0
M  V30 3082 C 291.277 -1.56241 -1.16678 0
M  V30 3083 O 290.547 -0.79765 -1.78926 0
M  V30 3084 H 289.127 -0.742018 0.0861308 0
M  V30 3085 H 291.789 -1.72372 0.909604 0
M  V30 3086 H 290.885 -3.10958 0.266705 0
M  V30 3087 N 291.186 -0.45159 -1.50991 0
M  V30 3088 C 292.433 0.110074 -2.02201 0
M  V30 3089 C 292.761 1.4146 -1.33489 0
M  V30 3090 O 292.016 1.90617 -0.443125 0
M  V30 3091 C 292.315 0.361728 -3.55565 0
M  V30 3092 C 291.981 -0.858717 -4.42648 0
M  V30 3093 C 290.643 -1.19338 -4.66167 0
M  V30 3094 C 292.995 -1.67221 -4.93646 0
M  V30 3095 C 290.323 -2.34195 -5.37931 0
M  V30 3096 C 292.675 -2.8119 -5.6667 0
M  V30 3097 C 291.339 -3.15094 -5.88449 0
M  V30 3098 H 290.609 0.040279 -0.739904 0
M  V30 3099 H 293.256 -0.601696 -1.81802 0
M  V30 3100 H 291.561 1.15554 -3.74372 0
M  V30 3101 H 293.258 0.80996 -3.92735 0
M  V30 3102 H 289.848 -0.58796 -4.24548 0
M  V30 3103 H 294.032 -1.42686 -4.75347 0
M  V30 3104 H 289.288 -2.6076 -5.53005 0
M  V30 3105 H 293.462 -3.44585 -6.05173 0
M  V30 3106 H 291.089 -4.04204 -6.43835 0
M  V30 3107 N 292.664 1.56529 -0.183458 0
M  V30 3108 C 293.594 2.21549 0.737456 0
M  V30 3109 C 294.575 1.17489 1.23005 0
M  V30 3110 O 295.76 1.45959 1.281 0
M  V30 3111 C 292.89 2.86575 1.96194 0
M  V30 3112 C 291.844 3.96778 1.60473 0
M  V30 3113 C 291.17 4.48911 2.90487 0
M  V30 3114 C 292.47 5.15767 0.823497 0
M  V30 3115 H 294.164 2.98761 0.195453 0
M  V30 3116 H 291.71 1.43702 0.0925686 0
M  V30 3117 H 293.663 3.30739 2.61131 0
M  V30 3118 H 292.387 2.06749 2.52828 0
M  V30 3119 H 291.046 3.53286 0.978997 0
M  V30 3120 H 290.694 3.65862 3.45186 0
M  V30 3121 H 290.394 5.23265 2.67335 0
M  V30 3122 H 291.918 4.95771 3.56432 0
M  V30 3123 H 293.332 5.56549 1.37571 0
M  V30 3124 H 291.729 5.96114 0.690551 0
M  V30 3125 H 292.799 4.84574 -0.177782 0
M  V30 3126 N 294.142 -0.090211 1.57342 0
M  V30 3127 C 295.105 -1.09335 2.01441 0
M  V30 3128 C 296.105 -1.32666 0.908641 0
M  V30 3129 O 297.295 -1.28697 1.174 0
M  V30 3130 C 294.427 -2.44136 2.3793 0
M  V30 3131 H 295.62 -0.713662 2.91285 0
M  V30 3132 H 293.173 -0.335404 1.52659 0
M  V30 3133 H 293.908 -2.86972 1.51055 0
M  V30 3134 H 293.693 -2.28548 3.18603 0
M  V30 3135 H 295.183 -3.16277 2.72688 0
M  V30 3136 N 295.62 -1.53406 -0.361157 0
M  V30 3137 C 296.57 -1.76536 -1.44287 0
M  V30 3138 C 297.554 -0.620019 -1.48474 0
M  V30 3139 O 298.746 -0.878834 -1.53641 0
M  V30 3140 C 295.875 -1.96266 -2.81664 0
M  V30 3141 C 294.961 -3.16815 -2.81938 0
M  V30 3142 N 295.352 -4.38637 -2.51855 0
M  V30 3143 C 293.65 -3.17627 -3.13096 0
M  V30 3144 C 294.351 -5.20401 -2.59919 0
M  V30 3145 N 293.327 -4.56712 -2.94814 0
M  V30 3146 H 297.129 -2.68331 -1.19899 0
M  V30 3147 H 294.643 -1.52091 -0.56938 0
M  V30 3148 H 296.64 -2.10966 -3.59582 0
M  V30 3149 H 295.3 -1.05702 -3.07013 0
M  V30 3150 H 296.311 -4.66293 -2.25369 0
M  V30 3151 H 292.988 -2.36971 -3.43731 0
M  V30 3152 H 294.378 -6.27586 -2.39969 0
M  V30 3153 N 297.098 0.621204 -1.44841 0
M  V30 3154 C 298.061 1.71459 -1.521 0
M  V30 3155 C 299.061 1.55696 -0.401933 0
M  V30 3156 O 300.251 1.61011 -0.664925 0
M  V30 3157 C 297.383 3.10624 -1.40447 0
M  V30 3158 H 298.576 1.66394 -2.49506 0
M  V30 3159 H 296.129 0.835745 -1.3208 0
M  V30 3160 H 296.864 3.21277 -0.441737 0
M  V30 3161 H 296.649 3.23473 -2.21602 0
M  V30 3162 H 298.139 3.90293 -1.4853 0
M  V30 3163 N 298.576 1.31904 0.862503 0
M  V30 3164 C 299.806 1.24817 1.64634 0
M  V30 3165 C 300.214 -0.187579 1.88268 0
M  V30 3166 O 299.557 -1.13253 1.44635 0
M  V30 3167 C 299.619 1.92996 3.03303 0
M  V30 3168 C 299.283 3.42336 3.02746 0
M  V30 3169 C 300.28 4.37956 2.80162 0
M  V30 3170 C 297.965 3.84147 3.2363 0
M  V30 3171 C 299.959 5.73361 2.78453 0
M  V30 3172 C 297.646 5.19663 3.21549 0
M  V30 3173 C 298.644 6.14081 2.98988 0
M  V30 3174 O 298.332 7.47118 2.96766 0
M  V30 3175 H 298.064 0.432222 0.519769 0
M  V30 3176 H 300.618 1.7445 1.08427 0
M  V30 3177 H 298.848 1.37922 3.61268 0
M  V30 3178 H 300.537 1.79723 3.63943 0
M  V30 3179 H 301.303 4.06981 2.63802 0
M  V30 3180 H 297.182 3.11083 3.40218 0
M  V30 3181 H 300.726 6.4703 2.60763 0
M  V30 3182 H 296.623 5.5027 3.37451 0
M  V30 3183 H 297.391 7.56382 3.12775 0
M  V30 3184 N 300.054 -1.07777 1.14986 0
M  V30 3185 C 301.301 -1.8029 0.922056 0
M  V30 3186 C 301.629 -1.86531 -0.55105 0
M  V30 3187 O 300.884 -1.34189 -1.42449 0
M  V30 3188 C 301.183 -3.25495 1.47608 0
M  V30 3189 C 300.849 -3.39361 2.96893 0
M  V30 3190 C 299.511 -3.42852 3.37647 0
M  V30 3191 C 301.863 -3.42512 3.92854 0
M  V30 3192 C 299.191 -3.47094 4.73015 0
M  V30 3193 C 301.543 -3.4829 5.28088 0
M  V30 3194 C 300.207 -3.50058 5.68345 0
M  V30 3195 H 299.477 -0.659727 0.337404 0
M  V30 3196 H 302.124 -1.26854 1.43459 0
M  V30 3197 H 300.429 -3.81683 0.88463 0
M  V30 3198 H 302.126 -3.80168 1.27568 0
M  V30 3199 H 298.716 -3.37339 2.64387 0
M  V30 3200 H 302.9 -3.3904 3.62444 0
M  V30 3201 H 298.156 -3.46758 5.03556 0
M  V30 3202 H 302.33 -3.49675 6.02246 0
M  V30 3203 H 299.957 -3.53097 6.73221 0
M  V30 3204 N 301.532 -0.945985 -1.26051 0
M  V30 3205 C 302.943 -0.638096 -1.75457 0
M  V30 3206 C 303.294 0.846672 -1.76991 0
M  V30 3207 O 302.419 1.66262 -1.38513 0
M  V30 3208 C 303.014 -1.15157 -3.18629 0
M  V30 3209 C 301.573 -0.894004 -3.65629 0
M  V30 3210 C 300.72 -1.29967 -2.44957 0
M  V30 3211 H 303.671 -1.12376 -1.1206 0
M  V30 3212 H 303.692 -0.507615 -3.77099 0
M  V30 3213 H 303.204 -2.23222 -3.1748 0
M  V30 3214 H 301.305 0.172057 -3.72203 0
M  V30 3215 H 301.418 -1.52439 -4.54202 0
M  V30 3216 H 299.782 -0.718078 -2.44368 0
M  V30 3217 H 300.565 -2.38935 -2.46505 0
M  V30 3218 N 303.011 1.40521 -0.713556 0
M  V30 3219 C 304.259 2.00527 -0.251692 0
M  V30 3220 C 304.58 1.56857 1.15848 0
M  V30 3221 O 303.85 0.807127 1.785 0
M  V30 3222 H 302.43 0.741551 -0.0900646 0
M  V30 3223 H 305.092 1.71887 -0.918733 0
M  V30 3224 H 304.188 3.10813 -0.283192 0
M  V30 3225 N 304.489 0.459591 1.5075 0
M  V30 3226 C 305.9 0.00171547 1.867 0
M  V30 3227 C 306.251 -1.39934 1.37525 0
M  V30 3228 O 305.376 -2.03523 0.735349 0
M  V30 3229 C 305.971 -0.00366298 3.388 0
M  V30 3230 C 304.53 -0.406026 3.74204 0
M  V30 3231 C 303.677 0.38673 2.7459 0
M  V30 3232 H 306.628 0.674413 1.43657 0
M  V30 3233 H 306.649 -0.808371 3.71814 0
M  V30 3234 H 306.161 1.01617 3.74561 0
M  V30 3235 H 304.262 -1.43063 3.4404 0
M  V30 3236 H 304.375 -0.115362 4.78961 0
M  V30 3237 H 302.739 -0.158019 2.54209 0
M  V30 3238 H 303.522 1.40585 3.13194 0
M  V30 3239 N 305.967 -1.56429 0.191757 0
M  V30 3240 C 306.915 -2.20273 -0.747174 0
M  V30 3241 C 307.909 -1.17288 -1.22229 0
M  V30 3242 O 309.115 -1.35441 -1.18557 0
M  V30 3243 H 305.49 -0.705885 -0.259289 0
M  V30 3244 H 307.461 -2.97826 -0.184963 0
M  V30 3245 C 306.21 -2.87356 -1.95759 0
M  V30 3246 H 305.533 -3.66341 -1.60106 0
M  V30 3247 H 306.973 -3.3547 -2.59299 0
M  V30 3248 C 305.432 -1.88213 -2.79423 0
M  V30 3249 O 305.962 -1.38033 -3.7724 0
M  V30 3250 N 304.168 -1.56516 -2.44849 0
M  V30 3251 H 303.715 -1.97516 -1.65364 0
M  V30 3252 H 303.673 -0.904369 -3.01112 0
M  V30 3253 N 307.445 0.0818655 -1.57387 0
M  V30 3254 C 308.694 0.781681 -1.85937 0
M  V30 3255 C 309.007 1.79246 -0.782957 0
M  V30 3256 O 310.213 2.54112 -0.955987 0
M  V30 3257 C 308.669 1.44109 -3.29789 0
M  V30 3258 C 308.277 0.469396 -4.45534 0
M  V30 3259 C 310.021 2.12386 -3.67549 0
M  V30 3260 C 307.928 1.13415 -5.80423 0
M  V30 3261 H 306.858 0.295682 -0.693605 0
M  V30 3262 H 309.509 0.0348051 -1.83467 0
M  V30 3263 H 307.891 2.23588 -3.2684 0
M  V30 3264 H 309.065 -0.294856 -4.59856 0
M  V30 3265 H 307.38 -0.108383 -4.16259 0
M  V30 3266 H 309.977 2.62878 -4.65617 0
M  V30 3267 H 310.32 2.91877 -2.96839 0
M  V30 3268 H 310.853 1.39751 -3.72444 0
M  V30 3269 H 307.592 0.379771 -6.54399 0
M  V30 3270 H 307.112 1.8695 -5.69921 0
M  V30 3271 H 308.791 1.65686 -6.25426 0
M  V30 3272 N 308.923 1.53595 0.353017 0
M  V30 3273 C 310.171 1.70049 1.09215 0
M  V30 3274 C 310.492 0.461406 1.89463 0
M  V30 3275 O 309.762 -0.524633 1.88744 0
M  V30 3276 H 308.342 0.626912 0.40619 0
M  V30 3277 H 311.004 1.90822 0.396585 0
M  V30 3278 H 310.1 2.56718 1.77488 0
M  V30 3279 N 310.401 -0.613514 1.45168 0
M  V30 3280 C 311.649 -1.36997 1.48581 0
M  V30 3281 C 311.97 -1.94589 0.126545 0
M  V30 3282 O 311.24 -1.76816 -0.843372 0
M  V30 3283 H 309.82 -0.508558 0.547154 0
M  V30 3284 H 312.482 -0.720853 1.81079 0
M  V30 3285 H 311.578 -2.1924 2.22127 0
M  V30 3286 N 311.879 -1.3236 -0.855495 0
M  V30 3287 C 313.156 -1.13491 -1.59309 0
M  V30 3288 C 313.536 0.30503 -2.08885 0
M  V30 3289 O 312.884 1.30151 -1.87811 0
M  V30 3290 C 313.094 -2.16176 -2.73987 0
M  V30 3291 C 314.442 -2.49463 -3.43589 0
M  V30 3292 O 315.466 -2.14715 -2.84211 0
M  V30 3293 O 314.325 -3.09027 -4.50738 0
M  V30 3294 H 311.419 -0.437887 -0.701559 0
M  V30 3295 H 313.965 -1.43887 -0.899696 0
M  V30 3296 H 312.737 -3.1297 -2.34873 0
M  V30 3297 H 312.36 -1.86769 -3.51003 0
M  V30 3298 N 313.357 1.07166 -1.15556 0
M  V30 3299 C 314.585 1.83514 -0.955519 0
M  V30 3300 C 315 1.82163 0.49621 0
M  V30 3301 O 314.357 1.23441 1.34419 0
M  V30 3302 C 314.408 3.30515 -1.46432 0
M  V30 3303 O 314.129 3.31937 -2.85918 0
M  V30 3304 C 315.63 4.23625 -1.30603 0
M  V30 3305 H 312.85 0.578926 -0.339244 0
M  V30 3306 H 315.394 1.35265 -1.53374 0
M  V30 3307 H 313.549 3.76106 -0.928584 0
M  V30 3308 H 313.963 4.23794 -3.09029 0
M  V30 3309 H 315.437 5.24831 -1.71047 0
M  V30 3310 H 315.914 4.38485 -0.250441 0
M  V30 3311 H 316.52 3.83871 -1.83094 0
M  V30 3312 N 314.835 0.952656 1.25548 0
M  V30 3313 C 315.785 0.442033 2.23674 0
M  V30 3314 C 316.769 -0.467632 1.53955 0
M  V30 3315 O 317.961 -0.301006 1.74422 0
M  V30 3316 C 315.09 -0.280816 3.4215 0
M  V30 3317 C 314.176 0.646803 4.19139 0
M  V30 3318 N 314.567 1.77759 4.73535 0
M  V30 3319 C 312.865 0.454617 4.43677 0
M  V30 3320 C 313.566 2.35658 5.31827 0
M  V30 3321 N 312.542 1.64333 5.18166 0
M  V30 3322 H 316.344 1.30505 2.63336 0
M  V30 3323 H 313.858 0.809904 1.40763 0
M  V30 3324 H 315.855 -0.663747 4.11582 0
M  V30 3325 H 314.515 -1.14046 3.04012 0
M  V30 3326 H 315.526 2.15949 4.7073 0
M  V30 3327 H 312.203 -0.362312 4.15925 0
M  V30 3328 H 313.593 3.30998 5.84713 0
M  V30 3329 N 316.313 -1.40141 0.720998 0
M  V30 3330 C 317.56 -2.00787 0.262842 0
M  V30 3331 C 317.888 -1.5718 -1.14563 0
M  V30 3332 O 317.143 -0.785391 -1.79249 0
M  V30 3333 C 317.442 -3.56165 0.296892 0
M  V30 3334 C 317.108 -4.19373 1.65641 0
M  V30 3335 C 315.77 -4.36352 2.02855 0
M  V30 3336 C 318.122 -4.54578 2.54968 0
M  V30 3337 C 315.45 -4.8582 3.28931 0
M  V30 3338 C 317.802 -5.05447 3.80402 0
M  V30 3339 C 316.466 -5.20635 4.17726 0
M  V30 3340 H 315.736 -0.734731 0.0961807 0
M  V30 3341 H 318.383 -1.67673 0.925093 0
M  V30 3342 H 316.688 -3.8922 -0.448932 0
M  V30 3343 H 318.385 -4.00929 -0.0755208 0
M  V30 3344 H 314.975 -4.06549 1.35704 0
M  V30 3345 H 319.159 -4.41091 2.27491 0
M  V30 3346 H 314.415 -4.95764 3.57811 0
M  V30 3347 H 318.589 -5.31663 4.49786 0
M  V30 3348 H 316.216 -5.58728 5.15487 0
M  V30 3349 N 317.792 -0.46758 -1.50504 0
M  V30 3350 C 319.069 0.15003 -1.95024 0
M  V30 3351 C 319.449 1.57304 -1.40779 0
M  V30 3352 O 318.797 2.20281 -0.607319 0
M  V30 3353 C 319.007 0.0969324 -3.48865 0
M  V30 3354 C 320.355 0.287565 -4.23625 0
M  V30 3355 O 321.379 0.173678 -3.55776 0
M  V30 3356 O 320.238 0.517186 -5.44047 0
M  V30 3357 H 317.332 0.113582 -0.819163 0
M  V30 3358 H 319.878 -0.52773 -1.61286 0
M  V30 3359 H 318.65 -0.896732 -3.80886 0
M  V30 3360 H 318.273 0.816303 -3.8913 0
M  V30 3361 N 319.27 1.56325 -0.20005 0
M  V30 3362 C 320.495 2.02548 0.44597 0
M  V30 3363 C 320.92 1.07922 1.5406 0
M  V30 3364 O 320.278 0.0635775 1.81188 0
M  V30 3365 C 320.326 3.47175 0.974761 0
M  V30 3366 O 319.43 3.55671 2.08739 0
M  V30 3367 H 318.771 0.655862 0.103638 0
M  V30 3368 H 321.301 2.02201 -0.312381 0
M  V30 3369 H 321.311 3.87067 1.2901 0
M  V30 3370 H 319.986 4.15538 0.17347 0
M  V30 3371 H 318.563 3.27657 1.78032 0
M  V30 3372 N 320.748 -0.0735177 1.57428 0
M  V30 3373 C 321.711 -1.07192 2.02589 0
M  V30 3374 C 322.711 -1.31695 0.922661 0
M  V30 3375 O 323.901 -1.27445 1.18758 0
M  V30 3376 C 321.033 -2.41599 2.40506 0
M  V30 3377 H 322.226 -0.682727 2.92025 0
M  V30 3378 H 319.779 -0.319193 1.53006 0
M  V30 3379 H 320.514 -2.85354 1.5409 0
M  V30 3380 H 320.299 -2.25156 3.21009 0
M  V30 3381 H 321.789 -3.13367 2.76027 0
M  V30 3382 N 322.226 -1.5378 -0.344866 0
M  V30 3383 C 323.136 -1.84667 -1.4469 0
M  V30 3384 C 324.152 -0.736704 -1.57635 0
M  V30 3385 O 325.328 -1.02888 -1.73136 0
M  V30 3386 C 322.393 -2.04869 -2.79696 0
M  V30 3387 C 321.454 -3.28731 -2.76106 0
M  V30 3388 C 320.687 -3.4796 -4.04673 0
M  V30 3389 O 320.91 -2.71052 -5.01883 0
M  V30 3390 O 319.844 -4.41383 -4.09224 0
M  V30 3391 H 323.67 -2.78334 -1.21506 0
M  V30 3392 H 321.255 -1.39418 -0.536921 0
M  V30 3393 H 323.137 -2.19609 -3.59652 0
M  V30 3394 H 321.812 -1.14391 -3.02814 0
M  V30 3395 H 320.719 -3.19396 -1.94774 0
M  V30 3396 H 322.052 -4.19198 -2.57941 0
M  V30 3397 N 323.704 0.605807 -1.45491 0
M  V30 3398 C 325.115 1.18777 -1.44045 0
M  V30 3399 C 325.466 1.95471 -0.169001 0
M  V30 3400 O 324.591 2.0374 0.729324 0
M  V30 3401 C 325.186 2.16064 -2.60963 0
M  V30 3402 C 323.745 2.69633 -2.62631 0
M  V30 3403 C 322.892 1.45072 -2.36325 0
M  V30 3404 H 325.843 0.395017 -1.53705 0
M  V30 3405 H 325.864 2.9913 -2.35163 0
M  V30 3406 H 325.376 1.60217 -3.53486 0
M  V30 3407 H 323.477 3.29414 -1.74119 0
M  V30 3408 H 323.59 3.13944 -3.61906 0
M  V30 3409 H 321.954 1.74089 -1.85917 0
M  V30 3410 H 322.737 0.910899 -3.30995 0
M  V30 3411 N 325.182 1.32811 0.848464 0
M  V30 3412 C 326.428 1.24917 1.60522 0
M  V30 3413 C 326.783 -0.185761 1.91501 0
M  V30 3414 O 326.076 -1.12524 1.55077 0
M  V30 3415 C 326.27 2.04831 2.92881 0
M  V30 3416 C 326.099 3.55949 2.74828 0
M  V30 3417 C 324.869 4.25277 2.72887 0
M  V30 3418 C 327.067 4.50476 2.48145 0
M  V30 3419 N 325.049 5.62408 2.46111 0
M  V30 3420 C 326.42 5.75427 2.30832 0
M  V30 3421 C 328.475 4.39665 2.33664 0
M  V30 3422 C 327.178 6.90789 2.00508 0
M  V30 3423 C 329.204 5.54833 2.04731 0
M  V30 3424 C 328.566 6.78787 1.88223 0
M  V30 3425 H 324.665 0.512279 0.590842 0
M  V30 3426 H 327.249 1.67246 0.996839 0
M  V30 3427 H 325.42 1.64837 3.51686 0
M  V30 3428 H 327.152 1.88782 3.57971 0
M  V30 3429 H 323.907 3.77456 2.86049 0
M  V30 3430 H 324.331 6.3467 2.35634 0
M  V30 3431 H 328.973 3.44477 2.45144 0
M  V30 3432 H 326.691 7.85984 1.87765 0
M  V30 3433 H 330.277 5.48398 1.94295 0
M  V30 3434 H 329.157 7.66396 1.66155 0
M  V30 3435 N 326.66 -1.06551 1.16123 0
M  V30 3436 C 327.888 -1.83005 0.965237 0
M  V30 3437 C 328.303 -1.82423 -0.486542 0
M  V30 3438 O 327.66 -1.24152 -1.33763 0
M  V30 3439 C 327.711 -3.29733 1.48183 0
M  V30 3440 O 327.432 -3.30416 2.87674 0
M  V30 3441 C 328.933 -4.22926 1.32848 0
M  V30 3442 H 326.153 -0.577118 0.342309 0
M  V30 3443 H 328.697 -1.3445 1.54089 0
M  V30 3444 H 326.852 -3.75609 0.948517 0
M  V30 3445 H 327.266 -4.22149 3.11272 0
M  V30 3446 H 328.74 -5.23916 1.73827 0
M  V30 3447 H 329.217 -4.38346 0.273692 0
M  V30 3448 H 329.823 -3.82894 1.85127 0
M  V30 3449 N 328.138 -0.959301 -1.25041 0
M  V30 3450 C 329.384 -0.617525 -1.9317 0
M  V30 3451 C 329.717 0.843981 -1.74902 0
M  V30 3452 O 328.992 1.60615 -1.09696 0
M  V30 3453 C 329.275 -0.982736 -3.46431 0
M  V30 3454 C 329.128 -2.50032 -3.73904 0
M  V30 3455 C 330.447 -0.511176 -4.37121 0
M  V30 3456 H 327.566 -0.22582 -0.701552 0
M  V30 3457 H 330.208 -1.19679 -1.4757 0
M  V30 3458 H 328.358 -0.489806 -3.854 0
M  V30 3459 H 330.03 -3.06737 -3.44544 0
M  V30 3460 H 328.273 -2.93598 -3.19348 0
M  V30 3461 H 328.944 -2.70635 -4.81103 0
M  V30 3462 H 331.42 -0.934075 -4.0548 0
M  V30 3463 H 330.296 -0.795361 -5.43107 0
M  V30 3464 H 330.557 0.588834 -4.38161 0
M  V30 3465 N 329.616 1.39756 -0.72842 0
M  V30 3466 C 331.032 1.5442 -0.403308 0
M  V30 3467 C 331.232 1.69694 1.08656 0
M  V30 3468 O 330.288 1.69373 1.87267 0
M  V30 3469 C 331.601 2.76555 -1.18058 0
M  V30 3470 C 333.149 2.90384 -1.16815 0
M  V30 3471 C 333.624 4.15449 -1.92785 0
M  V30 3472 N 335.115 4.22475 -1.89918 0
M  V30 3473 C 335.85 5.1818 -2.45514 0
M  V30 3474 N 335.346 6.19714 -3.09719 0
M  V30 3475 N 337.139 5.1035 -2.35584 0
M  V30 3476 H 329.29 1.28089 -1.69431 0
M  V30 3477 H 331.553 0.620327 -0.716867 0
M  V30 3478 H 331.259 2.7159 -2.23455 0
M  V30 3479 H 331.133 3.69033 -0.780662 0
M  V30 3480 H 333.52 2.94846 -0.12234 0
M  V30 3481 H 333.601 1.98988 -1.6074 0
M  V30 3482 H 333.245 4.11749 -2.97364 0
M  V30 3483 H 333.175 5.05877 -1.46272 0
M  V30 3484 H 335.666 3.49743 -1.43138 0
M  V30 3485 H 335.979 6.8919 -3.49625 0
M  V30 3486 H 334.324 6.20121 -3.13807 0
M  V30 3487 H 337.515 4.2996 -1.85072 0
M  V30 3488 H 337.688 5.84761 -2.79211 0
M  V30 3489 N 331.094 0.475555 1.50254 0
M  V30 3490 C 332.042 -0.330276 2.30243 0
M  V30 3491 C 333.036 -0.986306 1.37726 0
M  V30 3492 O 334.242 -0.9169 1.54897 0
M  V30 3493 H 330.617 -0.125353 0.741479 0
M  V30 3494 H 332.588 0.364702 2.96163 0
M  V30 3495 C 331.337 -1.39704 3.18399 0
M  V30 3496 H 330.66 -0.901621 3.89501 0
M  V30 3497 H 332.1 -1.93336 3.77355 0
M  V30 3498 C 330.559 -2.4014 2.36293 0
M  V30 3499 O 331.089 -3.45504 2.04914 0
M  V30 3500 N 329.295 -2.1197 1.98789 0
M  V30 3501 H 328.842 -1.2631 2.24507 0
M  V30 3502 H 328.8 -2.79403 1.44157 0
M  V30 3503 N 332.573 -1.56217 0.208337 0
M  V30 3504 C 333.483 -2.23316 -0.718836 0
M  V30 3505 C 334.499 -1.23648 -1.22422 0
M  V30 3506 O 335.675 -1.56423 -1.26861 0
M  V30 3507 C 332.74 -2.88968 -1.91568 0
M  V30 3508 C 331.801 -4.03943 -1.45357 0
M  V30 3509 C 331.034 -4.66455 -2.59337 0
M  V30 3510 O 331.257 -4.27919 -3.77149 0
M  V30 3511 O 330.191 -5.55686 -2.31293 0
M  V30 3512 H 334.017 -3.03182 -0.177315 0
M  V30 3513 H 331.602 -1.49384 -0.0215402 0
M  V30 3514 H 333.484 -3.30455 -2.61491 0
M  V30 3515 H 332.159 -2.12071 -2.44556 0
M  V30 3516 H 331.066 -3.67052 -0.722746 0
M  V30 3517 H 332.399 -4.82543 -0.970219 0
M  V30 3518 N 334.051 0.0651679 -1.57465 0
M  V30 3519 C 335.328 0.79644 -1.78651 0
M  V30 3520 C 335.708 1.95454 -0.797566 0
M  V30 3521 O 335.056 2.27882 0.167946 0
M  V30 3522 C 335.266 1.26322 -3.25337 0
M  V30 3523 C 336.614 1.6939 -3.89348 0
M  V30 3524 O 337.638 1.35872 -3.29268 0
M  V30 3525 O 336.497 2.31471 -4.95059 0
M  V30 3526 H 333.591 0.382157 -0.733407 0
M  V30 3527 H 336.137 0.0447311 -1.69641 0
M  V30 3528 H 334.909 0.434859 -3.88876 0
M  V30 3529 H 334.532 2.07604 -3.39096 0
M  V30 3530 N 335.529 1.53961 0.336706 0
M  V30 3531 C 336.459 1.85417 1.41925 0
M  V30 3532 C 337.44 0.709856 1.5458 0
M  V30 3533 O 338.625 0.962396 1.68676 0
M  V30 3534 C 335.755 2.06985 2.78881 0
M  V30 3535 C 334.709 3.22813 2.81026 0
M  V30 3536 C 334.035 3.29727 4.20932 0
M  V30 3537 C 335.335 4.60767 2.45949 0
M  V30 3538 H 337.029 2.76079 1.15848 0
M  V30 3539 H 334.575 1.32839 0.555859 0
M  V30 3540 H 336.528 2.27575 3.54665 0
M  V30 3541 H 335.252 1.13061 3.06406 0
M  V30 3542 H 333.911 3.0209 2.07695 0
M  V30 3543 H 333.559 2.33385 4.45579 0
M  V30 3544 H 333.259 4.07566 4.23277 0
M  V30 3545 H 334.783 3.52536 4.98549 0
M  V30 3546 H 336.197 4.81325 3.11446 0
M  V30 3547 H 334.594 5.4106 2.59566 0
M  V30 3548 H 335.664 4.6391 1.41122 0
M  V30 3549 N 337.007 -0.598083 1.45811 0
M  V30 3550 C 337.955 -1.72932 1.55555 0
M  V30 3551 C 338.949 -1.63984 0.424921 0
M  V30 3552 O 340.155 -1.69663 0.601205 0
M  V30 3553 H 336.53 -0.571489 0.488779 0
M  V30 3554 H 338.501 -1.61842 2.50699 0
M  V30 3555 C 337.25 -3.11318 1.54843 0
M  V30 3556 H 336.573 -3.18867 2.41172 0
M  V30 3557 H 338.013 -3.90274 1.65717 0
M  V30 3558 C 336.472 -3.3578 0.274427 0
M  V30 3559 O 337.002 -3.9654 -0.641778 0
M  V30 3560 N 335.208 -2.90119 0.167139 0
M  V30 3561 H 334.755 -2.40855 0.913596 0
M  V30 3562 H 334.713 -3.0686 -0.684435 0
M  V30 3563 N 338.485 -1.33259 -0.841409 0
M  V30 3564 C 339.733 -1.24326 -1.59334 0
M  V30 3565 C 340.054 0.191564 -1.94057 0
M  V30 3566 O 339.324 1.11967 -1.60749 0
M  V30 3567 H 337.904 -0.457174 -0.590763 0
M  V30 3568 H 340.566 -1.66947 -1.00571 0
M  V30 3569 H 339.662 -1.8352 -2.52442 0
M  V30 3570 N 339.963 1.05934 -1.16686 0
M  V30 3571 C 340.911 2.15603 -0.872817 0
M  V30 3572 C 341.905 1.68647 0.159576 0
M  V30 3573 O 343.111 1.79995 0.0132125 0
M  V30 3574 H 339.486 0.703885 -0.264671 0
M  V30 3575 H 341.457 2.37613 -1.80507 0
M  V30 3576 C 340.206 3.45457 -0.394344 0
M  V30 3577 H 339.529 3.81984 -1.18019 0
M  V30 3578 H 340.969 4.2339 -0.227408 0
M  V30 3579 C 339.428 3.25021 0.88673 0
M  V30 3580 O 339.958 3.50906 1.95519 0
M  V30 3581 N 338.164 2.78437 0.831925 0
M  V30 3582 H 337.711 2.57572 -0.0377619 0
M  V30 3583 H 337.669 2.65144 1.68956 0
M  V30 3584 N 341.441 0.965919 1.2453 0
M  V30 3585 C 342.718 0.543777 1.87889 0
M  V30 3586 C 343.098 -0.97909 1.87021 0
M  V30 3587 O 342.446 -1.84969 1.3416 0
M  V30 3588 C 342.656 1.13327 3.30088 0
M  V30 3589 C 344.004 1.21707 4.06783 0
M  V30 3590 O 345.028 1.08566 3.39252 0
M  V30 3591 O 343.887 1.42456 5.27606 0
M  V30 3592 H 340.981 0.181054 0.806938 0
M  V30 3593 H 343.527 1.06007 1.32516 0
M  V30 3594 H 342.299 2.17612 3.25209 0
M  V30 3595 H 341.922 0.600911 3.93033 0
M  V30 3596 N 342.919 -1.39368 0.735821 0
M  V30 3597 C 344.168 -1.99733 0.281004 0
M  V30 3598 C 344.481 -1.59055 -1.13846 0
M  V30 3599 O 345.687 -2.12262 -1.69284 0
M  V30 3600 C 344.143 -3.57057 0.451462 0
M  V30 3601 C 343.751 -4.06697 1.87886 0
M  V30 3602 C 345.495 -4.2446 0.0584616 0
M  V30 3603 C 343.402 -5.56598 1.99883 0
M  V30 3604 H 342.332 -0.747163 0.101311 0
M  V30 3605 H 344.983 -1.59357 0.909819 0
M  V30 3606 H 343.365 -3.95234 -0.246263 0
M  V30 3607 H 344.539 -3.79853 2.60861 0
M  V30 3608 H 342.854 -3.5196 2.22515 0
M  V30 3609 H 345.451 -5.34549 0.127099 0
M  V30 3610 H 345.794 -4.04444 -0.986433 0
M  V30 3611 H 346.327 -3.9146 0.707374 0
M  V30 3612 H 343.066 -5.81494 3.02564 0
M  V30 3613 H 342.586 -5.85242 1.31346 0
M  V30 3614 H 344.265 -6.22022 1.78039 0
M  V30 3615 N 344.397 -0.483516 -1.5 0
M  V30 3616 C 345.644 0.0671597 -2.02389 0
M  V30 3617 C 345.972 1.38597 -1.36459 0
M  V30 3618 O 345.227 1.89634 -0.483458 0
M  V30 3619 C 345.526 0.286226 -3.56252 0
M  V30 3620 C 345.192 -0.952416 -4.40726 0
M  V30 3621 C 343.854 -1.29199 -4.63531 0
M  V30 3622 C 346.206 -1.77655 -4.89988 0
M  V30 3623 C 343.534 -2.45553 -5.32842 0
M  V30 3624 C 345.886 -2.93147 -5.60578 0
M  V30 3625 C 344.55 -3.27505 -5.81633 0
M  V30 3626 H 343.82 0.0245755 -0.740592 0
M  V30 3627 H 346.467 -0.640124 -1.80485 0
M  V30 3628 H 344.772 1.07587 -3.76739 0
M  V30 3629 H 346.469 0.726473 -3.94365 0
M  V30 3630 H 343.059 -0.677881 -4.23205 0
M  V30 3631 H 347.243 -1.52737 -4.72213 0
M  V30 3632 H 342.499 -2.72431 -5.47349 0
M  V30 3633 H 346.673 -3.57344 -5.97727 0
M  V30 3634 H 344.3 -4.1777 -6.35116 0
M  V30 3635 N 345.875 1.56104 -0.216619 0
M  V30 3636 C 346.805 2.23063 0.690296 0
M  V30 3637 C 347.786 1.20072 1.20485 0
M  V30 3638 O 348.971 1.48643 1.24976 0
M  V30 3639 C 346.101 2.90672 1.90072 0
M  V30 3640 C 345.055 4.00092 1.5202 0
M  V30 3641 C 344.381 4.54972 2.80899 0
M  V30 3642 C 345.681 5.17398 0.71391 0
M  V30 3643 H 347.375 2.99109 0.132038 0
M  V30 3644 H 344.921 1.43866 0.0620664 0
M  V30 3645 H 346.874 3.36204 2.54057 0
M  V30 3646 H 345.598 2.12066 2.48386 0
M  V30 3647 H 344.257 3.55283 0.903839 0
M  V30 3648 H 343.905 3.73102 3.37348 0
M  V30 3649 H 343.605 5.28817 2.56176 0
M  V30 3650 H 345.129 5.0322 3.45836 0
M  V30 3651 H 346.543 5.59342 1.25735 0
M  V30 3652 H 344.94 5.97444 0.563951 0
M  V30 3653 H 346.01 4.84088 -0.280527 0
M  V30 3654 N 347.353 -0.0568162 1.57498 0
M  V30 3655 C 348.599 -0.75422 1.88253 0
M  V30 3656 C 348.932 -1.76461 0.810865 0
M  V30 3657 O 348.207 -1.93691 -0.177259 0
M  V30 3658 C 348.49 -1.44878 3.2967 0
M  V30 3659 C 348.343 -0.453789 4.47505 0
M  V30 3660 C 349.662 -2.38994 3.69554 0
M  V30 3661 H 346.781 -0.272724 0.684683 0
M  V30 3662 H 349.423 -0.0172113 1.89992 0
M  V30 3663 H 347.573 -2.077 3.28318 0
M  V30 3664 H 349.245 0.170371 4.60985 0
M  V30 3665 H 347.488 0.229552 4.33192 0
M  V30 3666 H 348.159 -0.977699 5.43273 0
M  V30 3667 H 350.635 -1.86239 3.72095 0
M  V30 3668 H 349.511 -2.84587 4.69363 0
M  V30 3669 H 349.772 -3.24461 3.00296 0
M  V30 3670 N 348.832 -1.54138 -0.328536 0
M  V30 3671 C 349.795 -1.82462 -1.38709 0
M  V30 3672 C 350.795 -0.696229 -1.44946 0
M  V30 3673 O 351.985 -0.964535 -1.4506 0
M  V30 3674 C 349.117 -1.98018 -2.77492 0
M  V30 3675 H 350.31 -2.77037 -1.14851 0
M  V30 3676 H 347.863 -1.45779 -0.563751 0
M  V30 3677 H 348.598 -1.05637 -3.06613 0
M  V30 3678 H 348.383 -2.80124 -2.74359 0
M  V30 3679 H 349.873 -2.21396 -3.54081 0
M  V30 3680 N 350.31 0.590341 -1.46126 0
M  V30 3681 C 351.556 1.35082 -1.51264 0
M  V30 3682 C 351.889 1.93534 -0.160711 0
M  V30 3683 O 351.164 1.76045 0.826956 0
M  V30 3684 C 351.447 2.48588 -2.6053 0
M  V30 3685 C 351.3 1.95221 -4.05227 0
M  V30 3686 C 352.619 3.50662 -2.6594 0
M  V30 3687 H 349.738 0.489803 -0.550692 0
M  V30 3688 H 352.38 0.663887 -1.78024 0
M  V30 3689 H 350.53 3.07186 -2.37843 0
M  V30 3690 H 352.202 1.41139 -4.39178 0
M  V30 3691 H 350.445 1.26101 -4.15068 0
M  V30 3692 H 351.116 2.77121 -4.77397 0
M  V30 3693 H 353.592 3.01934 -2.86313 0
M  V30 3694 H 352.468 4.27551 -3.44226 0
M  V30 3695 H 352.729 4.07399 -1.71694 0
M  V30 3696 N 351.788 1.33704 0.83433 0
M  V30 3697 C 352.738 1.20899 1.93306 0
M  V30 3698 C 353.722 0.110783 1.60518 0
M  V30 3699 O 354.914 0.339331 1.73717 0
M  V30 3700 C 352.043 0.955018 3.29749 0
M  V30 3701 C 351.129 2.09587 3.68692 0
M  V30 3702 N 351.52 3.34621 3.79292 0
M  V30 3703 C 349.818 2.00358 3.98463 0
M  V30 3704 C 350.519 4.09472 4.13167 0
M  V30 3705 N 349.495 3.37954 4.25779 0
M  V30 3706 H 353.297 2.15665 1.99664 0
M  V30 3707 H 350.811 1.25777 1.02732 0
M  V30 3708 H 352.808 0.844208 4.08263 0
M  V30 3709 H 351.468 0.0159317 3.24696 0
M  V30 3710 H 352.479 3.69313 3.63082 0
M  V30 3711 H 349.156 1.14137 4.01596 0
M  V30 3712 H 350.546 5.17391 4.28668 0
M  V30 3713 N 353.266 -1.05314 1.17247 0
M  V30 3714 C 354.176 -2.16538 0.90268 0
M  V30 3715 C 355.192 -1.73523 -0.128707 0
M  V30 3716 O 356.368 -2.01337 0.0502701 0
M  V30 3717 C 353.433 -3.44167 0.418356 0
M  V30 3718 C 352.494 -4.01635 1.51618 0
M  V30 3719 C 351.727 -5.23171 1.05487 0
M  V30 3720 O 351.95 -5.70327 -0.0914715 0
M  V30 3721 O 350.884 -5.72848 1.8474 0
M  V30 3722 H 354.71 -2.42145 1.83302 0
M  V30 3723 H 352.295 -1.15037 0.953246 0
M  V30 3724 H 354.177 -4.21112 0.155726 0
M  V30 3725 H 352.852 -3.20063 -0.48385 0
M  V30 3726 H 351.759 -3.26135 1.83268 0
M  V30 3727 H 353.092 -4.30053 2.39405 0
M  V30 3728 N 354.744 -0.972509 -1.24016 0
M  V30 3729 C 355.674 -0.525548 -2.27509 0
M  V30 3730 C 356.655 0.437262 -1.64384 0
M  V30 3731 O 357.84 0.332343 -1.91335 0
M  V30 3732 C 354.97 0.180448 -3.46831 0
M  V30 3733 C 353.924 -0.698859 -4.22256 0
M  V30 3734 C 353.25 0.138903 -5.3452 0
M  V30 3735 C 354.55 -1.98582 -4.83076 0
M  V30 3736 H 356.244 -1.39058 -2.65148 0
M  V30 3737 H 353.79 -0.67009 -1.27459 0
M  V30 3738 H 355.743 0.504387 -4.18371 0
M  V30 3739 H 354.467 1.07987 -3.08231 0
M  V30 3740 H 353.126 -1.00614 -3.52523 0
M  V30 3741 H 352.774 1.03862 -4.9216 0
M  V30 3742 H 352.474 -0.446259 -5.85903 0
M  V30 3743 H 353.998 0.457404 -6.08884 0
M  V30 3744 H 355.412 -1.72715 -5.46665 0
M  V30 3745 H 353.809 -2.5181 -5.44713 0
M  V30 3746 H 354.879 -2.67769 -4.04262 0
M  V30 3747 N 356.222 1.38976 -0.743202 0
M  V30 3748 C 357.47 1.99948 -0.29417 0
M  V30 3749 C 357.791 1.59279 1.12495 0
M  V30 3750 O 357.061 0.844808 1.76748 0
M  V30 3751 H 355.641 0.739473 -0.105774 0
M  V30 3752 H 358.303 1.699 -0.954986 0
M  V30 3753 H 357.399 3.10142 -0.349056 0
M  V30 3754 N 357.7 0.491464 1.49741 0
M  V30 3755 C 358.65 -0.311086 2.25868 0
M  V30 3756 C 359.634 -0.943857 1.30308 0
M  V30 3757 O 360.826 -0.853035 1.55088 0
M  V30 3758 C 357.955 -1.38059 3.14316 0
M  V30 3759 C 357.041 -0.754541 4.17334 0
M  V30 3760 N 357.432 0.137216 5.05614 0
M  V30 3761 C 355.73 -1.01621 4.34269 0
M  V30 3762 C 356.431 0.494614 5.79593 0
M  V30 3763 N 355.407 -0.135169 5.43432 0
M  V30 3764 H 359.209 0.37555 2.91491 0
M  V30 3765 H 356.723 0.306917 1.59473 0
M  V30 3766 H 358.72 -1.96891 3.67477 0
M  V30 3767 H 357.38 -2.06901 2.50244 0
M  V30 3768 H 358.391 0.50741 5.15408 0
M  V30 3769 H 355.068 -1.69808 3.81407 0
M  V30 3770 H 356.458 1.2236 6.60665 0
M  V30 3771 N 359.178 -1.55987 0.224894 0
M  V30 3772 C 360.141 -2.19178 -0.670348 0
M  V30 3773 C 361.141 -1.15461 -1.11917 0
M  V30 3774 O 362.331 -1.40675 -1.02743 0
M  V30 3775 C 359.463 -2.81777 -1.9187 0
M  V30 3776 H 360.656 -2.99662 -0.119364 0
M  V30 3777 H 358.209 -1.5628 -0.0247128 0
M  V30 3778 H 358.944 -2.05172 -2.51147 0
M  V30 3779 H 358.729 -3.57732 -1.60531 0
M  V30 3780 H 360.219 -3.30205 -2.55645 0
M  V30 3781 N 360.656 0.0484629 -1.57525 0
M  V30 3782 C 361.586 1.0549 -2.08313 0
M  V30 3783 C 362.567 1.38929 -0.981463 0
M  V30 3784 O 363.752 1.48151 -1.25558 0
M  V30 3785 C 360.882 2.36162 -2.54646 0
M  V30 3786 C 359.836 2.17016 -3.68901 0
M  V30 3787 C 359.162 3.53278 -4.01371 0
M  V30 3788 C 360.462 1.57219 -4.98076 0
M  V30 3789 H 362.156 0.632195 -2.92649 0
M  V30 3790 H 359.702 0.302654 -1.40784 0
M  V30 3791 H 361.655 3.06882 -2.88793 0
M  V30 3792 H 360.379 2.80456 -1.67368 0
M  V30 3793 H 359.038 1.48733 -3.35073 0
M  V30 3794 H 358.686 3.95185 -3.11188 0
M  V30 3795 H 358.386 3.41299 -4.78318 0
M  V30 3796 H 359.91 4.25391 -4.38035 0
M  V30 3797 H 361.324 2.17832 -5.30304 0
M  V30 3798 H 359.721 1.55871 -5.79503 0
M  V30 3799 H 360.791 0.535956 -4.81929 0
M  V30 3800 N 362.134 1.5431 0.320358 0
M  V30 3801 C 363.382 1.72327 1.05583 0
M  V30 3802 C 363.703 0.50149 1.88441 0
M  V30 3803 O 362.973 -0.48448 1.89815 0
M  V30 3804 H 361.553 0.635387 0.3928 0
M  V30 3805 H 364.215 1.91621 0.356019 0
M  V30 3806 H 363.311 2.60426 1.72003 0
M  V30 3807 N 363.613 -0.582584 1.46437 0
M  V30 3808 C 364.543 -1.70187 1.59871 0
M  V30 3809 C 365.524 -1.64066 0.449042 0
M  V30 3810 O 366.709 -1.82081 0.6753 0
M  V30 3811 C 363.839 -3.08827 1.58881 0
M  V30 3812 C 362.793 -3.29779 2.72819 0
M  V30 3813 C 362.119 -4.68947 2.5689 0
M  V30 3814 C 363.419 -3.17601 4.1464 0
M  V30 3815 H 365.113 -1.592 2.53566 0
M  V30 3816 H 362.659 -0.764472 1.22032 0
M  V30 3817 H 364.612 -3.86951 1.66873 0
M  V30 3818 H 363.336 -3.20713 0.617306 0
M  V30 3819 H 361.995 -2.54054 2.64296 0
M  V30 3820 H 361.643 -4.77599 1.57823 0
M  V30 3821 H 361.343 -4.83919 3.33312 0
M  V30 3822 H 362.867 -5.4924 2.66773 0
M  V30 3823 H 364.281 -3.8557 4.24274 0
M  V30 3824 H 362.678 -3.44094 4.9165 0
M  V30 3825 H 363.748 -2.14681 4.34788 0
M  V30 3826 N 365.091 -1.34144 -0.827227 0
M  V30 3827 C 366.001 -1.27428 -1.96975 0
M  V30 3828 C 367.017 -0.182728 -1.73038 0
M  V30 3829 O 368.193 -0.408426 -1.97215 0
M  V30 3830 C 365.258 -1.02526 -3.31194 0
M  V30 3831 C 364.319 -2.20796 -3.68168 0
M  V30 3832 C 363.552 -1.97073 -4.95982 0
M  V30 3833 O 363.775 -0.926822 -5.6282 0
M  V30 3834 O 362.709 -2.83912 -5.30733 0
M  V30 3835 H 366.535 -2.23537 -2.05584 0
M  V30 3836 H 364.12 -1.14307 -0.961989 0
M  V30 3837 H 366.002 -0.904026 -4.11589 0
M  V30 3838 H 364.677 -0.0945389 -3.23562 0
M  V30 3839 H 363.584 -2.38477 -2.88235 0
M  V30 3840 H 364.917 -3.12243 -3.8048 0
M  V30 3841 N 366.569 1.04691 -1.17803 0
M  V30 3842 C 367.519 2.10856 -0.867391 0
M  V30 3843 C 368.503 1.601 0.160206 0
M  V30 3844 O 369.695 1.76948 -0.042947 0
M  V30 3845 C 366.824 3.411 -0.388012 0
M  V30 3846 C 365.91 3.9864 -1.44732 0
M  V30 3847 N 366.301 4.30075 -2.66212 0
M  V30 3848 C 364.599 4.26439 -1.30637 0
M  V30 3849 C 365.3 4.76033 -3.34317 0
M  V30 3850 N 364.276 4.76462 -2.61696 0
M  V30 3851 H 368.078 2.33029 -1.79094 0
M  V30 3852 H 365.592 1.22386 -1.0675 0
M  V30 3853 H 367.589 4.16641 -0.146994 0
M  V30 3854 H 366.249 3.20357 0.529271 0
M  V30 3855 H 367.26 4.19917 -3.03134 0
M  V30 3856 H 363.937 4.15056 -0.451129 0
M  V30 3857 H 365.327 5.09427 -4.38103 0
M  V30 3858 N 368.047 0.979072 1.23499 0
M  V30 3859 C 369.272 0.664845 1.96455 0
M  V30 3860 C 369.697 -0.761287 1.72006 0
M  V30 3861 O 369.055 -1.51837 0.990713 0
M  V30 3862 C 369.103 0.959479 3.47601 0
M  V30 3863 O 368.207 0.0508168 4.12369 0
M  V30 3864 H 367.548 0.250185 0.615064 0
M  V30 3865 H 370.078 1.31231 1.5697 0
M  V30 3866 H 370.088 0.895642 3.98048 0
M  V30 3867 H 368.763 1.99876 3.64723 0
M  V30 3868 H 367.34 0.16895 3.72517 0
M  V30 3869 N 369.525 -1.3858 0.750561 0
M  V30 3870 C 370.75 -2.04997 0.314812 0
M  V30 3871 C 371.175 -1.56235 -1.04749 0
M  V30 3872 O 370.533 -0.712981 -1.66692 0
M  V30 3873 C 370.581 -3.58961 0.343415 0
M  V30 3874 O 369.685 -4.07025 -0.663628 0
M  V30 3875 H 369.026 -0.649081 0.139962 0
M  V30 3876 H 371.556 -1.77313 1.02084 0
M  V30 3877 H 371.566 -4.07542 0.193233 0
M  V30 3878 H 370.241 -3.93811 1.33738 0
M  V30 3879 H 368.818 -3.6982 -0.478307 0
M  V30 3880 N 371.003 -0.499398 -1.49478 0
M  V30 3881 C 372.28 0.108629 -1.95298 0
M  V30 3882 C 372.66 1.54282 -1.44084 0
M  V30 3883 O 372.008 2.18944 -0.653908 0
M  V30 3884 C 372.218 0.0229111 -3.48992 0
M  V30 3885 C 373.566 0.197643 -4.2414 0
M  V30 3886 O 374.59 0.0981735 -3.56065 0
M  V30 3887 O 373.449 0.401669 -5.45022 0
M  V30 3888 H 370.543 0.096181 -0.821388 0
M  V30 3889 H 373.089 -0.561822 -1.6013 0
M  V30 3890 H 371.861 -0.977321 -3.78899 0
M  V30 3891 H 371.484 0.733579 -3.90774 0
M  V30 3892 N 372.481 1.55866 -0.233164 0
M  V30 3893 C 373.892 1.847 0.272554 0
M  V30 3894 C 374.243 1.15477 1.58617 0
M  V30 3895 O 373.368 0.42841 2.12117 0
M  V30 3896 C 373.963 3.35071 0.501299 0
M  V30 3897 C 372.522 3.6418 0.951304 0
M  V30 3898 C 371.669 2.77292 0.0208209 0
M  V30 3899 H 374.62 1.52005 -0.456074 0
M  V30 3900 H 374.641 3.55906 1.34577 0
M  V30 3901 H 374.153 3.85424 -0.454936 0
M  V30 3902 H 372.254 3.19293 1.92049 0
M  V30 3903 H 372.367 4.72071 0.817675 0
M  V30 3904 H 370.731 2.49131 0.529723 0
M  V30 3905 H 371.514 3.30448 -0.93054 0
M  V30 3906 N 373.959 -0.0401083 1.57549 0
M  V30 3907 C 375.184 -0.748931 1.93406 0
M  V30 3908 C 375.609 -1.68686 0.832274 0
M  V30 3909 O 374.967 -1.80047 -0.212818 0
M  V30 3910 C 375.015 -1.4916 3.28304 0
M  V30 3911 O 374.119 -2.6042 3.19774 0
M  V30 3912 H 373.46 -0.202212 0.63246 0
M  V30 3913 H 375.99 0.00112086 2.046 0
M  V30 3914 H 376 -1.86395 3.62934 0
M  V30 3915 H 374.675 -0.80364 4.08062 0
M  V30 3916 H 373.252 -2.25808 2.96758 0
M  V30 3917 N 375.437 -1.54477 -0.31217 0
M  V30 3918 C 376.4 -1.83923 -1.36766 0
M  V30 3919 C 377.4 -0.711563 -1.44199 0
M  V30 3920 O 378.59 -0.979866 -1.44029 0
M  V30 3921 C 375.722 -2.0095 -2.75376 0
M  V30 3922 H 376.915 -2.78239 -1.11906 0
M  V30 3923 H 374.468 -1.46369 -0.548257 0
M  V30 3924 H 375.203 -1.08883 -3.05475 0
M  V30 3925 H 374.988 -2.83018 -2.71373 0
M  V30 3926 H 376.478 -2.2514 -3.51713 0
M  V30 3927 N 376.915 0.57481 -1.46744 0
M  V30 3928 C 378.164 1.32898 -1.51727 0
M  V30 3929 C 378.477 1.948 -0.176692 0
M  V30 3930 O 379.683 2.71299 -0.104385 0
M  V30 3931 C 378.139 2.40901 -2.67385 0
M  V30 3932 C 377.747 1.85266 -4.07898 0
M  V30 3933 C 379.491 3.17609 -2.81646 0
M  V30 3934 C 377.398 2.90945 -5.14883 0
M  V30 3935 H 376.328 0.499631 -0.564699 0
M  V30 3936 H 378.979 0.612536 -1.72975 0
M  V30 3937 H 377.361 3.15379 -2.39483 0
M  V30 3938 H 378.535 1.17278 -4.45626 0
M  V30 3939 H 376.85 1.21199 -3.98371 0
M  V30 3940 H 379.447 3.96493 -3.58744 0
M  V30 3941 H 379.79 3.70696 -1.89448 0
M  V30 3942 H 380.323 2.50239 -3.09233 0
M  V30 3943 H 377.062 2.42736 -6.089 0
M  V30 3944 H 376.582 3.57398 -4.81691 0
M  V30 3945 H 378.261 3.54755 -5.41071 0
M  V30 3946 N 378.394 1.34581 0.820102 0
M  V30 3947 C 379.327 1.20735 1.93644 0
M  V30 3948 C 380.305 0.0983343 1.62302 0
M  V30 3949 O 381.489 0.263997 1.86642 0
M  V30 3950 C 378.616 0.856037 3.27704 0
M  V30 3951 C 377.662 1.97521 3.78005 0
M  V30 3952 S 378.495 3.58906 3.97425 0
M  V30 3953 C 379.651 3.25822 5.34407 0
M  V30 3954 H 379.884 2.15231 2.05093 0
M  V30 3955 H 377.417 1.1964 0.97599 0
M  V30 3956 H 379.375 0.660133 4.05157 0
M  V30 3957 H 378.036 -0.0706253 3.14021 0
M  V30 3958 H 377.229 1.68321 4.75062 0
M  V30 3959 H 376.831 2.12875 3.07507 0
M  V30 3960 H 379.123 2.77812 6.17922 0
M  V30 3961 H 380.066 4.22029 5.68592 0
M  V30 3962 H 380.474 2.61932 5.00052 0
M  V30 3963 N 379.872 -1.04064 1.18357 0
M  V30 3964 C 380.835 -2.10243 0.912707 0
M  V30 3965 C 381.835 -1.60477 -0.101928 0
M  V30 3966 O 383.025 -1.73703 0.131517 0
M  V30 3967 C 380.157 -3.38893 0.369387 0
M  V30 3968 H 381.35 -2.35706 1.85426 0
M  V30 3969 H 378.903 -1.20489 0.995594 0
M  V30 3970 H 379.638 -3.19094 -0.578776 0
M  V30 3971 H 379.423 -3.76331 1.1008 0
M  V30 3972 H 380.913 -4.17128 0.198575 0
M  V30 3973 N 381.35 -0.985608 -1.22978 0
M  V30 3974 C 382.761 -0.693593 -1.73338 0
M  V30 3975 C 383.112 0.789935 -1.79595 0
M  V30 3976 O 382.237 1.61771 -1.43733 0
M  V30 3977 C 382.832 -1.25235 -3.14804 0
M  V30 3978 C 381.391 -1.00987 -3.626 0
M  V30 3979 C 380.538 -1.37695 -2.40698 0
M  V30 3980 H 383.489 -1.15884 -1.08428 0
M  V30 3981 H 383.51 -0.627329 -3.75293 0
M  V30 3982 H 383.022 -2.33209 -3.10218 0
M  V30 3983 H 381.123 0.0535565 -3.72562 0
M  V30 3984 H 381.236 -1.66812 -4.49122 0
M  V30 3985 H 379.6 -0.795459 -2.4196 0
M  V30 3986 H 380.383 -2.46657 -2.38779 0
M  V30 3987 N 382.828 1.3818 -0.7579 0
M  V30 3988 C 384.075 2.00019 -0.315985 0
M  V30 3989 C 384.403 1.60163 1.10355 0
M  V30 3990 O 383.658 0.83264 1.77103 0
M  V30 3991 C 383.957 3.55252 -0.391218 0
M  V30 3992 C 383.623 4.14834 -1.76702 0
M  V30 3993 C 382.285 4.30821 -2.14353 0
M  V30 3994 C 384.637 4.47658 -2.66931 0
M  V30 3995 C 381.965 4.76928 -3.41696 0
M  V30 3996 C 384.317 4.95184 -3.93669 0
M  V30 3997 C 382.981 5.09377 -4.31383 0
M  V30 3998 H 382.251 0.731923 -0.115627 0
M  V30 3999 H 384.898 1.65161 -0.969223 0
M  V30 4000 H 383.203 3.90273 0.34558 0
M  V30 4001 H 384.9 4.00988 -0.030805 0
M  V30 4002 H 381.49 4.02808 -1.46435 0
M  V30 4003 H 385.674 4.34904 -2.39106 0
M  V30 4004 H 380.93 4.86103 -3.70829 0
M  V30 4005 H 385.104 5.19551 -4.63724 0
M  V30 4006 H 382.731 5.44865 -5.30119 0
M  V30 4007 N 384.306 0.507319 1.49211 0
M  V30 4008 C 385.536 -0.0315292 2.06576 0
M  V30 4009 C 385.944 -1.30791 1.36713 0
M  V30 4010 O 385.287 -1.78324 0.441181 0
M  V30 4011 C 385.349 -0.349104 3.57801 0
M  V30 4012 C 385.013 0.830475 4.49391 0
M  V30 4013 C 386.01 1.72271 4.90529 0
M  V30 4014 C 383.695 1.03107 4.91604 0
M  V30 4015 C 385.689 2.79964 5.72625 0
M  V30 4016 C 383.376 2.11116 5.73475 0
M  V30 4017 C 384.374 2.99379 6.1389 0
M  V30 4018 O 384.062 4.05523 6.94123 0
M  V30 4019 H 383.794 0.0201002 0.675701 0
M  V30 4020 H 386.348 0.705737 1.92895 0
M  V30 4021 H 384.578 -1.14005 3.69513 0
M  V30 4022 H 386.267 -0.827319 3.97379 0
M  V30 4023 H 387.033 1.57958 4.58557 0
M  V30 4024 H 382.912 0.353417 4.59643 0
M  V30 4025 H 386.456 3.48884 6.04091 0
M  V30 4026 H 382.353 2.25421 6.0486 0
M  V30 4027 H 383.121 4.02953 7.1244 0
M  V30 4028 N 385.784 -1.5574 0.241426 0
M  V30 4029 C 386.716 -2.18469 -0.693091 0
M  V30 4030 C 387.729 -1.15942 -1.14286 0
M  V30 4031 O 388.918 -1.42832 -1.07058 0
M  V30 4032 C 386.018 -2.7696 -1.95311 0
M  V30 4033 C 385.191 -4.04853 -1.65568 0
M  V30 4034 C 384.25 -4.47715 -2.76474 0
M  V30 4035 O 383.276 -5.14205 -2.44094 0
M  V30 4036 N 384.478 -4.15044 -4.05855 0
M  V30 4037 H 387.243 -2.99292 -0.156388 0
M  V30 4038 H 384.804 -1.61784 0.0611752 0
M  V30 4039 H 386.796 -3.02594 -2.68736 0
M  V30 4040 H 385.366 -2.00326 -2.39975 0
M  V30 4041 H 384.586 -3.86865 -0.756886 0
M  V30 4042 H 385.874 -4.88246 -1.43153 0
M  V30 4043 H 385.272 -3.61654 -4.34998 0
M  V30 4044 H 383.829 -4.45526 -4.75762 0
M  V30 4045 N 387.262 0.0317525 -1.57568 0
M  V30 4046 C 388.508 0.718712 -1.90279 0
M  V30 4047 C 388.863 1.73108 -0.839727 0
M  V30 4048 O 388.156 1.90997 0.15188 0
M  V30 4049 C 388.35 1.43167 -3.27472 0
M  V30 4050 C 388.179 0.489869 -4.47024 0
M  V30 4051 C 386.949 0.111909 -5.05176 0
M  V30 4052 C 389.147 -0.230592 -5.13783 0
M  V30 4053 N 387.129 -0.831427 -6.08244 0
M  V30 4054 C 388.5 -1.02968 -6.1139 0
M  V30 4055 C 390.555 -0.297821 -4.97008 0
M  V30 4056 C 389.258 -1.88982 -6.9403 0
M  V30 4057 C 391.284 -1.14507 -5.80209 0
M  V30 4058 C 390.646 -1.9321 -6.77384 0
M  V30 4059 H 386.745 0.237177 -0.745165 0
M  V30 4060 H 389.329 -0.0211267 -1.94689 0
M  V30 4061 H 387.5 2.14199 -3.23996 0
M  V30 4062 H 389.232 2.0708 -3.47707 0
M  V30 4063 H 385.987 0.473513 -4.71227 0
M  V30 4064 H 386.411 -1.29752 -6.6445 0
M  V30 4065 H 391.053 0.296346 -4.2176 0
M  V30 4066 H 388.771 -2.4948 -7.68626 0
M  V30 4067 H 392.357 -1.20059 -5.69278 0
M  V30 4068 H 391.237 -2.57711 -7.40645 0
M  V30 4069 N 388.74 1.54641 0.303973 0
M  V30 4070 C 389.673 1.80263 1.3993 0
M  V30 4071 C 390.651 0.653657 1.48883 0
M  V30 4072 O 391.835 0.893284 1.6599 0
M  V30 4073 C 388.962 1.9367 2.77866 0
M  V30 4074 C 388.008 3.16078 2.86351 0
M  V30 4075 S 388.841 4.74219 2.4875 0
M  V30 4076 C 389.997 4.90558 3.88721 0
M  V30 4077 H 390.23 2.72886 1.17986 0
M  V30 4078 H 387.763 1.46014 0.501918 0
M  V30 4079 H 389.721 2.0208 3.57315 0
M  V30 4080 H 388.382 1.01991 2.9708 0
M  V30 4081 H 387.575 3.22252 3.87517 0
M  V30 4082 H 387.177 3.06099 2.14893 0
M  V30 4083 H 389.469 4.74398 4.83687 0
M  V30 4084 H 390.412 5.92651 3.87518 0
M  V30 4085 H 390.82 4.18728 3.78585 0
M  V30 4086 N 390.218 -0.567019 1.47046 0
M  V30 4087 C 391.495 -1.3276 1.43646 0
M  V30 4088 C 391.875 -2.1071 0.128186 0
M  V30 4089 O 391.223 -2.10441 -0.890326 0
M  V30 4090 C 391.433 -2.2404 2.67595 0
M  V30 4091 C 392.781 -2.85372 3.14401 0
M  V30 4092 O 393.805 -2.34346 2.68254 0
M  V30 4093 O 392.664 -3.78091 3.946 0
M  V30 4094 H 389.758 -0.597293 0.571988 0
M  V30 4095 H 392.304 -0.586735 1.59234 0
M  V30 4096 H 391.076 -1.65975 3.54356 0
M  V30 4097 H 390.699 -3.05439 2.54544 0
M  V30 4098 N 391.696 -1.35014 -0.812953 0
M  V30 4099 C 392.924 -1.31031 -1.6012 0
M  V30 4100 C 393.339 0.113558 -1.88458 0
M  V30 4101 O 392.696 1.06363 -1.48301 0
M  V30 4102 C 392.747 -2.10872 -2.93624 0
M  V30 4103 O 392.468 -3.47706 -2.66518 0
M  V30 4104 C 393.969 -2.14401 -3.88004 0
M  V30 4105 H 391.189 -0.45037 -0.497401 0
M  V30 4106 H 393.733 -1.77775 -1.01076 0
M  V30 4107 H 391.888 -1.67744 -3.492 0
M  V30 4108 H 392.302 -3.89097 -3.51715 0
M  V30 4109 H 393.776 -2.74669 -4.78812 0
M  V30 4110 H 394.253 -1.14105 -4.24119 0
M  V30 4111 H 394.859 -2.57662 -3.38364 0
M  V30 4112 N 393.175 1.03435 -1.18907 0
M  V30 4113 C 394.085 2.15075 -0.937015 0
M  V30 4114 C 395.101 1.73706 0.101085 0
M  V30 4115 O 396.277 2.01232 -0.0822948 0
M  V30 4116 C 393.342 3.43458 -0.473057 0
M  V30 4117 C 392.403 3.99172 -1.57989 0
M  V30 4118 C 391.636 5.21427 -1.13797 0
M  V30 4119 O 391.859 5.704 0.000725941 0
M  V30 4120 O 390.793 5.69837 -1.9383 0
M  V30 4121 H 394.619 2.39198 -1.87131 0
M  V30 4122 H 392.204 1.13506 -0.971427 0
M  V30 4123 H 394.086 4.20811 -0.222702 0
M  V30 4124 H 392.761 3.20793 0.432869 0
M  V30 4125 H 391.668 3.23178 -1.88433 0
M  V30 4126 H 393.001 4.2619 -2.46217 0
M  V30 4127 N 394.653 0.992116 1.22453 0
M  V30 4128 C 395.601 0.534644 2.26372 0
M  V30 4129 C 396.595 -0.414293 1.64256 0
M  V30 4130 O 397.801 -0.286899 1.77699 0
M  V30 4131 H 394.176 0.154502 0.735957 0
M  V30 4132 H 396.147 1.42256 2.62309 0
M  V30 4133 C 394.896 -0.135815 3.47435 0
M  V30 4134 H 394.219 0.585311 3.95492 0
M  V30 4135 H 395.659 -0.419374 4.21921 0
M  V30 4136 C 394.118 -1.37089 3.07747 0
M  V30 4137 O 394.648 -2.46629 3.17076 0
M  V30 4138 N 392.854 -1.24585 2.62539 0
M  V30 4139 H 392.401 -0.354542 2.55149 0
M  V30 4140 H 392.359 -2.07327 2.36353 0
M  V30 4141 N 396.131 -1.37776 0.765217 0
M  V30 4142 C 397.378 -1.99849 0.326588 0
M  V30 4143 C 397.706 -1.60746 -1.09504 0
M  V30 4144 O 396.961 -0.84202 -1.76659 0
M  V30 4145 C 397.26 -3.5504 0.410053 0
M  V30 4146 C 396.926 -4.13891 1.78899 0
M  V30 4147 C 395.588 -4.29678 2.16635 0
M  V30 4148 C 397.94 -4.46236 2.69301 0
M  V30 4149 C 395.268 -4.7511 3.44221 0
M  V30 4150 C 397.62 -4.93089 3.9629 0
M  V30 4151 C 396.284 -5.07082 4.34078 0
M  V30 4152 H 395.554 -0.7313 0.119507 0
M  V30 4153 H 398.201 -1.64645 0.977968 0
M  V30 4154 H 396.506 -3.90451 -0.324878 0
M  V30 4155 H 398.203 -4.00966 0.0520699 0
M  V30 4156 H 394.793 -4.02026 1.48569 0
M  V30 4157 H 398.977 -4.3363 2.41409 0
M  V30 4158 H 394.233 -4.84129 3.73402 0
M  V30 4159 H 398.407 -5.17084 4.66472 0
M  V30 4160 H 396.034 -5.42046 5.33001 0
M  V30 4161 N 397.609 -0.515225 -1.4894 0
M  V30 4162 C 398.855 0.0242508 -2.02785 0
M  V30 4163 C 399.188 1.35323 -1.39289 0
M  V30 4164 O 398.463 1.87041 -0.533469 0
M  V30 4165 C 398.746 0.16184 -3.59736 0
M  V30 4166 C 398.599 -1.19127 -4.33738 0
M  V30 4167 C 399.918 0.895719 -4.30888 0
M  V30 4168 H 397.037 0.00733914 -0.736963 0
M  V30 4169 H 399.679 -0.669395 -1.77818 0
M  V30 4170 H 397.829 0.752624 -3.8114 0
M  V30 4171 H 399.501 -1.82202 -4.23792 0
M  V30 4172 H 397.744 -1.77695 -3.95736 0
M  V30 4173 H 398.415 -1.04815 -5.41957 0
M  V30 4174 H 400.891 0.394528 -4.14225 0
M  V30 4175 H 399.767 0.960859 -5.40425 0
M  V30 4176 H 400.028 1.9427 -3.97129 0
M  V30 4177 N 399.087 1.5561 -0.249682 0
M  V30 4178 C 400.017 2.24477 0.642826 0
M  V30 4179 C 400.998 1.22601 1.17911 0
M  V30 4180 O 402.183 1.5126 1.21795 0
M  V30 4181 C 399.313 2.94638 1.83863 0
M  V30 4182 C 398.267 4.03227 1.435 0
M  V30 4183 C 397.593 4.60828 2.71186 0
M  V30 4184 C 398.893 5.18796 0.604002 0
M  V30 4185 H 400.587 2.99321 0.0685625 0
M  V30 4186 H 398.133 1.43965 0.0315363 0
M  V30 4187 H 400.086 3.41517 2.46868 0
M  V30 4188 H 398.81 2.17287 2.43832 0
M  V30 4189 H 397.469 3.57121 0.828275 0
M  V30 4190 H 397.117 3.80174 3.29358 0
M  V30 4191 H 396.817 5.34132 2.44901 0
M  V30 4192 H 398.341 5.10442 3.35084 0
M  V30 4193 H 399.755 5.61883 1.13842 0
M  V30 4194 H 398.152 5.98506 0.437097 0
M  V30 4195 H 399.222 4.83384 -0.383147 0
M  V30 4196 N 400.565 -0.0233959 1.57583 0
M  V30 4197 C 401.976 -0.56927 1.77809 0
M  V30 4198 C 402.327 -1.75284 0.881472 0
M  V30 4199 O 401.452 -2.1626 0.0777805 0
M  V30 4200 C 402.047 -1.03949 3.22459 0
M  V30 4201 C 400.606 -1.53084 3.43864 0
M  V30 4202 C 399.753 -0.471454 2.73263 0
M  V30 4203 H 402.704 0.202825 1.57399 0
M  V30 4204 H 402.725 -1.90661 3.29285 0
M  V30 4205 H 402.237 -0.177865 3.87692 0
M  V30 4206 H 400.338 -2.41414 2.83814 0
M  V30 4207 H 400.451 -1.57443 4.52491 0
M  V30 4208 H 398.815 -0.927788 2.37201 0
M  V30 4209 H 399.598 0.380808 3.41181 0
M  V30 4210 N 402.043 -1.548 -0.295768 0
M  V30 4211 C 403.32 -1.65014 -1.05023 0
M  V30 4212 C 403.7 -0.501805 -2.05049 0
M  V30 4213 O 403.048 0.500869 -2.22943 0
M  V30 4214 C 403.258 -3.03252 -1.72741 0
M  V30 4215 C 404.606 -3.60242 -2.24746 0
M  V30 4216 O 405.63 -3.05737 -1.82765 0
M  V30 4217 O 404.489 -4.55687 -3.01681 0
M  V30 4218 H 401.583 -0.669314 -0.485744 0
M  V30 4219 H 404.129 -1.67144 -0.293438 0
M  V30 4220 H 402.901 -3.7827 -1.00138 0
M  V30 4221 H 402.524 -3.04922 -2.55163 0
M  V30 4222 N 403.521 0.559213 -1.47345 0
M  V30 4223 C 404.798 1.31997 -1.44348 0
M  V30 4224 C 405.178 2.1064 -0.139358 0
M  V30 4225 O 404.526 2.1091 0.879153 0
M  V30 4226 C 404.736 2.22618 -2.68779 0
M  V30 4227 C 406.084 2.83701 -3.1591 0
M  V30 4228 O 407.108 2.32921 -2.69493 0
M  V30 4229 O 405.967 3.75993 -3.966 0
M  V30 4230 H 403.061 0.594251 -0.575147 0
M  V30 4231 H 405.607 0.578282 -1.59543 0
M  V30 4232 H 404.379 1.64093 -3.55231 0
M  V30 4233 H 404.002 3.04085 -2.5616 0
M  V30 4234 N 404.999 1.35443 0.805782 0
M  V30 4235 C 406.276 1.19325 1.54987 0
M  V30 4236 C 406.656 -0.227294 2.09873 0
M  V30 4237 O 406.004 -1.2309 1.92512 0
M  V30 4238 C 406.214 2.26196 2.65775 0
M  V30 4239 C 407.562 2.62043 3.34094 0
M  V30 4240 O 408.586 2.25115 2.76046 0
M  V30 4241 O 407.445 3.25542 4.38958 0
M  V30 4242 H 404.539 0.463623 0.684823 0
M  V30 4243 H 407.085 1.47127 0.845674 0
M  V30 4244 H 405.857 3.21471 2.23096 0
M  V30 4245 H 405.48 1.99667 3.43829 0
M  V30 4246 N 406.477 -1.02803 1.19454 0
M  V30 4247 C 407.893 -1.28473 0.946937 0
M  V30 4248 C 408.093 -1.97881 -0.380202 0
M  V30 4249 O 407.149 -2.26719 -1.11151 0
M  V30 4250 C 408.462 -2.13099 2.12154 0
M  V30 4251 C 410.01 -2.26404 2.16126 0
M  V30 4252 C 410.485 -3.14402 3.33039 0
M  V30 4253 N 411.976 -3.21991 3.32981 0
M  V30 4254 C 412.711 -3.90272 4.20089 0
M  V30 4255 N 412.207 -4.60777 5.17355 0
M  V30 4256 N 414 -3.8668 4.07964 0
M  V30 4257 H 406.151 -0.561665 2.04839 0
M  V30 4258 H 408.414 -0.310438 0.89573 0
M  V30 4259 H 408.12 -1.69422 3.08203 0
M  V30 4260 H 407.994 -3.13813 2.09287 0
M  V30 4261 H 410.381 -2.69311 1.20647 0
M  V30 4262 H 410.462 -1.25237 2.23045 0
M  V30 4263 H 410.106 -2.72204 4.28798 0
M  V30 4264 H 410.036 -4.1563 3.23356 0
M  V30 4265 H 412.527 -2.71778 2.62574 0
M  V30 4266 H 412.84 -5.10513 5.80169 0
M  V30 4267 H 411.185 -4.5964 5.21302 0
M  V30 4268 H 414.376 -3.30739 3.31254 0
M  V30 4269 H 414.549 -4.39621 4.76064 0
M  V30 4270 N 407.956 -0.998596 -1.21925 0
M  V30 4271 C 409.372 -0.710303 -1.42923 0
M  V30 4272 C 409.572 0.716933 -1.88314 0
M  V30 4273 O 408.628 1.48712 -2.04062 0
M  V30 4274 C 409.941 -1.72072 -2.466 0
M  V30 4275 C 411.489 -1.73681 -2.60392 0
M  V30 4276 C 411.964 -2.73601 -3.67296 0
M  V30 4277 N 413.455 -2.7223 -3.7476 0
M  V30 4278 C 414.19 -3.46206 -4.57087 0
M  V30 4279 N 413.686 -4.29802 -5.43362 0
M  V30 4280 N 415.479 -3.34886 -4.51451 0
M  V30 4281 H 407.63 -1.92028 -0.9077 0
M  V30 4282 H 409.893 -0.828487 -0.460775 0
M  V30 4283 H 409.599 -2.74231 -2.20206 0
M  V30 4284 H 409.473 -1.51818 -3.45299 0
M  V30 4285 H 411.86 -0.722173 -2.86127 0
M  V30 4286 H 411.941 -1.98005 -1.61949 0
M  V30 4287 H 411.585 -3.75217 -3.42307 0
M  V30 4288 H 411.515 -2.46545 -4.65321 0
M  V30 4289 H 414.006 -2.11576 -3.1312 0
M  V30 4290 H 414.319 -4.83061 -6.03218 0
M  V30 4291 H 412.664 -4.33887 -5.42925 0
M  V30 4292 H 415.855 -2.69015 -3.83078 0
M  V30 4293 H 416.028 -3.92796 -5.15379 0
M  V30 4294 N 409.434 1.37368 -0.772513 0
M  V30 4295 C 410.682 1.99279 -0.336516 0
M  V30 4296 C 411.003 1.6163 1.09091 0
M  V30 4297 O 410.273 0.882109 1.74916 0
M  V30 4298 H 408.853 0.737063 -0.121435 0
M  V30 4299 H 411.515 1.67836 -0.990809 0
M  V30 4300 H 410.611 3.09332 -0.414763 0
M  V30 4301 N 410.912 0.523116 1.48665 0
M  V30 4302 C 412.161 -0.01544 2.01694 0
M  V30 4303 C 412.474 -1.35975 1.40606 0
M  V30 4304 O 413.68 -1.98627 1.85093 0
M  V30 4305 C 412.136 -0.0779303 3.59816 0
M  V30 4306 C 411.744 1.26107 4.29885 0
M  V30 4307 C 413.488 -0.565678 4.20714 0
M  V30 4308 C 411.395 1.15954 5.79921 0
M  V30 4309 H 410.325 -0.00954163 0.75394 0
M  V30 4310 H 412.976 0.665865 1.70993 0
M  V30 4311 H 411.358 -0.824165 3.87329 0
M  V30 4312 H 412.532 2.02233 4.14051 0
M  V30 4313 H 410.847 1.68401 3.80828 0
M  V30 4314 H 413.444 -0.6595 5.30617 0
M  V30 4315 H 413.787 -1.56984 3.85567 0
M  V30 4316 H 414.32 0.12467 3.97605 0
M  V30 4317 H 411.059 2.13864 6.19631 0
M  V30 4318 H 410.579 0.439529 5.98187 0
M  V30 4319 H 412.258 0.847361 6.41427 0
M  V30 4320 N 412.39 -1.55475 0.257931 0
M  V30 4321 C 413.322 -2.19192 -0.669881 0
M  V30 4322 C 414.335 -1.17148 -1.1305 0
M  V30 4323 O 415.524 -1.43959 -1.05537 0
M  V30 4324 C 412.624 -2.79016 -1.92363 0
M  V30 4325 C 411.797 -4.06586 -1.61265 0
M  V30 4326 C 410.856 -4.50622 -2.7171 0
M  V30 4327 O 409.882 -5.16765 -2.38627 0
M  V30 4328 N 411.084 -4.19325 -4.01431 0
M  V30 4329 H 413.849 -2.99441 -0.124635 0
M  V30 4330 H 411.41 -1.6171 0.0783311 0
M  V30 4331 H 413.402 -3.05427 -2.65511 0
M  V30 4332 H 411.972 -2.0286 -2.37837 0
M  V30 4333 H 411.192 -3.87646 -0.715811 0
M  V30 4334 H 412.48 -4.89737 -1.37967 0
M  V30 4335 H 411.878 -3.66247 -4.31138 0
M  V30 4336 H 410.435 -4.50547 -4.7101 0
M  V30 4337 N 413.868 0.0150385 -1.57593 0
M  V30 4338 C 414.8 1.03912 -2.04291 0
M  V30 4339 C 415.813 1.31618 -0.958146 0
M  V30 4340 O 417.002 1.28859 -1.23522 0
M  V30 4341 C 414.102 2.37749 -2.41514 0
M  V30 4342 C 413.275 2.29198 -3.72541 0
M  V30 4343 C 412.334 3.45598 -3.96797 0
M  V30 4344 O 411.36 3.24461 -4.67668 0
M  V30 4345 N 412.562 4.67945 -3.43523 0
M  V30 4346 H 415.327 0.64099 -2.92765 0
M  V30 4347 H 412.888 0.20272 -1.60626 0
M  V30 4348 H 414.88 3.14364 -2.54867 0
M  V30 4349 H 413.45 2.69357 -1.58637 0
M  V30 4350 H 412.67 1.3759 -3.69408 0
M  V30 4351 H 413.958 2.20642 -4.5847 0
M  V30 4352 H 413.356 4.88017 -2.86104 0
M  V30 4353 H 411.913 5.41878 -3.62232 0
M  V30 4354 N 415.346 1.54954 0.287554 0
M  V30 4355 C 416.276 1.89839 1.35954 0
M  V30 4356 C 417.257 0.758675 1.52244 0
M  V30 4357 O 418.442 1.01557 1.65529 0
M  V30 4358 C 415.572 2.15753 2.72154 0
M  V30 4359 C 414.526 3.3159 2.70614 0
M  V30 4360 C 413.852 3.42952 4.10229 0
M  V30 4361 C 415.152 4.68359 2.31165 0
M  V30 4362 H 416.846 2.79625 1.07007 0
M  V30 4363 H 414.392 1.3454 0.513316 0
M  V30 4364 H 416.345 2.38743 3.47246 0
M  V30 4365 H 415.069 1.22752 3.02654 0
M  V30 4366 H 413.728 3.08545 1.97979 0
M  V30 4367 H 413.376 2.47443 4.37928 0
M  V30 4368 H 413.076 4.20826 4.10097 0
M  V30 4369 H 414.6 3.68218 4.87081 0
M  V30 4370 H 416.014 4.9099 2.95976 0
M  V30 4371 H 414.411 5.49044 2.42221 0
M  V30 4372 H 415.481 4.68165 1.26291 0
M  V30 4373 N 416.824 -0.551391 1.4764 0
M  V30 4374 C 418.054 -1.33163 1.57959 0
M  V30 4375 C 418.462 -1.87785 0.23094 0
M  V30 4376 O 417.805 -1.65996 -0.786825 0
M  V30 4377 C 417.867 -2.53449 2.54958 0
M  V30 4378 C 417.531 -2.20071 4.00522 0
M  V30 4379 C 418.528 -1.77017 4.88836 0
M  V30 4380 C 416.213 -2.31252 4.45901 0
M  V30 4381 C 418.207 -1.4558 6.20552 0
M  V30 4382 C 415.894 -1.99427 5.77644 0
M  V30 4383 C 416.892 -1.56659 6.64791 0
M  V30 4384 O 416.58 -1.25242 7.94084 0
M  V30 4385 H 416.312 -0.412022 0.535923 0
M  V30 4386 H 418.866 -0.674186 1.9402 0
M  V30 4387 H 417.096 -3.22104 2.13976 0
M  V30 4388 H 418.785 -3.15523 2.55343 0
M  V30 4389 H 419.551 -1.67867 4.55023 0
M  V30 4390 H 415.43 -2.63498 3.78272 0
M  V30 4391 H 418.974 -1.12125 6.8853 0
M  V30 4392 H 414.871 -2.08211 6.10998 0
M  V30 4393 H 415.639 -1.38822 8.06642 0
M  V30 4394 N 418.302 -1.35869 -0.798587 0
M  V30 4395 C 419.55 -1.29332 -1.55298 0
M  V30 4396 C 419.871 0.129729 -1.94568 0
M  V30 4397 O 419.141 1.06796 -1.6423 0
M  V30 4398 H 417.721 -0.475737 -0.57592 0
M  V30 4399 H 420.383 -1.70062 -0.952093 0
M  V30 4400 H 419.479 -1.91458 -2.46476 0
M  V30 4401 N 419.78 1.02168 -1.19998 0
M  V30 4402 C 421.028 1.75338 -1.00504 0
M  V30 4403 C 421.349 1.89387 0.464506 0
M  V30 4404 O 420.619 1.43268 1.33608 0
M  V30 4405 H 419.199 0.649564 -0.368885 0
M  V30 4406 H 421.861 1.23205 -1.51018 0
M  V30 4407 H 420.957 2.75892 -1.45912 0
M  V30 4408 N 421.258 1.00505 1.21394 0
M  V30 4409 C 422.168 0.574806 2.27449 0
M  V30 4410 C 423.184 -0.382206 1.6975 0
M  V30 4411 O 424.36 -0.246027 1.99892 0
M  V30 4412 C 421.425 -0.0917414 3.46579 0
M  V30 4413 C 420.486 0.909758 4.1955 0
M  V30 4414 C 419.719 0.274924 5.32991 0
M  V30 4415 O 419.942 -0.928254 5.62796 0
M  V30 4416 O 418.876 0.985877 5.93771 0
M  V30 4417 H 422.702 1.45744 2.66444 0
M  V30 4418 H 420.287 0.773923 1.27792 0
M  V30 4419 H 422.169 -0.464551 4.18832 0
M  V30 4420 H 420.844 -0.948755 3.09484 0
M  V30 4421 H 419.751 1.33372 3.49518 0
M  V30 4422 H 421.084 1.73636 4.60555 0
M  V30 4423 N 422.737 -1.36956 0.779787 0
M  V30 4424 C 423.962 -2.04283 0.358224 0
M  V30 4425 C 424.387 -1.58422 -1.01411 0
M  V30 4426 O 423.745 -0.748179 -1.65142 0
M  V30 4427 C 423.793 -3.58152 0.419479 0
M  V30 4428 O 422.897 -4.08342 -0.577142 0
M  V30 4429 H 422.238 -0.645967 0.153698 0
M  V30 4430 H 424.768 -1.75108 1.05822 0
M  V30 4431 H 424.778 -4.07041 0.279636 0
M  V30 4432 H 423.453 -3.90886 1.42061 0
M  V30 4433 H 422.03 -3.70751 -0.399755 0
M  V30 4434 N 424.215 -0.530993 -1.48385 0
M  V30 4435 C 425.463 0.00273189 -2.021 0
M  V30 4436 C 425.784 1.34672 -1.41027 0
M  V30 4437 O 425.054 1.8724 -0.576012 0
M  V30 4438 H 423.634 0.00399774 -0.746989 0
M  V30 4439 H 426.296 -0.695054 -1.82085 0
M  V30 4440 H 425.392 0.11031 -3.11905 0
M  V30 4441 N 425.693 1.55336 -0.266172 0
M  V30 4442 C 426.94 1.99397 0.353158 0
M  V30 4443 C 427.268 1.15451 1.56529 0
M  V30 4444 O 426.523 0.209974 1.9457 0
M  V30 4445 C 426.822 3.48606 0.787957 0
M  V30 4446 C 426.488 4.49773 -0.318541 0
M  V30 4447 C 425.15 4.77158 -0.62239 0
M  V30 4448 C 427.502 5.10212 -1.06459 0
M  V30 4449 C 424.83 5.62251 -1.67602 0
M  V30 4450 C 427.182 5.96449 -2.10788 0
M  V30 4451 C 425.846 6.22158 -2.41817 0
M  V30 4452 H 425.116 0.729644 0.12923 0
M  V30 4453 H 427.763 1.87732 -0.37802 0
M  V30 4454 H 426.068 3.57701 1.59866 0
M  V30 4455 H 427.765 3.80098 1.27775 0
M  V30 4456 H 424.355 4.2854 -0.0715925 0
M  V30 4457 H 428.539 4.89086 -0.843098 0
M  V30 4458 H 423.795 5.80419 -1.92155 0
M  V30 4459 H 427.969 6.42317 -2.69076 0
M  V30 4460 H 425.596 6.87888 -3.23596 0
M  V30 4461 N 427.171 -0.0066808 1.57599 0
M  V30 4462 C 428.582 -0.550379 1.78403 0
M  V30 4463 C 428.933 -1.74339 0.900014 0
M  V30 4464 O 428.058 -2.16166 0.100713 0
M  V30 4465 C 428.653 -1.00523 3.23544 0
M  V30 4466 C 427.212 -1.49428 3.45468 0
M  V30 4467 C 426.359 -0.442444 2.73748 0
M  V30 4468 H 429.31 0.219508 1.57175 0
M  V30 4469 H 429.331 -1.87157 3.31289 0
M  V30 4470 H 428.843 -0.136735 3.87859 0
M  V30 4471 H 426.944 -2.3839 2.86358 0
M  V30 4472 H 427.057 -1.52635 4.54136 0
M  V30 4473 H 425.421 -0.902578 2.38171 0
M  V30 4474 H 426.204 0.416973 3.40758 0
M  V30 4475 N 428.649 -1.55105 -0.279332 0
M  V30 4476 C 429.877 -1.7943 -1.03017 0
M  V30 4477 C 430.292 -0.564456 -1.80165 0
M  V30 4478 O 429.649 0.466326 -1.76442 0
M  V30 4479 C 429.7 -3.0155 -1.99374 0
M  V30 4480 O 429.421 -4.19784 -1.25352 0
M  V30 4481 C 430.922 -3.3843 -2.86321 0
M  V30 4482 H 428.142 -0.597882 -0.304594 0
M  V30 4483 H 430.686 -2.02105 -0.312035 0
M  V30 4484 H 428.841 -2.81019 -2.66659 0
M  V30 4485 H 429.255 -4.88781 -1.90246 0
M  V30 4486 H 430.729 -4.27066 -3.49741 0
M  V30 4487 H 431.206 -2.57549 -3.5576 0
M  V30 4488 H 431.812 -3.61197 -2.24536 0
M  V30 4489 N 430.127 0.543554 -1.4793 0
M  V30 4490 C 431.074 1.64942 -1.6144 0
M  V30 4491 C 432.044 1.59692 -0.456903 0
M  V30 4492 O 433.229 1.78321 -0.678688 0
M  V30 4493 C 430.369 3.03238 -1.64744 0
M  V30 4494 C 429.482 3.18823 -2.91506 0
M  V30 4495 C 428.617 4.47599 -2.86057 0
M  V30 4496 C 427.656 4.56664 -4.07584 0
M  V30 4497 N 426.793 5.76811 -4.00292 0
M  V30 4498 H 431.633 1.52733 -2.55884 0
M  V30 4499 H 429.17 0.7438 -1.2691 0
M  V30 4500 H 431.128 3.83339 -1.64641 0
M  V30 4501 H 429.758 3.1425 -0.738017 0
M  V30 4502 H 428.81 2.32064 -3.01414 0
M  V30 4503 H 430.122 3.21384 -3.81463 0
M  V30 4504 H 429.276 5.35975 -2.84281 0
M  V30 4505 H 428.015 4.47538 -1.93807 0
M  V30 4506 H 427.02 3.66697 -4.09651 0
M  V30 4507 H 428.245 4.58474 -5.00978 0
M  V30 4508 H 426.191 5.77673 -3.10853 0
M  V30 4509 H 426.108 5.80808 -4.8394 0
M  V30 4510 H 427.376 6.67512 -4.02553 0
M  V30 4511 N 431.605 1.3629 0.791371 0
M  V30 4512 C 432.538 1.24816 1.9104 0
M  V30 4513 C 433.516 0.132739 1.62057 0
M  V30 4514 O 434.7 0.303527 1.8604 0
M  V30 4515 C 431.827 0.925355 3.25814 0
M  V30 4516 C 430.873 2.05495 3.7373 0
M  V30 4517 S 431.706 3.67255 3.89723 0
M  V30 4518 C 432.862 3.37084 5.27376 0
M  V30 4519 H 433.095 2.19533 2.00481 0
M  V30 4520 H 430.628 1.21684 0.950393 0
M  V30 4521 H 432.586 0.745924 4.03666 0
M  V30 4522 H 431.247 -0.00400098 3.141 0
M  V30 4523 H 430.44 1.7836 4.71385 0
M  V30 4524 H 430.042 2.1935 3.02922 0
M  V30 4525 H 432.334 2.90856 6.1189 0
M  V30 4526 H 433.277 4.33995 5.59512 0
M  V30 4527 H 433.685 2.7248 4.94383 0
M  V30 4528 N 433.083 -1.0153 1.20538 0
M  V30 4529 C 434.494 -1.56598 1.01657 0
M  V30 4530 C 434.845 -1.91505 -0.426668 0
M  V30 4531 O 433.97 -1.72375 -1.30827 0
M  V30 4532 C 434.565 -2.84542 1.83905 0
M  V30 4533 C 433.124 -3.36133 1.69386 0
M  V30 4534 C 432.271 -2.09427 1.81757 0
M  V30 4535 H 435.222 -0.838974 1.34711 0
M  V30 4536 H 435.243 -3.56004 1.34319 0
M  V30 4537 H 434.755 -2.59105 2.8894 0
M  V30 4538 H 432.856 -3.66528 0.669933 0
M  V30 4539 H 432.969 -4.08248 2.50739 0
M  V30 4540 H 431.333 -2.21941 1.24957 0
M  V30 4541 H 432.116 -1.86414 2.88279 0
M  V30 4542 N 434.561 -1.01147 -1.20859 0
M  V30 4543 C 435.972 -0.730205 -1.71828 0
M  V30 4544 C 436.323 0.751662 -1.8123 0
M  V30 4545 O 435.448 1.58686 -1.47132 0
M  V30 4546 C 436.043 -1.31885 -3.12077 0
M  V30 4547 C 434.602 -1.08656 -3.60376 0
M  V30 4548 C 433.749 -1.42769 -2.37723 0
M  V30 4549 H 436.7 -1.18158 -1.05945 0
M  V30 4550 H 436.721 -0.706793 -3.73878 0
M  V30 4551 H 436.233 -2.39737 -3.05201 0
M  V30 4552 H 434.334 -0.0254814 -3.72591 0
M  V30 4553 H 434.447 -1.76301 -4.45483 0
M  V30 4554 H 432.811 -0.846603 -2.40218 0
M  V30 4555 H 433.594 -2.51666 -2.33493 0
M  V30 4556 N 436.039 1.36541 -0.78704 0
M  V30 4557 C 436.971 2.28761 -0.141773 0
M  V30 4558 C 437.984 1.49365 0.647599 0
M  V30 4559 O 439.173 1.71836 0.483173 0
M  V30 4560 C 436.273 3.28771 0.822368 0
M  V30 4561 C 435.446 4.3732 0.0835594 0
M  V30 4562 C 434.505 5.17307 0.963296 0
M  V30 4563 O 433.531 5.67638 0.421419 0
M  V30 4564 N 434.733 5.33515 2.28784 0
M  V30 4565 H 437.498 2.84777 -0.933919 0
M  V30 4566 H 435.059 1.48682 -0.640735 0
M  V30 4567 H 437.051 3.79169 1.41468 0
M  V30 4568 H 435.621 2.73412 1.5154 0
M  V30 4569 H 434.841 3.88118 -0.689809 0
M  V30 4570 H 436.129 5.0701 -0.426358 0
M  V30 4571 H 435.527 4.94234 2.75226 0
M  V30 4572 H 434.084 5.87165 2.82985 0
M  V30 4573 N 437.518 0.538854 1.48102 0
M  V30 4574 C 438.929 0.100679 1.86428 0
M  V30 4575 C 439.28 -1.32447 1.44749 0
M  V30 4576 O 438.405 -1.99339 0.842199 0
M  V30 4577 C 439 0.175933 3.38343 0
M  V30 4578 C 437.559 -0.207098 3.7583 0
M  V30 4579 C 436.706 0.531741 2.72154 0
M  V30 4580 H 439.657 0.749614 1.3988 0
M  V30 4581 H 439.678 -0.610144 3.75576 0
M  V30 4582 H 439.19 1.21328 3.68648 0
M  V30 4583 H 437.291 -1.24626 3.5114 0
M  V30 4584 H 437.404 0.138687 4.78899 0
M  V30 4585 H 435.768 -0.0230462 2.5469 0
M  V30 4586 H 436.551 1.56989 3.05302 0
M  V30 4587 N 438.996 -1.55193 0.274407 0
M  V30 4588 C 440.412 -1.59401 -0.0797543 0
M  V30 4589 C 440.612 -1.29162 -1.54659 0
M  V30 4590 O 439.668 -1.05215 -2.29534 0
M  V30 4591 C 440.981 -2.99257 0.294238 0
M  V30 4592 C 442.529 -3.12072 0.240796 0
M  V30 4593 C 443.004 -4.54194 0.589218 0
M  V30 4594 N 444.495 -4.60033 0.540744 0
M  V30 4595 C 445.23 -5.68027 0.783147 0
M  V30 4596 N 444.726 -6.8417 1.09013 0
M  V30 4597 N 446.519 -5.57572 0.711993 0
M  V30 4598 H 438.67 -1.73113 1.23067 0
M  V30 4599 H 440.933 -0.807197 0.497129 0
M  V30 4600 H 440.639 -3.26217 1.31435 0
M  V30 4601 H 440.513 -3.75427 -0.365281 0
M  V30 4602 H 442.9 -2.84877 -0.770024 0
M  V30 4603 H 442.981 -2.38117 0.934563 0
M  V30 4604 H 442.625 -4.82115 1.59772 0
M  V30 4605 H 442.555 -5.26448 -0.126331 0
M  V30 4606 H 445.046 -3.76599 0.313327 0
M  V30 4607 H 445.359 -7.6243 1.26178 0
M  V30 4608 H 443.704 -6.85787 1.12789 0
M  V30 4609 H 446.895 -4.65714 0.472014 0
M  V30 4610 H 447.068 -6.41659 0.90429 0
M  V30 4611 N 440.474 -0.00167713 -1.576 0
M  V30 4612 C 441.702 0.693759 -1.94922 0
M  V30 4613 C 442.117 1.67215 -0.876626 0
M  V30 4614 O 441.474 1.81929 0.144279 0
M  V30 4615 C 441.525 1.42416 -3.32265 0
M  V30 4616 O 441.246 0.485014 -4.35407 0
M  V30 4617 C 442.747 2.21395 -3.84056 0
M  V30 4618 H 439.967 0.193118 -0.642609 0
M  V30 4619 H 442.511 -0.0532952 -2.04431 0
M  V30 4620 H 440.666 2.12284 -3.24059 0
M  V30 4621 H 441.08 1.00053 -5.14868 0
M  V30 4622 H 442.554 2.67996 -4.82578 0
M  V30 4623 H 443.031 3.04142 -3.16851 0
M  V30 4624 H 443.637 1.56542 -3.95443 0
M  V30 4625 N 441.952 1.55251 0.271103 0
M  V30 4626 C 443.18 1.79974 1.02064 0
M  V30 4627 C 443.595 0.574003 1.79863 0
M  V30 4628 O 442.952 -0.456962 1.76686 0
M  V30 4629 C 443.003 3.02603 1.97772 0
M  V30 4630 O 442.724 4.20443 1.23124 0
M  V30 4631 C 444.225 3.39944 2.84522 0
M  V30 4632 H 441.445 0.599489 0.301419 0
M  V30 4633 H 443.989 2.02268 0.301313 0
M  V30 4634 H 442.144 2.8243 2.65165 0
M  V30 4635 H 442.558 4.89783 1.87651 0
M  V30 4636 H 444.032 4.28915 3.47471 0
M  V30 4637 H 444.509 2.59432 3.54389 0
M  V30 4638 H 445.115 3.62383 2.22618 0
M  V30 4639 N 443.43 -0.535701 1.48216 0
M  V30 4640 C 444.655 -1.32149 1.59848 0
M  V30 4641 C 445.08 -1.86338 0.256842 0
M  V30 4642 O 444.438 -1.64107 -0.770632 0
M  V30 4643 C 444.486 -2.45224 2.64381 0
M  V30 4644 O 443.59 -3.48093 2.21144 0
M  V30 4645 H 442.931 -0.391634 0.536208 0
M  V30 4646 H 445.461 -0.645202 1.94161 0
M  V30 4647 H 445.471 -2.91491 2.85476 0
M  V30 4648 H 444.146 -2.05143 3.61786 0
M  V30 4649 H 442.723 -3.07984 2.10239 0
M  V30 4650 N 444.908 -1.36708 -0.784132 0
M  V30 4651 C 446.324 -1.17237 -1.08294 0
M  V30 4652 C 446.524 -5.93947e-05 -2.015 0
M  V30 4653 O 445.58 0.663686 -2.43622 0
M  V30 4654 C 446.893 -2.48557 -1.69233 0
M  V30 4655 C 448.441 -2.54968 -1.8155 0
M  V30 4656 C 448.916 -3.86388 -2.45904 0
M  V30 4657 N 450.407 -3.87762 -2.53367 0
M  V30 4658 C 451.142 -4.86191 -3.03983 0
M  V30 4659 N 450.638 -5.95015 -3.54866 0
M  V30 4660 N 452.431 -4.73606 -3.02743 0
M  V30 4661 H 444.582 -2.11758 -0.16501 0
M  V30 4662 H 446.845 -0.93822 -0.135822 0
M  V30 4663 H 446.551 -3.34638 -1.08215 0
M  V30 4664 H 446.425 -2.64748 -2.68679 0
M  V30 4665 H 448.812 -1.69302 -2.41704 0
M  V30 4666 H 448.893 -2.42672 -0.80895 0
M  V30 4667 H 448.537 -4.72462 -1.86392 0
M  V30 4668 H 448.467 -3.95982 -3.4714 0
M  V30 4669 H 450.958 -3.09145 -2.17343 0
M  V30 4670 H 451.271 -6.66086 -3.91854 0
M  V30 4671 H 449.616 -5.98676 -3.53003 0
M  V30 4672 H 452.807 -3.87717 -2.62284 0
M  V30 4673 H 452.98 -5.50473 -3.41881 0
M  V30 4674 N 446.386 1.0089 -1.21074 0
M  V30 4675 C 447.797 1.56056 -1.02486 0
M  V30 4676 C 448.148 1.91728 0.416506 0
M  V30 4677 O 447.273 1.73066 1.29912 0
M  V30 4678 C 447.868 2.83563 -1.85411 0
M  V30 4679 C 446.427 3.3523 -1.71166 0
M  V30 4680 C 445.574 2.0846 -1.82865 0
M  V30 4681 H 448.525 0.831818 -1.35154 0
M  V30 4682 H 448.546 3.55286 -1.36205 0
M  V30 4683 H 448.058 2.57569 -2.9031 0
M  V30 4684 H 446.159 3.66167 -0.689361 0
M  V30 4685 H 446.272 4.06913 -2.52901 0
M  V30 4686 H 444.636 2.21275 -1.26132 0
M  V30 4687 H 445.419 1.84883 -2.89263 0
M  V30 4688 N 447.864 1.01787 1.20321 0
M  V30 4689 C 449.089 0.727009 1.9424 0
M  V30 4690 C 449.514 -0.706179 1.74341 0
M  V30 4691 O 448.872 -1.48609 1.03852 0
M  V30 4692 C 448.92 1.06958 3.44372 0
M  V30 4693 O 448.024 0.181983 4.11998 0
M  V30 4694 H 447.365 0.269626 0.606793 0
M  V30 4695 H 449.895 1.36158 1.52716 0
M  V30 4696 H 449.905 1.02182 3.94997 0
M  V30 4697 H 448.58 2.11378 3.58179 0
M  V30 4698 H 447.157 0.287378 3.71791 0
M  V30 4699 N 449.342 -1.36122 0.79427 0
M  V30 4700 C 450.588 -1.99406 0.369452 0
M  V30 4701 C 450.921 -1.62886 -1.05743 0
M  V30 4702 O 450.196 -0.886053 -1.73145 0
M  V30 4703 C 450.479 -3.56046 0.538833 0
M  V30 4704 C 450.332 -4.02404 2.00976 0
M  V30 4705 C 451.651 -4.40079 -0.0431359 0
M  V30 4706 H 448.77 -0.724397 0.135712 0
M  V30 4707 H 451.412 -1.61461 1.00151 0
M  V30 4708 H 449.562 -3.885 0.000771004 0
M  V30 4709 H 451.234 -3.80415 2.60926 0
M  V30 4710 H 449.477 -3.53765 2.51063 0
M  V30 4711 H 450.148 -5.11344 2.07922 0
M  V30 4712 H 452.624 -4.14013 0.416228 0
M  V30 4713 H 451.5 -5.48799 0.105374 0
M  V30 4714 H 451.761 -4.27264 -1.13571 0
M  V30 4715 N 450.82 -0.546701 -1.47814 0
M  V30 4716 C 452.231 -0.110564 -1.86372 0
M  V30 4717 C 452.582 1.31678 -1.45449 0
M  V30 4718 O 451.707 1.98889 -0.852758 0
M  V30 4719 C 452.302 -0.193873 -3.38245 0
M  V30 4720 C 450.861 0.187164 -3.75934 0
M  V30 4721 C 450.008 -0.546166 -2.71868 0
M  V30 4722 H 452.959 -0.757022 -1.39481 0
M  V30 4723 H 452.98 0.590218 -3.75895 0
M  V30 4724 H 452.492 -1.23282 -3.67999 0
M  V30 4725 H 450.593 1.22762 -3.51796 0
M  V30 4726 H 450.706 -0.164083 -4.78819 0
M  V30 4727 H 449.07 0.00953904 -2.54698 0
M  V30 4728 H 449.853 -1.58606 -3.04465 0
M  V30 4729 N 452.299 1.55045 -0.282633 0
M  V30 4730 C 453.576 1.9179 0.384166 0
M  V30 4731 C 453.956 1.20778 1.73136 0
M  V30 4732 O 453.304 0.33719 2.25998 0
M  V30 4733 C 453.514 3.45149 0.517014 0
M  V30 4734 C 454.862 4.17064 0.796427 0
M  V30 4735 O 455.886 3.51084 0.601535 0
M  V30 4736 O 454.745 5.33837 1.16962 0
M  V30 4737 H 451.839 0.799483 0.211558 0
M  V30 4738 H 454.385 1.66474 -0.32934 0
M  V30 4739 H 453.157 3.88922 -0.430772 0
M  V30 4740 H 452.78 3.76443 1.2797 0
M  V30 4741 N 453.777 0.010035 1.57597 0
M  V30 4742 C 454.724 -0.978122 2.09049 0
M  V30 4743 C 455.694 -1.33509 0.988159 0
M  V30 4744 O 456.879 -1.43172 1.26121 0
M  V30 4745 C 454.019 -2.26158 2.60666 0
M  V30 4746 C 453.132 -1.96275 3.84838 0
M  V30 4747 C 452.267 -3.18776 4.24918 0
M  V30 4748 C 451.306 -2.84625 5.41899 0
M  V30 4749 N 450.443 -3.99693 5.77226 0
M  V30 4750 H 455.283 -0.532431 2.93205 0
M  V30 4751 H 452.82 -0.251234 1.44939 0
M  V30 4752 H 454.778 -3.01202 2.88675 0
M  V30 4753 H 453.408 -2.68378 1.79369 0
M  V30 4754 H 452.46 -1.11555 3.63675 0
M  V30 4755 H 453.772 -1.67111 4.69974 0
M  V30 4756 H 452.926 -4.02157 4.54262 0
M  V30 4757 H 451.665 -3.51087 3.38511 0
M  V30 4758 H 450.67 -1.99653 5.12268 0
M  V30 4759 H 451.895 -2.53551 6.29991 0
M  V30 4760 H 449.841 -4.31882 4.93776 0
M  V30 4761 H 449.758 -3.74087 6.56959 0
M  V30 4762 H 451.026 -4.83834 6.11167 0
M  V30 4763 N 455.255 -1.55392 -0.262866 0
M  V30 4764 C 456.666 -1.67079 -0.833158 0
M  V30 4765 C 457.017 -0.604539 -1.86654 0
M  V30 4766 O 456.142 0.252138 -2.14926 0
M  V30 4767 C 456.737 -3.02891 -1.51797 0
M  V30 4768 C 455.296 -3.16571 -2.03617 0
M  V30 4769 C 454.443 -2.62909 -0.881701 0
M  V30 4770 H 457.394 -1.58652 -0.0389986 0
M  V30 4771 H 457.415 -2.96445 -2.38538 0
M  V30 4772 H 456.927 -3.80473 -0.765619 0
M  V30 4773 H 455.028 -2.43782 -2.81782 0
M  V30 4774 H 455.141 -4.23271 -2.24452 0
M  V30 4775 H 453.505 -2.20324 -1.27786 0
M  V30 4776 H 454.288 -3.43003 -0.14269 0
M  V30 4777 N 456.733 0.527833 -1.48498 0
M  V30 4778 C 457.68 1.6322 -1.6318 0
M  V30 4779 C 458.65 1.59199 -0.473815 0
M  V30 4780 O 459.835 1.77591 -0.697563 0
M  V30 4781 C 456.975 3.01474 -1.67951 0
M  V30 4782 C 456.088 3.15713 -2.94871 0
M  V30 4783 C 455.223 4.44539 -2.90789 0
M  V30 4784 C 454.262 4.52315 -4.12404 0
M  V30 4785 N 453.399 5.72533 -4.06387 0
M  V30 4786 H 458.239 1.50011 -2.57489 0
M  V30 4787 H 455.776 0.730298 -1.27691 0
M  V30 4788 H 457.734 3.81572 -1.68698 0
M  V30 4789 H 456.364 3.1345 -0.771306 0
M  V30 4790 H 455.416 2.28854 -3.03859 0
M  V30 4791 H 456.728 3.1732 -3.8485 0
M  V30 4792 H 455.882 5.3293 -2.89949 0
M  V30 4793 H 454.621 4.45457 -1.98542 0
M  V30 4794 H 453.626 3.62331 -4.13517 0
M  V30 4795 H 454.851 4.53134 -5.05812 0
M  V30 4796 H 452.797 5.74344 -3.16962 0
M  V30 4797 H 452.714 5.75643 -4.90073 0
M  V30 4798 H 453.982 6.63204 -4.0961 0
M  V30 4799 N 458.211 1.37122 0.776871 0
M  V30 4800 C 459.159 1.32549 1.91138 0
M  V30 4801 C 460.153 0.215119 1.68029 0
M  V30 4802 O 461.359 0.382852 1.75881 0
M  V30 4803 H 457.734 0.412952 0.62847 0
M  V30 4804 H 459.705 2.28332 1.92112 0
M  V30 4805 C 458.454 1.14422 3.28333 0
M  V30 4806 H 457.777 1.99115 3.46689 0
M  V30 4807 H 459.217 1.15272 4.0803 0
M  V30 4808 C 457.676 -0.150434 3.36564 0
M  V30 4809 O 458.206 -1.13584 3.85307 0
M  V30 4810 N 456.412 -0.19939 2.89915 0
M  V30 4811 H 455.959 0.603142 2.5044 0
M  V30 4812 H 455.917 -1.06526 2.95803 0
M  V30 4813 N 459.689 -1.00246 1.21608 0
M  V30 4814 C 461.1 -1.55511 1.03312 0
M  V30 4815 C 461.451 -1.91946 -0.406332 0
M  V30 4816 O 460.576 -1.73753 -1.28992 0
M  V30 4817 C 461.171 -2.82576 1.86913 0
M  V30 4818 C 459.73 -3.34318 1.72941 0
M  V30 4819 C 458.877 -2.07487 1.83968 0
M  V30 4820 H 461.828 -0.824638 1.35593 0
M  V30 4821 H 461.849 -3.54559 1.38087 0
M  V30 4822 H 461.361 -2.56026 2.91672 0
M  V30 4823 H 459.462 -3.65797 0.70877 0
M  V30 4824 H 459.575 -4.05566 2.55055 0
M  V30 4825 H 457.939 -2.20603 1.27304 0
M  V30 4826 H 458.722 -1.83346 2.9024 0
M  V30 4827 N 461.167 -1.02423 -1.1978 0
M  V30 4828 C 462.395 -0.737456 -1.93311 0
M  V30 4829 C 462.81 0.703023 -1.75223 0
M  V30 4830 O 462.167 1.47761 -1.07112 0
M  V30 4831 C 462.218 -1.0733 -3.45199 0
M  V30 4832 O 461.939 -2.4572 -3.62702 0
M  V30 4833 C 463.44 -0.80866 -4.35862 0
M  V30 4834 H 460.66 -0.2702 -0.614193 0
M  V30 4835 H 463.204 -1.36747 -1.52054 0
M  V30 4836 H 461.359 -0.488545 -3.84307 0
M  V30 4837 H 461.773 -2.58081 -4.56612 0
M  V30 4838 H 463.247 -1.09365 -5.41057 0
M  V30 4839 H 463.724 0.257025 -4.38447 0
M  V30 4840 H 464.33 -1.37592 -4.02428 0
M  V30 4841 N 462.645 1.35699 -0.801477 0
M  V30 4842 C 463.875 2.02862 -0.3912 0
M  V30 4843 C 464.283 1.60552 1.00099 0
M  V30 4844 O 463.626 0.796215 1.65548 0
M  V30 4845 C 463.688 3.57386 -0.389299 0
M  V30 4846 C 463.352 4.22943 -1.73113 0
M  V30 4847 C 464.349 4.44984 -2.68859 0
M  V30 4848 C 462.034 4.60167 -2.01373 0
M  V30 4849 C 464.028 5.03345 -3.91053 0
M  V30 4850 C 461.715 5.18243 -3.23832 0
M  V30 4851 C 462.713 5.39773 -4.1849 0
M  V30 4852 O 462.401 5.96626 -5.38788 0
M  V30 4853 H 462.133 0.657341 -0.157732 0
M  V30 4854 H 464.687 1.74407 -1.08496 0
M  V30 4855 H 462.917 3.85011 0.361031 0
M  V30 4856 H 464.606 4.059 -0.0020365 0
M  V30 4857 H 465.372 4.1661 -2.48316 0
M  V30 4858 H 461.251 4.42726 -1.28508 0
M  V30 4859 H 464.795 5.20065 -4.64949 0
M  V30 4860 H 460.692 5.46044 -3.44248 0
M  V30 4861 H 461.46 6.15082 -5.40015 0
M  V30 4862 N 464.123 0.554532 1.47522 0
M  V30 4863 C 465.371 0.0294208 2.02079 0
M  V30 4864 C 465.692 -1.32411 1.43151 0
M  V30 4865 O 464.962 -1.863 0.605728 0
M  V30 4866 H 463.542 0.00788672 0.746958 0
M  V30 4867 H 466.204 0.723934 1.80956 0
M  V30 4868 H 465.3 -0.0606745 3.12041 0
M  V30 4869 N 465.601 -1.54893 0.290851 0
M  V30 4870 C 467.012 -1.85584 -0.203816 0
M  V30 4871 C 467.363 -1.21285 -1.54222 0
M  V30 4872 O 466.488 -0.506841 -2.10381 0
M  V30 4873 C 467.083 -3.367 -0.376595 0
M  V30 4874 C 465.642 -3.6746 -0.815485 0
M  V30 4875 C 464.789 -2.77178 0.0821087 0
M  V30 4876 H 467.74 -1.50208 0.512175 0
M  V30 4877 H 467.761 -3.60656 -1.21275 0
M  V30 4878 H 467.273 -3.8347 0.59767 0
M  V30 4879 H 465.374 -3.26201 -1.80066 0
M  V30 4880 H 465.487 -4.7478 -0.641905 0
M  V30 4881 H 463.851 -2.50925 -0.436895 0
M  V30 4882 H 464.634 -3.26767 1.05254 0
M  V30 4883 N 467.08 -0.0183926 -1.57589 0
M  V30 4884 C 468.028 0.985111 -2.10709 0
M  V30 4885 C 469.022 1.34397 -1.0312 0
M  V30 4886 O 470.228 1.32746 -1.21567 0
M  V30 4887 H 466.603 0.335418 -0.673052 0
M  V30 4888 H 468.574 0.511689 -2.9398 0
M  V30 4889 C 467.323 2.26202 -2.64061 0
M  V30 4890 H 466.646 1.9946 -3.4649 0
M  V30 4891 H 468.086 2.94652 -3.04887 0
M  V30 4892 C 466.545 2.98444 -1.5631 0
M  V30 4893 O 467.075 3.90142 -0.956674 0
M  V30 4894 N 465.281 2.6059 -1.28612 0
M  V30 4895 H 464.828 1.86101 -1.78112 0
M  V30 4896 H 464.786 3.09238 -0.567406 0
M  V30 4897 N 468.558 1.5553 0.254621 0
M  V30 4898 C 469.807 1.76202 0.981612 0
M  V30 4899 C 470.12 0.580883 1.86776 0
M  V30 4900 O 471.326 0.670448 2.63092 0
M  V30 4901 C 469.782 3.11921 1.79537 0
M  V30 4902 C 469.39 4.37659 0.956991 0
M  V30 4903 C 471.134 3.41936 2.51555 0
M  V30 4904 C 469.041 5.64411 1.76619 0
M  V30 4905 H 467.971 0.656841 0.370237 0
M  V30 4906 H 470.622 1.81969 0.236556 0
M  V30 4907 H 469.004 3.00241 2.58208 0
M  V30 4908 H 470.178 4.60307 0.21315 0
M  V30 4909 H 468.493 4.14922 0.350497 0
M  V30 4910 H 471.09 4.33849 3.12536 0
M  V30 4911 H 471.433 2.62905 3.22779 0
M  V30 4912 H 471.966 3.54797 1.799 0
M  V30 4913 H 468.705 6.46241 1.09783 0
M  V30 4914 H 468.225 5.45877 2.48551 0
M  V30 4915 H 469.904 6.03386 2.33527 0
M  V30 4916 N 470.036 -0.519951 1.48776 0
M  V30 4917 C 471.276 -1.2856 1.58908 0
M  V30 4918 C 471.64 -1.90212 0.261418 0
M  V30 4919 O 472.841 -2.67746 0.237791 0
M  V30 4920 C 471.112 -2.33836 2.70288 0
M  V30 4921 S 472.671 -3.19992 3.0025 0
M  V30 4922 H 469.489 -0.43717 0.560717 0
M  V30 4923 H 472.091 -0.591205 1.86346 0
M  V30 4924 H 470.795 -1.87041 3.653 0
M  V30 4925 H 470.326 -3.07969 2.44783 0
M  V30 4926 H 472.341 -4.34122 2.40317 0
M  V30 4927 N 471.514 -1.37532 -0.769588 0
M  V30 4928 C 472.791 -1.23392 -1.51768 0
M  V30 4929 C 473.171 0.17157 -2.10402 0
M  V30 4930 O 472.519 1.17943 -1.95708 0
M  V30 4931 C 472.729 -2.33163 -2.59685 0
M  V30 4932 C 474.077 -2.70809 -3.27028 0
M  V30 4933 O 475.101 -2.32355 -2.69981 0
M  V30 4934 O 473.96 -3.37066 -4.30173 0
M  V30 4935 H 471.054 -0.481617 -0.67229 0
M  V30 4936 H 473.6 -1.49318 -0.806368 0
M  V30 4937 H 472.372 -3.27273 -2.14494 0
M  V30 4938 H 471.995 -2.08713 -3.38415 0
M  V30 4939 N 472.992 0.995999 -1.22138 0
M  V30 4940 C 474.24 1.73167 -1.042 0
M  V30 4941 C 474.561 1.90329 0.42423 0
M  V30 4942 O 473.831 1.4607 1.30539 0
M  V30 4943 H 472.411 0.641593 -0.38258 0
M  V30 4944 H 475.073 1.19974 -1.53598 0
M  V30 4945 H 474.169 2.72734 -1.51731 0
M  V30 4946 N 474.47 1.03057 1.19235 0
M  V30 4947 C 475.418 0.606391 2.24557 0
M  V30 4948 C 476.412 -0.361826 1.65491 0
M  V30 4949 O 477.618 -0.23022 1.78522 0
M  V30 4950 H 473.993 0.177838 0.730669 0
M  V30 4951 H 475.964 1.50529 2.5765 0
M  V30 4952 C 474.713 -0.0252127 3.47691 0
M  V30 4953 H 474.036 0.710838 3.9343 0
M  V30 4954 H 475.476 -0.284931 4.23042 0
M  V30 4955 C 473.935 -1.27229 3.11953 0
M  V30 4956 O 474.465 -2.36416 3.24762 0
M  V30 4957 N 472.671 -1.16169 2.6637 0
M  V30 4958 H 472.218 -0.273189 2.56147 0
M  V30 4959 H 472.176 -1.99703 2.42829 0
M  V30 4960 N 475.948 -1.35272 0.808662 0
M  V30 4961 C 477.195 -1.98709 0.390003 0
M  V30 4962 C 477.523 -1.64148 -1.04335 0
M  V30 4963 O 476.778 -0.897797 -1.73891 0
M  V30 4964 C 477.077 -3.53556 0.522798 0
M  V30 4965 C 476.743 -4.0799 1.91977 0
M  V30 4966 C 475.405 -4.22568 2.30195 0
M  V30 4967 C 477.757 -4.37442 2.83361 0
M  V30 4968 C 475.085 -4.63918 3.59162 0
M  V30 4969 C 477.437 -4.80232 4.11776 0
M  V30 4970 C 476.101 -4.93016 4.49991 0
M  V30 4971 H 475.371 -0.727127 0.142712 0
M  V30 4972 H 478.018 -1.6145 1.02985 0
M  V30 4973 H 476.323 -3.91287 -0.200494 0
M  V30 4974 H 478.02 -4.00598 0.179608 0
M  V30 4975 H 474.61 -3.97096 1.61284 0
M  V30 4976 H 478.794 -4.25731 2.55083 0
M  V30 4977 H 474.05 -4.72005 3.88615 0
M  V30 4978 H 478.224 -5.01982 4.82687 0
M  V30 4979 H 475.851 -5.24814 5.49976 0
M  V30 4980 N 477.426 -0.562348 -1.47226 0
M  V30 4981 C 478.703 0.0256985 -1.95583 0
M  V30 4982 C 479.083 1.48032 -1.50498 0
M  V30 4983 O 478.431 2.15973 -0.746181 0
M  V30 4984 C 478.641 -0.125129 -3.48776 0
M  V30 4985 C 479.989 0.0175728 -4.24596 0
M  V30 4986 O 481.013 -0.0529341 -3.56161 0
M  V30 4987 O 479.872 0.170145 -5.46235 0
M  V30 4988 H 476.966 0.0612565 -0.824728 0
M  V30 4989 H 479.512 -0.629233 -1.57603 0
M  V30 4990 H 478.284 -1.13715 -3.74412 0
M  V30 4991 H 477.907 0.567178 -3.93534 0
M  V30 4992 N 478.904 1.54736 -0.299062 0
M  V30 4993 C 480.132 2.04512 0.313447 0
M  V30 4994 C 480.547 1.17643 1.47667 0
M  V30 4995 O 479.904 0.20164 1.81383 0
M  V30 4996 C 479.955 3.53171 0.771542 0
M  V30 4997 O 479.676 4.36736 -0.345379 0
M  V30 4998 C 481.177 4.18936 1.4494 0
M  V30 4999 H 478.397 0.667507 0.0683784 0
M  V30 5000 H 480.941 1.99752 -0.438129 0
M  V30 5001 H 479.096 3.58298 1.47314 0
M  V30 5002 H 479.51 5.24499 0.0109219 0
M  V30 5003 H 480.984 5.24482 1.72111 0
M  V30 5004 H 481.461 3.68554 2.38883 0
M  V30 5005 H 482.067 4.17879 0.791028 0
M  V30 5006 N 480.382 0.0267497 1.57577 0
M  V30 5007 C 481.628 -0.653371 1.91987 0
M  V30 5008 C 481.961 -1.71915 0.903263 0
M  V30 5009 O 481.236 -1.94358 -0.0743387 0
M  V30 5010 C 481.519 -1.272 3.36886 0
M  V30 5011 C 481.372 -0.215938 4.49281 0
M  V30 5012 C 482.691 -2.19069 3.81703 0
M  V30 5013 H 479.81 -0.236047 0.698177 0
M  V30 5014 H 482.452 0.0835236 1.89816 0
M  V30 5015 H 480.602 -1.90005 3.38866 0
M  V30 5016 H 482.274 0.41449 4.59434 0
M  V30 5017 H 480.517 0.458855 4.31366 0
M  V30 5018 H 481.188 -0.688347 5.47691 0
M  V30 5019 H 483.664 -1.66253 3.81444 0
M  V30 5020 H 482.54 -2.59307 4.83788 0
M  V30 5021 H 482.801 -3.08087 3.17072 0
M  V30 5022 N 481.861 -1.55662 -0.24637 0
M  V30 5023 C 482.824 -1.89558 -1.28842 0
M  V30 5024 C 483.824 -0.772082 -1.41052 0
M  V30 5025 O 485.014 -1.04007 -1.39743 0
M  V30 5026 C 482.146 -2.12449 -2.66605 0
M  V30 5027 H 483.339 -2.82735 -1.00004 0
M  V30 5028 H 480.892 -1.48562 -0.485684 0
M  V30 5029 H 481.627 -1.21742 -3.00582 0
M  V30 5030 H 481.412 -2.94273 -2.59125 0
M  V30 5031 H 482.902 -2.39854 -3.41847 0
M  V30 5032 N 483.339 0.512053 -1.4905 0
M  V30 5033 C 484.272 1.63209 -1.59493 0
M  V30 5034 C 485.25 1.56407 -0.444481 0
M  V30 5035 O 486.434 1.76623 -0.658535 0
M  V30 5036 C 483.561 3.01685 -1.53961 0
M  V30 5037 C 482.607 3.26786 -2.74068 0
M  V30 5038 S 483.44 3.11107 -4.35859 0
M  V30 5039 C 484.596 4.51997 -4.32954 0
M  V30 5040 H 484.829 1.54104 -2.54243 0
M  V30 5041 H 482.362 0.696382 -1.37804 0
M  V30 5042 H 484.32 3.81538 -1.51455 0
M  V30 5043 H 482.981 3.08215 -0.605178 0
M  V30 5044 H 482.174 4.27849 -2.66386 0
M  V30 5045 H 481.776 2.54635 -2.73928 0
M  V30 5046 H 484.068 5.43871 -4.03993 0
M  V30 5047 H 485.011 4.64731 -5.34257 0
M  V30 5048 H 485.419 4.32159 -3.63178 0
M  V30 5049 N 484.817 1.37938 0.762283 0
M  V30 5050 C 485.747 1.37176 1.88958 0
M  V30 5051 C 486.728 0.238945 1.68413 0
M  V30 5052 O 487.913 0.440726 1.89133 0
M  V30 5053 C 485.043 1.18742 3.2637 0
M  V30 5054 C 483.997 2.29136 3.61498 0
M  V30 5055 C 483.323 1.95816 4.97554 0
M  V30 5056 C 484.623 3.71363 3.6727 0
M  V30 5057 H 486.317 2.31509 1.89853 0
M  V30 5058 H 483.863 1.11438 0.912005 0
M  V30 5059 H 485.816 1.16837 4.04879 0
M  V30 5060 H 484.54 0.208683 3.25933 0
M  V30 5061 H 483.199 2.30213 2.85303 0
M  V30 5062 H 482.847 0.964475 4.93667 0
M  V30 5063 H 482.547 2.69745 5.22026 0
M  V30 5064 H 484.071 1.95513 5.78452 0
M  V30 5065 H 485.485 3.72364 4.35911 0
M  V30 5066 H 483.882 4.44425 4.03245 0
M  V30 5067 H 484.952 4.04305 2.67704 0
M  V30 5068 N 486.295 -0.989507 1.22664 0
M  V30 5069 C 487.711 -1.25395 0.987331 0
M  V30 5070 C 487.911 -1.9899 -0.317056 0
M  V30 5071 O 486.967 -2.30141 -1.03882 0
M  V30 5072 C 488.28 -2.06242 2.18826 0
M  V30 5073 C 489.828 -2.19413 2.23219 0
M  V30 5074 C 490.303 -3.03648 3.42873 0
M  V30 5075 N 491.794 -3.11234 3.43056 0
M  V30 5076 C 492.529 -3.7671 4.32293 0
M  V30 5077 N 492.025 -4.44085 5.31752 0
M  V30 5078 N 493.818 -3.73505 4.2006 0
M  V30 5079 H 485.969 -0.496212 2.06522 0
M  V30 5080 H 488.232 -0.281784 0.905153 0
M  V30 5081 H 487.938 -1.59531 3.13437 0
M  V30 5082 H 487.812 -3.06996 2.19165 0
M  V30 5083 H 490.199 -2.65336 1.29154 0
M  V30 5084 H 490.28 -1.18078 2.26917 0
M  V30 5085 H 489.924 -2.58424 4.37241 0
M  V30 5086 H 489.854 -4.05132 3.36416 0
M  V30 5087 H 492.345 -2.63287 2.71088 0
M  V30 5088 H 492.658 -4.91797 5.96117 0
M  V30 5089 H 491.003 -4.42822 5.35662 0
M  V30 5090 H 494.194 -3.20033 3.41609 0
M  V30 5091 H 494.367 -4.24253 4.8981 0
M  V30 5092 N 487.773 -1.03688 -1.18687 0
M  V30 5093 C 489.021 -0.736572 -1.88199 0
M  V30 5094 C 489.342 0.737665 -1.80509 0
M  V30 5095 O 488.612 1.53204 -1.22088 0
M  V30 5096 H 487.192 -0.269466 -0.696704 0
M  V30 5097 H 489.854 -1.31282 -1.44052 0
M  V30 5098 H 488.95 -1.03802 -2.94332 0
M  V30 5099 N 489.251 1.34841 -0.815825 0
M  V30 5100 C 490.161 2.33425 -0.234462 0
M  V30 5101 C 491.177 1.62295 0.627413 0
M  V30 5102 O 492.353 1.94109 0.536987 0
M  V30 5103 C 489.418 3.41471 0.599849 0
M  V30 5104 C 488.479 4.28362 -0.283596 0
M  V30 5105 C 487.712 5.31248 0.51099 0
M  V30 5106 O 487.935 5.43056 1.7449 0
M  V30 5107 O 486.869 6.01812 -0.10297 0
M  V30 5108 H 490.695 2.84962 -1.05024 0
M  V30 5109 H 488.28 1.37774 -0.577809 0
M  V30 5110 H 490.162 4.07464 1.07475 0
M  V30 5111 H 488.837 2.9219 1.39308 0
M  V30 5112 H 487.744 3.65318 -0.805836 0
M  V30 5113 H 489.077 4.81066 -1.041 0
M  V30 5114 N 490.729 0.570148 1.46925 0
M  V30 5115 C 491.662 -0.218362 2.27153 0
M  V30 5116 C 492.64 -0.90847 1.34854 0
M  V30 5117 O 493.824 -0.924875 1.64251 0
M  V30 5118 C 490.951 -1.3122 3.12248 0
M  V30 5119 C 489.997 -0.729277 4.20219 0
M  V30 5120 S 490.83 0.434159 5.33737 0
M  V30 5121 C 491.986 -0.661188 6.22398 0
M  V30 5122 H 492.219 0.462393 2.93682 0
M  V30 5123 H 489.752 0.356753 1.50222 0
M  V30 5124 H 491.71 -1.93856 3.61842 0
M  V30 5125 H 490.371 -1.96485 2.45056 0
M  V30 5126 H 489.564 -1.5511 4.79538 0
M  V30 5127 H 489.166 -0.178836 3.73572 0
M  V30 5128 H 491.458 -1.55006 6.5953 0
M  V30 5129 H 492.401 -0.105046 7.08022 0
M  V30 5130 H 492.809 -0.959682 5.56283 0
M  V30 5131 N 492.207 -1.54576 0.307264 0
M  V30 5132 C 493.454 -2.00263 -0.300167 0
M  V30 5133 C 493.782 -1.19561 -1.53413 0
M  V30 5134 O 493.037 -0.261487 -1.93945 0
M  V30 5135 C 493.336 -3.50572 -0.695253 0
M  V30 5136 C 493.002 -4.48771 0.437679 0
M  V30 5137 C 491.664 -4.7534 0.748681 0
M  V30 5138 C 494.016 -5.0721 1.19949 0
M  V30 5139 C 491.344 -5.5761 1.8245 0
M  V30 5140 C 493.696 -5.90651 2.26527 0
M  V30 5141 C 492.36 -6.15528 2.58227 0
M  V30 5142 H 491.63 -0.732814 -0.109839 0
M  V30 5143 H 494.277 -1.86664 0.427661 0
M  V30 5144 H 492.582 -3.61814 -1.50326 0
M  V30 5145 H 494.279 -3.83352 -1.17653 0
M  V30 5146 H 490.869 -4.282 0.185187 0
M  V30 5147 H 495.053 -4.86679 0.972474 0
M  V30 5148 H 490.309 -5.75121 2.07476 0
M  V30 5149 H 494.483 -6.34957 2.86011 0
M  V30 5150 H 492.11 -6.79066 3.4172 0
M  V30 5151 N 493.685 -0.035106 -1.57561 0
M  V30 5152 C 494.931 0.64318 -1.92331 0
M  V30 5153 C 495.264 1.71434 -0.912368 0
M  V30 5154 O 494.539 1.94395 0.0640303 0
M  V30 5155 C 494.822 1.25411 -3.37556 0
M  V30 5156 C 494.675 0.192109 -4.4939 0
M  V30 5157 C 495.994 2.17041 -3.82859 0
M  V30 5158 H 493.113 0.232341 -0.699419 0
M  V30 5159 H 495.755 -0.0935889 -1.89769 0
M  V30 5160 H 493.905 1.88205 -3.39869 0
M  V30 5161 H 495.577 -0.438849 -4.59208 0
M  V30 5162 H 493.82 -0.481725 -4.31117 0
M  V30 5163 H 494.491 0.659292 -5.48049 0
M  V30 5164 H 496.967 1.64228 -3.8232 0
M  V30 5165 H 495.843 2.56738 -4.85157 0
M  V30 5166 H 496.104 3.06401 -3.18702 0
M  V30 5167 N 495.163 1.55791 0.238111 0
M  V30 5168 C 496.41 1.78033 0.964907 0
M  V30 5169 C 496.738 0.600984 1.84982 0
M  V30 5170 O 495.993 -0.41536 1.91241 0
M  V30 5171 C 496.292 3.05869 1.84875 0
M  V30 5172 C 495.958 4.36808 1.11846 0
M  V30 5173 C 494.62 4.72388 0.916662 0
M  V30 5174 C 496.972 5.17717 0.60151 0
M  V30 5175 C 494.3 5.86406 0.185756 0
M  V30 5176 C 496.652 6.32494 -0.115972 0
M  V30 5177 C 495.316 6.66688 -0.329168 0
M  V30 5178 H 494.586 0.651469 0.353085 0
M  V30 5179 H 497.233 1.90061 0.234318 0
M  V30 5180 H 495.538 2.88891 2.64668 0
M  V30 5181 H 497.235 3.20278 2.41294 0
M  V30 5182 H 493.825 4.08862 1.28569 0
M  V30 5183 H 498.009 4.90678 0.744932 0
M  V30 5184 H 493.265 6.11399 0.0101886 0
M  V30 5185 H 497.439 6.94425 -0.524127 0
M  V30 5186 H 495.066 7.54884 -0.897474 0
M  V30 5187 N 496.642 -0.504142 1.49319 0
M  V30 5188 C 497.589 -1.60603 1.65756 0
M  V30 5189 C 498.559 -1.58425 0.499082 0
M  V30 5190 O 499.744 -1.76459 0.725728 0
M  V30 5191 C 496.884 -2.98764 1.72726 0
M  V30 5192 C 495.997 -3.10982 2.99857 0
M  V30 5193 C 495.132 -4.39857 2.97824 0
M  V30 5194 C 494.171 -4.45697 4.19548 0
M  V30 5195 N 493.308 -5.65995 4.15444 0
M  V30 5196 H 498.148 -1.45895 2.59843 0
M  V30 5197 H 495.685 -0.709891 1.28837 0
M  V30 5198 H 497.643 -3.78839 1.74747 0
M  V30 5199 H 496.273 -3.12183 0.821075 0
M  V30 5200 H 495.325 -2.23991 3.07461 0
M  V30 5201 H 496.637 -3.11157 3.89849 0
M  V30 5202 H 495.791 -5.2825 2.98391 0
M  V30 5203 H 494.53 -4.42242 2.05604 0
M  V30 5204 H 493.535 -3.55707 4.19229 0
M  V30 5205 H 494.76 -4.4503 5.12957 0
M  V30 5206 H 492.706 -5.69229 3.26059 0
M  V30 5207 H 492.623 -5.67773 4.99169 0
M  V30 5208 H 493.891 -6.56604 4.20109 0
M  V30 5209 N 498.12 -1.38341 -0.754957 0
M  V30 5210 C 499.03 -1.3769 -1.89944 0
M  V30 5211 C 500.046 -0.274194 -1.71826 0
M  V30 5212 O 501.222 -0.512391 -1.94773 0
M  V30 5213 C 498.287 -1.19938 -3.25293 0
M  V30 5214 C 497.348 -2.40001 -3.55946 0
M  V30 5215 C 496.581 -2.23087 -4.84838 0
M  V30 5216 O 496.804 -1.22386 -5.57116 0
M  V30 5217 O 495.738 -3.11646 -5.14937 0
M  V30 5218 H 499.564 -2.3412 -1.93446 0
M  V30 5219 H 497.149 -1.19246 -0.900044 0
M  V30 5220 H 499.031 -1.12093 -4.06218 0
M  V30 5221 H 497.706 -0.265919 -3.22606 0
M  V30 5222 H 496.613 -2.53421 -2.75188 0
M  V30 5223 H 497.946 -3.31973 -3.63394 0
M  V30 5224 N 499.598 0.982988 -1.23187 0
M  V30 5225 C 501.014 1.2487 -0.993967 0
M  V30 5226 C 501.214 1.99155 0.306498 0
M  V30 5227 O 500.27 2.30688 1.0266 0
M  V30 5228 C 501.583 2.05078 -2.19917 0
M  V30 5229 C 503.131 2.18227 -2.2438 0
M  V30 5230 C 503.606 3.01825 -3.44479 0
M  V30 5231 N 505.097 3.09411 -3.44702 0
M  V30 5232 C 505.832 3.74412 -4.34285 0
M  V30 5233 N 505.328 4.41259 -5.341 0
M  V30 5234 N 507.121 3.71273 -4.22035 0
M  V30 5235 H 499.272 0.485253 -2.06783 0
M  V30 5236 H 501.535 0.276979 -0.906635 0
M  V30 5237 H 501.241 1.57867 -3.14279 0
M  V30 5238 H 501.115 3.05829 -2.2079 0
M  V30 5239 H 503.502 2.64648 -1.30559 0
M  V30 5240 H 503.583 1.16873 -2.2754 0
M  V30 5241 H 503.227 2.56102 -4.38605 0
M  V30 5242 H 503.157 4.03342 -3.38559 0
M  V30 5243 H 505.648 2.61845 -2.7248 0
M  V30 5244 H 505.961 4.88629 -5.98717 0
M  V30 5245 H 504.306 4.39975 -5.38002 0
M  V30 5246 H 507.497 3.18217 -3.43301 0
M  V30 5247 H 507.67 4.21649 -4.92053 0
M  V30 5248 N 501.076 1.04316 1.18135 0
M  V30 5249 C 502.322 0.758899 1.88712 0
M  V30 5250 C 502.677 -0.705863 1.78984 0
M  V30 5251 O 501.97 -1.50874 1.18101 0
M  V30 5252 C 502.164 1.16271 3.37958 0
M  V30 5253 C 501.993 2.66518 3.62213 0
M  V30 5254 C 500.763 3.33702 3.79436 0
M  V30 5255 C 502.961 3.64739 3.62588 0
M  V30 5256 N 500.943 4.72904 3.91452 0
M  V30 5257 C 502.314 4.89627 3.80348 0
M  V30 5258 C 504.369 3.58333 3.4569 0
M  V30 5259 C 503.072 6.08879 3.8296 0
M  V30 5260 C 505.098 4.77016 3.49586 0
M  V30 5261 C 504.46 6.00724 3.67845 0
M  V30 5262 H 500.559 0.329795 0.709055 0
M  V30 5263 H 503.143 1.33334 1.4188 0
M  V30 5264 H 501.314 0.616319 3.83479 0
M  V30 5265 H 503.046 0.829205 3.96114 0
M  V30 5266 H 499.801 2.84105 3.78921 0
M  V30 5267 H 500.225 5.45258 4.01277 0
M  V30 5268 H 504.867 2.63663 3.30517 0
M  V30 5269 H 502.585 7.03903 3.96921 0
M  V30 5270 H 506.171 4.73703 3.37782 0
M  V30 5271 H 505.051 6.91022 3.70753 0
M  V30 5272 N 502.554 -1.34406 0.822964 0
M  V30 5273 C 503.801 -1.98284 0.411057 0
M  V30 5274 C 504.129 -1.65245 -1.02588 0
M  V30 5275 O 503.384 -0.91619 -1.72929 0
M  V30 5276 C 503.683 -3.52981 0.560268 0
M  V30 5277 C 503.349 -4.05931 1.96293 0
M  V30 5278 C 502.011 -4.20103 2.34664 0
M  V30 5279 C 504.363 -4.34412 2.87985 0
M  V30 5280 C 501.691 -4.60082 3.64062 0
M  V30 5281 C 504.043 -4.75838 4.16847 0
M  V30 5282 C 502.707 -4.88215 4.55195 0
M  V30 5283 H 501.977 -0.725573 0.150416 0
M  V30 5284 H 504.624 -1.60349 1.04692 0
M  V30 5285 H 502.929 -3.91477 -0.158982 0
M  V30 5286 H 504.626 -4.00385 0.222087 0
M  V30 5287 H 501.216 -3.95363 1.65487 0
M  V30 5288 H 505.4 -4.23001 2.59584 0
M  V30 5289 H 500.656 -4.67856 3.93599 0
M  V30 5290 H 504.83 -4.96834 4.87984 0
M  V30 5291 H 502.457 -5.18952 5.55512 0
M  V30 5292 N 504.032 -0.577932 -1.46621 0
M  V30 5293 C 505.278 -0.0700937 -2.03279 0
M  V30 5294 C 505.633 1.27376 -1.44198 0
M  V30 5295 O 504.926 1.82097 -0.595911 0
M  V30 5296 C 505.12 0.0590832 -3.57351 0
M  V30 5297 C 504.949 -1.2707 -4.31374 0
M  V30 5298 C 503.719 -1.84357 -4.70469 0
M  V30 5299 C 505.917 -2.19278 -4.65211 0
M  V30 5300 N 503.899 -3.11124 -5.29221 0
M  V30 5301 C 505.27 -3.30631 -5.24484 0
M  V30 5302 C 507.325 -2.19018 -4.47142 0
M  V30 5303 C 506.028 -4.41849 -5.67593 0
M  V30 5304 C 508.054 -3.29262 -4.91264 0
M  V30 5305 C 507.416 -4.39335 -5.50604 0
M  V30 5306 H 503.515 -0.0683127 -0.779011 0
M  V30 5307 H 506.099 -0.76978 -1.78836 0
M  V30 5308 H 504.27 0.727929 -3.81518 0
M  V30 5309 H 506.002 0.57087 -4.00653 0
M  V30 5310 H 502.757 -1.37906 -4.53077 0
M  V30 5311 H 503.181 -3.75794 -5.63123 0
M  V30 5312 H 507.823 -1.35191 -4.00604 0
M  V30 5313 H 505.541 -5.26421 -6.13112 0
M  V30 5314 H 509.127 -3.30172 -4.79038 0
M  V30 5315 H 508.007 -5.23233 -5.84121 0
M  V30 5316 N 505.51 1.54411 -0.315457 0
M  V30 5317 C 506.926 1.59556 0.037464 0
M  V30 5318 C 507.126 1.33217 1.5118 0
M  V30 5319 O 506.182 1.11264 2.26664 0
M  V30 5320 C 507.495 2.98372 -0.373477 0
M  V30 5321 C 509.043 3.11324 -0.323452 0
M  V30 5322 C 509.518 4.52472 -0.709433 0
M  V30 5323 N 511.009 4.58437 -0.662524 0
M  V30 5324 C 511.744 5.65751 -0.933474 0
M  V30 5325 N 511.24 6.81039 -1.27114 0
M  V30 5326 N 513.033 5.55489 -0.859573 0
M  V30 5327 H 505.184 1.6979 -1.27614 0
M  V30 5328 H 507.447 0.793732 -0.518356 0
M  V30 5329 H 507.153 3.22618 -1.40037 0
M  V30 5330 H 507.027 3.76264 0.265615 0
M  V30 5331 H 509.414 2.86818 0.694223 0
M  V30 5332 H 509.495 2.35555 -0.997367 0
M  V30 5333 H 509.139 4.7771 -1.72498 0
M  V30 5334 H 509.069 5.26598 -0.0132923 0
M  V30 5335 H 511.56 3.75636 -0.413065 0
M  V30 5336 H 511.873 7.58816 -1.46348 0
M  V30 5337 H 510.218 6.82555 -1.30932 0
M  V30 5338 H 513.409 4.64299 -0.595324 0
M  V30 5339 H 513.582 6.39036 -1.0741 0
M  V30 5340 N 506.988 0.0434614 1.5754 0
M  V30 5341 C 508.234 -0.632971 1.92669 0
M  V30 5342 C 508.567 -1.70947 0.921446 0
M  V30 5343 O 507.842 -1.94426 -0.0537202 0
M  V30 5344 C 508.125 -1.23619 3.38216 0
M  V30 5345 C 507.978 -0.168274 4.49485 0
M  V30 5346 C 509.297 -2.15008 3.84005 0
M  V30 5347 H 506.416 -0.228629 0.700641 0
M  V30 5348 H 509.058 0.103651 1.89717 0
M  V30 5349 H 507.208 -1.864 3.40863 0
M  V30 5350 H 508.88 0.463196 4.58969 0
M  V30 5351 H 507.123 0.504581 4.30855 0
M  V30 5352 H 507.794 -0.630218 5.48391 0
M  V30 5353 H 510.27 -1.62198 3.83185 0
M  V30 5354 H 509.146 -2.54161 4.86511 0
M  V30 5355 H 509.407 -3.04707 3.20322 0
M  V30 5356 N 508.466 -1.55915 -0.229846 0
M  V30 5357 C 509.882 -1.48721 -0.579166 0
M  V30 5358 C 510.082 -0.736976 -1.87539 0
M  V30 5359 O 509.138 -0.273258 -2.51017 0
M  V30 5360 C 510.451 -2.9323 -0.666082 0
M  V30 5361 C 511.999 -3.03701 -0.757267 0
M  V30 5362 C 512.474 -4.49552 -0.8756 0
M  V30 5363 N 513.965 -4.53561 -0.940035 0
M  V30 5364 C 514.7 -5.63683 -1.05116 0
M  V30 5365 N 514.196 -6.83576 -1.12675 0
M  V30 5366 N 515.989 -5.51516 -1.08565 0
M  V30 5367 H 508.14 -2.03123 0.620857 0
M  V30 5368 H 510.403 -0.922898 0.21671 0
M  V30 5369 H 510.109 -3.51032 0.21664 0
M  V30 5370 H 509.983 -3.44668 -1.53243 0
M  V30 5371 H 512.37 -2.45969 -1.63043 0
M  V30 5372 H 512.451 -2.55446 0.134583 0
M  V30 5373 H 512.095 -5.079 -0.00692351 0
M  V30 5374 H 512.025 -4.95506 -1.78274 0
M  V30 5375 H 514.516 -3.67215 -0.892269 0
M  V30 5376 H 514.829 -7.63251 -1.21109 0
M  V30 5377 H 513.174 -6.86303 -1.09603 0
M  V30 5378 H 516.365 -4.5678 -1.02319 0
M  V30 5379 H 516.538 -6.37372 -1.1688 0
M  V30 5380 N 509.944 0.496216 -1.49584 0
M  V30 5381 C 510.892 1.61805 -1.67098 0
M  V30 5382 C 511.886 1.60667 -0.536877 0
M  V30 5383 O 513.092 1.65118 -0.716654 0
M  V30 5384 H 509.467 0.53646 -0.526986 0
M  V30 5385 H 511.438 1.44187 -2.61252 0
M  V30 5386 C 510.187 2.99912 -1.75921 0
M  V30 5387 H 509.51 3.01496 -2.62565 0
M  V30 5388 H 510.95 3.77931 -1.92209 0
M  V30 5389 C 509.409 3.33092 -0.505088 0
M  V30 5390 O 509.939 4.00019 0.367085 0
M  V30 5391 N 508.145 2.88278 -0.366599 0
M  V30 5392 H 507.692 2.33989 -1.07735 0
M  V30 5393 H 507.65 3.10846 0.47142 0
M  V30 5394 N 511.423 1.38739 0.74761 0
M  V30 5395 C 512.371 1.36573 1.88283 0
M  V30 5396 C 513.365 0.250712 1.67534 0
M  V30 5397 O 514.571 0.420073 1.7503 0
M  V30 5398 H 510.946 0.42619 0.619569 0
M  V30 5399 H 512.917 2.32356 1.87226 0
M  V30 5400 C 511.666 1.21361 3.25832 0
M  V30 5401 H 510.989 2.06424 3.42388 0
M  V30 5402 H 512.429 1.23901 4.05493 0
M  V30 5403 C 510.888 -0.0790099 3.36807 0
M  V30 5404 O 511.418 -1.05385 3.8763 0
M  V30 5405 N 509.624 -0.13785 2.90273 0
M  V30 5406 H 509.171 0.656128 2.49104 0
M  V30 5407 H 509.129 -1.00228 2.97996 0
M  V30 5408 N 512.901 -0.976442 1.23707 0
M  V30 5409 C 513.833 -2.07212 0.979574 0
M  V30 5410 C 514.846 -1.6273 -0.0478528 0
M  V30 5411 O 516.035 -1.77506 0.18815 0
M  V30 5412 C 513.135 -3.35835 0.45479 0
M  V30 5413 C 512.308 -4.09268 1.54331 0
M  V30 5414 C 511.367 -5.16166 1.02271 0
M  V30 5415 O 510.393 -5.42827 1.71254 0
M  V30 5416 N 511.595 -5.80313 -0.147419 0
M  V30 5417 H 514.36 -2.29878 1.92292 0
M  V30 5418 H 511.921 -1.14343 1.14618 0
M  V30 5419 H 513.913 -4.04597 0.0914631 0
M  V30 5420 H 512.483 -3.10106 -0.394068 0
M  V30 5421 H 511.703 -3.34906 2.07923 0
M  V30 5422 H 512.991 -4.55095 2.27522 0
M  V30 5423 H 512.389 -5.61043 -0.724353 0
M  V30 5424 H 510.946 -6.50231 -0.451972 0
M  V30 5425 N 514.379 -1.04941 -1.1758 0
M  V30 5426 C 515.625 -0.759112 -1.88057 0
M  V30 5427 C 515.958 0.711918 -1.8068 0
M  V30 5428 O 515.233 1.52035 -1.21308 0
M  V30 5429 C 515.516 -1.237 -3.38187 0
M  V30 5430 C 515.369 -2.77078 -3.54327 0
M  V30 5431 C 516.688 -0.834014 -4.32125 0
M  V30 5432 H 513.807 -0.277237 -0.682868 0
M  V30 5433 H 516.449 -1.30296 -1.38286 0
M  V30 5434 H 514.599 -0.774337 -3.80705 0
M  V30 5435 H 516.271 -3.31449 -3.20842 0
M  V30 5436 H 514.514 -3.16477 -2.96689 0
M  V30 5437 H 515.185 -3.05577 -4.59703 0
M  V30 5438 H 517.661 -1.23228 -3.97434 0
M  V30 5439 H 516.537 -1.19603 -5.35711 0
M  V30 5440 H 516.798 0.262195 -4.41322 0
M  V30 5441 N 515.857 1.33968 -0.830081 0
M  V30 5442 C 516.79 2.27303 -0.202182 0
M  V30 5443 C 517.768 1.49235 0.645581 0
M  V30 5444 O 518.952 1.78433 0.607762 0
M  V30 5445 C 516.079 3.31025 0.716932 0
M  V30 5446 C 515.125 4.26466 -0.0542271 0
M  V30 5447 S 515.958 5.16707 -1.40622 0
M  V30 5448 C 517.114 6.23962 -0.492167 0
M  V30 5449 H 517.347 2.8021 -0.99346 0
M  V30 5450 H 514.88 1.41124 -0.626359 0
M  V30 5451 H 516.838 3.91271 1.24165 0
M  V30 5452 H 515.499 2.76951 1.4818 0
M  V30 5453 H 514.692 4.99858 0.644785 0
M  V30 5454 H 514.294 3.7051 -0.509722 0
M  V30 5455 H 516.586 6.76774 0.31347 0
M  V30 5456 H 517.529 6.97927 -1.19599 0
M  V30 5457 H 517.937 5.64447 -0.0774176 0
M  V30 5458 N 517.335 0.585699 1.46312 0
M  V30 5459 C 518.612 0.00542031 1.95599 0
M  V30 5460 C 518.992 -1.45619 1.52834 0
M  V30 5461 O 518.34 -2.14759 0.780446 0
M  V30 5462 C 518.55 0.180601 3.48532 0
M  V30 5463 C 519.898 0.049979 4.24571 0
M  V30 5464 O 520.922 0.109589 3.56031 0
M  V30 5465 O 519.781 -0.0832226 5.46437 0
M  V30 5466 H 516.875 -0.0481281 0.825598 0
M  V30 5467 H 519.421 0.654227 1.56582 0
M  V30 5468 H 518.193 1.19657 3.72556 0
M  V30 5469 H 517.816 -0.504498 3.94386 0
M  V30 5470 N 518.813 -1.54241 0.323641 0
M  V30 5471 C 520.061 -2.00174 -0.278359 0
M  V30 5472 C 520.382 -1.2134 -1.52648 0
M  V30 5473 O 519.652 -0.315244 -1.93347 0
M  V30 5474 H 518.232 -0.739463 -0.105845 0
M  V30 5475 H 520.894 -1.89864 0.440204 0
M  V30 5476 H 519.99 -3.07486 -0.5347 0
M  V30 5477 N 520.291 -0.0518155 -1.57515 0
M  V30 5478 C 521.521 0.63048 -1.96745 0
M  V30 5479 C 521.929 1.64875 -0.928054 0
M  V30 5480 O 521.272 1.83449 0.0960678 0
M  V30 5481 C 521.334 1.37381 -3.32215 0
M  V30 5482 C 520.998 0.511298 -4.54131 0
M  V30 5483 C 521.995 -0.222884 -5.19422 0
M  V30 5484 C 519.68 0.442035 -5.00351 0
M  V30 5485 C 521.674 -1.01476 -6.2927 0
M  V30 5486 C 519.361 -0.35353 -6.10077 0
M  V30 5487 C 520.359 -1.08062 -6.74397 0
M  V30 5488 O 520.047 -1.8631 -7.82013 0
M  V30 5489 H 519.779 0.177126 -0.652382 0
M  V30 5490 H 522.333 -0.114726 -2.05079 0
M  V30 5491 H 520.563 2.16466 -3.20436 0
M  V30 5492 H 522.252 1.9464 -3.56188 0
M  V30 5493 H 523.018 -0.178846 -4.8467 0
M  V30 5494 H 518.897 0.997562 -4.50077 0
M  V30 5495 H 522.441 -1.58279 -6.79407 0
M  V30 5496 H 518.338 -0.399205 -6.44264 0
M  V30 5497 H 519.106 -1.78528 -7.98793 0
M  V30 5498 N 521.769 1.56035 0.221574 0
M  V30 5499 C 523.18 1.69229 0.788567 0
M  V30 5500 C 523.531 0.653814 1.84986 0
M  V30 5501 O 522.656 -0.195065 2.15519 0
M  V30 5502 C 523.251 3.06809 1.43713 0
M  V30 5503 C 521.81 3.21858 1.95152 0
M  V30 5504 C 520.957 2.65155 0.811685 0
M  V30 5505 H 523.908 1.587 -0.00307894 0
M  V30 5506 H 523.929 3.02666 2.30594 0
M  V30 5507 H 523.441 3.82369 0.664475 0
M  V30 5508 H 521.542 2.51167 2.7522 0
M  V30 5509 H 521.655 4.29073 2.1315 0
M  V30 5510 H 520.019 2.23635 1.21899 0
M  V30 5511 H 520.802 3.43261 0.0516987 0
M  V30 5512 N 523.247 -0.488276 1.49845 0
M  V30 5513 C 524.18 -1.60651 1.62069 0
M  V30 5514 C 525.158 -1.5568 0.469308 0
M  V30 5515 O 526.342 -1.75553 0.686551 0
M  V30 5516 C 523.469 -2.99197 1.58741 0
M  V30 5517 C 522.515 -3.22385 2.79232 0
M  V30 5518 S 523.348 -3.04133 4.40753 0
M  V30 5519 C 524.504 -4.45052 4.4009 0
M  V30 5520 H 524.737 -1.50039 2.56662 0
M  V30 5521 H 522.27 -0.674371 1.38894 0
M  V30 5522 H 524.228 -3.79081 1.57506 0
M  V30 5523 H 522.889 -3.07213 0.654136 0
M  V30 5524 H 522.082 -4.23557 2.73159 0
M  V30 5525 H 521.684 -2.50245 2.77945 0
M  V30 5526 H 523.976 -5.37375 4.12594 0
M  V30 5527 H 524.919 -4.56172 5.41583 0
M  V30 5528 H 525.327 -4.26327 3.70008 0
M  V30 5529 N 524.725 -1.39134 -0.740242 0
M  V30 5530 C 526.136 -1.32208 -1.31825 0
M  V30 5531 C 526.487 0.0159919 -1.96193 0
M  V30 5532 O 525.612 0.918111 -1.95958 0
M  V30 5533 C 526.207 -2.39436 -2.39699 0
M  V30 5534 C 524.766 -2.36048 -2.93187 0
M  V30 5535 C 523.913 -2.21599 -1.66701 0
M  V30 5536 H 526.864 -1.49298 -0.538133 0
M  V30 5537 H 526.885 -2.05922 -3.19963 0
M  V30 5538 H 526.397 -3.36811 -1.92821 0
M  V30 5539 H 524.498 -1.42295 -3.44359 0
M  V30 5540 H 524.611 -3.30704 -3.46658 0
M  V30 5541 H 522.975 -1.68681 -1.90837 0
M  V30 5542 H 523.758 -3.20936 -1.21882 0
M  V30 5543 N 526.204 0.969867 -1.24223 0
M  V30 5544 C 527.453 1.70687 -1.07466 0
M  V30 5545 C 527.766 1.91736 0.386861 0
M  V30 5546 O 528.972 2.62986 0.674581 0
M  V30 5547 C 527.428 3.07217 -1.87472 0
M  V30 5548 C 527.036 2.94018 -3.3802 0
M  V30 5549 C 528.78 3.84804 -1.79237 0
M  V30 5550 C 526.687 4.25844 -4.10379 0
M  V30 5551 H 525.617 0.640067 -0.398536 0
M  V30 5552 H 528.268 1.08092 -1.48285 0
M  V30 5553 H 526.65 3.70628 -1.39466 0
M  V30 5554 H 527.824 2.39632 -3.9359 0
M  V30 5555 H 526.139 2.29898 -3.47183 0
M  V30 5556 H 528.736 4.82417 -2.30603 0
M  V30 5557 H 529.079 4.09356 -0.757197 0
M  V30 5558 H 529.612 3.28115 -2.24912 0
M  V30 5559 H 526.351 4.06486 -5.14246 0
M  V30 5560 H 525.871 4.80054 -3.59594 0
M  V30 5561 H 527.55 4.94475 -4.17257 0
M  V30 5562 N 527.682 1.05563 1.17022 0
M  V30 5563 C 528.93 0.76642 1.87004 0
M  V30 5564 C 529.251 -0.708854 1.8166 0
M  V30 5565 O 528.521 -1.51242 1.2451 0
M  V30 5566 H 527.101 0.280516 0.692329 0
M  V30 5567 H 529.763 1.33557 1.41945 0
M  V30 5568 H 528.859 1.08472 2.92644 0
M  V30 5569 N 529.16 -1.33526 0.837174 0
M  V30 5570 C 530.092 -2.28077 0.226579 0
M  V30 5571 C 531.105 -1.51666 -0.591717 0
M  V30 5572 O 532.294 -1.73511 -0.419064 0
M  V30 5573 C 529.394 -3.31597 -0.69978 0
M  V30 5574 C 528.567 -4.37329 0.0788067 0
M  V30 5575 C 527.626 -5.20526 -0.770637 0
M  V30 5576 O 526.652 -5.68811 -0.210453 0
M  V30 5577 N 527.854 -5.41639 -2.08825 0
M  V30 5578 H 530.619 -2.81115 1.03897 0
M  V30 5579 H 528.18 -1.46201 0.695476 0
M  V30 5580 H 530.172 -3.84158 -1.27298 0
M  V30 5581 H 528.742 -2.78848 -1.41288 0
M  V30 5582 H 527.962 -3.8529 0.833381 0
M  V30 5583 H 529.25 -5.05079 0.614238 0
M  V30 5584 H 528.648 -5.04108 -2.56693 0
M  V30 5585 H 527.205 -5.97263 -2.60998 0
M  V30 5586 N 530.638 -0.59345 -1.46 0
M  V30 5587 C 531.885 -0.0831523 -2.02329 0
M  V30 5588 C 532.213 1.28093 -1.46364 0
M  V30 5589 O 531.468 1.85526 -0.622793 0
M  V30 5590 C 531.767 0.021178 -3.57394 0
M  V30 5591 C 531.433 -1.27671 -4.32448 0
M  V30 5592 C 530.095 -1.63227 -4.5267 0
M  V30 5593 C 532.447 -2.13511 -4.7546 0
M  V30 5594 C 529.775 -2.84401 -5.1316 0
M  V30 5595 C 532.127 -3.33922 -5.37289 0
M  V30 5596 C 530.791 -3.69747 -5.55737 0
M  V30 5597 H 530.061 -0.0304276 -0.740375 0
M  V30 5598 H 532.708 -0.772239 -1.75239 0
M  V30 5599 H 531.013 0.793454 -3.83682 0
M  V30 5600 H 532.71 0.431942 -3.98667 0
M  V30 5601 H 529.3 -0.989937 -4.17011 0
M  V30 5602 H 533.484 -1.87344 -4.59582 0
M  V30 5603 H 528.74 -3.12282 -5.25633 0
M  V30 5604 H 532.914 -4.00698 -5.69574 0
M  V30 5605 H 530.541 -4.6373 -6.02377 0
M  V30 5606 N 532.116 1.54067 -0.331816 0
M  V30 5607 C 533.362 2.01713 0.261395 0
M  V30 5608 C 533.717 1.21566 1.49129 0
M  V30 5609 O 533.01 0.291867 1.89364 0
M  V30 5610 C 533.204 3.51634 0.639392 0
M  V30 5611 C 533.033 4.46295 -0.552321 0
M  V30 5612 C 531.803 4.94185 -1.05399 0
M  V30 5613 C 534.001 4.94677 -1.40711 0
M  V30 5614 N 531.983 5.7277 -2.20925 0
M  V30 5615 C 533.354 5.71267 -2.40943 0
M  V30 5616 C 535.409 4.76805 -1.43392 0
M  V30 5617 C 534.112 6.31889 -3.4367 0
M  V30 5618 C 536.138 5.38268 -2.44994 0
M  V30 5619 C 535.5 6.14716 -3.43952 0
M  V30 5620 H 531.599 0.77975 0.0592729 0
M  V30 5621 H 534.183 1.88974 -0.468726 0
M  V30 5622 H 532.354 3.64603 1.33863 0
M  V30 5623 H 534.086 3.86038 1.21478 0
M  V30 5624 H 530.841 4.69472 -0.623952 0
M  V30 5625 H 531.265 6.16737 -2.79222 0
M  V30 5626 H 535.907 4.17255 -0.682489 0
M  V30 5627 H 533.625 6.90554 -4.19715 0
M  V30 5628 H 537.211 5.26352 -2.4788 0
M  V30 5629 H 536.091 6.6143 -4.21283 0
M  V30 5630 N 533.594 0.0601682 1.57485 0
M  V30 5631 C 535.01 -0.296422 1.56823 0
M  V30 5632 C 535.21 -1.70831 1.0686 0
M  V30 5633 O 534.266 -2.4174 0.729245 0
M  V30 5634 C 535.579 -0.116681 3.00474 0
M  V30 5635 C 537.127 -0.187103 3.1244 0
M  V30 5636 C 537.602 -0.035783 4.57986 0
M  V30 5637 N 539.093 -0.0917676 4.63109 0
M  V30 5638 C 539.828 0.00107251 5.734 0
M  V30 5639 N 539.324 0.146773 6.92645 0
M  V30 5640 N 541.117 -0.0551577 5.62073 0
M  V30 5641 H 533.268 0.983055 1.88281 0
M  V30 5642 H 535.531 0.382386 0.867459 0
M  V30 5643 H 535.237 0.85712 3.41096 0
M  V30 5644 H 535.111 -0.873929 3.66936 0
M  V30 5645 H 537.498 -1.15138 2.71712 0
M  V30 5646 H 537.579 0.601052 2.48638 0
M  V30 5647 H 537.223 0.925212 4.99402 0
M  V30 5648 H 537.153 -0.843196 5.19806 0
M  V30 5649 H 539.644 -0.203261 3.77353 0
M  V30 5650 H 539.957 0.210076 7.72514 0
M  V30 5651 H 538.302 0.181979 6.94762 0
M  V30 5652 H 541.493 -0.167605 4.678 0
M  V30 5653 H 541.666 0.020652 6.47997 0
M  V30 5654 N 535.072 -1.5615 -0.213296 0
M  V30 5655 C 536.32 -1.79191 -0.934612 0
M  V30 5656 C 536.641 -0.630112 -1.84539 0
M  V30 5657 O 535.911 0.35257 -1.92701 0
M  V30 5658 H 534.491 -0.660937 -0.348097 0
M  V30 5659 H 537.153 -1.93618 -0.22317 0
M  V30 5660 H 536.249 -2.71656 -1.53654 0
M  V30 5661 N 536.55 0.480323 -1.50102 0
M  V30 5662 C 537.48 1.58769 -1.71215 0
M  V30 5663 C 538.461 1.60583 -0.560997 0
M  V30 5664 O 539.646 1.76996 -0.799127 0
M  V30 5665 C 536.776 2.97148 -1.79778 0
M  V30 5666 C 535.73 3.10201 -2.94888 0
M  V30 5667 C 535.056 4.50137 -2.88584 0
M  V30 5668 C 536.356 2.88283 -4.35534 0
M  V30 5669 H 538.05 1.41354 -2.6393 0
M  V30 5670 H 535.596 0.678591 -1.27008 0
M  V30 5671 H 537.549 3.74536 -1.93133 0
M  V30 5672 H 536.273 3.15699 -0.836772 0
M  V30 5673 H 534.932 2.35244 -2.81169 0
M  V30 5674 H 534.58 4.65593 -1.90349 0
M  V30 5675 H 534.28 4.59808 -3.65856 0
M  V30 5676 H 535.804 5.29558 -3.03976 0
M  V30 5677 H 537.218 3.55427 -4.49827 0
M  V30 5678 H 535.615 3.09408 -5.14186 0
M  V30 5679 H 536.685 1.84219 -4.48544 0
M  V30 5680 N 538.028 1.39524 0.732853 0
M  V30 5681 C 539.439 1.32905 1.31122 0
M  V30 5682 C 539.79 -0.00558708 1.96199 0
M  V30 5683 O 538.915 -0.907706 1.96443 0
M  V30 5684 C 539.51 2.40704 2.38426 0
M  V30 5685 C 538.069 2.37599 2.91931 0
M  V30 5686 C 537.216 2.2248 1.65523 0
M  V30 5687 H 540.167 1.49581 0.530207 0
M  V30 5688 H 540.188 2.07616 3.18867 0
M  V30 5689 H 539.7 3.37829 1.91033 0
M  V30 5690 H 537.801 1.44119 3.43599 0
M  V30 5691 H 537.914 3.32538 3.44899 0
M  V30 5692 H 536.278 1.69691 1.8994 0
M  V30 5693 H 537.061 3.21577 1.20178 0
M  V30 5694 N 539.506 -0.963266 1.24736 0
M  V30 5695 C 540.469 -2.04013 1.04457 0
M  V30 5696 C 541.469 -1.608 0.000335555 0
M  V30 5697 O 542.659 -1.72515 0.241719 0
M  V30 5698 C 539.791 -3.35858 0.584162 0
M  V30 5699 H 540.984 -2.23436 2.00041 0
M  V30 5700 H 538.537 -1.13914 1.07021 0
M  V30 5701 H 539.272 -3.22128 -0.374673 0
M  V30 5702 H 539.057 -3.68568 1.3379 0
M  V30 5703 H 540.547 -4.1502 0.463451 0
M  V30 5704 N 540.985 -1.06182 -1.16461 0
M  V30 5705 C 542.21 -0.798599 -1.91408 0
M  V30 5706 C 542.635 0.640987 -1.76842 0
M  V30 5707 O 541.993 1.44652 -1.09296 0
M  V30 5708 C 542.041 -1.19665 -3.40165 0
M  V30 5709 O 541.145 -0.334768 -4.11039 0
M  V30 5710 H 540.486 -0.291961 -0.596368 0
M  V30 5711 H 543.016 -1.41732 -1.47557 0
M  V30 5712 H 543.026 -1.16772 -3.90933 0
M  V30 5713 H 541.701 -2.24526 -3.50087 0
M  V30 5714 H 540.278 -0.425168 -3.70468 0
M  V30 5715 N 542.463 1.3308 -0.844243 0
M  V30 5716 C 543.712 1.96868 -0.438833 0
M  V30 5717 C 544.025 1.67599 1.00846 0
M  V30 5718 O 545.231 2.25043 1.51881 0
M  V30 5719 C 543.687 3.5234 -0.73377 0
M  V30 5720 C 543.295 3.90481 -2.1961 0
M  V30 5721 C 545.039 4.22653 -0.395574 0
M  V30 5722 C 542.946 5.38954 -2.43481 0
M  V30 5723 H 541.876 0.736749 -0.160364 0
M  V30 5724 H 544.527 1.51623 -1.03358 0
M  V30 5725 H 542.909 3.95941 -0.068589 0
M  V30 5726 H 544.083 3.57922 -2.90221 0
M  V30 5727 H 542.398 3.33165 -2.4978 0
M  V30 5728 H 544.995 5.31848 -0.551477 0
M  V30 5729 H 545.338 4.11004 0.661921 0
M  V30 5730 H 545.871 3.84601 -1.01621 0
M  V30 5731 H 542.61 5.55612 -3.47816 0
M  V30 5732 H 542.13 5.72954 -1.77437 0
M  V30 5733 H 543.809 6.05907 -2.26905 0
M  V30 5734 N 543.941 0.601185 1.45683 0
M  V30 5735 C 544.889 -0.133955 2.32214 0
M  V30 5736 C 545.883 -0.866034 1.45589 0
M  V30 5737 O 547.089 -0.782326 1.6211 0
M  V30 5738 H 543.464 -0.0620613 0.749435 0
M  V30 5739 H 545.435 0.614389 2.92007 0
M  V30 5740 C 544.184 -1.12216 3.29094 0
M  V30 5741 H 543.507 -0.568273 3.95741 0
M  V30 5742 H 544.947 -1.60659 3.92383 0
M  V30 5743 C 543.406 -2.19251 2.55794 0
M  V30 5744 O 543.936 -3.26894 2.33459 0
M  V30 5745 N 542.142 -1.9436 2.16039 0
M  V30 5746 H 541.689 -1.06829 2.34404 0
M  V30 5747 H 541.647 -2.66181 1.67318 0
M  V30 5748 N 545.419 -1.53889 0.339982 0
M  V30 5749 C 546.647 -2.05271 -0.259114 0
M  V30 5750 C 547.062 -1.21517 -1.44496 0
M  V30 5751 O 546.419 -0.24966 -1.80784 0
M  V30 5752 C 546.47 -3.55092 -0.677634 0
M  V30 5753 O 546.191 -4.35667 0.461051 0
M  V30 5754 C 547.692 -4.22631 -1.33782 0
M  V30 5755 H 544.912 -0.669085 -0.0506566 0
M  V30 5756 H 547.456 -1.9852 0.490935 0
M  V30 5757 H 545.611 -3.62077 -1.37763 0
M  V30 5758 H 546.025 -5.24343 0.128144 0
M  V30 5759 H 547.499 -5.28861 -1.58145 0
M  V30 5760 H 547.976 -3.74758 -2.29027 0
M  V30 5761 H 548.582 -4.19829 -0.679957 0
M  V30 5762 N 546.897 -0.0685191 -1.57451 0
M  V30 5763 C 547.86 0.885173 -2.11417 0
M  V30 5764 C 548.86 1.22853 -1.03748 0
M  V30 5765 O 550.05 1.16235 -1.2975 0
M  V30 5766 C 547.182 2.18964 -2.61281 0
M  V30 5767 H 548.375 0.417034 -2.96986 0
M  V30 5768 H 545.928 0.18014 -1.55258 0
M  V30 5769 H 546.663 2.70321 -1.79156 0
M  V30 5770 H 546.448 1.9534 -3.39977 0
M  V30 5771 H 547.938 2.87242 -3.0312 0
M  V30 5772 N 548.375 1.56261 0.205012 0
M  V30 5773 C 549.605 1.83874 0.942018 0
M  V30 5774 C 550.013 0.647595 1.77772 0
M  V30 5775 O 549.356 -0.393098 1.79445 0
M  V30 5776 C 549.418 3.05453 1.89575 0
M  V30 5777 C 549.082 4.39772 1.24296 0
M  V30 5778 C 550.079 5.16133 0.624724 0
M  V30 5779 C 547.764 4.86504 1.24978 0
M  V30 5780 C 549.758 6.37396 0.0220117 0
M  V30 5781 C 547.445 6.07705 0.643232 0
M  V30 5782 C 548.443 6.82993 0.0304164 0
M  V30 5783 O 548.131 8.019 -0.566654 0
M  V30 5784 H 547.863 0.614896 0.280854 0
M  V30 5785 H 550.417 2.04215 0.220285 0
M  V30 5786 H 548.647 2.80972 2.65691 0
M  V30 5787 H 550.336 3.19797 2.4997 0
M  V30 5788 H 551.102 4.81127 0.611666 0
M  V30 5789 H 546.981 4.27865 1.71616 0
M  V30 5790 H 550.525 6.96102 -0.456926 0
M  V30 5791 H 546.422 6.42181 0.653759 0
M  V30 5792 H 547.19 8.17192 -0.462588 0
M  V30 5793 N 549.853 -0.472356 1.50355 0
M  V30 5794 C 550.763 -1.59637 1.7191 0
M  V30 5795 C 551.779 -1.63247 0.602195 0
M  V30 5796 O 552.955 -1.81139 0.880369 0
M  V30 5797 C 550.02 -2.9586 1.80742 0
M  V30 5798 C 549.081 -3.02649 3.04471 0
M  V30 5799 C 548.314 -4.32374 3.12872 0
M  V30 5800 O 548.537 -5.22807 2.28099 0
M  V30 5801 O 547.471 -4.44728 4.05587 0
M  V30 5802 H 551.297 -1.44373 2.67189 0
M  V30 5803 H 548.882 -0.651717 1.34436 0
M  V30 5804 H 550.764 -3.7677 1.88739 0
M  V30 5805 H 549.439 -3.11325 0.88647 0
M  V30 5806 H 548.346 -2.20821 3.01975 0
M  V30 5807 H 549.679 -2.92119 3.9614 0
M  V30 5808 N 551.331 -1.39911 -0.725443 0
M  V30 5809 C 552.747 -1.21725 -1.03224 0
M  V30 5810 C 552.947 -0.0855224 -2.01318 0
M  V30 5811 O 552.003 0.55976 -2.46217 0
M  V30 5812 C 553.316 -2.55511 -1.58539 0
M  V30 5813 C 554.864 -2.62439 -1.70572 0
M  V30 5814 C 555.339 -3.9647 -2.29294 0
M  V30 5815 N 556.83 -3.98159 -2.36692 0
M  V30 5816 C 557.565 -4.98647 -2.83088 0
M  V30 5817 N 557.061 -6.0953 -3.2931 0
M  V30 5818 N 558.854 -4.8602 -2.82384 0
M  V30 5819 H 551.005 -2.12267 -0.075048 0
M  V30 5820 H 553.268 -0.943136 -0.0959066 0
M  V30 5821 H 552.974 -3.38926 -0.939249 0
M  V30 5822 H 552.848 -2.75905 -2.57208 0
M  V30 5823 H 555.235 -1.79401 -2.34306 0
M  V30 5824 H 555.316 -2.45885 -0.705297 0
M  V30 5825 H 554.96 -4.79942 -1.66186 0
M  V30 5826 H 554.89 -4.10349 -3.30032 0
M  V30 5827 H 557.381 -3.18085 -2.04035 0
M  V30 5828 H 557.694 -6.82106 -3.6325 0
M  V30 5829 H 556.039 -6.1311 -3.27294 0
M  V30 5830 H 559.23 -3.98493 -2.45603 0
M  V30 5831 H 559.403 -5.64478 -3.18226 0
M  V30 5832 N 552.809 0.956637 -1.25245 0
M  V30 5833 C 553.756 2.053 -1.05454 0
M  V30 5834 C 554.726 1.66062 0.0356889 0
M  V30 5835 O 555.911 1.90415 -0.121099 0
M  V30 5836 C 553.051 3.38391 -0.677191 0
M  V30 5837 C 552.164 3.90758 -1.84206 0
M  V30 5838 C 551.299 5.12165 -1.40926 0
M  V30 5839 C 550.338 5.56757 -2.54338 0
M  V30 5840 N 549.475 6.69376 -2.11848 0
M  V30 5841 H 554.315 2.21562 -1.99284 0
M  V30 5842 H 551.852 1.08578 -0.992434 0
M  V30 5843 H 553.81 4.1488 -0.43938 0
M  V30 5844 H 552.44 3.22021 0.224127 0
M  V30 5845 H 551.492 3.10808 -2.19323 0
M  V30 5846 H 552.804 4.19802 -2.69383 0
M  V30 5847 H 551.958 5.96065 -1.13098 0
M  V30 5848 H 550.697 4.84832 -0.528175 0
M  V30 5849 H 549.702 4.71423 -2.82913 0
M  V30 5850 H 550.927 5.861 -3.43022 0
M  V30 5851 H 548.873 6.43756 -1.26153 0
M  V30 5852 H 548.79 6.97927 -2.90574 0
M  V30 5853 H 550.058 7.5669 -1.87191 0
M  V30 5854 N 554.287 1.06798 1.15896 0
M  V30 5855 C 555.564 0.701057 1.82605 0
M  V30 5856 C 555.944 -0.817066 1.94646 0
M  V30 5857 O 555.292 -1.72933 1.49353 0
M  V30 5858 C 555.502 1.40895 3.19296 0
M  V30 5859 C 556.85 1.55744 3.95005 0
M  V30 5860 O 557.874 1.36927 3.28831 0
M  V30 5861 O 556.733 1.86658 5.13635 0
M  V30 5862 H 553.827 0.248791 0.78869 0
M  V30 5863 H 556.373 1.16857 1.23055 0
M  V30 5864 H 555.145 2.4439 3.05596 0
M  V30 5865 H 554.768 0.931847 3.86526 0
M  V30 5866 N 555.766 -1.3263 0.851289 0
M  V30 5867 C 557.014 -1.96978 0.452128 0
M  V30 5868 C 557.335 -1.67715 -0.99482 0
M  V30 5869 O 556.605 -0.98259 -1.69476 0
M  V30 5870 H 555.185 -0.72873 0.164202 0
M  V30 5871 H 557.847 -1.61774 1.08698 0
M  V30 5872 H 556.943 -3.06387 0.594407 0
M  V30 5873 N 557.244 -0.608902 -1.45362 0
M  V30 5874 C 558.191 0.109172 -2.30542 0
M  V30 5875 C 559.161 0.858704 -1.42181 0
M  V30 5876 O 560.346 0.844178 -1.71109 0
M  V30 5877 C 557.486 1.09971 -3.27109 0
M  V30 5878 C 556.599 0.350911 -4.30572 0
M  V30 5879 C 555.734 1.33129 -5.14247 0
M  V30 5880 C 554.773 0.570377 -6.09437 0
M  V30 5881 N 553.91 1.5001 -6.85887 0
M  V30 5882 H 558.75 -0.623195 -2.91411 0
M  V30 5883 H 556.287 -0.319122 -1.43597 0
M  V30 5884 H 558.245 1.68714 -3.81564 0
M  V30 5885 H 556.875 1.79947 -2.67991 0
M  V30 5886 H 555.927 -0.352054 -3.78767 0
M  V30 5887 H 557.239 -0.242725 -4.98209 0
M  V30 5888 H 556.393 1.99074 -5.73109 0
M  V30 5889 H 555.132 1.95885 -4.46632 0
M  V30 5890 H 554.137 -0.102702 -5.49704 0
M  V30 5891 H 555.362 -0.0521607 -6.7908 0
M  V30 5892 H 553.308 2.11529 -6.2096 0
M  V30 5893 H 553.225 0.959934 -7.49881 0
M  V30 5894 H 554.493 2.14909 -7.49289 0
M  V30 5895 N 558.722 1.53707 -0.348139 0
M  V30 5896 C 559.969 2.00988 0.246966 0
M  V30 5897 C 560.297 1.23586 1.50189 0
M  V30 5898 O 559.552 0.312817 1.93184 0
M  V30 5899 C 559.851 3.52292 0.602061 0
M  V30 5900 C 559.517 4.47453 -0.556509 0
M  V30 5901 C 558.179 4.73188 -0.874446 0
M  V30 5902 C 560.531 5.03851 -1.33354 0
M  V30 5903 C 557.859 5.52577 -1.9717 0
M  V30 5904 C 560.211 5.84437 -2.42108 0
M  V30 5905 C 558.875 6.08465 -2.74456 0
M  V30 5906 H 558.145 0.735469 0.0903712 0
M  V30 5907 H 560.792 1.85464 -0.477001 0
M  V30 5908 H 559.097 3.65672 1.40681 0
M  V30 5909 H 560.794 3.86337 1.07447 0
M  V30 5910 H 557.384 4.27558 -0.298652 0
M  V30 5911 H 561.568 4.8393 -1.10117 0
M  V30 5912 H 556.824 5.69418 -2.22651 0
M  V30 5913 H 560.998 6.27151 -3.02745 0
M  V30 5914 H 558.625 6.69768 -3.59604 0
M  V30 5915 N 560.2 0.0768682 1.57412 0
M  V30 5916 C 561.446 -0.591961 1.93968 0
M  V30 5917 C 561.779 -1.68954 0.9575 0
M  V30 5918 O 561.054 -1.94496 -0.0124675 0
M  V30 5919 C 561.337 -1.16418 3.40762 0
M  V30 5920 C 561.19 -0.0728933 4.49741 0
M  V30 5921 C 562.509 -2.06814 3.88479 0
M  V30 5922 H 559.628 -0.213716 0.705333 0
M  V30 5923 H 562.27 0.14387 1.89455 0
M  V30 5924 H 560.42 -1.79128 3.4474 0
M  V30 5925 H 562.092 0.560446 4.57883 0
M  V30 5926 H 560.335 0.595859 4.29688 0
M  V30 5927 H 561.006 -0.513755 5.49604 0
M  V30 5928 H 563.482 -1.54033 3.8654 0
M  V30 5929 H 562.358 -2.43785 4.91793 0
M  V30 5930 H 562.619 -2.97844 3.26713 0
M  V30 5931 N 561.678 -1.56367 -0.196722 0
M  V30 5932 C 562.925 -1.80529 -0.917366 0
M  V30 5933 C 563.253 -0.649817 -1.83324 0
M  V30 5934 O 562.508 0.36451 -1.92275 0
M  V30 5935 C 562.807 -3.10663 -1.767 0
M  V30 5936 C 562.473 -4.3962 -1.00225 0
M  V30 5937 C 561.135 -4.74653 -0.791095 0
M  V30 5938 C 563.487 -5.1913 -0.464035 0
M  V30 5939 C 560.815 -5.86692 -0.0302155 0
M  V30 5940 C 563.167 -6.31964 0.283625 0
M  V30 5941 C 561.831 -6.65581 0.505813 0
M  V30 5942 H 561.101 -0.660602 -0.335688 0
M  V30 5943 H 563.748 -1.90615 -0.183844 0
M  V30 5944 H 562.053 -2.95807 -2.56915 0
M  V30 5945 H 563.75 -3.26563 -2.32718 0
M  V30 5946 H 560.34 -4.12127 -1.17684 0
M  V30 5947 H 564.524 -4.9248 -0.614575 0
M  V30 5948 H 559.78 -6.11211 0.151917 0
M  V30 5949 H 563.954 -6.92791 0.708057 0
M  V30 5950 H 561.581 -7.52239 1.0973 0
M  V30 5951 N 563.156 0.464375 -1.50603 0
M  V30 5952 C 564.403 1.21596 -1.61928 0
M  V30 5953 C 564.731 1.91804 -0.322737 0
M  V30 5954 O 563.986 1.83065 0.691776 0
M  V30 5955 C 564.285 2.278 -2.75394 0
M  V30 5956 C 563.951 1.74797 -4.1564 0
M  V30 5957 C 562.613 1.60063 -4.53799 0
M  V30 5958 C 564.965 1.35548 -5.03266 0
M  V30 5959 C 562.293 1.04514 -5.77316 0
M  V30 5960 C 564.645 0.814381 -6.27336 0
M  V30 5961 C 563.309 0.653726 -6.64291 0
M  V30 5962 H 562.579 0.444951 -0.592536 0
M  V30 5963 H 565.226 0.510964 -1.84557 0
M  V30 5964 H 563.531 3.04233 -2.46879 0
M  V30 5965 H 565.228 2.85723 -2.81359 0
M  V30 5966 H 561.818 1.87234 -3.8554 0
M  V30 5967 H 566.002 1.45763 -4.74412 0
M  V30 5968 H 561.258 0.908186 -6.04617 0
M  V30 5969 H 565.432 0.501626 -6.94591 0
M  V30 5970 H 563.059 0.22114 -7.59878 0
M  V30 5971 N 564.634 1.40294 0.718013 0
M  V30 5972 C 565.581 1.40367 1.8321 0
M  V30 5973 C 566.551 0.260952 1.64037 0
M  V30 5974 O 567.736 0.458648 1.85205 0
M  V30 5975 C 564.876 1.26965 3.20895 0
M  V30 5976 C 563.989 2.50922 3.51656 0
M  V30 5977 C 563.124 2.29981 4.78834 0
M  V30 5978 C 562.163 3.49527 5.02491 0
M  V30 5979 N 561.3 3.27796 6.20882 0
M  V30 5980 H 566.14 2.35593 1.82482 0
M  V30 5981 H 563.677 1.17012 0.891444 0
M  V30 5982 H 565.635 1.17202 4.00399 0
M  V30 5983 H 564.265 0.353591 3.20858 0
M  V30 5984 H 563.317 2.71223 2.66725 0
M  V30 5985 H 564.629 3.39913 3.65048 0
M  V30 5986 H 563.783 2.17558 5.66351 0
M  V30 5987 H 562.522 1.38411 4.67647 0
M  V30 5988 H 561.527 3.6243 4.1343 0
M  V30 5989 H 562.752 4.42021 5.15553 0
M  V30 5990 H 560.698 2.38906 6.1095 0
M  V30 5991 H 560.615 4.10351 6.34939 0
M  V30 5992 H 561.883 3.19101 7.11193 0
M  V30 5993 N 566.112 -0.949982 1.2575 0
M  V30 5994 C 567.36 -1.6918 1.10555 0
M  V30 5995 C 567.681 -1.91773 -0.353298 0
M  V30 5996 O 566.951 -1.50814 -1.25027 0
M  V30 5997 H 565.531 -0.626952 0.406129 0
M  V30 5998 H 568.193 -1.1419 1.57945 0
M  V30 5999 H 567.289 -2.66915 1.61749 0
M  V30 6000 N 567.59 -1.07411 -1.15328 0
M  V30 6001 C 568.867 -0.710732 -1.82231 0
M  V30 6002 C 569.247 0.806732 -1.95077 0
M  V30 6003 O 568.595 1.72139 -1.50268 0
M  V30 6004 C 568.805 -1.42586 -3.18544 0
M  V30 6005 C 570.153 -1.57836 -3.94174 0
M  V30 6006 O 571.177 -1.38669 -3.281 0
M  V30 6007 O 570.036 -1.8938 -5.12638 0
M  V30 6008 H 567.13 -0.25297 -0.78736 0
M  V30 6009 H 569.676 -1.17508 -1.22434 0
M  V30 6010 H 568.448 -2.46008 -3.04296 0
M  V30 6011 H 568.071 -0.952332 -3.86026 0
M  V30 6012 N 569.068 1.32177 -0.85831 0
M  V30 6013 C 570.015 2.28794 -0.303607 0
M  V30 6014 C 570.985 1.55213 0.591453 0
M  V30 6015 O 572.17 1.83418 0.525585 0
M  V30 6016 C 569.31 3.41475 0.49889 0
M  V30 6017 C 568.423 4.2993 -0.422373 0
M  V30 6018 C 567.558 5.29743 0.393111 0
M  V30 6019 C 566.597 6.09842 -0.525317 0
M  V30 6020 N 565.734 7.01643 0.253208 0
M  V30 6021 H 570.574 2.75631 -1.13276 0
M  V30 6022 H 568.111 1.35606 -0.570026 0
M  V30 6023 H 570.069 4.05531 0.979826 0
M  V30 6024 H 568.699 2.95779 1.29284 0
M  V30 6025 H 567.751 3.66422 -1.02171 0
M  V30 6026 H 569.063 4.85899 -1.12709 0
M  V30 6027 H 568.217 5.9942 0.937056 0
M  V30 6028 H 566.956 4.744 1.13117 0
M  V30 6029 H 565.961 5.39066 -1.08112 0
M  V30 6030 H 567.186 6.6727 -1.26205 0
M  V30 6031 H 565.132 6.48725 0.974295 0
M  V30 6032 H 565.049 7.54981 -0.392398 0
M  V30 6033 H 566.317 7.756 0.778761 0
M  V30 6034 N 570.547 0.616602 1.45037 0
M  V30 6035 C 571.497 -0.118543 2.27692 0
M  V30 6036 C 572.481 -0.830025 1.37838 0
M  V30 6037 O 573.673 -0.718528 1.6176 0
M  V30 6038 C 570.802 -1.10924 3.24886 0
M  V30 6039 C 569.888 -0.398134 4.22227 0
M  V30 6040 N 570.279 0.565233 5.02632 0
M  V30 6041 C 568.577 -0.644506 4.41319 0
M  V30 6042 C 569.278 0.984043 5.73316 0
M  V30 6043 N 568.254 0.325879 5.42622 0
M  V30 6044 H 572.056 0.621239 2.87259 0
M  V30 6045 H 569.57 0.440968 1.56299 0
M  V30 6046 H 571.567 -1.65038 3.82842 0
M  V30 6047 H 570.227 -1.84948 2.66879 0
M  V30 6048 H 571.238 0.942395 5.09254 0
M  V30 6049 H 567.915 -1.36873 3.94426 0
M  V30 6050 H 569.305 1.77911 6.47918 0
M  V30 6051 N 572.025 -1.5352 0.356285 0
M  V30 6052 C 573.271 -2.02104 -0.229271 0
M  V30 6053 C 573.626 -1.23923 -1.47176 0
M  V30 6054 O 572.919 -0.321957 -1.88876 0
M  V30 6055 C 573.113 -3.52607 -0.583369 0
M  V30 6056 C 572.942 -4.4536 0.623253 0
M  V30 6057 C 571.712 -4.92446 1.13248 0
M  V30 6058 C 573.91 -4.92375 1.48563 0
M  V30 6059 N 571.892 -5.69183 2.3001 0
M  V30 6060 C 573.263 -5.67362 2.50001 0
M  V30 6061 C 575.318 -4.74464 1.50959 0
M  V30 6062 C 574.021 -6.26341 3.5368 0
M  V30 6063 C 576.047 -5.34302 2.53526 0
M  V30 6064 C 575.409 -6.09166 3.53688 0
M  V30 6065 H 571.508 -0.780595 -0.0468602 0
M  V30 6066 H 574.092 -1.88204 0.49873 0
M  V30 6067 H 572.263 -3.66686 -1.28046 0
M  V30 6068 H 573.995 -3.87922 -1.15321 0
M  V30 6069 H 570.75 -4.6842 0.698562 0
M  V30 6070 H 571.174 -6.12216 2.88998 0
M  V30 6071 H 575.816 -4.16117 0.748785 0
M  V30 6072 H 573.534 -6.8379 4.30648 0
M  V30 6073 H 577.12 -5.22342 2.56223 0
M  V30 6074 H 576 -6.54644 4.31753 0
M  V30 6075 N 573.503 -0.0852151 -1.57369 0
M  V30 6076 C 574.749 0.581666 -1.94279 0
M  V30 6077 C 575.082 1.68444 -0.966446 0
M  V30 6078 O 574.357 1.945 0.00215277 0
M  V30 6079 C 574.64 1.14609 -3.41375 0
M  V30 6080 C 574.493 0.0490414 -4.49773 0
M  V30 6081 C 575.812 2.04751 -3.8957 0
M  V30 6082 H 572.931 0.209972 -0.706456 0
M  V30 6083 H 575.573 -0.153915 -1.89376 0
M  V30 6084 H 573.723 1.77297 -3.45685 0
M  V30 6085 H 575.395 -0.584721 -4.57579 0
M  V30 6086 H 573.638 -0.618638 -4.29366 0
M  V30 6087 H 574.309 0.484601 -5.49869 0
M  V30 6088 H 576.785 1.51981 -3.87351 0
M  V30 6089 H 575.661 2.41173 -4.93079 0
M  V30 6090 H 575.922 2.96107 -3.28288 0
M  V30 6091 N 574.981 1.5647 0.188427 0
M  V30 6092 C 576.228 1.81013 0.907779 0
M  V30 6093 C 576.556 0.65953 1.82977 0
M  V30 6094 O 575.811 -0.354308 1.92466 0
M  V30 6095 C 576.11 3.11596 1.7505 0
M  V30 6096 C 575.776 4.40145 0.978922 0
M  V30 6097 C 574.438 4.75066 0.765912 0
M  V30 6098 C 576.79 5.19369 0.436498 0
M  V30 6099 C 574.118 5.867 -0.00089868 0
M  V30 6100 C 576.47 6.31805 -0.317136 0
M  V30 6101 C 575.134 6.65303 -0.541103 0
M  V30 6102 H 574.404 0.662373 0.33218 0
M  V30 6103 H 577.051 1.9071 0.173732 0
M  V30 6104 H 575.356 2.97165 2.55343 0
M  V30 6105 H 577.053 3.27793 2.30983 0
M  V30 6106 H 573.643 4.12745 1.15497 0
M  V30 6107 H 577.827 4.92799 0.588449 0
M  V30 6108 H 573.083 6.11122 -0.184329 0
M  V30 6109 H 577.257 6.92406 -0.744788 0
M  V30 6110 H 574.884 7.51646 -1.13718 0
M  V30 6111 N 576.459 -0.456382 1.50847 0
M  V30 6112 C 577.736 -1.21739 1.53098 0
M  V30 6113 C 578.116 -2.09179 0.284132 0
M  V30 6114 O 577.464 -2.16466 -0.731773 0
M  V30 6115 C 577.674 -2.03573 2.83477 0
M  V30 6116 C 579.022 -2.61264 3.34703 0
M  V30 6117 O 580.046 -2.13802 2.84898 0
M  V30 6118 O 578.905 -3.47779 4.21559 0
M  V30 6119 H 575.999 -0.553219 0.614718 0
M  V30 6120 H 578.545 -0.467003 1.63148 0
M  V30 6121 H 577.317 -1.39232 3.65691 0
M  V30 6122 H 576.94 -2.85716 2.76499 0
M  V30 6123 N 577.937 -1.40673 -0.710563 0
M  V30 6124 C 578.847 -1.43663 -1.85467 0
M  V30 6125 C 579.863 -0.328721 -1.70867 0
M  V30 6126 O 581.039 -0.574098 -1.93044 0
M  V30 6127 C 578.104 -1.30226 -3.21313 0
M  V30 6128 C 577.165 -2.51204 -3.48131 0
M  V30 6129 C 576.398 -2.38398 -4.77495 0
M  V30 6130 O 576.621 -1.40048 -5.5294 0
M  V30 6131 O 575.555 -3.2787 -5.04762 0
M  V30 6132 H 579.381 -2.40156 -1.859 0
M  V30 6133 H 576.966 -1.22049 -0.861652 0
M  V30 6134 H 578.848 -1.2496 -4.02446 0
M  V30 6135 H 577.523 -0.368419 -3.21597 0
M  V30 6136 H 576.43 -2.62048 -2.66987 0
M  V30 6137 H 577.763 -3.43366 -3.52648 0
M  V30 6138 N 579.415 0.9433 -1.26252 0
M  V30 6139 C 580.378 2.02326 -1.07689 0
M  V30 6140 C 581.378 1.60779 -0.0259174 0
M  V30 6141 O 582.568 1.72108 -0.269134 0
M  V30 6142 C 579.7 3.34886 -0.63752 0
M  V30 6143 H 580.893 2.20225 -2.0357 0
M  V30 6144 H 578.446 1.12197 -1.08819 0
M  V30 6145 H 579.181 3.22684 0.323377 0
M  V30 6146 H 578.966 3.66393 -1.39637 0
M  V30 6147 H 580.456 4.14231 -0.529418 0
M  V30 6148 N 580.893 1.08022 1.14757 0
M  V30 6149 C 582.118 0.82895 1.90114 0
M  V30 6150 C 582.543 -0.612772 1.77839 0
M  V30 6151 O 581.901 -1.42895 1.11583 0
M  V30 6152 C 581.949 1.25062 3.38219 0
M  V30 6153 O 581.053 0.400119 4.10454 0
M  V30 6154 H 580.394 0.301412 0.591648 0
M  V30 6155 H 582.924 1.44062 1.45284 0
M  V30 6156 H 582.934 1.22977 3.89025 0
M  V30 6157 H 581.609 2.30067 3.46471 0
M  V30 6158 H 580.186 0.484052 3.69745 0
M  V30 6159 N 582.371 -1.3172 0.865308 0
M  V30 6160 C 583.301 -2.31109 0.333302 0
M  V30 6161 C 584.282 -1.60148 -0.573301 0
M  V30 6162 O 585.467 -1.87882 -0.491305 0
M  V30 6163 C 582.597 -3.44104 -0.470078 0
M  V30 6164 C 581.551 -4.26623 0.343021 0
M  V30 6165 C 580.877 -5.31482 -0.585756 0
M  V30 6166 C 582.177 -4.98001 1.57456 0
M  V30 6167 H 583.871 -2.75855 1.1638 0
M  V30 6168 H 581.417 -1.3262 0.561069 0
M  V30 6169 H 583.37 -4.12682 -0.852752 0
M  V30 6170 H 582.094 -2.98112 -1.33404 0
M  V30 6171 H 580.753 -3.59707 0.707583 0
M  V30 6172 H 580.401 -4.81741 -1.44686 0
M  V30 6173 H 580.101 -5.87582 -0.0456494 0
M  V30 6174 H 581.625 -6.0292 -0.965375 0
M  V30 6175 H 583.039 -5.59201 1.26359 0
M  V30 6176 H 581.436 -5.63876 2.05339 0
M  V30 6177 H 582.506 -4.25253 2.32997 0
M  V30 6178 N 583.85 -0.624285 -1.44708 0
M  V30 6179 C 584.76 0.0861083 -2.34442 0
M  V30 6180 C 585.776 0.84291 -1.5222 0
M  V30 6181 O 586.952 0.796723 -1.84971 0
M  V30 6182 C 584.017 1.05999 -3.30099 0
M  V30 6183 C 583.077 0.303316 -4.28227 0
M  V30 6184 C 582.311 1.23081 -5.19314 0
M  V30 6185 O 582.534 2.46929 -5.14181 0
M  V30 6186 O 581.468 0.71883 -5.97592 0
M  V30 6187 H 585.293 -0.651756 -2.96624 0
M  V30 6188 H 582.879 -0.384493 -1.44368 0
M  V30 6189 H 584.76 1.62046 -3.88997 0
M  V30 6190 H 583.436 1.77859 -2.70459 0
M  V30 6191 H 582.343 -0.300033 -3.72895 0
M  V30 6192 H 583.676 -0.375123 -4.90768 0
M  V30 6193 N 585.328 1.53329 -0.364422 0
M  V30 6194 C 586.739 1.86345 0.115039 0
M  V30 6195 C 587.09 1.28505 1.4826 0
M  V30 6196 O 586.215 0.606639 2.07723 0
M  V30 6197 C 586.81 3.38114 0.215522 0
M  V30 6198 C 585.369 3.70932 0.639237 0
M  V30 6199 C 584.516 2.76471 -0.214261 0
M  V30 6200 H 587.467 1.47593 -0.583258 0
M  V30 6201 H 587.488 3.66031 1.0393 0
M  V30 6202 H 587 3.80182 -0.779948 0
M  V30 6203 H 585.101 3.3442 1.64298 0
M  V30 6204 H 585.214 4.77302 0.41465 0
M  V30 6205 H 583.578 2.52724 0.316678 0
M  V30 6206 H 584.361 3.21373 -1.20725 0
M  V30 6207 N 586.806 0.0935595 1.57322 0
M  V30 6208 C 588.054 -0.569383 1.93913 0
M  V30 6209 C 588.375 -1.68817 0.976009 0
M  V30 6210 O 587.645 -1.9588 0.0278099 0
M  V30 6211 H 586.225 -0.21332 0.715894 0
M  V30 6212 H 588.887 0.156531 1.9427 0
M  V30 6213 H 587.983 -0.980577 2.96296 0
M  V30 6214 N 588.284 -1.56567 -0.180126 0
M  V30 6215 C 589.514 -1.85349 -0.912647 0
M  V30 6216 C 589.922 -0.675795 -1.76719 0
M  V30 6217 O 589.265 0.3645 -1.80047 0
M  V30 6218 C 589.327 -3.08431 -1.84691 0
M  V30 6219 C 588.991 -4.41694 -1.17284 0
M  V30 6220 C 589.988 -5.17062 -0.542532 0
M  V30 6221 C 587.673 -4.8843 -1.17223 0
M  V30 6222 C 589.667 -6.37351 0.0793953 0
M  V30 6223 C 587.354 -6.08652 -0.54647 0
M  V30 6224 C 588.352 -6.82955 0.0782458 0
M  V30 6225 O 588.04 -8.00897 0.694158 0
M  V30 6226 H 587.772 -0.619286 -0.271036 0
M  V30 6227 H 590.326 -2.0454 -0.187768 0
M  V30 6228 H 588.556 -2.85163 -2.61188 0
M  V30 6229 H 590.245 -3.23733 -2.44851 0
M  V30 6230 H 591.011 -4.8204 -0.535045 0
M  V30 6231 H 586.89 -4.30542 -1.64788 0
M  V30 6232 H 590.434 -6.95287 0.567612 0
M  V30 6233 H 586.331 -6.4314 -0.55151 0
M  V30 6234 H 587.099 -8.16352 0.592537 0
M  V30 6235 N 589.762 0.448376 -1.51087 0
M  V30 6236 C 591.173 1.0286 -1.5581 0
M  V30 6237 C 591.524 1.92583 -0.374989 0
M  V30 6238 O 590.649 2.10316 0.509533 0
M  V30 6239 C 591.244 1.87223 -2.8237 0
M  V30 6240 C 589.803 2.40314 -2.897 0
M  V30 6241 C 588.95 1.19238 -2.50355 0
M  V30 6242 H 591.901 0.230075 -1.57023 0
M  V30 6243 H 591.922 2.72553 -2.6551 0
M  V30 6244 H 591.434 1.21894 -3.68461 0
M  V30 6245 H 589.535 3.09129 -2.08014 0
M  V30 6246 H 589.648 2.73866 -3.93108 0
M  V30 6247 H 588.012 1.53428 -2.03303 0
M  V30 6248 H 588.795 0.555367 -3.38778 0
M  V30 6249 N 591.24 1.41047 0.703093 0
M  V30 6250 C 592.187 1.42302 1.81711 0
M  V30 6251 C 593.157 0.278336 1.63751 0
M  V30 6252 O 594.342 0.478266 1.84709 0
M  V30 6253 C 591.482 1.30362 3.19531 0
M  V30 6254 C 590.595 2.54638 3.48975 0
M  V30 6255 C 589.73 2.35047 4.76368 0
M  V30 6256 C 588.769 3.54837 4.98756 0
M  V30 6257 N 587.906 3.34363 6.1737 0
M  V30 6258 H 592.746 2.37516 1.79973 0
M  V30 6259 H 590.283 1.1795 0.878983 0
M  V30 6260 H 592.241 1.21443 3.99134 0
M  V30 6261 H 590.871 0.387602 3.20464 0
M  V30 6262 H 589.923 2.74037 2.63833 0
M  V30 6263 H 591.235 3.43766 3.61423 0
M  V30 6264 H 590.389 2.23552 5.64012 0
M  V30 6265 H 589.128 1.43363 4.66153 0
M  V30 6266 H 588.133 3.66795 4.09563 0
M  V30 6267 H 589.358 4.47464 5.10835 0
M  V30 6268 H 587.304 2.45373 6.08382 0
M  V30 6269 H 587.221 4.17063 6.30551 0
M  V30 6270 H 588.489 3.26626 7.07768 0
M  V30 6271 N 592.718 -0.936591 1.26751 0
M  V30 6272 C 593.668 -2.0219 1.05371 0
M  V30 6273 C 594.652 -1.60893 -0.0154112 0
M  V30 6274 O 595.844 -1.75843 0.202085 0
M  V30 6275 C 592.973 -3.36222 0.693541 0
M  V30 6276 C 592.059 -3.8399 1.80035 0
M  V30 6277 N 592.45 -4.0436 3.03852 0
M  V30 6278 C 590.748 -4.12945 1.685 0
M  V30 6279 C 591.449 -4.44 3.75818 0
M  V30 6280 N 590.425 -4.50966 3.03531 0
M  V30 6281 H 594.227 -2.15958 1.99347 0
M  V30 6282 H 591.741 -1.12277 1.17335 0
M  V30 6283 H 593.738 -4.13625 0.521513 0
M  V30 6284 H 592.398 -3.23821 -0.238693 0
M  V30 6285 H 593.409 -3.9092 3.39709 0
M  V30 6286 H 590.086 -4.09308 0.822986 0
M  V30 6287 H 591.476 -4.67914 4.82189 0
M  V30 6288 N 594.196 -1.08629 -1.14182 0
M  V30 6289 C 595.445 -0.812271 -1.84621 0
M  V30 6290 C 595.758 0.664313 -1.83973 0
M  V30 6291 O 596.964 1.05357 -2.50224 0
M  V30 6292 C 595.42 -1.4031 -3.31423 0
M  V30 6293 C 595.028 -2.91164 -3.40481 0
M  V30 6294 C 596.772 -1.20767 -4.06959 0
M  V30 6295 C 594.679 -3.43373 -4.81507 0
M  V30 6296 H 593.609 -0.30019 -0.691666 0
M  V30 6297 H 596.26 -1.30798 -1.28701 0
M  V30 6298 H 594.642 -0.835096 -3.87094 0
M  V30 6299 H 595.816 -3.5412 -2.94848 0
M  V30 6300 H 594.131 -3.09646 -2.78403 0
M  V30 6301 H 596.728 -1.57237 -5.11058 0
M  V30 6302 H 597.071 -0.147664 -4.16038 0
M  V30 6303 H 597.604 -1.74274 -3.57594 0
M  V30 6304 H 594.343 -4.48958 -4.77616 0
M  V30 6305 H 593.863 -2.85176 -5.27669 0
M  V30 6306 H 595.542 -3.40095 -5.50404 0
M  V30 6307 N 595.674 1.31259 -0.872281 0
M  V30 6308 C 596.621 2.28459 -0.327857 0
M  V30 6309 C 597.591 1.55831 0.574957 0
M  V30 6310 O 598.776 1.83965 0.506101 0
M  V30 6311 C 595.916 3.41985 0.462644 0
M  V30 6312 C 595.029 4.29458 -0.467949 0
M  V30 6313 C 594.164 5.30131 0.336903 0
M  V30 6314 C 593.203 6.0925 -0.58997 0
M  V30 6315 N 592.34 7.01872 0.178775 0
M  V30 6316 H 597.18 2.74414 -1.16193 0
M  V30 6317 H 594.717 1.34994 -0.584376 0
M  V30 6318 H 596.675 4.06547 0.936759 0
M  V30 6319 H 595.305 2.97134 1.2614 0
M  V30 6320 H 594.357 3.65318 -1.06052 0
M  V30 6321 H 595.669 4.84677 -1.17856 0
M  V30 6322 H 594.823 6.0038 0.873427 0
M  V30 6323 H 593.562 4.75573 1.08079 0
M  V30 6324 H 592.567 5.37889 -1.13823 0
M  V30 6325 H 593.792 6.65894 -1.33275 0
M  V30 6326 H 591.738 6.49721 0.905435 0
M  V30 6327 H 591.655 7.54522 -0.472452 0
M  V30 6328 H 592.923 7.76382 0.696454 0
M  V30 6329 N 597.152 0.631951 1.44375 0
M  V30 6330 C 598.062 -0.073674 2.34484 0
M  V30 6331 C 599.078 -0.834825 1.52665 0
M  V30 6332 O 600.254 -0.786902 1.85391 0
M  V30 6333 C 597.319 -1.04247 3.30656 0
M  V30 6334 C 596.38 -0.280602 4.28382 0
M  V30 6335 C 595.613 -1.20325 5.19959 0
M  V30 6336 O 595.836 -2.44199 5.15484 0
M  V30 6337 O 594.77 -0.687128 5.97965 0
M  V30 6338 H 598.596 0.667477 2.96274 0
M  V30 6339 H 596.181 0.392144 1.44162 0
M  V30 6340 H 598.063 -1.59981 3.89851 0
M  V30 6341 H 596.738 -1.76422 2.71398 0
M  V30 6342 H 595.645 0.319804 3.72731 0
M  V30 6343 H 596.978 0.401144 4.90563 0
M  V30 6344 N 598.631 -1.53133 0.372548 0
M  V30 6345 C 599.561 -2.28876 -0.462412 0
M  V30 6346 C 600.542 -1.31583 -1.07796 0
M  V30 6347 O 601.727 -1.60461 -1.09389 0
M  V30 6348 C 598.857 -3.08317 -1.59868 0
M  V30 6349 C 597.811 -4.13355 -1.11003 0
M  V30 6350 C 597.137 -4.8092 -2.33708 0
M  V30 6351 C 598.437 -5.21955 -0.18983 0
M  V30 6352 H 600.131 -2.9892 0.169511 0
M  V30 6353 H 597.677 -1.43761 0.0829658 0
M  V30 6354 H 599.63 -3.60055 -2.18949 0
M  V30 6355 H 598.354 -2.35976 -2.25794 0
M  V30 6356 H 597.013 -3.62573 -0.541869 0
M  V30 6357 H 596.661 -4.05144 -2.98106 0
M  V30 6358 H 596.361 -5.51904 -2.01682 0
M  V30 6359 H 597.885 -5.35455 -2.93462 0
M  V30 6360 H 599.299 -5.69153 -0.688319 0
M  V30 6361 H 597.696 -6.00087 0.0398887 0
M  V30 6362 H 598.766 -4.78811 0.766057 0
M  V30 6363 N 600.109 -0.101901 -1.5727 0
M  V30 6364 C 601.357 0.559091 -1.94213 0
M  V30 6365 C 601.678 1.68297 -0.984948 0
M  V30 6366 O 600.948 1.95863 -0.0381975 0
M  V30 6367 H 599.528 0.20952 -0.717015 0
M  V30 6368 H 602.19 -0.166831 -1.94185 0
M  V30 6369 H 601.286 0.96485 -2.96811 0
M  V30 6370 N 601.587 1.56661 0.17182 0
M  V30 6371 C 603.003 1.50768 0.52357 0
M  V30 6372 C 603.203 0.806072 1.84675 0
M  V30 6373 O 602.259 0.366233 2.4983 0
M  V30 6374 C 603.572 2.955 0.556793 0
M  V30 6375 C 605.12 3.06303 0.644029 0
M  V30 6376 C 605.595 4.52492 0.708148 0
M  V30 6377 N 607.086 4.56737 0.771051 0
M  V30 6378 C 607.821 5.67196 0.841229 0
M  V30 6379 N 607.317 6.87287 0.872272 0
M  V30 6380 N 609.11 5.55165 0.88021 0
M  V30 6381 H 601.261 2.00679 -0.695817 0
M  V30 6382 H 603.524 0.914219 -0.250814 0
M  V30 6383 H 603.23 3.49986 -0.346774 0
M  V30 6384 H 603.104 3.50119 1.40346 0
M  V30 6385 H 605.491 2.51851 1.53802 0
M  V30 6386 H 605.572 2.5477 -0.229297 0
M  V30 6387 H 605.216 5.07575 -0.181585 0
M  V30 6388 H 605.146 5.01781 1.59761 0
M  V30 6389 H 607.637 3.70274 0.755364 0
M  V30 6390 H 607.95 7.6722 0.92698 0
M  V30 6391 H 606.295 6.89898 0.840557 0
M  V30 6392 H 609.486 4.60263 0.852956 0
M  V30 6393 H 609.659 6.41271 0.931439 0
M  V30 6394 N 603.065 -0.440357 1.51323 0
M  V30 6395 C 604.313 -1.18769 1.63518 0
M  V30 6396 C 604.634 -1.91793 0.352201 0
M  V30 6397 O 603.904 -1.85432 -0.631811 0
M  V30 6398 H 602.484 -0.441408 0.602634 0
M  V30 6399 H 605.146 -0.505162 1.8824 0
M  V30 6400 H 604.242 -1.91892 2.46138 0
M  V30 6401 N 604.543 -1.41418 -0.695603 0
M  V30 6402 C 605.473 -1.46035 -1.82197 0
M  V30 6403 C 606.454 -0.319025 -1.67082 0
M  V30 6404 O 607.639 -0.530462 -1.86815 0
M  V30 6405 C 604.769 -1.34179 -3.20333 0
M  V30 6406 C 603.723 -2.46123 -3.50154 0
M  V30 6407 C 603.049 -2.19332 -4.87645 0
M  V30 6408 C 604.349 -3.88463 -3.49133 0
M  V30 6409 H 606.043 -2.40303 -1.78591 0
M  V30 6410 H 603.589 -1.15663 -0.857797 0
M  V30 6411 H 605.542 -1.36021 -3.98844 0
M  V30 6412 H 604.266 -0.363952 -3.24566 0
M  V30 6413 H 602.925 -2.43563 -2.73994 0
M  V30 6414 H 602.573 -1.19891 -4.88503 0
M  V30 6415 H 602.273 -2.94344 -5.08562 0
M  V30 6416 H 603.797 -2.22889 -5.68465 0
M  V30 6417 H 605.211 -3.92738 -4.17648 0
M  V30 6418 H 603.608 -4.63158 -3.81582 0
M  V30 6419 H 604.678 -4.16617 -2.48109 0
M  V30 6420 N 606.021 0.929856 -1.27246 0
M  V30 6421 C 607.432 1.49223 -1.12203 0
M  V30 6422 C 607.783 1.93989 0.293731 0
M  V30 6423 O 606.908 1.80978 1.18642 0
M  V30 6424 C 607.503 2.71198 -2.0307 0
M  V30 6425 C 606.062 3.23666 -1.92139 0
M  V30 6426 C 605.209 1.96409 -1.95752 0
M  V30 6427 H 608.16 0.744181 -1.4017 0
M  V30 6428 H 608.181 3.45905 -1.58524 0
M  V30 6429 H 607.693 2.38585 -3.06102 0
M  V30 6430 H 605.794 3.61042 -0.920834 0
M  V30 6431 H 605.907 3.90006 -2.78267 0
M  V30 6432 H 604.271 2.12806 -1.39949 0
M  V30 6433 H 605.054 1.66113 -3.00436 0
M  V30 6434 N 607.499 1.09233 1.13605 0
M  V30 6435 C 608.727 0.848908 1.88683 0
M  V30 6436 C 609.142 -0.599667 1.79024 0
M  V30 6437 O 608.499 -1.41265 1.15544 0
M  V30 6438 C 608.55 1.27273 3.38355 0
M  V30 6439 O 608.271 2.66449 3.47759 0
M  V30 6440 C 609.772 1.0614 4.30406 0
M  V30 6441 H 606.992 0.305549 0.597395 0
M  V30 6442 H 609.536 1.4538 1.43823 0
M  V30 6443 H 607.691 0.711776 3.80805 0
M  V30 6444 H 608.105 2.84264 4.40788 0
M  V30 6445 H 609.579 1.40725 5.33761 0
M  V30 6446 H 610.056 -0.000960332 4.392 0
M  V30 6447 H 610.662 1.60821 3.93722 0
M  V30 6448 N 608.977 -1.30795 0.87923 0
M  V30 6449 C 610.254 -1.91145 0.415086 0
M  V30 6450 C 610.634 -1.7995 -1.10368 0
M  V30 6451 O 609.982 -1.21305 -1.93642 0
M  V30 6452 C 610.192 -3.37014 0.906778 0
M  V30 6453 C 611.54 -4.14101 0.938358 0
M  V30 6454 O 612.564 -3.45834 0.853053 0
M  V30 6455 O 611.423 -5.36054 1.06342 0
M  V30 6456 H 608.517 -0.81736 0.125905 0
M  V30 6457 H 611.063 -1.39401 0.967753 0
M  V30 6458 H 609.835 -3.3922 1.95053 0
M  V30 6459 H 609.458 -3.96204 0.332948 0
M  V30 6460 N 610.455 -0.639598 -1.44038 0
M  V30 6461 C 611.402 0.0602458 -2.30721 0
M  V30 6462 C 612.372 0.828352 -1.43971 0
M  V30 6463 O 613.557 0.807693 -1.72861 0
M  V30 6464 C 610.697 1.03008 -3.29368 0
M  V30 6465 C 609.81 0.259502 -4.3122 0
M  V30 6466 C 608.945 1.22191 -5.16955 0
M  V30 6467 C 607.984 0.440978 -6.10509 0
M  V30 6468 N 607.121 1.35428 -6.88915 0
M  V30 6469 H 611.961 -0.684867 -2.90023 0
M  V30 6470 H 609.498 -0.349509 -1.42888 0
M  V30 6471 H 611.456 1.60583 -3.85057 0
M  V30 6472 H 610.086 1.74222 -2.71747 0
M  V30 6473 H 609.138 -0.432317 -3.77935 0
M  V30 6474 H 610.45 -0.348347 -4.97582 0
M  V30 6475 H 609.604 1.86873 -5.77203 0
M  V30 6476 H 608.343 1.86367 -4.50687 0
M  V30 6477 H 607.348 -0.219279 -5.49363 0
M  V30 6478 H 608.573 -0.196192 -6.78817 0
M  V30 6479 H 606.519 1.9831 -6.25307 0
M  V30 6480 H 606.436 0.800657 -7.51748 0
M  V30 6481 H 607.704 1.98967 -7.53679 0
M  V30 6482 N 611.933 1.52934 -0.380664 0
M  V30 6483 C 613.182 2.00651 0.205477 0
M  V30 6484 C 613.495 1.27164 1.48623 0
M  V30 6485 O 614.701 1.65547 2.15189 0
M  V30 6486 C 613.157 3.57479 0.416726 0
M  V30 6487 C 612.765 4.39857 -0.850268 0
M  V30 6488 C 614.509 4.13509 0.959702 0
M  V30 6489 C 612.416 5.88269 -0.607773 0
M  V30 6490 H 611.346 0.749684 0.0805614 0
M  V30 6491 H 613.997 1.76508 -0.501732 0
M  V30 6492 H 612.379 3.77836 1.18557 0
M  V30 6493 H 613.553 4.31269 -1.62307 0
M  V30 6494 H 611.868 3.95005 -1.31756 0
M  V30 6495 H 614.465 5.22039 1.15669 0
M  V30 6496 H 614.808 3.69054 1.92626 0
M  V30 6497 H 615.341 3.9701 0.250645 0
M  V30 6498 H 612.08 6.3703 -1.54509 0
M  V30 6499 H 611.6 5.99667 0.126247 0
M  V30 6500 H 613.279 6.46558 -0.239014 0
M  V30 6501 N 613.412 0.11024 1.57214 0
M  V30 6502 C 614.689 -0.592956 1.86396 0
M  V30 6503 C 615.069 -1.85379 1.00985 0
M  V30 6504 O 614.417 -2.28337 0.0863592 0
M  V30 6505 C 614.627 -0.893816 3.3736 0
M  V30 6506 C 615.975 -1.25069 4.05762 0
M  V30 6507 O 616.999 -0.984356 3.42329 0
M  V30 6508 O 615.858 -1.75017 5.17718 0
M  V30 6509 H 612.952 -0.29828 0.771335 0
M  V30 6510 H 615.498 0.144083 1.69087 0
M  V30 6511 H 614.27 2.6031e-05 3.913 0
M  V30 6512 H 613.893 -1.68631 3.60068 0
M  V30 6513 N 614.89 -1.56749 -0.16351 0
M  V30 6514 C 615.853 -1.96121 -1.18613 0
M  V30 6515 C 616.853 -0.845765 -1.36761 0
M  V30 6516 O 618.043 -1.11268 -1.34033 0
M  V30 6517 C 615.175 -2.26282 -2.54969 0
M  V30 6518 H 616.368 -2.87639 -0.848764 0
M  V30 6519 H 613.921 -1.50928 -0.406251 0
M  V30 6520 H 614.656 -1.37504 -2.93706 0
M  V30 6521 H 614.441 -3.07595 -2.43162 0
M  V30 6522 H 615.931 -2.57638 -3.28653 0
M  V30 6523 N 616.368 0.432326 -1.51554 0
M  V30 6524 C 617.331 1.50765 -1.72634 0
M  V30 6525 C 618.331 1.49334 -0.596314 0
M  V30 6526 O 619.521 1.51268 -0.863925 0
M  V30 6527 C 616.653 2.90284 -1.7874 0
M  V30 6528 H 617.846 1.33377 -2.68609 0
M  V30 6529 H 615.399 0.661329 -1.4162 0
M  V30 6530 H 616.134 3.13071 -0.845977 0
M  V30 6531 H 615.919 2.92727 -2.6087 0
M  V30 6532 H 617.409 3.68282 -1.96871 0
M  V30 6533 N 617.846 1.41785 0.688094 0
M  V30 6534 C 618.776 1.47 1.8142 0
M  V30 6535 C 619.757 0.327881 1.6691 0
M  V30 6536 O 620.942 0.540362 1.86531 0
M  V30 6537 C 618.072 1.35876 3.19617 0
M  V30 6538 C 617.026 2.47976 3.48844 0
M  V30 6539 C 616.352 2.21915 4.86475 0
M  V30 6540 C 617.652 3.90309 3.47068 0
M  V30 6541 H 619.346 2.41247 1.77314 0
M  V30 6542 H 616.892 1.16116 0.851651 0
M  V30 6543 H 618.845 1.38134 3.98117 0
M  V30 6544 H 617.569 0.38116 3.24368 0
M  V30 6545 H 616.228 2.45013 2.72698 0
M  V30 6546 H 615.876 1.2248 4.8786 0
M  V30 6547 H 615.576 2.97037 5.06994 0
M  V30 6548 H 617.1 2.25901 5.67275 0
M  V30 6549 H 618.514 3.94947 4.1556 0
M  V30 6550 H 616.911 4.65175 3.7912 0
M  V30 6551 H 617.981 4.17927 2.45896 0
M  V30 6552 N 619.324 -0.923095 1.27737 0
M  V30 6553 C 620.571 -1.67127 1.14345 0
M  V30 6554 C 620.899 -1.92017 -0.30982 0
M  V30 6555 O 620.154 -1.51185 -1.24264 0
M  V30 6556 C 620.453 -3.04125 1.8773 0
M  V30 6557 C 620.119 -2.98929 3.37568 0
M  V30 6558 C 618.781 -2.9722 3.78436 0
M  V30 6559 C 621.133 -2.89875 4.33154 0
M  V30 6560 C 618.461 -2.84244 5.13247 0
M  V30 6561 C 620.813 -2.7844 5.68026 0
M  V30 6562 C 619.477 -2.75083 6.08182 0
M  V30 6563 H 618.747 -0.611562 0.418417 0
M  V30 6564 H 621.394 -1.07618 1.584 0
M  V30 6565 H 619.699 -3.67366 1.36196 0
M  V30 6566 H 621.396 -3.609 1.74792 0
M  V30 6567 H 617.986 -3.0105 3.05069 0
M  V30 6568 H 622.17 -2.9029 4.02548 0
M  V30 6569 H 617.426 -2.80034 5.43499 0
M  V30 6570 H 621.6 -2.70401 6.4176 0
M  V30 6571 H 619.227 -2.64786 7.12596 0
M  V30 6572 N 620.802 -1.09834 -1.13024 0
M  V30 6573 C 622.048 -0.848072 -1.84876 0
M  V30 6574 C 622.403 0.619663 -1.82148 0
M  V30 6575 O 621.696 1.45067 -1.25164 0
M  V30 6576 C 621.89 -1.32263 -3.32026 0
M  V30 6577 C 621.719 -2.83497 -3.49084 0
M  V30 6578 C 620.489 -3.51425 -3.63082 0
M  V30 6579 C 622.687 -3.81623 -3.44773 0
M  V30 6580 N 620.669 -4.91042 -3.68443 0
M  V30 6581 C 622.04 -5.07217 -3.56555 0
M  V30 6582 C 624.095 -3.74419 -3.282 0
M  V30 6583 C 622.798 -6.26457 -3.53474 0
M  V30 6584 C 624.824 -4.93151 -3.26429 0
M  V30 6585 C 624.186 -6.1759 -3.38765 0
M  V30 6586 H 620.285 -0.363249 -0.692513 0
M  V30 6587 H 622.869 -1.39952 -1.35357 0
M  V30 6588 H 621.04 -0.79858 -3.80102 0
M  V30 6589 H 622.772 -1.01725 -3.91707 0
M  V30 6590 H 619.527 -3.0186 -3.64935 0
M  V30 6591 H 619.951 -5.63782 -3.74805 0
M  V30 6592 H 624.593 -2.79132 -3.17561 0
M  V30 6593 H 622.311 -7.22039 -3.62884 0
M  V30 6594 H 625.897 -4.8928 -3.14796 0
M  V30 6595 H 624.777 -7.07925 -3.37361 0
M  V30 6596 N 622.28 1.30327 -0.886154 0
M  V30 6597 C 623.213 2.26241 -0.298407 0
M  V30 6598 C 624.191 1.51839 0.581704 0
M  V30 6599 O 625.375 1.80851 0.531536 0
M  V30 6600 C 622.502 3.33768 0.575888 0
M  V30 6601 C 621.548 4.25852 -0.235057 0
M  V30 6602 S 622.381 5.10277 -1.62411 0
M  V30 6603 C 623.537 6.21313 -0.756368 0
M  V30 6604 H 623.77 2.75744 -1.11141 0
M  V30 6605 H 621.303 1.38341 -0.685651 0
M  V30 6606 H 623.261 3.96186 1.07458 0
M  V30 6607 H 621.922 2.82986 1.363 0
M  V30 6608 H 621.115 5.02143 0.432198 0
M  V30 6609 H 620.717 3.68015 -0.666409 0
M  V30 6610 H 623.009 6.77495 0.0261451 0
M  V30 6611 H 623.952 6.92226 -1.49093 0
M  V30 6612 H 624.36 5.63611 -0.316749 0
M  V30 6613 N 623.758 0.647228 1.43697 0
M  V30 6614 C 625.169 0.238689 1.85168 0
M  V30 6615 C 625.52 -1.21345 1.54175 0
M  V30 6616 O 624.645 -1.92542 0.987743 0
M  V30 6617 C 625.24 0.426422 3.36106 0
M  V30 6618 C 623.799 0.0722541 3.76331 0
M  V30 6619 C 622.946 0.732153 2.6746 0
M  V30 6620 H 625.897 0.851309 1.33934 0
M  V30 6621 H 625.918 -0.32987 3.79067 0
M  V30 6622 H 625.43 1.48339 3.58632 0
M  V30 6623 H 623.531 -0.982355 3.59417 0
M  V30 6624 H 623.644 0.493541 4.76551 0
M  V30 6625 H 622.008 0.16594 2.54159 0
M  V30 6626 H 622.791 1.79204 2.92816 0
M  V30 6627 N 625.236 -1.5273 0.388769 0
M  V30 6628 C 626.184 -2.27975 -0.461527 0
M  V30 6629 C 627.178 -1.31854 -1.06352 0
M  V30 6630 O 628.384 -1.49394 -1.00406 0
M  V30 6631 H 624.759 -0.733088 -0.16759 0
M  V30 6632 H 626.73 -2.97765 0.194579 0
M  V30 6633 C 625.479 -3.09881 -1.577 0
M  V30 6634 H 624.802 -3.83701 -1.12309 0
M  V30 6635 H 626.242 -3.6567 -2.14619 0
M  V30 6636 C 624.701 -2.22159 -2.53272 0
M  V30 6637 O 625.231 -1.84802 -3.56667 0
M  V30 6638 N 623.437 -1.8633 -2.23001 0
M  V30 6639 H 622.984 -2.16909 -1.38954 0
M  V30 6640 H 622.942 -1.27927 -2.87197 0
M  V30 6641 N 626.714 -0.118576 -1.57153 0
M  V30 6642 C 627.962 0.538461 -1.94795 0
M  V30 6643 C 628.283 1.67243 -1.00274 0
M  V30 6644 O 627.553 1.95811 -0.0589692 0
M  V30 6645 H 626.133 0.201904 -0.719197 0
M  V30 6646 H 628.795 -0.187418 -1.93997 0
M  V30 6647 H 627.891 0.933315 -2.97818 0
M  V30 6648 N 628.193 1.56834 0.155195 0
M  V30 6649 C 629.14 1.97646 1.19184 0
M  V30 6650 C 630.11 0.842788 1.4313 0
M  V30 6651 O 631.295 1.1042 1.55602 0
M  V30 6652 C 628.435 2.35527 2.52232 0
M  V30 6653 C 627.548 3.62147 2.35529 0
M  V30 6654 C 626.683 3.89167 3.61555 0
M  V30 6655 C 625.722 5.09084 3.39853 0
M  V30 6656 N 624.859 5.32156 4.5799 0
M  V30 6657 H 629.699 2.8601 0.836802 0
M  V30 6658 H 627.236 1.41507 0.401758 0
M  V30 6659 H 629.194 2.55516 3.29799 0
M  V30 6660 H 627.824 1.50253 2.85699 0
M  V30 6661 H 626.876 3.4998 1.49057 0
M  V30 6662 H 628.188 4.49871 2.15448 0
M  V30 6663 H 627.342 4.09611 4.47553 0
M  V30 6664 H 626.081 2.9985 3.84632 0
M  V30 6665 H 625.086 4.88522 2.52243 0
M  V30 6666 H 626.311 5.99947 3.18183 0
M  V30 6667 H 624.257 4.45791 4.81255 0
M  V30 6668 H 624.174 6.14133 4.40882 0
M  V30 6669 H 625.442 5.57091 5.45225 0
M  V30 6670 N 629.671 -0.424282 1.51781 0
M  V30 6671 C 630.899 -1.1947 1.68921 0
M  V30 6672 C 631.314 -1.84683 0.39213 0
M  V30 6673 O 630.671 -1.71261 -0.630554 0
M  V30 6674 C 630.722 -2.26909 2.81416 0
M  V30 6675 O 630.443 -1.64361 4.061 0
M  V30 6676 C 631.944 -3.16945 3.09937 0
M  V30 6677 H 629.164 -0.359591 0.566511 0
M  V30 6678 H 631.708 -0.501139 1.98265 0
M  V30 6679 H 629.863 -2.91959 2.54635 0
M  V30 6680 H 630.277 -2.35468 4.68674 0
M  V30 6681 H 631.751 -3.88437 3.922 0
M  V30 6682 H 632.228 -3.78451 2.22871 0
M  V30 6683 H 632.834 -2.57581 3.38426 0
M  V30 6684 N 631.149 -1.42148 -0.680565 0
M  V30 6685 C 632.379 -1.45485 -1.46689 0
M  V30 6686 C 632.787 -0.0629451 -1.89095 0
M  V30 6687 O 632.13 0.931397 -1.58337 0
M  V30 6688 C 632.192 -2.31397 -2.75129 0
M  V30 6689 C 631.856 -3.79353 -2.54834 0
M  V30 6690 C 632.853 -4.71148 -2.19808 0
M  V30 6691 C 630.538 -4.23557 -2.70008 0
M  V30 6692 C 632.532 -6.05139 -2.00215 0
M  V30 6693 C 630.219 -5.57609 -2.50031 0
M  V30 6694 C 631.217 -6.48216 -2.15187 0
M  V30 6695 O 630.905 -7.79792 -1.95397 0
M  V30 6696 H 630.637 -0.497139 -0.458071 0
M  V30 6697 H 633.191 -1.87252 -0.844139 0
M  V30 6698 H 631.421 -1.84468 -3.39865 0
M  V30 6699 H 633.11 -2.26257 -3.36991 0
M  V30 6700 H 633.876 -4.38282 -2.07686 0
M  V30 6701 H 629.755 -3.53327 -2.96109 0
M  V30 6702 H 633.299 -6.75823 -1.72941 0
M  V30 6703 H 629.196 -5.9005 -2.61748 0
M  V30 6704 H 629.964 -7.91091 -2.10042 0
M  V30 6705 N 632.627 0.916307 -1.28225 0
M  V30 6706 C 633.874 1.66518 -1.1523 0
M  V30 6707 C 634.202 1.92178 0.299632 0
M  V30 6708 O 633.457 1.51842 1.2346 0
M  V30 6709 C 633.756 3.03125 -1.8934 0
M  V30 6710 C 633.422 2.97135 -3.39148 0
M  V30 6711 C 632.084 2.95208 -3.80007 0
M  V30 6712 C 634.436 2.87574 -4.34685 0
M  V30 6713 C 631.764 2.81518 -5.14747 0
M  V30 6714 C 634.116 2.75424 -5.69495 0
M  V30 6715 C 632.78 2.71854 -6.09632 0
M  V30 6716 H 632.05 0.609334 -0.421655 0
M  V30 6717 H 634.697 1.06776 -1.58969 0
M  V30 6718 H 633.002 3.66639 -1.38143 0
M  V30 6719 H 634.699 3.59968 -1.76704 0
M  V30 6720 H 631.289 2.99428 -3.06661 0
M  V30 6721 H 635.473 2.88152 -4.04082 0
M  V30 6722 H 630.729 2.77148 -5.44976 0
M  V30 6723 H 634.903 2.66993 -6.43185 0
M  V30 6724 H 632.53 2.61003 -7.1399 0
M  V30 6725 N 634.105 1.10431 1.1244 0
M  V30 6726 C 635.352 0.846717 1.83948 0
M  V30 6727 C 635.68 -0.627709 1.84093 0
M  V30 6728 O 634.935 -1.47876 1.28184 0
M  V30 6729 C 635.234 1.34022 3.3132 0
M  V30 6730 C 634.9 2.82606 3.51347 0
M  V30 6731 C 633.562 3.23182 3.56521 0
M  V30 6732 C 635.914 3.78356 3.58464 0
M  V30 6733 C 633.242 4.58258 3.66356 0
M  V30 6734 C 635.594 5.13234 3.69829 0
M  V30 6735 C 634.258 5.53384 3.73259 0
M  V30 6736 H 633.528 0.309836 0.673114 0
M  V30 6737 H 636.175 1.38091 1.32677 0
M  V30 6738 H 634.48 0.726047 3.85014 0
M  V30 6739 H 636.177 1.11739 3.85118 0
M  V30 6740 H 632.767 2.50212 3.47983 0
M  V30 6741 H 636.951 3.48115 3.53737 0
M  V30 6742 H 632.207 4.88787 3.67284 0
M  V30 6743 H 636.381 5.87272 3.74279 0
M  V30 6744 H 634.008 6.58045 3.80633 0
M  V30 6745 N 635.583 -1.29855 0.893053 0
M  V30 6746 C 636.999 -1.48366 0.588199 0
M  V30 6747 C 637.199 -1.81654 -0.872018 0
M  V30 6748 O 636.255 -1.909 -1.65268 0
M  V30 6749 C 637.568 -2.60136 1.5083 0
M  V30 6750 C 639.116 -2.74014 1.51279 0
M  V30 6751 C 639.591 -3.88905 2.41902 0
M  V30 6752 N 641.082 -3.96228 2.39911 0
M  V30 6753 C 641.817 -4.84458 3.06738 0
M  V30 6754 N 641.313 -5.77426 3.8282 0
M  V30 6755 N 643.106 -4.77894 2.95929 0
M  V30 6756 H 635.257 -1.06522 1.83757 0
M  V30 6757 H 637.52 -0.528495 0.787018 0
M  V30 6758 H 637.226 -2.42383 2.54839 0
M  V30 6759 H 637.1 -3.56793 1.22388 0
M  V30 6760 H 639.487 -2.91167 0.480179 0
M  V30 6761 H 639.568 -1.77952 1.83757 0
M  V30 6762 H 639.212 -3.72508 3.45253 0
M  V30 6763 H 639.142 -4.84322 2.06737 0
M  V30 6764 H 641.633 -3.29728 1.84629 0
M  V30 6765 H 641.946 -6.41529 4.30883 0
M  V30 6766 H 640.291 -5.77332 3.86927 0
M  V30 6767 H 643.482 -4.04248 2.36012 0
M  V30 6768 H 643.655 -5.46444 3.48286 0
M  V30 6769 N 637.061 -0.65484 -1.43351 0
M  V30 6770 C 638.309 -0.168559 -2.01396 0
M  V30 6771 C 638.63 1.22235 -1.51933 0
M  V30 6772 O 637.9 1.81685 -0.732627 0
M  V30 6773 H 636.48 -0.0593244 -0.744641 0
M  V30 6774 H 639.142 -0.846871 -1.75539 0
M  V30 6775 H 638.238 -0.154428 -3.11718 0
M  V30 6776 N 638.539 1.52521 -0.396863 0
M  V30 6777 C 639.487 2.28217 0.44943 0
M  V30 6778 C 640.481 1.32416 1.05652 0
M  V30 6779 O 641.687 1.49925 0.996124 0
M  V30 6780 H 638.062 0.733966 0.1637 0
M  V30 6781 H 640.033 2.97658 -0.210367 0
M  V30 6782 C 638.782 3.10713 1.56054 0
M  V30 6783 H 638.105 3.84291 1.10273 0
M  V30 6784 H 639.545 3.66803 2.12677 0
M  V30 6785 C 638.004 2.23499 2.52091 0
M  V30 6786 O 638.534 1.8669 3.55682 0
M  V30 6787 N 636.74 1.8751 2.2201 0
M  V30 6788 H 636.287 2.17643 1.37802 0
M  V30 6789 H 636.245 1.29448 2.86514 0
M  V30 6790 N 640.017 0.126909 1.57088 0
M  V30 6791 C 640.964 -0.82036 2.15728 0
M  V30 6792 C 641.934 -1.25811 1.08447 0
M  V30 6793 O 643.119 -1.33422 1.36393 0
M  V30 6794 C 640.259 -2.06199 2.76724 0
M  V30 6795 C 639.372 -1.67188 3.98337 0
M  V30 6796 C 638.507 -2.86378 4.47393 0
M  V30 6797 C 637.546 -2.43644 5.61519 0
M  V30 6798 N 636.683 -3.55775 6.05284 0
M  V30 6799 H 641.523 -0.313472 2.96347 0
M  V30 6800 H 639.06 -0.14303 1.46403 0
M  V30 6801 H 641.018 -2.78959 3.10222 0
M  V30 6802 H 639.648 -2.54333 1.98782 0
M  V30 6803 H 638.7 -0.842714 3.70948 0
M  V30 6804 H 640.012 -1.31789 4.81075 0
M  V30 6805 H 639.166 -3.67353 4.82842 0
M  V30 6806 H 637.905 -3.25009 3.63621 0
M  V30 6807 H 636.91 -1.61104 5.25667 0
M  V30 6808 H 638.135 -2.06122 6.47063 0
M  V30 6809 H 636.081 -3.94065 5.24451 0
M  V30 6810 H 635.998 -3.24325 6.82898 0
M  V30 6811 H 637.266 -4.37166 6.45373 0
M  V30 6812 N 641.495 -1.56914 -0.146875 0
M  V30 6813 C 642.725 -1.87243 -0.873126 0
M  V30 6814 C 643.133 -0.713127 -1.75246 0
M  V30 6815 O 642.476 0.326228 -1.8078 0
M  V30 6816 C 642.538 -3.12279 -1.78107 0
M  V30 6817 C 642.202 -4.44082 -1.07889 0
M  V30 6818 C 643.199 -5.18096 -0.432734 0
M  V30 6819 C 640.884 -4.90807 -1.06836 0
M  V30 6820 C 642.878 -6.37039 0.214569 0
M  V30 6821 C 640.565 -6.09674 -0.417243 0
M  V30 6822 C 641.563 -6.82636 0.223093 0
M  V30 6823 O 641.251 -7.99245 0.863884 0
M  V30 6824 H 640.983 -0.624896 -0.257839 0
M  V30 6825 H 643.537 -2.04892 -0.14434 0
M  V30 6826 H 641.767 -2.90639 -2.5508 0
M  V30 6827 H 643.456 -3.28854 -2.37929 0
M  V30 6828 H 644.222 -4.83066 -0.432677 0
M  V30 6829 H 640.101 -4.3394 -1.55618 0
M  V30 6830 H 643.645 -6.93927 0.714965 0
M  V30 6831 H 639.542 -6.44165 -0.414967 0
M  V30 6832 H 640.31 -8.14912 0.765564 0
M  V30 6833 N 642.974 0.416227 -1.52004 0
M  V30 6834 C 644.204 1.18401 -1.69307 0
M  V30 6835 C 644.612 1.84943 -0.399072 0
M  V30 6836 O 643.955 1.72406 0.634177 0
M  V30 6837 C 644.017 2.29465 -2.76742 0
M  V30 6838 C 643.681 1.83117 -4.18709 0
M  V30 6839 C 644.678 1.32286 -5.02789 0
M  V30 6840 C 642.363 1.90167 -4.64911 0
M  V30 6841 C 644.357 0.891178 -6.31139 0
M  V30 6842 C 642.044 1.4661 -5.93253 0
M  V30 6843 C 643.042 0.961696 -6.76196 0
M  V30 6844 O 642.73 0.532388 -8.02135 0
M  V30 6845 H 642.462 0.362098 -0.570843 0
M  V30 6846 H 645.016 0.496764 -1.99302 0
M  V30 6847 H 643.246 3.01531 -2.42107 0
M  V30 6848 H 644.935 2.91252 -2.82713 0
M  V30 6849 H 645.701 1.26218 -4.68288 0
M  V30 6850 H 641.58 2.28371 -4.00459 0
M  V30 6851 H 645.124 0.496788 -6.95829 0
M  V30 6852 H 641.021 1.52355 -6.27263 0
M  V30 6853 H 641.789 0.656339 -8.15864 0
M  V30 6854 N 644.452 1.42507 0.673017 0
M  V30 6855 C 645.868 1.25472 0.986355 0
M  V30 6856 C 646.068 0.160181 2.00862 0
M  V30 6857 O 645.124 -0.467993 2.48125 0
M  V30 6858 C 646.437 2.61219 1.48947 0
M  V30 6859 C 647.985 2.68589 1.60715 0
M  V30 6860 C 648.46 4.04707 2.14422 0
M  V30 6861 N 649.951 4.0667 2.21752 0
M  V30 6862 C 650.686 5.0881 2.64386 0
M  V30 6863 N 650.182 6.21332 3.0646 0
M  V30 6864 N 651.975 4.96166 2.64151 0
M  V30 6865 H 644.126 2.124 -0.00378532 0
M  V30 6866 H 646.389 0.946046 0.0608367 0
M  V30 6867 H 646.095 3.42179 0.812812 0
M  V30 6868 H 645.969 2.85261 2.46791 0
M  V30 6869 H 648.356 1.87974 2.27486 0
M  V30 6870 H 648.437 2.48333 0.613552 0
M  V30 6871 H 648.081 4.8578 1.48258 0
M  V30 6872 H 648.011 4.22315 3.14575 0
M  V30 6873 H 650.502 3.25438 1.92089 0
M  V30 6874 H 650.815 6.95118 3.37684 0
M  V30 6875 H 649.16 6.24835 3.04313 0
M  V30 6876 H 652.351 4.07334 2.30644 0
M  V30 6877 H 652.524 5.759 2.97057 0
M  V30 6878 N 645.93 -0.909495 1.28709 0
M  V30 6879 C 647.177 -1.65905 1.16111 0
M  V30 6880 C 647.505 -1.92334 -0.289436 0
M  V30 6881 O 646.76 -1.52495 -1.22653 0
M  V30 6882 C 647.059 -3.02117 1.90945 0
M  V30 6883 C 646.725 -2.95332 3.40719 0
M  V30 6884 C 645.387 -2.93189 3.81567 0
M  V30 6885 C 647.739 -2.85264 4.36204 0
M  V30 6886 C 645.067 -2.78784 5.16233 0
M  V30 6887 C 647.419 -2.724 5.70948 0
M  V30 6888 C 646.083 -2.68617 6.11066 0
M  V30 6889 H 645.353 -0.60709 0.42488 0
M  V30 6890 H 648 -1.05932 1.59533 0
M  V30 6891 H 646.305 -3.65901 1.40085 0
M  V30 6892 H 648.002 -3.59026 1.7861 0
M  V30 6893 H 644.592 -2.97797 3.08245 0
M  V30 6894 H 648.776 -2.86005 4.05605 0
M  V30 6895 H 644.032 -2.74254 5.46438 0
M  V30 6896 H 648.206 -2.63579 6.44592 0
M  V30 6897 H 645.833 -2.57213 7.15364 0
M  V30 6898 N 647.408 -1.11026 -1.11852 0
M  V30 6899 C 648.356 -0.759643 -2.19846 0
M  V30 6900 C 649.35 0.246964 -1.6759 0
M  V30 6901 O 650.556 0.106693 -1.79684 0
M  V30 6902 H 646.931 -0.22775 -0.716683 0
M  V30 6903 H 648.902 -1.6792 -2.46669 0
M  V30 6904 C 647.651 -0.214364 -3.47039 0
M  V30 6905 H 646.974 -0.980175 -3.87599 0
M  V30 6906 H 648.414 -0.00717047 -4.23999 0
M  V30 6907 C 646.873 1.05436 -3.19976 0
M  V30 6908 O 647.403 2.13483 -3.40276 0
M  V30 6909 N 645.609 0.975436 -2.7374 0
M  V30 6910 H 645.156 0.0960853 -2.57421 0
M  V30 6911 H 645.114 1.82501 -2.5601 0
M  V30 6912 N 648.886 1.2938 -0.899927 0
M  V30 6913 C 649.796 2.31462 -0.382437 0
M  V30 6914 C 650.812 1.65956 0.522929 0
M  V30 6915 O 651.988 1.97131 0.412454 0
M  V30 6916 C 649.053 3.44595 0.381472 0
M  V30 6917 C 648.114 4.25692 -0.555444 0
M  V30 6918 C 647.347 5.33422 0.172102 0
M  V30 6919 O 647.57 5.53053 1.396 0
M  V30 6920 O 646.504 5.99939 -0.485491 0
M  V30 6921 H 650.33 2.77706 -1.22934 0
M  V30 6922 H 647.915 1.33821 -0.664259 0
M  V30 6923 H 649.797 4.13474 0.813442 0
M  V30 6924 H 648.472 3.00458 1.20443 0
M  V30 6925 H 647.379 3.59453 -1.03653 0
M  V30 6926 H 648.712 4.73471 -1.34483 0
M  V30 6927 N 650.364 0.662433 1.43002 0
M  V30 6928 C 651.274 -0.0239199 2.34588 0
M  V30 6929 C 652.29 -0.802255 1.54402 0
M  V30 6930 O 653.466 -0.747401 1.87018 0
M  V30 6931 C 650.531 -0.972098 3.32793 0
M  V30 6932 C 649.592 -0.189673 4.28881 0
M  V30 6933 C 648.825 -1.09269 5.22395 0
M  V30 6934 O 649.048 -2.33209 5.20547 0
M  V30 6935 O 647.982 -0.560136 5.99288 0
M  V30 6936 H 651.808 0.730171 2.94792 0
M  V30 6937 H 649.393 0.422635 1.43297 0
M  V30 6938 H 651.275 -1.51676 3.93157 0
M  V30 6939 H 649.95 -1.70626 2.75079 0
M  V30 6940 H 648.857 0.398794 3.71968 0
M  V30 6941 H 650.19 0.50511 4.89601 0
M  V30 6942 N 651.842 -1.52309 0.404946 0
M  V30 6943 C 652.772 -2.29805 -0.41376 0
M  V30 6944 C 653.753 -1.3384 -1.0498 0
M  V30 6945 O 654.938 -1.62745 -1.05961 0
M  V30 6946 C 652.068 -3.11639 -1.53292 0
M  V30 6947 C 651.022 -4.15616 -1.02211 0
M  V30 6948 C 650.348 -4.8577 -2.23455 0
M  V30 6949 C 651.648 -5.2224 -0.0790725 0
M  V30 6950 H 653.342 -2.98493 0.232878 0
M  V30 6951 H 650.888 -1.43552 0.113441 0
M  V30 6952 H 652.841 -3.64618 -2.11262 0
M  V30 6953 H 651.565 -2.40712 -2.20738 0
M  V30 6954 H 650.224 -3.63641 -0.46484 0
M  V30 6955 H 649.872 -4.11376 -2.89445 0
M  V30 6956 H 649.572 -5.56058 -1.89929 0
M  V30 6957 H 651.096 -5.4156 -2.82038 0
M  V30 6958 H 652.51 -5.70485 -0.567438 0
M  V30 6959 H 650.907 -5.99867 0.167167 0
M  V30 6960 H 651.977 -4.77078 0.867447 0
M  V30 6961 N 653.32 -0.135238 -1.57019 0
M  V30 6962 C 654.736 0.221262 -1.58059 0
M  V30 6963 C 654.936 1.65538 -1.14889 0
M  V30 6964 O 653.992 2.37985 -0.843751 0
M  V30 6965 C 655.305 -0.0268114 -3.00688 0
M  V30 6966 C 656.853 0.0378206 -3.12977 0
M  V30 6967 C 657.328 -0.182769 -4.57635 0
M  V30 6968 N 658.819 -0.129292 -4.6302 0
M  V30 6969 C 659.554 -0.274648 -5.72742 0
M  V30 6970 N 659.05 -0.477075 -6.91155 0
M  V30 6971 N 660.843 -0.213077 -5.61696 0
M  V30 6972 H 652.994 -1.07177 -1.83376 0
M  V30 6973 H 655.257 -0.423338 -0.848227 0
M  V30 6974 H 654.963 -1.01889 -3.36618 0
M  V30 6975 H 654.837 0.697863 -3.70688 0
M  V30 6976 H 657.224 1.02043 -2.76896 0
M  V30 6977 H 657.305 -0.718996 -2.45487 0
M  V30 6978 H 656.949 -1.16243 -4.94419 0
M  V30 6979 H 656.879 0.59423 -5.23237 0
M  V30 6980 H 659.37 0.0229896 -3.77893 0
M  V30 6981 H 659.683 -0.578413 -7.70632 0
M  V30 6982 H 658.028 -0.513252 -6.93102 0
M  V30 6983 H 661.219 -0.0557796 -4.68067 0
M  V30 6984 H 661.392 -0.329796 -6.4716 0
M  V30 6985 N 654.798 1.5699 0.138552 0
M  V30 6986 C 655.761 1.97984 1.15478 0
M  V30 6987 C 656.761 0.867416 1.35398 0
M  V30 6988 O 657.951 1.13387 1.32246 0
M  V30 6989 C 655.083 2.3031 2.51337 0
M  V30 6990 H 656.276 2.88953 0.802896 0
M  V30 6991 H 653.829 1.51555 0.382189 0
M  V30 6992 H 654.564 1.42159 2.91481 0
M  V30 6993 H 654.349 3.11425 2.38237 0
M  V30 6994 H 655.839 2.62834 3.24512 0
M  V30 6995 N 656.276 -0.40816 1.52223 0
M  V30 6996 C 657.522 -1.15673 1.66576 0
M  V30 6997 C 657.855 -1.90141 0.394996 0
M  V30 6998 O 657.13 -1.84798 -0.606613 0
M  V30 6999 C 657.413 -2.15042 2.88841 0
M  V30 7000 C 657.266 -1.44465 4.25969 0
M  V30 7001 C 658.585 -3.15699 3.0663 0
M  V30 7002 H 655.704 -0.41916 0.606196 0
M  V30 7003 H 658.346 -0.442348 1.84779 0
M  V30 7004 H 656.496 -2.75964 2.73452 0
M  V30 7005 H 658.168 -0.866544 4.53088 0
M  V30 7006 H 656.411 -0.746612 4.27327 0
M  V30 7007 H 657.082 -2.16976 5.07568 0
M  V30 7008 H 659.558 -2.64854 3.20923 0
M  V30 7009 H 658.434 -3.82491 3.9369 0
M  V30 7010 H 658.695 -3.83481 2.19987 0
M  V30 7011 N 657.755 -1.42862 -0.66545 0
M  V30 7012 C 659.032 -1.3431 -1.42197 0
M  V30 7013 C 659.412 0.0150265 -2.11095 0
M  V30 7014 O 658.76 1.03101 -2.03918 0
M  V30 7015 C 658.97 -2.51783 -2.41674 0
M  V30 7016 C 660.318 -2.94321 -3.0604 0
M  V30 7017 O 661.342 -2.51741 -2.52001 0
M  V30 7018 O 660.201 -3.68047 -4.03985 0
M  V30 7019 H 657.295 -0.530159 -0.634713 0
M  V30 7020 H 659.841 -1.54888 -0.693386 0
M  V30 7021 H 658.613 -3.42282 -1.89627 0
M  V30 7022 H 658.236 -2.33241 -3.22001 0
M  V30 7023 N 659.233 0.902656 -1.29189 0
M  V30 7024 C 660.458 1.69167 -1.19989 0
M  V30 7025 C 660.883 1.86607 0.236495 0
M  V30 7026 O 660.241 1.38425 1.17082 0
M  V30 7027 C 660.289 3.05532 -1.91527 0
M  V30 7028 O 659.393 3.93621 -1.2303 0
M  V30 7029 H 658.734 0.517584 -0.415936 0
M  V30 7030 H 661.264 1.12785 -1.70706 0
M  V30 7031 H 661.274 3.55693 -1.99866 0
M  V30 7032 H 659.949 2.92156 -2.96003 0
M  V30 7033 H 658.526 3.52055 -1.22928 0
M  V30 7034 N 660.711 1.11618 1.11262 0
M  V30 7035 C 661.621 0.78898 2.20935 0
M  V30 7036 C 662.637 -0.21867 1.7262 0
M  V30 7037 O 663.813 -0.0543826 2.01327 0
M  V30 7038 C 660.878 0.239014 3.45875 0
M  V30 7039 C 659.939 1.3055 4.08968 0
M  V30 7040 C 659.172 0.781687 5.27944 0
M  V30 7041 O 659.395 -0.387605 5.69082 0
M  V30 7042 O 658.329 1.54734 5.81671 0
M  V30 7043 H 662.155 1.70477 2.51339 0
M  V30 7044 H 659.74 0.892203 1.19834 0
M  V30 7045 H 661.622 -0.0632312 4.21353 0
M  V30 7046 H 660.297 -0.649454 3.17118 0
M  V30 7047 H 659.204 1.66079 3.35214 0
M  V30 7048 H 660.537 2.16743 4.41909 0
M  V30 7049 N 662.189 -1.289 0.906776 0
M  V30 7050 C 663.419 -1.99112 0.551168 0
M  V30 7051 C 663.827 -1.67998 -0.870243 0
M  V30 7052 O 663.17 -0.92525 -1.58697 0
M  V30 7053 C 663.232 -3.53162 0.672065 0
M  V30 7054 C 662.896 -4.07849 2.06174 0
M  V30 7055 C 663.893 -4.22212 3.0337 0
M  V30 7056 C 661.578 -4.4271 2.37304 0
M  V30 7057 C 663.572 -4.70678 4.29815 0
M  V30 7058 C 661.259 -4.90871 3.6399 0
M  V30 7059 C 662.257 -5.04811 4.6006 0
M  V30 7060 O 661.945 -5.51925 5.84495 0
M  V30 7061 H 661.677 -0.642728 0.209469 0
M  V30 7062 H 664.231 -1.65234 1.22012 0
M  V30 7063 H 662.461 -3.86662 -0.05394 0
M  V30 7064 H 664.15 -4.046 0.324579 0
M  V30 7065 H 664.916 -3.9556 2.80637 0
M  V30 7066 H 660.795 -4.31114 1.63283 0
M  V30 7067 H 664.339 -4.81474 5.04806 0
M  V30 7068 H 660.236 -5.16961 3.86551 0
M  V30 7069 H 661.004 -5.70225 5.87185 0
M  V30 7070 N 663.667 -0.670007 -1.42649 0
M  V30 7071 C 665.078 -0.268118 -1.84765 0
M  V30 7072 C 665.429 1.18877 -1.56086 0
M  V30 7073 O 664.554 1.90947 -1.01825 0
M  V30 7074 C 665.149 -0.47984 -3.35385 0
M  V30 7075 C 663.708 -0.132116 -3.76168 0
M  V30 7076 C 662.855 -0.774611 -2.66261 0
M  V30 7077 H 665.806 -0.872509 -1.32563 0
M  V30 7078 H 665.827 0.269522 -3.79544 0
M  V30 7079 H 665.339 -1.54026 -3.56227 0
M  V30 7080 H 663.44 0.92505 -3.60934 0
M  V30 7081 H 663.553 -0.569294 -4.75706 0
M  V30 7082 H 661.917 -0.206353 -2.53863 0
M  V30 7083 H 662.7 -1.83839 -2.89928 0
M  V30 7084 N 665.145 1.52092 -0.413018 0
M  V30 7085 C 666.092 2.27119 0.410558 0
M  V30 7086 C 667.062 1.29692 1.03774 0
M  V30 7087 O 668.247 1.58561 1.06128 0
M  V30 7088 C 665.387 3.09863 1.51918 0
M  V30 7089 C 664.5 4.22252 0.912528 0
M  V30 7090 C 663.635 4.92348 1.99417 0
M  V30 7091 C 662.674 5.96694 1.36466 0
M  V30 7092 N 661.811 6.60292 2.38661 0
M  V30 7093 H 666.651 2.97067 -0.235661 0
M  V30 7094 H 664.188 1.46542 -0.128055 0
M  V30 7095 H 666.146 3.56144 2.17295 0
M  V30 7096 H 664.776 2.42078 2.13537 0
M  V30 7097 H 663.828 3.80113 0.147697 0
M  V30 7098 H 665.14 4.9709 0.412717 0
M  V30 7099 H 664.294 5.42054 2.72512 0
M  V30 7100 H 663.033 4.17087 2.52764 0
M  V30 7101 H 662.038 5.46304 0.61906 0
M  V30 7102 H 663.263 6.73899 0.838827 0
M  V30 7103 H 661.209 5.87858 2.91134 0
M  V30 7104 H 661.126 7.30816 1.93503 0
M  V30 7105 H 662.394 7.14635 3.11314 0
M  V30 7106 N 666.623 0.143563 1.56945 0
M  V30 7107 C 667.571 -0.814556 2.17871 0
M  V30 7108 C 668.565 -1.25778 1.13474 0
M  V30 7109 O 669.771 -1.22666 1.31731 0
M  V30 7110 H 666.146 -0.280873 0.697578 0
M  V30 7111 H 668.117 -0.276459 2.97117 0
M  V30 7112 C 666.866 -2.04503 2.81201 0
M  V30 7113 H 666.189 -1.71296 3.61245 0
M  V30 7114 H 667.629 -2.69493 3.27337 0
M  V30 7115 C 666.088 -2.85079 1.79532 0
M  V30 7116 O 666.618 -3.81306 1.26368 0
M  V30 7117 N 664.824 -2.49546 1.48913 0
M  V30 7118 H 664.371 -1.71359 1.92338 0
M  V30 7119 H 664.329 -3.03751 0.811348 0
M  V30 7120 N 668.101 -1.57061 -0.130224 0
M  V30 7121 C 669.35 -1.83446 -0.838488 0
M  V30 7122 C 669.663 -0.727468 -1.81569 0
M  V30 7123 O 670.869 -0.877394 -2.56932 0
M  V30 7124 C 669.325 -3.25201 -1.54182 0
M  V30 7125 C 668.933 -4.4388 -0.606178 0
M  V30 7126 C 670.677 -3.60844 -2.23588 0
M  V30 7127 C 668.584 -5.76661 -1.31209 0
M  V30 7128 H 667.514 -0.684185 -0.316871 0
M  V30 7129 H 670.165 -1.83273 -0.0912059 0
M  V30 7130 H 668.547 -3.1981 -2.33533 0
M  V30 7131 H 669.721 -4.60545 0.153308 0
M  V30 7132 H 668.036 -4.16395 -0.0196705 0
M  V30 7133 H 670.633 -4.57313 -2.77072 0
M  V30 7134 H 670.976 -2.87724 -3.00867 0
M  V30 7135 H 671.509 -3.67971 -1.51137 0
M  V30 7136 H 668.248 -6.52922 -0.580823 0
M  V30 7137 H 667.768 -5.63902 -2.04387 0
M  V30 7138 H 669.447 -6.20035 -1.8484 0
M  V30 7139 N 669.579 0.400081 -1.52437 0
M  V30 7140 C 670.526 1.48803 -1.76426 0
M  V30 7141 C 671.496 1.5461 -0.607032 0
M  V30 7142 O 672.681 1.71041 -0.845563 0
M  V30 7143 C 669.821 2.86156 -1.92896 0
M  V30 7144 C 668.934 2.89587 -3.20567 0
M  V30 7145 C 668.069 4.18296 -3.27417 0
M  V30 7146 C 667.108 4.15736 -4.49255 0
M  V30 7147 N 666.245 5.36032 -4.53447 0
M  V30 7148 H 671.085 1.27649 -2.69276 0
M  V30 7149 H 668.622 0.619451 -1.33421 0
M  V30 7150 H 670.58 3.65901 -2.00429 0
M  V30 7151 H 669.21 3.05785 -1.03418 0
M  V30 7152 H 668.262 2.02278 -3.22161 0
M  V30 7153 H 669.574 2.83562 -4.10358 0
M  V30 7154 H 668.728 5.06439 -3.34072 0
M  V30 7155 H 667.467 4.27028 -2.35581 0
M  V30 7156 H 666.472 3.25982 -4.42737 0
M  V30 7157 H 667.697 4.08636 -5.42396 0
M  V30 7158 H 665.643 5.45415 -3.64498 0
M  V30 7159 H 665.56 5.32038 -5.37096 0
M  V30 7160 H 666.828 6.26104 -4.64343 0
M  V30 7161 N 671.057 1.43213 0.657864 0
M  V30 7162 C 672.303 1.44798 1.41991 0
M  V30 7163 C 672.636 0.070256 1.94073 0
M  V30 7164 O 671.911 -0.908177 1.71995 0
M  V30 7165 C 672.194 2.4865 2.60471 0
M  V30 7166 C 672.047 3.95679 2.13911 0
M  V30 7167 C 673.366 2.49292 3.62686 0
M  V30 7168 H 670.485 0.527244 0.514959 0
M  V30 7169 H 673.127 1.74733 0.74621 0
M  V30 7170 H 671.277 2.23254 3.17946 0
M  V30 7171 H 672.949 4.32116 1.61472 0
M  V30 7172 H 671.192 4.08733 1.45325 0
M  V30 7173 H 671.863 4.6395 2.99089 0
M  V30 7174 H 674.339 2.71917 3.14961 0
M  V30 7175 H 673.215 3.23907 4.43143 0
M  V30 7176 H 673.476 1.52502 4.14964 0
M  V30 7177 N 672.536 -0.895792 1.29666 0
M  V30 7178 C 673.782 -1.64921 1.19049 0
M  V30 7179 C 674.137 -1.90707 -0.254678 0
M  V30 7180 O 673.43 -1.5092 -1.18041 0
M  V30 7181 C 673.624 -3.00075 1.94139 0
M  V30 7182 C 673.453 -2.87482 3.4581 0
M  V30 7183 C 672.223 -2.88041 4.15163 0
M  V30 7184 C 674.421 -2.64224 4.41237 0
M  V30 7185 N 672.403 -2.66226 5.5317 0
M  V30 7186 C 673.774 -2.51427 5.66732 0
M  V30 7187 C 675.829 -2.49362 4.30956 0
M  V30 7188 C 674.532 -2.25281 6.83111 0
M  V30 7189 C 676.558 -2.246 5.47091 0
M  V30 7190 C 675.92 -2.12571 6.7156 0
M  V30 7191 H 672.019 -0.608926 0.490646 0
M  V30 7192 H 674.603 -1.05648 1.63544 0
M  V30 7193 H 672.774 -3.574 1.52052 0
M  V30 7194 H 674.506 -3.64544 1.75754 0
M  V30 7195 H 671.261 -2.99471 3.66898 0
M  V30 7196 H 671.685 -2.58361 6.25762 0
M  V30 7197 H 676.327 -2.57403 3.35415 0
M  V30 7198 H 674.045 -2.15978 7.78704 0
M  V30 7199 H 677.631 -2.13939 5.41037 0
M  V30 7200 H 676.511 -1.93676 7.59907 0
M  V30 7201 N 674.014 -1.12206 -1.10668 0
M  V30 7202 C 674.924 -0.800686 -2.20513 0
M  V30 7203 C 675.94 0.209512 -1.72734 0
M  V30 7204 O 677.116 0.043705 -2.01353 0
M  V30 7205 C 674.181 -0.257353 -3.45744 0
M  V30 7206 C 673.242 -1.32718 -4.0827 0
M  V30 7207 C 672.475 -0.809674 -5.27522 0
M  V30 7208 O 672.698 0.35742 -5.69279 0
M  V30 7209 O 671.632 -1.57816 -5.80842 0
M  V30 7210 H 675.458 -1.71807 -2.50432 0
M  V30 7211 H 673.043 -0.898546 -1.19359 0
M  V30 7212 H 674.925 0.0408849 -4.2138 0
M  V30 7213 H 673.6 0.632627 -3.17458 0
M  V30 7214 H 672.507 -1.67855 -3.34329 0
M  V30 7215 H 673.84 -2.19083 -4.40753 0
M  V30 7216 N 675.492 1.28418 -0.913599 0
M  V30 7217 C 676.74 1.94596 -0.545594 0
M  V30 7218 C 677.061 1.7227 0.913668 0
M  V30 7219 O 676.331 1.06233 1.64595 0
M  V30 7220 H 674.911 0.720065 -0.198783 0
M  V30 7221 H 677.573 1.56404 -1.16292 0
M  V30 7222 H 676.669 3.03202 -0.739911 0
M  V30 7223 N 676.97 0.677563 1.42291 0
M  V30 7224 C 678.219 0.198173 2.00724 0
M  V30 7225 C 678.532 -1.20325 1.54211 0
M  V30 7226 O 679.738 -1.77916 2.05081 0
M  V30 7227 C 678.194 0.303432 3.58619 0
M  V30 7228 C 677.802 1.70909 4.14119 0
M  V30 7229 C 679.546 -0.117103 4.24338 0
M  V30 7230 C 677.453 1.76696 5.64387 0
M  V30 7231 H 676.383 0.070329 0.750713 0
M  V30 7232 H 679.034 0.843147 1.62982 0
M  V30 7233 H 677.416 -0.409482 3.93877 0
M  V30 7234 H 678.59 2.44931 3.90315 0
M  V30 7235 H 676.905 2.07771 3.6086 0
M  V30 7236 H 679.502 -0.0940471 5.34617 0
M  V30 7237 H 679.845 -1.15283 4.00019 0
M  V30 7238 H 680.378 0.5449 3.9405 0
M  V30 7239 H 677.117 2.7826 5.93508 0
M  V30 7240 H 676.637 1.07034 5.90173 0
M  V30 7241 H 678.316 1.52166 6.28852 0
M  V30 7242 N 678.448 -1.51871 0.421078 0
M  V30 7243 C 679.859 -1.86644 -0.0457991 0
M  V30 7244 C 680.21 -1.33919 -1.43388 0
M  V30 7245 O 679.335 -0.683316 -2.05328 0
M  V30 7246 C 679.93 -3.38681 -0.0898844 0
M  V30 7247 C 678.489 -3.73049 -0.501127 0
M  V30 7248 C 677.636 -2.75485 0.316723 0
M  V30 7249 H 680.587 -1.45327 0.637635 0
M  V30 7250 H 680.608 -3.69636 -0.902734 0
M  V30 7251 H 680.12 -3.77025 0.920513 0
M  V30 7252 H 678.221 -3.40288 -1.51773 0
M  V30 7253 H 678.334 -4.78512 -0.237217 0
M  V30 7254 H 676.698 -2.53725 -0.222663 0
M  V30 7255 H 677.481 -3.16671 1.32569 0
M  V30 7256 N 679.926 -0.151884 -1.56866 0
M  V30 7257 C 680.836 0.798876 -2.20579 0
M  V30 7258 C 681.852 1.268 -1.19154 0
M  V30 7259 O 683.028 1.32418 -1.51748 0
M  V30 7260 C 680.093 2.01861 -2.81874 0
M  V30 7261 C 679.154 1.59825 -3.9844 0
M  V30 7262 C 678.387 2.75984 -4.56802 0
M  V30 7263 O 678.61 3.92331 -4.14044 0
M  V30 7264 O 677.544 2.51175 -5.46987 0
M  V30 7265 H 681.37 0.2865 -3.02346 0
M  V30 7266 H 678.955 0.0753806 -1.4921 0
M  V30 7267 H 680.837 2.73235 -3.20813 0
M  V30 7268 H 679.512 2.52042 -2.03117 0
M  V30 7269 H 678.419 0.854601 -3.64208 0
M  V30 7270 H 679.752 1.14355 -4.78731 0
M  V30 7271 N 681.404 1.57128 0.121893 0
M  V30 7272 C 682.629 1.89254 0.848385 0
M  V30 7273 C 683.054 0.743527 1.72781 0
M  V30 7274 O 682.412 -0.306056 1.78698 0
M  V30 7275 C 682.46 3.20113 1.66012 0
M  V30 7276 O 681.564 3.05815 2.76679 0
M  V30 7277 H 680.905 0.621103 0.234793 0
M  V30 7278 H 683.435 2.0433 0.10516 0
M  V30 7279 H 683.445 3.52761 2.04996 0
M  V30 7280 H 682.12 4.03336 1.01452 0
M  V30 7281 H 680.697 2.84627 2.40918 0
M  V30 7282 N 682.882 -0.391992 1.52647 0
M  V30 7283 C 684.293 -0.970064 1.5952 0
M  V30 7284 C 684.644 -1.91059 0.446207 0
M  V30 7285 O 683.769 -2.12062 -0.431125 0
M  V30 7286 C 684.364 -1.76614 2.89125 0
M  V30 7287 C 682.923 -2.29396 2.9842 0
M  V30 7288 C 682.07 -1.09864 2.54608 0
M  V30 7289 H 685.021 -0.171638 1.57769 0
M  V30 7290 H 685.042 -2.62511 2.75442 0
M  V30 7291 H 684.554 -1.08135 3.72731 0
M  V30 7292 H 682.655 -3.01196 2.19344 0
M  V30 7293 H 682.768 -2.59088 4.03002 0
M  V30 7294 H 681.132 -1.45777 2.08857 0
M  V30 7295 H 681.915 -0.429249 3.40606 0
M  V30 7296 N 684.36 -1.4356 -0.65026 0
M  V30 7297 C 685.776 -1.27025 -0.966269 0
M  V30 7298 C 685.976 -0.192117 -2.00582 0
M  V30 7299 O 685.032 0.428459 -2.48838 0
M  V30 7300 C 686.345 -2.63556 -1.44772 0
M  V30 7301 C 687.893 -2.71111 -1.56421 0
M  V30 7302 C 688.368 -4.08067 -2.07956 0
M  V30 7303 N 689.859 -4.10146 -2.15254 0
M  V30 7304 C 690.594 -5.12952 -2.56258 0
M  V30 7305 N 690.09 -6.26129 -2.96537 0
M  V30 7306 N 691.883 -5.00306 -2.56224 0
M  V30 7307 H 684.034 -2.12367 0.0375758 0
M  V30 7308 H 686.297 -0.946894 -0.0457782 0
M  V30 7309 H 686.003 -3.43429 -0.758271 0
M  V30 7310 H 685.877 -2.89152 -2.42221 0
M  V30 7311 H 688.264 -1.91569 -2.24467 0
M  V30 7312 H 688.345 -2.49277 -0.573967 0
M  V30 7313 H 687.989 -4.88077 -1.40511 0
M  V30 7314 H 687.919 -4.27266 -3.07817 0
M  V30 7315 H 690.41 -3.28453 -1.86887 0
M  V30 7316 H 690.723 -7.00403 -3.26582 0
M  V30 7317 H 689.068 -6.29597 -2.94334 0
M  V30 7318 H 692.259 -4.10952 -2.24135 0
M  V30 7319 H 692.432 -5.80553 -2.87857 0
M  V30 7320 N 685.838 0.888903 -1.30139 0
M  V30 7321 C 687.086 1.63713 -1.18501 0
M  V30 7322 C 687.407 1.9324 0.261399 0
M  V30 7323 O 686.677 1.56608 1.17689 0
M  V30 7324 H 685.257 0.606861 -0.435579 0
M  V30 7325 H 687.919 1.06525 -1.63213 0
M  V30 7326 H 687.015 2.58894 -1.743 0
M  V30 7327 N 687.317 1.12792 1.10072 0
M  V30 7328 C 688.542 0.908838 1.86427 0
M  V30 7329 C 688.967 -0.536793 1.80278 0
M  V30 7330 O 688.325 -1.38033 1.17543 0
M  V30 7331 C 688.373 1.39295 3.3261 0
M  V30 7332 O 687.477 0.573846 4.08388 0
M  V30 7333 H 686.818 0.326234 0.578331 0
M  V30 7334 H 689.348 1.50094 1.39043 0
M  V30 7335 H 689.358 1.39366 3.83459 0
M  V30 7336 H 688.033 2.44555 3.36401 0
M  V30 7337 H 686.61 0.640438 3.67359 0
M  V30 7338 N 688.795 -1.27931 0.920396 0
M  V30 7339 C 690.042 -1.94689 0.557007 0
M  V30 7340 C 690.37 -1.724 -0.900476 0
M  V30 7341 O 689.625 -1.04194 -1.65657 0
M  V30 7342 C 689.924 -3.47853 0.820558 0
M  V30 7343 C 689.59 -3.90252 2.25863 0
M  V30 7344 C 688.252 -4.01539 2.65179 0
M  V30 7345 C 690.604 -4.11853 3.19415 0
M  V30 7346 C 687.932 -4.3181 3.97187 0
M  V30 7347 C 690.284 -4.43606 4.50995 0
M  V30 7348 C 688.948 -4.53105 4.90155 0
M  V30 7349 H 688.218 -0.712416 0.203823 0
M  V30 7350 H 690.865 -1.52142 1.16298 0
M  V30 7351 H 689.17 -3.91578 0.131844 0
M  V30 7352 H 690.867 -3.97634 0.51847 0
M  V30 7353 H 687.457 -3.81999 1.94358 0
M  V30 7354 H 691.641 -4.0258 2.90246 0
M  V30 7355 H 686.897 -4.37371 4.2722 0
M  V30 7356 H 691.071 -4.59268 5.23494 0
M  V30 7357 H 688.698 -4.76315 5.92476 0
M  V30 7358 N 690.273 -0.685099 -1.4193 0
M  V30 7359 C 691.206 0.0371639 -2.2817 0
M  V30 7360 C 692.184 0.798436 -1.41647 0
M  V30 7361 O 693.368 0.791428 -1.71081 0
M  V30 7362 C 690.495 1.05993 -3.21688 0
M  V30 7363 C 689.541 0.393043 -4.24685 0
M  V30 7364 S 690.374 -0.856921 -5.28599 0
M  V30 7365 C 691.53 0.164508 -6.25684 0
M  V30 7366 H 691.763 -0.694305 -2.89079 0
M  V30 7367 H 689.296 -0.474999 -1.46912 0
M  V30 7368 H 691.254 1.64489 -3.76103 0
M  V30 7369 H 689.915 1.7639 -2.59895 0
M  V30 7370 H 689.108 1.16513 -4.90348 0
M  V30 7371 H 688.71 -0.118589 -3.73812 0
M  V30 7372 H 691.002 1.02106 -6.69762 0
M  V30 7373 H 691.945 -0.457917 -7.06618 0
M  V30 7374 H 692.353 0.514596 -5.6215 0
M  V30 7375 N 691.751 1.51645 -0.429126 0
M  V30 7376 C 692.999 2.01616 0.139802 0
M  V30 7377 C 693.32 1.31568 1.43927 0
M  V30 7378 O 692.59 0.447688 1.90716 0
M  V30 7379 H 691.17 0.744998 0.054654 0
M  V30 7380 H 693.832 1.8638 -0.569952 0
M  V30 7381 H 692.928 3.10439 0.321609 0
M  V30 7382 N 693.229 0.160201 1.56784 0
M  V30 7383 C 694.454 -0.497373 2.01348 0
M  V30 7384 C 694.879 -1.56757 1.03966 0
M  V30 7385 O 694.237 -1.81292 0.0174455 0
M  V30 7386 C 694.285 -1.0628 3.44582 0
M  V30 7387 O 693.389 -2.17723 3.50244 0
M  V30 7388 H 692.73 -0.120295 0.653012 0
M  V30 7389 H 695.26 0.260821 2.02931 0
M  V30 7390 H 695.27 -1.38819 3.83658 0
M  V30 7391 H 693.945 -0.279166 4.14962 0
M  V30 7392 H 692.522 -1.86313 3.2302 0
M  V30 7393 N 694.707 -1.5719 -0.113559 0
M  V30 7394 C 695.984 -1.76117 -0.850999 0
M  V30 7395 C 696.364 -0.737085 -1.97814 0
M  V30 7396 O 695.712 0.237942 -2.27258 0
M  V30 7397 C 695.922 -3.21298 -1.36266 0
M  V30 7398 C 697.27 -3.83955 -1.81283 0
M  V30 7399 O 698.294 -3.24934 -1.45933 0
M  V30 7400 O 697.153 -4.87707 -2.46585 0
M  V30 7401 H 694.247 -0.721308 -0.404529 0
M  V30 7402 H 696.793 -1.69423 -0.0968756 0
M  V30 7403 H 695.565 -3.87355 -0.554235 0
M  V30 7404 H 695.188 -3.32552 -2.17933 0
M  V30 7405 N 696.185 0.383891 -1.52853 0
M  V30 7406 C 697.095 1.49343 -1.80925 0
M  V30 7407 C 698.111 1.59458 -0.696348 0
M  V30 7408 O 699.287 1.75698 -0.984481 0
M  V30 7409 C 696.352 2.84819 -1.97684 0
M  V30 7410 C 695.413 2.84382 -3.21598 0
M  V30 7411 C 694.646 4.13397 -3.37548 0
M  V30 7412 O 694.869 5.08619 -2.58192 0
M  V30 7413 O 693.803 4.20325 -4.30826 0
M  V30 7414 H 697.629 1.2855 -2.75152 0
M  V30 7415 H 695.214 0.572229 -1.38007 0
M  V30 7416 H 697.096 3.65125 -2.10385 0
M  V30 7417 H 695.771 3.05627 -1.06647 0
M  V30 7418 H 694.678 2.0284 -3.14336 0
M  V30 7419 H 696.011 2.68526 -4.12498 0
M  V30 7420 N 697.663 1.43903 0.642637 0
M  V30 7421 C 698.909 1.46296 1.40447 0
M  V30 7422 C 699.242 0.0908361 1.93987 0
M  V30 7423 O 698.517 -0.889884 1.72949 0
M  V30 7424 C 698.8 2.51399 2.57819 0
M  V30 7425 C 698.653 3.97926 2.09702 0
M  V30 7426 C 699.972 2.53125 3.60022 0
M  V30 7427 H 697.091 0.532676 0.509338 0
M  V30 7428 H 699.733 1.75515 0.727635 0
M  V30 7429 H 697.883 2.26614 3.1556 0
M  V30 7430 H 699.555 4.33804 1.5688 0
M  V30 7431 H 697.798 4.10252 1.40982 0
M  V30 7432 H 698.469 4.67096 2.94152 0
M  V30 7433 H 700.945 2.75242 3.12059 0
M  V30 7434 H 699.821 3.28589 4.39682 0
M  V30 7435 H 700.082 1.56895 4.13324 0
M  V30 7436 N 699.141 -0.881989 1.30609 0
M  V30 7437 C 700.388 -1.63405 1.19604 0
M  V30 7438 C 700.716 -1.92905 -0.248574 0
M  V30 7439 O 699.971 -1.55062 -1.19391 0
M  V30 7440 C 700.27 -2.97999 1.97311 0
M  V30 7441 C 699.936 -2.88039 3.46907 0
M  V30 7442 C 698.598 -2.85029 3.877 0
M  V30 7443 C 700.95 -2.75948 4.42156 0
M  V30 7444 C 698.278 -2.67772 5.2203 0
M  V30 7445 C 700.63 -2.60228 5.76597 0
M  V30 7446 C 699.294 -2.55595 6.16626 0
M  V30 7447 H 698.564 -0.597941 0.437662 0
M  V30 7448 H 701.211 -1.02524 1.61744 0
M  V30 7449 H 699.516 -3.62847 1.47815 0
M  V30 7450 H 701.213 -3.55156 1.86186 0
M  V30 7451 H 697.803 -2.91192 3.14492 0
M  V30 7452 H 701.987 -2.77337 4.1158 0
M  V30 7453 H 697.243 -2.62601 5.52133 0
M  V30 7454 H 701.417 -2.49847 6.50038 0
M  V30 7455 H 699.044 -2.41981 7.20659 0
M  V30 7456 N 700.619 -1.13374 -1.09472 0
M  V30 7457 C 701.847 -0.918351 -1.85402 0
M  V30 7458 C 702.262 0.53281 -1.81126 0
M  V30 7459 O 701.619 1.36879 -1.20708 0
M  V30 7460 C 701.67 -1.39743 -3.33398 0
M  V30 7461 O 701.391 -2.79172 -3.37631 0
M  V30 7462 C 702.892 -1.22042 -4.2617 0
M  V30 7463 H 700.112 -0.327511 -0.585643 0
M  V30 7464 H 702.656 -1.50617 -1.38328 0
M  V30 7465 H 700.811 -0.852619 -3.77901 0
M  V30 7466 H 701.225 -3.00428 -4.29934 0
M  V30 7467 H 702.699 -1.60438 -5.2817 0
M  V30 7468 H 703.176 -0.162047 -4.38901 0
M  V30 7469 H 703.782 -1.75323 -3.87482 0
M  V30 7470 N 702.098 1.27442 -0.927168 0
M  V30 7471 C 703.328 1.9821 -0.582775 0
M  V30 7472 C 703.736 1.69361 0.843406 0
M  V30 7473 O 703.079 0.950381 1.57205 0
M  V30 7474 C 703.141 3.52048 -0.728165 0
M  V30 7475 C 702.805 4.04518 -2.12637 0
M  V30 7476 C 703.802 4.17332 -3.10048 0
M  V30 7477 C 701.487 4.38879 -2.44317 0
M  V30 7478 C 703.481 4.6378 -4.37249 0
M  V30 7479 C 701.168 4.85018 -3.71753 0
M  V30 7480 C 702.166 4.97428 -4.68033 0
M  V30 7481 O 701.854 5.42556 -5.93202 0
M  V30 7482 H 701.586 0.639314 -0.219667 0
M  V30 7483 H 704.14 1.63272 -1.24626 0
M  V30 7484 H 702.37 3.86699 -0.00758143 0
M  V30 7485 H 704.059 4.04033 -0.388906 0
M  V30 7486 H 704.825 3.91046 -2.86894 0
M  V30 7487 H 700.704 4.28462 -1.70121 0
M  V30 7488 H 704.248 4.73382 -5.12402 0
M  V30 7489 H 700.145 5.10746 -3.94726 0
M  V30 7490 H 700.913 5.60811 -5.96182 0
M  V30 7491 N 703.576 0.692616 1.41565 0
M  V30 7492 C 704.823 0.222335 2.01276 0
M  V30 7493 C 705.151 -1.17706 1.5484 0
M  V30 7494 O 704.406 -1.80795 0.749118 0
M  V30 7495 C 704.705 0.225073 3.56691 0
M  V30 7496 C 704.371 1.57158 4.22625 0
M  V30 7497 C 703.033 1.94022 4.40351 0
M  V30 7498 C 705.385 2.45758 4.59622 0
M  V30 7499 C 702.713 3.19076 4.92349 0
M  V30 7500 C 705.065 3.70141 5.13009 0
M  V30 7501 C 703.729 4.07152 5.28946 0
M  V30 7502 H 702.999 0.0813581 0.73652 0
M  V30 7503 H 705.646 0.891123 1.69503 0
M  V30 7504 H 703.951 -0.527259 3.88236 0
M  V30 7505 H 705.648 -0.156283 4.00695 0
M  V30 7506 H 702.238 1.27486 4.09201 0
M  V30 7507 H 706.422 2.18558 4.45585 0
M  V30 7508 H 701.678 3.4775 5.02872 0
M  V30 7509 H 705.852 4.38983 5.40617 0
M  V30 7510 H 703.479 5.04125 5.69001 0
M  V30 7511 N 705.054 -1.51416 0.437162 0
M  V30 7512 C 706.284 -2.06204 -0.127859 0
M  V30 7513 C 706.692 -1.30463 -1.37026 0
M  V30 7514 O 706.035 -0.357516 -1.80187 0
M  V30 7515 C 706.097 -3.55783 -0.515632 0
M  V30 7516 C 705.761 -4.52776 0.619937 0
M  V30 7517 C 706.758 -4.98031 1.49201 0
M  V30 7518 C 704.443 -4.95878 0.800618 0
M  V30 7519 C 706.437 -5.85061 2.52947 0
M  V30 7520 C 704.124 -5.82699 1.84135 0
M  V30 7521 C 705.122 -6.27188 2.70416 0
M  V30 7522 O 704.81 -7.12284 3.72702 0
M  V30 7523 H 704.542 -0.675903 -0.011442 0
M  V30 7524 H 707.096 -1.95977 0.614986 0
M  V30 7525 H 705.326 -3.63793 -1.31118 0
M  V30 7526 H 707.015 -3.93087 -1.01179 0
M  V30 7527 H 707.781 -4.65426 1.36395 0
M  V30 7528 H 703.66 -4.60792 0.138617 0
M  V30 7529 H 707.204 -6.19708 3.20325 0
M  V30 7530 H 703.101 -6.14717 1.9696 0
M  V30 7531 H 703.869 -7.30462 3.69281 0
M  V30 7532 N 706.532 -0.168513 -1.56696 0
M  V30 7533 C 707.479 0.762875 -2.17828 0
M  V30 7534 C 708.449 1.22892 -1.11745 0
M  V30 7535 O 709.634 1.29759 -1.39883 0
M  V30 7536 C 706.774 1.9879 -2.82093 0
M  V30 7537 C 705.887 1.56568 -4.02629 0
M  V30 7538 C 705.022 2.74416 -4.54829 0
M  V30 7539 C 704.061 2.28671 -5.67782 0
M  V30 7540 N 703.198 3.39602 -6.14504 0
M  V30 7541 H 708.038 0.23479 -2.97074 0
M  V30 7542 H 705.575 0.104163 -1.46731 0
M  V30 7543 H 707.533 2.70636 -3.17509 0
M  V30 7544 H 706.163 2.48973 -2.05456 0
M  V30 7545 H 705.215 0.744067 -3.73052 0
M  V30 7546 H 706.527 1.18988 -4.844 0
M  V30 7547 H 705.681 3.54423 -4.92412 0
M  V30 7548 H 704.42 3.15254 -3.7211 0
M  V30 7549 H 703.425 1.4711 -5.29753 0
M  V30 7550 H 704.65 1.88894 -6.52301 0
M  V30 7551 H 702.596 3.80021 -5.34715 0
M  V30 7552 H 702.513 3.06105 -6.91257 0
M  V30 7553 H 703.781 4.19902 -6.56737 0
M  V30 7554 N 708.01 1.57248 0.105221 0
M  V30 7555 C 709.258 1.85204 0.808951 0
M  V30 7556 C 709.579 0.75574 1.7976 0
M  V30 7557 O 708.849 -0.218984 1.94672 0
M  V30 7558 H 707.429 0.683346 0.301739 0
M  V30 7559 H 710.091 1.94695 0.0892605 0
M  V30 7560 H 709.187 2.81595 1.34575 0
M  V30 7561 N 709.488 -0.375779 1.53054 0
M  V30 7562 C 710.436 -1.48015 1.79428 0
M  V30 7563 C 711.43 -1.55893 0.662854 0
M  V30 7564 O 712.636 -1.58901 0.845599 0
M  V30 7565 H 709.011 -0.492887 0.56795 0
M  V30 7566 H 710.982 -1.22971 2.71884 0
M  V30 7567 C 709.731 -2.84984 1.99197 0
M  V30 7568 H 709.054 -2.79677 2.85693 0
M  V30 7569 H 710.494 -3.61462 2.21633 0
M  V30 7570 C 708.953 -3.28025 0.768183 0
M  V30 7571 O 709.483 -4.01671 -0.0480482 0
M  V30 7572 N 707.689 -2.84454 0.594521 0
M  V30 7573 H 707.236 -2.24688 1.25988 0
M  V30 7574 H 707.194 -3.13609 -0.222916 0
M  V30 7575 N 710.966 -1.44241 -0.634997 0
M  V30 7576 C 711.913 -1.5081 -1.74714 0
M  V30 7577 C 712.883 -0.356147 -1.62237 0
M  V30 7578 O 714.068 -0.565848 -1.82216 0
M  V30 7579 C 711.208 -1.45458 -3.12947 0
M  V30 7580 C 710.321 -2.70998 -3.36428 0
M  V30 7581 C 709.456 -2.57507 -4.64611 0
M  V30 7582 C 708.495 -3.78229 -4.81258 0
M  V30 7583 N 707.632 -3.63438 -6.00714 0
M  V30 7584 H 712.472 -2.45832 -1.68436 0
M  V30 7585 H 710.009 -1.2201 -0.821706 0
M  V30 7586 H 711.967 -1.40347 -3.92885 0
M  V30 7587 H 710.597 -0.540058 -3.1825 0
M  V30 7588 H 709.649 -2.86312 -2.50458 0
M  V30 7589 H 710.961 -3.60619 -3.44609 0
M  V30 7590 H 710.115 -2.50207 -5.52703 0
M  V30 7591 H 708.854 -1.65441 -4.58782 0
M  V30 7592 H 707.859 -3.85918 -3.91596 0
M  V30 7593 H 709.084 -4.71327 -4.88904 0
M  V30 7594 H 707.03 -2.7412 -5.95982 0
M  V30 7595 H 706.947 -4.46672 -6.09934 0
M  V30 7596 H 708.215 -3.60022 -6.91378 0
M  V30 7597 N 712.444 0.87505 -1.31075 0
M  V30 7598 C 713.674 1.65818 -1.2324 0
M  V30 7599 C 714.082 1.8808 0.205536 0
M  V30 7600 O 713.425 1.43548 1.14628 0
M  V30 7601 C 713.487 3.05131 -1.90093 0
M  V30 7602 C 713.151 3.05999 -3.39432 0
M  V30 7603 C 714.148 2.84328 -4.35263 0
M  V30 7604 C 711.833 3.27281 -3.81041 0
M  V30 7605 C 713.827 2.83912 -5.70678 0
M  V30 7606 C 711.514 3.26493 -5.16571 0
M  V30 7607 C 712.512 3.04834 -6.112 0
M  V30 7608 O 712.2 3.03882 -7.44252 0
M  V30 7609 H 711.932 0.52387 -0.427242 0
M  V30 7610 H 714.486 1.10086 -1.73408 0
M  V30 7611 H 712.716 3.62568 -1.34468 0
M  V30 7612 H 714.405 3.65641 -1.76242 0
M  V30 7613 H 715.171 2.67673 -4.04445 0
M  V30 7614 H 711.05 3.43171 -3.07822 0
M  V30 7615 H 714.594 2.66925 -6.44513 0
M  V30 7616 H 710.491 3.42687 -5.47025 0
M  V30 7617 H 711.259 3.19979 -7.53363 0
M  V30 7618 N 713.922 1.13953 1.08869 0
M  V30 7619 C 715.168 0.916103 1.81602 0
M  V30 7620 C 715.523 -0.551633 1.84322 0
M  V30 7621 O 714.816 -1.40322 1.30462 0
M  V30 7622 C 715.01 1.44495 3.26888 0
M  V30 7623 C 714.839 2.96257 3.38322 0
M  V30 7624 C 713.609 3.64658 3.49789 0
M  V30 7625 C 715.807 3.94156 3.30372 0
M  V30 7626 N 713.789 5.04379 3.49965 0
M  V30 7627 C 715.16 5.20101 3.37484 0
M  V30 7628 C 717.215 3.86342 3.14077 0
M  V30 7629 C 715.918 6.39145 3.29979 0
M  V30 7630 C 717.944 5.04927 3.07901 0
M  V30 7631 C 717.306 6.29738 3.1561 0
M  V30 7632 H 713.405 0.388701 0.678554 0
M  V30 7633 H 715.989 1.44879 1.3007 0
M  V30 7634 H 714.16 0.939102 3.76876 0
M  V30 7635 H 715.892 1.16193 3.87661 0
M  V30 7636 H 712.647 3.15196 3.5348 0
M  V30 7637 H 713.071 5.77305 3.53622 0
M  V30 7638 H 717.713 2.90726 3.06982 0
M  V30 7639 H 715.431 7.3501 3.35836 0
M  V30 7640 H 719.017 5.00626 2.9642 0
M  V30 7641 H 717.897 7.19958 3.10854 0
M  V30 7642 N 715.4 -1.26948 0.933913 0
M  V30 7643 C 716.347 -2.26635 0.436484 0
M  V30 7644 C 717.317 -1.58397 -0.499953 0
M  V30 7645 O 718.502 -1.86171 -0.417753 0
M  V30 7646 C 715.642 -3.43803 -0.298951 0
M  V30 7647 C 714.755 -4.26736 0.672316 0
M  V30 7648 C 713.89 -5.31134 -0.0835872 0
M  V30 7649 C 712.929 -6.05742 0.879979 0
M  V30 7650 N 712.066 -7.01926 0.156301 0
M  V30 7651 H 716.906 -2.68558 1.29154 0
M  V30 7652 H 714.443 -1.32052 0.648118 0
M  V30 7653 H 716.401 -4.10554 -0.741723 0
M  V30 7654 H 715.031 -3.02814 -1.1182 0
M  V30 7655 H 714.083 -3.59842 1.23361 0
M  V30 7656 H 715.395 -4.78502 1.40846 0
M  V30 7657 H 714.549 -6.03863 -0.585984 0
M  V30 7658 H 713.288 -4.80188 -0.852661 0
M  V30 7659 H 712.293 -5.31846 1.39357 0
M  V30 7660 H 713.518 -6.58777 1.64894 0
M  V30 7661 H 711.464 -6.53301 -0.594413 0
M  V30 7662 H 711.381 -7.51409 0.831906 0
M  V30 7663 H 712.649 -7.78821 -0.325239 0
M  V30 7664 N 716.879 -0.700114 -1.41195 0
M  V30 7665 C 718.126 -0.233006 -2.01155 0
M  V30 7666 C 718.454 1.16883 -1.55462 0
M  V30 7667 O 717.709 1.80395 -0.758695 0
M  V30 7668 C 718.008 -0.243986 -3.56566 0
M  V30 7669 C 717.674 -1.59397 -4.21786 0
M  V30 7670 C 716.336 -1.96355 -4.39316 0
M  V30 7671 C 718.688 -2.48192 -4.58312 0
M  V30 7672 C 716.016 -3.21683 -4.9065 0
M  V30 7673 C 718.368 -3.72857 -5.11039 0
M  V30 7674 C 717.032 -4.09951 -5.26779 0
M  V30 7675 H 716.302 -0.085263 -0.736078 0
M  V30 7676 H 718.949 -0.9001 -1.69028 0
M  V30 7677 H 717.254 0.506663 -3.8851 0
M  V30 7678 H 718.951 0.135031 -4.00773 0
M  V30 7679 H 715.541 -1.29654 -4.08519 0
M  V30 7680 H 719.725 -2.20918 -4.4442 0
M  V30 7681 H 714.981 -3.50412 -5.01021 0
M  V30 7682 H 719.155 -4.41844 -5.38282 0
M  V30 7683 H 716.782 -5.07136 -5.66319 0
M  V30 7684 N 718.357 1.51182 -0.445186 0
M  V30 7685 C 719.305 2.29531 0.376597 0
M  V30 7686 C 720.299 1.35711 1.01385 0
M  V30 7687 O 721.505 1.53018 0.947922 0
M  V30 7688 H 717.88 0.738803 0.140267 0
M  V30 7689 H 719.851 2.96838 -0.304958 0
M  V30 7690 C 718.6 3.1552 1.4609 0
M  V30 7691 H 717.923 3.87605 0.979912 0
M  V30 7692 H 719.363 3.73384 2.009 0
M  V30 7693 C 717.822 2.31406 2.44852 0
M  V30 7694 O 718.352 1.97912 3.49562 0
M  V30 7695 N 716.558 1.94478 2.15932 0
M  V30 7696 H 716.105 2.21917 1.30808 0
M  V30 7697 H 716.063 1.38498 2.82251 0
M  V30 7698 N 719.835 0.176821 1.56605 0
M  V30 7699 C 720.783 -0.768159 2.1955 0
M  V30 7700 C 721.777 -1.23343 1.16116 0
M  V30 7701 O 722.983 -1.19844 1.34303 0
M  V30 7702 H 719.358 -0.266013 0.703378 0
M  V30 7703 H 721.329 -0.213374 2.97636 0
M  V30 7704 C 720.078 -1.98492 2.85475 0
M  V30 7705 H 719.401 -1.63595 3.64797 0
M  V30 7706 H 720.841 -2.62489 3.3298 0
M  V30 7707 C 719.3 -2.81207 1.85538 0
M  V30 7708 O 719.83 -3.7854 1.34427 0
M  V30 7709 N 718.036 -2.46331 1.54173 0
M  V30 7710 H 717.583 -1.67241 1.95929 0
M  V30 7711 H 717.541 -3.01961 0.875595 0
M  V30 7712 N 721.313 -1.57302 -0.09688 0
M  V30 7713 C 722.245 -1.98618 -1.14384 0
M  V30 7714 C 723.258 -0.888483 -1.36418 0
M  V30 7715 O 724.447 -1.16661 -1.35101 0
M  V30 7716 C 721.547 -2.28838 -2.49973 0
M  V30 7717 C 720.72 -3.60132 -2.48241 0
M  V30 7718 C 719.779 -3.7831 -3.65743 0
M  V30 7719 O 718.805 -4.50183 -3.48316 0
M  V30 7720 N 720.007 -3.18752 -4.85157 0
M  V30 7721 H 722.772 -2.8904 -0.792202 0
M  V30 7722 H 720.333 -1.59356 -0.285883 0
M  V30 7723 H 722.325 -2.38193 -3.27179 0
M  V30 7724 H 720.895 -1.44431 -2.77233 0
M  V30 7725 H 720.115 -3.61763 -1.56593 0
M  V30 7726 H 721.403 -4.46389 -2.4416 0
M  V30 7727 H 720.801 -2.60368 -5.0222 0
M  V30 7728 H 719.358 -3.33595 -5.59962 0
M  V30 7729 N 722.791 0.367657 -1.53252 0
M  V30 7730 C 723.738 1.45028 -1.79543 0
M  V30 7731 C 724.708 1.53288 -0.63969 0
M  V30 7732 O 725.893 1.69209 -0.881653 0
M  V30 7733 C 723.033 2.82 -1.98923 0
M  V30 7734 C 722.146 2.82722 -3.26638 0
M  V30 7735 C 721.281 4.11257 -3.36216 0
M  V30 7736 C 720.32 4.06113 -4.57972 0
M  V30 7737 N 719.457 5.26293 -4.64715 0
M  V30 7738 H 724.297 1.21908 -2.71923 0
M  V30 7739 H 721.834 0.591011 -1.34705 0
M  V30 7740 H 723.792 3.61568 -2.08146 0
M  V30 7741 H 722.422 3.03523 -1.09881 0
M  V30 7742 H 721.474 1.95399 -3.26379 0
M  V30 7743 H 722.786 2.74794 -4.16281 0
M  V30 7744 H 721.94 4.99239 -3.44739 0
M  V30 7745 H 720.679 4.21935 -2.44586 0
M  V30 7746 H 719.684 3.16517 -4.49552 0
M  V30 7747 H 720.909 3.97039 -5.50942 0
M  V30 7748 H 718.855 5.37561 -3.75985 0
M  V30 7749 H 718.772 5.20526 -5.4826 0
M  V30 7750 H 720.04 6.16113 -4.77519 0
M  V30 7751 N 724.269 1.44576 0.627338 0
M  V30 7752 C 725.199 1.54562 1.75022 0
M  V30 7753 C 726.18 0.398378 1.65369 0
M  V30 7754 O 727.365 0.61899 1.84071 0
M  V30 7755 C 724.495 1.49309 3.13567 0
M  V30 7756 C 723.449 2.62549 3.38012 0
M  V30 7757 C 722.775 2.42348 4.76625 0
M  V30 7758 C 724.075 4.04678 3.30202 0
M  V30 7759 H 725.769 2.4855 1.66922 0
M  V30 7760 H 723.315 1.19624 0.801636 0
M  V30 7761 H 725.268 1.54895 3.919 0
M  V30 7762 H 723.992 0.518392 3.2246 0
M  V30 7763 H 722.651 2.56358 2.62061 0
M  V30 7764 H 722.299 1.43062 4.82226 0
M  V30 7765 H 721.999 3.18273 4.93939 0
M  V30 7766 H 723.523 2.49758 5.57183 0
M  V30 7767 H 724.937 4.12217 3.98435 0
M  V30 7768 H 723.334 4.80836 3.5905 0
M  V30 7769 H 724.404 4.2798 2.27949 0
M  V30 7770 N 725.747 -0.868086 1.31537 0
M  V30 7771 C 726.694 -1.97548 1.19346 0
M  V30 7772 C 727.664 -1.65913 0.0787922 0
M  V30 7773 O 728.849 -1.89129 0.251985 0
M  V30 7774 C 725.989 -3.32922 0.908692 0
M  V30 7775 C 725.102 -3.77141 2.10687 0
M  V30 7776 C 724.237 -5.01241 1.75873 0
M  V30 7777 C 723.276 -5.37914 2.92088 0
M  V30 7778 N 722.413 -6.53192 2.57457 0
M  V30 7779 H 727.253 -2.07307 2.14074 0
M  V30 7780 H 724.79 -1.01483 1.06487 0
M  V30 7781 H 726.748 -4.10867 0.724138 0
M  V30 7782 H 725.378 -3.228 -0.0017611 0
M  V30 7783 H 724.43 -2.94961 2.40213 0
M  V30 7784 H 725.742 -4.00248 2.97663 0
M  V30 7785 H 724.896 -5.86858 1.53891 0
M  V30 7786 H 723.635 -4.80041 0.86091 0
M  V30 7787 H 722.64 -4.50814 3.14717 0
M  V30 7788 H 723.865 -5.61077 3.82582 0
M  V30 7789 H 721.811 -6.33536 1.702 0
M  V30 7790 H 721.728 -6.76252 3.37963 0
M  V30 7791 H 722.996 -7.41997 2.38873 0
M  V30 7792 N 727.225 -1.14528 -1.08264 0
M  V30 7793 C 728.471 -0.91576 -1.80947 0
M  V30 7794 C 728.804 0.55623 -1.86064 0
M  V30 7795 O 728.079 1.41207 -1.33756 0
M  V30 7796 C 728.362 -1.51917 -3.26486 0
M  V30 7797 C 728.215 -3.06111 -3.2957 0
M  V30 7798 C 729.534 -1.19724 -4.23502 0
M  V30 7799 H 726.653 -0.334113 -0.656915 0
M  V30 7800 H 729.295 -1.41547 -1.26746 0
M  V30 7801 H 727.445 -1.0942 -3.72773 0
M  V30 7802 H 729.117 -3.57448 -2.91597 0
M  V30 7803 H 727.36 -3.40483 -2.688 0
M  V30 7804 H 728.031 -3.43438 -4.32151 0
M  V30 7805 H 730.507 -1.56467 -3.85561 0
M  V30 7806 H 729.383 -1.64575 -5.23647 0
M  V30 7807 H 729.644 -0.112771 -4.41956 0
M  V30 7808 N 728.703 1.26451 -0.940633 0
M  V30 7809 C 729.613 2.30128 -0.455881 0
M  V30 7810 C 730.629 1.67536 0.469867 0
M  V30 7811 O 731.805 1.98344 0.349529 0
M  V30 7812 C 728.87 3.45634 0.271648 0
M  V30 7813 C 727.931 4.23709 -0.690594 0
M  V30 7814 C 727.164 5.337 0.00231047 0
M  V30 7815 O 727.387 5.57215 1.21935 0
M  V30 7816 O 726.321 5.98091 -0.676111 0
M  V30 7817 H 730.147 2.73655 -1.31707 0
M  V30 7818 H 727.732 1.3164 -0.706497 0
M  V30 7819 H 729.614 4.15853 0.681486 0
M  V30 7820 H 728.289 3.04138 1.10824 0
M  V30 7821 H 727.196 3.55974 -1.15037 0
M  V30 7822 H 728.529 4.68953 -1.49478 0
M  V30 7823 N 730.181 0.707592 1.40822 0
M  V30 7824 C 731.592 0.317011 1.83989 0
M  V30 7825 C 731.943 -1.14697 1.59182 0
M  V30 7826 O 731.068 -1.8818 1.06852 0
M  V30 7827 C 731.663 0.568593 3.33995 0
M  V30 7828 C 730.222 0.231804 3.75686 0
M  V30 7829 C 729.369 0.844933 2.64114 0
M  V30 7830 H 732.32 0.907349 1.30203 0
M  V30 7831 H 732.341 -0.168798 3.80125 0
M  V30 7832 H 731.853 1.63417 3.52018 0
M  V30 7833 H 729.954 -0.82903 3.6326 0
M  V30 7834 H 730.067 0.695219 4.74029 0
M  V30 7835 H 728.431 0.273588 2.53226 0
M  V30 7836 H 729.214 1.91462 2.84951 0
M  V30 7837 N 731.66 -1.50943 0.453197 0
M  V30 7838 C 732.908 -2.01813 -0.107709 0
M  V30 7839 C 733.229 -1.33841 -1.41816 0
M  V30 7840 O 732.499 -0.477973 -1.8998 0
M  V30 7841 H 731.079 -0.745773 -0.0427948 0
M  V30 7842 H 733.741 -1.8545 0.599531 0
M  V30 7843 H 732.837 -3.10911 -0.27218 0
M  V30 7844 N 733.138 -0.185124 -1.56509 0
M  V30 7845 C 734.368 0.461469 -2.0138 0
M  V30 7846 C 734.776 1.56417 -1.06445 0
M  V30 7847 O 734.119 1.83603 -0.0597515 0
M  V30 7848 C 734.181 1.08731 -3.42663 0
M  V30 7849 C 733.845 0.124581 -4.5683 0
M  V30 7850 C 734.842 -0.662295 -5.15664 0
M  V30 7851 C 732.527 0.0163947 -5.02297 0
M  V30 7852 C 734.521 -1.54442 -6.18406 0
M  V30 7853 C 732.208 -0.869301 -6.04885 0
M  V30 7854 C 733.206 -1.64828 -6.62813 0
M  V30 7855 O 732.894 -2.51915 -7.63409 0
M  V30 7856 H 732.626 0.1212 -0.665046 0
M  V30 7857 H 735.18 -0.288119 -2.03369 0
M  V30 7858 H 733.41 1.8853 -3.37629 0
M  V30 7859 H 735.099 1.63753 -3.71403 0
M  V30 7860 H 735.865 -0.588963 -4.81411 0
M  V30 7861 H 731.744 0.61253 -4.56913 0
M  V30 7862 H 735.288 -2.15289 -6.63548 0
M  V30 7863 H 731.185 -0.943786 -6.38563 0
M  V30 7864 H 731.953 -2.45584 -7.80789 0
M  V30 7865 N 734.616 1.57351 0.0885366 0
M  V30 7866 C 736.027 1.75303 0.642308 0
M  V30 7867 C 736.378 0.808238 1.78779 0
M  V30 7868 O 735.503 -0.01171 2.16397 0
M  V30 7869 C 736.098 3.17885 1.17194 0
M  V30 7870 C 734.657 3.37239 1.67172 0
M  V30 7871 C 733.804 2.7108 0.584045 0
M  V30 7872 H 736.755 1.58103 -0.137567 0
M  V30 7873 H 736.776 3.2112 2.04114 0
M  V30 7874 H 736.288 3.86625 0.338024 0
M  V30 7875 H 734.389 2.73588 2.52943 0
M  V30 7876 H 734.502 4.45594 1.76019 0
M  V30 7877 H 732.866 2.33161 1.02508 0
M  V30 7878 H 733.649 3.42464 -0.239403 0
M  V30 7879 N 736.094 -0.359525 1.53444 0
M  V30 7880 C 737.041 -1.44073 1.8031 0
M  V30 7881 C 738.011 -1.52946 0.647811 0
M  V30 7882 O 739.196 -1.68739 0.890614 0
M  V30 7883 C 736.336 -2.80941 2.00416 0
M  V30 7884 C 735.449 -2.80986 3.28132 0
M  V30 7885 C 734.584 -4.09468 3.38393 0
M  V30 7886 C 733.623 -4.03679 4.60119 0
M  V30 7887 N 732.76 -5.23821 4.675 0
M  V30 7888 H 737.6 -1.20464 2.72566 0
M  V30 7889 H 735.137 -0.583859 1.35017 0
M  V30 7890 H 737.095 -3.60459 2.1006 0
M  V30 7891 H 735.725 -3.02936 1.11489 0
M  V30 7892 H 734.777 -1.93666 3.27411 0
M  V30 7893 H 736.089 -2.72583 4.17732 0
M  V30 7894 H 735.243 -4.97404 3.47382 0
M  V30 7895 H 733.982 -4.20632 2.4682 0
M  V30 7896 H 732.987 -3.14129 4.51224 0
M  V30 7897 H 734.212 -3.94112 5.5304 0
M  V30 7898 H 732.158 -5.35559 3.7883 0
M  V30 7899 H 732.075 -5.17611 5.51013 0
M  V30 7900 H 733.343 -6.13572 4.8078 0
M  V30 7901 N 737.572 -1.44907 -0.619662 0
M  V30 7902 C 738.797 -1.52021 -1.41083 0
M  V30 7903 C 739.222 -0.14976 -1.87503 0
M  V30 7904 O 738.58 0.863303 -1.59426 0
M  V30 7905 C 738.628 -2.49911 -2.59955 0
M  V30 7906 O 737.732 -2.00857 -3.60181 0
M  V30 7907 H 737.073 -0.512912 -0.421684 0
M  V30 7908 H 739.603 -1.90149 -0.755282 0
M  V30 7909 H 739.613 -2.68323 -3.07354 0
M  V30 7910 H 738.288 -3.4945 -2.25516 0
M  V30 7911 H 736.865 -1.92265 -3.19513 0
M  V30 7912 N 739.05 0.861098 -1.31996 0
M  V30 7913 C 740.013 1.95068 -1.20338 0
M  V30 7914 C 741.013 1.60289 -0.128114 0
M  V30 7915 O 742.203 1.70048 -0.378044 0
M  V30 7916 C 739.335 3.30153 -0.849205 0
M  V30 7917 H 740.528 2.06833 -2.17164 0
M  V30 7918 H 738.081 1.05049 -1.15734 0
M  V30 7919 H 738.816 3.24087 0.117508 0
M  V30 7920 H 738.601 3.56771 -1.62655 0
M  V30 7921 H 740.091 4.10025 -0.791782 0
M  V30 7922 N 740.528 1.15101 1.07655 0
M  V30 7923 C 741.458 0.867864 2.16773 0
M  V30 7924 C 742.439 -0.180283 1.69142 0
M  V30 7925 O 743.624 -0.0353152 1.94168 0
M  V30 7926 C 740.754 0.35299 3.45501 0
M  V30 7927 C 739.708 1.33746 4.06566 0
M  V30 7928 C 739.034 0.681562 5.30338 0
M  V30 7929 C 740.334 2.7024 4.46954 0
M  V30 7930 H 742.028 1.78034 2.40716 0
M  V30 7931 H 739.574 0.857435 1.15689 0
M  V30 7932 H 741.527 0.142465 4.21159 0
M  V30 7933 H 740.251 -0.594945 3.21135 0
M  V30 7934 H 738.91 1.53429 3.32949 0
M  V30 7935 H 738.558 -0.272422 5.02262 0
M  V30 7936 H 738.258 1.33853 5.72151 0
M  V30 7937 H 739.782 0.48074 6.08705 0
M  V30 7938 H 741.196 2.5442 5.13754 0
M  V30 7939 H 739.593 3.32282 4.99709 0
M  V30 7940 H 740.663 3.26537 3.58471 0
M  V30 7941 N 742.006 -1.2595 0.947325 0
M  V30 7942 C 743.422 -1.45737 0.650597 0
M  V30 7943 C 743.622 -1.85189 -0.794188 0
M  V30 7944 O 742.678 -1.97738 -1.57022 0
M  V30 7945 C 743.991 -2.53505 1.61728 0
M  V30 7946 C 745.539 -2.67351 1.62765 0
M  V30 7947 C 746.014 -3.78296 2.58179 0
M  V30 7948 N 747.505 -3.85696 2.56501 0
M  V30 7949 C 748.24 -4.71012 3.2701 0
M  V30 7950 N 747.736 -5.60669 4.06966 0
M  V30 7951 N 749.529 -4.64912 3.15932 0
M  V30 7952 H 741.68 -0.986327 1.8811 0
M  V30 7953 H 743.943 -0.494639 0.808725 0
M  V30 7954 H 743.649 -2.31357 2.6489 0
M  V30 7955 H 743.523 -3.51281 1.3741 0
M  V30 7956 H 745.91 -2.88869 0.603241 0
M  V30 7957 H 745.991 -1.69998 1.91139 0
M  V30 7958 H 745.635 -3.5753 3.60742 0
M  V30 7959 H 745.565 -4.75117 2.27093 0
M  V30 7960 H 748.056 -3.21601 1.98447 0
M  V30 7961 H 748.369 -6.22677 4.57704 0
M  V30 7962 H 746.714 -5.60402 4.11066 0
M  V30 7963 H 749.905 -3.93874 2.52945 0
M  V30 7964 H 750.078 -5.3118 3.71149 0
M  V30 7965 N 743.484 -0.715051 -1.40445 0
M  V30 7966 C 744.761 -0.181503 -1.94756 0
M  V30 7967 C 745.141 1.31268 -1.65324 0
M  V30 7968 O 744.489 2.0686 -0.970631 0
M  V30 7969 C 744.699 -0.493663 -3.45491 0
M  V30 7970 C 746.047 -0.432032 -4.22396 0
M  V30 7971 O 747.071 -0.429692 -3.53599 0
M  V30 7972 O 745.93 -0.409091 -5.44967 0
M  V30 7973 H 743.024 -0.0263989 -0.826579 0
M  V30 7974 H 745.57 -0.792546 -1.50056 0
M  V30 7975 H 744.342 -1.52713 -3.6027 0
M  V30 7976 H 743.965 0.14737 -3.97327 0
M  V30 7977 N 744.962 1.50701 -0.461195 0
M  V30 7978 C 746.208 2.03203 0.0895017 0
M  V30 7979 C 746.563 1.33768 1.38289 0
M  V30 7980 O 745.856 0.451304 1.86209 0
M  V30 7981 C 746.05 3.55788 0.33908 0
M  V30 7982 C 745.879 4.40009 -0.928571 0
M  V30 7983 C 744.649 4.83475 -1.46903 0
M  V30 7984 C 746.847 4.80972 -1.82129 0
M  V30 7985 N 744.829 5.51985 -2.68673 0
M  V30 7986 C 746.2 5.48792 -2.88491 0
M  V30 7987 C 748.255 4.62937 -1.83285 0
M  V30 7988 C 746.958 6.00489 -3.95987 0
M  V30 7989 C 748.984 5.15568 -2.89731 0
M  V30 7990 C 748.346 5.83355 -3.94812 0
M  V30 7991 H 744.445 0.781968 -0.00702462 0
M  V30 7992 H 747.029 1.84321 -0.627195 0
M  V30 7993 H 745.2 3.74636 1.02481 0
M  V30 7994 H 746.932 3.94944 0.883242 0
M  V30 7995 H 743.687 4.62495 -1.01959 0
M  V30 7996 H 744.111 5.90854 -3.30486 0
M  V30 7997 H 748.753 4.0997 -1.03366 0
M  V30 7998 H 746.471 6.52499 -4.7673 0
M  V30 7999 H 750.057 5.0345 -2.91597 0
M  V30 8000 H 748.937 6.23347 -4.75824 0
M  V30 8001 N 746.441 0.193421 1.56409 0
M  V30 8002 C 747.374 -0.767384 2.1491 0
M  V30 8003 C 748.352 -1.21075 1.08534 0
M  V30 8004 O 749.536 -1.29856 1.36637 0
M  V30 8005 C 746.663 -2.03615 2.70663 0
M  V30 8006 C 745.709 -1.73505 3.89613 0
M  V30 8007 S 746.542 -0.884645 5.28142 0
M  V30 8008 C 747.698 -2.1636 5.87315 0
M  V30 8009 H 747.931 -0.270053 2.96071 0
M  V30 8010 H 745.464 -0.0215546 1.54385 0
M  V30 8011 H 747.422 -2.7648 3.03429 0
M  V30 8012 H 746.083 -2.50461 1.89547 0
M  V30 8013 H 745.276 -2.67701 4.27027 0
M  V30 8014 H 744.878 -1.08723 3.57848 0
M  V30 8015 H 747.17 -3.11629 6.01576 0
M  V30 8016 H 748.113 -1.8338 6.83943 0
M  V30 8017 H 748.521 -2.29129 5.15907 0
M  V30 8018 N 747.919 -1.57396 -0.0801906 0
M  V30 8019 C 749.167 -1.86467 -0.779384 0
M  V30 8020 C 749.488 -0.784243 -1.78535 0
M  V30 8021 O 748.758 0.187986 -1.94996 0
M  V30 8022 H 747.338 -0.68806 -0.29083 0
M  V30 8023 H 750 -1.94813 -0.0582749 0
M  V30 8024 H 749.096 -2.83701 -1.30078 0
M  V30 8025 N 749.397 0.351382 -1.53633 0
M  V30 8026 C 750.637 1.10102 -1.72212 0
M  V30 8027 C 751.001 1.86128 -0.471198 0
M  V30 8028 O 752.202 2.63445 -0.533887 0
M  V30 8029 C 750.473 2.02348 -2.94602 0
M  V30 8030 S 752.032 2.84641 -3.33954 0
M  V30 8031 H 748.85 0.372145 -0.60583 0
M  V30 8032 H 751.452 0.38044 -1.91763 0
M  V30 8033 H 750.156 1.45283 -3.83824 0
M  V30 8034 H 749.687 2.78856 -2.77493 0
M  V30 8035 H 751.702 4.04724 -2.87076 0
M  V30 8036 N 750.875 1.45233 0.611969 0
M  V30 8037 C 752.286 1.4354 1.19387 0
M  V30 8038 C 752.637 0.160713 1.95541 0
M  V30 8039 O 751.762 -0.737954 2.03429 0
M  V30 8040 C 752.357 2.60045 2.17169 0
M  V30 8041 C 750.916 2.61486 2.70744 0
M  V30 8042 C 750.063 2.35708 1.46072 0
M  V30 8043 H 753.014 1.53536 0.401529 0
M  V30 8044 H 753.035 2.33893 3.00124 0
M  V30 8045 H 752.547 3.52803 1.61714 0
M  V30 8046 H 750.648 1.72721 3.30149 0
M  V30 8047 H 750.761 3.60572 3.15476 0
M  V30 8048 H 749.125 1.85178 1.74875 0
M  V30 8049 H 749.908 3.30606 0.924922 0
M  V30 8050 N 752.353 -0.854086 1.3245 0
M  V30 8051 C 753.578 -1.64597 1.26185 0
M  V30 8052 C 754.003 -1.87357 -0.167074 0
M  V30 8053 O 753.361 -1.42675 -1.11864 0
M  V30 8054 C 753.409 -2.98213 2.02734 0
M  V30 8055 O 752.513 -3.88784 1.37554 0
M  V30 8056 H 751.854 -0.50179 0.434859 0
M  V30 8057 H 754.384 -1.06372 1.74775 0
M  V30 8058 H 754.394 -3.4803 2.1293 0
M  V30 8059 H 753.069 -2.80969 3.06642 0
M  V30 8060 H 751.646 -3.4725 1.3591 0
M  V30 8061 N 753.831 -1.1567 -1.07043 0
M  V30 8062 C 755.079 -0.931673 -1.79344 0
M  V30 8063 C 755.4 0.542421 -1.87304 0
M  V30 8064 O 754.67 1.39418 -1.37621 0
M  V30 8065 H 753.25 -0.34171 -0.664262 0
M  V30 8066 H 755.912 -1.45795 -1.29344 0
M  V30 8067 H 755.008 -1.34379 -2.81689 0
M  V30 8068 N 755.309 1.25446 -0.953992 0
M  V30 8069 C 756.557 1.92762 -0.607227 0
M  V30 8070 C 756.878 1.7509 0.858399 0
M  V30 8071 O 756.148 1.11416 1.61132 0
M  V30 8072 H 754.728 0.713377 -0.221591 0
M  V30 8073 H 757.39 1.52625 -1.21209 0
M  V30 8074 H 756.486 3.00695 -0.835998 0
M  V30 8075 N 756.787 0.722489 1.40064 0
M  V30 8076 C 758.203 0.396758 1.5459 0
M  V30 8077 C 758.403 -1.09375 1.69232 0
M  V30 8078 O 757.459 -1.87984 1.68578 0
M  V30 8079 C 758.772 1.16885 2.77053 0
M  V30 8080 C 760.32 1.15583 2.90877 0
M  V30 8081 C 760.795 1.91023 4.16262 0
M  V30 8082 N 762.286 1.88126 4.23276 0
M  V30 8083 C 763.021 2.43315 5.19216 0
M  V30 8084 N 762.517 3.07089 6.21022 0
M  V30 8085 N 764.31 2.33418 5.11344 0
M  V30 8086 H 756.461 1.68887 1.28806 0
M  V30 8087 H 758.724 0.714231 0.62336 0
M  V30 8088 H 758.43 2.22301 2.72534 0
M  V30 8089 H 758.304 0.765011 3.69361 0
M  V30 8090 H 760.691 0.10984 2.94896 0
M  V30 8091 H 760.772 1.59895 1.99668 0
M  V30 8092 H 760.416 2.95616 4.13006 0
M  V30 8093 H 760.346 1.44126 5.06493 0
M  V30 8094 H 762.837 1.41654 3.50346 0
M  V30 8095 H 763.15 3.467 6.90666 0
M  V30 8096 H 761.495 3.11175 6.21446 0
M  V30 8097 H 764.686 1.83248 4.30741 0
M  V30 8098 H 764.859 2.7673 5.85939 0
M  V30 8099 N 758.265 -1.50454 0.469181 0
M  V30 8100 C 759.676 -1.86695 0.0136034 0
M  V30 8101 C 760.027 -1.38413 -1.39055 0
M  V30 8102 O 759.152 -0.748294 -2.03051 0
M  V30 8103 C 759.747 -3.38795 0.0179098 0
M  V30 8104 C 758.306 -3.74455 -0.382191 0
M  V30 8105 C 757.453 -2.74338 0.404207 0
M  V30 8106 H 760.404 -1.43225 0.683547 0
M  V30 8107 H 760.425 -3.72321 -0.78468 0
M  V30 8108 H 759.937 -3.73906 1.04 0
M  V30 8109 H 758.038 -3.44944 -1.4087 0
M  V30 8110 H 758.151 -4.79025 -0.084862 0
M  V30 8111 H 756.515 -2.54305 -0.141829 0
M  V30 8112 H 757.298 -3.12293 1.42577 0
M  V30 8113 N 759.743 -0.201713 -1.56304 0
M  V30 8114 C 761.02 0.483273 -1.89536 0
M  V30 8115 C 761.4 1.79176 -1.11621 0
M  V30 8116 O 760.748 2.27445 -0.219339 0
M  V30 8117 C 760.958 0.695604 -3.41998 0
M  V30 8118 C 762.306 1.012 -4.12364 0
M  V30 8119 O 763.33 0.783094 -3.47485 0
M  V30 8120 O 762.189 1.44534 -5.27041 0
M  V30 8121 H 759.283 0.252801 -0.787414 0
M  V30 8122 H 761.829 -0.24242 -1.6796 0
M  V30 8123 H 760.601 -0.228165 -3.90634 0
M  V30 8124 H 760.224 1.47351 -3.69288 0
M  V30 8125 N 761.222 1.57436 0.0718424 0
M  V30 8126 C 762.132 2.07039 1.10326 0
M  V30 8127 C 763.148 0.999918 1.424 0
M  V30 8128 O 764.324 1.31462 1.52577 0
M  V30 8129 C 761.389 2.50439 2.39752 0
M  V30 8130 C 760.45 3.71784 2.14651 0
M  V30 8131 C 759.683 4.13104 3.37906 0
M  V30 8132 O 759.906 3.54298 4.47023 0
M  V30 8133 O 758.84 5.05894 3.26121 0
M  V30 8134 H 762.666 2.95239 0.711872 0
M  V30 8135 H 760.251 1.46638 0.28597 0
M  V30 8136 H 762.133 2.78876 3.15921 0
M  V30 8137 H 760.808 1.65368 2.78271 0
M  V30 8138 H 759.715 3.48431 1.36187 0
M  V30 8139 H 761.048 4.57707 1.81012 0
M  V30 8140 N 762.7 -0.34323 1.53817 0
M  V30 8141 C 763.948 -1.0813 1.70741 0
M  V30 8142 C 764.269 -1.89165 0.473461 0
M  V30 8143 O 763.539 -1.89075 -0.512605 0
M  V30 8144 H 762.119 -0.40219 0.629486 0
M  V30 8145 H 764.781 -0.384426 1.91071 0
M  V30 8146 H 763.877 -1.7585 2.57843 0
M  V30 8147 N 764.178 -1.45556 -0.604258 0
M  V30 8148 C 765.406 -1.53278 -1.38973 0
M  V30 8149 C 765.821 -0.166509 -1.88064 0
M  V30 8150 O 765.178 0.832519 -1.62405 0
M  V30 8151 C 765.229 -2.51992 -2.59195 0
M  V30 8152 O 764.95 -3.8331 -2.12143 0
M  V30 8153 C 766.451 -2.69445 -3.52015 0
M  V30 8154 H 763.671 -0.519003 -0.425297 0
M  V30 8155 H 766.215 -1.90773 -0.736621 0
M  V30 8156 H 764.37 -2.17561 -3.2054 0
M  V30 8157 H 764.784 -4.3685 -2.90279 0
M  V30 8158 H 766.258 -3.42485 -4.32907 0
M  V30 8159 H 766.735 -1.75596 -4.0257 0
M  V30 8160 H 767.341 -3.04886 -2.9652 0
M  V30 8161 N 765.656 0.84705 -1.32902 0
M  V30 8162 C 766.566 1.98845 -1.2449 0
M  V30 8163 C 767.582 1.7329 -0.15702 0
M  V30 8164 O 768.758 1.978 -0.379104 0
M  V30 8165 C 765.823 3.32679 -0.975985 0
M  V30 8166 C 764.884 3.71405 -2.15306 0
M  V30 8167 C 764.117 4.98853 -1.89688 0
M  V30 8168 O 764.34 5.64134 -0.843168 0
M  V30 8169 O 763.274 5.34889 -2.76002 0
M  V30 8170 H 767.1 2.0888 -2.2046 0
M  V30 8171 H 764.685 0.978852 -1.12867 0
M  V30 8172 H 766.567 4.12885 -0.842826 0
M  V30 8173 H 765.242 3.23667 -0.0464954 0
M  V30 8174 H 764.149 2.91743 -2.34172 0
M  V30 8175 H 765.482 3.85073 -3.06561 0
M  V30 8176 N 767.134 1.16236 1.06428 0
M  V30 8177 C 768.044 0.881976 2.1739 0
M  V30 8178 C 769.06 -0.145259 1.73393 0
M  V30 8179 O 770.236 0.0310558 2.01376 0
M  V30 8180 C 767.301 0.385496 3.4455 0
M  V30 8181 C 766.362 1.47779 4.03063 0
M  V30 8182 C 765.595 1.0049 5.24154 0
M  V30 8183 O 765.818 -0.145889 5.70213 0
M  V30 8184 O 764.752 1.79265 5.74585 0
M  V30 8185 H 768.578 1.80983 2.43883 0
M  V30 8186 H 766.163 0.942226 1.15942 0
M  V30 8187 H 768.045 0.115536 4.21242 0
M  V30 8188 H 766.72 -0.514369 3.19587 0
M  V30 8189 H 765.627 1.80147 3.27869 0
M  V30 8190 H 766.96 2.35291 4.32318 0
M  V30 8191 N 768.612 -1.24939 0.960631 0
M  V30 8192 C 769.522 -2.29374 0.492435 0
M  V30 8193 C 770.538 -1.68262 -0.443154 0
M  V30 8194 O 771.714 -1.98875 -0.31793 0
M  V30 8195 C 768.779 -3.46023 -0.216626 0
M  V30 8196 C 767.84 -4.22557 0.757915 0
M  V30 8197 C 767.073 -5.33636 0.0825969 0
M  V30 8198 O 767.296 -5.59084 -1.13054 0
M  V30 8199 O 766.23 -5.96939 0.771177 0
M  V30 8200 H 770.056 -2.71525 1.36044 0
M  V30 8201 H 767.641 -1.30499 0.72735 0
M  V30 8202 H 769.523 -4.16885 -0.615241 0
M  V30 8203 H 768.198 -3.05862 -1.05971 0
M  V30 8204 H 767.105 -3.54099 1.20685 0
M  V30 8205 H 768.438 -4.66516 1.5692 0
M  V30 8206 N 770.09 -0.729906 -1.39679 0
M  V30 8207 C 771.318 -0.285709 -2.04918 0
M  V30 8208 C 771.733 1.07765 -1.55023 0
M  V30 8209 O 771.09 1.67999 -0.712923 0
M  V30 8210 C 771.141 -0.272793 -3.60469 0
M  V30 8211 O 770.862 -1.58233 -4.08527 0
M  V30 8212 C 772.363 0.188199 -4.429 0
M  V30 8213 H 769.583 -0.125758 -0.65911 0
M  V30 8214 H 772.127 -0.992129 -1.78821 0
M  V30 8215 H 770.282 0.384699 -3.85485 0
M  V30 8216 H 770.696 -1.49245 -5.02818 0
M  V30 8217 H 772.17 0.14608 -5.51807 0
M  V30 8218 H 772.647 1.2326 -4.21549 0
M  V30 8219 H 773.253 -0.439541 -4.23023 0
M  V30 8220 N 771.568 1.50203 -0.477153 0
M  V30 8221 C 772.478 2.32421 0.319027 0
M  V30 8222 C 773.494 1.43075 0.990233 0
M  V30 8223 O 774.67 1.76123 0.976873 0
M  V30 8224 C 771.735 3.17909 1.38328 0
M  V30 8225 C 770.796 4.23082 0.728036 0
M  V30 8226 C 770.029 5.04484 1.74158 0
M  V30 8227 O 770.252 4.8705 2.96881 0
M  V30 8228 O 769.186 5.8747 1.31006 0
M  V30 8229 H 773.012 3.01638 -0.353281 0
M  V30 8230 H 770.597 1.47478 -0.238891 0
M  V30 8231 H 772.479 3.70937 1.9996 0
M  V30 8232 H 771.154 2.51413 2.03895 0
M  V30 8233 H 770.061 3.7403 0.07261 0
M  V30 8234 H 771.394 4.92065 0.115216 0
M  V30 8235 N 773.046 0.209999 1.56195 0
M  V30 8236 C 774.292 -0.425442 1.98287 0
M  V30 8237 C 774.625 -1.60232 1.09724 0
M  V30 8238 O 773.9 -1.93902 0.152414 0
M  V30 8239 C 774.183 -0.871189 3.49403 0
M  V30 8240 C 774.036 0.308527 4.48741 0
M  V30 8241 C 775.355 -1.73146 4.04609 0
M  V30 8242 H 772.474 -0.153169 0.720908 0
M  V30 8243 H 775.116 0.303916 1.87554 0
M  V30 8244 H 773.266 -1.49266 3.58681 0
M  V30 8245 H 774.938 0.946487 4.51486 0
M  V30 8246 H 773.181 0.957878 4.23092 0
M  V30 8247 H 773.852 -0.0461143 5.51981 0
M  V30 8248 H 776.328 -1.2072 3.98203 0
M  V30 8249 H 775.204 -2.01228 5.10684 0
M  V30 8250 H 775.465 -2.69083 3.5078 0
M  V30 8251 N 774.524 -1.57472 -0.0634922 0
M  V30 8252 C 775.773 -1.86837 -0.759928 0
M  V30 8253 C 776.086 -0.803823 -1.7832 0
M  V30 8254 O 777.292 -0.985578 -2.52979 0
M  V30 8255 C 775.748 -3.31448 -1.4025 0
M  V30 8256 C 775.356 -4.46052 -0.417368 0
M  V30 8257 C 777.1 -3.70003 -2.08082 0
M  V30 8258 C 775.007 -5.81707 -1.06633 0
M  V30 8259 H 773.937 -0.697009 -0.287567 0
M  V30 8260 H 776.588 -1.83495 -0.0133914 0
M  V30 8261 H 774.97 -3.29427 -2.19759 0
M  V30 8262 H 776.144 -4.5948 0.348503 0
M  V30 8263 H 774.459 -4.16104 0.156955 0
M  V30 8264 H 777.056 -4.68653 -2.57426 0
M  V30 8265 H 777.399 -3.00226 -2.88393 0
M  V30 8266 H 777.932 -3.7405 -1.35394 0
M  V30 8267 H 774.671 -6.54798 -0.303374 0
M  V30 8268 H 774.191 -5.72064 -1.80286 0
M  V30 8269 H 775.87 -6.27317 -1.58376 0
M  V30 8270 N 776.003 0.335068 -1.53997 0
M  V30 8271 C 777.252 1.07182 -1.70865 0
M  V30 8272 C 777.565 1.89541 -0.483078 0
M  V30 8273 O 778.771 2.66219 -0.532879 0
M  V30 8274 C 777.227 1.95497 -3.02174 0
M  V30 8275 C 776.835 1.18304 -4.32097 0
M  V30 8276 C 778.579 2.68978 -3.28407 0
M  V30 8277 C 776.486 2.05699 -5.54474 0
M  V30 8278 H 775.416 0.403857 -0.636722 0
M  V30 8279 H 778.067 0.33076 -1.80494 0
M  V30 8280 H 776.449 2.73456 -2.86423 0
M  V30 8281 H 777.623 0.451969 -4.58578 0
M  V30 8282 H 775.938 0.565556 -4.12541 0
M  V30 8283 H 778.535 3.34651 -4.17029 0
M  V30 8284 H 778.878 3.36 -2.45784 0
M  V30 8285 H 779.411 1.98087 -3.44973 0
M  V30 8286 H 776.15 1.43204 -6.39666 0
M  V30 8287 H 775.67 2.76572 -5.32229 0
M  V30 8288 H 777.349 2.64554 -5.90441 0
M  V30 8289 N 777.481 1.45874 0.596531 0
M  V30 8290 C 778.73 1.49737 1.35135 0
M  V30 8291 C 779.043 0.147755 1.95041 0
M  V30 8292 O 780.249 0.0640984 2.71424 0
M  V30 8293 C 778.705 2.6378 2.44843 0
M  V30 8294 C 778.313 4.05102 1.91301 0
M  V30 8295 C 780.057 2.769 3.21755 0
M  V30 8296 C 777.964 5.10508 2.98557 0
M  V30 8297 H 776.894 0.557219 0.507959 0
M  V30 8298 H 779.545 1.72046 0.638147 0
M  V30 8299 H 777.927 2.34774 3.189 0
M  V30 8300 H 779.101 4.43836 1.2388 0
M  V30 8301 H 777.416 3.96528 1.271 0
M  V30 8302 H 780.013 3.52819 4.01775 0
M  V30 8303 H 780.356 1.83924 3.73467 0
M  V30 8304 H 780.889 3.05485 2.54802 0
M  V30 8305 H 777.628 6.0523 2.51749 0
M  V30 8306 H 777.148 4.76332 3.6451 0
M  V30 8307 H 778.827 5.35745 3.62748 0
M  V30 8308 N 778.959 -0.83999 1.33349 0
M  V30 8309 C 779.869 -1.98182 1.25543 0
M  V30 8310 C 780.885 -1.73204 0.166208 0
M  V30 8311 O 782.061 -1.97596 0.389589 0
M  V30 8312 C 779.126 -3.32157 0.993614 0
M  V30 8313 C 778.187 -3.70258 2.17273 0
M  V30 8314 C 777.42 -4.9784 1.92331 0
M  V30 8315 O 777.643 -5.63679 0.873074 0
M  V30 8316 O 776.577 -5.33418 2.78835 0
M  V30 8317 H 780.403 -2.07708 2.21565 0
M  V30 8318 H 777.988 -0.972852 1.13384 0
M  V30 8319 H 779.87 -4.12433 0.864711 0
M  V30 8320 H 778.545 -3.23637 0.0636596 0
M  V30 8321 H 777.452 -2.90497 2.35716 0
M  V30 8322 H 778.785 -3.83442 3.08598 0
M  V30 8323 N 780.437 -1.16799 -1.0581 0
M  V30 8324 C 781.683 -0.953935 -1.78963 0
M  V30 8325 C 782.016 0.516638 -1.87202 0
M  V30 8326 O 781.291 1.38338 -1.36721 0
M  V30 8327 C 781.574 -1.58808 -3.23191 0
M  V30 8328 C 781.427 -3.13032 -3.23003 0
M  V30 8329 C 782.746 -1.2868 -4.20867 0
M  V30 8330 H 779.865 -0.347972 -0.64968 0
M  V30 8331 H 782.507 -1.44204 -1.23715 0
M  V30 8332 H 780.657 -1.17303 -3.70368 0
M  V30 8333 H 782.329 -3.63553 -2.83949 0
M  V30 8334 H 780.572 -3.46108 -2.61518 0
M  V30 8335 H 781.243 -3.52527 -4.24769 0
M  V30 8336 H 783.719 -1.6461 -3.82155 0
M  V30 8337 H 782.595 -1.75645 -5.20038 0
M  V30 8338 H 782.856 -0.206491 -4.41618 0
M  V30 8339 N 781.915 1.24427 -0.967243 0
M  V30 8340 C 783.192 1.87831 -0.545776 0
M  V30 8341 C 783.572 1.87126 0.977099 0
M  V30 8342 O 782.92 1.34357 1.84826 0
M  V30 8343 C 783.13 3.29967 -1.13679 0
M  V30 8344 C 784.478 4.06654 -1.22139 0
M  V30 8345 O 785.502 3.39136 -1.08926 0
M  V30 8346 O 784.361 5.27455 -1.43017 0
M  V30 8347 H 781.455 0.806745 -0.181912 0
M  V30 8348 H 784.001 1.32403 -1.06148 0
M  V30 8349 H 782.773 3.24977 -2.17958 0
M  V30 8350 H 782.396 3.92969 -0.605093 0
M  V30 8351 N 783.393 0.737304 1.3929 0
M  V30 8352 C 784.303 0.100464 2.34385 0
M  V30 8353 C 785.319 -0.719282 1.58437 0
M  V30 8354 O 786.495 -0.647216 1.90717 0
M  V30 8355 C 783.56 -0.794325 3.37478 0
M  V30 8356 C 782.621 0.0379345 4.29283 0
M  V30 8357 C 781.854 -0.814241 5.27452 0
M  V30 8358 O 782.077 -2.05288 5.32177 0
M  V30 8359 O 781.011 -0.241679 6.01415 0
M  V30 8360 H 784.837 0.885407 2.90507 0
M  V30 8361 H 782.422 0.497999 1.40856 0
M  V30 8362 H 784.304 -1.30622 4.00644 0
M  V30 8363 H 782.979 -1.55804 2.83737 0
M  V30 8364 H 781.886 0.595405 3.69331 0
M  V30 8365 H 783.219 0.763926 4.86236 0
M  V30 8366 N 784.871 -1.49948 0.485112 0
M  V30 8367 C 785.781 -2.32587 -0.306697 0
M  V30 8368 C 786.797 -1.43598 -0.982632 0
M  V30 8369 O 787.973 -1.76638 -0.967519 0
M  V30 8370 C 785.038 -3.18638 -1.3664 0
M  V30 8371 C 784.099 -4.23462 -0.705589 0
M  V30 8372 C 783.332 -5.05401 -1.7148 0
M  V30 8373 O 783.555 -4.88618 -2.94293 0
M  V30 8374 O 782.489 -5.88157 -1.27889 0
M  V30 8375 H 786.315 -3.01447 0.369272 0
M  V30 8376 H 783.9 -1.47349 0.246709 0
M  V30 8377 H 785.782 -3.71992 -1.9799 0
M  V30 8378 H 784.457 -2.52491 -2.02559 0
M  V30 8379 H 783.364 -3.74063 -0.0527733 0
M  V30 8380 H 784.697 -4.92119 -0.0891187 0
M  V30 8381 N 786.349 -0.21828 -1.56081 0
M  V30 8382 C 787.597 0.413488 -1.97825 0
M  V30 8383 C 787.918 1.60527 -1.10707 0
M  V30 8384 O 787.188 1.9504 -0.183378 0
M  V30 8385 H 785.768 0.155757 -0.730581 0
M  V30 8386 H 788.43 -0.310413 -1.92412 0
M  V30 8387 H 787.526 0.742024 -3.03151 0
M  V30 8388 N 787.827 1.57504 0.0551401 0
M  V30 8389 C 789.075 1.87684 0.74962 0
M  V30 8390 C 789.396 0.812547 1.77264 0
M  V30 8391 O 788.666 -0.15694 1.9527 0
M  V30 8392 H 787.246 0.6926 0.279846 0
M  V30 8393 H 789.908 1.94881 0.0272745 0
M  V30 8394 H 789.004 2.85734 1.25548 0
M  V30 8395 N 789.305 -0.326896 1.54172 0
M  V30 8396 C 790.553 -1.06313 1.71878 0
M  V30 8397 C 790.874 -1.88652 0.493498 0
M  V30 8398 O 790.144 -1.89608 -0.492522 0
M  V30 8399 H 788.724 -0.39549 0.633716 0
M  V30 8400 H 791.386 -0.364139 1.91468 0
M  V30 8401 H 790.482 -1.73105 2.59694 0
M  V30 8402 N 790.784 -1.46188 -0.588786 0
M  V30 8403 C 791.747 -1.55882 -1.68029 0
M  V30 8404 C 792.747 -0.436515 -1.54762 0
M  V30 8405 O 793.937 -0.700626 -1.59489 0
M  V30 8406 C 791.069 -1.47332 -3.07418 0
M  V30 8407 H 792.262 -2.5315 -1.60795 0
M  V30 8408 H 789.815 -1.33908 -0.806116 0
M  V30 8409 H 790.55 -0.513193 -3.20214 0
M  V30 8410 H 790.335 -2.28753 -3.18456 0
M  V30 8411 H 791.825 -1.57187 -3.86887 0
M  V30 8412 N 792.262 0.832906 -1.33792 0
M  V30 8413 C 793.508 1.59089 -1.25772 0
M  V30 8414 C 793.841 1.93414 0.174601 0
M  V30 8415 O 793.116 1.59195 1.11746 0
M  V30 8416 C 793.399 2.89699 -2.13885 0
M  V30 8417 C 793.252 2.62017 -3.65605 0
M  V30 8418 C 794.571 3.91182 -2.01654 0
M  V30 8419 H 791.69 0.577232 -0.458227 0
M  V30 8420 H 794.332 0.960227 -1.6395 0
M  V30 8421 H 792.482 3.4352 -1.81456 0
M  V30 8422 H 794.154 2.14582 -4.08353 0
M  V30 8423 H 792.397 1.95621 -3.87189 0
M  V30 8424 H 793.068 3.55112 -4.2261 0
M  V30 8425 H 795.544 3.46684 -2.30107 0
M  V30 8426 H 794.42 4.80391 -2.65548 0
M  V30 8427 H 794.681 4.30861 -0.990536 0
M  V30 8428 N 793.74 1.17359 1.05189 0
M  V30 8429 C 794.965 0.98709 1.82404 0
M  V30 8430 C 795.39 -0.459848 1.82392 0
M  V30 8431 O 794.748 -1.32924 1.23292 0
M  V30 8432 C 794.796 1.53276 3.26403 0
M  V30 8433 O 793.9 0.746541 4.05587 0
M  V30 8434 H 793.241 0.35047 0.563974 0
M  V30 8435 H 795.771 1.55856 1.32552 0
M  V30 8436 H 795.781 1.55504 3.77203 0
M  V30 8437 H 794.456 2.58603 3.25726 0
M  V30 8438 H 793.033 0.795671 3.64312 0
M  V30 8439 N 795.218 -1.23913 0.973828 0
M  V30 8440 C 796.181 -2.23367 0.51378 0
M  V30 8441 C 797.181 -1.55923 -0.39302 0
M  V30 8442 O 798.371 -1.73187 -0.187626 0
M  V30 8443 C 795.503 -3.39944 -0.255152 0
M  V30 8444 H 796.696 -2.65581 1.39307 0
M  V30 8445 H 794.249 -1.36632 0.759039 0
M  V30 8446 H 794.984 -3.03177 -1.15127 0
M  V30 8447 H 794.769 -3.90098 0.395673 0
M  V30 8448 H 796.259 -4.13749 -0.565842 0
M  V30 8449 N 796.696 -0.74468 -1.38897 0
M  V30 8450 C 797.659 -0.11945 -2.28889 0
M  V30 8451 C 798.659 0.656942 -1.46768 0
M  V30 8452 O 799.849 0.484525 -1.67326 0
M  V30 8453 C 796.981 0.839635 -3.30398 0
M  V30 8454 H 798.174 -0.912414 -2.85683 0
M  V30 8455 H 795.727 -0.511119 -1.47707 0
M  V30 8456 H 796.462 1.6586 -2.78677 0
M  V30 8457 H 796.247 0.285432 -3.9106 0
M  V30 8458 H 797.737 1.27337 -3.97712 0
M  V30 8459 N 798.174 1.49689 -0.493057 0
M  V30 8460 C 799.137 2.27502 0.278485 0
M  V30 8461 C 800.137 1.33184 0.901037 0
M  V30 8462 O 801.327 1.56415 0.766801 0
M  V30 8463 C 798.459 3.10881 1.39878 0
M  V30 8464 H 799.652 2.97163 -0.404219 0
M  V30 8465 H 797.205 1.54324 -0.247774 0
M  V30 8466 H 797.94 2.45767 2.11587 0
M  V30 8467 H 797.725 3.80219 0.957924 0
M  V30 8468 H 799.215 3.69673 1.94247 0
M  V30 8469 N 799.652 0.226554 1.55963 0
M  V30 8470 C 800.898 -0.404387 1.98727 0
M  V30 8471 C 801.231 -1.59059 1.11418 0
M  V30 8472 O 800.506 -1.93729 0.172971 0
M  V30 8473 C 800.789 -0.834081 3.50307 0
M  V30 8474 C 800.642 0.356104 4.48388 0
M  V30 8475 C 801.961 -1.68845 4.06423 0
M  V30 8476 H 799.08 -0.145515 0.722492 0
M  V30 8477 H 801.722 0.323791 1.87221 0
M  V30 8478 H 799.872 -1.45454 3.60244 0
M  V30 8479 H 801.544 0.99432 4.50456 0
M  V30 8480 H 799.787 1.0027 4.22053 0
M  V30 8481 H 800.458 0.0124333 5.51999 0
M  V30 8482 H 802.934 -1.16489 3.99461 0
M  V30 8483 H 801.81 -1.958 5.1279 0
M  V30 8484 H 802.071 -2.65347 3.53615 0
M  V30 8485 N 801.13 -1.57531 -0.0467866 0
M  V30 8486 C 802.376 -1.8873 -0.742218 0
M  V30 8487 C 802.709 -0.822084 -1.75941 0
M  V30 8488 O 801.984 0.164922 -1.938 0
M  V30 8489 C 802.267 -3.30586 -1.42776 0
M  V30 8490 C 802.12 -4.47785 -0.425285 0
M  V30 8491 C 803.439 -3.71068 -2.36636 0
M  V30 8492 H 800.558 -0.686406 -0.268359 0
M  V30 8493 H 803.2 -1.89999 -0.00511341 0
M  V30 8494 H 801.35 -3.29634 -2.05605 0
M  V30 8495 H 803.022 -4.60867 0.199721 0
M  V30 8496 H 801.265 -4.33037 0.25713 0
M  V30 8497 H 801.936 -5.43884 -0.943086 0
M  V30 8498 H 804.412 -3.73273 -1.83866 0
M  V30 8499 H 803.288 -4.71165 -2.81593 0
M  V30 8500 H 803.549 -3.02355 -3.22542 0
M  V30 8501 N 802.608 0.318715 -1.54344 0
M  V30 8502 C 803.538 1.39751 -1.87061 0
M  V30 8503 C 804.519 1.53741 -0.727848 0
M  V30 8504 O 805.704 1.67541 -0.982016 0
M  V30 8505 C 802.834 2.76446 -2.10226 0
M  V30 8506 C 801.788 2.77239 -3.26071 0
M  V30 8507 C 801.114 4.17056 -3.34617 0
M  V30 8508 C 802.414 2.40555 -4.63606 0
M  V30 8509 H 804.108 1.12619 -2.77412 0
M  V30 8510 H 801.654 0.540318 -1.33479 0
M  V30 8511 H 803.607 3.51985 -2.31699 0
M  V30 8512 H 802.331 3.05066 -1.16629 0
M  V30 8513 H 800.99 2.04155 -3.04493 0
M  V30 8514 H 800.638 4.42824 -2.3857 0
M  V30 8515 H 800.338 4.18492 -4.12478 0
M  V30 8516 H 801.862 4.94401 -3.5833 0
M  V30 8517 H 803.276 3.05808 -4.84927 0
M  V30 8518 H 801.673 2.53234 -5.44052 0
M  V30 8519 H 802.743 1.35698 -4.65526 0
M  V30 8520 N 804.086 1.46499 0.581025 0
M  V30 8521 C 805.497 1.4604 1.16315 0
M  V30 8522 C 805.848 0.202154 1.95156 0
M  V30 8523 O 804.973 -0.694638 2.04948 0
M  V30 8524 C 805.568 2.64593 2.11604 0
M  V30 8525 C 804.127 2.6717 2.65136 0
M  V30 8526 C 803.274 2.38753 1.4104 0
M  V30 8527 H 806.225 1.54354 0.368871 0
M  V30 8528 H 806.246 2.40207 2.95095 0
M  V30 8529 H 805.758 3.56154 1.54194 0
M  V30 8530 H 803.859 1.79685 3.26411 0
M  V30 8531 H 803.972 3.67182 3.07757 0
M  V30 8532 H 802.336 1.88845 1.70908 0
M  V30 8533 H 803.119 3.32493 0.854588 0
M  V30 8534 N 805.565 -0.825799 1.34232 0
M  V30 8535 C 806.811 -1.58419 1.26614 0
M  V30 8536 C 807.144 -1.93503 -0.164341 0
M  V30 8537 O 806.419 -1.59785 -1.109 0
M  V30 8538 C 806.702 -2.8856 2.15418 0
M  V30 8539 C 806.555 -2.60075 3.66989 0
M  V30 8540 C 807.874 -3.90107 2.03726 0
M  V30 8541 H 804.993 -0.574794 0.461282 0
M  V30 8542 H 807.635 -0.951519 1.64457 0
M  V30 8543 H 805.785 -3.42553 1.83275 0
M  V30 8544 H 807.457 -2.12414 4.09485 0
M  V30 8545 H 805.7 -1.93565 3.88221 0
M  V30 8546 H 806.371 -3.52866 4.24488 0
M  V30 8547 H 808.847 -3.45459 2.31942 0
M  V30 8548 H 807.723 -4.78976 2.68092 0
M  V30 8549 H 807.984 -4.30329 1.01337 0
M  V30 8550 N 807.043 -1.17915 -1.04565 0
M  V30 8551 C 807.973 -0.925033 -2.14395 0
M  V30 8552 C 808.954 0.135375 -1.6956 0
M  V30 8553 O 810.139 -0.0161774 -1.94193 0
M  V30 8554 C 807.269 -0.444469 -3.44444 0
M  V30 8555 C 806.223 -1.44478 -4.02877 0
M  V30 8556 C 805.549 -0.821933 -5.28345 0
M  V30 8557 C 806.849 -2.81995 -4.39632 0
M  V30 8558 H 808.543 -1.84354 -2.35911 0
M  V30 8559 H 806.089 -0.887806 -1.13375 0
M  V30 8560 H 808.042 -0.254078 -4.20633 0
M  V30 8561 H 806.766 0.509592 -3.226 0
M  V30 8562 H 805.425 -1.62203 -3.28764 0
M  V30 8563 H 805.073 0.139161 -5.02807 0
M  V30 8564 H 804.773 -1.48976 -5.68401 0
M  V30 8565 H 806.297 -0.641959 -6.07216 0
M  V30 8566 H 807.711 -2.67952 -5.06828 0
M  V30 8567 H 806.108 -3.45414 -4.90723 0
M  V30 8568 H 807.178 -3.35927 -3.49687 0
M  V30 8569 N 808.521 1.23394 -0.980386 0
M  V30 8570 C 809.451 2.2717 -0.540024 0
M  V30 8571 C 810.432 1.64659 0.426787 0
M  V30 8572 O 811.617 1.91543 0.320153 0
M  V30 8573 C 808.747 3.46939 0.15836 0
M  V30 8574 C 807.701 4.21802 -0.725732 0
M  V30 8575 C 807.027 5.34597 0.104866 0
M  V30 8576 C 808.327 4.81802 -2.01654 0
M  V30 8577 H 810.021 2.64257 -1.40743 0
M  V30 8578 H 807.567 1.2703 -0.678193 0
M  V30 8579 H 809.52 4.18683 0.477737 0
M  V30 8580 H 808.244 3.08912 1.06022 0
M  V30 8581 H 806.903 3.51875 -1.02857 0
M  V30 8582 H 806.551 4.92812 1.00726 0
M  V30 8583 H 806.251 5.85607 -0.483557 0
M  V30 8584 H 807.775 6.09163 0.418624 0
M  V30 8585 H 809.189 5.45554 -1.76193 0
M  V30 8586 H 807.586 5.43098 -2.55273 0
M  V30 8587 H 808.656 4.02549 -2.70338 0
M  V30 8588 N 809.999 0.752036 1.385 0
M  V30 8589 C 810.929 0.138718 2.33088 0
M  V30 8590 C 811.91 -0.705318 1.54788 0
M  V30 8591 O 813.095 -0.646821 1.83112 0
M  V30 8592 C 810.225 -0.75641 3.38963 0
M  V30 8593 C 809.179 -0.0152239 4.27997 0
M  V30 8594 C 808.505 -1.0285 5.24715 0
M  V30 8595 C 809.805 1.15226 5.09431 0
M  V30 8596 H 811.499 0.928852 2.84627 0
M  V30 8597 H 809.045 0.448111 1.3685 0
M  V30 8598 H 810.998 -1.19513 4.04097 0
M  V30 8599 H 809.722 -1.57885 2.85902 0
M  V30 8600 H 808.381 0.404061 3.64366 0
M  V30 8601 H 808.029 -1.84496 4.67943 0
M  V30 8602 H 807.729 -0.537238 5.85139 0
M  V30 8603 H 809.253 -1.46657 5.92726 0
M  V30 8604 H 810.667 0.791161 5.67815 0
M  V30 8605 H 809.064 1.57428 5.79082 0
M  V30 8606 H 810.134 1.9659 4.43261 0
M  V30 8607 N 811.477 -1.49425 0.500989 0
M  V30 8608 C 812.407 -2.31971 -0.266775 0
M  V30 8609 C 813.388 -1.40245 -0.962563 0
M  V30 8610 O 814.573 -1.69154 -0.953968 0
M  V30 8611 C 811.703 -3.20757 -1.33163 0
M  V30 8612 C 810.657 -4.21275 -0.75572 0
M  V30 8613 C 809.983 -4.98997 -1.92109 0
M  V30 8614 C 811.283 -5.21686 0.253213 0
M  V30 8615 H 812.977 -2.96408 0.422237 0
M  V30 8616 H 810.523 -1.4254 0.204505 0
M  V30 8617 H 812.476 -3.77315 -1.87646 0
M  V30 8618 H 811.2 -2.54263 -2.04983 0
M  V30 8619 H 809.859 -3.65861 -0.232637 0
M  V30 8620 H 809.507 -4.28951 -2.62698 0
M  V30 8621 H 809.207 -5.67011 -1.54182 0
M  V30 8622 H 810.731 -5.584 -2.47026 0
M  V30 8623 H 812.145 -5.72939 -0.203483 0
M  V30 8624 H 810.542 -5.9759 0.548322 0
M  V30 8625 H 811.612 -4.70596 1.16909 0
M  V30 8626 N 812.955 -0.234822 -1.55841 0
M  V30 8627 C 813.885 0.664217 -2.23854 0
M  V30 8628 C 814.866 1.19076 -1.2147 0
M  V30 8629 O 816.051 1.23232 -1.50091 0
M  V30 8630 C 813.181 1.86666 -2.9287 0
M  V30 8631 C 812.135 1.47341 -4.01839 0
M  V30 8632 C 811.461 2.75571 -4.58219 0
M  V30 8633 C 812.761 0.653479 -5.18196 0
M  V30 8634 H 814.455 0.0971213 -2.99242 0
M  V30 8635 H 812.001 0.0452724 -1.43929 0
M  V30 8636 H 813.954 2.50116 -3.39146 0
M  V30 8637 H 812.678 2.45894 -2.1495 0
M  V30 8638 H 811.337 0.862314 -3.56314 0
M  V30 8639 H 810.985 3.32971 -3.77014 0
M  V30 8640 H 810.685 2.49987 -5.31771 0
M  V30 8641 H 812.209 3.39939 -5.07221 0
M  V30 8642 H 813.623 1.19198 -5.60771 0
M  V30 8643 H 812.02 0.494188 -5.98062 0
M  V30 8644 H 813.09 -0.337004 -4.83728 0
M  V30 8645 N 814.433 1.57553 0.0384317 0
M  V30 8646 C 815.679 1.89121 0.732199 0
M  V30 8647 C 816.012 0.831404 1.75503 0
M  V30 8648 O 815.287 -0.154642 1.93884 0
M  V30 8649 C 815.57 3.31338 1.41021 0
M  V30 8650 C 815.423 4.48004 0.401532 0
M  V30 8651 C 816.742 3.72318 2.34665 0
M  V30 8652 H 813.861 0.687819 0.264715 0
M  V30 8653 H 816.503 1.89999 -0.00496279 0
M  V30 8654 H 814.653 3.3072 2.03854 0
M  V30 8655 H 816.325 4.60755 -0.224159 0
M  V30 8656 H 814.568 4.32895 -0.280092 0
M  V30 8657 H 815.239 5.44377 0.91423 0
M  V30 8658 H 817.715 3.74243 1.81883 0
M  V30 8659 H 816.591 4.72652 2.7909 0
M  V30 8660 H 816.852 3.04062 3.20934 0
M  V30 8661 N 815.911 -0.310526 1.54511 0
M  V30 8662 C 816.841 -1.38757 1.878 0
M  V30 8663 C 817.822 -1.53353 0.735991 0
M  V30 8664 O 819.007 -1.67018 0.990887 0
M  V30 8665 C 816.137 -2.75327 2.11689 0
M  V30 8666 C 815.091 -2.75506 3.27537 0
M  V30 8667 C 814.417 -4.15275 3.36824 0
M  V30 8668 C 815.717 -2.38093 4.64875 0
M  V30 8669 H 817.411 -1.11146 2.78005 0
M  V30 8670 H 814.957 -0.533232 1.33763 0
M  V30 8671 H 816.91 -3.50752 2.33562 0
M  V30 8672 H 815.634 -3.04443 1.18245 0
M  V30 8673 H 814.293 -2.02538 3.05572 0
M  V30 8674 H 813.941 -4.41553 2.40915 0
M  V30 8675 H 813.641 -4.16299 4.14692 0
M  V30 8676 H 815.165 -4.92493 3.60947 0
M  V30 8677 H 816.579 -3.03232 4.86542 0
M  V30 8678 H 814.976 -2.50345 5.45387 0
M  V30 8679 H 816.046 -1.33227 4.66239 0
M  V30 8680 N 817.389 -1.46805 -0.573248 0
M  V30 8681 C 818.352 -1.57655 -1.66366 0
M  V30 8682 C 819.352 -0.452905 -1.5429 0
M  V30 8683 O 820.542 -0.717502 -1.58737 0
M  V30 8684 C 817.674 -1.50584 -3.05839 0
M  V30 8685 H 818.867 -2.54842 -1.581 0
M  V30 8686 H 816.42 -1.34756 -0.791868 0
M  V30 8687 H 817.155 -0.547127 -3.19651 0
M  V30 8688 H 816.94 -2.32118 -3.16012 0
M  V30 8689 H 818.43 -1.61282 -3.85199 0
M  V30 8690 N 818.867 0.818669 -1.34668 0
M  V30 8691 C 820.113 1.57746 -1.27453 0
M  V30 8692 C 820.446 1.93588 0.154077 0
M  V30 8693 O 819.721 1.60371 1.10051 0
M  V30 8694 C 820.004 2.87414 -2.16945 0
M  V30 8695 C 819.857 2.58125 -3.68363 0
M  V30 8696 C 821.176 3.89021 -2.05792 0
M  V30 8697 H 818.295 0.572339 -0.464324 0
M  V30 8698 H 820.937 0.942784 -1.64959 0
M  V30 8699 H 819.087 3.41576 -1.85089 0
M  V30 8700 H 820.759 2.10239 -4.10606 0
M  V30 8701 H 819.002 1.91503 -3.89242 0
M  V30 8702 H 819.673 3.5061 -4.26353 0
M  V30 8703 H 822.149 3.44224 -2.33771 0
M  V30 8704 H 821.025 4.77548 -2.70628 0
M  V30 8705 H 821.286 4.29786 -1.03618 0
M  V30 8706 N 820.346 1.18468 1.03938 0
M  V30 8707 C 821.594 0.978895 1.76811 0
M  V30 8708 C 821.915 -0.49257 1.88676 0
M  V30 8709 O 821.185 -1.3572 1.41269 0
M  V30 8710 H 819.765 0.359201 0.654968 0
M  V30 8711 H 822.427 1.49173 1.25433 0
M  V30 8712 H 821.523 1.418 2.78027 0
M  V30 8713 N 821.824 -1.22873 0.986916 0
M  V30 8714 C 822.754 -2.2688 0.552064 0
M  V30 8715 C 823.735 -1.64883 -0.418048 0
M  V30 8716 O 824.92 -1.9171 -0.30999 0
M  V30 8717 C 822.05 -3.47018 -0.139959 0
M  V30 8718 C 821.004 -4.21411 0.748091 0
M  V30 8719 C 820.33 -5.34645 -0.0765132 0
M  V30 8720 C 821.63 -4.80726 2.04206 0
M  V30 8721 H 823.324 -2.63507 1.42143 0
M  V30 8722 H 820.87 -1.26668 0.68492 0
M  V30 8723 H 822.823 -4.18931 -0.455527 0
M  V30 8724 H 821.547 -3.0947 -1.04382 0
M  V30 8725 H 820.206 -3.51325 1.04721 0
M  V30 8726 H 819.854 -4.93339 -0.981109 0
M  V30 8727 H 819.554 -5.85342 0.514606 0
M  V30 8728 H 821.078 -6.09377 -0.386313 0
M  V30 8729 H 822.492 -5.44612 1.79083 0
M  V30 8730 H 820.889 -5.41737 2.5815 0
M  V30 8731 H 821.959 -4.01109 2.72469 0
M  V30 8732 N 823.302 -0.75937 -1.38099 0
M  V30 8733 C 824.265 -0.14372 -2.28749 0
M  V30 8734 C 825.265 0.641338 -1.47457 0
M  V30 8735 O 826.455 0.466751 -1.67831 0
M  V30 8736 C 823.587 0.804545 -3.3127 0
M  V30 8737 H 824.78 -0.942663 -2.847 0
M  V30 8738 H 822.333 -0.526757 -1.47156 0
M  V30 8739 H 823.068 1.62895 -2.80421 0
M  V30 8740 H 822.853 0.243939 -3.9134 0
M  V30 8741 H 824.343 1.23111 -3.99041 0
M  V30 8742 N 824.78 1.49157 -0.508906 0
M  V30 8743 C 826.026 2.02773 0.0328469 0
M  V30 8744 C 826.359 1.38714 1.35912 0
M  V30 8745 O 825.634 0.525536 1.87266 0
M  V30 8746 C 825.917 3.59664 0.177088 0
M  V30 8747 C 825.77 4.34239 -1.17287 0
M  V30 8748 C 827.089 4.30505 0.913977 0
M  V30 8749 H 824.208 0.736926 0.0104631 0
M  V30 8750 H 826.85 1.781 -0.661851 0
M  V30 8751 H 825 3.80818 0.768774 0
M  V30 8752 H 826.672 4.24561 -1.80404 0
M  V30 8753 H 824.915 3.96486 -1.76016 0
M  V30 8754 H 825.586 5.42397 -1.02516 0
M  V30 8755 H 828.062 4.14054 0.412084 0
M  V30 8756 H 826.938 5.40012 0.983759 0
M  V30 8757 H 827.199 3.96302 1.95951 0
M  V30 8758 N 826.258 0.243083 1.55714 0
M  V30 8759 C 827.505 -0.38272 1.9885 0
M  V30 8760 C 827.833 -1.58225 1.13115 0
M  V30 8761 O 827.088 -1.94861 0.181067 0
M  V30 8762 C 827.387 -0.839621 3.47398 0
M  V30 8763 C 827.053 0.251737 4.50197 0
M  V30 8764 C 825.715 0.551487 4.78029 0
M  V30 8765 C 828.067 0.988728 5.11736 0
M  V30 8766 C 825.395 1.59237 5.64677 0
M  V30 8767 C 827.747 2.0191 5.99512 0
M  V30 8768 C 826.411 2.32554 6.2568 0
M  V30 8769 H 825.681 -0.140047 0.727645 0
M  V30 8770 H 828.328 0.35011 1.88272 0
M  V30 8771 H 826.633 -1.65159 3.55288 0
M  V30 8772 H 828.33 -1.33404 3.78159 0
M  V30 8773 H 824.92 0.00796741 4.28599 0
M  V30 8774 H 829.104 0.7704 4.90284 0
M  V30 8775 H 824.36 1.83517 5.83208 0
M  V30 8776 H 828.534 2.59511 6.46241 0
M  V30 8777 H 826.161 3.13349 6.92616 0
M  V30 8778 N 827.736 -1.57571 -0.0300757 0
M  V30 8779 C 828.983 -1.89226 -0.721091 0
M  V30 8780 C 829.311 -0.840244 -1.75414 0
M  V30 8781 O 828.566 0.158906 -1.95054 0
M  V30 8782 C 828.865 -3.27624 -1.42818 0
M  V30 8783 C 828.531 -4.4776 -0.531208 0
M  V30 8784 C 827.193 -4.8036 -0.28415 0
M  V30 8785 C 829.545 -5.21125 0.0881582 0
M  V30 8786 C 826.873 -5.83715 0.591065 0
M  V30 8787 C 829.225 -6.2541 0.95107 0
M  V30 8788 C 827.889 -6.56486 1.2076 0
M  V30 8789 H 827.159 -0.692428 -0.263866 0
M  V30 8790 H 829.806 -1.91491 0.0189874 0
M  V30 8791 H 828.111 -3.21343 -2.24155 0
M  V30 8792 H 829.808 -3.49365 -1.96838 0
M  V30 8793 H 826.398 -4.2227 -0.73392 0
M  V30 8794 H 830.582 -4.96219 -0.0897496 0
M  V30 8795 H 825.838 -6.06168 0.798132 0
M  V30 8796 H 830.012 -6.81402 1.43751 0
M  V30 8797 H 827.639 -7.36395 1.88751 0
M  V30 8798 N 829.214 0.302327 -1.54673 0
M  V30 8799 C 830.461 1.0377 -1.73891 0
M  V30 8800 C 830.789 1.87309 -0.523979 0
M  V30 8801 O 830.044 1.8936 0.494084 0
M  V30 8802 C 830.343 1.97365 -2.97963 0
M  V30 8803 C 830.009 1.29812 -4.3181 0
M  V30 8804 C 828.671 1.11121 -4.68194 0
M  V30 8805 C 831.023 0.815073 -5.14787 0
M  V30 8806 C 828.351 0.428077 -5.85136 0
M  V30 8807 C 830.703 0.145665 -6.32432 0
M  V30 8808 C 829.367 -0.0532098 -6.67479 0
M  V30 8809 H 828.637 0.379721 -0.636312 0
M  V30 8810 H 831.284 0.312708 -1.8893 0
M  V30 8811 H 829.589 2.76387 -2.777 0
M  V30 8812 H 831.286 2.54331 -3.10027 0
M  V30 8813 H 827.876 1.45366 -4.03196 0
M  V30 8814 H 832.06 0.947191 -4.87178 0
M  V30 8815 H 827.316 0.262995 -6.10834 0
M  V30 8816 H 831.49 -0.236533 -6.95998 0
M  V30 8817 H 829.117 -0.58456 -7.57949 0
M  V30 8818 N 830.692 1.47107 0.565454 0
M  V30 8819 C 832.108 1.32443 0.890566 0
M  V30 8820 C 832.308 0.308735 1.99121 0
M  V30 8821 O 831.364 -0.28265 2.50913 0
M  V30 8822 C 832.677 2.71548 1.2916 0
M  V30 8823 C 834.225 2.7977 1.40349 0
M  V30 8824 C 834.7 4.19497 1.83811 0
M  V30 8825 N 836.191 4.21998 1.90975 0
M  V30 8826 C 836.926 5.2702 2.25916 0
M  V30 8827 N 836.422 6.42353 2.59527 0
M  V30 8828 N 838.215 5.14393 2.26619 0
M  V30 8829 H 830.366 2.11786 -0.161328 0
M  V30 8830 H 832.629 0.947952 -0.00950631 0
M  V30 8831 H 832.335 3.47265 0.556753 0
M  V30 8832 H 832.209 3.02782 2.24951 0
M  V30 8833 H 834.596 2.0433 2.12916 0
M  V30 8834 H 834.677 2.522 0.427655 0
M  V30 8835 H 834.321 4.95439 1.11816 0
M  V30 8836 H 834.251 4.44486 2.82382 0
M  V30 8837 H 836.742 3.38791 1.6742 0
M  V30 8838 H 837.055 7.18252 2.85191 0
M  V30 8839 H 835.4 6.45687 2.57126 0
M  V30 8840 H 838.591 4.2332 1.99794 0
M  V30 8841 H 838.764 5.96349 2.5352 0
M  V30 8842 N 832.17 -0.811516 1.35101 0
M  V30 8843 C 833.586 -1.10634 1.15031 0
M  V30 8844 C 833.786 -2.01459 -0.0405379 0
M  V30 8845 O 832.842 -2.42235 -0.712635 0
M  V30 8846 C 834.155 -1.74207 2.45097 0
M  V30 8847 C 835.703 -1.8665 2.51258 0
M  V30 8848 C 836.178 -2.53638 3.81355 0
M  V30 8849 N 837.669 -2.61128 3.82579 0
M  V30 8850 C 838.404 -3.13717 4.79968 0
M  V30 8851 N 837.9 -3.66782 5.87744 0
M  V30 8852 N 839.693 -3.12224 4.67411 0
M  V30 8853 H 831.844 -0.207641 2.11383 0
M  V30 8854 H 834.107 -0.154697 0.935293 0
M  V30 8855 H 833.813 -1.14936 3.32389 0
M  V30 8856 H 833.687 -2.73958 2.59281 0
M  V30 8857 H 836.074 -2.45066 1.64398 0
M  V30 8858 H 836.155 -0.857678 2.40993 0
M  V30 8859 H 835.799 -1.95873 4.68611 0
M  V30 8860 H 835.729 -3.55047 3.88907 0
M  V30 8861 H 838.22 -2.23527 3.04703 0
M  V30 8862 H 838.533 -4.05194 6.58056 0
M  V30 8863 H 836.878 -3.64994 5.91443 0
M  V30 8864 H 840.069 -2.70042 3.82354 0
M  V30 8865 H 840.242 -3.52903 5.43474 0
M  V30 8866 N 833.648 -1.19017 -1.03309 0
M  V30 8867 C 834.598 -0.89194 -2.0983 0
M  V30 8868 C 835.582 0.14151 -1.60277 0
M  V30 8869 O 836.774 -0.0635946 -1.76886 0
M  V30 8870 C 833.903 -0.427793 -3.40624 0
M  V30 8871 C 832.989 -1.49374 -3.96923 0
M  V30 8872 N 833.38 -2.71213 -4.26939 0
M  V30 8873 C 831.678 -1.35605 -4.24885 0
M  V30 8874 C 832.379 -3.39849 -4.72099 0
M  V30 8875 N 831.355 -2.67239 -4.73375 0
M  V30 8876 H 835.157 -1.81801 -2.30923 0
M  V30 8877 H 832.671 -1.08171 -1.21131 0
M  V30 8878 H 834.668 -0.195608 -4.16441 0
M  V30 8879 H 833.328 0.491848 -3.20953 0
M  V30 8880 H 834.339 -3.08014 -4.16351 0
M  V30 8881 H 831.016 -0.499537 -4.14501 0
M  V30 8882 H 832.406 -4.44018 -5.04279 0
M  V30 8883 N 835.127 1.22348 -0.993418 0
M  V30 8884 C 836.375 1.90733 -0.668246 0
M  V30 8885 C 836.696 1.77732 0.802261 0
M  V30 8886 O 835.966 1.16486 1.57505 0
M  V30 8887 H 834.546 0.705966 -0.244174 0
M  V30 8888 H 837.208 1.48691 -1.26004 0
M  V30 8889 H 836.304 2.97883 -0.931239 0
M  V30 8890 N 836.605 0.766683 1.37694 0
M  V30 8891 C 837.833 0.339939 2.04088 0
M  V30 8892 C 838.248 -1.03617 1.57826 0
M  V30 8893 O 837.605 -1.6605 0.757214 0
M  V30 8894 C 837.656 0.368269 3.59619 0
M  V30 8895 O 837.377 1.69009 4.04188 0
M  V30 8896 C 838.878 -0.0707053 4.43244 0
M  V30 8897 H 836.098 0.143189 0.655544 0
M  V30 8898 H 838.642 1.03919 1.76128 0
M  V30 8899 H 836.797 -0.282359 3.8637 0
M  V30 8900 H 837.211 1.62523 4.98685 0
M  V30 8901 H 838.685 0.000273538 5.52 0
M  V30 8902 H 839.162 -1.1204 4.24669 0
M  V30 8903 H 839.768 0.551543 4.21709 0
M  V30 8904 N 838.083 -1.48885 0.516809 0
M  V30 8905 C 839.494 -1.86557 0.0729921 0
M  V30 8906 C 839.845 -1.42767 -1.34581 0
M  V30 8907 O 838.97 -0.812514 -2.00567 0
M  V30 8908 C 839.565 -3.38567 0.125686 0
M  V30 8909 C 838.124 -3.75481 -0.262867 0
M  V30 8910 C 837.271 -2.72913 0.491281 0
M  V30 8911 H 840.222 -1.40978 0.728767 0
M  V30 8912 H 840.243 -3.74629 -0.665831 0
M  V30 8913 H 839.755 -3.70408 1.15842 0
M  V30 8914 H 837.856 -3.49251 -1.29824 0
M  V30 8915 H 837.969 -4.79052 0.067579 0
M  V30 8916 H 836.333 -2.54627 -0.0608525 0
M  V30 8917 H 837.116 -3.07599 1.5244 0
M  V30 8918 N 839.561 -0.251338 -1.55583 0
M  V30 8919 C 840.977 0.103409 -1.59265 0
M  V30 8920 C 841.177 1.56559 -1.26852 0
M  V30 8921 O 840.233 2.31071 -1.01796 0
M  V30 8922 C 841.546 -0.249781 -2.99661 0
M  V30 8923 C 843.094 -0.194442 -3.12395 0
M  V30 8924 C 843.569 -0.521728 -4.55019 0
M  V30 8925 N 845.06 -0.472393 -4.60785 0
M  V30 8926 C 845.795 -0.698737 -5.69127 0
M  V30 8927 N 845.291 -0.988443 -6.85713 0
M  V30 8928 N 847.084 -0.629143 -5.58568 0
M  V30 8929 H 839.235 -1.20484 -1.74921 0
M  V30 8930 H 841.498 -0.485092 -0.814488 0
M  V30 8931 H 841.204 -1.26577 -3.28133 0
M  V30 8932 H 841.078 0.420973 -3.74844 0
M  V30 8933 H 843.465 0.812229 -2.83702 0
M  V30 8934 H 843.546 -0.899111 -2.39478 0
M  V30 8935 H 843.19 -1.52597 -4.84434 0
M  V30 8936 H 843.12 0.204468 -5.26203 0
M  V30 8937 H 845.611 -0.257386 -3.77022 0
M  V30 8938 H 845.924 -1.14846 -7.64219 0
M  V30 8939 H 844.269 -1.02596 -6.87386 0
M  V30 8940 H 847.46 -0.402826 -4.66364 0
M  V30 8941 H 847.633 -0.808935 -6.42931 0
M  V30 8942 N 841.039 1.57585 0.0217189 0
M  V30 8943 C 842.455 1.55072 0.377484 0
M  V30 8944 C 842.655 0.978423 1.76151 0
M  V30 8945 O 841.711 0.602688 2.45202 0
M  V30 8946 C 843.024 2.99462 0.272605 0
M  V30 8947 C 844.572 3.11047 0.349148 0
M  V30 8948 C 845.047 4.57182 0.273636 0
M  V30 8949 N 846.538 4.62007 0.332206 0
M  V30 8950 C 847.273 5.72631 0.296782 0
M  V30 8951 N 846.769 6.92472 0.21322 0
M  V30 8952 N 848.562 5.61028 0.347053 0
M  V30 8953 H 840.713 1.93133 -0.883925 0
M  V30 8954 H 842.976 0.886151 -0.33681 0
M  V30 8955 H 842.682 3.45088 -0.67878 0
M  V30 8956 H 842.556 3.61901 1.06335 0
M  V30 8957 H 844.943 2.65364 1.29097 0
M  V30 8958 H 845.024 2.51425 -0.471085 0
M  V30 8959 H 844.668 5.03534 -0.664548 0
M  V30 8960 H 844.598 5.14724 1.11207 0
M  V30 8961 H 847.089 3.75788 0.399003 0
M  V30 8962 H 847.402 7.72563 0.191492 0
M  V30 8963 H 845.747 6.94769 0.179161 0
M  V30 8964 H 848.938 4.66298 0.410378 0
M  V30 8965 H 849.111 6.47229 0.315979 0
M  V30 8966 N 842.517 -0.29412 1.54831 0
M  V30 8967 C 843.447 -1.36757 1.89261 0
M  V30 8968 C 844.428 -1.52564 0.752214 0
M  V30 8969 O 845.613 -1.65958 1.00855 0
M  V30 8970 C 842.743 -2.73066 2.14597 0
M  V30 8971 C 841.697 -2.72017 3.3044 0
M  V30 8972 C 841.023 -4.11679 3.4121 0
M  V30 8973 C 842.323 -2.33149 4.67375 0
M  V30 8974 H 844.017 -1.08191 2.79169 0
M  V30 8975 H 841.563 -0.519014 1.34321 0
M  V30 8976 H 843.516 -3.48255 2.37269 0
M  V30 8977 H 842.24 -3.03172 1.21467 0
M  V30 8978 H 840.899 -1.99285 3.07703 0
M  V30 8979 H 840.547 -4.38973 2.45584 0
M  V30 8980 H 840.247 -4.11877 4.19084 0
M  V30 8981 H 841.771 -4.88637 3.6615 0
M  V30 8982 H 843.185 -2.98054 4.89731 0
M  V30 8983 H 841.582 -2.44546 5.48012 0
M  V30 8984 H 842.652 -1.28275 4.67626 0
M  V30 8985 N 843.995 -1.47404 -0.557645 0
M  V30 8986 C 844.925 -1.62736 -1.67449 0
M  V30 8987 C 845.906 -0.476824 -1.6328 0
M  V30 8988 O 847.091 -0.706108 -1.80908 0
M  V30 8989 C 844.221 -1.641 -3.06086 0
M  V30 8990 C 843.175 -2.78377 -3.25101 0
M  V30 8991 C 842.501 -2.64812 -4.6452 0
M  V30 8992 C 843.801 -4.19971 -3.10518 0
M  V30 8993 H 845.495 -2.56232 -1.54873 0
M  V30 8994 H 843.041 -1.23312 -0.743649 0
M  V30 8995 H 844.994 -1.73417 -3.84063 0
M  V30 8996 H 843.718 -0.671652 -3.19619 0
M  V30 8997 H 842.377 -2.6857 -2.49531 0
M  V30 8998 H 842.025 -1.65906 -4.74852 0
M  V30 8999 H 841.725 -3.41477 -4.78191 0
M  V30 9000 H 843.249 -2.76057 -5.44633 0
M  V30 9001 H 844.663 -4.30757 -3.78313 0
M  V30 9002 H 843.06 -4.97419 -3.35699 0
M  V30 9003 H 844.13 -4.38369 -2.0727 0
M  V30 9004 N 845.473 0.80434 -1.35529 0
M  V30 9005 C 846.703 1.59052 -1.31856 0
M  V30 9006 C 847.111 1.88905 0.105549 0
M  V30 9007 O 846.454 1.49422 1.06858 0
M  V30 9008 C 846.516 2.94626 -2.06 0
M  V30 9009 C 846.18 2.87576 -3.55175 0
M  V30 9010 C 847.177 2.60856 -4.49722 0
M  V30 9011 C 844.862 3.06623 -3.97854 0
M  V30 9012 C 846.856 2.53262 -5.84925 0
M  V30 9013 C 844.543 2.98652 -5.33151 0
M  V30 9014 C 845.541 2.72007 -6.26499 0
M  V30 9015 O 845.229 2.64003 -7.59314 0
M  V30 9016 H 844.961 0.500486 -0.454411 0
M  V30 9017 H 847.515 1.0074 -1.78999 0
M  V30 9018 H 845.745 3.5493 -1.53498 0
M  V30 9019 H 847.434 3.55785 -1.95376 0
M  V30 9020 H 848.2 2.45858 -4.18066 0
M  V30 9021 H 844.079 3.26372 -3.2558 0
M  V30 9022 H 847.623 2.32386 -6.57756 0
M  V30 9023 H 843.52 3.13208 -5.64421 0
M  V30 9024 H 844.288 2.79595 -7.69265 0
M  V30 9025 N 846.951 1.19563 1.02676 0
M  V30 9026 C 848.191 1.01072 1.77662 0
M  V30 9027 C 848.555 -0.450344 1.86644 0
M  V30 9028 O 849.756 -0.755132 2.57975 0
M  V30 9029 C 848.027 1.66383 3.16309 0
M  V30 9030 S 849.586 1.62858 4.07459 0
M  V30 9031 H 846.404 0.362644 0.611564 0
M  V30 9032 H 849.006 1.51947 1.23014 0
M  V30 9033 H 847.71 2.71917 3.07391 0
M  V30 9034 H 847.241 1.15596 3.76033 0
M  V30 9035 H 849.256 0.654265 4.91868 0
M  V30 9036 N 848.429 -1.21819 0.999893 0
M  V30 9037 C 849.361 -2.23356 0.514256 0
M  V30 9038 C 850.374 -1.5795 -0.394413 0
M  V30 9039 O 851.563 -1.77427 -0.195428 0
M  V30 9040 C 848.663 -3.37797 -0.273207 0
M  V30 9041 C 847.836 -4.32791 0.633293 0
M  V30 9042 C 846.895 -5.26098 -0.103673 0
M  V30 9043 O 845.921 -5.66881 0.513269 0
M  V30 9044 N 847.123 -5.63764 -1.38383 0
M  V30 9045 H 849.888 -2.65653 1.3874 0
M  V30 9046 H 847.449 -1.3619 0.875431 0
M  V30 9047 H 849.441 -3.97209 -0.775053 0
M  V30 9048 H 848.011 -2.94527 -1.0475 0
M  V30 9049 H 847.231 -3.71595 1.31571 0
M  V30 9050 H 848.519 -4.93196 1.25039 0
M  V30 9051 H 847.917 -5.32614 -1.90627 0
M  V30 9052 H 846.474 -6.25562 -1.83073 0
M  V30 9053 N 849.908 -0.773975 -1.37286 0
M  V30 9054 C 851.324 -0.45386 -1.53011 0
M  V30 9055 C 851.524 1.03018 -1.73175 0
M  V30 9056 O 850.58 1.81597 -1.75438 0
M  V30 9057 C 851.893 -1.27087 -2.72524 0
M  V30 9058 C 853.441 -1.26299 -2.86387 0
M  V30 9059 C 853.916 -2.0634 -4.08886 0
M  V30 9060 N 855.407 -2.03706 -4.16003 0
M  V30 9061 C 856.142 -2.62418 -5.09828 0
M  V30 9062 N 855.638 -3.29926 -6.09197 0
M  V30 9063 N 857.431 -2.52236 -5.02328 0
M  V30 9064 H 849.582 -1.73551 -1.22449 0
M  V30 9065 H 851.845 -0.736874 -0.596423 0
M  V30 9066 H 851.551 -2.32263 -2.64096 0
M  V30 9067 H 851.425 -0.90157 -3.66267 0
M  V30 9068 H 853.812 -0.219213 -2.94285 0
M  V30 9069 H 853.893 -1.67195 -1.93596 0
M  V30 9070 H 853.537 -3.10741 -4.01749 0
M  V30 9071 H 853.467 -1.62825 -5.00795 0
M  V30 9072 H 855.958 -1.54559 -3.44848 0
M  V30 9073 H 856.271 -3.72095 -6.77322 0
M  V30 9074 H 854.616 -3.34026 -6.09469 0
M  V30 9075 H 857.807 -1.99108 -4.23643 0
M  V30 9076 H 857.98 -2.98286 -5.75265 0
M  V30 9077 N 851.386 1.48609 -0.524698 0
M  V30 9078 C 852.611 2.07398 0.00952139 0
M  V30 9079 C 853.036 1.37939 1.27884 0
M  V30 9080 O 852.394 0.443633 1.75788 0
M  V30 9081 C 852.442 3.59916 0.221956 0
M  V30 9082 O 851.546 3.91647 1.29175 0
M  V30 9083 H 850.887 0.662981 -0.0367729 0
M  V30 9084 H 853.417 1.91092 -0.7311 0
M  V30 9085 H 853.427 4.05552 0.446236 0
M  V30 9086 H 852.102 4.09876 -0.705306 0
M  V30 9087 H 850.679 3.57796 1.05055 0
M  V30 9088 N 852.864 0.259585 1.55447 0
M  V30 9089 C 853.794 -0.62852 2.24882 0
M  V30 9090 C 854.775 -1.17128 1.23349 0
M  V30 9091 O 855.96 -1.20829 1.52033 0
M  V30 9092 C 853.09 -1.81983 2.95803 0
M  V30 9093 C 852.044 -1.40929 4.04132 0
M  V30 9094 C 851.37 -2.68246 4.62545 0
M  V30 9095 C 852.67 -0.570956 5.1917 0
M  V30 9096 H 854.364 -0.0495021 2.99359 0
M  V30 9097 H 851.91 -0.0223688 1.43983 0
M  V30 9098 H 853.863 -2.44689 3.43082 0
M  V30 9099 H 852.587 -2.42444 2.18835 0
M  V30 9100 H 851.246 -0.805519 3.57641 0
M  V30 9101 H 850.894 -3.26931 3.82263 0
M  V30 9102 H 850.594 -2.41495 5.35681 0
M  V30 9103 H 852.118 -3.31827 5.12565 0
M  V30 9104 H 853.532 -1.10262 5.62597 0
M  V30 9105 H 851.929 -0.398979 5.98772 0
M  V30 9106 H 852.999 0.413918 4.8313 0
M  V30 9107 N 854.342 -1.57594 -0.0133615 0
M  V30 9108 C 855.272 -2.10611 -1.00823 0
M  V30 9109 C 856.253 -1.01217 -1.36708 0
M  V30 9110 O 857.438 -1.28827 -1.45318 0
M  V30 9111 C 854.568 -2.59844 -2.30431 0
M  V30 9112 C 853.522 -3.73644 -2.08745 0
M  V30 9113 C 852.848 -4.09141 -3.4425 0
M  V30 9114 C 854.148 -5.01454 -1.46086 0
M  V30 9115 H 855.842 -2.93985 -0.566849 0
M  V30 9116 H 853.388 -1.41423 -0.271219 0
M  V30 9117 H 855.341 -2.95557 -3.00373 0
M  V30 9118 H 854.065 -1.73573 -2.76658 0
M  V30 9119 H 852.724 -3.38303 -1.41232 0
M  V30 9120 H 852.372 -3.19914 -3.88155 0
M  V30 9121 H 852.072 -4.85802 -3.3056 0
M  V30 9122 H 853.596 -4.47402 -4.15528 0
M  V30 9123 H 855.01 -5.35024 -2.05966 0
M  V30 9124 H 853.407 -5.82832 -1.42924 0
M  V30 9125 H 854.477 -4.83003 -0.428471 0
M  V30 9126 N 855.82 0.285905 -1.54985 0
M  V30 9127 C 857.097 1.0397 -1.65679 0
M  V30 9128 C 857.477 2.04725 -0.514851 0
M  V30 9129 O 856.825 2.23257 0.486663 0
M  V30 9130 C 857.035 1.70807 -3.04345 0
M  V30 9131 C 858.383 2.22447 -3.61666 0
M  V30 9132 O 859.407 1.80815 -3.06895 0
M  V30 9133 O 858.266 2.98773 -4.57599 0
M  V30 9134 H 855.36 0.481473 -0.672394 0
M  V30 9135 H 857.906 0.282789 -1.67327 0
M  V30 9136 H 856.678 0.977271 -3.789 0
M  V30 9137 H 856.301 2.53217 -3.06541 0
M  V30 9138 N 857.298 1.47698 0.54982 0
M  V30 9139 C 858.245 1.60739 1.65625 0
M  V30 9140 C 859.215 0.450129 1.59884 0
M  V30 9141 O 860.4 0.671123 1.78607 0
M  V30 9142 C 857.54 1.63457 3.03934 0
M  V30 9143 C 856.653 2.90152 3.20056 0
M  V30 9144 C 855.788 2.84157 4.48807 0
M  V30 9145 C 854.827 4.05644 4.58387 0
M  V30 9146 N 853.964 3.97843 5.78503 0
M  V30 9147 H 858.804 2.55234 1.53817 0
M  V30 9148 H 856.341 1.26593 0.749173 0
M  V30 9149 H 858.299 1.63015 3.84034 0
M  V30 9150 H 856.929 0.724689 3.1456 0
M  V30 9151 H 855.981 3.00428 2.33339 0
M  V30 9152 H 857.293 3.80097 3.22998 0
M  V30 9153 H 856.447 2.82006 5.37175 0
M  V30 9154 H 855.186 1.91908 4.48356 0
M  V30 9155 H 854.191 4.08092 3.6843 0
M  V30 9156 H 855.416 4.9903 4.60593 0
M  V30 9157 H 853.362 3.08401 5.78986 0
M  V30 9158 H 853.279 4.81473 5.82855 0
M  V30 9159 H 854.547 3.99719 6.69212 0
M  V30 9160 N 858.776 -0.797141 1.35954 0
M  V30 9161 C 860.022 -1.55698 1.29946 0
M  V30 9162 C 860.355 -1.93808 -0.123259 0
M  V30 9163 O 859.63 -1.62102 -1.07486 0
M  V30 9164 C 859.913 -2.83926 2.2149 0
M  V30 9165 C 859.766 -2.52232 3.72423 0
M  V30 9166 C 861.085 -3.85698 2.11955 0
M  V30 9167 H 858.204 -0.56488 0.47337 0
M  V30 9168 H 860.846 -0.916421 1.66438 0
M  V30 9169 H 858.996 -3.38588 1.905 0
M  V30 9170 H 860.668 -2.0368 4.13899 0
M  V30 9171 H 858.911 -1.85286 3.92239 0
M  V30 9172 H 859.582 -3.43782 4.31877 0
M  V30 9173 H 862.058 -3.40462 2.39218 0
M  V30 9174 H 860.934 -4.73182 2.78191 0
M  V30 9175 H 861.195 -4.28083 1.10442 0
M  V30 9176 O 860.293 -1.31581 -0.936416 0
M  V30 9177 H 860.984 -1.13849 -1.56711 0
M  V30 END ATOM
M  V30 BEGIN BOND
M  V30 END BOND
M  V30 END CTAB
M  END
$$$$
