drugbank_target|Q8WTS6 Histone-lysine N-methyltransferase SETD7 (DB01752)
 OpenBabel12092120223D

  0  0  0     0  0            999 V3000
M  V30 BEGIN CTAB
M  V30 COUNTS 5523 5598 0 0 0
M  V30 BEGIN ATOM
M  V30 1 H -0.908 1.98254 -0.117106 0
M  V30 2 N 0 1.576 0 0
M  V30 3 C 0.933 2.03868 1.02534 0
M  V30 4 C 1.911 0.928543 1.3348 0
M  V30 5 O 3.095 1.19667 1.45644 0
M  V30 6 C 0.222 2.43627 2.35294 0
M  V30 7 C -0.732 3.65373 2.2001 0
M  V30 8 S 0.101 5.13292 1.52614 0
M  V30 9 C 1.257 5.56322 2.86805 0
M  V30 10 H 1.49 2.90518 0.631377 0
M  V30 11 H -0.977 1.52953 0.210867 0
M  V30 12 H 0.981 2.67203 3.11629 0
M  V30 13 H -0.358 1.57376 2.7183 0
M  V30 14 H -1.165 3.90944 3.18086 0
M  V30 15 H -1.563 3.418 1.51819 0
M  V30 16 H 0.729 5.58782 3.83104 0
M  V30 17 H 1.672 6.56266 2.65933 0
M  V30 18 H 2.08 4.83886 2.90714 0
M  V30 19 N 1.4781 -0.272755 1.55222 0
M  V30 20 C 2.7551 -1.02562 1.66555 0
M  V30 21 C 3.1351 -2.04282 0.532189 0
M  V30 22 O 2.4831 -2.23662 -0.467717 0
M  V30 23 C 2.6931 -1.6822 3.05782 0
M  V30 24 C 4.0411 -2.19373 3.63539 0
M  V30 25 O 5.0651 -1.78206 3.08417 0
M  V30 26 O 3.9241 -2.94883 4.60115 0
M  V30 27 H 1.0181 -0.475755 0.676451 0
M  V30 28 H 3.5641 -0.268593 1.67561 0
M  V30 29 H 2.3361 -0.945112 3.79715 0
M  V30 30 H 1.9591 -2.50609 3.08676 0
M  V30 31 N 2.9562 -1.48159 -0.537278 0
M  V30 32 C 4.1812 -1.59707 -1.32319 0
M  V30 33 C 4.6062 -0.254859 -1.86365 0
M  V30 34 O 3.9642 0.772378 -1.64024 0
M  V30 35 C 4.0122 -2.6412 -2.45505 0
M  V30 36 O 3.1162 -2.20774 -3.48328 0
M  V30 37 H 2.4572 -0.535791 -0.392204 0
M  V30 38 H 4.9872 -1.94092 -0.647268 0
M  V30 39 H 4.9972 -2.85166 -2.91795 0
M  V30 40 H 3.6722 -3.61567 -2.05528 0
M  V30 41 H 2.2492 -2.09911 -3.08207 0
M  V30 42 N 4.4343 0.785586 -1.36625 0
M  V30 43 C 5.7113 1.53198 -1.21613 0
M  V30 44 C 6.0913 2.10187 0.196113 0
M  V30 45 O 5.4393 1.94318 1.20219 0
M  V30 46 C 5.6493 2.62388 -2.30116 0
M  V30 47 C 6.9973 3.30167 -2.66974 0
M  V30 48 O 8.0213 2.72674 -2.29188 0
M  V30 49 O 6.8803 4.34077 -3.32023 0
M  V30 50 H 3.9743 0.677865 -0.473738 0
M  V30 51 H 6.5203 0.823739 -1.48367 0
M  V30 52 H 5.2923 2.18299 -3.24748 0
M  V30 53 H 4.9153 3.40827 -2.0475 0
M  V30 54 N 5.9124 1.20967 1.01018 0
M  V30 55 C 7.1894 0.93264 1.71934 0
M  V30 56 C 7.5694 -0.55692 2.03621 0
M  V30 57 O 6.9174 -1.52035 1.7058 0
M  V30 58 C 7.1274 1.81233 2.98254 0
M  V30 59 C 8.4754 2.05804 3.71389 0
M  V30 60 O 9.4994 1.78539 3.08225 0
M  V30 61 O 8.3584 2.51888 4.84989 0
M  V30 62 H 5.4524 0.349272 0.749625 0
M  V30 63 H 7.9984 1.31871 1.06808 0
M  V30 64 H 6.7704 2.82067 2.71208 0
M  V30 65 H 6.3934 1.42674 3.7112 0
M  V30 66 N 7.3905 -1.2043 1.01659 0
M  V30 67 C 8.3005 -2.2689 0.596484 0
M  V30 68 C 9.3165 -1.70107 -0.36599 0
M  V30 69 O 10.4925 -2.00117 -0.226942 0
M  V30 70 C 7.5575 -3.4665 -0.0586659 0
M  V30 71 C 6.6185 -4.18662 0.949751 0
M  V30 72 C 5.8515 -5.32705 0.32577 0
M  V30 73 O 6.0745 -5.63656 -0.874509 0
M  V30 74 O 5.0085 -5.92803 1.04249 0
M  V30 75 H 8.8345 -2.65041 1.4828 0
M  V30 76 H 6.4195 -1.27048 0.786082 0
M  V30 77 H 8.3015 -4.19256 -0.424564 0
M  V30 78 H 6.9765 -3.10375 -0.91918 0
M  V30 79 H 5.8835 -3.48229 1.36702 0
M  V30 80 H 7.2165 -4.58878 1.78023 0
M  V30 81 N 8.8686 -0.792821 -1.36206 0
M  V30 82 C 9.8016 -0.139422 -2.27774 0
M  V30 83 C 10.7796 0.68649 -1.47398 0
M  V30 84 O 11.9636 0.656738 -1.7669 0
M  V30 85 C 9.0906 0.807947 -3.28922 0
M  V30 86 C 8.1366 0.0633999 -4.26453 0
M  V30 87 S 8.9696 -1.26319 -5.20388 0
M  V30 88 C 10.1256 -0.31991 -6.25082 0
M  V30 89 H 10.3586 -0.915809 -2.82843 0
M  V30 90 H 7.8916 -0.587203 -1.42798 0
M  V30 91 H 9.8496 1.34908 -3.87699 0
M  V30 92 H 8.5106 1.55761 -2.72759 0
M  V30 93 H 7.7036 0.782386 -4.9789 0
M  V30 94 H 7.3056 -0.407352 -3.71775 0
M  V30 95 H 9.5976 0.499985 -6.75653 0
M  V30 96 H 10.5406 -1.00307 -7.00959 0
M  V30 97 H 10.9486 0.0782694 -5.64446 0
M  V30 98 N 10.3467 1.47872 -0.545128 0
M  V30 99 C 11.5927 2.02793 -0.0166104 0
M  V30 100 C 11.9257 1.41987 1.32489 0
M  V30 101 O 11.2007 0.571045 1.85928 0
M  V30 102 C 11.4837 3.59989 0.0893294 0
M  V30 103 C 11.3367 4.3125 -1.27841 0
M  V30 104 C 12.6557 4.32606 0.808724 0
M  V30 105 H 9.7747 0.736962 -0.00751035 0
M  V30 106 H 12.4167 1.76433 -0.705085 0
M  V30 107 H 10.5667 3.82579 0.675681 0
M  V30 108 H 12.2387 4.20035 -1.90704 0
M  V30 109 H 10.4817 3.92076 -1.85632 0
M  V30 110 H 11.1527 5.39736 -1.15713 0
M  V30 111 H 13.6287 4.14936 0.310992 0
M  V30 112 H 12.5047 5.42251 0.851782 0
M  V30 113 H 12.7657 4.00963 1.86229 0
M  V30 114 N 11.8248 0.280983 1.55075 0
M  V30 115 C 12.7348 -0.61388 2.26426 0
M  V30 116 C 13.7508 -1.16521 1.29224 0
M  V30 117 O 14.9268 -1.19426 1.62171 0
M  V30 118 C 11.9918 -1.7788 2.9759 0
M  V30 119 C 11.0528 -1.26355 4.10284 0
M  V30 120 C 10.2858 -2.37295 4.78045 0
M  V30 121 O 10.5088 -3.56777 4.45047 0
M  V30 122 O 9.4428 -2.05119 5.65871 0
M  V30 123 H 13.2688 -0.0356932 3.03679 0
M  V30 124 H 10.8538 0.0481686 1.49322 0
M  V30 125 H 12.7358 -2.45791 3.42293 0
M  V30 126 H 11.4108 -2.34397 2.23249 0
M  V30 127 H 10.3178 -0.550735 3.70024 0
M  V30 128 H 11.6508 -0.744065 4.86543 0
M  V30 129 N 13.3029 -1.57598 0.00835791 0
M  V30 130 C 14.2129 -2.12385 -0.996487 0
M  V30 131 C 15.2289 -1.07108 -1.37127 0
M  V30 132 O 16.4049 -1.39055 -1.4569 0
M  V30 133 C 13.4699 -2.62314 -2.26699 0
M  V30 134 C 12.5309 -3.82225 -1.95456 0
M  V30 135 C 11.7639 -4.29763 -3.16449 0
M  V30 136 O 11.9869 -3.76584 -4.28416 0
M  V30 137 O 10.9209 -5.21832 -2.99958 0
M  V30 138 H 14.7469 -2.98479 -0.560725 0
M  V30 139 H 12.3319 -1.47903 -0.210987 0
M  V30 140 H 14.2139 -2.94589 -3.01322 0
M  V30 141 H 12.8889 -1.79313 -2.69497 0
M  V30 142 H 11.7959 -3.54909 -1.18282 0
M  V30 143 H 13.1289 -4.66324 -1.57489 0
M  V30 144 N 14.781 0.264519 -1.55364 0
M  V30 145 C 15.744 1.31046 -1.88042 0
M  V30 146 C 16.744 1.41943 -0.755569 0
M  V30 147 O 17.934 1.40947 -1.02369 0
M  V30 148 C 15.066 2.69067 -2.09323 0
M  V30 149 H 16.259 1.03297 -2.81549 0
M  V30 150 H 13.812 0.502989 -1.47986 0
M  V30 151 H 14.547 3.01982 -1.18226 0
M  V30 152 H 14.332 2.62542 -2.91229 0
M  V30 153 H 15.822 3.44623 -2.35848 0
M  V30 154 N 16.2591 1.48442 0.529413 0
M  V30 155 C 17.5051 1.5672 1.28711 0
M  V30 156 C 17.8381 0.2406 1.92704 0
M  V30 157 O 17.1131 -0.753454 1.79313 0
M  V30 158 C 17.3961 2.70587 2.37603 0
M  V30 159 C 17.2491 4.12953 1.78297 0
M  V30 160 C 18.5681 2.80212 3.39366 0
M  V30 161 H 15.6871 0.570474 0.466613 0
M  V30 162 H 18.3291 1.80617 0.589706 0
M  V30 163 H 16.4791 2.50342 2.97088 0
M  V30 164 H 18.1511 4.44639 1.22858 0
M  V30 165 H 16.3941 4.19927 1.0883 0
M  V30 166 H 17.0651 4.88448 2.57144 0
M  V30 167 H 19.5411 2.98553 2.89836 0
M  V30 168 H 18.4171 3.61611 4.12951 0
M  V30 169 H 18.6781 1.88393 3.99951 0
M  V30 170 N 17.7372 -0.778329 1.37039 0
M  V30 171 C 18.6472 -1.92253 1.34446 0
M  V30 172 C 19.6632 -1.72267 0.244991 0
M  V30 173 O 20.8392 -1.95615 0.479258 0
M  V30 174 C 17.9042 -3.27282 1.144 0
M  V30 175 C 16.9652 -3.59969 2.33925 0
M  V30 176 C 16.1982 -4.88555 2.14825 0
M  V30 177 O 16.4212 -5.59113 1.12912 0
M  V30 178 O 15.3552 -5.20153 3.02861 0
M  V30 179 H 19.1812 -1.97392 2.30803 0
M  V30 180 H 16.7662 -0.920154 1.17701 0
M  V30 181 H 18.6482 -4.08062 1.05182 0
M  V30 182 H 17.3232 -3.23011 0.211124 0
M  V30 183 H 16.2302 -2.7945 2.48714 0
M  V30 184 H 17.5632 -3.68976 3.25757 0
M  V30 185 N 19.2153 -1.21501 -1.00376 0
M  V30 186 C 20.4633 -1.03095 -1.73827 0
M  V30 187 C 20.7843 0.436341 -1.90055 0
M  V30 188 O 20.0543 1.31466 -1.45236 0
M  V30 189 H 18.6343 -0.378487 -0.644016 0
M  V30 190 H 21.2963 -1.52831 -1.20949 0
M  V30 191 H 20.3923 -1.49991 -2.73695 0
M  V30 192 N 20.6934 1.19889 -1.02296 0
M  V30 193 C 21.6434 2.20777 -0.56934 0
M  V30 194 C 22.6274 1.56379 0.378741 0
M  V30 195 O 23.8194 1.75859 0.200673 0
M  V30 196 C 20.9484 3.43196 0.0845077 0
M  V30 197 C 20.0344 4.14749 -0.88566 0
M  V30 198 N 20.4254 4.62584 -2.04573 0
M  V30 199 C 18.7234 4.40347 -0.707835 0
M  V30 200 C 19.4244 5.17466 -2.65714 0
M  V30 201 N 18.4004 5.0791 -1.93723 0
M  V30 202 H 22.2024 2.55434 -1.45365 0
M  V30 203 H 19.7164 1.35897 -0.88915 0
M  V30 204 H 21.7134 4.14707 0.427067 0
M  V30 205 H 20.3734 3.10042 0.964574 0
M  V30 206 H 21.3844 4.57597 -2.4254 0
M  V30 207 H 18.0614 4.17317 0.12364 0
M  V30 208 H 19.4514 5.64808 -3.63925 0
M  V30 209 N 22.1715 0.800033 1.35784 0
M  V30 210 C 23.1015 0.220184 2.3246 0
M  V30 211 C 24.0825 -0.65073 1.57161 0
M  V30 212 O 25.2675 -0.582359 1.85263 0
M  V30 213 C 22.3975 -0.637353 3.41402 0
M  V30 214 C 21.3515 0.134531 4.27789 0
M  V30 215 C 20.6775 -0.844285 5.27992 0
M  V30 216 C 21.9775 1.32979 5.05088 0
M  V30 217 H 23.6715 1.02787 2.81203 0
M  V30 218 H 21.2175 0.495717 1.35199 0
M  V30 219 H 23.1705 -1.05302 4.08031 0
M  V30 220 H 21.8945 -1.47785 2.91251 0
M  V30 221 H 20.5535 0.531296 3.6273 0
M  V30 222 H 20.2015 -1.68011 4.74111 0
M  V30 223 H 19.9015 -0.332184 5.8666 0
M  V30 224 H 21.4255 -1.2583 5.97494 0
M  V30 225 H 22.8395 0.98934 5.64699 0
M  V30 226 H 21.2365 1.77593 5.7322 0
M  V30 227 H 22.3065 2.11978 4.36111 0
M  V30 228 N 23.6496 -1.47581 0.552962 0
M  V30 229 C 24.9266 -1.95563 -0.0381515 0
M  V30 230 C 25.3066 -1.49552 -1.48988 0
M  V30 231 O 24.6546 -0.732414 -2.16444 0
M  V30 232 C 24.8646 -3.48848 0.102919 0
M  V30 233 C 26.2126 -4.24577 -0.0446082 0
M  V30 234 O 27.2366 -3.56187 0.0302548 0
M  V30 235 O 26.0956 -5.46116 -0.204923 0
M  V30 236 H 23.1896 -0.824321 -0.0665067 0
M  V30 237 H 25.7356 -1.58001 0.619186 0
M  V30 238 H 24.5076 -3.75129 1.11328 0
M  V30 239 H 24.1306 -3.93165 -0.592224 0
M  V30 240 N 25.1277 -0.289203 -1.54924 0
M  V30 241 C 26.4047 0.376032 -1.91951 0
M  V30 242 C 26.7847 1.72622 -1.21511 0
M  V30 243 O 26.1327 2.25853 -0.346767 0
M  V30 244 C 26.3427 0.502378 -3.45365 0
M  V30 245 C 27.6907 0.778741 -4.17398 0
M  V30 246 O 28.7147 0.586647 -3.51336 0
M  V30 247 O 27.5737 1.14698 -5.34328 0
M  V30 248 H 24.6677 0.208167 -0.800372 0
M  V30 249 H 27.2137 -0.336394 -1.66332 0
M  V30 250 H 25.9857 -0.447255 -3.88736 0
M  V30 251 H 25.6087 1.26373 -3.76982 0
M  V30 252 N 26.6058 1.57591 -0.0167156 0
M  V30 253 C 27.8828 1.82547 0.702564 0
M  V30 254 C 28.2628 0.898018 1.91047 0
M  V30 255 O 27.6108 -0.0493456 2.28447 0
M  V30 256 C 27.8208 3.31459 1.09251 0
M  V30 257 C 29.1688 3.97622 1.48937 0
M  V30 258 O 30.1928 3.35881 1.18584 0
M  V30 259 O 29.0518 5.06415 2.05442 0
M  V30 260 H 26.1458 0.752268 0.343544 0
M  V30 261 H 28.6918 1.69644 -0.0434495 0
M  V30 262 H 27.4638 3.9061 0.23227 0
M  V30 263 H 27.0868 3.49422 1.89709 0
M  V30 264 N 28.0839 -0.256276 1.55502 0
M  V30 265 C 29.3319 -0.983672 1.76545 0
M  V30 266 C 29.6529 -1.86206 0.578982 0
M  V30 267 O 28.9229 -1.91656 -0.405577 0
M  V30 268 H 27.5029 -0.366191 0.651086 0
M  V30 269 H 30.1649 -0.276479 1.92929 0
M  V30 270 H 29.2609 -1.61087 2.67315 0
M  V30 271 N 29.562 -1.4872 -0.521534 0
M  V30 272 C 30.492 -1.66771 -1.63431 0
M  V30 273 C 31.473 -0.516499 -1.62069 0
M  V30 274 O 32.658 -0.750013 -1.79132 0
M  V30 275 C 29.788 -1.71515 -3.01993 0
M  V30 276 C 28.742 -2.86222 -3.18216 0
M  V30 277 C 28.068 -2.76061 -4.57924 0
M  V30 278 C 29.368 -4.27419 -3.00184 0
M  V30 279 H 31.062 -2.59932 -1.48579 0
M  V30 280 H 28.608 -1.25089 -0.713358 0
M  V30 281 H 30.561 -1.82731 -3.7972 0
M  V30 282 H 29.285 -0.749393 -3.17886 0
M  V30 283 H 27.944 -2.74575 -2.42908 0
M  V30 284 H 27.592 -1.77437 -4.70665 0
M  V30 285 H 27.292 -3.53037 -4.69722 0
M  V30 286 H 28.816 -2.89256 -5.37739 0
M  V30 287 H 30.23 -4.39855 -3.67697 0
M  V30 288 H 28.627 -5.05458 -3.2347 0
M  V30 289 H 29.697 -4.43293 -1.96518 0
M  V30 290 N 31.0401 0.771051 -1.3745 0
M  V30 291 C 32.4511 1.34737 -1.29239 0
M  V30 292 C 32.8021 1.96109 0.0596908 0
M  V30 293 O 31.9271 1.93865 0.961534 0
M  V30 294 C 32.5221 2.44973 -2.34037 0
M  V30 295 C 31.0811 2.98372 -2.29458 0
M  V30 296 C 30.2281 1.71595 -2.17831 0
M  V30 297 H 33.1791 0.571256 -1.48062 0
M  V30 298 H 33.2001 3.24471 -1.98744 0
M  V30 299 H 32.7121 2.00276 -3.32432 0
M  V30 300 H 30.8131 3.47443 -1.34589 0
M  V30 301 H 30.9261 3.53939 -3.229 0
M  V30 302 H 29.2901 1.94547 -1.64388 0
M  V30 303 H 30.0731 1.29001 -3.18141 0
M  V30 304 N 32.5182 1.22032 0.997298 0
M  V30 305 C 33.4682 0.953838 2.07089 0
M  V30 306 C 34.4522 -0.0938669 1.60626 0
M  V30 307 O 35.6442 0.116078 1.76619 0
M  V30 308 C 32.7732 0.528726 3.39204 0
M  V30 309 C 31.8592 1.61092 3.92314 0
M  V30 310 N 32.2502 2.83768 4.18699 0
M  V30 311 C 30.5482 1.48158 4.20672 0
M  V30 312 C 31.2492 3.53715 4.61802 0
M  V30 313 N 30.2252 2.81174 4.65233 0
M  V30 314 H 34.0272 1.88577 2.25424 0
M  V30 315 H 31.5412 1.11719 1.17867 0
M  V30 316 H 33.5382 0.31915 4.15677 0
M  V30 317 H 32.1982 -0.39635 3.22272 0
M  V30 318 H 33.2092 3.20238 4.07023 0
M  V30 319 H 29.8862 0.622369 4.12835 0
M  V30 320 H 31.2762 4.58793 4.90875 0
M  V30 321 N 33.9963 -1.19345 1.0293 0
M  V30 322 C 35.2443 -1.88665 0.724574 0
M  V30 323 C 35.5653 -1.80036 -0.749144 0
M  V30 324 O 34.8353 -1.2111 -1.53978 0
M  V30 325 H 33.4153 -0.698406 0.265025 0
M  V30 326 H 36.0773 -1.44885 1.30362 0
M  V30 327 H 35.1733 -2.94987 1.01926 0
M  V30 328 N 35.4744 -0.807222 -1.35358 0
M  V30 329 C 36.7214 -0.387888 -1.9875 0
M  V30 330 C 37.0494 1.04509 -1.64037 0
M  V30 331 O 36.3044 1.73986 -0.895946 0
M  V30 332 C 36.6034 -0.519036 -3.53611 0
M  V30 333 C 36.2694 -1.91542 -4.08194 0
M  V30 334 C 34.9314 -2.29745 -4.22813 0
M  V30 335 C 37.2834 -2.82896 -4.37744 0
M  V30 336 C 34.6114 -3.58668 -4.643 0
M  V30 337 C 36.9634 -4.11265 -4.8067 0
M  V30 338 C 35.6274 -4.49466 -4.93494 0
M  V30 339 H 34.8974 -0.141938 -0.727279 0
M  V30 340 H 37.5444 -1.02814 -1.6156 0
M  V30 341 H 35.8494 0.204658 -3.91265 0
M  V30 342 H 37.5464 -0.175345 -4.00616 0
M  V30 343 H 34.1364 -1.60862 -3.97268 0
M  V30 344 H 38.3204 -2.54629 -4.26002 0
M  V30 345 H 33.5764 -3.88113 -4.72418 0
M  V30 346 H 37.7504 -4.82153 -5.02496 0
M  V30 347 H 35.3774 -5.49418 -5.25399 0
M  V30 348 N 36.9525 1.47285 -0.560781 0
M  V30 349 C 38.1925 2.0436 -0.0404627 0
M  V30 350 C 38.5565 1.42534 1.28639 0
M  V30 351 O 39.7575 1.90677 1.89462 0
M  V30 352 C 38.0285 3.57369 0.0471856 0
M  V30 353 S 39.5875 4.3579 0.513109 0
M  V30 354 H 36.4055 0.710492 -0.0268674 0
M  V30 355 H 39.0075 1.80611 -0.748323 0
M  V30 356 H 37.7115 3.9989 -0.922817 0
M  V30 357 H 37.2425 3.8562 0.778491 0
M  V30 358 H 39.2575 4.63476 1.77212 0
M  V30 359 N 38.4306 0.297415 1.54768 0
M  V30 360 C 39.6586 -0.315623 2.04478 0
M  V30 361 C 40.0736 -1.47792 1.17486 0
M  V30 362 O 39.4306 -1.81404 0.19971 0
M  V30 363 C 39.4816 -0.7753 3.53088 0
M  V30 364 O 39.2026 0.340732 4.36773 0
M  V30 365 C 40.7036 -1.45386 4.18781 0
M  V30 366 H 37.9236 -0.0690887 0.667434 0
M  V30 367 H 40.4676 0.436003 1.99798 0
M  V30 368 H 38.6226 -1.47696 3.58141 0
M  V30 369 H 39.0366 -0.0165035 5.24497 0
M  V30 370 H 40.5106 -1.72669 5.24299 0
M  V30 371 H 40.9876 -2.39275 3.68299 0
M  V30 372 H 41.5936 -0.795475 4.17795 0
M  V30 373 N 39.9087 -1.5758 0.0250728 0
M  V30 374 C 41.1547 -1.91917 -0.655413 0
M  V30 375 C 41.4877 -0.901433 -1.72011 0
M  V30 376 O 40.7627 0.0764069 -1.9435 0
M  V30 377 C 41.0457 -3.36751 -1.27558 0
M  V30 378 C 40.8987 -4.49258 -0.220719 0
M  V30 379 C 42.2177 -3.81469 -2.19475 0
M  V30 380 H 39.3367 -0.697925 -0.23679 0
M  V30 381 H 41.9787 -1.89825 0.0815036 0
M  V30 382 H 40.1287 -3.38664 -1.90365 0
M  V30 383 H 41.8007 -4.59478 0.409601 0
M  V30 384 H 40.0437 -4.31415 0.454264 0
M  V30 385 H 40.7147 -5.47618 -0.694175 0
M  V30 386 H 43.1907 -3.81266 -1.66659 0
M  V30 387 H 42.0667 -4.83512 -2.59822 0
M  V30 388 H 42.3277 -3.16744 -3.08424 0
M  V30 389 N 41.3868 0.248026 -1.55636 0
M  V30 390 C 42.6148 0.993808 -1.81469 0
M  V30 391 C 43.0298 1.78991 -0.60064 0
M  V30 392 O 42.3868 1.77345 0.430682 0
M  V30 393 C 42.4378 1.93258 -3.05506 0
M  V30 394 O 42.1588 1.16869 -4.22224 0
M  V30 395 C 43.6598 2.79444 -3.4413 0
M  V30 396 H 40.8798 0.292486 -0.603898 0
M  V30 397 H 43.4238 0.271253 -2.02693 0
M  V30 398 H 41.5788 2.60943 -2.86335 0
M  V30 399 H 41.9928 1.80359 -4.92515 0
M  V30 400 H 43.4668 3.41066 -4.34026 0
M  V30 401 H 43.9438 3.50499 -2.64665 0
M  V30 402 H 44.5498 2.17214 -3.65648 0
M  V30 403 N 42.8649 1.48995 0.513639 0
M  V30 404 C 44.0949 1.61297 1.291 0
M  V30 405 C 44.5029 0.278656 1.87137 0
M  V30 406 O 43.8459 -0.744325 1.67945 0
M  V30 407 C 43.9079 2.61326 2.46879 0
M  V30 408 C 43.5719 4.05993 2.09807 0
M  V30 409 C 44.5689 4.93183 1.64519 0
M  V30 410 C 42.2539 4.51642 2.19829 0
M  V30 411 C 44.2479 6.24056 1.2974 0
M  V30 412 C 41.9349 5.82532 1.84662 0
M  V30 413 C 42.9329 6.68562 1.3969 0
M  V30 414 O 42.6209 7.97014 1.04992 0
M  V30 415 H 42.3529 0.546236 0.39825 0
M  V30 416 H 44.9069 1.95673 0.62459 0
M  V30 417 H 43.1369 2.22104 3.16554 0
M  V30 418 H 44.8259 2.6329 3.08923 0
M  V30 419 H 45.5919 4.59147 1.56233 0
M  V30 420 H 41.4709 3.84855 2.53786 0
M  V30 421 H 45.0149 6.91161 0.945659 0
M  V30 422 H 40.9119 6.16099 1.92594 0
M  V30 423 H 41.6799 8.09913 1.18249 0
M  V30 424 N 44.343 -0.763751 1.37857 0
M  V30 425 C 45.568 -1.55805 1.36893 0
M  V30 426 C 45.993 -1.88054 -0.0416135 0
M  V30 427 O 45.351 -1.49825 -1.02089 0
M  V30 428 C 45.399 -2.84012 2.22192 0
M  V30 429 O 44.503 -3.78732 1.63204 0
M  V30 430 H 43.844 -0.471638 0.46739 0
M  V30 431 H 46.374 -0.944657 1.81487 0
M  V30 432 H 46.384 -3.33037 2.35691 0
M  V30 433 H 45.059 -2.59869 3.24716 0
M  V30 434 H 43.636 -3.37402 1.58791 0
M  V30 435 N 45.8211 -1.22559 -0.990812 0
M  V30 436 C 47.0461 -1.07862 -1.77145 0
M  V30 437 C 47.4711 0.366447 -1.84496 0
M  V30 438 O 46.8291 1.26478 -1.29896 0
M  V30 439 C 46.8771 -1.69686 -3.18181 0
M  V30 440 O 45.9811 -0.951946 -4.01263 0
M  V30 441 H 45.3221 -0.378712 -0.545411 0
M  V30 442 H 47.8521 -1.62399 -1.2445 0
M  V30 443 H 47.8621 -1.74496 -3.68802 0
M  V30 444 H 46.5371 -2.74841 -3.12146 0
M  V30 445 H 45.1141 -0.980011 -3.59792 0
M  V30 446 N 47.2992 1.18797 -1.03562 0
M  V30 447 C 48.5272 1.92599 -0.755869 0
M  V30 448 C 48.9422 1.75886 0.686271 0
M  V30 449 O 48.2992 1.08517 1.46732 0
M  V30 450 C 48.3502 3.44159 -1.10619 0
M  V30 451 O 48.0712 3.60341 -2.4917 0
M  V30 452 C 49.5722 4.3507 -0.850214 0
M  V30 453 H 46.7922 0.611587 -0.276048 0
M  V30 454 H 49.3362 1.50742 -1.38192 0
M  V30 455 H 47.4912 3.83823 -0.525194 0
M  V30 456 H 47.9052 4.54128 -2.62427 0
M  V30 457 H 49.3792 5.39989 -1.14523 0
M  V30 458 H 49.8562 4.38673 0.215176 0
M  V30 459 H 50.4622 4.01097 -1.41426 0
M  V30 460 N 48.7773 0.814389 1.34928 0
M  V30 461 C 50.0543 0.321363 1.92942 0
M  V30 462 C 50.4343 -1.19014 1.74353 0
M  V30 463 O 49.7823 -1.99328 1.11716 0
M  V30 464 C 49.9923 0.741323 3.41036 0
M  V30 465 C 51.3403 0.735266 4.18185 0
M  V30 466 O 52.3643 0.68336 3.49584 0
M  V30 467 O 51.2233 0.800703 5.40602 0
M  V30 468 H 48.3173 0.0858893 0.822528 0
M  V30 469 H 50.8633 0.898609 1.43955 0
M  V30 470 H 49.6353 1.78276 3.4833 0
M  V30 471 H 49.2583 0.139307 3.97356 0
M  V30 472 N 50.2554 -1.46986 0.568584 0
M  V30 473 C 51.6714 -1.57946 0.229189 0
M  V30 474 C 51.8714 -1.56567 -1.26843 0
M  V30 475 O 50.9274 -1.47511 -2.04931 0
M  V30 476 C 52.2404 -2.87963 0.865909 0
M  V30 477 C 53.7884 -3.01568 0.838188 0
M  V30 478 C 54.2634 -4.34301 1.45419 0
M  V30 479 N 55.7544 -4.40965 1.41788 0
M  V30 480 C 56.4894 -5.42256 1.86403 0
M  V30 481 N 55.9854 -6.50297 2.38926 0
M  V30 482 N 57.7784 -5.3337 1.77405 0
M  V30 483 H 49.9294 -1.46126 1.54146 0
M  V30 484 H 52.1924 -0.696156 0.643484 0
M  V30 485 H 51.8984 -2.94742 1.91886 0
M  V30 486 H 51.7724 -3.75423 0.365687 0
M  V30 487 H 54.1594 -2.94379 -0.206106 0
M  V30 488 H 54.2404 -2.1562 1.37629 0
M  V30 489 H 53.8844 -4.42247 2.49761 0
M  V30 490 H 53.8144 -5.19 0.891435 0
M  V30 491 H 56.3054 -3.63484 1.03381 0
M  V30 492 H 56.6184 -7.23777 2.70863 0
M  V30 493 H 54.9634 -6.51155 2.42944 0
M  V30 494 H 58.1544 -4.47865 1.3614 0
M  V30 495 H 58.3274 -6.12169 2.12492 0
M  V30 496 N 51.7335 -0.305618 -1.54608 0
M  V30 497 C 52.9805 0.302298 -2.00231 0
M  V30 498 C 53.3085 1.5354 -1.19398 0
M  V30 499 O 52.5635 1.93973 -0.259423 0
M  V30 500 C 52.8625 0.698983 -3.50498 0
M  V30 501 C 52.5285 -0.432903 -4.48817 0
M  V30 502 C 51.1905 -0.743622 -4.75419 0
M  V30 503 C 53.5425 -1.19409 -5.07337 0
M  V30 504 C 50.8705 -1.81857 -5.57804 0
M  V30 505 C 53.2225 -2.25899 -5.90891 0
M  V30 506 C 51.8865 -2.57572 -6.15803 0
M  V30 507 H 51.1565 0.110619 -0.732697 0
M  V30 508 H 53.8035 -0.425674 -1.86709 0
M  V30 509 H 52.1085 1.50711 -3.61654 0
M  V30 510 H 53.8055 1.1806 -3.83227 0
M  V30 511 H 50.3955 -0.18063 -4.28219 0
M  V30 512 H 54.5795 -0.967295 -4.86782 0
M  V30 513 H 49.8355 -2.06864 -5.75341 0
M  V30 514 H 54.0095 -2.85335 -6.35261 0
M  V30 515 H 51.6365 -3.40998 -6.7943 0
M  V30 516 N 53.2116 1.57565 -0.0334293 0
M  V30 517 C 54.1216 2.13943 0.962572 0
M  V30 518 C 55.1376 1.09276 1.35406 0
M  V30 519 O 56.3136 1.41355 1.4346 0
M  V30 520 C 53.3786 2.65887 2.22497 0
M  V30 521 C 52.4396 3.85286 1.8935 0
M  V30 522 C 51.6726 4.34743 3.09571 0
M  V30 523 O 51.8956 3.83352 4.22371 0
M  V30 524 O 50.8296 5.26538 2.91618 0
M  V30 525 H 54.6556 2.99333 0.513169 0
M  V30 526 H 52.2406 1.4822 0.18743 0
M  V30 527 H 54.1226 2.99346 2.96598 0
M  V30 528 H 52.7976 1.83578 2.6661 0
M  V30 529 H 51.7046 3.56746 1.1262 0
M  V30 530 H 53.0376 4.68771 1.5005 0
M  V30 531 N 54.6897 -0.239769 1.55765 0
M  V30 532 C 55.9377 -0.964892 1.77579 0
M  V30 533 C 56.2587 -1.85582 0.598699 0
M  V30 534 O 55.5287 -1.92075 -0.385226 0
M  V30 535 H 54.1087 -0.359265 0.654933 0
M  V30 536 H 56.7707 -0.256001 1.93211 0
M  V30 537 H 55.8667 -1.58243 2.69009 0
M  V30 538 N 56.1678 -1.49265 -0.50573 0
M  V30 539 C 57.1158 -1.66065 -1.62866 0
M  V30 540 C 58.1098 -0.526636 -1.61006 0
M  V30 541 O 59.3158 -0.706126 -1.65571 0
M  V30 542 H 55.6908 -0.52356 -0.539805 0
M  V30 543 H 57.6618 -2.60329 -1.45848 0
M  V30 544 C 56.4108 -1.74008 -3.01026 0
M  V30 545 H 55.7338 -2.6064 -3.03161 0
M  V30 546 H 57.1738 -1.89798 -3.79147 0
M  V30 547 C 55.6328 -0.483868 -3.33407 0
M  V30 548 O 56.1628 0.392548 -3.99777 0
M  V30 549 N 54.3688 -0.348236 -2.88506 0
M  V30 550 H 53.9158 -1.06242 -2.34671 0
M  V30 551 H 53.8738 0.491204 -3.10539 0
M  V30 552 N 57.6459 0.756429 -1.3826 0
M  V30 553 C 58.8929 1.51547 -1.34312 0
M  V30 554 C 59.2209 1.94382 0.0677144 0
M  V30 555 O 58.4759 1.65514 1.04421 0
M  V30 556 C 58.7749 2.78313 -2.24224 0
M  V30 557 C 58.4409 2.54455 -3.72241 0
M  V30 558 C 57.1029 2.47657 -4.12576 0
M  V30 559 C 59.4549 2.3354 -4.65949 0
M  V30 560 C 56.7829 2.17956 -5.44713 0
M  V30 561 C 59.1349 2.05359 -5.9834 0
M  V30 562 C 57.7989 1.97016 -6.37762 0
M  V30 563 H 57.0689 0.55455 -0.491482 0
M  V30 564 H 59.7159 0.870039 -1.70595 0
M  V30 565 H 58.0209 3.47492 -1.80987 0
M  V30 566 H 59.7179 3.36259 -2.18474 0
M  V30 567 H 56.3079 2.60616 -3.40261 0
M  V30 568 H 60.4919 2.37772 -4.35635 0
M  V30 569 H 55.7479 2.10003 -5.74203 0
M  V30 570 H 59.9219 1.88179 -6.70494 0
M  V30 571 H 57.5489 1.73766 -7.40074 0
M  V30 572 N 59.124 1.23083 0.984299 0
M  V30 573 C 60.37 1.06214 1.72761 0
M  V30 574 C 60.703 -0.400584 1.90024 0
M  V30 575 O 59.978 -1.29672 1.44967 0
M  V30 576 C 60.261 1.78375 3.12817 0
M  V30 577 C 60.114 3.32296 3.03149 0
M  V30 578 C 61.433 1.54309 4.12161 0
M  V30 579 H 58.552 0.387251 0.627061 0
M  V30 580 H 61.194 1.51536 1.14616 0
M  V30 581 H 59.344 1.39848 3.62457 0
M  V30 582 H 61.016 3.8032 2.61064 0
M  V30 583 H 59.259 3.6153 2.39747 0
M  V30 584 H 59.93 3.77972 4.02295 0
M  V30 585 H 62.406 1.87791 3.71314 0
M  V30 586 H 61.282 2.07281 5.08258 0
M  V30 587 H 61.543 0.477572 4.39513 0
M  V30 588 N 60.6021 -1.18246 1.0419 0
M  V30 589 C 61.5521 -2.19843 0.604392 0
M  V30 590 C 62.5361 -1.56962 -0.353814 0
M  V30 591 O 63.7281 -1.76156 -0.17267 0
M  V30 592 C 60.8571 -3.43287 -0.0298975 0
M  V30 593 C 59.9431 -4.13288 0.951531 0
M  V30 594 N 60.3341 -4.59271 2.11906 0
M  V30 595 C 58.6321 -4.39165 0.7778 0
M  V30 596 C 59.3331 -5.13173 2.73912 0
M  V30 597 N 58.3091 -5.04763 2.01779 0
M  V30 598 H 62.1111 -2.53089 1.4941 0
M  V30 599 H 59.6251 -1.34465 0.910658 0
M  V30 600 H 61.6221 -4.15334 -0.361037 0
M  V30 601 H 60.2821 -3.11537 -0.915127 0
M  V30 602 H 61.2931 -4.5368 2.49789 0
M  V30 603 H 57.9701 -4.17461 -0.0572331 0
M  V30 604 H 59.3601 -5.58947 3.72864 0
M  V30 605 N 62.0802 -0.821533 -1.34494 0
M  V30 606 C 63.3282 -0.408139 -1.97936 0
M  V30 607 C 63.6492 1.03193 -1.65457 0
M  V30 608 O 62.9192 1.71622 -0.944595 0
M  V30 609 H 61.4992 -0.147928 -0.732206 0
M  V30 610 H 64.1612 -1.05067 -1.64155 0
M  V30 611 H 63.2572 -0.52601 -3.07635 0
M  V30 612 N 63.5583 1.46682 -0.576371 0
M  V30 613 C 64.4683 2.34032 0.163141 0
M  V30 614 C 65.4843 1.49367 0.892501 0
M  V30 615 O 66.6603 1.82252 0.857106 0
M  V30 616 C 63.7253 3.26435 1.16795 0
M  V30 617 C 62.7863 4.26998 0.443944 0
M  V30 618 C 62.0193 5.14986 1.40088 0
M  V30 619 O 62.2423 5.05785 2.637 0
M  V30 620 O 61.1763 5.94906 0.914917 0
M  V30 621 H 65.0023 2.98607 -0.55388 0
M  V30 622 H 62.5873 1.45554 -0.336821 0
M  V30 623 H 64.4693 3.83459 1.74748 0
M  V30 624 H 63.1443 2.64465 1.86655 0
M  V30 625 H 62.0513 3.7368 -0.177271 0
M  V30 626 H 63.3843 4.91736 -0.213566 0
M  V30 627 N 65.0364 0.313813 1.54444 0
M  V30 628 C 65.9834 -0.55655 2.23989 0
M  V30 629 C 66.9534 -1.11943 1.22711 0
M  V30 630 O 68.1384 -1.16158 1.51367 0
M  V30 631 C 65.2784 -1.71635 2.99392 0
M  V30 632 C 64.3914 -1.18364 4.15468 0
M  V30 633 C 63.5264 -2.30834 4.78424 0
M  V30 634 C 62.5654 -1.74762 5.86622 0
M  V30 635 N 61.7024 -2.80855 6.43479 0
M  V30 636 H 66.5424 0.0430893 2.97969 0
M  V30 637 H 64.0794 0.0330359 1.47063 0
M  V30 638 H 66.0374 -2.39868 3.41349 0
M  V30 639 H 64.6674 -2.28742 2.27765 0
M  V30 640 H 63.7194 -0.393163 3.78363 0
M  V30 641 H 65.0314 -0.733262 4.93381 0
M  V30 642 H 64.1854 -3.0699 5.23299 0
M  V30 643 H 62.9244 -2.79204 3.99871 0
M  V30 644 H 61.9294 -0.970995 5.41158 0
M  V30 645 H 63.1544 -1.2728 6.67066 0
M  V30 646 H 61.1004 -3.28535 5.67804 0
M  V30 647 H 61.0174 -2.40351 7.16776 0
M  V30 648 H 62.2854 -3.5687 6.93011 0
M  V30 649 N 66.5145 -1.57545 0.0417849 0
M  V30 650 C 67.4625 -2.12148 -0.953723 0
M  V30 651 C 68.4565 -1.05104 -1.32852 0
M  V30 652 O 69.6625 -1.23524 -1.30927 0
M  V30 653 H 66.0375 -0.677957 -0.325389 0
M  V30 654 H 68.0085 -2.94707 -0.467991 0
M  V30 655 C 66.7575 -2.6739 -2.22257 0
M  V30 656 H 66.0805 -3.49413 -1.94295 0
M  V30 657 H 67.5205 -3.09227 -2.90094 0
M  V30 658 C 65.9795 -1.60723 -2.96091 0
M  V30 659 O 66.5095 -1.01449 -3.88679 0
M  V30 660 N 64.7155 -1.32466 -2.58652 0
M  V30 661 H 64.2625 -1.80856 -1.83437 0
M  V30 662 H 64.2205 -0.61325 -3.08361 0
M  V30 663 N 67.9926 0.231505 -1.5589 0
M  V30 664 C 69.2406 0.955461 -1.78088 0
M  V30 665 C 69.5616 1.85262 -0.608533 0
M  V30 666 O 68.8316 1.92277 0.375035 0
M  V30 667 H 67.4116 0.355787 -0.656829 0
M  V30 668 H 70.0736 0.245751 -1.93344 0
M  V30 669 H 69.1696 1.56814 -2.69844 0
M  V30 670 N 69.4707 1.49531 0.497807 0
M  V30 671 C 70.8867 1.36365 0.829266 0
M  V30 672 C 71.0867 0.399184 1.97506 0
M  V30 673 O 70.1427 -0.167977 2.51941 0
M  V30 674 C 71.4557 2.77153 1.16647 0
M  V30 675 C 73.0037 2.85877 1.27449 0
M  V30 676 C 73.4787 4.2744 1.64497 0
M  V30 677 N 74.9697 4.30265 1.7154 0
M  V30 678 C 75.7047 5.3677 2.01656 0
M  V30 679 N 75.2007 6.53516 2.29976 0
M  V30 680 N 76.9937 5.24189 2.02934 0
M  V30 681 H 69.1447 2.10831 -0.257703 0
M  V30 682 H 71.4077 0.946534 -0.0527091 0
M  V30 683 H 71.1137 3.49442 0.397872 0
M  V30 684 H 70.9877 3.12722 2.10915 0
M  V30 685 H 73.3747 2.13824 2.0338 0
M  V30 686 H 73.4557 2.53887 0.312244 0
M  V30 687 H 73.0997 5.00021 0.891151 0
M  V30 688 H 73.0297 4.56896 2.61827 0
M  V30 689 H 75.5207 3.4607 1.51802 0
M  V30 690 H 75.8337 7.30506 2.52153 0
M  V30 691 H 74.1787 6.56737 2.27425 0
M  V30 692 H 77.3697 4.31988 1.80289 0
M  V30 693 H 77.5427 6.07286 2.26071 0
M  V30 694 N 70.9488 -0.749086 1.3866 0
M  V30 695 C 72.1968 -1.50535 1.34847 0
M  V30 696 C 72.5178 -1.94909 -0.0595016 0
M  V30 697 O 71.7878 -1.67973 -1.00806 0
M  V30 698 H 70.3678 -0.558395 0.49619 0
M  V30 699 H 73.0298 -0.890165 1.73384 0
M  V30 700 H 72.1258 -2.39413 2.00219 0
M  V30 701 N 72.4269 -1.23603 -0.977757 0
M  V30 702 C 73.3739 -1.01954 -2.07061 0
M  V30 703 C 74.3439 0.0638697 -1.65977 0
M  V30 704 O 75.5289 -0.0887624 -1.90593 0
M  V30 705 C 72.6689 -0.619658 -3.39491 0
M  V30 706 C 71.7819 -1.77547 -3.93829 0
M  V30 707 C 70.9169 -1.32212 -5.14484 0
M  V30 708 C 69.9559 -2.44852 -5.60994 0
M  V30 709 N 69.0929 -2.00456 -6.72876 0
M  V30 710 H 73.9329 -1.95495 -2.24913 0
M  V30 711 H 71.4699 -0.973861 -1.10247 0
M  V30 712 H 73.4279 -0.368898 -4.15566 0
M  V30 713 H 72.0579 0.278752 -3.21594 0
M  V30 714 H 71.1099 -2.14016 -3.14486 0
M  V30 715 H 72.4219 -2.62219 -4.24314 0
M  V30 716 H 71.5759 -1.02965 -5.97899 0
M  V30 717 H 70.3149 -0.445808 -4.85658 0
M  V30 718 H 69.3199 -2.74871 -4.76157 0
M  V30 719 H 70.5449 -3.33024 -5.91837 0
M  V30 720 H 68.4909 -1.15208 -6.45804 0
M  V30 721 H 68.4079 -2.78687 -7.02759 0
M  V30 722 H 69.6759 -1.7432 -7.59758 0
M  V30 723 N 73.905 1.17692 -1.04816 0
M  V30 724 C 75.152 1.87859 -0.75599 0
M  V30 725 C 75.48 1.80812 0.716752 0
M  V30 726 O 74.735 1.20819 1.53952 0
M  V30 727 C 75.034 3.37462 -1.17703 0
M  V30 728 C 74.7 3.64713 -2.65133 0
M  V30 729 C 73.362 3.71859 -3.05408 0
M  V30 730 C 75.714 3.76492 -3.60421 0
M  V30 731 C 73.042 3.88271 -4.39843 0
M  V30 732 C 75.394 3.94421 -4.94585 0
M  V30 733 C 74.058 3.99806 -5.3452 0
M  V30 734 H 73.328 0.687425 -0.276636 0
M  V30 735 H 75.975 1.39255 -1.31455 0
M  V30 736 H 74.28 3.88097 -0.537395 0
M  V30 737 H 75.977 3.90109 -0.928218 0
M  V30 738 H 72.567 3.59772 -2.32942 0
M  V30 739 H 76.751 3.70295 -3.30447 0
M  V30 740 H 72.007 3.90687 -4.70291 0
M  V30 741 H 76.181 4.02477 -5.68318 0
M  V30 742 H 73.808 4.12276 -6.38696 0
M  V30 743 N 75.3831 0.828654 1.34056 0
M  V30 744 C 76.6301 0.419458 1.98108 0
M  V30 745 C 76.9581 -1.01886 1.65679 0
M  V30 746 O 76.2131 -1.72539 0.923512 0
M  V30 747 C 76.5121 0.575226 3.52741 0
M  V30 748 C 76.1781 1.98012 4.05095 0
M  V30 749 C 74.8401 2.36442 4.19104 0
M  V30 750 C 77.1921 2.89824 4.33188 0
M  V30 751 C 74.5201 3.66009 4.58535 0
M  V30 752 C 76.8721 4.1886 4.74066 0
M  V30 753 C 75.5361 4.5726 4.86281 0
M  V30 754 H 74.8061 0.153491 0.724929 0
M  V30 755 H 77.4531 1.05371 1.59904 0
M  V30 756 H 75.7581 -0.142385 3.91541 0
M  V30 757 H 77.4551 0.239057 4.00287 0
M  V30 758 H 74.0451 1.67162 3.94658 0
M  V30 759 H 78.2291 2.61375 4.21897 0
M  V30 760 H 73.4851 3.95579 4.66184 0
M  V30 761 H 77.6591 4.90086 4.94761 0
M  V30 762 H 75.2861 5.57707 5.16592 0
M  V30 763 N 76.8612 -1.46375 0.584142 0
M  V30 764 C 78.1082 -2.02378 0.0702675 0
M  V30 765 C 78.4362 -1.45545 -1.29023 0
M  V30 766 O 77.6912 -0.610967 -1.85918 0
M  V30 767 C 77.9902 -3.57373 -0.0439342 0
M  V30 768 C 77.6562 -4.33252 1.24915 0
M  V30 769 C 76.3182 -4.53701 1.60341 0
M  V30 770 C 78.6702 -4.7681 2.1048 0
M  V30 771 C 75.9982 -5.1496 2.81128 0
M  V30 772 C 78.3502 -5.39404 3.30494 0
M  V30 773 C 77.0142 -5.5808 3.66201 0
M  V30 774 H 76.2842 -0.740554 0.0257127 0
M  V30 775 H 78.9312 -1.75727 0.761065 0
M  V30 776 H 77.2362 -3.83169 -0.817869 0
M  V30 777 H 78.9332 -3.98384 -0.457318 0
M  V30 778 H 75.5232 -4.17633 0.963364 0
M  V30 779 H 79.7072 -4.60766 1.84414 0
M  V30 780 H 74.9632 -5.27611 3.08928 0
M  V30 781 H 79.1372 -5.72114 3.97063 0
M  V30 782 H 76.7642 -6.05318 4.59885 0
M  V30 783 N 78.3393 -0.321999 -1.54275 0
M  V30 784 C 79.5863 0.281044 -2.0054 0
M  V30 785 C 79.9143 1.52265 -1.21019 0
M  V30 786 O 79.1693 1.93687 -0.279982 0
M  V30 787 C 79.4683 0.661769 -3.5122 0
M  V30 788 C 79.1343 -0.480482 -4.48333 0
M  V30 789 C 77.7963 -0.794005 -4.74604 0
M  V30 790 C 80.1483 -1.24783 -5.06042 0
M  V30 791 C 77.4763 -1.87763 -5.55844 0
M  V30 792 C 79.8283 -2.32153 -5.88462 0
M  V30 793 C 78.4923 -2.64089 -6.13036 0
M  V30 794 H 77.7623 0.102841 -0.733829 0
M  V30 795 H 80.4093 -0.445453 -1.86247 0
M  V30 796 H 78.7143 1.46867 -3.63232 0
M  V30 797 H 80.4113 1.13989 -3.84457 0
M  V30 798 H 77.0013 -0.226039 -4.28004 0
M  V30 799 H 81.1853 -1.01887 -4.85729 0
M  V30 800 H 76.4413 -2.12954 -5.73115 0
M  V30 801 H 80.6153 -2.92057 -6.32199 0
M  V30 802 H 78.2423 -3.48185 -6.75775 0
M  V30 803 N 79.8174 1.5752 -0.0501392 0
M  V30 804 C 81.0944 1.83996 0.663685 0
M  V30 805 C 81.4744 0.938339 1.89099 0
M  V30 806 O 80.8224 -0.00087759 2.285 0
M  V30 807 C 81.0324 3.33702 1.02196 0
M  V30 808 C 82.3804 4.00691 1.40469 0
M  V30 809 O 83.4044 3.38321 1.11433 0
M  V30 810 O 82.2634 5.10658 1.94654 0
M  V30 811 H 79.3574 0.759385 0.32751 0
M  V30 812 H 81.9034 1.69514 -0.0794238 0
M  V30 813 H 80.6754 3.91015 0.149364 0
M  V30 814 H 80.2984 3.53368 1.82255 0
M  V30 815 N 81.2955 -0.223234 1.56011 0
M  V30 816 C 82.5435 -0.946003 1.78592 0
M  V30 817 C 82.8645 -1.84936 0.618349 0
M  V30 818 O 82.1345 -1.92473 -0.364833 0
M  V30 819 H 80.7145 -0.352298 0.658707 0
M  V30 820 H 83.3765 -0.235494 1.93472 0
M  V30 821 H 82.4725 -1.55381 2.70672 0
M  V30 822 N 82.7736 -1.49793 -0.48987 0
M  V30 823 C 83.9986 -1.63836 -1.27172 0
M  V30 824 C 84.4236 -0.31402 -1.8546 0
M  V30 825 O 83.7816 0.719803 -1.66399 0
M  V30 826 C 83.8296 -2.71797 -2.36978 0
M  V30 827 O 82.9336 -2.31744 -3.41128 0
M  V30 828 H 82.2746 -0.547997 -0.37496 0
M  V30 829 H 84.8046 -1.96053 -0.585191 0
M  V30 830 H 84.8146 -2.94305 -2.82575 0
M  V30 831 H 83.4896 -3.67923 -1.93921 0
M  V30 832 H 82.0666 -2.1961 -3.01373 0
M  V30 833 N 84.2517 0.741722 -1.39055 0
M  V30 834 C 85.4797 1.53098 -1.39171 0
M  V30 835 C 85.8947 1.88794 0.0155099 0
M  V30 836 O 85.2517 1.53626 0.985159 0
M  V30 837 C 85.3027 2.82274 -2.2584 0
M  V30 838 O 85.0237 2.48097 -3.61081 0
M  V30 839 C 86.5247 3.76343 -2.34266 0
M  V30 840 H 83.7447 0.473335 -0.4756 0
M  V30 841 H 86.2887 0.917045 -1.82785 0
M  V30 842 H 84.4437 3.40015 -1.85656 0
M  V30 843 H 84.8577 3.31029 -4.06842 0
M  V30 844 H 86.3317 4.63898 -2.9917 0
M  V30 845 H 86.8087 4.17619 -1.35982 0
M  V30 846 H 87.4147 3.24523 -2.74891 0
M  V30 847 N 85.7298 1.2412 0.971189 0
M  V30 848 C 86.6598 1.05508 2.08304 0
M  V30 849 C 87.6408 -0.0308864 1.70072 0
M  V30 850 O 88.8258 0.135521 1.93727 0
M  V30 851 C 85.9558 0.655365 3.4106 0
M  V30 852 C 84.9098 1.68971 3.93234 0
M  V30 853 C 84.2358 1.14516 5.22293 0
M  V30 854 C 85.5358 3.08487 4.21465 0
M  V30 855 H 87.2298 1.98507 2.24132 0
M  V30 856 H 84.7758 0.955821 1.07704 0
M  V30 857 H 86.7288 0.51217 4.18276 0
M  V30 858 H 85.4528 -0.31032 3.25122 0
M  V30 859 H 84.1118 1.82106 3.18171 0
M  V30 860 H 83.7598 0.170189 5.02712 0
M  V30 861 H 83.4598 1.83635 5.58168 0
M  V30 862 H 84.9838 1.01401 6.02121 0
M  V30 863 H 86.3978 2.98601 4.89398 0
M  V30 864 H 84.7948 3.74926 4.68562 0
M  V30 865 H 85.8648 3.56787 3.28376 0
M  V30 866 N 87.2079 -1.17134 1.05439 0
M  V30 867 C 88.1179 -2.24878 0.668365 0
M  V30 868 C 89.1339 -1.71186 -0.311687 0
M  V30 869 O 90.3099 -2.00738 -0.163161 0
M  V30 870 C 87.3749 -3.46662 0.051648 0
M  V30 871 C 86.4359 -4.15429 1.08246 0
M  V30 872 C 85.6689 -5.31399 0.495082 0
M  V30 873 O 85.8919 -5.66153 -0.694743 0
M  V30 874 O 84.8259 -5.89187 1.23056 0
M  V30 875 H 88.6519 -2.60189 1.56637 0
M  V30 876 H 86.2369 -1.24482 0.826104 0
M  V30 877 H 88.1189 -4.20394 -0.290966 0
M  V30 878 H 86.7939 -3.13142 -0.819971 0
M  V30 879 H 85.7009 -3.43704 1.47711 0
M  V30 880 H 87.0339 -4.52982 1.92532 0
M  V30 881 N 88.686 -0.835752 -1.33615 0
M  V30 882 C 89.934 -0.429109 -1.97492 0
M  V30 883 C 90.255 1.01433 -1.66543 0
M  V30 884 O 89.525 1.70611 -0.962744 0
M  V30 885 H 88.105 -0.155686 -0.730596 0
M  V30 886 H 90.767 -1.06802 -1.63031 0
M  V30 887 H 89.863 -0.55861 -3.0706 0
M  V30 888 N 90.1641 1.46063 -0.591896 0
M  V30 889 C 91.3941 2.06418 -0.0867676 0
M  V30 890 C 91.8021 1.43975 1.22751 0
M  V30 891 O 91.1451 0.542531 1.75506 0
M  V30 892 C 91.2071 3.59213 0.143725 0
M  V30 893 C 90.8711 4.439 -1.08635 0
M  V30 894 C 91.8681 4.79864 -2.00067 0
M  V30 895 C 89.5531 4.84896 -1.31077 0
M  V30 896 C 91.5471 5.55661 -3.12282 0
M  V30 897 C 89.2341 5.6045 -2.43596 0
M  V30 898 C 90.2321 5.95747 -3.34027 0
M  V30 899 O 89.9201 6.69772 -4.4459 0
M  V30 900 H 89.6521 0.673443 -0.0587447 0
M  V30 901 H 92.2061 1.88539 -0.814994 0
M  V30 902 H 90.4361 3.75433 0.926668 0
M  V30 903 H 92.1251 4.01463 0.5985 0
M  V30 904 H 92.8911 4.48763 -1.83947 0
M  V30 905 H 88.7701 4.56867 -0.61594 0
M  V30 906 H 92.3141 5.8313 -3.82891 0
M  V30 907 H 88.2111 5.90965 -2.59674 0
M  V30 908 H 88.9791 6.88207 -4.43073 0
M  V30 909 N 91.6422 0.330177 1.54103 0
M  V30 910 C 92.8722 -0.271784 2.04805 0
M  V30 911 C 93.2802 -1.45816 1.20559 0
M  V30 912 O 92.6232 -1.82247 0.2306 0
M  V30 913 C 92.6852 -0.763238 3.51305 0
M  V30 914 C 92.3492 0.301705 4.56003 0
M  V30 915 C 93.3462 1.13999 5.07248 0
M  V30 916 C 91.0312 0.451793 5.00264 0
M  V30 917 C 93.0252 2.11402 6.01322 0
M  V30 918 C 90.7122 1.42924 5.94151 0
M  V30 919 C 91.7102 2.25882 6.44567 0
M  V30 920 O 91.3982 3.21965 7.3661 0
M  V30 921 H 91.1302 -0.058693 0.673447 0
M  V30 922 H 93.6842 0.476395 1.99799 0
M  V30 923 H 91.9142 -1.56244 3.5373 0
M  V30 924 H 93.6032 -1.28427 3.85047 0
M  V30 925 H 94.3692 1.03505 4.73827 0
M  V30 926 H 90.2482 -0.184044 4.60632 0
M  V30 927 H 93.7922 2.76192 6.40596 0
M  V30 928 H 89.6892 1.53479 6.26988 0
M  V30 929 H 90.4572 3.17281 7.54503 0
M  V30 930 N 93.1203 -1.57491 0.0584922 0
M  V30 931 C 94.3663 -1.93264 -0.614558 0
M  V30 932 C 94.6993 -0.937717 -1.7006 0
M  V30 933 O 93.9743 0.0351652 -1.94468 0
M  V30 934 C 94.2573 -3.3938 -1.20386 0
M  V30 935 C 94.1103 -4.49625 -0.125375 0
M  V30 936 C 95.4293 -3.86039 -2.11334 0
M  V30 937 H 92.5483 -0.702791 -0.221933 0
M  V30 938 H 95.1903 -1.8961 0.12175 0
M  V30 939 H 93.3403 -3.42626 -1.83139 0
M  V30 940 H 95.0123 -4.58506 0.506971 0
M  V30 941 H 93.2553 -4.30354 0.545672 0
M  V30 942 H 93.9263 -5.48967 -0.577861 0
M  V30 943 H 96.4023 -3.84716 -1.58534 0
M  V30 944 H 95.2783 -4.88914 -2.49507 0
M  V30 945 H 95.5393 -3.23215 -3.01636 0
M  V30 946 N 94.5984 0.214957 -1.56127 0
M  V30 947 C 95.8754 0.963093 -1.70247 0
M  V30 948 C 96.2554 2.02166 -0.60764 0
M  V30 949 O 95.6034 2.25244 0.384385 0
M  V30 950 C 95.8134 1.56756 -3.11815 0
M  V30 951 C 97.1614 2.0573 -3.7143 0
M  V30 952 O 98.1854 1.66637 -3.14818 0
M  V30 953 O 97.0444 2.77603 -4.70743 0
M  V30 954 H 94.1384 0.450321 -0.693643 0
M  V30 955 H 96.6844 0.206219 -1.68442 0
M  V30 956 H 95.4564 0.803533 -3.82961 0
M  V30 957 H 95.0794 2.3898 -3.17765 0
M  V30 958 N 96.0765 1.50051 0.48192 0
M  V30 959 C 97.3535 1.51009 1.2432 0
M  V30 960 C 97.7335 0.248587 2.09631 0
M  V30 961 O 97.0815 -0.768409 2.15192 0
M  V30 962 C 97.2915 2.79981 2.08355 0
M  V30 963 C 98.6395 3.3022 2.66908 0
M  V30 964 O 99.6635 2.81228 2.18607 0
M  V30 965 O 98.5225 4.15595 3.54884 0
M  V30 966 H 95.6165 0.605239 0.563573 0
M  V30 967 H 98.1625 1.62332 0.494627 0
M  V30 968 H 96.9345 3.63275 1.45419 0
M  V30 969 H 96.5575 2.7161 2.90368 0
M  V30 970 N 97.5546 -0.734337 1.39446 0
M  V30 971 C 98.5176 -1.83004 1.37994 0
M  V30 972 C 99.5176 -1.58397 0.276938 0
M  V30 973 O 100.708 -1.65785 0.534875 0
M  V30 974 C 97.8396 -3.20802 1.1532 0
M  V30 975 H 99.0326 -1.85694 2.35494 0
M  V30 976 H 96.5856 -0.938059 1.25021 0
M  V30 977 H 97.3206 -3.23772 0.185036 0
M  V30 978 H 97.1056 -3.4006 1.95197 0
M  V30 979 H 98.5956 -4.00862 1.17046 0
M  V30 980 N 99.0327 -1.24633 -0.964593 0
M  V30 981 C 99.9627 -1.06611 -2.07741 0
M  V30 982 C 100.944 0.0218666 -1.70086 0
M  V30 983 O 102.129 -0.145793 -1.93652 0
M  V30 984 C 99.2587 -0.673444 -3.40708 0
M  V30 985 C 98.2127 -1.71054 -3.92332 0
M  V30 986 C 97.5387 -1.17285 -5.21678 0
M  V30 987 C 98.8387 -3.10718 -4.19824 0
M  V30 988 H 100.533 -1.99693 -2.23076 0
M  V30 989 H 98.0787 -0.96152 -1.07195 0
M  V30 990 H 100.032 -0.534345 -4.17998 0
M  V30 991 H 98.7557 0.293073 -3.25282 0
M  V30 992 H 97.4147 -1.83791 -3.17201 0
M  V30 993 H 97.0627 -0.196847 -5.02615 0
M  V30 994 H 96.7627 -1.86592 -5.57187 0
M  V30 995 H 98.2867 -1.04593 -6.01575 0
M  V30 996 H 99.7007 -3.01192 -4.87808 0
M  V30 997 H 98.0977 -3.77406 -4.66567 0
M  V30 998 H 99.1677 -3.58524 -3.26479 0
M  V30 999 N 100.511 1.16574 -1.06058 0
M  V30 1000 C 101.443 2.2045 -0.627239 0
M  V30 1001 C 102.456 1.59752 0.313534 0
M  V30 1002 O 103.645 1.78192 0.104896 0
M  V30 1003 C 100.745 3.3875 0.100974 0
M  V30 1004 C 99.9178 4.29008 -0.852687 0
M  V30 1005 C 98.9768 5.25944 -0.164152 0
M  V30 1006 O 98.0028 5.63535 -0.801047 0
M  V30 1007 N 99.2048 5.70075 1.09518 0
M  V30 1008 H 101.97 2.58249 -1.52077 0
M  V30 1009 H 99.5308 1.3156 -0.943594 0
M  V30 1010 H 101.523 4.00638 0.57194 0
M  V30 1011 H 100.093 2.99476 0.89628 0
M  V30 1012 H 99.3128 3.64419 -1.50308 0
M  V30 1013 H 100.601 4.86195 -1.49972 0
M  V30 1014 H 99.9988 5.41624 1.6328 0
M  V30 1015 H 98.5558 6.34067 1.51006 0
M  V30 1016 N 101.989 0.842826 1.3317 0
M  V30 1017 C 103.237 0.439577 1.97262 0
M  V30 1018 C 103.558 -1.00548 1.67078 0
M  V30 1019 O 102.828 -1.70098 0.971779 0
M  V30 1020 H 101.408 0.159558 0.72976 0
M  V30 1021 H 104.07 1.07665 1.62463 0
M  V30 1022 H 103.166 0.574886 3.0676 0
M  V30 1023 N 103.467 -1.45747 0.599634 0
M  V30 1024 C 104.399 -2.28628 -0.161879 0
M  V30 1025 C 105.412 -1.39494 -0.839367 0
M  V30 1026 O 106.601 -1.63941 -0.706089 0
M  V30 1027 C 103.701 -3.15014 -1.24976 0
M  V30 1028 C 102.874 -4.32378 -0.660935 0
M  V30 1029 C 101.933 -5.00033 -1.63869 0
M  V30 1030 O 100.959 -5.57085 -1.1681 0
M  V30 1031 N 102.161 -4.98589 -2.97303 0
M  V30 1032 H 104.926 -2.94624 0.549265 0
M  V30 1033 H 102.487 -1.55847 0.438565 0
M  V30 1034 H 104.479 -3.5714 -1.9035 0
M  V30 1035 H 103.049 -2.5098 -1.86354 0
M  V30 1036 H 102.269 -3.9383 0.170688 0
M  V30 1037 H 103.557 -5.08197 -0.247619 0
M  V30 1038 H 102.955 -4.53514 -3.38145 0
M  V30 1039 H 101.512 -5.44603 -3.58121 0
M  V30 1040 N 104.945 -0.338344 -1.53925 0
M  V30 1041 C 106.193 0.259245 -2.0043 0
M  V30 1042 C 106.514 1.51484 -1.22791 0
M  V30 1043 O 105.784 1.93037 -0.33368 0
M  V30 1044 H 104.364 0.0987845 -0.740439 0
M  V30 1045 H 107.026 -0.458302 -1.89435 0
M  V30 1046 H 106.122 0.505334 -3.07982 0
M  V30 1047 N 106.423 1.57458 -0.0668435 0
M  V30 1048 C 107.669 1.93587 0.6043 0
M  V30 1049 C 108.002 0.946722 1.69561 0
M  V30 1050 O 107.277 -0.0248516 1.94484 0
M  V30 1051 C 107.56 3.40014 1.18585 0
M  V30 1052 C 107.413 4.49685 0.101529 0
M  V30 1053 C 108.732 3.87154 2.09284 0
M  V30 1054 H 105.851 0.703958 0.218202 0
M  V30 1055 H 108.493 1.89542 -0.131804 0
M  V30 1056 H 106.643 3.43592 1.81319 0
M  V30 1057 H 108.315 4.5823 -0.531279 0
M  V30 1058 H 106.558 4.30059 -0.568487 0
M  V30 1059 H 107.229 5.49266 0.54874 0
M  V30 1060 H 109.705 3.85551 1.56491 0
M  V30 1061 H 108.581 4.90231 2.46911 0
M  V30 1062 H 108.842 3.2481 2.99918 0
M  V30 1063 N 107.901 -0.206675 1.56239 0
M  V30 1064 C 109.131 -0.943975 1.83773 0
M  V30 1065 C 109.539 -1.77841 0.645703 0
M  V30 1066 O 108.882 -1.79403 -0.395008 0
M  V30 1067 C 108.944 -1.899 3.05251 0
M  V30 1068 C 108.608 -1.24764 4.39639 0
M  V30 1069 C 109.605 -0.630216 5.16066 0
M  V30 1070 C 107.29 -1.25496 4.8637 0
M  V30 1071 C 109.284 -0.0287946 6.37393 0
M  V30 1072 C 106.971 -0.649698 6.07637 0
M  V30 1073 C 107.969 -0.0376845 6.8299 0
M  V30 1074 O 107.657 0.55812 8.0196 0
M  V30 1075 H 107.389 -0.281508 0.614597 0
M  V30 1076 H 109.943 -0.222458 2.04192 0
M  V30 1077 H 108.173 -2.6599 2.80689 0
M  V30 1078 H 109.862 -2.5031 3.1953 0
M  V30 1079 H 110.628 -0.616785 4.81062 0
M  V30 1080 H 106.507 -1.72072 4.27683 0
M  V30 1081 H 110.051 0.449518 6.9615 0
M  V30 1082 H 105.948 -0.660592 6.42111 0
M  V30 1083 H 106.716 0.453891 8.17241 0
M  V30 1084 N 109.379 -1.50304 -0.473955 0
M  V30 1085 C 110.607 -1.64902 -1.24959 0
M  V30 1086 C 111.022 -0.331198 -1.85872 0
M  V30 1087 O 110.379 0.68652 -1.69095 0
M  V30 1088 C 110.43 -2.73803 -2.36038 0
M  V30 1089 O 110.151 -4.00477 -1.77624 0
M  V30 1090 C 111.652 -2.99349 -3.26964 0
M  V30 1091 H 108.872 -0.554383 -0.378022 0
M  V30 1092 H 111.416 -1.9651 -0.566054 0
M  V30 1093 H 109.571 -2.44898 -3.00173 0
M  V30 1094 H 109.985 -4.60678 -2.5075 0
M  V30 1095 H 111.459 -3.79217 -4.01121 0
M  V30 1096 H 111.936 -2.10307 -3.85574 0
M  V30 1097 H 112.542 -3.29774 -2.68569 0
M  V30 1098 N 110.857 0.726932 -1.39834 0
M  V30 1099 C 112.087 1.51393 -1.40583 0
M  V30 1100 C 112.495 1.892 -0.000740625 0
M  V30 1101 O 111.838 1.55189 0.982951 0
M  V30 1102 C 111.9 2.82588 -2.22226 0
M  V30 1103 C 111.564 2.67169 -3.70769 0
M  V30 1104 C 112.561 2.3518 -4.63666 0
M  V30 1105 C 110.246 2.83788 -4.14451 0
M  V30 1106 C 112.24 2.20002 -5.98229 0
M  V30 1107 C 109.927 2.68229 -5.49087 0
M  V30 1108 C 110.925 2.36382 -6.4079 0
M  V30 1109 O 110.613 2.2093 -7.72946 0
M  V30 1110 H 110.345 0.474168 -0.48181 0
M  V30 1111 H 112.899 0.905247 -1.84376 0
M  V30 1112 H 111.129 3.45746 -1.73195 0
M  V30 1113 H 112.818 3.44247 -2.15055 0
M  V30 1114 H 113.584 2.21984 -4.31217 0
M  V30 1115 H 109.463 3.07566 -3.43401 0
M  V30 1116 H 113.007 1.95067 -6.69772 0
M  V30 1117 H 108.904 2.81006 -5.81125 0
M  V30 1118 H 109.672 2.35937 -7.83757 0
M  V30 1119 N 112.336 1.25143 0.95797 0
M  V30 1120 C 113.246 1.06968 2.08794 0
M  V30 1121 C 114.262 0.00773911 1.73998 0
M  V30 1122 O 115.438 0.207972 2.00323 0
M  V30 1123 C 112.503 0.68691 3.39827 0
M  V30 1124 C 111.564 1.82641 3.88511 0
M  V30 1125 C 110.797 1.46181 5.1329 0
M  V30 1126 O 111.02 0.355971 5.69288 0
M  V30 1127 O 109.954 2.29085 5.566 0
M  V30 1128 H 113.78 2.01723 2.27027 0
M  V30 1129 H 111.365 1.04051 1.07209 0
M  V30 1130 H 113.247 0.485417 4.18595 0
M  V30 1131 H 111.922 -0.231417 3.22872 0
M  V30 1132 H 110.829 2.08274 3.10762 0
M  V30 1133 H 112.162 2.72386 4.09959 0
M  V30 1134 N 113.814 -1.1601 1.06675 0
M  V30 1135 C 115.091 -1.82679 0.699114 0
M  V30 1136 C 115.471 -1.94559 -0.819137 0
M  V30 1137 O 114.819 -1.49169 -1.73092 0
M  V30 1138 C 115.029 -3.19445 1.40555 0
M  V30 1139 C 116.377 -3.95171 1.55323 0
M  V30 1140 O 117.401 -3.28976 1.36577 0
M  V30 1141 O 116.26 -5.13833 1.86112 0
M  V30 1142 H 113.354 -0.788954 0.247951 0
M  V30 1143 H 115.9 -1.23179 1.16726 0
M  V30 1144 H 114.672 -3.05856 2.44065 0
M  V30 1145 H 114.295 -3.86625 0.927733 0
M  V30 1146 N 115.292 -0.849877 -1.32721 0
M  V30 1147 C 116.54 -0.450032 -1.97026 0
M  V30 1148 C 116.861 0.996604 -1.67609 0
M  V30 1149 O 116.131 1.6958 -0.980786 0
M  V30 1150 H 114.711 -0.163426 -0.728904 0
M  V30 1151 H 117.373 -1.08526 -1.6189 0
M  V30 1152 H 116.469 -0.591146 -3.0645 0
M  V30 1153 N 116.77 1.45427 -0.607355 0
M  V30 1154 C 118.018 2.01841 -0.102253 0
M  V30 1155 C 118.339 1.47832 1.27164 0
M  V30 1156 O 117.609 0.672497 1.83995 0
M  V30 1157 H 116.189 0.746188 -0.0348101 0
M  V30 1158 H 118.851 1.78229 -0.7887 0
M  V30 1159 H 117.947 3.12057 -0.0518585 0
M  V30 1160 N 118.248 0.346503 1.53744 0
M  V30 1161 C 119.494 -0.249473 2.0126 0
M  V30 1162 C 119.827 -1.49965 1.23386 0
M  V30 1163 O 119.102 -1.91811 0.32229 0
M  V30 1164 C 119.385 -0.560643 3.55709 0
M  V30 1165 C 119.238 0.701836 4.44291 0
M  V30 1166 C 120.557 -1.36905 4.18264 0
M  V30 1167 H 117.676 -0.0891987 0.731582 0
M  V30 1168 H 120.318 0.467624 1.84156 0
M  V30 1169 H 118.468 -1.17156 3.70414 0
M  V30 1170 H 120.14 1.33974 4.41417 0
M  V30 1171 H 118.383 1.32612 4.13033 0
M  V30 1172 H 119.054 0.43933 5.50249 0
M  V30 1173 H 121.53 -0.852448 4.07275 0
M  V30 1174 H 120.406 -1.55553 5.26398 0
M  V30 1175 H 120.667 -2.37203 3.73078 0
M  V30 1176 N 119.726 -1.57421 0.075193 0
M  V30 1177 C 120.656 -2.15942 -0.888324 0
M  V30 1178 C 121.637 -1.08737 -1.30806 0
M  V30 1179 O 122.822 -1.36787 -1.37851 0
M  V30 1180 C 119.952 -2.72379 -2.1547 0
M  V30 1181 C 118.906 -3.8478 -1.87425 0
M  V30 1182 C 118.232 -4.27834 -3.20721 0
M  V30 1183 C 119.532 -5.08869 -1.17684 0
M  V30 1184 H 121.226 -2.96705 -0.400799 0
M  V30 1185 H 118.772 -1.42723 -0.191342 0
M  V30 1186 H 120.725 -3.11965 -2.83295 0
M  V30 1187 H 119.449 -1.88841 -2.6647 0
M  V30 1188 H 118.108 -3.45703 -1.22004 0
M  V30 1189 H 117.756 -3.41214 -3.6957 0
M  V30 1190 H 117.456 -5.03605 -3.02746 0
M  V30 1191 H 118.98 -4.70039 -3.89738 0
M  V30 1192 H 120.394 -5.4575 -1.75584 0
M  V30 1193 H 118.791 -5.8994 -1.09956 0
M  V30 1194 H 119.861 -4.84648 -0.156453 0
M  V30 1195 N 121.204 0.198386 -1.56346 0
M  V30 1196 C 122.136 1.26987 -1.90806 0
M  V30 1197 C 123.149 1.41877 -0.798419 0
M  V30 1198 O 124.338 1.42362 -1.07682 0
M  V30 1199 C 121.438 2.64246 -2.12196 0
M  V30 1200 C 120.611 2.71007 -3.43328 0
M  V30 1201 C 119.67 3.89439 -3.5387 0
M  V30 1202 O 118.696 3.76695 -4.26719 0
M  V30 1203 N 119.898 5.04752 -2.86715 0
M  V30 1204 H 122.663 0.977433 -2.83313 0
M  V30 1205 H 120.224 0.388322 -1.57174 0
M  V30 1206 H 122.216 3.41896 -2.1654 0
M  V30 1207 H 120.786 2.85992 -1.26204 0
M  V30 1208 H 120.006 1.79657 -3.50881 0
M  V30 1209 H 121.294 2.72512 -4.29668 0
M  V30 1210 H 120.692 5.18004 -2.2735 0
M  V30 1211 H 119.249 5.8036 -2.96691 0
M  V30 1212 N 122.682 1.50554 0.465978 0
M  V30 1213 C 123.93 1.61479 1.21528 0
M  V30 1214 C 124.251 0.319596 1.92363 0
M  V30 1215 O 123.521 -0.663194 1.84333 0
M  V30 1216 H 122.101 0.595055 0.451573 0
M  V30 1217 H 124.763 1.87355 0.53704 0
M  V30 1218 H 123.859 2.42846 1.96042 0
M  V30 1219 N 124.16 -0.719506 1.40217 0
M  V30 1220 C 125.388 -1.50864 1.41589 0
M  V30 1221 C 125.803 -1.88794 0.0145275 0
M  V30 1222 O 125.16 -1.55174 -0.960594 0
M  V30 1223 C 125.211 -2.78646 2.30302 0
M  V30 1224 O 124.932 -2.42321 3.64983 0
M  V30 1225 C 126.433 -3.72569 2.40224 0
M  V30 1226 H 123.653 -0.465709 0.48307 0
M  V30 1227 H 126.197 -0.88785 1.84221 0
M  V30 1228 H 124.352 -3.37019 1.91042 0
M  V30 1229 H 124.766 -3.24514 4.12057 0
M  V30 1230 H 126.24 -4.5908 3.06512 0
M  V30 1231 H 126.717 -4.15403 1.42608 0
M  V30 1232 H 127.323 -3.20109 2.80019 0
M  V30 1233 N 125.638 -1.25649 -0.95132 0
M  V30 1234 C 126.868 -1.13179 -1.72841 0
M  V30 1235 C 127.276 0.316827 -1.86528 0
M  V30 1236 O 126.619 1.22948 -1.3649 0
M  V30 1237 C 126.681 -1.71644 -3.15878 0
M  V30 1238 C 126.345 -3.20667 -3.25609 0
M  V30 1239 C 127.342 -4.17616 -3.09666 0
M  V30 1240 C 125.027 -3.6094 -3.49324 0
M  V30 1241 C 127.021 -5.52817 -3.17289 0
M  V30 1242 C 124.708 -4.96278 -3.56584 0
M  V30 1243 C 125.706 -5.92025 -3.40581 0
M  V30 1244 O 125.394 -7.24899 -3.47528 0
M  V30 1245 H 125.126 -0.395389 -0.54831 0
M  V30 1246 H 127.68 -1.66566 -1.20187 0
M  V30 1247 H 125.91 -1.12707 -3.69911 0
M  V30 1248 H 127.599 -1.54225 -3.75459 0
M  V30 1249 H 128.365 -3.87842 -2.91211 0
M  V30 1250 H 124.244 -2.86907 -3.6084 0
M  V30 1251 H 127.788 -6.2753 -3.04716 0
M  V30 1252 H 123.685 -5.25716 -3.74556 0
M  V30 1253 H 124.453 -7.33039 -3.64138 0
M  V30 1254 N 127.117 1.15442 -1.07289 0
M  V30 1255 C 128.363 1.86489 -0.796846 0
M  V30 1256 C 128.696 1.82078 0.675371 0
M  V30 1257 O 127.971 1.24346 1.4956 0
M  V30 1258 C 128.254 3.35626 -1.30489 0
M  V30 1259 C 128.107 3.48673 -2.84161 0
M  V30 1260 C 129.426 4.30357 -0.920907 0
M  V30 1261 H 126.545 0.677144 -0.290939 0
M  V30 1262 H 129.187 1.35633 -1.33056 0
M  V30 1263 H 127.337 3.79068 -0.850883 0
M  V30 1264 H 129.009 3.14099 -3.37846 0
M  V30 1265 H 127.252 2.90253 -3.22391 0
M  V30 1266 H 127.923 4.53453 -3.14777 0
M  V30 1267 H 130.399 3.94871 -1.3121 0
M  V30 1268 H 129.275 5.33193 -1.30372 0
M  V30 1269 H 129.536 4.4176 0.173226 0
M  V30 1270 N 128.595 0.856903 1.32268 0
M  V30 1271 C 129.872 0.382583 1.91822 0
M  V30 1272 C 130.252 -1.13407 1.78051 0
M  V30 1273 O 129.6 -1.95673 1.18001 0
M  V30 1274 C 129.81 0.849446 3.38505 0
M  V30 1275 C 131.158 0.867936 4.15634 0
M  V30 1276 O 132.182 0.794232 3.47232 0
M  V30 1277 O 131.041 0.972286 5.37781 0
M  V30 1278 H 128.135 0.112014 0.819379 0
M  V30 1279 H 130.681 0.943952 1.41024 0
M  V30 1280 H 129.453 1.89267 3.42482 0
M  V30 1281 H 129.076 0.265652 3.96712 0
M  V30 1282 N 130.073 -1.45103 0.615059 0
M  V30 1283 C 131.321 -2.01784 0.112955 0
M  V30 1284 C 131.642 -1.48504 -1.26378 0
M  V30 1285 O 130.912 -0.682245 -1.83636 0
M  V30 1286 H 129.492 -0.745993 0.0387668 0
M  V30 1287 H 132.154 -1.77808 0.798141 0
M  V30 1288 H 131.25 -3.12025 0.0684069 0
M  V30 1289 N 131.551 -0.354651 -1.53558 0
M  V30 1290 C 132.461 0.50515 -2.29097 0
M  V30 1291 C 133.477 1.10223 -1.34636 0
M  V30 1292 O 134.653 1.11553 -1.67684 0
M  V30 1293 C 131.718 1.63479 -3.05738 0
M  V30 1294 C 130.779 1.06636 -4.15845 0
M  V30 1295 C 130.012 2.14217 -4.88822 0
M  V30 1296 O 130.235 3.35137 -4.61562 0
M  V30 1297 O 129.169 1.77887 -5.75013 0
M  V30 1298 H 132.995 -0.109237 -3.03503 0
M  V30 1299 H 130.58 -0.119357 -1.48922 0
M  V30 1300 H 132.462 2.2918 -3.5363 0
M  V30 1301 H 131.137 2.23478 -2.34178 0
M  V30 1302 H 130.044 0.373565 -3.7223 0
M  V30 1303 H 131.377 0.511081 -4.89539 0
M  V30 1304 N 133.029 1.57378 -0.0835403 0
M  V30 1305 C 133.959 2.1641 0.87686 0
M  V30 1306 C 134.94 1.09429 1.30228 0
M  V30 1307 O 136.125 1.37516 1.37124 0
M  V30 1308 C 133.255 2.73517 2.14022 0
M  V30 1309 C 132.209 3.85769 1.85381 0
M  V30 1310 C 131.535 4.29529 3.18448 0
M  V30 1311 C 132.835 5.09486 1.14984 0
M  V30 1312 H 134.529 2.96914 0.385059 0
M  V30 1313 H 132.075 1.42823 0.18377 0
M  V30 1314 H 134.028 3.13463 2.81636 0
M  V30 1315 H 132.752 1.90252 2.65465 0
M  V30 1316 H 131.411 3.46345 1.20169 0
M  V30 1317 H 131.059 3.43169 3.67755 0
M  V30 1318 H 130.759 5.05204 3.00071 0
M  V30 1319 H 132.283 4.72099 3.8724 0
M  V30 1320 H 133.697 5.46674 1.72687 0
M  V30 1321 H 132.094 5.90515 1.06826 0
M  V30 1322 H 133.164 4.84724 0.130749 0
M  V30 1323 N 134.507 -0.190092 1.56449 0
M  V30 1324 C 135.455 -1.25501 1.95837 0
M  V30 1325 C 136.449 -1.4685 0.844485 0
M  V30 1326 O 137.655 -1.47651 1.02952 0
M  V30 1327 H 134.03 -0.421447 0.622805 0
M  V30 1328 H 136.001 -0.895821 2.84636 0
M  V30 1329 C 134.75 -2.59124 2.31841 0
M  V30 1330 H 134.073 -2.43514 3.17082 0
M  V30 1331 H 135.513 -3.32371 2.6326 0
M  V30 1332 C 133.972 -3.16488 1.15486 0
M  V30 1333 O 134.502 -3.99365 0.432535 0
M  V30 1334 N 132.708 -2.75305 0.930349 0
M  V30 1335 H 132.255 -2.08013 1.51948 0
M  V30 1336 H 132.213 -3.14024 0.153634 0
M  V30 1337 N 135.985 -1.50799 -0.457987 0
M  V30 1338 C 137.233 -1.62121 -1.2067 0
M  V30 1339 C 137.554 -0.329793 -1.92191 0
M  V30 1340 O 136.824 0.653409 -1.84682 0
M  V30 1341 H 135.404 -0.597441 -0.448411 0
M  V30 1342 H 138.066 -1.87637 -0.527096 0
M  V30 1343 H 137.162 -2.43882 -1.94751 0
M  V30 1344 N 137.463 0.71206 -1.40597 0
M  V30 1345 C 138.874 1.29135 -1.34837 0
M  V30 1346 C 139.225 1.96186 -0.0235395 0
M  V30 1347 O 138.35 1.97768 0.878444 0
M  V30 1348 C 138.945 2.34827 -2.44217 0
M  V30 1349 C 137.504 2.88371 -2.41907 0
M  V30 1350 C 136.651 1.62202 -2.24913 0
M  V30 1351 H 139.602 0.507944 -1.50352 0
M  V30 1352 H 139.623 3.15749 -2.12327 0
M  V30 1353 H 139.135 1.85996 -3.40627 0
M  V30 1354 H 137.236 3.41422 -1.49204 0
M  V30 1355 H 137.349 3.39925 -3.37621 0
M  V30 1356 H 135.713 1.874 -1.72492 0
M  V30 1357 H 136.496 1.15391 -3.23326 0
M  V30 1358 N 138.941 1.26152 0.944643 0
M  V30 1359 C 139.904 1.07474 2.0244 0
M  V30 1360 C 140.904 0.0242064 1.60782 0
M  V30 1361 O 142.094 0.267302 1.72137 0
M  V30 1362 C 139.226 0.633956 3.34953 0
M  V30 1363 H 140.419 2.03336 2.20442 0
M  V30 1364 H 137.972 1.087 1.12312 0
M  V30 1365 H 138.707 -0.326811 3.22649 0
M  V30 1366 H 138.492 1.39247 3.66542 0
M  V30 1367 H 139.982 0.52501 4.14287 0
M  V30 1368 N 140.419 -1.14872 1.07899 0
M  V30 1369 C 141.351 -2.19425 0.662231 0
M  V30 1370 C 142.364 -1.60231 -0.288079 0
M  V30 1371 O 143.553 -1.78336 -0.076534 0
M  V30 1372 C 140.653 -3.38867 -0.0470695 0
M  V30 1373 C 139.826 -4.27597 0.920831 0
M  V30 1374 C 138.885 -5.25616 0.247805 0
M  V30 1375 O 137.911 -5.62189 0.890599 0
M  V30 1376 N 139.113 -5.71746 -1.00435 0
M  V30 1377 H 141.878 -2.55797 1.56166 0
M  V30 1378 H 139.439 -1.30042 0.964404 0
M  V30 1379 H 141.431 -4.01497 -0.50813 0
M  V30 1380 H 140.001 -3.00864 -0.848523 0
M  V30 1381 H 139.221 -3.61982 1.56087 0
M  V30 1382 H 140.509 -4.83748 1.57688 0
M  V30 1383 H 139.907 -5.44153 -1.54642 0
M  V30 1384 H 138.464 -6.36389 -1.40899 0
M  V30 1385 N 141.898 -0.863906 -1.31812 0
M  V30 1386 C 142.808 -0.318461 -2.32428 0
M  V30 1387 C 143.824 0.568496 -1.64451 0
M  V30 1388 O 145 0.46666 -1.95919 0
M  V30 1389 C 142.065 0.476355 -3.43412 0
M  V30 1390 C 141.126 -0.43784 -4.27061 0
M  V30 1391 C 140.359 0.319138 -5.32745 0
M  V30 1392 O 140.582 1.54799 -5.48993 0
M  V30 1393 O 139.516 -0.319861 -6.01049 0
M  V30 1394 H 143.342 -1.15229 -2.80991 0
M  V30 1395 H 140.927 -0.627103 -1.35602 0
M  V30 1396 H 142.809 0.927156 -4.11074 0
M  V30 1397 H 141.484 1.28683 -2.97022 0
M  V30 1398 H 140.391 -0.937013 -3.62175 0
M  V30 1399 H 141.724 -1.21375 -4.77 0
M  V30 1400 N 143.376 1.44774 -0.622745 0
M  V30 1401 C 144.606 2.06187 -0.130532 0
M  V30 1402 C 145.014 1.46547 1.19669 0
M  V30 1403 O 144.357 0.579636 1.74316 0
M  V30 1404 C 144.419 3.59437 0.0674983 0
M  V30 1405 C 144.083 4.41496 -1.18026 0
M  V30 1406 C 145.08 4.75512 -2.102 0
M  V30 1407 C 142.765 4.82007 -1.41333 0
M  V30 1408 C 144.759 5.48912 -3.23998 0
M  V30 1409 C 142.446 5.55157 -2.55429 0
M  V30 1410 C 143.444 5.88528 -3.46589 0
M  V30 1411 O 143.132 6.60191 -4.58697 0
M  V30 1412 H 142.864 0.672045 -0.0730162 0
M  V30 1413 H 145.418 1.86768 -0.854802 0
M  V30 1414 H 143.648 3.77314 0.846825 0
M  V30 1415 H 145.337 4.02642 0.513209 0
M  V30 1416 H 146.103 4.4476 -1.93425 0
M  V30 1417 H 141.982 4.55457 -0.712709 0
M  V30 1418 H 145.526 5.74877 -3.95174 0
M  V30 1419 H 141.423 5.85324 -2.72151 0
M  V30 1420 H 142.191 6.78654 -4.57571 0
M  V30 1421 N 144.854 0.36279 1.53368 0
M  V30 1422 C 146.131 -0.284021 1.93527 0
M  V30 1423 C 146.511 -1.66628 1.29608 0
M  V30 1424 O 145.859 -2.23942 0.45413 0
M  V30 1425 C 146.069 -0.337028 3.47369 0
M  V30 1426 C 147.417 -0.578708 4.20638 0
M  V30 1427 O 148.441 -0.418352 3.53735 0
M  V30 1428 O 147.3 -0.89074 5.39192 0
M  V30 1429 H 144.394 -0.169743 0.809393 0
M  V30 1430 H 146.94 0.41537 1.64538 0
M  V30 1431 H 145.712 0.632217 3.86159 0
M  V30 1432 H 145.335 -1.08243 3.82582 0
M  V30 1433 N 146.332 -1.57332 0.0918853 0
M  V30 1434 C 147.56 -1.98574 -0.581048 0
M  V30 1435 C 147.975 -0.970903 -1.61923 0
M  V30 1436 O 147.332 0.0399054 -1.82456 0
M  V30 1437 C 147.383 -3.39872 -1.23164 0
M  V30 1438 O 147.104 -4.37469 -0.234989 0
M  V30 1439 C 148.605 -3.96099 -1.99049 0
M  V30 1440 H 145.825 -0.65261 -0.156018 0
M  V30 1441 H 148.369 -2.0379 0.170225 0
M  V30 1442 H 146.524 -3.35679 -1.93386 0
M  V30 1443 H 146.938 -5.19751 -0.70418 0
M  V30 1444 H 148.412 -4.97127 -2.39934 0
M  V30 1445 H 148.889 -3.3374 -2.85507 0
M  V30 1446 H 149.495 -4.03755 -1.3365 0
M  V30 1447 N 147.81 0.181792 -1.56548 0
M  V30 1448 C 149.087 0.926765 -1.72251 0
M  V30 1449 C 149.467 2.00831 -0.650386 0
M  V30 1450 O 148.815 2.26008 0.336521 0
M  V30 1451 C 149.025 1.50106 -3.1507 0
M  V30 1452 C 150.373 1.97805 -3.75711 0
M  V30 1453 O 151.397 1.59922 -3.18282 0
M  V30 1454 O 150.256 2.67555 -4.76525 0
M  V30 1455 H 147.35 0.435506 -0.703039 0
M  V30 1456 H 149.896 0.170443 -1.68842 0
M  V30 1457 H 148.668 0.72212 -3.84579 0
M  V30 1458 H 148.291 2.32186 -3.22763 0
M  V30 1459 N 149.288 1.51039 0.449983 0
M  V30 1460 C 150.536 1.62759 1.19808 0
M  V30 1461 C 150.857 0.339981 1.92013 0
M  V30 1462 O 150.127 -0.643606 1.85026 0
M  V30 1463 H 148.707 0.599811 0.445237 0
M  V30 1464 H 151.369 1.87914 0.517138 0
M  V30 1465 H 150.465 2.44911 1.93455 0
M  V30 1466 N 150.766 -0.704594 1.40972 0
M  V30 1467 C 152.182 -1.01406 1.23244 0
M  V30 1468 C 152.382 -2.01169 0.115399 0
M  V30 1469 O 151.438 -2.47021 -0.523147 0
M  V30 1470 C 152.751 -1.54728 2.57836 0
M  V30 1471 C 154.299 -1.66658 2.64942 0
M  V30 1472 C 154.774 -2.23383 3.9983 0
M  V30 1473 N 156.265 -2.30756 4.01629 0
M  V30 1474 C 157 -2.75655 5.02794 0
M  V30 1475 N 156.496 -3.20225 6.14352 0
M  V30 1476 N 158.289 -2.75138 4.90159 0
M  V30 1477 H 150.44 -0.0435285 2.12355 0
M  V30 1478 H 152.703 -0.0818951 0.944456 0
M  V30 1479 H 152.409 -0.888832 3.40283 0
M  V30 1480 H 152.283 -2.53084 2.79693 0
M  V30 1481 H 154.67 -2.31617 1.8286 0
M  V30 1482 H 154.751 -0.668717 2.46904 0
M  V30 1483 H 154.395 -1.59043 4.82357 0
M  V30 1484 H 154.325 -3.23904 4.15203 0
M  V30 1485 H 156.816 -1.99291 3.21079 0
M  V30 1486 H 157.129 -3.53084 6.87424 0
M  V30 1487 H 155.474 -3.18156 6.17901 0
M  V30 1488 H 158.665 -2.39661 4.02095 0
M  V30 1489 H 158.838 -3.09812 5.6914 0
M  V30 1490 N 152.244 -1.26651 -0.937939 0
M  V30 1491 C 153.174 -1.10993 -2.05433 0
M  V30 1492 C 154.155 -0.0142161 -1.70094 0
M  V30 1493 O 155.34 -0.186837 -1.93299 0
M  V30 1494 C 152.47 -0.745561 -3.39203 0
M  V30 1495 C 151.424 -1.79337 -3.88616 0
M  V30 1496 C 150.75 -1.28324 -5.19073 0
M  V30 1497 C 152.05 -3.19553 -4.13138 0
M  V30 1498 H 153.744 -2.0438 -2.1879 0
M  V30 1499 H 151.29 -0.984041 -1.05131 0
M  V30 1500 H 153.243 -0.622888 -4.16771 0
M  V30 1501 H 151.967 0.22401 -3.25831 0
M  V30 1502 H 150.626 -1.90477 -3.13231 0
M  V30 1503 H 150.274 -0.303414 -5.02084 0
M  V30 1504 H 149.974 -1.98369 -5.53103 0
M  V30 1505 H 151.498 -1.1733 -5.99221 0
M  V30 1506 H 152.912 -3.11471 -4.81309 0
M  V30 1507 H 151.309 -3.87218 -4.58457 0
M  V30 1508 H 152.379 -3.65368 -3.18801 0
M  V30 1509 N 153.722 1.14298 -1.08507 0
M  V30 1510 C 154.971 1.84708 -0.810305 0
M  V30 1511 C 155.284 1.83903 0.666271 0
M  V30 1512 O 156.49 2.50112 1.05624 0
M  V30 1513 C 154.946 3.31572 -1.39957 0
M  V30 1514 C 154.554 3.40791 -2.90801 0
M  V30 1515 C 156.298 4.07087 -1.20334 0
M  V30 1516 C 154.205 4.81872 -3.4286 0
M  V30 1517 H 153.135 0.691985 -0.299454 0
M  V30 1518 H 155.786 1.28841 -1.30661 0
M  V30 1519 H 154.168 3.87183 -0.830976 0
M  V30 1520 H 155.342 2.95225 -3.53806 0
M  V30 1521 H 153.657 2.78732 -3.0935 0
M  V30 1522 H 156.254 5.11225 -1.56693 0
M  V30 1523 H 156.597 4.16054 -0.143237 0
M  V30 1524 H 157.13 3.57779 -1.73893 0
M  V30 1525 H 153.869 4.78094 -4.48449 0
M  V30 1526 H 153.389 5.27972 -2.84615 0
M  V30 1527 H 155.068 5.50765 -3.39509 0
M  V30 1528 N 155.201 0.870884 1.31352 0
M  V30 1529 C 156.448 0.482273 1.96673 0
M  V30 1530 C 156.776 -0.965638 1.68836 0
M  V30 1531 O 156.031 -1.69514 0.977937 0
M  V30 1532 C 156.33 0.687157 3.50732 0
M  V30 1533 C 155.996 2.108 3.9859 0
M  V30 1534 C 154.658 2.49656 4.1137 0
M  V30 1535 C 157.01 3.03459 4.23748 0
M  V30 1536 C 154.338 3.80412 4.46659 0
M  V30 1537 C 156.69 4.3373 4.60501 0
M  V30 1538 C 155.354 4.725 4.71487 0
M  V30 1539 H 154.624 0.176476 0.719679 0
M  V30 1540 H 157.271 1.10405 1.56471 0
M  V30 1541 H 155.576 -0.0177476 3.91796 0
M  V30 1542 H 157.273 0.366284 3.99324 0
M  V30 1543 H 153.863 1.79633 3.8914 0
M  V30 1544 H 158.047 2.74665 4.13368 0
M  V30 1545 H 153.303 4.1021 4.53362 0
M  V30 1546 H 157.477 5.05578 4.78919 0
M  V30 1547 H 155.104 5.73859 4.98588 0
M  V30 1548 N 156.679 -1.44442 0.630414 0
M  V30 1549 C 157.626 -2.30678 -0.0749355 0
M  V30 1550 C 158.596 -1.4344 -0.837502 0
M  V30 1551 O 159.781 -1.72343 -0.818684 0
M  V30 1552 C 156.921 -3.28706 -1.05103 0
M  V30 1553 C 156.034 -4.31046 -0.286954 0
M  V30 1554 C 155.169 -5.16167 -1.2548 0
M  V30 1555 C 154.208 -6.10216 -0.479843 0
M  V30 1556 N 153.345 -6.88039 -1.39811 0
M  V30 1557 H 158.185 -2.90454 0.666386 0
M  V30 1558 H 155.722 -1.43107 0.340404 0
M  V30 1559 H 157.68 -3.84027 -1.63031 0
M  V30 1560 H 156.31 -2.70632 -1.75949 0
M  V30 1561 H 155.362 -3.78203 0.408243 0
M  V30 1562 H 156.674 -4.97794 0.316657 0
M  V30 1563 H 155.828 -5.76002 -1.90544 0
M  V30 1564 H 154.567 -4.49491 -1.89233 0
M  V30 1565 H 153.572 -5.49491 0.184295 0
M  V30 1566 H 154.797 -6.78928 0.152965 0
M  V30 1567 H 152.743 -6.24032 -2.02287 0
M  V30 1568 H 152.66 -7.51223 -0.848508 0
M  V30 1569 H 153.928 -7.52397 -2.03762 0
M  V30 1570 N 158.157 -0.370918 -1.53173 0
M  V30 1571 C 159.405 0.216673 -2.00935 0
M  V30 1572 C 159.726 1.48845 -1.25977 0
M  V30 1573 O 158.996 1.92286 -0.374551 0
M  V30 1574 H 157.576 0.0830565 -0.742368 0
M  V30 1575 H 160.238 -0.49838 -1.8842 0
M  V30 1576 H 159.334 0.439893 -3.08984 0
M  V30 1577 N 159.635 1.57281 -0.100228 0
M  V30 1578 C 160.567 2.11342 0.886972 0
M  V30 1579 C 161.58 1.05182 1.24261 0
M  V30 1580 O 162.769 1.32613 1.19483 0
M  V30 1581 C 159.869 2.5825 2.19454 0
M  V30 1582 C 159.042 3.88302 2.01346 0
M  V30 1583 C 158.101 4.21004 3.15661 0
M  V30 1584 O 157.127 4.9014 2.89398 0
M  V30 1585 N 158.329 3.76818 4.41575 0
M  V30 1586 H 161.094 2.96668 0.425216 0
M  V30 1587 H 158.655 1.61678 0.0847334 0
M  V30 1588 H 160.647 2.7717 2.94888 0
M  V30 1589 H 159.217 1.77907 2.57037 0
M  V30 1590 H 158.437 3.7848 1.10212 0
M  V30 1591 H 159.725 4.73375 1.8653 0
M  V30 1592 H 159.123 3.2102 4.65792 0
M  V30 1593 H 157.68 4.00882 5.13942 0
M  V30 1594 N 161.113 -0.173488 1.56642 0
M  V30 1595 C 162.343 -0.904781 1.85734 0
M  V30 1596 C 162.751 -1.76431 0.68328 0
M  V30 1597 O 162.094 -1.802 -0.356865 0
M  V30 1598 C 162.156 -1.83382 3.09211 0
M  V30 1599 C 161.82 -1.15411 4.42187 0
M  V30 1600 C 162.817 -0.520609 5.17287 0
M  V30 1601 C 160.502 -1.15151 4.88923 0
M  V30 1602 C 162.496 0.106412 6.37311 0
M  V30 1603 C 160.183 -0.520664 6.08878 0
M  V30 1604 C 161.181 0.107196 6.82916 0
M  V30 1605 O 160.869 0.728102 8.00596 0
M  V30 1606 H 160.601 -0.268408 0.62043 0
M  V30 1607 H 163.155 -0.179096 2.04618 0
M  V30 1608 H 161.385 -2.59976 2.86268 0
M  V30 1609 H 163.074 -2.43476 3.24768 0
M  V30 1610 H 163.84 -0.514606 4.82262 0
M  V30 1611 H 159.719 -1.62961 4.31236 0
M  V30 1612 H 163.263 0.597081 6.9504 0
M  V30 1613 H 159.16 -0.524242 6.43368 0
M  V30 1614 H 159.928 0.627138 8.16094 0
M  V30 1615 N 162.591 -1.51276 -0.441967 0
M  V30 1616 C 163.538 -1.72256 -1.53612 0
M  V30 1617 C 164.508 -0.564164 -1.56225 0
M  V30 1618 O 165.693 -0.798074 -1.73307 0
M  V30 1619 C 162.833 -1.84932 -2.91366 0
M  V30 1620 C 161.946 -3.12459 -2.98317 0
M  V30 1621 C 161.081 -3.15758 -4.27166 0
M  V30 1622 C 160.12 -4.37619 -4.27967 0
M  V30 1623 N 159.257 -4.38493 -5.48333 0
M  V30 1624 H 164.097 -2.65654 -1.35026 0
M  V30 1625 H 161.634 -1.31662 -0.656009 0
M  V30 1626 H 163.592 -1.90263 -3.7129 0
M  V30 1627 H 162.222 -0.949461 -3.08521 0
M  V30 1628 H 161.274 -3.1646 -2.11086 0
M  V30 1629 H 162.586 -4.02382 -2.94771 0
M  V30 1630 H 161.74 -3.19979 -5.15459 0
M  V30 1631 H 160.479 -2.23715 -4.33362 0
M  V30 1632 H 159.484 -4.33579 -3.38067 0
M  V30 1633 H 160.709 -5.30921 -4.23438 0
M  V30 1634 H 158.655 -3.49318 -5.55259 0
M  V30 1635 H 158.572 -5.22219 -5.46647 0
M  V30 1636 H 159.84 -4.469 -6.38671 0
M  V30 1637 N 164.069 0.697108 -1.41344 0
M  V30 1638 C 165.346 1.45154 -1.31109 0
M  V30 1639 C 165.726 2.11009 0.0620449 0
M  V30 1640 O 165.074 2.01571 1.07618 0
M  V30 1641 C 165.284 2.47223 -2.46337 0
M  V30 1642 C 166.632 3.1252 -2.87431 0
M  V30 1643 O 167.656 2.57547 -2.46065 0
M  V30 1644 O 166.515 4.12083 -3.58957 0
M  V30 1645 H 163.609 0.646365 -0.515889 0
M  V30 1646 H 166.155 0.727716 -1.53305 0
M  V30 1647 H 164.927 1.97204 -3.37974 0
M  V30 1648 H 164.55 3.27116 -2.2601 0
M  V30 1649 N 165.547 1.27147 0.931209 0
M  V30 1650 C 166.495 1.09398 2.05268 0
M  V30 1651 C 167.489 0.0180591 1.6939 0
M  V30 1652 O 168.695 0.17551 1.79142 0
M  V30 1653 H 165.07 0.336986 0.672268 0
M  V30 1654 H 167.041 2.04416 2.17386 0
M  V30 1655 C 165.79 0.75424 3.39421 0
M  V30 1656 H 165.113 1.57404 3.67511 0
M  V30 1657 H 166.553 0.669903 4.18674 0
M  V30 1658 C 165.012 -0.541197 3.32525 0
M  V30 1659 O 165.542 -1.57664 3.69466 0
M  V30 1660 N 163.748 -0.535517 2.85623 0
M  V30 1661 H 163.295 0.307511 2.55758 0
M  V30 1662 H 163.253 -1.40236 2.81392 0
M  V30 1663 N 167.025 -1.13721 1.09112 0
M  V30 1664 C 168.274 -1.84275 0.82009 0
M  V30 1665 C 168.587 -1.84253 -0.656509 0
M  V30 1666 O 169.793 -2.50668 -1.04296 0
M  V30 1667 C 168.249 -3.30825 1.41714 0
M  V30 1668 C 167.857 -3.39244 2.92605 0
M  V30 1669 C 169.601 -4.06443 1.22492 0
M  V30 1670 C 167.508 -4.80047 3.45411 0
M  V30 1671 H 166.438 -0.690387 0.30312 0
M  V30 1672 H 169.089 -1.28146 1.31343 0
M  V30 1673 H 167.471 -3.86737 0.851498 0
M  V30 1674 H 168.645 -2.93344 3.55367 0
M  V30 1675 H 166.96 -2.77088 3.10823 0
M  V30 1676 H 169.557 -5.10387 1.59402 0
M  V30 1677 H 169.9 -4.15972 0.165299 0
M  V30 1678 H 170.433 -3.56852 1.75788 0
M  V30 1679 H 167.172 -4.75709 4.50978 0
M  V30 1680 H 166.692 -5.26455 2.87411 0
M  V30 1681 H 168.371 -5.48957 3.42425 0
M  V30 1682 N 168.503 -0.877838 -1.30888 0
M  V30 1683 C 169.919 -0.570844 -1.49042 0
M  V30 1684 C 170.119 0.893159 -1.80624 0
M  V30 1685 O 169.175 1.67485 -1.88958 0
M  V30 1686 C 170.488 -1.47784 -2.61878 0
M  V30 1687 C 172.036 -1.48071 -2.75761 0
M  V30 1688 C 172.511 -2.37347 -3.91702 0
M  V30 1689 N 174.002 -2.35271 -3.99001 0
M  V30 1690 C 174.737 -3.01063 -4.88004 0
M  V30 1691 N 174.233 -3.76055 -5.81854 0
M  V30 1692 N 176.026 -2.90332 -4.81315 0
M  V30 1693 H 168.177 -1.82502 -1.0866 0
M  V30 1694 H 170.44 -0.780797 -0.537644 0
M  V30 1695 H 170.146 -2.51993 -2.45341 0
M  V30 1696 H 170.02 -1.18215 -3.58197 0
M  V30 1697 H 172.407 -0.446166 -2.91708 0
M  V30 1698 H 172.488 -1.81668 -1.80085 0
M  V30 1699 H 172.132 -3.40883 -3.76512 0
M  V30 1700 H 172.062 -2.01071 -4.86701 0
M  V30 1701 H 174.553 -1.80768 -3.3186 0
M  V30 1702 H 174.866 -4.23366 -6.46514 0
M  V30 1703 H 173.211 -3.80163 -5.81808 0
M  V30 1704 H 176.402 -2.31278 -4.06974 0
M  V30 1705 H 176.575 -3.41885 -5.50471 0
M  V30 1706 N 169.982 1.44106 -0.638065 0
M  V30 1707 C 170.932 2.27843 0.0847285 0
M  V30 1708 C 171.916 1.39055 0.809471 0
M  V30 1709 O 173.108 1.62808 0.694435 0
M  V30 1710 C 170.237 3.26497 1.06089 0
M  V30 1711 C 169.323 4.22772 0.33541 0
M  V30 1712 N 169.714 5.01737 -0.639787 0
M  V30 1713 C 168.012 4.42227 0.578921 0
M  V30 1714 C 168.713 5.71792 -1.06904 0
M  V30 1715 N 167.689 5.42079 -0.406395 0
M  V30 1716 H 171.491 2.86305 -0.663814 0
M  V30 1717 H 169.005 1.55627 -0.464122 0
M  V30 1718 H 171.002 3.8525 1.59337 0
M  V30 1719 H 169.662 2.69595 1.80966 0
M  V30 1720 H 170.673 5.07799 -1.01789 0
M  V30 1721 H 167.35 3.96415 1.31003 0
M  V30 1722 H 168.74 6.45205 -1.8751 0
M  V30 1723 N 171.46 0.379036 1.52974 0
M  V30 1724 C 172.708 -0.206014 2.01047 0
M  V30 1725 C 173.029 -1.48175 1.26765 0
M  V30 1726 O 172.299 -1.92085 0.384743 0
M  V30 1727 H 170.879 -0.0791184 0.742798 0
M  V30 1728 H 173.541 0.508366 1.88153 0
M  V30 1729 H 172.637 -0.423501 3.09213 0
M  V30 1730 N 172.938 -1.57226 0.108567 0
M  V30 1731 C 174.184 -1.95121 -0.552761 0
M  V30 1732 C 174.517 -0.991345 -1.66991 0
M  V30 1733 O 173.792 -0.0267211 -1.94482 0
M  V30 1734 C 174.075 -3.43039 -1.09528 0
M  V30 1735 C 173.928 -4.49797 0.0177332 0
M  V30 1736 C 175.247 -3.92567 -1.98945 0
M  V30 1737 H 172.366 -0.709496 -0.199461 0
M  V30 1738 H 175.008 -1.89126 0.182011 0
M  V30 1739 H 173.158 -3.48279 -1.72146 0
M  V30 1740 H 174.83 -4.56661 0.652584 0
M  V30 1741 H 173.073 -4.284 0.682309 0
M  V30 1742 H 173.744 -5.50528 -0.402919 0
M  V30 1743 H 176.22 -3.89565 -1.46214 0
M  V30 1744 H 175.096 -4.96605 -2.33827 0
M  V30 1745 H 175.357 -3.32648 -2.91201 0
M  V30 1746 N 174.416 0.165178 -1.56732 0
M  V30 1747 C 175.656 0.887231 -1.8414 0
M  V30 1748 C 176.02 1.79159 -0.690353 0
M  V30 1749 O 177.221 2.55172 -0.845032 0
M  V30 1750 C 175.492 1.65674 -3.16681 0
M  V30 1751 S 177.051 2.42671 -3.6559 0
M  V30 1752 H 173.869 0.297042 -0.645978 0
M  V30 1753 H 176.471 0.148439 -1.94936 0
M  V30 1754 H 175.175 0.983507 -3.98441 0
M  V30 1755 H 174.706 2.43679 -3.08843 0
M  V30 1756 H 176.721 3.67499 -3.33406 0
M  V30 1757 N 175.894 1.51508 0.433938 0
M  V30 1758 C 177.14 1.65549 1.18173 0
M  V30 1759 C 177.495 0.368751 1.88833 0
M  V30 1760 O 176.788 -0.635616 1.8075 0
M  V30 1761 C 176.982 2.79928 2.22205 0
M  V30 1762 C 176.811 4.19601 1.61756 0
M  V30 1763 C 175.581 4.85489 1.40101 0
M  V30 1764 C 177.779 5.02574 1.09194 0
M  V30 1765 N 175.761 6.09266 0.752859 0
M  V30 1766 C 177.132 6.17381 0.569255 0
M  V30 1767 C 179.187 4.88079 0.984025 0
M  V30 1768 C 177.89 7.19282 -0.0507472 0
M  V30 1769 C 179.916 5.90191 0.377912 0
M  V30 1770 C 179.278 7.04272 -0.134216 0
M  V30 1771 H 175.377 0.659653 0.419979 0
M  V30 1772 H 177.961 1.88746 0.477818 0
M  V30 1773 H 176.132 2.5839 2.89982 0
M  V30 1774 H 177.864 2.83132 2.89168 0
M  V30 1775 H 174.619 4.43417 1.66369 0
M  V30 1776 H 175.043 6.75528 0.446123 0
M  V30 1777 H 179.685 4.00131 1.36583 0
M  V30 1778 H 177.403 8.06876 -0.444676 0
M  V30 1779 H 180.989 5.81045 0.296269 0
M  V30 1780 H 179.869 7.81933 -0.59585 0
M  V30 1781 N 177.372 -0.689602 1.41712 0
M  V30 1782 C 178.621 -1.44534 1.40686 0
M  V30 1783 C 178.934 -1.95588 0.0213352 0
M  V30 1784 O 180.14 -2.71271 -0.111534 0
M  V30 1785 C 178.596 -2.61387 2.47396 0
M  V30 1786 C 178.204 -2.17094 3.91885 0
M  V30 1787 C 179.948 -3.38986 2.55517 0
M  V30 1788 C 177.855 -3.3094 4.90135 0
M  V30 1789 H 176.785 -0.542925 0.52321 0
M  V30 1790 H 179.436 -0.748054 1.6756 0
M  V30 1791 H 177.818 -3.33412 2.13664 0
M  V30 1792 H 178.992 -1.52318 4.34897 0
M  V30 1793 H 177.307 -1.52473 3.8748 0
M  V30 1794 H 179.904 -4.23747 3.26102 0
M  V30 1795 H 180.247 -3.84578 1.59391 0
M  V30 1796 H 180.78 -2.74021 2.8837 0
M  V30 1797 H 177.519 -2.90355 5.87685 0
M  V30 1798 H 177.039 -3.94546 4.51767 0
M  V30 1799 H 178.718 -3.9663 5.11169 0
M  V30 1800 N 178.85 -1.27639 -0.924453 0
M  V30 1801 C 180.08 -1.16819 -1.70402 0
M  V30 1802 C 180.488 0.277191 -1.87158 0
M  V30 1803 O 179.831 1.20025 -1.39067 0
M  V30 1804 C 179.893 -1.78305 -3.12166 0
M  V30 1805 C 179.557 -3.27502 -3.18734 0
M  V30 1806 C 180.554 -4.2409 -3.00738 0
M  V30 1807 C 178.239 -3.68269 -3.4159 0
M  V30 1808 C 180.233 -5.59422 -3.05492 0
M  V30 1809 C 177.92 -5.0373 -3.45977 0
M  V30 1810 C 178.918 -5.99116 -3.27946 0
M  V30 1811 O 178.606 -7.32108 -3.32074 0
M  V30 1812 H 178.338 -0.406931 -0.539799 0
M  V30 1813 H 180.892 -1.69078 -1.16626 0
M  V30 1814 H 179.122 -1.20528 -3.67437 0
M  V30 1815 H 180.811 -1.62154 -3.72103 0
M  V30 1816 H 181.577 -3.93931 -2.82919 0
M  V30 1817 H 177.456 -2.94496 -3.54673 0
M  V30 1818 H 181 -6.33852 -2.91337 0
M  V30 1819 H 176.897 -5.33543 -3.63321 0
M  V30 1820 H 177.665 -7.40598 -3.48507 0
M  V30 1821 N 180.328 1.1314 -1.09713 0
M  V30 1822 C 181.558 1.88048 -0.855656 0
M  V30 1823 C 181.966 1.79537 0.596919 0
M  V30 1824 O 181.309 1.16196 1.42282 0
M  V30 1825 C 181.371 3.38314 -1.21589 0
M  V30 1826 C 181.035 3.70605 -2.67397 0
M  V30 1827 C 182.032 3.69596 -3.65643 0
M  V30 1828 C 179.717 4.0017 -3.03593 0
M  V30 1829 C 181.711 3.977 -4.9811 0
M  V30 1830 C 179.398 4.27935 -4.36251 0
M  V30 1831 C 180.396 4.26685 -5.33318 0
M  V30 1832 O 180.084 4.53767 -6.63589 0
M  V30 1833 H 179.816 0.60208 -0.307368 0
M  V30 1834 H 182.37 1.44128 -1.46343 0
M  V30 1835 H 180.6 3.82752 -0.551177 0
M  V30 1836 H 182.289 3.94552 -0.953083 0
M  V30 1837 H 183.055 3.46826 -3.39023 0
M  V30 1838 H 178.934 4.00289 -2.2867 0
M  V30 1839 H 182.478 3.9664 -5.73866 0
M  V30 1840 H 178.375 4.50178 -4.62613 0
M  V30 1841 H 179.143 4.71422 -6.69107 0
M  V30 1842 N 181.806 0.884767 1.30421 0
M  V30 1843 C 183.217 0.553656 1.78302 0
M  V30 1844 C 183.568 -0.930153 1.7275 0
M  V30 1845 O 182.693 -1.72681 1.30423 0
M  V30 1846 C 183.288 0.998234 3.2376 0
M  V30 1847 C 181.847 0.71854 3.69478 0
M  V30 1848 C 180.994 1.18132 2.50879 0
M  V30 1849 H 183.945 1.06901 1.17294 0
M  V30 1850 H 183.966 0.327118 3.79091 0
M  V30 1851 H 183.478 2.0782 3.27769 0
M  V30 1852 H 181.579 -0.349444 3.70958 0
M  V30 1853 H 181.692 1.30595 4.60958 0
M  V30 1854 H 180.056 0.600669 2.47516 0
M  V30 1855 H 180.839 2.26902 2.57624 0
M  V30 1856 N 183.284 -1.43765 0.645699 0
M  V30 1857 C 184.561 -1.9541 0.0862963 0
M  V30 1858 C 184.941 -1.58725 -1.39175 0
M  V30 1859 O 184.289 -0.868581 -2.11348 0
M  V30 1860 C 184.499 -3.47488 0.324565 0
M  V30 1861 C 185.847 -4.24001 0.225497 0
M  V30 1862 O 186.871 -3.55274 0.256715 0
M  V30 1863 O 185.73 -5.46313 0.142801 0
M  V30 1864 H 182.824 -0.826882 -0.0139483 0
M  V30 1865 H 185.37 -1.53743 0.718415 0
M  V30 1866 H 184.142 -3.67289 1.3496 0
M  V30 1867 H 183.765 -3.96135 -0.340987 0
M  V30 1868 N 184.763 -0.387143 -1.52771 0
M  V30 1869 C 186.011 0.195349 -2.01154 0
M  V30 1870 C 186.332 1.475 -1.27549 0
M  V30 1871 O 185.602 1.91878 -0.394924 0
M  V30 1872 H 184.182 0.075178 -0.743207 0
M  V30 1873 H 186.844 -0.518337 -1.87881 0
M  V30 1874 H 185.94 0.407096 -3.09434 0
M  V30 1875 N 186.241 1.57166 -0.116904 0
M  V30 1876 C 187.489 1.94737 0.540533 0
M  V30 1877 C 187.81 1.00096 1.67349 0
M  V30 1878 O 187.08 0.0568854 1.95817 0
M  V30 1879 H 185.66 0.718981 0.202669 0
M  V30 1880 H 188.322 1.94017 -0.185353 0
M  V30 1881 H 187.418 2.97719 0.936483 0
M  V30 1882 N 187.719 -0.156864 1.56817 0
M  V30 1883 C 188.944 -0.890331 1.87318 0
M  V30 1884 C 189.369 -1.74394 0.704855 0
M  V30 1885 O 188.727 -1.77972 -0.345786 0
M  V30 1886 C 188.775 -1.73102 3.16336 0
M  V30 1887 O 187.879 -2.83422 2.99576 0
M  V30 1888 H 187.22 -0.24857 0.615718 0
M  V30 1889 H 189.75 -0.150649 2.04045 0
M  V30 1890 H 189.76 -2.12803 3.48107 0
M  V30 1891 H 188.435 -1.10412 4.00976 0
M  V30 1892 H 187.012 -2.47199 2.7919 0
M  V30 1893 N 189.197 -1.51736 -0.425897 0
M  V30 1894 C 190.127 -1.76827 -1.52494 0
M  V30 1895 C 191.108 -0.618524 -1.58456 0
M  V30 1896 O 192.293 -0.862416 -1.74 0
M  V30 1897 C 189.423 -1.90374 -2.90474 0
M  V30 1898 C 188.377 -3.0588 -2.99369 0
M  V30 1899 C 187.703 -3.04625 -4.3944 0
M  V30 1900 C 189.003 -4.45644 -2.72394 0
M  V30 1901 H 190.697 -2.68855 -1.31748 0
M  V30 1902 H 188.243 -1.29372 -0.632362 0
M  V30 1903 H 190.196 -2.0651 -3.6733 0
M  V30 1904 H 188.92 -0.95004 -3.12477 0
M  V30 1905 H 187.579 -2.89467 -2.24954 0
M  V30 1906 H 187.227 -2.0701 -4.58428 0
M  V30 1907 H 186.927 -3.82195 -4.46319 0
M  V30 1908 H 188.451 -3.22869 -5.18255 0
M  V30 1909 H 189.865 -4.62348 -3.38979 0
M  V30 1910 H 188.262 -5.25006 -2.9067 0
M  V30 1911 H 189.332 -4.54893 -1.67929 0
M  V30 1912 N 190.675 0.682077 -1.42076 0
M  V30 1913 C 191.921 1.44428 -1.42367 0
M  V30 1914 C 192.254 1.94164 -0.0373056 0
M  V30 1915 O 191.529 1.70429 0.937239 0
M  V30 1916 C 191.812 2.64654 -2.44194 0
M  V30 1917 C 191.665 2.20596 -3.91991 0
M  V30 1918 C 192.984 3.66865 -2.431 0
M  V30 1919 H 190.103 0.523834 -0.518428 0
M  V30 1920 H 192.745 0.77576 -1.73442 0
M  V30 1921 H 190.895 3.2169 -2.17826 0
M  V30 1922 H 192.567 1.68783 -4.29313 0
M  V30 1923 H 190.81 1.52242 -4.06208 0
M  V30 1924 H 191.481 3.06921 -4.58807 0
M  V30 1925 H 193.957 3.19531 -2.66532 0
M  V30 1926 H 192.833 4.48577 -3.16339 0
M  V30 1927 H 193.094 4.17493 -1.45437 0
M  V30 1928 N 192.153 1.28127 0.917671 0
M  V30 1929 C 193.401 1.14825 1.66312 0
M  V30 1930 C 193.722 -0.304379 1.9261 0
M  V30 1931 O 192.992 -1.21149 1.53947 0
M  V30 1932 H 191.572 0.421953 0.616413 0
M  V30 1933 H 194.234 1.608 1.10134 0
M  V30 1934 H 193.33 1.68489 2.62712 0
M  V30 1935 N 193.631 -1.12557 1.10312 0
M  V30 1936 C 194.541 -2.21841 0.763142 0
M  V30 1937 C 195.557 -1.72354 -0.238801 0
M  V30 1938 O 196.733 -2.01249 -0.0778746 0
M  V30 1939 C 193.798 -3.46131 0.198632 0
M  V30 1940 C 192.859 -4.10464 1.25769 0
M  V30 1941 C 192.092 -5.28821 0.72002 0
M  V30 1942 O 192.315 -5.6859 -0.453993 0
M  V30 1943 O 191.249 -5.83437 1.47935 0
M  V30 1944 H 195.075 -2.53312 1.67532 0
M  V30 1945 H 192.66 -1.20867 0.878157 0
M  V30 1946 H 194.542 -4.2125 -0.112401 0
M  V30 1947 H 193.217 -3.16338 -0.686419 0
M  V30 1948 H 192.124 -3.3713 1.62156 0
M  V30 1949 H 193.457 -4.44408 2.11571 0
M  V30 1950 N 195.109 -0.891671 -1.2995 0
M  V30 1951 C 196.355 -0.514261 -1.96171 0
M  V30 1952 C 196.688 0.935506 -1.70182 0
M  V30 1953 O 195.963 1.66204 -1.01028 0
M  V30 1954 C 196.246 -0.797719 -3.51153 0
M  V30 1955 C 196.099 -2.2986 -3.86632 0
M  V30 1956 C 197.418 -0.278749 -4.39216 0
M  V30 1957 H 194.537 -0.188314 -0.712535 0
M  V30 1958 H 197.179 -1.11689 -1.53706 0
M  V30 1959 H 195.329 -0.284826 -3.87455 0
M  V30 1960 H 197.001 -2.88042 -3.60319 0
M  V30 1961 H 195.244 -2.76257 -3.34462 0
M  V30 1962 H 195.915 -2.44753 -4.94773 0
M  V30 1963 H 198.391 -0.717825 -4.09862 0
M  V30 1964 H 197.267 -0.506353 -5.46559 0
M  V30 1965 H 197.528 0.820266 -4.34424 0
M  V30 1966 N 196.587 1.43421 -0.653314 0
M  V30 1967 C 197.535 2.32546 0.0501531 0
M  V30 1968 C 198.529 1.48617 0.812985 0
M  V30 1969 O 199.735 1.64825 0.723375 0
M  V30 1970 H 196.11 0.751185 0.0350032 0
M  V30 1971 H 198.081 2.89602 -0.719261 0
M  V30 1972 C 196.83 3.32925 1.00279 0
M  V30 1973 H 196.153 3.97532 0.425236 0
M  V30 1974 H 197.593 3.9792 1.46409 0
M  V30 1975 C 196.052 2.63532 2.09886 0
M  V30 1976 O 196.582 2.45092 3.18265 0
M  V30 1977 N 194.788 2.22905 1.86445 0
M  V30 1978 H 194.335 2.38103 0.98309 0
M  V30 1979 H 194.293 1.76805 2.59976 0
M  V30 1980 N 198.065 0.39524 1.52563 0
M  V30 1981 C 198.975 -0.444232 2.30356 0
M  V30 1982 C 199.991 -1.06615 1.37511 0
M  V30 1983 O 201.167 -1.07067 1.70583 0
M  V30 1984 C 198.232 -1.55315 3.09964 0
M  V30 1985 C 197.293 -0.955734 4.18526 0
M  V30 1986 C 196.526 -2.01181 4.9433 0
M  V30 1987 O 196.749 -3.22781 4.70285 0
M  V30 1988 O 195.683 -1.62579 5.79527 0
M  V30 1989 H 199.509 0.189667 3.03107 0
M  V30 1990 H 197.094 0.1588 1.48554 0
M  V30 1991 H 198.976 -2.19724 3.59582 0
M  V30 1992 H 197.651 -2.17191 2.4002 0
M  V30 1993 H 196.558 -0.274743 3.7309 0
M  V30 1994 H 197.891 -0.381109 4.90722 0
M  V30 1995 N 199.544 -1.57102 0.125237 0
M  V30 1996 C 200.821 -1.86953 -0.575142 0
M  V30 1997 C 201.201 -1.02749 -1.84407 0
M  V30 1998 O 200.549 -0.108144 -2.28244 0
M  V30 1999 C 200.759 -3.38198 -0.861583 0
M  V30 2000 C 202.107 -4.06937 -1.21192 0
M  V30 2001 O 203.131 -3.43252 -0.951645 0
M  V30 2002 O 201.99 -5.19364 -1.70068 0
M  V30 2003 H 199.084 -0.774147 -0.290906 0
M  V30 2004 H 201.63 -1.68942 0.160211 0
M  V30 2005 H 200.402 -3.91282 0.0373647 0
M  V30 2006 H 200.025 -3.61661 -1.65188 0
M  V30 2007 N 201.022 0.148545 -1.56898 0
M  V30 2008 C 202.27 0.859717 -1.82902 0
M  V30 2009 C 202.591 1.81775 -0.70588 0
M  V30 2010 O 201.861 1.93994 0.272586 0
M  V30 2011 H 200.441 0.320469 -0.674766 0
M  V30 2012 H 203.103 0.142918 -1.94375 0
M  V30 2013 H 202.199 1.4229 -2.77777 0
M  V30 2014 N 202.5 1.5196 0.417844 0
M  V30 2015 C 203.41 1.77554 1.53336 0
M  V30 2016 C 204.426 0.660655 1.6097 0
M  V30 2017 O 205.602 0.945099 1.77848 0
M  V30 2018 C 202.667 1.91291 2.89152 0
M  V30 2019 C 201.728 3.15183 2.91475 0
M  V30 2020 C 200.961 3.28256 4.20813 0
M  V30 2021 O 201.184 2.46798 5.14244 0
M  V30 2022 O 200.118 4.21356 4.29817 0
M  V30 2023 H 203.944 2.7222 1.34647 0
M  V30 2024 H 201.529 1.36698 0.602828 0
M  V30 2025 H 203.411 2.02199 3.69721 0
M  V30 2026 H 202.086 0.998129 3.07927 0
M  V30 2027 H 200.993 3.09739 2.09791 0
M  V30 2028 H 202.326 4.06414 2.77648 0
M  V30 2029 N 203.978 -0.674533 1.42435 0
M  V30 2030 C 204.911 -1.79924 1.40366 0
M  V30 2031 C 205.889 -1.60378 0.267899 0
M  V30 2032 O 207.073 -1.82847 0.458159 0
M  V30 2033 C 204.2 -3.16927 1.19478 0
M  V30 2034 C 203.246 -3.55221 2.36051 0
M  V30 2035 S 204.079 -3.5762 3.98583 0
M  V30 2036 C 205.235 -4.97315 3.80038 0
M  V30 2037 H 205.468 -1.81405 2.35541 0
M  V30 2038 H 203.001 -0.845221 1.29211 0
M  V30 2039 H 204.959 -3.96007 1.08114 0
M  V30 2040 H 203.62 -3.13031 0.258883 0
M  V30 2041 H 202.813 -4.54804 2.17185 0
M  V30 2042 H 202.415 -2.83502 2.43932 0
M  V30 2043 H 204.707 -5.85401 3.41045 0
M  V30 2044 H 205.65 -5.21228 4.79298 0
M  V30 2045 H 206.058 -4.69845 3.12899 0
M  V30 2046 N 205.456 -1.28612 -0.910864 0
M  V30 2047 C 206.684 -1.18792 -1.69399 0
M  V30 2048 C 207.099 0.253039 -1.87097 0
M  V30 2049 O 206.456 1.17071 -1.40003 0
M  V30 2050 C 206.507 -1.88511 -3.08457 0
M  V30 2051 O 206.228 -3.26979 -2.91576 0
M  V30 2052 C 207.729 -1.85029 -4.02839 0
M  V30 2053 H 204.949 -0.412233 -0.529438 0
M  V30 2054 H 207.493 -1.69788 -1.13984 0
M  V30 2055 H 205.648 -1.41379 -3.60681 0
M  V30 2056 H 206.062 -3.61936 -3.79608 0
M  V30 2057 H 207.536 -2.38395 -4.97867 0
M  V30 2058 H 208.013 -0.823303 -4.31414 0
M  V30 2059 H 208.619 -2.31853 -3.56545 0
M  V30 2060 N 206.934 1.1197 -1.10907 0
M  V30 2061 C 208.182 1.83225 -0.852819 0
M  V30 2062 C 208.503 1.84769 0.623341 0
M  V30 2063 O 207.773 1.3143 1.45269 0
M  V30 2064 H 206.353 0.67849 -0.312507 0
M  V30 2065 H 209.015 1.3556 -1.40033 0
M  V30 2066 H 208.111 2.87265 -1.22005 0
M  V30 2067 N 208.412 0.89855 1.29475 0
M  V30 2068 C 209.322 0.379974 2.31502 0
M  V30 2069 C 210.338 -0.524695 1.659 0
M  V30 2070 O 211.514 -0.414551 1.97087 0
M  V30 2071 C 208.579 -0.385138 3.44554 0
M  V30 2072 C 207.64 0.550914 4.2575 0
M  V30 2073 C 206.873 -0.177778 5.33404 0
M  V30 2074 O 207.096 -1.40189 5.52904 0
M  V30 2075 O 206.03 0.479106 5.9999 0
M  V30 2076 H 209.856 1.22639 2.77837 0
M  V30 2077 H 207.441 0.662834 1.33891 0
M  V30 2078 H 209.323 -0.817841 4.13388 0
M  V30 2079 H 207.998 -1.20763 3.0033 0
M  V30 2080 H 206.905 1.03271 3.59564 0
M  V30 2081 H 208.238 1.33979 4.73614 0
M  V30 2082 N 209.89 -1.43072 0.660911 0
M  V30 2083 C 210.837 -2.30785 -0.0259884 0
M  V30 2084 C 211.807 -1.45184 -0.806888 0
M  V30 2085 O 212.992 -1.74041 -0.781943 0
M  V30 2086 C 210.132 -3.30861 -0.981067 0
M  V30 2087 C 209.245 -4.31558 -0.195458 0
M  V30 2088 C 208.38 -5.18712 -1.14503 0
M  V30 2089 C 207.419 -6.11097 -0.350299 0
M  V30 2090 N 206.556 -6.90849 -1.25186 0
M  V30 2091 H 211.396 -2.88975 0.727846 0
M  V30 2092 H 208.933 -1.42353 0.370682 0
M  V30 2093 H 210.891 -3.87399 -1.54849 0
M  V30 2094 H 209.521 -2.74304 -1.70169 0
M  V30 2095 H 208.573 -3.77252 0.488374 0
M  V30 2096 H 209.885 -4.9701 0.422176 0
M  V30 2097 H 209.039 -5.79914 -1.78284 0
M  V30 2098 H 207.778 -4.53404 -1.79656 0
M  V30 2099 H 206.783 -5.48976 0.300808 0
M  V30 2100 H 208.008 -6.7845 0.296941 0
M  V30 2101 H 205.954 -6.28182 -1.89005 0
M  V30 2102 H 205.871 -7.52854 -0.688971 0
M  V30 2103 H 207.139 -7.5655 -1.87757 0
M  V30 2104 N 211.368 -0.403325 -1.52352 0
M  V30 2105 C 212.617 0.175668 -2.00934 0
M  V30 2106 C 212.93 1.46718 -1.29356 0
M  V30 2107 O 214.136 2.12708 -1.68724 0
M  V30 2108 C 212.592 0.363612 -3.58058 0
M  V30 2109 C 212.2 -0.915472 -4.38547 0
M  V30 2110 C 213.944 0.89821 -4.14888 0
M  V30 2111 C 211.851 -0.695035 -5.87302 0
M  V30 2112 H 210.781 0.0694234 -0.750797 0
M  V30 2113 H 213.432 -0.527879 -1.75743 0
M  V30 2114 H 211.814 1.12935 -3.79555 0
M  V30 2115 H 212.988 -1.68691 -4.28812 0
M  V30 2116 H 211.303 -1.37606 -3.93006 0
M  V30 2117 H 213.9 1.07907 -5.23699 0
M  V30 2118 H 214.243 1.87126 -3.71873 0
M  V30 2119 H 214.776 0.191681 -3.97338 0
M  V30 2120 H 211.515 -1.63948 -6.34666 0
M  V30 2121 H 211.035 0.0372116 -5.99788 0
M  V30 2122 H 212.714 -0.33497 -6.46132 0
M  V30 2123 N 212.846 1.57033 -0.133567 0
M  V30 2124 C 213.809 2.14897 0.796995 0
M  V30 2125 C 214.809 1.0874 1.18458 0
M  V30 2126 O 215.999 1.34446 1.1077 0
M  V30 2127 C 213.131 2.70112 2.07973 0
M  V30 2128 H 214.324 2.98457 0.293873 0
M  V30 2129 H 211.877 1.55871 0.115787 0
M  V30 2130 H 212.612 1.9018 2.62682 0
M  V30 2131 H 212.397 3.47764 1.81115 0
M  V30 2132 H 213.887 3.14738 2.74462 0
M  V30 2133 N 214.325 -0.140222 1.56975 0
M  V30 2134 C 215.555 -0.865181 1.87612 0
M  V30 2135 C 215.963 -1.74942 0.72055 0
M  V30 2136 O 215.306 -1.80917 -0.318561 0
M  V30 2137 C 215.368 -1.76782 3.13031 0
M  V30 2138 C 215.032 -1.06005 4.44536 0
M  V30 2139 C 216.029 -0.410768 5.18275 0
M  V30 2140 C 213.714 -1.04754 4.91255 0
M  V30 2141 C 215.708 0.241572 6.36942 0
M  V30 2142 C 213.395 -0.391394 6.09845 0
M  V30 2143 C 214.393 0.252029 6.82535 0
M  V30 2144 O 214.081 0.897757 7.98871 0
M  V30 2145 H 213.813 -0.255188 0.625983 0
M  V30 2146 H 216.367 -0.135653 2.04952 0
M  V30 2147 H 214.597 -2.53846 2.91718 0
M  V30 2148 H 216.286 -2.36533 3.29859 0
M  V30 2149 H 217.052 -0.412195 4.83245 0
M  V30 2150 H 212.931 -1.53777 4.34596 0
M  V30 2151 H 216.475 0.744375 6.93617 0
M  V30 2152 H 212.372 -0.387656 6.44335 0
M  V30 2153 H 213.14 0.800102 8.1458 0
M  V30 2154 N 215.803 -1.52179 -0.40978 0
M  V30 2155 C 217.049 -1.66453 -1.15851 0
M  V30 2156 C 217.382 -0.392972 -1.90182 0
M  V30 2157 O 216.657 0.608579 -1.84734 0
M  V30 2158 C 216.94 -2.88612 -2.15349 0
M  V30 2159 C 216.793 -4.25815 -1.44918 0
M  V30 2160 C 218.112 -3.06294 -3.16026 0
M  V30 2161 H 215.231 -0.60575 -0.419805 0
M  V30 2162 H 217.873 -1.84732 -0.444314 0
M  V30 2163 H 216.023 -2.73158 -2.76255 0
M  V30 2164 H 217.695 -4.52995 -0.871365 0
M  V30 2165 H 215.938 -4.27247 -0.751159 0
M  V30 2166 H 216.609 -5.07337 -2.17516 0
M  V30 2167 H 219.085 -3.20641 -2.65195 0
M  V30 2168 H 217.961 -3.93283 -3.8291 0
M  V30 2169 H 218.222 -2.19579 -3.83715 0
M  V30 2170 N 217.281 0.66697 -1.42791 0
M  V30 2171 C 218.511 1.45294 -1.46878 0
M  V30 2172 C 218.919 1.89027 -0.0809861 0
M  V30 2173 O 218.262 1.59219 0.916246 0
M  V30 2174 C 218.324 2.72908 -2.34012 0
M  V30 2175 C 217.988 2.51203 -3.81767 0
M  V30 2176 C 218.985 2.15302 -4.73224 0
M  V30 2177 C 216.67 2.65954 -4.26115 0
M  V30 2178 C 218.664 1.94431 -6.07022 0
M  V30 2179 C 216.351 2.44699 -5.59969 0
M  V30 2180 C 217.349 2.08992 -6.5024 0
M  V30 2181 O 217.037 1.87948 -7.81621 0
M  V30 2182 H 216.769 0.453306 -0.501487 0
M  V30 2183 H 219.323 0.826232 -1.88049 0
M  V30 2184 H 217.553 3.38089 -1.87703 0
M  V30 2185 H 219.242 3.34816 -2.29462 0
M  V30 2186 H 220.008 2.03495 -4.40244 0
M  V30 2187 H 215.887 2.92724 -3.56137 0
M  V30 2188 H 219.431 1.66484 -6.77443 0
M  V30 2189 H 215.328 2.56105 -5.9252 0
M  V30 2190 H 216.096 2.02483 -7.93059 0
M  V30 2191 N 218.759 1.29093 0.90403 0
M  V30 2192 C 220.17 1.15186 1.46932 0
M  V30 2193 C 220.521 -0.254587 1.94541 0
M  V30 2194 O 219.646 -1.14972 1.83332 0
M  V30 2195 C 220.241 2.08492 2.67051 0
M  V30 2196 C 218.8 1.98621 3.19729 0
M  V30 2197 C 217.947 1.9967 1.92425 0
M  V30 2198 H 220.898 1.41641 0.715789 0
M  V30 2199 H 220.919 1.65461 3.42641 0
M  V30 2200 H 220.431 3.10847 2.3237 0
M  V30 2201 H 218.532 0.993389 3.59114 0
M  V30 2202 H 218.645 2.86068 3.8432 0
M  V30 2203 H 217.009 1.44208 2.09943 0
M  V30 2204 H 217.792 3.03721 1.60026 0
M  V30 2205 N 220.237 -1.11381 1.11499 0
M  V30 2206 C 221.514 -1.7955 0.775965 0
M  V30 2207 C 221.894 -1.97859 -0.73588 0
M  V30 2208 O 221.242 -1.56376 -1.66609 0
M  V30 2209 C 221.452 -3.13196 1.53977 0
M  V30 2210 C 222.8 -3.88227 1.71944 0
M  V30 2211 O 223.824 -3.22887 1.50407 0
M  V30 2212 O 222.683 -5.05477 2.07738 0
M  V30 2213 H 219.777 -0.777728 0.28119 0
M  V30 2214 H 222.323 -1.18118 1.21845 0
M  V30 2215 H 221.095 -2.95229 2.56818 0
M  V30 2216 H 220.718 -3.82342 1.09088 0
M  V30 2217 N 221.715 -0.905404 -1.28997 0
M  V30 2218 C 222.625 -0.392246 -2.31298 0
M  V30 2219 C 223.641 0.515889 -1.66176 0
M  V30 2220 O 224.817 0.404093 -1.97304 0
M  V30 2221 C 221.882 0.36686 -3.44754 0
M  V30 2222 C 220.943 -0.573485 -4.25452 0
M  V30 2223 C 220.176 0.149488 -5.33491 0
M  V30 2224 O 220.399 1.37255 -5.5364 0
M  V30 2225 O 219.333 -0.510919 -5.99728 0
M  V30 2226 H 223.159 -1.2411 -2.77183 0
M  V30 2227 H 220.744 -0.669926 -1.33538 0
M  V30 2228 H 222.626 0.795907 -4.13816 0
M  V30 2229 H 221.301 1.19169 -3.00966 0
M  V30 2230 H 220.208 -1.05176 -3.59011 0
M  V30 2231 H 221.541 -1.36489 -4.72897 0
M  V30 2232 N 223.193 1.4272 -0.668489 0
M  V30 2233 C 224.609 1.55992 -0.33745 0
M  V30 2234 C 224.809 1.64933 1.15756 0
M  V30 2235 O 223.865 1.61278 1.94282 0
M  V30 2236 C 225.178 2.81314 -1.06222 0
M  V30 2237 C 226.726 2.95078 -1.04394 0
M  V30 2238 C 227.201 4.23252 -1.74991 0
M  V30 2239 N 228.692 4.3015 -1.71829 0
M  V30 2240 C 229.427 5.28127 -2.23315 0
M  V30 2241 N 228.923 6.32293 -2.83156 0
M  V30 2242 N 230.716 5.19882 -2.13726 0
M  V30 2243 H 222.867 1.3516 -1.63846 0
M  V30 2244 H 225.13 0.650174 -0.689912 0
M  V30 2245 H 224.836 2.80823 -2.11734 0
M  V30 2246 H 224.71 3.72012 -0.62344 0
M  V30 2247 H 227.097 2.951 0.0028244 0
M  V30 2248 H 227.178 2.05627 -1.52155 0
M  V30 2249 H 226.822 4.2399 -2.79633 0
M  V30 2250 H 226.752 5.11626 -1.24685 0
M  V30 2251 H 229.243 3.55499 -1.28175 0
M  V30 2252 H 229.556 7.03398 -3.20079 0
M  V30 2253 H 227.901 6.32873 -2.87223 0
M  V30 2254 H 231.092 4.37423 -1.66669 0
M  V30 2255 H 231.265 5.96077 -2.54158 0
M  V30 2256 N 224.671 0.411399 1.52136 0
M  V30 2257 C 225.899 -0.163076 2.06256 0
M  V30 2258 C 226.314 -1.3867 1.28125 0
M  V30 2259 O 225.671 -1.79423 0.333721 0
M  V30 2260 C 225.722 -0.511252 3.57867 0
M  V30 2261 O 225.443 0.66378 4.33042 0
M  V30 2262 C 226.944 -1.13921 4.28412 0
M  V30 2263 H 224.164 -0.0193897 0.67072 0
M  V30 2264 H 226.708 0.583007 1.96013 0
M  V30 2265 H 224.863 -1.20723 3.6811 0
M  V30 2266 H 225.277 0.372601 5.23175 0
M  V30 2267 H 226.751 -1.33302 5.35663 0
M  V30 2268 H 227.228 -2.11296 3.85033 0
M  V30 2269 H 227.834 -0.483373 4.22544 0
M  V30 2270 N 226.149 -1.5696 0.141893 0
M  V30 2271 C 227.112 -2.15316 -0.785587 0
M  V30 2272 C 228.112 -1.09366 -1.1788 0
M  V30 2273 O 229.302 -1.35031 -1.10056 0
M  V30 2274 C 226.434 -2.71211 -2.06537 0
M  V30 2275 H 227.627 -2.98608 -0.278041 0
M  V30 2276 H 225.18 -1.5593 -0.107519 0
M  V30 2277 H 225.915 -1.91571 -2.6167 0
M  V30 2278 H 225.7 -3.4872 -1.79268 0
M  V30 2279 H 227.19 -3.16189 -2.72789 0
M  V30 2280 N 227.627 0.131896 -1.57047 0
M  V30 2281 C 228.557 1.16384 -2.02428 0
M  V30 2282 C 229.538 1.43936 -0.90644 0
M  V30 2283 O 230.723 1.54599 -1.17528 0
M  V30 2284 C 227.853 2.49328 -2.4177 0
M  V30 2285 C 226.807 2.36266 -3.56879 0
M  V30 2286 C 226.133 3.74057 -3.8208 0
M  V30 2287 C 227.433 1.834 -4.89042 0
M  V30 2288 H 229.127 0.786433 -2.88887 0
M  V30 2289 H 226.673 0.376855 -1.38981 0
M  V30 2290 H 228.626 3.21759 -2.7212 0
M  V30 2291 H 227.35 2.88934 -1.52266 0
M  V30 2292 H 226.009 1.66286 -3.26718 0
M  V30 2293 H 225.657 4.11125 -2.89803 0
M  V30 2294 H 225.357 3.66174 -4.59554 0
M  V30 2295 H 226.881 4.48012 -4.1487 0
M  V30 2296 H 228.295 2.45636 -5.18011 0
M  V30 2297 H 226.692 1.8637 -5.70426 0
M  V30 2298 H 227.762 0.790662 -4.7841 0
M  V30 2299 N 229.106 1.52395 0.401703 0
M  V30 2300 C 230.336 1.70429 1.1678 0
M  V30 2301 C 230.744 0.416702 1.84554 0
M  V30 2302 O 230.087 -0.617697 1.73003 0
M  V30 2303 C 230.149 2.78919 2.26814 0
M  V30 2304 C 229.813 4.20437 1.79113 0
M  V30 2305 C 230.81 5.04028 1.27482 0
M  V30 2306 C 228.495 4.66704 1.85722 0
M  V30 2307 C 230.489 6.31961 0.830913 0
M  V30 2308 C 228.176 5.94625 1.40942 0
M  V30 2309 C 229.174 6.77082 0.897128 0
M  V30 2310 O 228.862 8.02607 0.455822 0
M  V30 2311 H 228.594 0.574272 0.356634 0
M  V30 2312 H 231.148 1.99767 0.477724 0
M  V30 2313 H 229.378 2.44973 2.99207 0
M  V30 2314 H 231.067 2.8548 2.88541 0
M  V30 2315 H 231.833 4.69471 1.21744 0
M  V30 2316 H 227.712 4.0262 2.24539 0
M  V30 2317 H 231.256 6.96271 0.430368 0
M  V30 2318 H 227.153 6.28688 1.46362 0
M  V30 2319 H 227.921 8.16453 0.578457 0
M  V30 2320 N 230.584 -0.659388 1.43143 0
M  V30 2321 C 231.832 -1.41654 1.44147 0
M  V30 2322 C 232.153 -1.94893 0.0645739 0
M  V30 2323 O 231.423 -1.74044 -0.899198 0
M  V30 2324 H 230.003 -0.525708 0.530697 0
M  V30 2325 H 232.665 -0.778097 1.78694 0
M  V30 2326 H 231.761 -2.26195 2.1504 0
M  V30 2327 N 232.062 -1.29571 -0.897171 0
M  V30 2328 C 233.009 -1.14916 -2.00158 0
M  V30 2329 C 233.979 -0.0418149 -1.66047 0
M  V30 2330 O 235.164 -0.209793 -1.89643 0
M  V30 2331 C 232.304 -0.834307 -3.34863 0
M  V30 2332 C 231.417 -2.02234 -3.8174 0
M  V30 2333 C 230.552 -1.64664 -5.05034 0
M  V30 2334 C 229.591 -2.80033 -5.44286 0
M  V30 2335 N 228.728 -2.42843 -6.58765 0
M  V30 2336 H 233.568 -2.09403 -2.12025 0
M  V30 2337 H 231.105 -1.042 -1.0383 0
M  V30 2338 H 233.063 -0.632436 -4.12379 0
M  V30 2339 H 231.693 0.0736656 -3.22716 0
M  V30 2340 H 230.745 -2.33583 -3.00238 0
M  V30 2341 H 232.057 -2.88673 -4.06779 0
M  V30 2342 H 231.211 -1.4078 -5.9014 0
M  V30 2343 H 229.95 -0.753766 -4.8184 0
M  V30 2344 H 228.955 -3.04596 -4.57713 0
M  V30 2345 H 230.18 -3.69989 -5.6946 0
M  V30 2346 H 228.126 -1.56046 -6.3717 0
M  V30 2347 H 228.043 -3.22815 -6.83613 0
M  V30 2348 H 229.311 -2.22285 -7.47134 0
M  V30 2349 N 233.54 1.10788 -1.12088 0
M  V30 2350 C 234.787 1.82671 -0.873931 0
M  V30 2351 C 235.115 1.85004 0.600311 0
M  V30 2352 O 234.37 1.30365 1.45957 0
M  V30 2353 C 234.669 3.29294 -1.38926 0
M  V30 2354 C 234.335 3.47113 -2.87791 0
M  V30 2355 C 232.997 3.51684 -3.28439 0
M  V30 2356 C 235.349 3.52808 -3.83635 0
M  V30 2357 C 232.677 3.59513 -4.63646 0
M  V30 2358 C 235.029 3.62169 -5.18668 0
M  V30 2359 C 233.693 3.65003 -5.58864 0
M  V30 2360 H 232.963 0.668441 -0.319794 0
M  V30 2361 H 235.61 1.30613 -1.40045 0
M  V30 2362 H 233.915 3.83894 -0.783122 0
M  V30 2363 H 235.612 3.83416 -1.17443 0
M  V30 2364 H 232.202 3.4423 -2.5535 0
M  V30 2365 H 236.386 3.4853 -3.53328 0
M  V30 2366 H 231.642 3.59987 -4.94185 0
M  V30 2367 H 235.816 3.6552 -5.92763 0
M  V30 2368 H 233.443 3.70822 -6.63623 0
M  V30 2369 N 235.018 0.912232 1.28515 0
M  V30 2370 C 236.267 0.540504 1.94323 0
M  V30 2371 C 236.58 -0.920044 1.72611 0
M  V30 2372 O 237.786 -1.39986 2.32629 0
M  V30 2373 C 236.242 0.915803 3.48053 0
M  V30 2374 C 235.85 2.39598 3.78546 0
M  V30 2375 C 237.594 0.614588 4.20027 0
M  V30 2376 C 235.501 2.71148 5.25578 0
M  V30 2377 H 234.431 0.198418 0.727424 0
M  V30 2378 H 237.082 1.11094 1.46049 0
M  V30 2379 H 235.464 0.274168 3.9505 0
M  V30 2380 H 236.638 3.08422 3.42364 0
M  V30 2381 H 234.953 2.66749 3.1974 0
M  V30 2382 H 237.55 0.827002 5.28266 0
M  V30 2383 H 237.893 -0.447531 4.13887 0
M  V30 2384 H 238.426 1.21462 3.78803 0
M  V30 2385 H 235.165 3.76207 5.36794 0
M  V30 2386 H 234.685 2.0696 5.62963 0
M  V30 2387 H 236.364 2.58072 5.93302 0
M  V30 2388 N 236.496 -1.42363 0.676048 0
M  V30 2389 C 237.773 -1.95183 0.127726 0
M  V30 2390 C 238.153 -1.61641 -1.35777 0
M  V30 2391 O 237.501 -0.913216 -2.09458 0
M  V30 2392 C 237.711 -3.46721 0.398199 0
M  V30 2393 C 239.059 -4.23427 0.315383 0
M  V30 2394 O 240.083 -3.54649 0.332016 0
M  V30 2395 O 238.942 -5.45888 0.25865 0
M  V30 2396 H 236.036 -0.826992 0.00359427 0
M  V30 2397 H 238.582 -1.52184 0.750864 0
M  V30 2398 H 237.354 -3.64344 1.4272 0
M  V30 2399 H 236.977 -3.96769 -0.256885 0
M  V30 2400 N 237.974 -0.419461 -1.51915 0
M  V30 2401 C 239.222 0.152637 -2.01523 0
M  V30 2402 C 239.543 1.44762 -1.30649 0
M  V30 2403 O 238.813 1.90997 -0.435535 0
M  V30 2404 H 237.393 0.0593966 -0.744635 0
M  V30 2405 H 240.055 -0.558073 -1.86739 0
M  V30 2406 H 239.151 0.341369 -3.10227 0
M  V30 2407 N 239.452 1.56882 -0.150215 0
M  V30 2408 C 240.362 2.20494 0.801222 0
M  V30 2409 C 241.378 1.19019 1.26927 0
M  V30 2410 O 242.554 1.51607 1.32579 0
M  V30 2411 C 239.619 2.81659 2.02161 0
M  V30 2412 C 238.68 3.9827 1.60249 0
M  V30 2413 C 237.913 4.56508 2.7647 0
M  V30 2414 O 238.136 4.13627 3.92771 0
M  V30 2415 O 237.07 5.46719 2.51757 0
M  V30 2416 H 240.896 3.02315 0.289717 0
M  V30 2417 H 238.481 1.49202 0.0769684 0
M  V30 2418 H 240.363 3.20522 2.73576 0
M  V30 2419 H 239.038 2.02849 2.52258 0
M  V30 2420 H 237.945 3.64117 0.858477 0
M  V30 2421 H 239.278 4.78609 1.14864 0
M  V30 2422 N 240.93 -0.123565 1.57115 0
M  V30 2423 C 241.863 -1.18202 1.95201 0
M  V30 2424 C 242.841 -1.40349 0.821031 0
M  V30 2425 O 244.025 -1.54578 1.07879 0
M  V30 2426 C 241.152 -2.53671 2.24429 0
M  V30 2427 C 240.198 -2.4798 3.46999 0
M  V30 2428 S 241.031 -1.92389 4.99747 0
M  V30 2429 C 242.187 -3.2954 5.32123 0
M  V30 2430 H 242.42 -0.857212 2.84674 0
M  V30 2431 H 239.953 -0.33014 1.50829 0
M  V30 2432 H 241.911 -3.3162 2.41947 0
M  V30 2433 H 240.572 -2.83332 1.35579 0
M  V30 2434 H 239.765 -3.47758 3.64801 0
M  V30 2435 H 239.367 -1.7815 3.28844 0
M  V30 2436 H 241.659 -4.25736 5.27025 0
M  V30 2437 H 242.602 -3.16569 6.33395 0
M  V30 2438 H 243.01 -3.27758 4.59603 0
M  V30 2439 N 242.408 -1.52605 -0.393616 0
M  V30 2440 C 243.657 -1.66649 -1.13627 0
M  V30 2441 C 243.97 -0.410364 -1.91247 0
M  V30 2442 O 245.176 -0.430854 -2.68059 0
M  V30 2443 C 243.632 -2.9449 -2.06891 0
M  V30 2444 C 243.24 -4.27266 -1.34714 0
M  V30 2445 C 244.984 -3.17899 -2.81319 0
M  V30 2446 C 242.891 -5.46217 -2.26717 0
M  V30 2447 H 241.821 -0.62084 -0.427871 0
M  V30 2448 H 244.472 -1.791 -0.399428 0
M  V30 2449 H 242.854 -2.75774 -2.84191 0
M  V30 2450 H 244.028 -4.56518 -0.626714 0
M  V30 2451 H 242.343 -4.10081 -0.722643 0
M  V30 2452 H 244.94 -4.03949 -3.50328 0
M  V30 2453 H 245.283 -2.32777 -3.45139 0
M  V30 2454 H 245.816 -3.37159 -2.11113 0
M  V30 2455 H 242.555 -6.33733 -1.67521 0
M  V30 2456 H 242.075 -5.21283 -2.96689 0
M  V30 2457 H 243.754 -5.7991 -2.86903 0
M  V30 2458 N 243.887 0.651787 -1.4349 0
M  V30 2459 C 244.797 1.79368 -1.5121 0
M  V30 2460 C 245.813 1.69361 -0.399093 0
M  V30 2461 O 246.989 1.90505 -0.653431 0
M  V30 2462 C 244.054 3.15653 -1.43401 0
M  V30 2463 C 243.115 3.37446 -2.65384 0
M  V30 2464 C 242.348 4.67229 -2.57939 0
M  V30 2465 O 242.571 5.46676 -1.62792 0
M  V30 2466 O 241.505 4.90773 -3.48462 0
M  V30 2467 H 245.331 1.7581 -2.47638 0
M  V30 2468 H 242.916 0.810447 -1.25507 0
M  V30 2469 H 244.798 3.96935 -1.41494 0
M  V30 2470 H 243.473 3.19798 -0.501085 0
M  V30 2471 H 242.38 2.55923 -2.72863 0
M  V30 2472 H 243.713 3.38148 -3.57654 0
M  V30 2473 N 245.365 1.30045 0.890287 0
M  V30 2474 C 246.613 1.18327 1.63839 0
M  V30 2475 C 246.934 -0.263455 1.93212 0
M  V30 2476 O 246.204 -1.17856 1.56482 0
M  V30 2477 H 244.784 0.434933 0.607324 0
M  V30 2478 H 247.446 1.631 1.06698 0
M  V30 2479 H 246.542 1.74024 2.59079 0
M  V30 2480 N 246.843 -1.10192 1.12674 0
M  V30 2481 C 247.79 -2.16606 0.796906 0
M  V30 2482 C 248.76 -1.64394 -0.237476 0
M  V30 2483 O 249.945 -1.90474 -0.111484 0
M  V30 2484 C 247.085 -3.44116 0.26043 0
M  V30 2485 C 246.198 -4.10268 1.35293 0
M  V30 2486 C 245.333 -5.25507 0.775621 0
M  V30 2487 C 244.372 -5.83567 1.84706 0
M  V30 2488 N 243.509 -6.90179 1.28829 0
M  V30 2489 H 248.349 -2.44163 1.70846 0
M  V30 2490 H 245.886 -1.19846 0.85295 0
M  V30 2491 H 247.844 -4.17143 -0.0686814 0
M  V30 2492 H 246.474 -3.16901 -0.614274 0
M  V30 2493 H 245.526 -3.35184 1.79877 0
M  V30 2494 H 246.838 -4.4946 2.16303 0
M  V30 2495 H 245.992 -6.05398 0.397327 0
M  V30 2496 H 244.731 -4.87656 -0.0656581 0
M  V30 2497 H 243.736 -5.02344 2.23452 0
M  V30 2498 H 244.961 -6.23482 2.69161 0
M  V30 2499 H 242.907 -6.54322 0.468881 0
M  V30 2500 H 242.824 -7.28097 2.03497 0
M  V30 2501 H 244.092 -7.73844 0.937311 0
M  V30 2502 N 248.321 -0.919034 -1.28029 0
M  V30 2503 C 249.251 -0.428581 -2.29533 0
M  V30 2504 C 250.232 0.50659 -1.62381 0
M  V30 2505 O 251.417 0.413195 -1.89753 0
M  V30 2506 C 248.547 0.327388 -3.45753 0
M  V30 2507 C 247.501 -0.519137 -4.2484 0
M  V30 2508 C 246.827 0.365486 -5.33449 0
M  V30 2509 C 248.127 -1.77914 -4.91064 0
M  V30 2510 H 249.821 -1.27687 -2.70807 0
M  V30 2511 H 247.367 -0.615428 -1.30186 0
M  V30 2512 H 249.32 0.681378 -4.15855 0
M  V30 2513 H 248.044 1.20963 -3.03374 0
M  V30 2514 H 246.703 -0.855717 -3.56473 0
M  V30 2515 H 246.351 1.24642 -4.87312 0
M  V30 2516 H 246.051 -0.197356 -5.87268 0
M  V30 2517 H 247.575 0.715241 -6.06396 0
M  V30 2518 H 248.989 -1.49374 -5.53498 0
M  V30 2519 H 247.386 -2.2848 -5.54903 0
M  V30 2520 H 248.456 -2.50382 -4.15255 0
M  V30 2521 N 249.799 1.42003 -0.683588 0
M  V30 2522 C 250.762 2.29191 -0.0198243 0
M  V30 2523 C 251.762 1.43773 0.72013 0
M  V30 2524 O 252.952 1.65061 0.556815 0
M  V30 2525 C 250.084 3.26435 0.982487 0
M  V30 2526 H 251.277 2.8938 -0.787345 0
M  V30 2527 H 248.83 1.49789 -0.446418 0
M  V30 2528 H 249.565 2.71203 1.77819 0
M  V30 2529 H 249.35 3.89449 0.455182 0
M  V30 2530 H 250.84 3.918 1.44508 0
M  V30 2531 N 251.277 0.427512 1.51691 0
M  V30 2532 C 252.505 -0.141191 2.06418 0
M  V30 2533 C 252.92 -1.37303 1.29589 0
M  V30 2534 O 252.277 -1.79059 0.352732 0
M  V30 2535 C 252.328 -0.473266 3.58389 0
M  V30 2536 O 252.049 0.709673 4.32314 0
M  V30 2537 C 253.55 -1.09371 4.29596 0
M  V30 2538 H 250.77 -0.0122747 0.670888 0
M  V30 2539 H 253.314 0.603764 1.95384 0
M  V30 2540 H 251.469 -1.16812 3.69369 0
M  V30 2541 H 251.883 0.42807 5.2275 0
M  V30 2542 H 253.357 -1.27613 5.37046 0
M  V30 2543 H 253.834 -2.072 3.87253 0
M  V30 2544 H 254.44 -0.43853 4.23033 0
M  V30 2545 N 252.755 -1.56801 0.158532 0
M  V30 2546 C 253.685 -2.20347 -0.772609 0
M  V30 2547 C 254.666 -1.15518 -1.24859 0
M  V30 2548 O 255.851 -1.43902 -1.30406 0
M  V30 2549 C 252.981 -2.83417 -2.00729 0
M  V30 2550 C 251.935 -3.94174 -1.66765 0
M  V30 2551 C 251.261 -4.44233 -2.97592 0
M  V30 2552 C 252.561 -5.14392 -0.905447 0
M  V30 2553 H 254.255 -2.98413 -0.242959 0
M  V30 2554 H 251.801 -1.43537 -0.115419 0
M  V30 2555 H 253.754 -3.26543 -2.6636 0
M  V30 2556 H 252.478 -2.02701 -2.56086 0
M  V30 2557 H 251.137 -3.51684 -1.03508 0
M  V30 2558 H 250.785 -3.60325 -3.50963 0
M  V30 2559 H 250.485 -5.18945 -2.75626 0
M  V30 2560 H 252.009 -4.90037 -3.64274 0
M  V30 2561 H 253.423 -5.5429 -1.46408 0
M  V30 2562 H 251.82 -5.9494 -0.7853 0
M  V30 2563 H 252.89 -4.84795 0.100668 0
M  V30 2564 N 254.233 0.115231 -1.57178 0
M  V30 2565 C 255.166 1.17166 -1.95825 0
M  V30 2566 C 256.144 1.39912 -0.828463 0
M  V30 2567 O 257.328 1.54004 -1.08697 0
M  V30 2568 C 254.455 2.52478 -2.25771 0
M  V30 2569 C 253.501 2.46136 -3.48309 0
M  V30 2570 S 254.334 1.89736 -5.0076 0
M  V30 2571 C 255.49 3.26713 -5.33863 0
M  V30 2572 H 255.723 0.842103 -2.85124 0
M  V30 2573 H 253.256 0.322136 -1.51002 0
M  V30 2574 H 255.214 3.30332 -2.43702 0
M  V30 2575 H 253.875 2.82609 -1.37079 0
M  V30 2576 H 253.068 3.45819 -3.66641 0
M  V30 2577 H 252.67 1.76404 -3.29784 0
M  V30 2578 H 254.962 4.22935 -5.29275 0
M  V30 2579 H 255.905 3.13205 -6.35065 0
M  V30 2580 H 256.313 3.25316 -4.61335 0
M  V30 2581 N 255.711 1.52812 0.385517 0
M  V30 2582 C 256.936 1.72207 1.15583 0
M  V30 2583 C 257.361 0.441034 1.82857 0
M  V30 2584 O 256.719 -0.603465 1.70962 0
M  V30 2585 C 256.767 2.87476 2.17692 0
M  V30 2586 O 255.871 2.54693 3.24354 0
M  V30 2587 H 255.212 0.572526 0.336319 0
M  V30 2588 H 257.742 1.99618 0.448744 0
M  V30 2589 H 257.752 3.13072 2.6163 0
M  V30 2590 H 256.427 3.80408 1.68115 0
M  V30 2591 H 255.004 2.3985 2.85529 0
M  V30 2592 N 257.189 -0.644168 1.43834 0
M  V30 2593 C 258.417 -1.43147 1.49387 0
M  V30 2594 C 258.832 -1.88452 0.114583 0
M  V30 2595 O 258.189 -1.60047 -0.876989 0
M  V30 2596 C 258.24 -2.66046 2.44748 0
M  V30 2597 O 257.961 -2.22633 3.77314 0
M  V30 2598 C 259.462 -3.59311 2.59635 0
M  V30 2599 H 256.682 -0.439447 0.507077 0
M  V30 2600 H 259.226 -0.78895 1.88669 0
M  V30 2601 H 257.381 -3.26418 2.08638 0
M  V30 2602 H 257.795 -3.02216 4.28679 0
M  V30 2603 H 259.269 -4.42187 3.30416 0
M  V30 2604 H 259.746 -4.07259 1.64427 0
M  V30 2605 H 260.352 -3.04816 2.96593 0
M  V30 2606 N 258.668 -1.30515 -0.883378 0
M  V30 2607 C 259.578 -1.18959 -2.02203 0
M  V30 2608 C 260.594 -0.109172 -1.73657 0
M  V30 2609 O 261.77 -0.324413 -1.9877 0
M  V30 2610 C 258.835 -0.883871 -3.35244 0
M  V30 2611 C 257.896 -2.04982 -3.77201 0
M  V30 2612 C 257.129 -1.75859 -5.03894 0
M  V30 2613 O 257.352 -0.687276 -5.66244 0
M  V30 2614 O 256.286 -2.61146 -5.42297 0
M  V30 2615 H 260.112 -2.14616 -2.1488 0
M  V30 2616 H 257.697 -1.10124 -1.0096 0
M  V30 2617 H 259.579 -0.728644 -4.15053 0
M  V30 2618 H 258.254 0.0427798 -3.23672 0
M  V30 2619 H 257.161 -2.26038 -2.9809 0
M  V30 2620 H 258.494 -2.95825 -3.93381 0
M  V30 2621 N 260.146 1.09593 -1.13257 0
M  V30 2622 C 261.056 2.19739 -0.821691 0
M  V30 2623 C 262.072 1.72926 0.19302 0
M  V30 2624 O 263.248 2.01385 0.0244895 0
M  V30 2625 C 260.313 3.45482 -0.290333 0
M  V30 2626 C 259.374 4.06985 -1.36607 0
M  V30 2627 C 258.607 5.26726 -0.859975 0
M  V30 2628 O 258.83 5.69594 0.303082 0
M  V30 2629 O 257.764 5.7931 -1.63351 0
M  V30 2630 H 261.59 2.48781 -1.74189 0
M  V30 2631 H 259.175 1.18496 -0.909894 0
M  V30 2632 H 261.057 4.214 0.000674022 0
M  V30 2633 H 259.732 3.18047 0.602306 0
M  V30 2634 H 258.639 3.32712 -1.71037 0
M  V30 2635 H 259.972 4.38643 -2.23279 0
M  V30 2636 N 261.624 0.925811 1.2754 0
M  V30 2637 C 262.872 0.564138 1.94067 0
M  V30 2638 C 263.193 -0.897188 1.73134 0
M  V30 2639 O 262.463 -1.63573 1.07799 0
M  V30 2640 H 261.043 0.205645 0.718136 0
M  V30 2641 H 263.705 1.1778 1.55287 0
M  V30 2642 H 262.801 0.76881 3.02483 0
M  V30 2643 N 263.102 -1.41638 0.69111 0
M  V30 2644 C 264.518 -1.55435 0.362224 0
M  V30 2645 C 264.718 -1.66754 -1.13117 0
M  V30 2646 O 263.774 -1.64348 -1.91692 0
M  V30 2647 C 265.087 -2.79588 1.10684 0
M  V30 2648 C 266.635 -2.9338 1.09075 0
M  V30 2649 C 267.11 -4.20414 1.81703 0
M  V30 2650 N 268.601 -4.27362 1.7865 0
M  V30 2651 C 269.336 -5.24507 2.31689 0
M  V30 2652 N 268.832 -6.27708 2.93179 0
M  V30 2653 N 270.625 -5.16416 2.2197 0
M  V30 2654 H 262.776 -1.32536 1.65976 0
M  V30 2655 H 265.039 -0.639115 0.700168 0
M  V30 2656 H 264.745 -2.77419 2.16175 0
M  V30 2657 H 264.619 -3.70973 0.682545 0
M  V30 2658 H 267.006 -2.95067 0.0441238 0
M  V30 2659 H 267.087 -2.0318 1.55407 0
M  V30 2660 H 266.731 -4.19488 2.86343 0
M  V30 2661 H 266.661 -5.09578 1.32808 0
M  V30 2662 H 269.152 -3.53415 1.33815 0
M  V30 2663 H 269.465 -6.98217 3.31229 0
M  V30 2664 H 267.81 -6.28223 2.97255 0
M  V30 2665 H 271.001 -4.34716 1.73607 0
M  V30 2666 H 271.174 -5.91958 2.63609 0
M  V30 2667 N 264.58 -0.43555 -1.51462 0
M  V30 2668 C 265.991 0.0279871 -1.86679 0
M  V30 2669 C 266.342 1.42104 -1.35281 0
M  V30 2670 O 265.467 2.04667 -0.702878 0
M  V30 2671 C 266.062 0.0575626 -3.38751 0
M  V30 2672 C 264.621 0.465507 -3.7351 0
M  V30 2673 C 263.768 -0.342996 -2.75171 0
M  V30 2674 H 266.719 -0.651473 -1.44712 0
M  V30 2675 H 266.74 0.867421 -3.70481 0
M  V30 2676 H 266.252 -0.956448 -3.7613 0
M  V30 2677 H 264.353 1.48519 -3.41721 0
M  V30 2678 H 264.466 0.191546 -4.78717 0
M  V30 2679 H 262.83 0.198442 -2.53926 0
M  V30 2680 H 263.613 -1.35585 -3.15391 0
M  V30 2681 N 266.058 1.56714 -0.166846 0
M  V30 2682 C 267.008 2.14338 0.777382 0
M  V30 2683 C 267.992 1.07642 1.19591 0
M  V30 2684 O 269.184 1.33775 1.15902 0
M  V30 2685 C 266.313 2.78417 2.00846 0
M  V30 2686 C 265.399 3.92264 1.61212 0
M  V30 2687 N 265.79 4.97268 0.925104 0
M  V30 2688 C 264.088 4.03342 1.90346 0
M  V30 2689 C 264.789 5.77093 0.730627 0
M  V30 2690 N 263.765 5.2854 1.27067 0
M  V30 2691 H 267.567 2.9289 0.243466 0
M  V30 2692 H 265.081 1.62364 0.0339954 0
M  V30 2693 H 267.078 3.18073 2.69509 0
M  V30 2694 H 265.738 2.01344 2.54736 0
M  V30 2695 H 266.749 5.14601 0.583646 0
M  V30 2696 H 263.426 3.37368 2.45946 0
M  V30 2697 H 264.816 6.71638 0.187668 0
M  V30 2698 N 267.536 -0.106894 1.57237 0
M  V30 2699 C 268.783 -0.812526 1.85484 0
M  V30 2700 C 269.111 -1.79304 0.753687 0
M  V30 2701 O 268.366 -1.94047 -0.253853 0
M  V30 2702 C 268.665 -1.58628 3.20268 0
M  V30 2703 C 268.331 -0.748967 4.44636 0
M  V30 2704 C 266.993 -0.518104 4.78403 0
M  V30 2705 C 269.345 -0.166122 5.20935 0
M  V30 2706 C 266.673 0.305659 5.85903 0
M  V30 2707 C 269.025 0.644899 6.29304 0
M  V30 2708 C 267.689 0.885965 6.61594 0
M  V30 2709 H 266.959 -0.297324 0.678734 0
M  V30 2710 H 269.606 -0.0744332 1.91355 0
M  V30 2711 H 267.911 -2.39562 3.10028 0
M  V30 2712 H 269.608 -2.13643 3.39349 0
M  V30 2713 H 266.198 -0.939006 4.18187 0
M  V30 2714 H 270.382 -0.33167 4.95191 0
M  V30 2715 H 265.638 0.501528 6.0934 0
M  V30 2716 H 269.812 1.10345 6.87602 0
M  V30 2717 H 267.439 1.52609 7.44725 0
M  V30 2718 N 269.014 -1.53014 -0.377408 0
M  V30 2719 C 269.924 -1.81557 -1.48574 0
M  V30 2720 C 270.94 -0.703102 -1.59162 0
M  V30 2721 O 272.116 -0.99192 -1.75279 0
M  V30 2722 C 269.181 -1.9889 -2.83978 0
M  V30 2723 C 268.242 -3.22801 -2.83016 0
M  V30 2724 C 267.475 -3.39298 -4.11962 0
M  V30 2725 O 267.698 -2.60345 -5.0752 0
M  V30 2726 O 266.632 -4.32604 -4.18494 0
M  V30 2727 H 270.458 -2.75695 -1.27382 0
M  V30 2728 H 268.043 -1.38248 -0.566373 0
M  V30 2729 H 269.925 -2.11931 -3.6423 0
M  V30 2730 H 268.6 -1.07942 -3.05172 0
M  V30 2731 H 267.507 -3.15193 -2.01505 0
M  V30 2732 H 268.84 -4.13632 -2.66775 0
M  V30 2733 N 270.492 0.636531 -1.44174 0
M  V30 2734 C 271.422 1.76003 -1.53444 0
M  V30 2735 C 272.403 1.65619 -0.387841 0
M  V30 2736 O 273.588 1.84461 -0.607257 0
M  V30 2737 C 270.718 3.14511 -1.4731 0
M  V30 2738 C 269.672 3.39677 -2.60391 0
M  V30 2739 C 268.998 4.78159 -2.39308 0
M  V30 2740 C 270.298 3.32772 -4.02567 0
M  V30 2741 H 271.992 1.68501 -2.47483 0
M  V30 2742 H 269.538 0.809237 -1.19111 0
M  V30 2743 H 271.491 3.92878 -1.52397 0
M  V30 2744 H 270.215 3.22783 -0.49785 0
M  V30 2745 H 268.874 2.63688 -2.54684 0
M  V30 2746 H 268.522 4.83128 -1.39988 0
M  V30 2747 H 268.222 4.95956 -3.15122 0
M  V30 2748 H 269.746 5.58762 -2.46205 0
M  V30 2749 H 271.16 4.01051 -4.09672 0
M  V30 2750 H 269.557 3.62104 -4.7854 0
M  V30 2751 H 270.627 2.30669 -4.2652 0
M  V30 2752 N 271.97 1.30982 0.876444 0
M  V30 2753 C 272.903 1.12414 1.98591 0
M  V30 2754 C 273.881 0.0294078 1.62573 0
M  V30 2755 O 275.065 0.184598 1.87594 0
M  V30 2756 C 272.192 0.716276 3.3104 0
M  V30 2757 C 271.238 1.81311 3.86042 0
M  V30 2758 S 272.071 3.41727 4.1229 0
M  V30 2759 C 273.227 3.02863 5.47745 0
M  V30 2760 H 273.46 2.06338 2.14037 0
M  V30 2761 H 270.993 1.15393 1.02586 0
M  V30 2762 H 272.951 0.487697 4.07593 0
M  V30 2763 H 271.612 -0.203749 3.13438 0
M  V30 2764 H 270.805 1.48021 4.81774 0
M  V30 2765 H 270.407 1.99641 3.16259 0
M  V30 2766 H 272.699 2.51353 6.29148 0
M  V30 2767 H 273.642 3.97533 5.8598 0
M  V30 2768 H 274.05 2.40487 5.10711 0
M  V30 2769 N 273.449 -1.08991 1.13837 0
M  V30 2770 C 274.86 -1.62746 0.914917 0
M  V30 2771 C 275.211 -1.88403 -0.547594 0
M  V30 2772 O 274.336 -1.63706 -1.41525 0
M  V30 2773 C 274.931 -2.95662 1.65437 0
M  V30 2774 C 273.49 -3.46225 1.47666 0
M  V30 2775 C 272.637 -2.20562 1.6807 0
M  V30 2776 H 275.588 -0.922946 1.29102 0
M  V30 2777 H 275.609 -3.63825 1.11407 0
M  V30 2778 H 275.121 -2.76956 2.71877 0
M  V30 2779 H 273.222 -3.70046 0.435478 0
M  V30 2780 H 273.335 -4.23368 2.24268 0
M  V30 2781 H 271.699 -2.29439 1.10589 0
M  V30 2782 H 272.482 -2.0437 2.7584 0
M  V30 2783 N 274.927 -0.932562 -1.27047 0
M  V30 2784 C 276.175 -0.574422 -1.93765 0
M  V30 2785 C 276.496 0.887993 -1.73608 0
M  V30 2786 O 275.766 1.62999 -1.08665 0
M  V30 2787 H 274.346 -0.209451 -0.717035 0
M  V30 2788 H 277.008 -1.18601 -1.5466 0
M  V30 2789 H 276.104 -0.784841 -3.02071 0
M  V30 2790 N 276.405 1.4127 -0.698611 0
M  V30 2791 C 277.353 2.32588 -0.023855 0
M  V30 2792 C 278.347 1.51128 0.765292 0
M  V30 2793 O 279.553 1.67043 0.670571 0
M  V30 2794 H 275.928 0.751918 0.0110871 0
M  V30 2795 H 277.899 2.87167 -0.811031 0
M  V30 2796 C 276.648 3.35947 0.896369 0
M  V30 2797 H 275.971 3.98684 0.298548 0
M  V30 2798 H 277.411 4.02376 1.33676 0
M  V30 2799 C 275.87 2.70076 2.01396 0
M  V30 2800 O 276.4 2.55093 3.10307 0
M  V30 2801 N 274.606 2.28724 1.79259 0
M  V30 2802 H 274.153 2.4111 0.906841 0
M  V30 2803 H 274.111 1.84986 2.54219 0
M  V30 2804 N 277.883 0.443576 1.51229 0
M  V30 2805 C 279.108 -0.121648 2.07043 0
M  V30 2806 C 279.533 -1.35156 1.30823 0
M  V30 2807 O 278.891 -1.7793 0.347934 0
M  V30 2808 C 278.939 -0.41624 3.5819 0
M  V30 2809 O 278.043 -1.50163 3.8409 0
M  V30 2810 H 277.384 0.000871367 0.663999 0
M  V30 2811 H 279.914 0.626706 1.94765 0
M  V30 2812 H 279.924 -0.664867 4.02546 0
M  V30 2813 H 278.599 0.482653 4.1309 0
M  V30 2814 H 277.176 -1.24248 3.51592 0
M  V30 2815 N 279.361 -1.56624 0.175154 0
M  V30 2816 C 280.607 -1.9729 -0.469506 0
M  V30 2817 C 280.94 -1.06128 -1.62636 0
M  V30 2818 O 280.215 -0.109183 -1.94193 0
M  V30 2819 C 280.498 -3.47375 -0.948804 0
M  V30 2820 C 280.351 -4.49317 0.208491 0
M  V30 2821 C 281.67 -4.00652 -1.82116 0
M  V30 2822 H 278.789 -0.717317 -0.16919 0
M  V30 2823 H 281.431 -1.88184 0.262062 0
M  V30 2824 H 279.581 -3.55267 -1.57219 0
M  V30 2825 H 281.253 -4.53482 0.845682 0
M  V30 2826 H 279.496 -4.25121 0.863395 0
M  V30 2827 H 280.167 -5.51741 -0.169059 0
M  V30 2828 H 282.643 -3.95416 -1.2956 0
M  V30 2829 H 281.519 -5.06075 -2.12554 0
M  V30 2830 H 281.78 -3.44699 -2.7683 0
M  V30 2831 N 280.839 0.0985539 -1.57292 0
M  V30 2832 C 282.069 0.815135 -1.8984 0
M  V30 2833 C 282.477 1.7297 -0.766679 0
M  V30 2834 O 281.82 1.81698 0.270483 0
M  V30 2835 C 281.882 1.6842 -3.17608 0
M  V30 2836 C 281.546 0.94182 -4.4719 0
M  V30 2837 C 282.543 0.273212 -5.19182 0
M  V30 2838 C 280.228 0.916927 -4.9386 0
M  V30 2839 C 282.222 -0.410361 -6.36078 0
M  V30 2840 C 279.909 0.229567 -6.10669 0
M  V30 2841 C 280.907 -0.432902 -6.81627 0
M  V30 2842 O 280.595 -1.10925 -7.9621 0
M  V30 2843 H 280.327 0.238501 -0.632529 0
M  V30 2844 H 282.881 0.0812659 -2.05239 0
M  V30 2845 H 281.111 2.46022 -2.98345 0
M  V30 2846 H 282.8 2.27704 -3.36015 0
M  V30 2847 H 283.566 0.283927 -4.84168 0
M  V30 2848 H 279.445 1.42201 -4.3852 0
M  V30 2849 H 282.989 -0.928013 -6.914 0
M  V30 2850 H 278.886 0.216686 -6.45136 0
M  V30 2851 H 279.654 -1.01579 -8.12172 0
M  V30 2852 N 282.317 1.53212 0.369288 0
M  V30 2853 C 283.267 1.75769 1.45222 0
M  V30 2854 C 284.251 0.612136 1.48801 0
M  V30 2855 O 285.443 0.870674 1.54105 0
M  V30 2856 C 282.572 1.94769 2.82701 0
M  V30 2857 C 281.658 3.15315 2.83615 0
M  V30 2858 N 282.049 4.37295 2.54178 0
M  V30 2859 C 280.347 3.15962 3.14776 0
M  V30 2860 C 281.048 5.19015 2.62675 0
M  V30 2861 N 280.024 4.55142 2.97232 0
M  V30 2862 H 283.826 2.67691 1.2132 0
M  V30 2863 H 281.34 1.51787 0.577438 0
M  V30 2864 H 283.337 2.09056 3.60696 0
M  V30 2865 H 281.997 1.04073 3.07569 0
M  V30 2866 H 283.008 4.65091 2.27839 0
M  V30 2867 H 279.685 2.35144 3.44983 0
M  V30 2868 H 281.075 6.26305 2.43294 0
M  V30 2869 N 283.795 -0.628877 1.44509 0
M  V30 2870 C 285.042 -1.38839 1.47411 0
M  V30 2871 C 285.37 -1.94202 0.10757 0
M  V30 2872 O 284.625 -1.74243 -0.890947 0
M  V30 2873 C 284.924 -2.56995 2.48371 0
M  V30 2874 C 284.59 -2.19908 3.93639 0
M  V30 2875 C 283.252 -2.09506 4.33198 0
M  V30 2876 C 285.604 -1.9064 4.85083 0
M  V30 2877 C 282.932 -1.68028 5.62124 0
M  V30 2878 C 285.284 -1.50655 6.14399 0
M  V30 2879 C 283.948 -1.38796 6.5291 0
M  V30 2880 H 283.218 -0.508048 0.539414 0
M  V30 2881 H 285.865 -0.712913 1.77735 0
M  V30 2882 H 284.17 -3.29786 2.11538 0
M  V30 2883 H 285.867 -3.15223 2.47861 0
M  V30 2884 H 282.457 -2.28922 3.62343 0
M  V30 2885 H 286.641 -1.97585 4.55273 0
M  V30 2886 H 281.897 -1.57452 5.90778 0
M  V30 2887 H 286.071 -1.27048 6.84713 0
M  V30 2888 H 283.698 -1.06429 7.52713 0
M  V30 2889 N 285.273 -1.31445 -0.869486 0
M  V30 2890 C 286.55 -1.11795 -1.60503 0
M  V30 2891 C 286.93 0.327168 -2.08549 0
M  V30 2892 O 286.278 1.32135 -1.8642 0
M  V30 2893 C 286.488 -2.13258 -2.76265 0
M  V30 2894 C 287.836 -2.45805 -3.46215 0
M  V30 2895 O 288.86 -2.11688 -2.86473 0
M  V30 2896 O 287.719 -3.04228 -4.5399 0
M  V30 2897 H 284.813 -0.430421 -0.706163 0
M  V30 2898 H 287.359 -1.42925 -0.914907 0
M  V30 2899 H 286.131 -3.10461 -2.3818 0
M  V30 2900 H 285.754 -1.83035 -3.52964 0
M  V30 2901 N 286.751 1.08385 -1.14413 0
M  V30 2902 C 287.698 2.15311 -0.831265 0
M  V30 2903 C 288.668 1.64751 0.211292 0
M  V30 2904 O 289.853 1.90627 0.0811674 0
M  V30 2905 C 286.993 3.43658 -0.315143 0
M  V30 2906 C 286.106 4.08064 -1.41802 0
M  V30 2907 C 285.241 5.24207 -0.859126 0
M  V30 2908 C 284.28 5.80554 -1.93967 0
M  V30 2909 N 283.417 6.88042 -1.39793 0
M  V30 2910 H 288.257 2.41415 -1.74708 0
M  V30 2911 H 285.794 1.18474 -0.871909 0
M  V30 2912 H 287.752 4.172 0.00230884 0
M  V30 2913 H 286.382 3.17839 0.56378 0
M  V30 2914 H 285.434 3.3228 -1.85187 0
M  V30 2915 H 286.746 4.45962 -2.23427 0
M  V30 2916 H 285.9 6.04689 -0.49359 0
M  V30 2917 H 284.639 4.87699 -0.011932 0
M  V30 2918 H 283.644 4.98725 -2.31415 0
M  V30 2919 H 284.869 6.19121 -2.79046 0
M  V30 2920 H 282.815 6.53493 -0.572919 0
M  V30 2921 H 282.732 7.24767 -2.15054 0
M  V30 2922 H 284 7.72255 -1.0603 0
M  V30 2923 N 288.23 0.939286 1.26551 0
M  V30 2924 C 289.455 0.602008 1.98471 0
M  V30 2925 C 289.88 -0.815624 1.69497 0
M  V30 2926 O 289.238 -1.54912 0.941905 0
M  V30 2927 C 289.286 0.848407 3.50477 0
M  V30 2928 O 288.39 -0.0804009 4.12322 0
M  V30 2929 H 287.731 0.23049 0.622712 0
M  V30 2930 H 290.261 1.2617 1.61066 0
M  V30 2931 H 290.271 0.768553 4.00696 0
M  V30 2932 H 288.946 1.88171 3.70897 0
M  V30 2933 H 287.523 0.0503508 3.72866 0
M  V30 2934 N 289.708 -1.40897 0.706093 0
M  V30 2935 C 290.936 -2.05373 0.250887 0
M  V30 2936 C 291.351 -1.53172 -1.10381 0
M  V30 2937 O 290.708 -0.684305 -1.69185 0
M  V30 2938 C 290.759 -3.6088 0.211571 0
M  V30 2939 O 290.48 -4.11153 1.51276 0
M  V30 2940 C 291.981 -4.42517 -0.263346 0
M  V30 2941 H 289.201 -0.66115 0.114552 0
M  V30 2942 H 291.745 -1.80479 0.961635 0
M  V30 2943 H 289.9 -3.84777 -0.450073 0
M  V30 2944 H 290.314 -5.05279 1.40689 0
M  V30 2945 H 291.788 -5.51479 -0.239718 0
M  V30 2946 H 292.265 -4.19396 -1.30397 0
M  V30 2947 H 292.871 -4.23708 0.367677 0
M  V30 2948 N 291.186 -0.45159 -1.50991 0
M  V30 2949 C 292.411 0.110667 -2.07105 0
M  V30 2950 C 292.836 1.3446 -1.31538 0
M  V30 2951 O 292.194 1.77743 -0.357365 0
M  V30 2952 C 292.242 0.397238 -3.58405 0
M  V30 2953 O 291.346 1.48124 -3.84881 0
M  V30 2954 H 290.687 -0.00439271 -0.663985 0
M  V30 2955 H 293.217 -0.637026 -1.9443 0
M  V30 2956 H 293.227 0.64351 -4.02893 0
M  V30 2957 H 291.902 -0.504553 -4.12828 0
M  V30 2958 H 290.479 1.22381 -3.52246 0
M  V30 2959 N 292.664 1.56529 -0.183458 0
M  V30 2960 C 293.889 2.02064 0.467428 0
M  V30 2961 C 294.314 1.06282 1.55196 0
M  V30 2962 O 293.672 0.0443565 1.81246 0
M  V30 2963 C 293.72 3.46122 1.01153 0
M  V30 2964 O 292.824 3.53437 2.12499 0
M  V30 2965 H 292.165 0.654726 0.110588 0
M  V30 2966 H 294.695 2.02521 -0.290917 0
M  V30 2967 H 294.705 3.85676 1.33108 0
M  V30 2968 H 293.38 4.15331 0.217533 0
M  V30 2969 H 291.957 3.2575 1.81497 0
M  V30 2970 N 294.142 -0.090211 1.57342 0
M  V30 2971 C 295.382 -0.798365 1.88163 0
M  V30 2972 C 295.746 -1.75662 0.775046 0
M  V30 2973 O 296.947 -2.50849 0.965816 0
M  V30 2974 C 295.218 -1.50376 3.24225 0
M  V30 2975 S 296.777 -2.24952 3.76752 0
M  V30 2976 H 293.595 -0.265883 0.659414 0
M  V30 2977 H 296.197 -0.055264 1.95422 0
M  V30 2978 H 294.901 -0.792286 4.0268 0
M  V30 2979 H 294.432 -2.28666 3.20118 0
M  V30 2980 H 296.447 -3.51173 3.5056 0
M  V30 2981 N 295.62 -1.53406 -0.361157 0
M  V30 2982 C 296.869 -1.69022 -1.10066 0
M  V30 2983 C 297.182 -0.450838 -1.90333 0
M  V30 2984 O 298.388 -0.487617 -2.67085 0
M  V30 2985 C 296.844 -2.98812 -2.00598 0
M  V30 2986 C 296.452 -4.30027 -1.25621 0
M  V30 2987 C 298.196 -3.23795 -2.74513 0
M  V30 2988 C 296.103 -5.50903 -2.1508 0
M  V30 2989 H 295.033 -0.629776 -0.414606 0
M  V30 2990 H 297.684 -1.79907 -0.361348 0
M  V30 2991 H 296.066 -2.8174 -2.78278 0
M  V30 2992 H 297.24 -4.57745 -0.529739 0
M  V30 2993 H 295.555 -4.11522 -0.635496 0
M  V30 2994 H 298.152 -4.11289 -3.41681 0
M  V30 2995 H 298.495 -2.40045 -3.40123 0
M  V30 2996 H 299.028 -3.41561 -2.03914 0
M  V30 2997 H 295.767 -6.37143 -1.54041 0
M  V30 2998 H 295.287 -5.27459 -2.85565 0
M  V30 2999 H 296.966 -5.85865 -2.74538 0
M  V30 3000 N 297.098 0.621204 -1.44841 0
M  V30 3001 C 298.323 1.41244 -1.51871 0
M  V30 3002 C 298.748 1.87519 -0.147764 0
M  V30 3003 O 298.106 1.59334 0.865 0
M  V30 3004 C 298.154 2.60221 -2.49634 0
M  V30 3005 O 297.258 3.60395 -2.00473 0
M  V30 3006 H 296.599 0.42223 -0.512463 0
M  V30 3007 H 299.129 0.757305 -1.90069 0
M  V30 3008 H 299.139 3.0764 -2.67996 0
M  V30 3009 H 297.814 2.25887 -3.4921 0
M  V30 3010 H 296.391 3.19717 -1.91925 0
M  V30 3011 N 298.576 1.31904 0.862503 0
M  V30 3012 C 299.804 1.24998 1.64873 0
M  V30 3013 C 300.219 -0.183425 1.87907 0
M  V30 3014 O 299.576 -1.11794 1.44251 0
M  V30 3015 C 299.627 1.99829 3.01248 0
M  V30 3016 O 299.348 3.37575 2.79239 0
M  V30 3017 C 300.849 1.99852 3.95694 0
M  V30 3018 H 298.069 0.431599 0.513773 0
M  V30 3019 H 300.613 1.73901 1.07604 0
M  V30 3020 H 298.768 1.54668 3.55185 0
M  V30 3021 H 299.182 3.75776 3.65914 0
M  V30 3022 H 300.656 2.56709 4.88676 0
M  V30 3023 H 301.133 0.982852 4.28062 0
M  V30 3024 H 301.739 2.44926 3.47694 0
M  V30 3025 N 300.054 -1.07777 1.14986 0
M  V30 3026 C 301.002 -2.16964 0.838406 0
M  V30 3027 C 301.996 -1.68372 -0.186386 0
M  V30 3028 O 303.202 -1.79951 -0.0418465 0
M  V30 3029 H 299.577 -0.708006 0.253439 0
M  V30 3030 H 301.548 -2.40454 1.76704 0
M  V30 3031 C 300.297 -3.4604 0.339335 0
M  V30 3032 H 299.62 -3.83813 1.11927 0
M  V30 3033 H 301.06 -4.23698 0.160021 0
M  V30 3034 C 299.519 -3.23569 -0.938325 0
M  V30 3035 O 300.049 -3.47752 -2.01077 0
M  V30 3036 N 298.255 -2.77079 -0.876117 0
M  V30 3037 H 297.802 -2.576 -0.00322037 0
M  V30 3038 H 297.76 -2.62422 -1.73153 0
M  V30 3039 N 301.532 -0.945985 -1.26051 0
M  V30 3040 C 302.495 -0.463897 -2.24456 0
M  V30 3041 C 303.495 0.427655 -1.55009 0
M  V30 3042 O 304.685 0.226157 -1.72726 0
M  V30 3043 C 301.817 0.330812 -3.39291 0
M  V30 3044 H 303.01 -1.33357 -2.68619 0
M  V30 3045 H 300.563 -0.728416 -1.38289 0
M  V30 3046 H 301.298 1.21852 -3.00537 0
M  V30 3047 H 301.083 -0.308679 -3.90883 0
M  V30 3048 H 302.573 0.657865 -4.12386 0
M  V30 3049 N 303.011 1.40521 -0.713556 0
M  V30 3050 C 303.941 2.33381 -0.0743864 0
M  V30 3051 C 304.922 1.52784 0.747735 0
M  V30 3052 O 306.107 1.81258 0.697071 0
M  V30 3053 C 303.237 3.36748 0.849598 0
M  V30 3054 C 302.191 4.27793 0.133247 0
M  V30 3055 C 301.517 5.21679 1.17281 0
M  V30 3056 C 302.817 5.12415 -1.01134 0
M  V30 3057 H 304.511 2.87081 -0.850007 0
M  V30 3058 H 302.057 1.38034 -0.410201 0
M  V30 3059 H 304.01 4.00648 1.30612 0
M  V30 3060 H 302.734 2.81439 1.65709 0
M  V30 3061 H 301.393 3.65342 -0.303426 0
M  V30 3062 H 301.041 4.62677 1.9733 0
M  V30 3063 H 300.741 5.83435 0.698397 0
M  V30 3064 H 302.265 5.88456 1.62947 0
M  V30 3065 H 303.679 5.69781 -0.634274 0
M  V30 3066 H 302.076 5.83203 -1.41399 0
M  V30 3067 H 303.146 4.48514 -1.84292 0
M  V30 3068 N 304.489 0.459591 1.5075 0
M  V30 3069 C 305.419 -0.330644 2.31147 0
M  V30 3070 C 306.4 -1.00087 1.37538 0
M  V30 3071 O 307.585 -1.00025 1.66459 0
M  V30 3072 C 304.715 -1.41958 3.16962 0
M  V30 3073 C 303.669 -0.871608 4.19031 0
M  V30 3074 C 302.995 -2.05797 4.9351 0
M  V30 3075 C 304.295 0.109251 5.22186 0
M  V30 3076 H 305.989 0.340336 2.97459 0
M  V30 3077 H 303.535 0.165119 1.4305 0
M  V30 3078 H 305.488 -1.9798 3.71997 0
M  V30 3079 H 304.212 -2.11917 2.48513 0
M  V30 3080 H 302.871 -0.333442 3.6508 0
M  V30 3081 H 302.519 -2.74427 4.21544 0
M  V30 3082 H 302.219 -1.6976 5.62544 0
M  V30 3083 H 303.743 -2.62331 5.51375 0
M  V30 3084 H 305.157 -0.361405 5.7216 0
M  V30 3085 H 303.554 0.383316 5.98875 0
M  V30 3086 H 304.624 1.03887 4.73641 0
M  V30 3087 N 305.967 -1.56429 0.191757 0
M  V30 3088 C 307.378 -1.83912 -0.321428 0
M  V30 3089 C 307.729 -1.11231 -1.61623 0
M  V30 3090 O 306.854 -0.37202 -2.13178 0
M  V30 3091 C 307.449 -3.33624 -0.589961 0
M  V30 3092 C 306.008 -3.6153 -1.04753 0
M  V30 3093 C 305.155 -2.7714 -0.0943327 0
M  V30 3094 H 308.106 -1.53161 0.415612 0
M  V30 3095 H 308.127 -3.52213 -1.43966 0
M  V30 3096 H 307.639 -3.86495 0.352588 0
M  V30 3097 H 305.74 -3.14089 -2.00447 0
M  V30 3098 H 305.853 -4.69737 -0.942549 0
M  V30 3099 H 304.217 -2.47638 -0.595589 0
M  V30 3100 H 305 -3.32799 0.842601 0
M  V30 3101 N 307.445 0.0818655 -1.57387 0
M  V30 3102 C 308.722 0.815343 -1.77796 0
M  V30 3103 C 309.102 1.96289 -0.77679 0
M  V30 3104 O 308.45 2.27691 0.192106 0
M  V30 3105 C 308.66 1.29765 -3.23978 0
M  V30 3106 C 310.008 1.7351 -3.8753 0
M  V30 3107 O 311.032 1.39356 -3.27808 0
M  V30 3108 O 309.891 2.36708 -4.92576 0
M  V30 3109 H 306.985 0.389914 -0.729312 0
M  V30 3110 H 309.531 0.0627213 -1.69584 0
M  V30 3111 H 308.303 0.47608 -3.88393 0
M  V30 3112 H 307.926 2.11189 -3.36875 0
M  V30 3113 N 308.923 1.53595 0.353017 0
M  V30 3114 C 310.334 1.61937 0.929153 0
M  V30 3115 C 310.685 0.494686 1.89861 0
M  V30 3116 O 309.81 -0.377017 2.1309 0
M  V30 3117 C 310.405 2.93526 1.69199 0
M  V30 3118 C 308.964 3.04161 2.21727 0
M  V30 3119 C 308.111 2.57322 1.03348 0
M  V30 3120 H 311.062 1.58155 0.131431 0
M  V30 3121 H 311.083 2.82034 2.55416 0
M  V30 3122 H 310.595 3.75362 0.986144 0
M  V30 3123 H 308.696 2.26938 2.95516 0
M  V30 3124 H 308.809 4.09465 2.48748 0
M  V30 3125 H 307.173 2.12499 1.40414 0
M  V30 3126 H 307.956 3.41588 0.342428 0
M  V30 3127 N 310.401 -0.613514 1.45168 0
M  V30 3128 C 311.631 -1.39743 1.52169 0
M  V30 3129 C 312.039 -1.88596 0.151086 0
M  V30 3130 O 311.382 -1.6251 -0.856521 0
M  V30 3131 C 311.444 -2.64035 2.43979 0
M  V30 3132 C 311.108 -2.36861 3.90827 0
M  V30 3133 C 312.105 -1.97591 4.80889 0
M  V30 3134 C 309.79 -2.49956 4.35692 0
M  V30 3135 C 311.784 -1.71768 6.1382 0
M  V30 3136 C 309.471 -2.23747 5.68665 0
M  V30 3137 C 310.469 -1.84714 6.57548 0
M  V30 3138 O 310.157 -1.58809 7.88058 0
M  V30 3139 H 309.889 -0.434382 0.517966 0
M  V30 3140 H 312.443 -0.75587 1.90986 0
M  V30 3141 H 310.673 -3.3089 2.00122 0
M  V30 3142 H 312.362 -3.26069 2.41731 0
M  V30 3143 H 313.128 -1.87015 4.47493 0
M  V30 3144 H 309.007 -2.79305 3.66756 0
M  V30 3145 H 312.551 -1.41227 6.83155 0
M  V30 3146 H 308.448 -2.33938 6.01617 0
M  V30 3147 H 309.216 -1.7291 8.00028 0
M  V30 3148 N 311.879 -1.3236 -0.855495 0
M  V30 3149 C 312.789 -1.23221 -1.99634 0
M  V30 3150 C 313.805 -0.145983 -1.73387 0
M  V30 3151 O 314.981 -0.366502 -1.98037 0
M  V30 3152 C 312.046 -0.954782 -3.33294 0
M  V30 3153 C 311.107 -2.12937 -3.72769 0
M  V30 3154 C 310.34 -1.86508 -5.00051 0
M  V30 3155 O 310.563 -0.807231 -5.64659 0
M  V30 3156 O 309.497 -2.72591 -5.36636 0
M  V30 3157 H 313.323 -2.19126 -2.1028 0
M  V30 3158 H 310.908 -1.12241 -0.986018 0
M  V30 3159 H 312.79 -0.816519 -4.13414 0
M  V30 3160 H 311.465 -0.0258854 -3.2369 0
M  V30 3161 H 310.372 -2.3231 -2.93228 0
M  V30 3162 H 311.705 -3.04102 -3.87018 0
M  V30 3163 N 313.357 1.07166 -1.15556 0
M  V30 3164 C 314.582 1.84053 -0.955988 0
M  V30 3165 C 315.007 1.81586 0.490739 0
M  V30 3166 O 314.365 1.21018 1.34997 0
M  V30 3167 C 314.413 3.28957 -1.47714 0
M  V30 3168 O 313.517 4.06795 -0.677593 0
M  V30 3169 H 312.858 0.569842 -0.340847 0
M  V30 3170 H 315.388 1.35178 -1.53584 0
M  V30 3171 H 315.398 3.79788 -1.4908 0
M  V30 3172 H 314.073 3.30068 -2.53037 0
M  V30 3173 H 312.65 3.6561 -0.733721 0
M  V30 3174 N 314.835 0.952656 1.25548 0
M  V30 3175 C 315.745 0.47782 2.29682 0
M  V30 3176 C 316.761 -0.453859 1.67977 0
M  V30 3177 O 317.937 -0.330587 1.98668 0
M  V30 3178 C 315.002 -0.238655 3.45878 0
M  V30 3179 C 314.063 0.730994 4.23031 0
M  V30 3180 C 313.296 0.0486165 5.33678 0
M  V30 3181 O 313.519 -1.16612 5.58353 0
M  V30 3182 O 312.453 0.733152 5.97418 0
M  V30 3183 H 316.279 1.34312 2.72386 0
M  V30 3184 H 313.864 0.719026 1.30959 0
M  V30 3185 H 315.746 -0.641774 4.16484 0
M  V30 3186 H 314.421 -1.07916 3.05181 0
M  V30 3187 H 313.328 1.18428 3.5486 0
M  V30 3188 H 314.661 1.53946 4.67506 0
M  V30 3189 N 316.313 -1.40141 0.720998 0
M  V30 3190 C 317.729 -1.54632 0.395113 0
M  V30 3191 C 317.929 -1.69115 -1.09555 0
M  V30 3192 O 316.985 -1.68377 -1.88163 0
M  V30 3193 C 318.298 -2.77177 1.1659 0
M  V30 3194 C 319.846 -2.91 1.15274 0
M  V30 3195 C 320.321 -4.16465 1.90579 0
M  V30 3196 N 321.812 -4.23476 1.87675 0
M  V30 3197 C 322.547 -5.19475 2.42762 0
M  V30 3198 N 322.043 -6.21348 3.06428 0
M  V30 3199 N 323.836 -5.11592 2.32874 0
M  V30 3200 H 315.987 -1.28986 1.68749 0
M  V30 3201 H 318.25 -0.62412 0.713567 0
M  V30 3202 H 317.956 -2.72771 2.22011 0
M  V30 3203 H 317.83 -3.69442 0.76108 0
M  V30 3204 H 320.217 -2.94907 0.106702 0
M  V30 3205 H 320.298 -1.99838 1.59682 0
M  V30 3206 H 319.942 -4.1332 2.95176 0
M  V30 3207 H 319.872 -5.06646 1.43587 0
M  V30 3208 H 322.363 -3.50497 1.41281 0
M  V30 3209 H 322.676 -6.91034 3.45965 0
M  V30 3210 H 321.021 -6.21777 3.10514 0
M  V30 3211 H 324.212 -4.30936 1.82789 0
M  V30 3212 H 324.385 -5.86233 2.76106 0
M  V30 3213 N 317.792 -0.46758 -1.50504 0
M  V30 3214 C 319.038 0.0887532 -2.02606 0
M  V30 3215 C 319.371 1.39686 -1.34913 0
M  V30 3216 O 318.646 1.88644 -0.473694 0
M  V30 3217 C 318.929 0.276206 -3.59039 0
M  V30 3218 C 318.782 -1.05267 -4.37309 0
M  V30 3219 C 320.101 1.03235 -4.27821 0
M  V30 3220 H 317.22 0.0307814 -0.736357 0
M  V30 3221 H 319.862 -0.612485 -1.79857 0
M  V30 3222 H 318.012 0.8735 -3.78553 0
M  V30 3223 H 319.684 -1.68628 -4.29374 0
M  V30 3224 H 317.927 -1.65015 -4.01189 0
M  V30 3225 H 318.598 -0.875197 -5.45018 0
M  V30 3226 H 321.074 0.526111 -4.12761 0
M  V30 3227 H 319.95 1.1323 -5.37094 0
M  V30 3228 H 320.211 2.06806 -3.90748 0
M  V30 3229 N 319.27 1.56325 -0.20005 0
M  V30 3230 C 320.5 2.01811 0.442232 0
M  V30 3231 C 320.908 1.07932 1.55394 0
M  V30 3232 O 320.251 0.0772685 1.83537 0
M  V30 3233 C 320.313 3.43685 1.05457 0
M  V30 3234 C 319.977 4.56928 0.0809833 0
M  V30 3235 C 320.974 5.15009 -0.711471 0
M  V30 3236 C 318.659 5.0229 -0.0315364 0
M  V30 3237 C 320.653 6.16904 -1.60336 0
M  V30 3238 C 318.34 6.04028 -0.926981 0
M  V30 3239 C 319.338 6.6121 -1.71146 0
M  V30 3240 O 319.026 7.60971 -2.59189 0
M  V30 3241 H 318.758 0.666173 0.114848 0
M  V30 3242 H 321.312 2.03085 -0.307511 0
M  V30 3243 H 319.542 3.39413 1.85299 0
M  V30 3244 H 321.231 3.72948 1.60201 0
M  V30 3245 H 321.997 4.80827 -0.634873 0
M  V30 3246 H 317.876 4.57476 0.568902 0
M  V30 3247 H 321.42 6.61464 -2.21611 0
M  V30 3248 H 317.317 6.37634 -1.00468 0
M  V30 3249 H 318.085 7.7841 -2.53023 0
M  V30 3250 N 320.748 -0.0735177 1.57428 0
M  V30 3251 C 321.994 -0.774145 1.87443 0
M  V30 3252 C 322.327 -1.77311 0.792103 0
M  V30 3253 O 321.602 -1.93492 -0.197793 0
M  V30 3254 C 321.885 -1.48367 3.28115 0
M  V30 3255 C 321.738 -0.501227 4.46999 0
M  V30 3256 C 323.057 -2.429 3.66998 0
M  V30 3257 H 320.176 -0.279971 0.681752 0
M  V30 3258 H 322.818 -0.0373616 1.89963 0
M  V30 3259 H 320.968 -2.11171 3.26097 0
M  V30 3260 H 322.64 0.121468 4.6114 0
M  V30 3261 H 320.883 0.183593 4.33411 0
M  V30 3262 H 321.554 -1.03526 5.42205 0
M  V30 3263 H 324.03 -1.90175 3.70098 0
M  V30 3264 H 322.906 -2.89549 4.66318 0
M  V30 3265 H 323.167 -3.27628 2.96837 0
M  V30 3266 N 322.226 -1.5378 -0.344866 0
M  V30 3267 C 323.189 -1.80981 -1.40637 0
M  V30 3268 C 324.189 -0.680816 -1.45676 0
M  V30 3269 O 325.379 -0.949095 -1.46075 0
M  V30 3270 C 322.511 -1.95063 -2.79577 0
M  V30 3271 H 323.704 -2.75803 -1.17783 0
M  V30 3272 H 321.257 -1.45173 -0.579181 0
M  V30 3273 H 321.992 -1.02379 -3.07716 0
M  V30 3274 H 321.777 -2.77198 -2.77315 0
M  V30 3275 H 323.267 -2.17629 -3.56409 0
M  V30 3276 N 323.704 0.605807 -1.45491 0
M  V30 3277 C 324.614 1.74466 -1.56839 0
M  V30 3278 C 325.63 1.68006 -0.452772 0
M  V30 3279 O 326.806 1.8833 -0.713708 0
M  V30 3280 C 323.871 3.10931 -1.53371 0
M  V30 3281 C 322.932 3.28832 -2.75986 0
M  V30 3282 C 322.165 4.58787 -2.72673 0
M  V30 3283 O 322.388 5.4122 -1.80102 0
M  V30 3284 O 321.322 4.79438 -3.63899 0
M  V30 3285 H 325.148 1.67843 -2.53106 0
M  V30 3286 H 322.733 0.770108 -1.28022 0
M  V30 3287 H 324.615 3.92233 -1.54051 0
M  V30 3288 H 323.29 3.18042 -0.602572 0
M  V30 3289 H 322.197 2.47112 -2.80867 0
M  V30 3290 H 323.53 3.26599 -3.68231 0
M  V30 3291 N 325.182 1.32811 0.848464 0
M  V30 3292 C 326.407 1.26882 1.6406 0
M  V30 3293 C 326.832 -0.15913 1.87426 0
M  V30 3294 O 326.19 -1.11258 1.43148 0
M  V30 3295 C 326.238 2.03997 2.97351 0
M  V30 3296 O 325.342 1.39201 3.88197 0
M  V30 3297 H 324.683 0.436982 0.499943 0
M  V30 3298 H 327.213 1.75224 1.0563 0
M  V30 3299 H 327.223 2.14403 3.47124 0
M  V30 3300 H 325.898 3.0783 2.79666 0
M  V30 3301 H 324.475 1.37381 3.46671 0
M  V30 3302 N 326.66 -1.06551 1.16123 0
M  V30 3303 C 327.59 -2.15935 0.88851 0
M  V30 3304 C 328.571 -1.69306 -0.164135 0
M  V30 3305 O 329.756 -1.94193 -0.0167857 0
M  V30 3306 C 326.886 -3.45149 0.385942 0
M  V30 3307 C 325.84 -4.05271 1.3762 0
M  V30 3308 C 325.166 -5.29664 0.732137 0
M  V30 3309 C 326.466 -4.44355 2.74493 0
M  V30 3310 H 328.16 -2.39006 1.80323 0
M  V30 3311 H 325.706 -1.14866 0.868435 0
M  V30 3312 H 327.659 -4.21004 0.182647 0
M  V30 3313 H 326.383 -3.21689 -0.564274 0
M  V30 3314 H 325.042 -3.3147 1.56599 0
M  V30 3315 H 324.69 -5.02499 -0.224483 0
M  V30 3316 H 324.39 -5.70848 1.39307 0
M  V30 3317 H 325.914 -6.08218 0.538802 0
M  V30 3318 H 327.328 -5.11303 2.59311 0
M  V30 3319 H 325.725 -4.96515 3.37035 0
M  V30 3320 H 326.795 -3.55339 3.29943 0
M  V30 3321 N 328.138 -0.959301 -1.25041 0
M  V30 3322 C 329.387 -0.612254 -1.92183 0
M  V30 3323 C 329.7 0.855347 -1.75907 0
M  V30 3324 O 330.906 1.31256 -2.37664 0
M  V30 3325 C 329.362 -1.04435 -3.44414 0
M  V30 3326 C 328.97 -2.53482 -3.69393 0
M  V30 3327 C 330.714 -0.770055 -4.17457 0
M  V30 3328 C 328.621 -2.90468 -5.15153 0
M  V30 3329 H 327.551 -0.225279 -0.719559 0
M  V30 3330 H 330.202 -1.16438 -1.41825 0
M  V30 3331 H 328.584 -0.4206 -3.9376 0
M  V30 3332 H 329.758 -3.20916 -3.30681 0
M  V30 3333 H 328.073 -2.78432 -3.0962 0
M  V30 3334 H 330.67 -1.02249 -5.24832 0
M  V30 3335 H 331.013 0.293611 -4.15263 0
M  V30 3336 H 331.546 -1.35437 -3.74034 0
M  V30 3337 H 328.285 -3.95871 -5.22462 0
M  V30 3338 H 327.805 -2.27711 -5.54894 0
M  V30 3339 H 329.484 -2.79914 -5.83315 0
M  V30 3340 N 329.616 1.39756 -0.72842 0
M  V30 3341 C 330.841 2.05472 -0.282159 0
M  V30 3342 C 331.266 1.54549 1.07221 0
M  V30 3343 O 330.624 0.686372 1.67805 0
M  V30 3344 C 330.672 3.59462 -0.286264 0
M  V30 3345 O 329.776 4.05918 0.728298 0
M  V30 3346 H 329.117 0.651226 -0.129618 0
M  V30 3347 H 331.647 1.78915 -0.992499 0
M  V30 3348 H 331.657 4.07798 -0.128373 0
M  V30 3349 H 330.332 3.95889 -1.27456 0
M  V30 3350 H 328.909 3.69012 0.537081 0
M  V30 3351 N 331.094 0.475555 1.50254 0
M  V30 3352 C 332.319 -0.0777042 2.07254 0
M  V30 3353 C 332.744 -1.3235 1.3366 0
M  V30 3354 O 332.102 -1.77152 0.385597 0
M  V30 3355 C 332.15 -0.340169 3.58992 0
M  V30 3356 O 331.254 -1.41982 3.87188 0
M  V30 3357 H 330.595 0.0149556 0.663832 0
M  V30 3358 H 333.125 0.667878 1.93392 0
M  V30 3359 H 333.135 -0.579332 4.03866 0
M  V30 3360 H 331.81 0.570167 4.11973 0
M  V30 3361 H 330.387 -1.16762 3.54148 0
M  V30 3362 N 332.573 -1.56217 0.208337 0
M  V30 3363 C 333.536 -2.18455 -0.693557 0
M  V30 3364 C 334.536 -1.14268 -1.13135 0
M  V30 3365 O 335.726 -1.39577 -1.0423 0
M  V30 3366 C 332.858 -2.79727 -1.94848 0
M  V30 3367 H 334.051 -2.99519 -0.15114 0
M  V30 3368 H 331.604 -1.56245 -0.041287 0
M  V30 3369 H 332.339 -2.02497 -2.53309 0
M  V30 3370 H 332.124 -3.56009 -1.64316 0
M  V30 3371 H 333.614 -3.27475 -2.59133 0
M  V30 3372 N 334.051 0.0651679 -1.57465 0
M  V30 3373 C 335.299 0.761555 -1.87202 0
M  V30 3374 C 335.62 1.77778 -0.801243 0
M  V30 3375 O 334.89 1.95166 0.16937 0
M  V30 3376 H 333.47 0.284251 -0.690804 0
M  V30 3377 H 336.132 0.0396827 -1.9486 0
M  V30 3378 H 335.228 1.27365 -2.84929 0
M  V30 3379 N 335.529 1.53961 0.336706 0
M  V30 3380 C 336.439 1.85432 1.43708 0
M  V30 3381 C 337.455 0.745053 1.57242 0
M  V30 3382 O 338.631 1.03804 1.72588 0
M  V30 3383 C 335.696 2.06349 2.78605 0
M  V30 3384 C 334.757 3.30191 2.74358 0
M  V30 3385 C 333.99 3.50101 4.02822 0
M  V30 3386 O 334.213 2.7371 5.00439 0
M  V30 3387 O 333.147 4.43547 4.06878 0
M  V30 3388 H 336.973 2.78975 1.20028 0
M  V30 3389 H 334.558 1.39701 0.52952 0
M  V30 3390 H 336.44 2.21513 3.58483 0
M  V30 3391 H 335.115 1.15995 3.02203 0
M  V30 3392 H 334.022 3.20425 1.93078 0
M  V30 3393 H 335.355 4.2056 2.55715 0
M  V30 3394 N 337.007 -0.598083 1.45811 0
M  V30 3395 C 338.255 -1.35413 1.50026 0
M  V30 3396 C 338.576 -1.94444 0.147177 0
M  V30 3397 O 337.846 -1.77701 -0.824571 0
M  V30 3398 H 336.426 -0.502727 0.552517 0
M  V30 3399 H 339.088 -0.701606 1.81834 0
M  V30 3400 H 338.184 -2.16871 2.2444 0
M  V30 3401 N 338.485 -1.33259 -0.841409 0
M  V30 3402 C 339.415 -1.25926 -1.96634 0
M  V30 3403 C 340.396 -0.140349 -1.6952 0
M  V30 3404 O 341.581 -0.329707 -1.91381 0
M  V30 3405 C 338.711 -0.99512 -3.32738 0
M  V30 3406 C 337.665 -2.0767 -3.74242 0
M  V30 3407 C 336.991 -1.66474 -5.08125 0
M  V30 3408 C 338.291 -3.49318 -3.88297 0
M  V30 3409 H 339.985 -2.20046 -2.03027 0
M  V30 3410 H 337.531 -1.05931 -0.975425 0
M  V30 3411 H 339.484 -0.930323 -4.11002 0
M  V30 3412 H 338.208 -0.0183004 -3.26595 0
M  V30 3413 H 336.867 -2.13187 -2.98239 0
M  V30 3414 H 336.515 -0.675012 -4.9845 0
M  V30 3415 H 336.215 -2.3885 -5.36865 0
M  V30 3416 H 337.739 -1.61455 -5.88867 0
M  V30 3417 H 339.153 -3.46316 -4.56879 0
M  V30 3418 H 337.55 -4.20158 -4.28471 0
M  V30 3419 H 338.62 -3.8801 -2.9082 0
M  V30 3420 N 339.963 1.05934 -1.16686 0
M  V30 3421 C 341.21 1.788 -0.950622 0
M  V30 3422 C 341.538 1.87384 0.521305 0
M  V30 3423 O 340.793 1.36438 1.40297 0
M  V30 3424 C 341.092 3.23105 -1.52767 0
M  V30 3425 C 340.758 3.34594 -3.02254 0
M  V30 3426 C 339.42 3.37437 -3.43059 0
M  V30 3427 C 341.772 3.36219 -3.98254 0
M  V30 3428 C 339.1 3.39525 -4.78477 0
M  V30 3429 C 341.452 3.39845 -5.33562 0
M  V30 3430 C 340.116 3.40971 -5.73842 0
M  V30 3431 H 339.386 0.654275 -0.347857 0
M  V30 3432 H 342.033 1.24555 -1.45459 0
M  V30 3433 H 340.338 3.80227 -0.94524 0
M  V30 3434 H 342.035 3.7809 -1.336 0
M  V30 3435 H 338.625 3.3309 -2.6972 0
M  V30 3436 H 342.809 3.33231 -3.67792 0
M  V30 3437 H 338.065 3.38703 -5.09009 0
M  V30 3438 H 342.239 3.4005 -6.07733 0
M  V30 3439 H 339.866 3.42342 -6.78753 0
M  V30 3440 N 341.441 0.965919 1.2453 0
M  V30 3441 C 342.666 0.643971 1.97149 0
M  V30 3442 C 343.091 -0.779487 1.71189 0
M  V30 3443 O 342.449 -1.5288 0.974553 0
M  V30 3444 C 342.497 0.922557 3.48599 0
M  V30 3445 O 341.601 0.00707672 4.12399 0
M  V30 3446 H 340.942 0.243647 0.617683 0
M  V30 3447 H 343.472 1.29558 1.58353 0
M  V30 3448 H 343.482 0.853373 3.98976 0
M  V30 3449 H 342.157 1.95996 3.66822 0
M  V30 3450 H 340.734 0.12943 3.72675 0
M  V30 3451 N 342.919 -1.39368 0.735821 0
M  V30 3452 C 343.866 -2.30599 0.0963825 0
M  V30 3453 C 344.836 -1.49257 -0.728794 0
M  V30 3454 O 346.021 -1.77941 -0.688588 0
M  V30 3455 C 343.161 -3.35596 -0.804305 0
M  V30 3456 C 342.274 -4.31987 0.0335761 0
M  V30 3457 C 341.409 -5.24053 -0.868461 0
M  V30 3458 C 340.448 -6.12095 -0.0258776 0
M  V30 3459 N 339.585 -6.96514 -0.883893 0
M  V30 3460 H 344.425 -2.8471 0.880002 0
M  V30 3461 H 341.962 -1.40188 0.445619 0
M  V30 3462 H 343.92 -3.95062 -1.34096 0
M  V30 3463 H 342.55 -2.82938 -1.55389 0
M  V30 3464 H 341.602 -3.74133 0.68766 0
M  V30 3465 H 342.914 -4.94074 0.685036 0
M  V30 3466 H 342.068 -5.88549 -1.47293 0
M  V30 3467 H 340.807 -4.62289 -1.5537 0
M  V30 3468 H 339.812 -5.4661 0.591386 0
M  V30 3469 H 341.037 -6.75923 0.656156 0
M  V30 3470 H 338.983 -6.37318 -1.55441 0
M  V30 3471 H 338.9 -7.55448 -0.288931 0
M  V30 3472 H 340.168 -7.65439 -1.4739 0
M  V30 3473 N 344.397 -0.483516 -1.5 0
M  V30 3474 C 345.643 0.0672592 -2.02688 0
M  V30 3475 C 345.976 1.38247 -1.36387 0
M  V30 3476 O 345.251 1.88131 -0.493675 0
M  V30 3477 C 345.534 0.238109 -3.59312 0
M  V30 3478 C 345.387 -1.099 -4.36168 0
M  V30 3479 C 346.706 0.986916 -4.28892 0
M  V30 3480 H 343.825 0.0229696 -0.736642 0
M  V30 3481 H 346.467 -0.631527 -1.79197 0
M  V30 3482 H 344.617 0.8333 -3.79458 0
M  V30 3483 H 346.289 -1.73172 -4.27562 0
M  V30 3484 H 344.532 -1.69261 -3.99416 0
M  V30 3485 H 345.203 -0.932954 -5.44059 0
M  V30 3486 H 347.679 0.482302 -4.13295 0
M  V30 3487 H 346.555 1.07527 -5.38265 0
M  V30 3488 H 346.816 2.0265 -3.92919 0
M  V30 3489 N 345.875 1.56104 -0.216619 0
M  V30 3490 C 346.838 2.18819 0.681962 0
M  V30 3491 C 347.838 1.14866 1.12528 0
M  V30 3492 O 349.028 1.40128 1.03488 0
M  V30 3493 C 346.16 2.80756 1.93362 0
M  V30 3494 H 347.353 2.99595 0.135254 0
M  V30 3495 H 344.906 1.56265 0.0330003 0
M  V30 3496 H 345.641 2.03837 2.52232 0
M  V30 3497 H 345.426 3.56876 1.62426 0
M  V30 3498 H 346.916 3.28844 2.57393 0
M  V30 3499 N 347.353 -0.0568162 1.57498 0
M  V30 3500 C 348.599 -0.75422 1.88253 0
M  V30 3501 C 348.932 -1.76461 0.810865 0
M  V30 3502 O 348.207 -1.93691 -0.177259 0
M  V30 3503 C 348.49 -1.44878 3.2967 0
M  V30 3504 C 348.343 -0.453789 4.47505 0
M  V30 3505 C 349.662 -2.38994 3.69554 0
M  V30 3506 H 346.781 -0.272724 0.684683 0
M  V30 3507 H 349.423 -0.0172113 1.89992 0
M  V30 3508 H 347.573 -2.077 3.28318 0
M  V30 3509 H 349.245 0.170371 4.60985 0
M  V30 3510 H 347.488 0.229552 4.33192 0
M  V30 3511 H 348.159 -0.977699 5.43273 0
M  V30 3512 H 350.635 -1.86239 3.72095 0
M  V30 3513 H 349.511 -2.84587 4.69363 0
M  V30 3514 H 349.772 -3.24461 3.00296 0
M  V30 3515 N 348.832 -1.54138 -0.328536 0
M  V30 3516 C 350.08 -1.71765 -1.06496 0
M  V30 3517 C 350.401 -0.49149 -1.88704 0
M  V30 3518 O 349.671 0.494539 -1.89555 0
M  V30 3519 H 348.251 -0.633295 -0.396164 0
M  V30 3520 H 350.913 -1.91429 -0.366176 0
M  V30 3521 H 350.009 -2.5951 -1.73381 0
M  V30 3522 N 350.31 0.590341 -1.46126 0
M  V30 3523 C 351.721 1.17243 -1.45296 0
M  V30 3524 C 352.072 1.95281 -0.189723 0
M  V30 3525 O 351.197 2.04502 0.707674 0
M  V30 3526 C 351.792 2.13284 -2.6324 0
M  V30 3527 C 350.351 2.66832 -2.65476 0
M  V30 3528 C 349.498 1.42557 -2.3785 0
M  V30 3529 H 352.449 0.378692 -1.54116 0
M  V30 3530 H 352.47 2.96619 -2.38323 0
M  V30 3531 H 351.982 1.56459 -3.55165 0
M  V30 3532 H 350.083 3.27548 -1.77603 0
M  V30 3533 H 350.196 3.10088 -3.65215 0
M  V30 3534 H 348.56 1.72107 -1.87753 0
M  V30 3535 H 349.343 0.875741 -3.31942 0
M  V30 3536 N 351.788 1.33704 0.83433 0
M  V30 3537 C 352.736 1.24323 1.96587 0
M  V30 3538 C 353.73 0.143659 1.6879 0
M  V30 3539 O 354.936 0.30791 1.77347 0
M  V30 3540 H 351.311 0.385925 0.645419 0
M  V30 3541 H 353.282 2.19978 2.01624 0
M  V30 3542 C 352.031 1.00394 3.32891 0
M  V30 3543 H 351.354 1.84231 3.54822 0
M  V30 3544 H 352.794 0.97862 4.12552 0
M  V30 3545 C 351.253 -0.293047 3.35623 0
M  V30 3546 O 351.783 -1.29823 3.80143 0
M  V30 3547 N 349.989 -0.322174 2.88809 0
M  V30 3548 H 349.536 0.496379 2.52772 0
M  V30 3549 H 349.494 -1.18977 2.91019 0
M  V30 3550 N 353.266 -1.05314 1.17247 0
M  V30 3551 C 354.494 -1.81971 0.984593 0
M  V30 3552 C 354.909 -1.82929 -0.467166 0
M  V30 3553 O 354.266 -1.25564 -1.32438 0
M  V30 3554 C 354.317 -3.28143 1.51672 0
M  V30 3555 O 354.038 -3.27347 2.91163 0
M  V30 3556 C 355.539 -4.21493 1.37326 0
M  V30 3557 H 352.759 -0.573455 0.348411 0
M  V30 3558 H 355.303 -1.32808 1.55506 0
M  V30 3559 H 353.458 -3.74582 0.988302 0
M  V30 3560 H 353.872 -4.18824 3.15732 0
M  V30 3561 H 355.346 -5.22043 1.79375 0
M  V30 3562 H 355.823 -4.38031 0.320169 0
M  V30 3563 H 356.429 -3.80909 1.89178 0
M  V30 3564 N 354.744 -0.972509 -1.24016 0
M  V30 3565 C 355.99 -0.637978 -1.92504 0
M  V30 3566 C 356.323 0.825383 -1.75787 0
M  V30 3567 O 355.598 1.59442 -1.11393 0
M  V30 3568 C 355.881 -1.01942 -3.45369 0
M  V30 3569 C 355.734 -2.53983 -3.71231 0
M  V30 3570 C 357.053 -0.55751 -4.36555 0
M  V30 3571 H 354.172 -0.233248 -0.699117 0
M  V30 3572 H 356.814 -1.21238 -1.46292 0
M  V30 3573 H 354.964 -0.530656 -3.84859 0
M  V30 3574 H 356.636 -3.10374 -3.41271 0
M  V30 3575 H 354.879 -2.96968 -3.16216 0
M  V30 3576 H 355.55 -2.75723 -4.78206 0
M  V30 3577 H 358.026 -0.977029 -4.04467 0
M  V30 3578 H 356.902 -0.85292 -5.42233 0
M  V30 3579 H 357.163 0.542328 -4.38761 0
M  V30 3580 N 356.222 1.38976 -0.743202 0
M  V30 3581 C 357.155 2.28128 -0.0572165 0
M  V30 3582 C 358.133 1.44827 0.739182 0
M  V30 3583 O 359.317 1.74207 0.720009 0
M  V30 3584 C 356.444 3.25796 0.926001 0
M  V30 3585 C 355.49 4.25947 0.217099 0
M  V30 3586 S 356.323 5.24604 -1.07477 0
M  V30 3587 C 357.479 6.25829 -0.0943545 0
M  V30 3588 H 357.712 2.85961 -0.813246 0
M  V30 3589 H 355.245 1.44822 -0.535341 0
M  V30 3590 H 357.203 3.82583 1.48797 0
M  V30 3591 H 355.864 2.66966 1.65493 0
M  V30 3592 H 355.057 4.94746 0.961372 0
M  V30 3593 H 354.659 3.73002 -0.273059 0
M  V30 3594 H 356.951 6.73411 0.743239 0
M  V30 3595 H 357.894 7.0412 -0.749713 0
M  V30 3596 H 358.302 5.63797 0.281706 0
M  V30 3597 N 357.7 0.491464 1.49741 0
M  V30 3598 C 358.925 -0.0557177 2.07325 0
M  V30 3599 C 359.35 -1.30925 1.35056 0
M  V30 3600 O 358.708 -1.76733 0.404365 0
M  V30 3601 C 358.756 -0.302074 3.59333 0
M  V30 3602 O 357.86 -1.37868 3.88672 0
M  V30 3603 H 357.201 0.0219956 0.663636 0
M  V30 3604 H 359.731 0.688352 1.92673 0
M  V30 3605 H 359.741 -0.536464 4.04458 0
M  V30 3606 H 358.416 0.61383 4.11345 0
M  V30 3607 H 356.993 -1.12999 3.55367 0
M  V30 3608 N 359.178 -1.55987 0.224894 0
M  V30 3609 C 360.425 -1.9839 -0.4059 0
M  V30 3610 C 360.753 -1.11261 -1.59535 0
M  V30 3611 O 360.008 -0.158314 -1.95059 0
M  V30 3612 C 360.307 -3.46394 -0.880106 0
M  V30 3613 C 359.973 -4.5046 0.19918 0
M  V30 3614 C 358.635 -4.7864 0.495661 0
M  V30 3615 C 360.987 -5.12855 0.928939 0
M  V30 3616 C 358.315 -5.66497 1.52636 0
M  V30 3617 C 360.667 -6.01828 1.949 0
M  V30 3618 C 359.331 -6.28351 2.25236 0
M  V30 3619 H 358.601 -0.725961 -0.148529 0
M  V30 3620 H 361.248 -1.88668 0.328113 0
M  V30 3621 H 359.553 -3.53337 -1.69294 0
M  V30 3622 H 361.25 -3.76577 -1.37808 0
M  V30 3623 H 357.84 -4.28579 -0.0420526 0
M  V30 3624 H 362.024 -4.9115 0.713129 0
M  V30 3625 H 357.28 -5.8531 1.76698 0
M  V30 3626 H 361.454 -6.49225 2.51951 0
M  V30 3627 H 359.081 -6.96226 3.05244 0
M  V30 3628 N 360.656 0.0484629 -1.57525 0
M  V30 3629 C 361.886 0.754326 -1.92337 0
M  V30 3630 C 362.294 1.70443 -0.82132 0
M  V30 3631 O 361.637 1.82466 0.21254 0
M  V30 3632 C 361.699 1.58231 -3.22805 0
M  V30 3633 C 361.363 0.799074 -4.4996 0
M  V30 3634 C 362.36 0.1079 -5.19788 0
M  V30 3635 C 360.045 0.759345 -4.96527 0
M  V30 3636 C 362.039 -0.612516 -6.3445 0
M  V30 3637 C 359.726 0.0351713 -6.1109 0
M  V30 3638 C 360.724 -0.649537 -6.79904 0
M  V30 3639 O 360.412 -1.36199 -7.92278 0
M  V30 3640 H 360.144 0.218257 -0.639797 0
M  V30 3641 H 362.698 0.0159295 -2.05394 0
M  V30 3642 H 360.928 2.36406 -3.06021 0
M  V30 3643 H 362.617 2.16898 -3.43089 0
M  V30 3644 H 363.383 0.129748 -4.84826 0
M  V30 3645 H 359.262 1.28177 -4.42822 0
M  V30 3646 H 362.806 -1.14751 -6.88097 0
M  V30 3647 H 358.703 0.0113314 -6.45499 0
M  V30 3648 H 359.471 -1.27366 -8.0853 0
M  V30 3649 N 362.134 1.5431 0.320358 0
M  V30 3650 C 363.082 1.84647 1.4145 0
M  V30 3651 C 364.076 0.718624 1.53402 0
M  V30 3652 O 365.282 0.902335 1.5575 0
M  V30 3653 H 361.657 0.585349 0.472091 0
M  V30 3654 H 363.628 2.7614 1.13089 0
M  V30 3655 C 362.377 2.09341 2.77617 0
M  V30 3656 H 361.7 2.9559 2.69196 0
M  V30 3657 H 363.14 2.3452 3.53237 0
M  V30 3658 C 361.599 0.885939 3.25043 0
M  V30 3659 O 362.129 0.0967891 4.01583 0
M  V30 3660 N 360.335 0.696682 2.82125 0
M  V30 3661 H 359.882 1.34006 2.2 0
M  V30 3662 H 359.84 -0.109712 3.14209 0
M  V30 3663 N 363.613 -0.582584 1.46437 0
M  V30 3664 C 364.861 -1.33814 1.51453 0
M  V30 3665 C 365.182 -1.94277 0.167792 0
M  V30 3666 O 364.452 -1.78566 -0.805677 0
M  V30 3667 H 363.032 -0.496838 0.557818 0
M  V30 3668 H 365.694 -0.682281 1.82568 0
M  V30 3669 H 364.79 -2.14479 2.26728 0
M  V30 3670 N 365.091 -1.34144 -0.827227 0
M  V30 3671 C 366.337 -1.26446 -1.58554 0
M  V30 3672 C 366.67 0.1664 -1.93486 0
M  V30 3673 O 365.945 1.1107 -1.59667 0
M  V30 3674 C 366.228 -2.15111 -2.8879 0
M  V30 3675 C 366.081 -3.66712 -2.60465 0
M  V30 3676 C 367.4 -2.03311 -3.90324 0
M  V30 3677 H 364.519 -0.46067 -0.575284 0
M  V30 3678 H 367.161 -1.64356 -0.953269 0
M  V30 3679 H 365.311 -1.8291 -3.42748 0
M  V30 3680 H 366.983 -4.09259 -2.1285 0
M  V30 3681 H 365.226 -3.88014 -1.93978 0
M  V30 3682 H 365.897 -4.24112 -3.53317 0
M  V30 3683 H 368.373 -2.31574 -3.45706 0
M  V30 3684 H 367.249 -2.67582 -4.79261 0
M  V30 3685 H 367.51 -1.00879 -4.30437 0
M  V30 3686 N 366.569 1.04691 -1.17803 0
M  V30 3687 C 367.985 1.29963 -0.926379 0
M  V30 3688 C 368.185 1.97251 0.411635 0
M  V30 3689 O 367.241 2.24922 1.14744 0
M  V30 3690 C 368.554 2.16447 -2.08737 0
M  V30 3691 C 370.102 2.29814 -2.12496 0
M  V30 3692 C 370.577 3.19661 -3.27995 0
M  V30 3693 N 372.068 3.27247 -3.27816 0
M  V30 3694 C 372.803 3.96906 -4.13827 0
M  V30 3695 N 372.299 4.6895 -5.09959 0
M  V30 3696 N 374.092 3.93122 -4.01761 0
M  V30 3697 H 366.243 0.594182 -2.0392 0
M  V30 3698 H 368.506 0.324649 -0.890678 0
M  V30 3699 H 368.212 1.74304 -3.05469 0
M  V30 3700 H 368.086 3.17103 -2.04268 0
M  V30 3701 H 370.473 2.71196 -1.16347 0
M  V30 3702 H 370.554 1.2877 -2.21025 0
M  V30 3703 H 370.198 2.78991 -4.24413 0
M  V30 3704 H 370.128 4.20722 -3.16703 0
M  V30 3705 H 372.619 2.75921 -2.58217 0
M  V30 3706 H 372.932 5.19679 -5.71974 0
M  V30 3707 H 371.277 4.67875 -5.13924 0
M  V30 3708 H 374.468 3.35967 -3.2595 0
M  V30 3709 H 374.641 4.47139 -4.6901 0
M  V30 3710 N 368.047 0.979072 1.23499 0
M  V30 3711 C 369.296 0.642751 1.91185 0
M  V30 3712 C 369.609 -0.827253 1.77245 0
M  V30 3713 O 370.815 -1.27458 2.39722 0
M  V30 3714 C 369.271 1.09901 3.42709 0
M  V30 3715 C 368.879 2.59327 3.65313 0
M  V30 3716 C 370.623 0.836371 4.16179 0
M  V30 3717 C 368.53 2.98627 5.10467 0
M  V30 3718 H 367.46 0.236698 0.715884 0
M  V30 3719 H 370.111 1.1868 1.39955 0
M  V30 3720 H 368.493 0.48319 3.93041 0
M  V30 3721 H 369.667 3.26136 3.25533 0
M  V30 3722 H 367.982 2.83323 3.05151 0
M  V30 3723 H 370.579 1.10586 5.23139 0
M  V30 3724 H 370.922 -0.227509 4.15678 0
M  V30 3725 H 371.455 1.41371 3.71832 0
M  V30 3726 H 368.194 4.04133 5.16098 0
M  V30 3727 H 367.714 2.3651 5.51201 0
M  V30 3728 H 369.393 2.89159 5.78788 0
M  V30 3729 N 369.525 -1.3858 0.750561 0
M  V30 3730 C 370.753 -2.04471 0.316098 0
M  V30 3731 C 371.168 -1.56606 -1.05452 0
M  V30 3732 O 370.525 -0.737784 -1.66922 0
M  V30 3733 C 370.576 -3.60025 0.326275 0
M  V30 3734 O 370.297 -4.06133 1.6428 0
M  V30 3735 C 371.798 -4.43131 -0.122429 0
M  V30 3736 H 369.018 -0.65717 0.135528 0
M  V30 3737 H 371.562 -1.77329 1.01857 0
M  V30 3738 H 369.717 -3.86014 -0.327431 0
M  V30 3739 H 370.131 -5.00547 1.56693 0
M  V30 3740 H 371.605 -5.51963 -0.0641473 0
M  V30 3741 H 372.082 -4.23333 -1.16988 0
M  V30 3742 H 372.688 -4.22323 0.50229 0
M  V30 3743 N 371.003 -0.499398 -1.49478 0
M  V30 3744 C 371.953 0.299103 -2.2603 0
M  V30 3745 C 372.937 0.936934 -1.30807 0
M  V30 3746 O 374.129 0.844798 -1.55538 0
M  V30 3747 C 371.258 1.36391 -3.15044 0
M  V30 3748 C 370.344 0.732398 -4.17728 0
M  V30 3749 N 370.735 -0.164028 -5.05534 0
M  V30 3750 C 369.033 0.993162 -4.34801 0
M  V30 3751 C 369.734 -0.525345 -5.79323 0
M  V30 3752 N 368.71 0.106348 -5.43496 0
M  V30 3753 H 372.512 -0.391003 -2.91287 0
M  V30 3754 H 370.026 -0.31537 -1.59308 0
M  V30 3755 H 372.023 1.94939 -3.68516 0
M  V30 3756 H 370.683 2.05571 -2.51338 0
M  V30 3757 H 371.694 -0.534736 -5.15132 0
M  V30 3758 H 368.371 1.67783 -3.82302 0
M  V30 3759 H 369.761 -1.25862 -6.60006 0
M  V30 3760 N 372.481 1.55866 -0.233164 0
M  V30 3761 C 373.413 2.18099 0.704668 0
M  V30 3762 C 374.426 1.15334 1.14899 0
M  V30 3763 O 375.615 1.42262 1.07814 0
M  V30 3764 C 372.715 2.7592 1.96777 0
M  V30 3765 C 371.888 4.03969 1.67713 0
M  V30 3766 C 370.947 4.46242 2.78845 0
M  V30 3767 O 369.973 5.12903 2.46818 0
M  V30 3768 N 371.175 4.12886 4.08051 0
M  V30 3769 H 373.94 2.99205 0.172258 0
M  V30 3770 H 371.501 1.61815 -0.0525945 0
M  V30 3771 H 373.493 3.01165 2.70337 0
M  V30 3772 H 372.063 1.99051 2.41034 0
M  V30 3773 H 371.283 3.86459 0.777391 0
M  V30 3774 H 372.571 4.8748 1.4574 0
M  V30 3775 H 371.969 3.59342 4.3691 0
M  V30 3776 H 370.526 4.42997 4.78118 0
M  V30 3777 N 373.959 -0.0401083 1.57549 0
M  V30 3778 C 374.869 -1.06133 2.0922 0
M  V30 3779 C 375.885 -1.40356 1.0284 0
M  V30 3780 O 377.061 -1.49897 1.34509 0
M  V30 3781 C 374.126 -2.34658 2.55218 0
M  V30 3782 C 373.187 -2.07117 3.76033 0
M  V30 3783 C 372.42 -3.29514 4.19829 0
M  V30 3784 O 372.643 -4.39794 3.63232 0
M  V30 3785 O 371.577 -3.15863 5.12362 0
M  V30 3786 H 375.403 -0.652244 2.96613 0
M  V30 3787 H 372.988 -0.256368 1.47184 0
M  V30 3788 H 374.87 -3.10239 2.85184 0
M  V30 3789 H 373.545 -2.74883 1.70941 0
M  V30 3790 H 372.452 -1.29139 3.51104 0
M  V30 3791 H 373.785 -1.71754 4.61261 0
M  V30 3792 N 375.437 -1.54477 -0.31217 0
M  V30 3793 C 376.683 -1.73483 -1.0503 0
M  V30 3794 C 377.016 -0.513125 -1.87298 0
M  V30 3795 O 376.291 0.489864 -1.8823 0
M  V30 3796 C 376.574 -3.01723 -1.96558 0
M  V30 3797 C 376.427 -4.3417 -1.17545 0
M  V30 3798 C 377.746 -3.25772 -2.95907 0
M  V30 3799 H 374.865 -0.631222 -0.380432 0
M  V30 3800 H 377.507 -1.87184 -0.325932 0
M  V30 3801 H 375.657 -2.90174 -2.58324 0
M  V30 3802 H 377.329 -4.5762 -0.581513 0
M  V30 3803 H 375.572 -4.31159 -0.477925 0
M  V30 3804 H 376.243 -5.20143 -1.84811 0
M  V30 3805 H 378.719 -3.36857 -2.44267 0
M  V30 3806 H 377.595 -4.16838 -3.57123 0
M  V30 3807 H 377.856 -2.43537 -3.68974 0
M  V30 3808 N 376.915 0.57481 -1.46744 0
M  V30 3809 C 378.192 1.3352 -1.4294 0
M  V30 3810 C 378.572 2.10775 -0.117009 0
M  V30 3811 O 377.92 2.09966 0.901474 0
M  V30 3812 C 378.13 2.25456 -2.66403 0
M  V30 3813 C 379.478 2.87035 -3.12883 0
M  V30 3814 O 380.502 2.35766 -2.67007 0
M  V30 3815 O 379.361 3.80179 -3.92589 0
M  V30 3816 H 376.455 0.600318 -0.568812 0
M  V30 3817 H 379.001 0.595171 -1.58921 0
M  V30 3818 H 377.773 1.67851 -3.53471 0
M  V30 3819 H 377.396 3.06785 -2.52921 0
M  V30 3820 N 378.394 1.34581 0.820102 0
M  V30 3821 C 379.619 1.30333 1.61332 0
M  V30 3822 C 380.044 -0.119339 1.87721 0
M  V30 3823 O 379.402 -1.08197 1.45475 0
M  V30 3824 C 379.45 2.10258 2.92957 0
M  V30 3825 O 378.554 1.47404 3.85157 0
M  V30 3826 H 377.895 0.447488 0.490561 0
M  V30 3827 H 380.425 1.77425 1.01889 0
M  V30 3828 H 380.435 2.21718 3.42498 0
M  V30 3829 H 379.11 3.13693 2.73074 0
M  V30 3830 H 377.687 1.44703 3.43679 0
M  V30 3831 N 379.872 -1.04064 1.18357 0
M  V30 3832 C 381.288 -1.2947 0.933258 0
M  V30 3833 C 381.488 -1.97466 -0.401169 0
M  V30 3834 O 380.544 -2.25528 -1.13549 0
M  V30 3835 C 381.857 -2.15337 2.09882 0
M  V30 3836 C 383.405 -2.28683 2.13712 0
M  V30 3837 C 383.88 -3.17917 3.29686 0
M  V30 3838 N 385.371 -3.25504 3.29547 0
M  V30 3839 C 386.106 -3.94706 4.15926 0
M  V30 3840 N 385.602 -4.66239 5.12439 0
M  V30 3841 N 387.395 -3.90986 4.0384 0
M  V30 3842 H 379.546 -0.583359 2.04232 0
M  V30 3843 H 381.809 -0.319921 0.892387 0
M  V30 3844 H 381.515 -1.72682 3.06389 0
M  V30 3845 H 381.389 -3.16015 2.05947 0
M  V30 3846 H 383.776 -2.70575 1.17784 0
M  V30 3847 H 383.857 -1.27596 2.21705 0
M  V30 3848 H 383.501 -2.76736 4.25887 0
M  V30 3849 H 383.431 -4.19036 3.1893 0
M  V30 3850 H 385.922 -2.74547 2.59677 0
M  V30 3851 H 386.235 -5.16638 5.74722 0
M  V30 3852 H 384.58 -4.65143 5.16398 0
M  V30 3853 H 387.771 -3.34234 3.27727 0
M  V30 3854 H 387.944 -4.44646 4.71375 0
M  V30 3855 N 381.35 -0.985608 -1.22978 0
M  V30 3856 C 382.627 -0.573599 -1.87001 0
M  V30 3857 C 383.007 0.949213 -1.88555 0
M  V30 3858 O 382.355 1.82811 -1.37086 0
M  V30 3859 C 382.565 -1.18564 -3.28243 0
M  V30 3860 C 383.913 -1.28163 -4.04796 0
M  V30 3861 O 384.937 -1.13949 -3.37482 0
M  V30 3862 O 383.796 -1.50832 -5.25273 0
M  V30 3863 H 380.89 -0.193868 -0.803955 0
M  V30 3864 H 383.436 -1.08102 -1.30813 0
M  V30 3865 H 382.208 -2.22758 -3.21706 0
M  V30 3866 H 381.831 -0.663363 -3.92027 0
M  V30 3867 N 382.828 1.3818 -0.7579 0
M  V30 3868 C 384.074 2.0078 -0.325423 0
M  V30 3869 C 384.429 1.59085 1.08211 0
M  V30 3870 O 383.722 0.820394 1.73148 0
M  V30 3871 C 383.916 3.55252 -0.391218 0
M  V30 3872 C 383.745 4.11947 -1.8036 0
M  V30 3873 C 382.515 4.43519 -2.42113 0
M  V30 3874 C 384.713 4.33908 -2.76095 0
M  V30 3875 N 382.695 4.85847 -3.75267 0
M  V30 3876 C 384.066 4.78692 -3.94023 0
M  V30 3877 C 386.121 4.16015 -2.73561 0
M  V30 3878 C 384.824 5.07459 -5.09782 0
M  V30 3879 C 386.85 4.45909 -3.88483 0
M  V30 3880 C 386.212 4.90921 -5.0515 0
M  V30 3881 H 382.311 0.764215 -0.165831 0
M  V30 3882 H 384.895 1.67724 -0.988776 0
M  V30 3883 H 383.066 3.87646 0.241886 0
M  V30 3884 H 384.798 4.04653 0.061989 0
M  V30 3885 H 381.553 4.32113 -1.93842 0
M  V30 3886 H 381.977 5.11339 -4.4369 0
M  V30 3887 H 386.619 3.80399 -1.84544 0
M  V30 3888 H 384.337 5.4197 -5.99412 0
M  V30 3889 H 387.923 4.33666 -3.87847 0
M  V30 3890 H 386.803 5.1361 -5.92599 0
M  V30 3891 N 384.306 0.507319 1.49211 0
M  V30 3892 C 385.269 -0.256763 2.27757 0
M  V30 3893 C 386.269 -0.888287 1.34038 0
M  V30 3894 O 387.459 -0.751841 1.5714 0
M  V30 3895 C 384.591 -1.36905 3.12202 0
M  V30 3896 H 385.784 0.432557 2.96764 0
M  V30 3897 H 383.337 0.262488 1.5408 0
M  V30 3898 H 384.072 -2.09233 2.47775 0
M  V30 3899 H 383.857 -0.921599 3.81115 0
M  V30 3900 H 385.347 -1.9071 3.7151 0
M  V30 3901 N 385.784 -1.5574 0.241426 0
M  V30 3902 C 386.714 -2.24133 -0.654722 0
M  V30 3903 C 387.695 -1.21974 -1.1856 0
M  V30 3904 O 388.88 -1.50612 -1.22595 0
M  V30 3905 C 386.01 -2.93659 -1.85423 0
M  V30 3906 C 384.964 -4.0246 -1.45636 0
M  V30 3907 C 384.29 -4.59383 -2.73626 0
M  V30 3908 C 385.59 -5.18468 -0.631506 0
M  V30 3909 H 387.284 -2.99281 -0.0844353 0
M  V30 3910 H 384.83 -1.43947 -0.0391707 0
M  V30 3911 H 386.783 -3.40203 -2.48676 0
M  V30 3912 H 385.507 -2.15991 -2.44981 0
M  V30 3913 H 384.166 -3.56676 -0.847202 0
M  V30 3914 H 383.814 -3.78422 -3.3137 0
M  V30 3915 H 383.514 -5.32826 -2.4773 0
M  V30 3916 H 385.038 -5.08658 -3.37786 0
M  V30 3917 H 386.452 -5.61272 -1.1682 0
M  V30 3918 H 384.849 -5.98266 -0.468831 0
M  V30 3919 H 385.919 -4.8358 0.357506 0
M  V30 3920 N 387.262 0.0317525 -1.57568 0
M  V30 3921 C 388.21 1.05165 -2.07468 0
M  V30 3922 C 389.204 1.3761 -0.98792 0
M  V30 3923 O 390.41 1.36546 -1.17282 0
M  V30 3924 H 386.785 0.35666 -0.66204 0
M  V30 3925 H 388.756 0.604958 -2.92203 0
M  V30 3926 C 387.505 2.34488 -2.56731 0
M  V30 3927 H 386.828 2.10383 -3.39969 0
M  V30 3928 H 388.268 3.04203 -2.95358 0
M  V30 3929 C 386.727 3.03266 -1.46736 0
M  V30 3930 O 387.257 3.92988 -0.832069 0
M  V30 3931 N 385.463 2.6455 -1.20256 0
M  V30 3932 H 385.01 1.91674 -1.72102 0
M  V30 3933 H 384.968 3.10886 -0.468737 0
M  V30 3934 N 388.74 1.54641 0.303973 0
M  V30 3935 C 389.988 1.73437 1.0375 0
M  V30 3936 C 390.309 0.521449 1.87899 0
M  V30 3937 O 389.579 -0.46432 1.90318 0
M  V30 3938 H 388.159 0.639518 0.386039 0
M  V30 3939 H 390.821 1.91988 0.335675 0
M  V30 3940 H 389.917 2.62235 1.69231 0
M  V30 3941 N 390.218 -0.567019 1.47046 0
M  V30 3942 C 391.166 -1.69593 1.59188 0
M  V30 3943 C 392.16 -1.63046 0.459609 0
M  V30 3944 O 393.366 -1.6835 0.637058 0
M  V30 3945 H 389.741 -0.560993 0.500791 0
M  V30 3946 H 391.712 -1.56488 2.54075 0
M  V30 3947 C 390.461 -3.07964 1.61411 0
M  V30 3948 H 389.784 -3.13679 2.47881 0
M  V30 3949 H 391.224 -3.86671 1.73958 0
M  V30 3950 C 389.683 -3.35123 0.34559 0
M  V30 3951 O 390.213 -3.97812 -0.557521 0
M  V30 3952 N 388.419 -2.89699 0.22864 0
M  V30 3953 H 387.966 -2.38863 0.964479 0
M  V30 3954 H 387.924 -3.08242 -0.619192 0
M  V30 3955 N 391.696 -1.35014 -0.812953 0
M  V30 3956 C 392.924 -1.31031 -1.6012 0
M  V30 3957 C 393.339 0.113558 -1.88458 0
M  V30 3958 O 392.696 1.06363 -1.48301 0
M  V30 3959 C 392.747 -2.10872 -2.93624 0
M  V30 3960 O 392.468 -3.47706 -2.66518 0
M  V30 3961 C 393.969 -2.14401 -3.88004 0
M  V30 3962 H 391.189 -0.45037 -0.497401 0
M  V30 3963 H 393.733 -1.77775 -1.01076 0
M  V30 3964 H 391.888 -1.67744 -3.492 0
M  V30 3965 H 392.302 -3.89097 -3.51715 0
M  V30 3966 H 393.776 -2.74669 -4.78812 0
M  V30 3967 H 394.253 -1.14105 -4.24119 0
M  V30 3968 H 394.859 -2.57662 -3.38364 0
M  V30 3969 N 393.175 1.03435 -1.18907 0
M  V30 3970 C 394.105 2.13503 -0.945448 0
M  V30 3971 C 395.086 1.69682 0.119189 0
M  V30 3972 O 396.271 1.94169 -0.034707 0
M  V30 3973 C 393.401 3.44004 -0.477316 0
M  V30 3974 C 392.355 4.0148 -1.48316 0
M  V30 3975 C 391.681 5.27537 -0.872311 0
M  V30 3976 C 392.981 4.36921 -2.86177 0
M  V30 3977 H 394.675 2.34141 -1.86597 0
M  V30 3978 H 392.221 1.12523 -0.898584 0
M  V30 3979 H 394.174 4.20372 -0.294204 0
M  V30 3980 H 392.898 3.23072 0.478786 0
M  V30 3981 H 391.557 3.27201 -1.65332 0
M  V30 3982 H 391.205 5.02917 0.0911752 0
M  V30 3983 H 390.905 5.66954 -1.54393 0
M  V30 3984 H 392.429 6.06576 -0.699871 0
M  V30 3985 H 393.843 5.04248 -2.72776 0
M  V30 3986 H 392.24 4.87405 -3.50081 0
M  V30 3987 H 393.31 3.46466 -3.39248 0
M  V30 3988 N 394.653 0.992116 1.22453 0
M  V30 3989 C 395.878 0.685644 1.95739 0
M  V30 3990 C 396.303 -0.743 1.72804 0
M  V30 3991 O 395.661 -1.50778 1.00676 0
M  V30 3992 C 395.709 0.996293 3.46564 0
M  V30 3993 O 394.813 0.0945512 4.12292 0
M  V30 3994 H 394.154 0.256694 0.612376 0
M  V30 3995 H 396.684 1.32888 1.5557 0
M  V30 3996 H 396.694 0.93781 3.97076 0
M  V30 3997 H 395.369 2.03733 3.62582 0
M  V30 3998 H 393.946 0.208451 3.72317 0
M  V30 3999 N 396.131 -1.37776 0.765217 0
M  V30 4000 C 397.061 -2.32945 0.160953 0
M  V30 4001 C 398.042 -1.55454 -0.690516 0
M  V30 4002 O 399.227 -1.83721 -0.629318 0
M  V30 4003 C 396.357 -3.39669 -0.724031 0
M  V30 4004 C 395.311 -4.27992 0.0256173 0
M  V30 4005 C 394.637 -5.25673 -0.978383 0
M  V30 4006 C 395.937 -5.08309 1.20082 0
M  V30 4007 H 397.631 -2.83728 0.955969 0
M  V30 4008 H 395.177 -1.36416 0.461149 0
M  V30 4009 H 397.13 -4.05219 -1.15652 0
M  V30 4010 H 395.854 -2.87396 -1.5515 0
M  V30 4011 H 394.513 -3.63964 0.438812 0
M  V30 4012 H 394.161 -4.69682 -1.80022 0
M  V30 4013 H 393.861 -5.85625 -0.481378 0
M  V30 4014 H 395.385 -5.94098 -1.40995 0
M  V30 4015 H 396.799 -5.67034 0.845307 0
M  V30 4016 H 395.196 -5.77554 1.62947 0
M  V30 4017 H 396.266 -4.41365 2.00811 0
M  V30 4018 N 397.609 -0.515225 -1.4894 0
M  V30 4019 C 398.886 0.0879088 -1.95402 0
M  V30 4020 C 399.266 1.52745 -1.45712 0
M  V30 4021 O 398.614 2.18238 -0.677093 0
M  V30 4022 C 398.824 -0.0141055 -3.48997 0
M  V30 4023 C 400.172 0.152646 -4.24326 0
M  V30 4024 O 401.196 0.0604025 -3.56149 0
M  V30 4025 O 400.055 0.34384 -5.45417 0
M  V30 4026 H 397.149 0.0874636 -0.822362 0
M  V30 4027 H 399.695 -0.578775 -1.59525 0
M  V30 4028 H 398.467 -1.01745 -3.77841 0
M  V30 4029 H 398.09 0.692091 -3.9153 0
M  V30 4030 N 399.087 1.5561 -0.249682 0
M  V30 4031 C 399.997 2.25143 0.659375 0
M  V30 4032 C 401.013 1.2685 1.19101 0
M  V30 4033 O 402.189 1.59732 1.22669 0
M  V30 4034 C 399.254 2.93945 1.8384 0
M  V30 4035 C 398.315 4.07655 1.34596 0
M  V30 4036 C 397.548 4.73167 2.46878 0
M  V30 4037 O 397.771 4.37768 3.65671 0
M  V30 4038 O 396.705 5.61623 2.16478 0
M  V30 4039 H 400.531 3.03545 0.0968698 0
M  V30 4040 H 398.116 1.49389 -0.018074 0
M  V30 4041 H 399.998 3.37271 2.52638 0
M  V30 4042 H 398.673 2.18481 2.38847 0
M  V30 4043 H 397.58 3.68839 0.625174 0
M  V30 4044 H 398.913 4.84946 0.841941 0
M  V30 4045 N 400.565 -0.0233959 1.57583 0
M  V30 4046 C 401.475 -1.03907 2.10334 0
M  V30 4047 C 402.491 -1.39257 1.04323 0
M  V30 4048 O 403.667 -1.48462 1.36091 0
M  V30 4049 C 400.732 -2.31938 2.57693 0
M  V30 4050 C 399.793 -2.03117 3.78209 0
M  V30 4051 C 399.026 -3.25043 4.233 0
M  V30 4052 O 399.249 -4.35916 3.67876 0
M  V30 4053 O 398.183 -3.10411 5.15683 0
M  V30 4054 H 402.009 -0.620748 2.97288 0
M  V30 4055 H 399.594 -0.240743 1.47448 0
M  V30 4056 H 401.476 -3.07196 2.88458 0
M  V30 4057 H 400.151 -2.73055 1.73847 0
M  V30 4058 H 399.058 -1.25408 3.52454 0
M  V30 4059 H 400.391 -1.66852 4.63056 0
M  V30 4060 N 402.043 -1.548 -0.295768 0
M  V30 4061 C 403.271 -1.78327 -1.04914 0
M  V30 4062 C 403.686 -0.545316 -1.80753 0
M  V30 4063 O 403.043 0.485013 -1.75937 0
M  V30 4064 C 403.094 -2.99418 -2.02561 0
M  V30 4065 O 402.815 -4.18431 -1.29798 0
M  V30 4066 C 404.316 -3.35375 -2.89895 0
M  V30 4067 H 401.536 -0.594618 -0.310918 0
M  V30 4068 H 404.08 -2.01763 -0.333454 0
M  V30 4069 H 402.235 -2.78175 -2.69624 0
M  V30 4070 H 402.649 -4.86736 -1.95419 0
M  V30 4071 H 404.123 -4.23332 -3.54251 0
M  V30 4072 H 404.6 -2.53761 -3.58472 0
M  V30 4073 H 405.206 -3.58796 -2.28355 0
M  V30 4074 N 403.521 0.559213 -1.47345 0
M  V30 4075 C 404.767 1.31843 -1.54095 0
M  V30 4076 C 405.1 1.93149 -0.201726 0
M  V30 4077 O 404.375 1.77759 0.789428 0
M  V30 4078 C 404.658 2.43006 -2.65744 0
M  V30 4079 C 404.511 1.86581 -4.09277 0
M  V30 4080 C 405.83 3.44943 -2.73318 0
M  V30 4081 H 402.949 0.478012 -0.560957 0
M  V30 4082 H 405.591 0.625977 -1.79392 0
M  V30 4083 H 403.741 3.02072 -2.44305 0
M  V30 4084 H 405.413 1.31792 -4.42073 0
M  V30 4085 H 403.656 1.17268 -4.17649 0
M  V30 4086 H 404.327 2.66933 -4.83168 0
M  V30 4087 H 406.803 2.95793 -2.92653 0
M  V30 4088 H 405.679 4.20153 -3.53218 0
M  V30 4089 H 405.94 4.03665 -1.80296 0
M  V30 4090 N 404.999 1.35443 0.805782 0
M  V30 4091 C 406.248 1.28097 1.55801 0
M  V30 4092 C 406.561 -0.142428 1.95081 0
M  V30 4093 O 407.767 -0.33817 2.69386 0
M  V30 4094 C 406.223 2.24653 2.81174 0
M  V30 4095 C 405.831 3.72342 2.49129 0
M  V30 4096 C 407.575 2.2625 3.59181 0
M  V30 4097 C 405.482 4.60719 3.70799 0
M  V30 4098 H 404.412 0.475937 0.584808 0
M  V30 4099 H 407.063 1.60712 0.885661 0
M  V30 4100 H 405.445 1.85011 3.50124 0
M  V30 4101 H 406.619 4.20624 1.88181 0
M  V30 4102 H 404.934 3.73361 1.84366 0
M  V30 4103 H 407.531 2.89495 4.49552 0
M  V30 4104 H 407.874 1.26647 3.96568 0
M  V30 4105 H 408.407 2.64426 2.97193 0
M  V30 4106 H 405.146 5.61324 3.3852 0
M  V30 4107 H 404.666 4.17163 4.3097 0
M  V30 4108 H 406.345 4.76182 4.38018 0
M  V30 4109 N 406.477 -1.02803 1.19454 0
M  V30 4110 C 407.754 -1.73299 0.907013 0
M  V30 4111 C 408.134 -2.02772 -0.587086 0
M  V30 4112 O 407.482 -1.68304 -1.54551 0
M  V30 4113 C 407.692 -3.00912 1.76785 0
M  V30 4114 C 409.04 -3.74403 2.00268 0
M  V30 4115 O 410.064 -3.10841 1.73943 0
M  V30 4116 O 408.923 -4.88675 2.4466 0
M  V30 4117 H 406.017 -0.754727 0.338106 0
M  V30 4118 H 408.563 -1.08754 1.30271 0
M  V30 4119 H 407.335 -2.75366 2.7801 0
M  V30 4120 H 406.958 -3.73197 1.37149 0
M  V30 4121 N 407.956 -0.998596 -1.21925 0
M  V30 4122 C 409.202 -0.678667 -1.91107 0
M  V30 4123 C 409.535 0.78791 -1.77498 0
M  V30 4124 O 408.81 1.57043 -1.1475 0
M  V30 4125 C 409.093 -1.09245 -3.43129 0
M  V30 4126 C 408.946 -2.61801 -3.6576 0
M  V30 4127 C 410.265 -0.649984 -4.35274 0
M  V30 4128 H 407.384 -0.248025 -0.694012 0
M  V30 4129 H 410.026 -1.24314 -1.43688 0
M  V30 4130 H 408.176 -0.612171 -3.83647 0
M  V30 4131 H 409.848 -3.17543 -3.34611 0
M  V30 4132 H 408.091 -3.03609 -3.09845 0
M  V30 4133 H 408.762 -2.85804 -4.7225 0
M  V30 4134 H 411.238 -1.0626 -4.02303 0
M  V30 4135 H 410.114 -0.967743 -5.40302 0
M  V30 4136 H 410.375 0.449139 -4.39813 0
M  V30 4137 N 409.434 1.37368 -0.772513 0
M  V30 4138 C 410.845 1.8231 -0.402493 0
M  V30 4139 C 411.196 1.6436 1.07146 0
M  V30 4140 O 410.321 1.15514 1.82991 0
M  V30 4141 C 410.916 3.30979 -0.723776 0
M  V30 4142 C 409.475 3.74195 -0.406802 0
M  V30 4143 C 408.622 2.59885 -0.967218 0
M  V30 4144 H 411.573 1.25829 -0.967099 0
M  V30 4145 H 411.594 3.80499 -0.00870832 0
M  V30 4146 H 411.106 3.44011 -1.7966 0
M  V30 4147 H 409.207 3.66732 0.658673 0
M  V30 4148 H 409.32 4.7027 -0.915588 0
M  V30 4149 H 407.684 2.51674 -0.391416 0
M  V30 4150 H 408.467 2.7571 -2.04546 0
M  V30 4151 N 410.912 0.523116 1.48665 0
M  V30 4152 C 411.822 -0.247406 2.33292 0
M  V30 4153 C 412.838 -0.945769 1.46052 0
M  V30 4154 O 414.014 -0.922253 1.79043 0
M  V30 4155 C 411.079 -1.28487 3.22012 0
M  V30 4156 C 410.14 -0.597592 4.2512 0
M  V30 4157 C 409.373 -1.58563 5.09601 0
M  V30 4158 O 409.596 -2.81763 4.95949 0
M  V30 4159 O 408.53 -1.12879 5.91221 0
M  V30 4160 H 412.356 0.445869 3.00409 0
M  V30 4161 H 409.941 0.284128 1.46673 0
M  V30 4162 H 411.823 -1.88459 3.7691 0
M  V30 4163 H 410.498 -1.96068 2.57564 0
M  V30 4164 H 409.405 0.0424407 3.74076 0
M  V30 4165 H 410.738 0.0361517 4.92187 0
M  V30 4166 N 412.39 -1.55475 0.257931 0
M  V30 4167 C 413.801 -1.8511 -0.243135 0
M  V30 4168 C 414.152 -1.17986 -1.5676 0
M  V30 4169 O 413.277 -0.462102 -2.11409 0
M  V30 4170 C 413.872 -3.35826 -0.447929 0
M  V30 4171 C 412.431 -3.65647 -0.893245 0
M  V30 4172 C 411.578 -2.7729 0.0232965 0
M  V30 4173 H 414.529 -1.51261 0.480199 0
M  V30 4174 H 414.55 -3.58002 -1.28898 0
M  V30 4175 H 414.062 -3.84652 0.516196 0
M  V30 4176 H 412.163 -3.22308 -1.86945 0
M  V30 4177 H 412.276 -4.73312 -0.742469 0
M  V30 4178 H 410.64 -2.49942 -0.490021 0
M  V30 4179 H 411.423 -3.28926 0.982994 0
M  V30 4180 N 413.868 0.0150385 -1.57593 0
M  V30 4181 C 415.098 0.713359 -1.93894 0
M  V30 4182 C 415.506 1.68663 -0.857289 0
M  V30 4183 O 414.849 1.82876 0.173788 0
M  V30 4184 C 414.911 1.51348 -3.26089 0
M  V30 4185 C 414.575 0.703451 -4.51554 0
M  V30 4186 C 415.572 -0.00237924 -5.199 0
M  V30 4187 C 413.257 0.653854 -4.98026 0
M  V30 4188 C 415.251 -0.746955 -6.33008 0
M  V30 4189 C 412.938 -0.0944578 -6.11027 0
M  V30 4190 C 413.936 -0.793609 -6.78374 0
M  V30 4191 O 413.624 -1.52974 -7.89211 0
M  V30 4192 H 413.356 0.204637 -0.644282 0
M  V30 4193 H 415.91 -0.0276411 -2.05381 0
M  V30 4194 H 414.14 2.29862 -3.10967 0
M  V30 4195 H 415.829 2.09572 -3.47612 0
M  V30 4196 H 416.595 0.0268803 -4.84993 0
M  V30 4197 H 412.474 1.18756 -4.45441 0
M  V30 4198 H 416.018 -1.2932 -6.85509 0
M  V30 4199 H 411.915 -0.125591 -6.45378 0
M  V30 4200 H 412.683 -1.44488 -8.05646 0
M  V30 4201 N 415.346 1.54954 0.287554 0
M  V30 4202 C 416.294 1.87606 1.37502 0
M  V30 4203 C 417.288 0.751001 1.51843 0
M  V30 4204 O 418.494 0.935169 1.53801 0
M  V30 4205 H 414.869 0.595231 0.459569 0
M  V30 4206 H 416.84 2.78477 1.07206 0
M  V30 4207 C 415.589 2.15183 2.73115 0
M  V30 4208 H 414.912 3.01234 2.62866 0
M  V30 4209 H 416.352 2.4196 3.48183 0
M  V30 4210 C 414.811 0.954686 3.2309 0
M  V30 4211 O 415.341 0.181949 4.01288 0
M  V30 4212 N 413.547 0.756368 2.80584 0
M  V30 4213 H 413.094 1.38643 2.17108 0
M  V30 4214 H 413.052 -0.0430391 3.14371 0
M  V30 4215 N 416.824 -0.551391 1.4764 0
M  V30 4216 C 417.774 -1.65362 1.56969 0
M  V30 4217 C 418.758 -1.55098 0.428189 0
M  V30 4218 O 419.95 -1.63481 0.678441 0
M  V30 4219 C 417.079 -3.04129 1.59249 0
M  V30 4220 C 416.165 -3.19576 2.78804 0
M  V30 4221 N 416.556 -3.05067 4.03445 0
M  V30 4222 C 414.854 -3.50588 2.75688 0
M  V30 4223 C 415.555 -3.2336 4.83543 0
M  V30 4224 N 414.531 -3.4996 4.15968 0
M  V30 4225 H 418.333 -1.52722 2.51104 0
M  V30 4226 H 415.847 -0.756303 1.43714 0
M  V30 4227 H 417.844 -3.83278 1.64024 0
M  V30 4228 H 416.504 -3.17877 0.662148 0
M  V30 4229 H 417.515 -2.82273 4.34215 0
M  V30 4230 H 414.192 -3.70827 1.91817 0
M  V30 4231 H 415.582 -3.17061 5.92387 0
M  V30 4232 N 418.302 -1.35869 -0.798587 0
M  V30 4233 C 419.548 -1.2978 -1.55836 0
M  V30 4234 C 419.881 0.125322 -1.93795 0
M  V30 4235 O 419.156 1.07658 -1.61987 0
M  V30 4236 C 419.439 -2.21188 -2.84162 0
M  V30 4237 C 419.292 -3.72155 -2.52628 0
M  V30 4238 C 420.611 -2.11545 -3.85923 0
M  V30 4239 H 417.73 -0.472769 -0.565383 0
M  V30 4240 H 420.372 -1.66341 -0.918192 0
M  V30 4241 H 418.522 -1.90139 -3.38791 0
M  V30 4242 H 420.194 -4.13682 -2.04121 0
M  V30 4243 H 418.437 -3.92042 -1.85704 0
M  V30 4244 H 419.108 -4.31511 -3.44242 0
M  V30 4245 H 421.584 -2.38855 -3.40716 0
M  V30 4246 H 420.46 -2.77688 -4.73477 0
M  V30 4247 H 420.721 -1.09987 -4.282 0
M  V30 4248 N 419.78 1.02168 -1.19998 0
M  V30 4249 C 421.005 1.79833 -1.03319 0
M  V30 4250 C 421.43 1.83504 0.413281 0
M  V30 4251 O 420.788 1.26635 1.29743 0
M  V30 4252 C 420.836 3.22396 -1.61533 0
M  V30 4253 O 419.94 4.03555 -0.849519 0
M  V30 4254 H 419.281 0.554872 -0.364709 0
M  V30 4255 H 421.811 1.28542 -1.59179 0
M  V30 4256 H 421.821 3.73124 -1.65054 0
M  V30 4257 H 420.496 3.19039 -2.66809 0
M  V30 4258 H 419.073 3.62169 -0.888129 0
M  V30 4259 N 421.258 1.00505 1.21394 0
M  V30 4260 C 422.205 0.565496 2.23765 0
M  V30 4261 C 423.175 -0.408466 1.60999 0
M  V30 4262 O 424.36 -0.310503 1.88257 0
M  V30 4263 C 421.5 -0.101667 3.4495 0
M  V30 4264 C 420.613 0.915479 4.22188 0
M  V30 4265 C 419.748 0.220574 5.30742 0
M  V30 4266 C 418.787 1.22527 5.99711 0
M  V30 4267 N 417.924 0.557831 6.9988 0
M  V30 4268 H 422.764 1.44314 2.60725 0
M  V30 4269 H 420.301 0.722643 1.28126 0
M  V30 4270 H 422.259 -0.505504 4.14126 0
M  V30 4271 H 420.889 -0.94303 3.08718 0
M  V30 4272 H 419.941 1.43756 3.52191 0
M  V30 4273 H 421.253 1.68005 4.69655 0
M  V30 4274 H 420.407 -0.239368 6.06228 0
M  V30 4275 H 419.146 -0.576401 4.84282 0
M  V30 4276 H 418.151 1.69571 5.22997 0
M  V30 4277 H 419.376 2.02332 6.48258 0
M  V30 4278 H 417.322 -0.219486 6.55633 0
M  V30 4279 H 417.239 1.26065 7.45415 0
M  V30 4280 H 418.507 0.121095 7.79406 0
M  V30 4281 N 422.737 -1.36956 0.779787 0
M  V30 4282 C 423.967 -2.03459 0.358877 0
M  V30 4283 C 424.375 -1.58939 -1.02641 0
M  V30 4284 O 423.718 -0.769777 -1.66794 0
M  V30 4285 C 423.78 -3.5796 0.332393 0
M  V30 4286 C 423.444 -4.25644 1.66362 0
M  V30 4287 C 424.441 -4.49205 2.61746 0
M  V30 4288 C 422.126 -4.63313 1.94027 0
M  V30 4289 C 424.12 -5.09503 3.82996 0
M  V30 4290 C 421.807 -5.2333 3.15546 0
M  V30 4291 C 422.805 -5.46363 4.0985 0
M  V30 4292 O 422.493 -6.05122 5.29228 0
M  V30 4293 H 422.225 -0.659767 0.147254 0
M  V30 4294 H 424.779 -1.76111 1.05708 0
M  V30 4295 H 423.009 -3.84388 -0.422237 0
M  V30 4296 H 424.698 -4.05852 -0.0625389 0
M  V30 4297 H 425.464 -4.20508 2.41657 0
M  V30 4298 H 421.343 -4.44715 1.21448 0
M  V30 4299 H 424.887 -5.27397 4.56617 0
M  V30 4300 H 420.784 -5.51451 3.35517 0
M  V30 4301 H 421.552 -6.23595 5.30161 0
M  V30 4302 N 424.215 -0.530993 -1.48385 0
M  V30 4303 C 425.455 0.000718982 -2.044 0
M  V30 4304 C 425.819 1.31485 -1.39913 0
M  V30 4305 O 427.02 1.93265 -1.86821 0
M  V30 4306 C 425.291 0.119177 -3.57201 0
M  V30 4307 S 426.85 0.600806 -4.34667 0
M  V30 4308 H 423.668 -0.0125473 -0.710889 0
M  V30 4309 H 426.27 -0.711783 -1.82082 0
M  V30 4310 H 424.974 -0.842061 -4.01668 0
M  V30 4311 H 424.505 0.856026 -3.83974 0
M  V30 4312 H 426.52 1.86514 -4.59812 0
M  V30 4313 N 425.693 1.55336 -0.266172 0
M  V30 4314 C 426.656 2.20878 0.612001 0
M  V30 4315 C 427.656 1.18388 1.08816 0
M  V30 4316 O 428.846 1.4335 0.989774 0
M  V30 4317 C 425.978 2.86765 1.84332 0
M  V30 4318 H 427.171 2.99873 0.0398718 0
M  V30 4319 H 424.724 1.56291 -0.0167309 0
M  V30 4320 H 425.459 2.11759 2.45619 0
M  V30 4321 H 425.244 3.61862 1.5099 0
M  V30 4322 H 426.734 3.36867 2.46801 0
M  V30 4323 N 427.171 -0.0066808 1.57599 0
M  V30 4324 C 428.396 -0.707738 1.94951 0
M  V30 4325 C 428.821 -1.66882 0.867868 0
M  V30 4326 O 428.179 -1.80457 -0.17458 0
M  V30 4327 C 428.227 -1.42162 3.31394 0
M  V30 4328 O 427.331 -2.53578 3.25226 0
M  V30 4329 H 426.672 -0.188752 0.636607 0
M  V30 4330 H 429.202 0.0445193 2.04552 0
M  V30 4331 H 429.212 -1.78655 3.66806 0
M  V30 4332 H 427.887 -0.716903 4.09675 0
M  V30 4333 H 426.464 -2.19463 3.01481 0
M  V30 4334 N 428.649 -1.55105 -0.279332 0
M  V30 4335 C 429.579 -1.90557 -1.34945 0
M  V30 4336 C 430.56 -0.766738 -1.51839 0
M  V30 4337 O 431.745 -1.02434 -1.64988 0
M  V30 4338 C 428.875 -2.17193 -2.71006 0
M  V30 4339 C 427.829 -3.33021 -2.68851 0
M  V30 4340 C 427.155 -3.45123 -4.08405 0
M  V30 4341 C 428.455 -4.69578 -2.28678 0
M  V30 4342 H 430.149 -2.80188 -1.05522 0
M  V30 4343 H 427.695 -1.34811 -0.506173 0
M  V30 4344 H 429.648 -2.40581 -3.45975 0
M  V30 4345 H 428.372 -1.24355 -3.01999 0
M  V30 4346 H 427.031 -3.0959 -1.9634 0
M  V30 4347 H 426.679 -2.49762 -4.3661 0
M  V30 4348 H 426.379 -4.22995 -4.07859 0
M  V30 4349 H 427.903 -3.70796 -4.85121 0
M  V30 4350 H 429.317 -4.92553 -2.93368 0
M  V30 4351 H 427.714 -5.5032 -2.39306 0
M  V30 4352 H 428.784 -4.68828 -1.23807 0
M  V30 4353 N 430.127 0.543554 -1.4793 0
M  V30 4354 C 431.375 1.29752 -1.54948 0
M  V30 4355 C 431.696 1.93764 -0.219242 0
M  V30 4356 O 430.966 1.80639 0.75805 0
M  V30 4357 H 429.546 0.481874 -0.570795 0
M  V30 4358 H 432.208 0.633636 -1.84312 0
M  V30 4359 H 431.304 2.08392 -2.32334 0
M  V30 4360 N 431.605 1.3629 0.791371 0
M  V30 4361 C 432.555 1.26988 1.89362 0
M  V30 4362 C 433.539 0.161795 1.60084 0
M  V30 4363 O 434.731 0.394426 1.72549 0
M  V30 4364 C 431.86 1.05944 3.26544 0
M  V30 4365 C 430.946 2.21211 3.61838 0
M  V30 4366 N 431.337 3.46518 3.68455 0
M  V30 4367 C 429.635 2.12933 3.91887 0
M  V30 4368 C 430.336 4.2241 3.99931 0
M  V30 4369 N 429.312 3.51329 4.14812 0
M  V30 4370 H 433.114 2.21908 1.92702 0
M  V30 4371 H 430.628 1.28982 0.986787 0
M  V30 4372 H 432.625 0.973666 4.05371 0
M  V30 4373 H 431.285 0.119223 3.24481 0
M  V30 4374 H 432.296 3.80677 3.51148 0
M  V30 4375 H 428.973 1.26855 3.97761 0
M  V30 4376 H 430.363 5.30767 4.1199 0
M  V30 4377 N 433.083 -1.0153 1.20538 0
M  V30 4378 C 434.03 -2.10098 0.955383 0
M  V30 4379 C 435 -1.65702 -0.114878 0
M  V30 4380 O 436.185 -1.90776 0.0301118 0
M  V30 4381 C 433.325 -3.41236 0.514969 0
M  V30 4382 C 432.438 -3.99102 1.65353 0
M  V30 4383 C 431.573 -5.18306 1.16329 0
M  V30 4384 C 430.612 -5.68258 2.27485 0
M  V30 4385 N 429.749 -6.78722 1.7967 0
M  V30 4386 H 434.589 -2.30818 1.88486 0
M  V30 4387 H 432.126 -1.13189 0.939499 0
M  V30 4388 H 434.084 -4.16504 0.240935 0
M  V30 4389 H 432.714 -3.20585 -0.377512 0
M  V30 4390 H 431.766 -3.20918 2.04245 0
M  V30 4391 H 433.078 -4.32177 2.49047 0
M  V30 4392 H 432.232 -6.00782 0.845302 0
M  V30 4393 H 430.971 -4.86799 0.296254 0
M  V30 4394 H 429.976 -4.84385 2.60099 0
M  V30 4395 H 431.201 -6.01798 3.14667 0
M  V30 4396 H 429.147 -6.49042 0.95295 0
M  V30 4397 H 429.064 -7.10996 2.56944 0
M  V30 4398 H 430.332 -7.64759 1.50875 0
M  V30 4399 N 434.561 -1.01147 -1.20859 0
M  V30 4400 C 435.524 -0.582224 -2.21682 0
M  V30 4401 C 436.524 0.344887 -1.57058 0
M  V30 4402 O 437.714 0.134281 -1.73682 0
M  V30 4403 C 434.846 0.150496 -3.40568 0
M  V30 4404 H 436.039 -1.47408 -2.61172 0
M  V30 4405 H 433.592 -0.800695 -1.34233 0
M  V30 4406 H 434.327 1.0575 -3.06574 0
M  V30 4407 H 434.112 -0.515444 -3.88697 0
M  V30 4408 H 435.602 0.438344 -4.15293 0
M  V30 4409 N 436.039 1.36541 -0.78704 0
M  V30 4410 C 436.987 2.31965 -0.171724 0
M  V30 4411 C 437.981 1.55689 0.667631 0
M  V30 4412 O 439.187 1.70969 0.562981 0
M  V30 4413 H 435.562 0.751101 -0.0367545 0
M  V30 4414 H 437.533 2.81428 -0.992017 0
M  V30 4415 C 436.282 3.40968 0.680904 0
M  V30 4416 H 435.605 3.99775 0.0443961 0
M  V30 4417 H 437.045 4.10063 1.07815 0
M  V30 4418 C 435.504 2.82338 1.83813 0
M  V30 4419 O 436.034 2.74311 2.93456 0
M  V30 4420 N 434.24 2.39661 1.6435 0
M  V30 4421 H 433.787 2.46389 0.751668 0
M  V30 4422 H 433.745 2.00779 2.4194 0
M  V30 4423 N 437.518 0.538854 1.48102 0
M  V30 4424 C 438.468 -0.23907 2.26743 0
M  V30 4425 C 439.452 -0.901923 1.33245 0
M  V30 4426 O 440.644 -0.803263 1.57723 0
M  V30 4427 C 437.773 -1.2799 3.18549 0
M  V30 4428 C 436.859 -0.621388 4.19523 0
M  V30 4429 N 437.25 0.298004 5.04921 0
M  V30 4430 C 435.548 -0.877533 4.37282 0
M  V30 4431 C 436.249 0.678757 5.77726 0
M  V30 4432 N 435.225 0.0377881 5.43587 0
M  V30 4433 H 439.027 0.468096 2.90148 0
M  V30 4434 H 436.541 0.357497 1.58416 0
M  V30 4435 H 438.538 -1.851 3.73555 0
M  V30 4436 H 437.198 -1.98835 2.567 0
M  V30 4437 H 438.209 0.671126 5.13533 0
M  V30 4438 H 434.886 -1.57588 3.86616 0
M  V30 4439 H 436.276 1.43316 6.56437 0
M  V30 4440 N 438.996 -1.55193 0.274407 0
M  V30 4441 C 440.221 -2.04446 -0.348824 0
M  V30 4442 C 440.646 -1.15149 -1.48735 0
M  V30 4443 O 440.004 -0.149952 -1.80679 0
M  V30 4444 C 440.052 -3.51431 -0.808009 0
M  V30 4445 O 439.156 -3.65225 -1.91531 0
M  V30 4446 H 438.497 -0.66006 -0.0722276 0
M  V30 4447 H 441.027 -2.00481 0.408498 0
M  V30 4448 H 441.037 -3.92781 -1.10395 0
M  V30 4449 H 439.712 -4.15892 0.0249865 0
M  V30 4450 H 438.289 -3.35778 -1.62196 0
M  V30 4451 N 440.474 -0.00167713 -1.576 0
M  V30 4452 C 441.721 0.68282 -1.90641 0
M  V30 4453 C 442.049 1.73686 -0.875415 0
M  V30 4454 O 441.304 1.95334 0.119575 0
M  V30 4455 C 441.603 1.36189 -3.30435 0
M  V30 4456 C 441.269 0.440887 -4.48739 0
M  V30 4457 C 439.931 0.187312 -4.80835 0
M  V30 4458 C 442.283 -0.193134 -5.20842 0
M  V30 4459 C 439.611 -0.70855 -5.82406 0
M  V30 4460 C 441.963 -1.07688 -6.23367 0
M  V30 4461 C 440.627 -1.33962 -6.53919 0
M  V30 4462 H 439.897 0.249862 -0.697603 0
M  V30 4463 H 442.544 -0.0575642 -1.91413 0
M  V30 4464 H 440.849 2.17636 -3.25794 0
M  V30 4465 H 442.546 1.89759 -3.5326 0
M  V30 4466 H 439.136 0.648694 -4.23663 0
M  V30 4467 H 443.32 -0.0102445 -4.96299 0
M  V30 4468 H 438.576 -0.920097 -6.04437 0
M  V30 4469 H 442.75 -1.57451 -6.78367 0
M  V30 4470 H 440.377 -2.03549 -7.32442 0
M  V30 4471 N 441.952 1.55251 0.271103 0
M  V30 4472 C 443.18 1.79974 1.02064 0
M  V30 4473 C 443.595 0.574003 1.79863 0
M  V30 4474 O 442.952 -0.456962 1.76686 0
M  V30 4475 C 443.003 3.02603 1.97772 0
M  V30 4476 O 442.724 4.20443 1.23124 0
M  V30 4477 C 444.225 3.39944 2.84522 0
M  V30 4478 H 441.445 0.599489 0.301419 0
M  V30 4479 H 443.989 2.02268 0.301313 0
M  V30 4480 H 442.144 2.8243 2.65165 0
M  V30 4481 H 442.558 4.89783 1.87651 0
M  V30 4482 H 444.032 4.28915 3.47471 0
M  V30 4483 H 444.509 2.59432 3.54389 0
M  V30 4484 H 445.115 3.62383 2.22618 0
M  V30 4485 N 443.43 -0.535701 1.48216 0
M  V30 4486 C 444.841 -1.11769 1.49548 0
M  V30 4487 C 445.192 -1.94442 0.26207 0
M  V30 4488 O 444.317 -2.06987 -0.631287 0
M  V30 4489 C 444.912 -2.03367 2.70975 0
M  V30 4490 C 443.471 -2.56795 2.75196 0
M  V30 4491 C 442.618 -1.33631 2.42977 0
M  V30 4492 H 445.569 -0.321232 1.55415 0
M  V30 4493 H 445.59 -2.87569 2.49167 0
M  V30 4494 H 445.102 -1.43169 3.60727 0
M  V30 4495 H 443.203 -3.20731 1.89638 0
M  V30 4496 H 443.316 -2.9632 3.76472 0
M  V30 4497 H 441.68 -1.6502 1.94012 0
M  V30 4498 H 442.463 -0.75194 3.34964 0
M  V30 4499 N 444.908 -1.36708 -0.784132 0
M  V30 4500 C 445.856 -1.31533 -1.91838 0
M  V30 4501 C 446.85 -0.206205 -1.6814 0
M  V30 4502 O 448.056 -0.373519 -1.76082 0
M  V30 4503 H 444.431 -0.409613 -0.630651 0
M  V30 4504 H 446.402 -2.2731 -1.9332 0
M  V30 4505 C 445.151 -1.12679 -3.28936 0
M  V30 4506 H 444.474 -1.97274 -3.4774 0
M  V30 4507 H 445.914 -1.13106 -4.08636 0
M  V30 4508 C 444.373 0.168281 -3.36479 0
M  V30 4509 O 444.903 1.15625 -3.84699 0
M  V30 4510 N 443.109 0.214762 -2.89805 0
M  V30 4511 H 442.656 -0.589852 -2.50756 0
M  V30 4512 H 442.614 1.08094 -2.95234 0
M  V30 4513 N 446.386 1.0089 -1.21074 0
M  V30 4514 C 447.626 1.76142 -1.03699 0
M  V30 4515 C 447.99 1.87292 0.422587 0
M  V30 4516 O 449.191 2.59068 0.716752 0
M  V30 4517 C 447.462 3.13805 -1.7106 0
M  V30 4518 S 449.021 4.04996 -1.68889 0
M  V30 4519 H 445.839 0.606113 -0.371683 0
M  V30 4520 H 448.441 1.20744 -1.53756 0
M  V30 4521 H 447.145 3.0332 -2.76451 0
M  V30 4522 H 446.676 3.74276 -1.21166 0
M  V30 4523 H 448.691 4.90842 -0.727211 0
M  V30 4524 N 447.864 1.01787 1.20321 0
M  V30 4525 C 449.113 0.703249 1.89043 0
M  V30 4526 C 449.426 -0.770445 1.79787 0
M  V30 4527 O 450.632 -1.19767 2.43656 0
M  V30 4528 C 449.088 1.20749 3.3904 0
M  V30 4529 C 448.696 2.70817 3.56878 0
M  V30 4530 C 450.44 0.968352 4.13308 0
M  V30 4531 C 448.347 3.14716 5.00708 0
M  V30 4532 H 447.277 0.259354 0.707991 0
M  V30 4533 H 449.928 1.23072 1.36108 0
M  V30 4534 H 448.31 0.607989 3.91305 0
M  V30 4535 H 449.484 3.36327 3.14993 0
M  V30 4536 H 447.799 2.92888 2.95983 0
M  V30 4537 H 450.396 1.27173 5.19356 0
M  V30 4538 H 450.739 -0.095149 4.16191 0
M  V30 4539 H 451.272 1.53129 3.67146 0
M  V30 4540 H 448.011 4.20347 5.02979 0
M  V30 4541 H 447.531 2.53927 5.43398 0
M  V30 4542 H 449.21 3.07426 5.69296 0
M  V30 4543 N 449.342 -1.36122 0.79427 0
M  V30 4544 C 450.572 -2.03067 0.380437 0
M  V30 4545 C 450.98 -1.60018 -1.00949 0
M  V30 4546 O 450.323 -0.787425 -1.65968 0
M  V30 4547 C 450.385 -3.57587 0.37034 0
M  V30 4548 C 450.049 -4.23855 1.70867 0
M  V30 4549 C 451.046 -4.46404 2.66496 0
M  V30 4550 C 448.731 -4.61229 1.9893 0
M  V30 4551 C 450.725 -5.05412 3.88378 0
M  V30 4552 C 448.412 -5.19953 3.21079 0
M  V30 4553 C 449.41 -5.41985 4.15621 0
M  V30 4554 O 449.098 -5.99475 5.35616 0
M  V30 4555 H 448.83 -0.658168 0.154243 0
M  V30 4556 H 451.384 -1.7498 1.0757 0
M  V30 4557 H 449.614 -3.84814 -0.381444 0
M  V30 4558 H 451.303 -4.05895 -0.0194894 0
M  V30 4559 H 452.069 -4.17921 2.46103 0
M  V30 4560 H 447.948 -4.43402 1.26158 0
M  V30 4561 H 451.492 -5.22524 4.62185 0
M  V30 4562 H 447.389 -5.47862 3.41347 0
M  V30 4563 H 448.157 -6.17937 5.36745 0
M  V30 4564 N 450.82 -0.546701 -1.47814 0
M  V30 4565 C 452.097 0.0464413 -1.95545 0
M  V30 4566 C 452.477 1.4962 -1.48919 0
M  V30 4567 O 451.825 2.16752 -0.723232 0
M  V30 4568 C 452.035 -0.0881298 -3.48889 0
M  V30 4569 C 453.383 0.0626059 -4.24554 0
M  V30 4570 O 454.407 -0.0151555 -3.56197 0
M  V30 4571 O 453.266 0.228071 -5.46024 0
M  V30 4572 H 450.36 0.0700004 -0.824032 0
M  V30 4573 H 452.906 -0.612482 -1.58262 0
M  V30 4574 H 451.678 -1.09737 -3.75597 0
M  V30 4575 H 451.301 0.608886 -3.9291 0
M  V30 4576 N 452.299 1.55045 -0.282633 0
M  V30 4577 C 453.232 2.18951 0.64311 0
M  V30 4578 C 454.21 1.15287 1.14664 0
M  V30 4579 O 455.394 1.43846 1.21822 0
M  V30 4580 C 452.521 2.81874 1.87789 0
M  V30 4581 C 451.567 3.98906 1.50919 0
M  V30 4582 S 452.4 5.3234 0.580884 0
M  V30 4583 C 453.556 5.98737 1.82387 0
M  V30 4584 H 453.789 2.97131 0.100138 0
M  V30 4585 H 451.322 1.54255 -0.0668514 0
M  V30 4586 H 453.28 3.18757 2.58658 0
M  V30 4587 H 451.941 2.03573 2.392 0
M  V30 4588 H 451.134 4.4165 2.42819 0
M  V30 4589 H 450.736 3.63485 0.88061 0
M  V30 4590 H 453.028 6.18427 2.76684 0
M  V30 4591 H 453.971 6.93318 1.4393 0
M  V30 4592 H 454.379 5.28177 1.99223 0
M  V30 4593 N 453.777 0.010035 1.57597 0
M  V30 4594 C 455.024 -0.6727 1.91 0
M  V30 4595 C 455.352 -1.73219 0.884614 0
M  V30 4596 O 454.607 -1.95395 -0.109215 0
M  V30 4597 C 454.906 -1.34434 3.31153 0
M  V30 4598 C 454.572 -0.417083 4.48967 0
M  V30 4599 C 453.234 -0.161809 4.80928 0
M  V30 4600 C 455.586 0.220753 5.20732 0
M  V30 4601 C 452.914 0.739426 5.82022 0
M  V30 4602 C 455.266 1.10993 6.22787 0
M  V30 4603 C 453.93 1.37428 6.532 0
M  V30 4604 H 453.2 -0.246158 0.698918 0
M  V30 4605 H 455.847 0.0677145 1.9138 0
M  V30 4606 H 454.152 -2.15905 3.26944 0
M  V30 4607 H 455.849 -1.87883 3.54261 0
M  V30 4608 H 452.439 -0.626217 4.24001 0
M  V30 4609 H 456.623 0.0365643 4.96287 0
M  V30 4610 H 451.879 0.952139 6.03941 0
M  V30 4611 H 456.053 1.61046 6.77523 0
M  V30 4612 H 453.68 2.0743 7.31353 0
M  V30 4613 N 455.255 -1.55392 -0.262866 0
M  V30 4614 C 456.501 -1.76737 -0.99458 0
M  V30 4615 C 456.834 -0.572453 -1.85571 0
M  V30 4616 O 456.109 0.429732 -1.89693 0
M  V30 4617 C 456.392 -3.07824 -1.8686 0
M  V30 4618 C 456.245 -4.3769 -1.03672 0
M  V30 4619 C 457.564 -3.35021 -2.85393 0
M  V30 4620 H 454.683 -0.643005 -0.360157 0
M  V30 4621 H 457.325 -1.88126 -0.266216 0
M  V30 4622 H 455.475 -2.98245 -2.48962 0
M  V30 4623 H 457.147 -4.59238 -0.43563 0
M  V30 4624 H 455.39 -4.32461 -0.340513 0
M  V30 4625 H 456.061 -5.25759 -1.6817 0
M  V30 4626 H 458.537 -3.44458 -2.33426 0
M  V30 4627 H 457.413 -4.27989 -3.43681 0
M  V30 4628 H 457.674 -2.55153 -3.61039 0
M  V30 4629 N 456.733 0.527833 -1.48498 0
M  V30 4630 C 457.683 1.62844 -1.5958 0
M  V30 4631 C 458.667 1.54397 -0.452809 0
M  V30 4632 O 459.859 1.62381 -0.704364 0
M  V30 4633 C 456.988 3.01557 -1.64067 0
M  V30 4634 C 456.074 3.151 -2.83853 0
M  V30 4635 N 456.465 2.9861 -4.08247 0
M  V30 4636 C 454.763 3.46158 -2.8123 0
M  V30 4637 C 455.464 3.15626 -4.88626 0
M  V30 4638 N 454.44 3.43298 -4.21483 0
M  V30 4639 H 458.242 1.48708 -2.53502 0
M  V30 4640 H 455.756 0.733343 -1.44899 0
M  V30 4641 H 457.753 3.8062 -1.70101 0
M  V30 4642 H 456.413 3.16783 -0.712636 0
M  V30 4643 H 457.424 2.75329 -4.3865 0
M  V30 4644 H 454.101 3.67728 -1.97692 0
M  V30 4645 H 455.491 3.07596 -5.97356 0
M  V30 4646 N 458.211 1.37122 0.776871 0
M  V30 4647 C 459.622 1.28667 1.35284 0
M  V30 4648 C 459.973 -0.0680035 1.96082 0
M  V30 4649 O 459.098 -0.969743 1.93455 0
M  V30 4650 C 459.693 2.32997 2.45963 0
M  V30 4651 C 458.252 2.28191 2.99342 0
M  V30 4652 C 457.399 2.17101 1.72517 0
M  V30 4653 H 460.35 1.47819 0.577527 0
M  V30 4654 H 460.371 1.97366 3.2531 0
M  V30 4655 H 459.883 3.3158 2.01684 0
M  V30 4656 H 457.984 1.33115 3.4801 0
M  V30 4657 H 458.097 3.21397 3.55304 0
M  V30 4658 H 456.461 1.63562 1.95242 0
M  V30 4659 H 457.244 3.17591 1.30348 0
M  V30 4660 N 459.689 -1.00246 1.21608 0
M  V30 4661 C 461.105 -1.26435 0.973975 0
M  V30 4662 C 461.305 -1.98642 -0.338143 0
M  V30 4663 O 460.361 -2.29026 -1.06317 0
M  V30 4664 C 461.674 -2.08551 2.16626 0
M  V30 4665 C 463.222 -2.21769 2.20879 0
M  V30 4666 C 463.697 -3.07267 3.39633 0
M  V30 4667 N 465.188 -3.14855 3.39736 0
M  V30 4668 C 465.923 -3.81274 4.28273 0
M  V30 4669 N 465.419 -4.497 5.27012 0
M  V30 4670 N 467.212 -3.7794 4.16074 0
M  V30 4671 H 459.363 -0.518089 2.05984 0
M  V30 4672 H 461.626 -0.291368 0.902113 0
M  V30 4673 H 461.332 -1.62847 3.11727 0
M  V30 4674 H 461.206 -3.09303 2.15897 0
M  V30 4675 H 463.593 -2.66691 1.26332 0
M  V30 4676 H 463.674 -1.20478 2.25652 0
M  V30 4677 H 463.318 -2.63047 4.34475 0
M  V30 4678 H 463.248 -4.08678 3.321 0
M  V30 4679 H 465.739 -2.66147 2.6828 0
M  V30 4680 H 466.052 -4.98092 5.90867 0
M  V30 4681 H 464.397 -4.48479 5.30935 0
M  V30 4682 H 467.588 -3.23638 3.38195 0
M  V30 4683 H 467.761 -4.29424 4.85282 0
M  V30 4684 N 461.167 -1.02423 -1.1978 0
M  V30 4685 C 462.414 -0.717988 -1.89344 0
M  V30 4686 C 462.742 0.753036 -1.79331 0
M  V30 4687 O 461.997 1.56355 -1.17692 0
M  V30 4688 C 462.296 -1.1088 -3.39765 0
M  V30 4689 C 461.962 -2.57731 -3.6998 0
M  V30 4690 C 460.624 -2.97854 -3.77937 0
M  V30 4691 C 462.976 -3.52763 -3.83677 0
M  V30 4692 C 460.304 -4.31931 -3.97054 0
M  V30 4693 C 462.656 -4.86538 -4.04306 0
M  V30 4694 C 461.32 -5.26356 -4.10494 0
M  V30 4695 H 460.59 -0.26273 -0.692859 0
M  V30 4696 H 463.237 -1.28623 -1.41875 0
M  V30 4697 H 461.542 -0.459094 -3.89101 0
M  V30 4698 H 463.239 -0.849432 -3.919 0
M  V30 4699 H 459.829 -2.25646 -3.64393 0
M  V30 4700 H 464.013 -3.2292 -3.76877 0
M  V30 4701 H 459.269 -4.62324 -4.00083 0
M  V30 4702 H 463.443 -5.60093 -4.13846 0
M  V30 4703 H 461.07 -6.3026 -4.2506 0
M  V30 4704 N 462.645 1.35699 -0.801477 0
M  V30 4705 C 463.893 1.9852 -0.37871 0
M  V30 4706 C 464.214 1.63907 1.05638 0
M  V30 4707 O 463.484 0.919013 1.73006 0
M  V30 4708 H 462.064 0.734322 -0.137042 0
M  V30 4709 H 464.726 1.65697 -1.02619 0
M  V30 4710 H 463.822 3.08382 -0.480284 0
M  V30 4711 N 464.123 0.554532 1.47522 0
M  V30 4712 C 465.534 0.120446 1.86311 0
M  V30 4713 C 465.885 -1.30904 1.46145 0
M  V30 4714 O 465.01 -1.98434 0.863294 0
M  V30 4715 C 465.605 0.211808 3.38137 0
M  V30 4716 C 464.164 -0.167224 3.76028 0
M  V30 4717 C 463.311 0.560576 2.71575 0
M  V30 4718 H 466.262 0.764408 1.39077 0
M  V30 4719 H 466.283 -0.570275 3.76202 0
M  V30 4720 H 465.795 1.25232 3.6734 0
M  V30 4721 H 463.896 -1.20894 3.52442 0
M  V30 4722 H 464.009 0.189473 4.78725 0
M  V30 4723 H 462.373 0.00396836 2.547 0
M  V30 4724 H 463.156 1.60219 3.0362 0
M  V30 4725 N 465.601 -1.54893 0.290851 0
M  V30 4726 C 466.85 -1.99111 -0.322113 0
M  V30 4727 C 467.163 -1.18283 -1.55784 0
M  V30 4728 O 468.369 -1.5272 -2.24475 0
M  V30 4729 C 466.825 -3.54442 -0.624438 0
M  V30 4730 C 466.433 -4.44066 0.592373 0
M  V30 4731 C 468.177 -4.07211 -1.19916 0
M  V30 4732 C 466.084 -5.90812 0.263762 0
M  V30 4733 H 465.014 -0.743712 -0.124133 0
M  V30 4734 H 467.665 -1.79132 0.39797 0
M  V30 4735 H 466.047 -3.70281 -1.40384 0
M  V30 4736 H 467.221 -4.39999 1.36886 0
M  V30 4737 H 465.536 -4.02015 1.08502 0
M  V30 4738 H 468.133 -5.14407 -1.45909 0
M  V30 4739 H 468.476 -3.57196 -2.13815 0
M  V30 4740 H 469.009 -3.94873 -0.481687 0
M  V30 4741 H 465.748 -6.44955 1.17105 0
M  V30 4742 H 465.268 -5.97911 -0.475655 0
M  V30 4743 H 466.947 -6.46852 -0.138354 0
M  V30 4744 N 467.08 -0.0183926 -1.57589 0
M  V30 4745 C 468.027 0.967022 -2.09565 0
M  V30 4746 C 468.997 1.32983 -0.995225 0
M  V30 4747 O 470.182 1.42501 -1.26878 0
M  V30 4748 C 467.322 2.24772 -2.61861 0
M  V30 4749 C 466.435 1.94232 -3.85873 0
M  V30 4750 C 465.57 3.16518 -4.26603 0
M  V30 4751 C 464.609 2.81748 -5.43401 0
M  V30 4752 N 463.746 3.96626 -5.79338 0
M  V30 4753 H 468.586 0.516874 -2.93483 0
M  V30 4754 H 466.123 0.243544 -1.4507 0
M  V30 4755 H 468.081 2.99667 -2.90268 0
M  V30 4756 H 466.711 2.67423 -1.8079 0
M  V30 4757 H 465.763 1.09625 -3.64262 0
M  V30 4758 H 467.075 1.64616 -4.70853 0
M  V30 4759 H 466.229 3.99743 -4.56389 0
M  V30 4760 H 464.968 3.49286 -3.40368 0
M  V30 4761 H 463.973 1.96933 -5.1332 0
M  V30 4762 H 465.198 2.50207 -6.31327 0
M  V30 4763 H 463.144 4.29257 -4.96059 0
M  V30 4764 H 463.061 3.70598 -6.58933 0
M  V30 4765 H 464.329 4.80586 -6.13724 0
M  V30 4766 N 468.558 1.5553 0.254621 0
M  V30 4767 C 469.798 1.7876 0.991179 0
M  V30 4768 C 470.162 0.586669 1.82817 0
M  V30 4769 O 471.363 0.697585 2.5959 0
M  V30 4770 C 469.634 3.06679 1.83529 0
M  V30 4771 S 471.193 3.511 2.632 0
M  V30 4772 H 468.011 0.627916 0.333531 0
M  V30 4773 H 470.613 1.93766 0.259778 0
M  V30 4774 H 469.317 3.92158 1.20996 0
M  V30 4775 H 468.848 2.94388 2.60958 0
M  V30 4776 H 470.863 3.11823 3.8598 0
M  V30 4777 N 470.036 -0.519951 1.48776 0
M  V30 4778 C 471.285 -1.27175 1.56555 0
M  V30 4779 C 471.598 -1.9401 0.248869 0
M  V30 4780 O 472.804 -2.70725 0.205004 0
M  V30 4781 C 471.26 -2.30811 2.76142 0
M  V30 4782 C 470.868 -1.7 4.14493 0
M  V30 4783 C 472.612 -3.06937 2.9324 0
M  V30 4784 C 470.519 -2.71635 5.25327 0
M  V30 4785 H 469.449 -0.478329 0.582853 0
M  V30 4786 H 472.1 -0.547916 1.75129 0
M  V30 4787 H 470.482 -3.06274 2.51023 0
M  V30 4788 H 471.656 -1.00658 4.49672 0
M  V30 4789 H 469.971 -1.06331 4.02595 0
M  V30 4790 H 472.568 -3.82905 3.73213 0
M  V30 4791 H 472.911 -3.63409 2.03075 0
M  V30 4792 H 473.444 -2.38589 3.18308 0
M  V30 4793 H 470.183 -2.1997 6.1749 0
M  V30 4794 H 469.703 -3.39275 4.94624 0
M  V30 4795 H 471.382 -3.34429 5.53865 0
M  V30 4796 N 471.514 -1.37532 -0.769588 0
M  V30 4797 C 472.93 -1.18379 -1.07045 0
M  V30 4798 C 473.13 -0.0214312 -2.01489 0
M  V30 4799 O 472.186 0.637809 -2.44312 0
M  V30 4800 C 473.499 -2.50338 -1.66588 0
M  V30 4801 C 475.047 -2.56879 -1.78835 0
M  V30 4802 C 475.522 -3.88974 -2.41792 0
M  V30 4803 N 477.013 -3.90428 -2.4924 0
M  V30 4804 C 477.748 -4.89388 -2.98809 0
M  V30 4805 N 477.244 -5.98745 -3.48535 0
M  V30 4806 N 479.037 -4.76791 -2.97703 0
M  V30 4807 H 471.188 -2.11921 -0.142541 0
M  V30 4808 H 473.451 -0.939608 -0.125863 0
M  V30 4809 H 473.157 -3.35767 -1.0466 0
M  V30 4810 H 473.031 -2.67583 -2.65856 0
M  V30 4811 H 475.418 -1.71856 -2.39895 0
M  V30 4812 H 475.499 -2.43516 -0.783166 0
M  V30 4813 H 475.143 -4.74412 -1.81371 0
M  V30 4814 H 475.073 -3.99641 -3.4292 0
M  V30 4815 H 477.564 -3.11433 -2.14052 0
M  V30 4816 H 477.877 -6.70205 -3.84767 0
M  V30 4817 H 476.222 -6.02387 -3.46634 0
M  V30 4818 H 479.413 -3.90478 -2.58157 0
M  V30 4819 H 479.586 -5.54069 -3.36024 0
M  V30 4820 N 472.992 0.995999 -1.22138 0
M  V30 4821 C 474.22 1.77066 -1.07029 0
M  V30 4822 C 474.635 1.8495 0.379357 0
M  V30 4823 O 473.992 1.3174 1.26297 0
M  V30 4824 C 474.043 3.20533 -1.67155 0
M  V30 4825 O 473.764 3.13082 -3.06449 0
M  V30 4826 C 475.265 4.14461 -1.5728 0
M  V30 4827 H 472.485 0.556179 -0.375374 0
M  V30 4828 H 475.029 1.25238 -1.61666 0
M  V30 4829 H 473.184 3.6944 -1.16589 0
M  V30 4830 H 473.598 4.03283 -3.35355 0
M  V30 4831 H 475.072 5.1289 -2.04078 0
M  V30 4832 H 475.549 4.36005 -0.528795 0
M  V30 4833 H 476.155 3.71449 -2.07136 0
M  V30 4834 N 474.47 1.03057 1.19235 0
M  V30 4835 C 475.4 0.633497 2.24742 0
M  V30 4836 C 476.381 -0.358335 1.66283 0
M  V30 4837 O 477.566 -0.240676 1.92703 0
M  V30 4838 C 474.696 -0.0147648 3.47297 0
M  V30 4839 C 473.65 0.899527 4.18441 0
M  V30 4840 C 472.976 0.116281 5.34574 0
M  V30 4841 C 474.276 2.21404 4.73051 0
M  V30 4842 H 475.97 1.5155 2.58211 0
M  V30 4843 H 473.516 0.73014 1.24117 0
M  V30 4844 H 475.469 -0.304202 4.20301 0
M  V30 4845 H 474.193 -0.931577 3.13032 0
M  V30 4846 H 472.852 1.17319 3.47321 0
M  V30 4847 H 472.5 -0.802619 4.96555 0
M  V30 4848 H 472.2 0.725293 5.83107 0
M  V30 4849 H 473.724 -0.166376 6.10373 0
M  V30 4850 H 475.138 1.98601 5.37802 0
M  V30 4851 H 473.535 2.77512 5.32078 0
M  V30 4852 H 474.605 2.86752 3.91026 0
M  V30 4853 N 475.948 -1.35272 0.808662 0
M  V30 4854 C 477.364 -1.51806 0.492653 0
M  V30 4855 C 477.564 -1.7574 -0.985778 0
M  V30 4856 O 476.62 -1.80003 -1.77074 0
M  V30 4857 C 477.933 -2.69202 1.33981 0
M  V30 4858 C 479.481 -2.8308 1.33547 0
M  V30 4859 C 479.956 -4.03502 2.16679 0
M  V30 4860 N 481.447 -4.10684 2.14227 0
M  V30 4861 C 482.182 -5.02984 2.75308 0
M  V30 4862 N 481.678 -6.00603 3.45323 0
M  V30 4863 N 483.471 -4.95746 2.64938 0
M  V30 4864 H 475.622 -1.17993 1.76611 0
M  V30 4865 H 477.885 -0.577476 0.751814 0
M  V30 4866 H 477.591 -2.581 2.38909 0
M  V30 4867 H 477.465 -3.63854 0.994491 0
M  V30 4868 H 479.852 -2.93631 0.294036 0
M  V30 4869 H 479.933 -1.89278 1.72068 0
M  V30 4870 H 479.577 -3.93711 3.20864 0
M  V30 4871 H 479.507 -4.96489 1.75517 0
M  V30 4872 H 481.998 -3.40802 1.63285 0
M  V30 4873 H 482.311 -6.67633 3.89212 0
M  V30 4874 H 480.656 -6.0077 3.49428 0
M  V30 4875 H 483.847 -4.18439 2.09825 0
M  V30 4876 H 484.02 -5.67487 3.12829 0
M  V30 4877 N 477.426 -0.562348 -1.47226 0
M  V30 4878 C 478.389 0.172056 -2.28553 0
M  V30 4879 C 479.389 0.837928 -1.37242 0
M  V30 4880 O 480.579 0.693001 -1.59822 0
M  V30 4881 C 477.711 1.25223 -3.17068 0
M  V30 4882 H 478.904 -0.542401 -2.94954 0
M  V30 4883 H 476.457 -0.319493 -1.53 0
M  V30 4884 H 477.192 1.99892 -2.55369 0
M  V30 4885 H 476.977 0.779515 -3.84273 0
M  V30 4886 H 478.467 1.76791 -3.78332 0
M  V30 4887 N 478.904 1.54736 -0.299062 0
M  V30 4888 C 480.15 2.00397 0.311244 0
M  V30 4889 C 480.483 1.18716 1.53688 0
M  V30 4890 O 479.758 0.263154 1.92712 0
M  V30 4891 C 480.041 3.53817 0.669761 0
M  V30 4892 C 479.894 4.46239 -0.564882 0
M  V30 4893 C 481.213 4.13856 1.49702 0
M  V30 4894 H 478.332 0.728493 0.111653 0
M  V30 4895 H 480.974 1.85506 -0.410774 0
M  V30 4896 H 479.124 3.66637 1.28491 0
M  V30 4897 H 480.796 4.45328 -1.20337 0
M  V30 4898 H 479.039 4.16916 -1.19849 0
M  V30 4899 H 479.71 5.5134 -0.269918 0
M  V30 4900 H 482.186 4.04461 0.977284 0
M  V30 4901 H 481.062 5.21365 1.71666 0
M  V30 4902 H 481.323 3.65608 2.48563 0
M  V30 4903 N 480.382 0.0267497 1.57577 0
M  V30 4904 C 481.292 -0.971633 2.13533 0
M  V30 4905 C 482.308 -1.35868 1.08701 0
M  V30 4906 O 483.484 -1.44058 1.40746 0
M  V30 4907 C 480.549 -2.23622 2.64941 0
M  V30 4908 C 479.61 -1.90982 3.8448 0
M  V30 4909 C 478.843 -3.11411 4.33427 0
M  V30 4910 O 479.066 -4.23992 3.81558 0
M  V30 4911 O 478 -2.93848 5.25297 0
M  V30 4912 H 481.826 -0.525853 2.99113 0
M  V30 4913 H 479.411 -0.193712 1.48139 0
M  V30 4914 H 481.293 -2.97864 2.98086 0
M  V30 4915 H 479.968 -2.67386 1.82446 0
M  V30 4916 H 478.875 -1.14132 3.56265 0
M  V30 4917 H 480.208 -1.52036 4.6813 0
M  V30 4918 N 481.861 -1.55662 -0.24637 0
M  V30 4919 C 482.824 -1.89558 -1.28842 0
M  V30 4920 C 483.824 -0.772082 -1.41052 0
M  V30 4921 O 485.014 -1.04007 -1.39743 0
M  V30 4922 C 482.146 -2.12449 -2.66605 0
M  V30 4923 H 483.339 -2.82735 -1.00004 0
M  V30 4924 H 480.892 -1.48562 -0.485684 0
M  V30 4925 H 481.627 -1.21742 -3.00582 0
M  V30 4926 H 481.412 -2.94273 -2.59125 0
M  V30 4927 H 482.902 -2.39854 -3.41847 0
M  V30 4928 N 483.339 0.512053 -1.4905 0
M  V30 4929 C 484.616 1.27337 -1.48474 0
M  V30 4930 C 484.996 2.1009 -0.206301 0
M  V30 4931 O 484.344 2.136 0.811609 0
M  V30 4932 C 484.554 2.13954 -2.75726 0
M  V30 4933 C 485.902 2.73507 -3.24776 0
M  V30 4934 O 486.926 2.24229 -2.76767 0
M  V30 4935 O 485.785 3.63186 -4.08361 0
M  V30 4936 H 482.879 0.575652 -0.593762 0
M  V30 4937 H 485.425 0.527232 -1.61302 0
M  V30 4938 H 484.197 1.52709 -3.60272 0
M  V30 4939 H 483.82 2.95782 -2.65705 0
M  V30 4940 N 484.817 1.37938 0.762283 0
M  V30 4941 C 485.727 1.36681 1.90671 0
M  V30 4942 C 486.743 0.265078 1.71969 0
M  V30 4943 O 487.919 0.502055 1.95042 0
M  V30 4944 C 484.984 1.18211 3.25925 0
M  V30 4945 C 484.045 2.3811 3.57214 0
M  V30 4946 C 483.278 2.20512 4.86014 0
M  V30 4947 O 483.501 1.19429 5.57757 0
M  V30 4948 O 482.435 3.08911 5.16583 0
M  V30 4949 H 486.261 2.33091 1.94685 0
M  V30 4950 H 483.846 1.18767 0.906356 0
M  V30 4951 H 485.728 1.09937 4.06807 0
M  V30 4952 H 484.403 0.248807 3.22742 0
M  V30 4953 H 483.31 2.51958 2.76529 0
M  V30 4954 H 484.643 3.30041 3.65149 0
M  V30 4955 N 486.295 -0.989507 1.22664 0
M  V30 4956 C 487.205 -2.11449 1.01619 0
M  V30 4957 C 488.221 -1.73962 -0.036545 0
M  V30 4958 O 489.397 -2.00788 0.156924 0
M  V30 4959 C 486.462 -3.41465 0.600204 0
M  V30 4960 C 485.523 -3.93033 1.72695 0
M  V30 4961 C 484.756 -5.16844 1.33071 0
M  V30 4962 O 484.979 -5.7001 0.210975 0
M  V30 4963 O 483.913 -5.6225 2.14845 0
M  V30 4964 H 487.739 -2.32088 1.9588 0
M  V30 4965 H 485.324 -1.09823 1.01289 0
M  V30 4966 H 487.206 -4.19695 0.37873 0
M  V30 4967 H 485.881 -3.22178 -0.313511 0
M  V30 4968 H 484.788 -3.15961 2.00298 0
M  V30 4969 H 486.121 -4.16758 2.61865 0
M  V30 4970 N 487.773 -1.03688 -1.18687 0
M  V30 4971 C 488.703 -0.645407 -2.24403 0
M  V30 4972 C 489.684 0.349511 -1.66471 0
M  V30 4973 O 490.869 0.230453 -1.92828 0
M  V30 4974 C 487.999 -0.00365337 -3.473 0
M  V30 4975 C 486.953 -0.921705 -4.17958 0
M  V30 4976 C 486.279 -0.144629 -5.34504 0
M  V30 4977 C 487.579 -2.23909 -4.71871 0
M  V30 4978 H 489.273 -1.52917 -2.57404 0
M  V30 4979 H 486.819 -0.736711 -1.23728 0
M  V30 4980 H 488.772 0.281908 -4.20456 0
M  V30 4981 H 487.496 0.914963 -3.13522 0
M  V30 4982 H 486.155 -1.19159 -3.46694 0
M  V30 4983 H 485.803 0.776274 -4.96974 0
M  V30 4984 H 485.503 -0.756206 -5.82714 0
M  V30 4985 H 487.027 0.134004 -6.10453 0
M  V30 4986 H 488.441 -2.0145 -5.36741 0
M  V30 4987 H 486.838 -2.8033 -5.30599 0
M  V30 4988 H 487.908 -2.88822 -3.895 0
M  V30 4989 N 489.251 1.34841 -0.815825 0
M  V30 4990 C 490.479 2.0273 -0.413294 0
M  V30 4991 C 490.894 1.61459 0.978599 0
M  V30 4992 O 490.251 0.816584 1.63212 0
M  V30 4993 C 490.302 3.58058 -0.497676 0
M  V30 4994 O 490.023 3.97832 -1.8347 0
M  V30 4995 C 491.524 4.4321 -0.0891339 0
M  V30 4996 H 488.744 0.649956 -0.166728 0
M  V30 4997 H 491.288 1.72267 -1.10201 0
M  V30 4998 H 489.443 3.87136 0.142886 0
M  V30 4999 H 489.857 4.92501 -1.80396 0
M  V30 5000 H 491.331 5.5164 -0.199274 0
M  V30 5001 H 491.808 4.28432 0.966571 0
M  V30 5002 H 492.414 4.19446 -0.703214 0
M  V30 5003 N 490.729 0.570148 1.46925 0
M  V30 5004 C 491.975 0.0510284 2.02736 0
M  V30 5005 C 492.308 -1.3006 1.44215 0
M  V30 5006 O 491.583 -1.84932 0.602521 0
M  V30 5007 C 491.866 -0.028215 3.60089 0
M  V30 5008 C 491.719 1.35142 4.29018 0
M  V30 5009 C 493.038 -0.735181 4.33916 0
M  V30 5010 H 490.157 0.0200178 0.736728 0
M  V30 5011 H 492.799 0.73493 1.75211 0
M  V30 5012 H 490.949 -0.610648 3.83671 0
M  V30 5013 H 492.621 1.97806 4.16738 0
M  V30 5014 H 490.864 1.9226 3.88868 0
M  V30 5015 H 491.535 1.24857 5.37694 0
M  V30 5016 H 494.011 -0.240519 4.15404 0
M  V30 5017 H 492.887 -0.759622 5.43618 0
M  V30 5018 H 493.148 -1.79397 4.04066 0
M  V30 5019 N 492.207 -1.54576 0.307264 0
M  V30 5020 C 493.17 -2.22423 -0.553224 0
M  V30 5021 C 494.17 -1.21231 -1.05639 0
M  V30 5022 O 495.36 -1.45923 -0.951419 0
M  V30 5023 C 492.492 -2.91552 -1.76664 0
M  V30 5024 H 493.685 -2.99874 0.0396484 0
M  V30 5025 H 491.238 -1.56192 0.0581629 0
M  V30 5026 H 491.973 -2.18196 -2.39918 0
M  V30 5027 H 491.758 -3.65738 -1.41343 0
M  V30 5028 H 493.248 -3.43292 -2.37783 0
M  V30 5029 N 493.685 -0.035106 -1.57561 0
M  V30 5030 C 494.915 0.651312 -1.96065 0
M  V30 5031 C 495.323 1.6585 -0.910514 0
M  V30 5032 O 494.666 1.83336 0.11552 0
M  V30 5033 C 494.728 1.40897 -3.30739 0
M  V30 5034 C 494.392 0.559436 -4.53563 0
M  V30 5035 C 495.389 -0.16778 -5.19629 0
M  V30 5036 C 493.074 0.495079 -4.99854 0
M  V30 5037 C 495.068 -0.947963 -6.30311 0
M  V30 5038 C 492.755 -0.288804 -6.10417 0
M  V30 5039 C 493.753 -1.00903 -6.75505 0
M  V30 5040 O 493.441 -1.78005 -7.83945 0
M  V30 5041 H 493.173 0.184036 -0.650467 0
M  V30 5042 H 495.727 -0.0929677 -2.05189 0
M  V30 5043 H 493.957 2.19852 -3.18123 0
M  V30 5044 H 495.646 1.98407 -3.54104 0
M  V30 5045 H 496.412 -0.12743 -4.84833 0
M  V30 5046 H 492.291 1.04524 -4.48994 0
M  V30 5047 H 495.835 -1.51064 -6.81047 0
M  V30 5048 H 491.732 -0.33085 -6.44652 0
M  V30 5049 H 492.5 -1.70046 -8.00641 0
M  V30 5050 N 495.163 1.55791 0.238111 0
M  V30 5051 C 496.411 1.77681 0.963001 0
M  V30 5052 C 496.732 0.600674 1.85518 0
M  V30 5053 O 496.002 -0.383182 1.92116 0
M  V30 5054 H 494.582 0.655315 0.358568 0
M  V30 5055 H 497.244 1.93239 0.253945 0
M  V30 5056 H 496.34 2.69177 1.57956 0
M  V30 5057 N 496.642 -0.504142 1.49319 0
M  V30 5058 C 497.872 -1.28071 1.62116 0
M  V30 5059 C 498.28 -1.86955 0.290566 0
M  V30 5060 O 497.623 -1.68415 -0.733616 0
M  V30 5061 C 497.685 -2.4521 2.62893 0
M  V30 5062 C 497.349 -2.07218 4.0732 0
M  V30 5063 C 498.346 -1.61375 4.94221 0
M  V30 5064 C 496.031 -2.16949 4.53033 0
M  V30 5065 C 498.025 -1.25763 6.2487 0
M  V30 5066 C 495.712 -1.80949 5.83696 0
M  V30 5067 C 496.71 -1.3543 6.69438 0
M  V30 5068 O 496.398 -0.99915 7.97667 0
M  V30 5069 H 496.13 -0.394763 0.54876 0
M  V30 5070 H 498.684 -0.612118 1.96067 0
M  V30 5071 H 496.914 -3.15134 2.24115 0
M  V30 5072 H 498.603 -3.0724 2.65252 0
M  V30 5073 H 499.369 -1.53306 4.60133 0
M  V30 5074 H 495.248 -2.5133 3.86463 0
M  V30 5075 H 498.792 -0.901631 6.91749 0
M  V30 5076 H 494.689 -1.88667 6.17313 0
M  V30 5077 H 495.457 -1.13089 8.1065 0
M  V30 5078 N 498.12 -1.38341 -0.754957 0
M  V30 5079 C 499.397 -1.24995 -1.50451 0
M  V30 5080 C 499.777 0.149244 -2.10572 0
M  V30 5081 O 499.125 1.15861 -1.96948 0
M  V30 5082 C 499.335 -2.35904 -2.57197 0
M  V30 5083 C 500.683 -2.74262 -3.24138 0
M  V30 5084 O 501.707 -2.35205 -2.67501 0
M  V30 5085 O 500.566 -3.4161 -4.26574 0
M  V30 5086 H 497.66 -0.48872 -0.667144 0
M  V30 5087 H 500.206 -1.50165 -0.790486 0
M  V30 5088 H 498.978 -3.2953 -2.11011 0
M  V30 5089 H 498.601 -2.12291 -3.36182 0
M  V30 5090 N 499.598 0.982988 -1.23187 0
M  V30 5091 C 500.548 2.05962 -0.977942 0
M  V30 5092 C 501.532 1.60725 0.0751148 0
M  V30 5093 O 502.724 1.76471 -0.136683 0
M  V30 5094 C 499.853 3.38564 -0.568276 0
M  V30 5095 C 498.939 3.90407 -1.6566 0
M  V30 5096 N 499.33 4.15359 -2.88635 0
M  V30 5097 C 497.628 4.18915 -1.53058 0
M  V30 5098 C 498.329 4.57642 -3.5908 0
M  V30 5099 N 497.305 4.6192 -2.86584 0
M  V30 5100 H 501.107 2.23208 -1.91195 0
M  V30 5101 H 498.621 1.16555 -1.13087 0
M  V30 5102 H 500.618 4.15276 -0.36764 0
M  V30 5103 H 499.278 3.22712 0.358713 0
M  V30 5104 H 500.289 4.03258 -3.24966 0
M  V30 5105 H 496.966 4.12081 -0.670506 0
M  V30 5106 H 498.356 4.85488 -4.6449 0
M  V30 5107 N 501.076 1.04316 1.18135 0
M  V30 5108 C 502.301 0.768047 1.92655 0
M  V30 5109 C 502.726 -0.66904 1.758 0
M  V30 5110 O 502.084 -1.46372 1.06981 0
M  V30 5111 C 502.132 1.14239 3.42026 0
M  V30 5112 O 501.236 0.269333 4.1152 0
M  V30 5113 H 500.577 0.282436 0.600937 0
M  V30 5114 H 503.107 1.39367 1.49793 0
M  V30 5115 H 503.117 1.10538 3.92741 0
M  V30 5116 H 501.792 2.18928 3.53615 0
M  V30 5117 H 500.369 0.366175 3.71098 0
M  V30 5118 N 502.554 -1.34406 0.822964 0
M  V30 5119 C 503.965 -1.8069 0.469879 0
M  V30 5120 C 504.316 -1.68223 -1.00972 0
M  V30 5121 O 503.441 -1.22226 -1.78577 0
M  V30 5122 C 504.036 -3.28064 0.846118 0
M  V30 5123 C 502.595 -3.72428 0.545402 0
M  V30 5124 C 501.742 -2.56116 1.06301 0
M  V30 5125 H 504.693 -1.22153 1.01313 0
M  V30 5126 H 504.714 -3.80205 0.149922 0
M  V30 5127 H 504.226 -3.37107 1.92304 0
M  V30 5128 H 502.327 -3.68924 -0.522109 0
M  V30 5129 H 502.44 -4.66548 1.0895 0
M  V30 5130 H 500.804 -2.50048 0.484554 0
M  V30 5131 H 501.587 -2.67928 2.14638 0
M  V30 5132 N 504.032 -0.577932 -1.46621 0
M  V30 5133 C 505.443 -0.150071 -1.86096 0
M  V30 5134 C 505.794 1.28563 -1.48209 0
M  V30 5135 O 504.919 1.97036 -0.894754 0
M  V30 5136 C 505.514 -0.265576 -3.37758 0
M  V30 5137 C 504.073 0.10738 -3.76247 0
M  V30 5138 C 503.22 -0.603711 -2.70649 0
M  V30 5139 H 506.171 -0.786438 -1.37844 0
M  V30 5140 H 506.192 0.510352 -3.77062 0
M  V30 5141 H 505.704 -1.3106 -3.65301 0
M  V30 5142 H 503.805 1.15272 -3.54321 0
M  V30 5143 H 503.918 -0.26561 -4.78363 0
M  V30 5144 H 502.282 -0.0444884 -2.54661 0
M  V30 5145 H 503.065 -1.65029 -3.01032 0
M  V30 5146 N 505.51 1.54411 -0.315457 0
M  V30 5147 C 506.758 2.00023 0.288971 0
M  V30 5148 C 507.079 1.20529 1.5329 0
M  V30 5149 O 506.349 0.304986 1.93511 0
M  V30 5150 H 504.929 0.738891 0.109766 0
M  V30 5151 H 507.591 1.90094 -0.430129 0
M  V30 5152 H 506.687 3.07198 0.550999 0
M  V30 5153 N 506.988 0.0434614 1.5754 0
M  V30 5154 C 507.935 -0.93356 2.11077 0
M  V30 5155 C 508.905 -1.31383 1.01626 0
M  V30 5156 O 510.09 -1.40465 1.29129 0
M  V30 5157 C 507.23 -2.20578 2.65404 0
M  V30 5158 C 506.343 -1.88068 3.88914 0
M  V30 5159 C 505.478 -3.09691 4.31584 0
M  V30 5160 C 504.517 -2.73067 5.47815 0
M  V30 5161 N 503.654 -3.87359 5.85574 0
M  V30 5162 H 508.494 -0.470118 2.94268 0
M  V30 5163 H 506.031 -0.220434 1.45439 0
M  V30 5164 H 507.989 -2.95011 2.94999 0
M  V30 5165 H 506.619 -2.64513 1.85021 0
M  V30 5166 H 505.671 -1.03816 3.6596 0
M  V30 5167 H 506.983 -1.57104 4.73413 0
M  V30 5168 H 506.137 -3.92431 4.62691 0
M  V30 5169 H 504.876 -3.43827 3.45882 0
M  V30 5170 H 503.881 -1.88742 5.16388 0
M  V30 5171 H 505.106 -2.40131 6.35227 0
M  V30 5172 H 503.052 -4.21311 5.02825 0
M  V30 5173 H 502.969 -3.60068 6.64746 0
M  V30 5174 H 504.237 -4.70761 6.21292 0
M  V30 5175 N 508.466 -1.55915 -0.229846 0
M  V30 5176 C 509.691 -1.8296 -0.976743 0
M  V30 5177 C 510.116 -0.622735 -1.77493 0
M  V30 5178 O 509.474 0.428431 -1.76165 0
M  V30 5179 C 509.522 -3.07916 -1.8767 0
M  V30 5180 O 508.626 -2.86028 -2.97088 0
M  V30 5181 H 507.967 -0.603453 -0.277021 0
M  V30 5182 H 510.497 -2.0312 -0.245669 0
M  V30 5183 H 510.507 -3.37802 -2.2881 0
M  V30 5184 H 509.182 -3.95389 -1.28996 0
M  V30 5185 H 507.759 -2.67355 -2.59954 0
M  V30 5186 N 509.944 0.496216 -1.49584 0
M  V30 5187 C 511.192 1.24756 -1.58998 0
M  V30 5188 C 511.513 1.92968 -0.280775 0
M  V30 5189 O 510.783 1.82959 0.700198 0
M  V30 5190 H 509.363 0.463471 -0.585836 0
M  V30 5191 H 512.025 0.574678 -1.86235 0
M  V30 5192 H 511.121 2.00895 -2.38847 0
M  V30 5193 N 511.423 1.38739 0.74761 0
M  V30 5194 C 512.834 1.31507 1.32524 0
M  V30 5195 C 513.185 -0.0263963 1.96182 0
M  V30 5196 O 512.31 -0.92849 1.95469 0
M  V30 5197 C 512.905 2.38162 2.40966 0
M  V30 5198 C 511.464 2.34489 2.94434 0
M  V30 5199 C 510.611 2.20712 1.67873 0
M  V30 5200 H 513.562 1.4901 0.546043 0
M  V30 5201 H 513.583 2.04222 3.21051 0
M  V30 5202 H 513.095 3.35783 1.94605 0
M  V30 5203 H 511.196 1.40467 3.45108 0
M  V30 5204 H 511.309 3.28861 3.48407 0
M  V30 5205 H 509.673 1.67667 1.91729 0
M  V30 5206 H 510.456 3.20285 1.23582 0
M  V30 5207 N 512.901 -0.976442 1.23707 0
M  V30 5208 C 513.811 -2.10359 1.03856 0
M  V30 5209 C 514.827 -1.73991 -0.0180919 0
M  V30 5210 O 516.003 -2.0061 0.178211 0
M  V30 5211 C 513.068 -3.40809 0.636387 0
M  V30 5212 C 512.129 -3.91179 1.76854 0
M  V30 5213 C 511.362 -5.15404 1.38546 0
M  V30 5214 O 511.585 -5.69754 0.27142 0
M  V30 5215 O 510.519 -5.5994 2.20797 0
M  V30 5216 H 514.345 -2.29997 1.98331 0
M  V30 5217 H 511.93 -1.08742 1.02448 0
M  V30 5218 H 513.812 -4.19269 0.423223 0
M  V30 5219 H 512.487 -3.22493 -0.279322 0
M  V30 5220 H 511.394 -3.13819 2.03638 0
M  V30 5221 H 512.727 -4.13958 2.6627 0
M  V30 5222 N 514.379 -1.04941 -1.1758 0
M  V30 5223 C 515.342 -0.652456 -2.19717 0
M  V30 5224 C 516.342 0.294745 -1.58076 0
M  V30 5225 O 517.532 0.0789579 -1.74021 0
M  V30 5226 C 514.664 0.0420712 -3.40874 0
M  V30 5227 H 515.857 -1.55642 -2.5635 0
M  V30 5228 H 513.41 -0.842995 -1.31618 0
M  V30 5229 H 514.145 0.95943 -3.09783 0
M  V30 5230 H 513.93 -0.638844 -3.86861 0
M  V30 5231 H 515.42 0.306 -4.16477 0
M  V30 5232 N 515.857 1.33968 -0.830081 0
M  V30 5233 C 517.268 1.80439 -0.479455 0
M  V30 5234 C 517.619 1.68756 1.00079 0
M  V30 5235 O 516.744 1.23171 1.77927 0
M  V30 5236 C 517.339 3.27611 -0.863505 0
M  V30 5237 C 515.898 3.72133 -0.565145 0
M  V30 5238 C 515.045 2.55549 -1.07657 0
M  V30 5239 H 517.996 1.21614 -1.0196 0
M  V30 5240 H 518.017 3.8012 -0.170083 0
M  V30 5241 H 517.529 3.36082 -1.94089 0
M  V30 5242 H 515.63 3.69196 0.502536 0
M  V30 5243 H 515.743 4.65963 -1.11422 0
M  V30 5244 H 514.107 2.49788 -0.497807 0
M  V30 5245 H 514.89 2.66786 -2.16055 0
M  V30 5246 N 517.335 0.585699 1.46312 0
M  V30 5247 C 518.245 -0.148236 2.34131 0
M  V30 5248 C 519.261 -0.882972 1.49932 0
M  V30 5249 O 520.437 -0.845484 1.82794 0
M  V30 5250 C 517.502 -1.14714 3.27172 0
M  V30 5251 C 516.563 -0.416746 4.27272 0
M  V30 5252 C 515.796 -1.36806 5.15868 0
M  V30 5253 O 516.019 -2.60475 5.07454 0
M  V30 5254 O 514.953 -0.877018 5.95476 0
M  V30 5255 H 518.779 0.572882 2.98248 0
M  V30 5256 H 516.364 0.346082 1.45336 0
M  V30 5257 H 518.246 -1.72303 3.84564 0
M  V30 5258 H 516.921 -1.84967 2.65648 0
M  V30 5259 H 515.828 0.201061 3.73559 0
M  V30 5260 H 517.161 0.244872 4.9159 0
M  V30 5261 N 518.813 -1.54241 0.323641 0
M  V30 5262 C 520.059 -2.01572 -0.272089 0
M  V30 5263 C 520.414 -1.20774 -1.49771 0
M  V30 5264 O 519.707 -0.281821 -1.89516 0
M  V30 5265 C 519.901 -3.5129 -0.658031 0
M  V30 5266 C 519.73 -4.46582 0.528645 0
M  V30 5267 C 518.5 -4.94737 1.02777 0
M  V30 5268 C 520.698 -4.95416 1.38086 0
M  V30 5269 N 518.68 -5.73933 2.17885 0
M  V30 5270 C 520.051 -5.72537 2.3791 0
M  V30 5271 C 522.106 -4.77559 1.40861 0
M  V30 5272 C 520.809 -6.33702 3.40314 0
M  V30 5273 C 522.835 -5.39559 2.42136 0
M  V30 5274 C 522.197 -6.16532 3.40688 0
M  V30 5275 H 518.296 -0.779425 -0.0634072 0
M  V30 5276 H 520.88 -1.8922 0.458697 0
M  V30 5277 H 519.051 -3.63888 -1.35795 0
M  V30 5278 H 520.783 -3.85388 -1.23524 0
M  V30 5279 H 517.538 -4.69796 0.599046 0
M  V30 5280 H 517.962 -6.18209 2.75947 0
M  V30 5281 H 522.604 -4.17611 0.660352 0
M  V30 5282 H 520.322 -6.9277 4.16047 0
M  V30 5283 H 523.908 -5.27659 2.45086 0
M  V30 5284 H 522.788 -6.63655 4.1777 0
M  V30 5285 N 520.291 -0.0518155 -1.57515 0
M  V30 5286 C 521.521 0.63048 -1.96745 0
M  V30 5287 C 521.929 1.64875 -0.928054 0
M  V30 5288 O 521.272 1.83449 0.0960678 0
M  V30 5289 C 521.334 1.37381 -3.32215 0
M  V30 5290 C 520.998 0.511298 -4.54131 0
M  V30 5291 C 521.995 -0.222884 -5.19422 0
M  V30 5292 C 519.68 0.442035 -5.00351 0
M  V30 5293 C 521.674 -1.01476 -6.2927 0
M  V30 5294 C 519.361 -0.35353 -6.10077 0
M  V30 5295 C 520.359 -1.08062 -6.74397 0
M  V30 5296 O 520.047 -1.8631 -7.82013 0
M  V30 5297 H 519.779 0.177126 -0.652382 0
M  V30 5298 H 522.333 -0.114726 -2.05079 0
M  V30 5299 H 520.563 2.16466 -3.20436 0
M  V30 5300 H 522.252 1.9464 -3.56188 0
M  V30 5301 H 523.018 -0.178846 -4.8467 0
M  V30 5302 H 518.897 0.997562 -4.50077 0
M  V30 5303 H 522.441 -1.58279 -6.79407 0
M  V30 5304 H 518.338 -0.399205 -6.44264 0
M  V30 5305 H 519.106 -1.78528 -7.98793 0
M  V30 5306 N 521.769 1.56035 0.221574 0
M  V30 5307 C 522.701 1.889 1.29805 0
M  V30 5308 C 523.714 0.777269 1.43047 0
M  V30 5309 O 524.903 1.05557 1.43945 0
M  V30 5310 C 522.003 2.0825 2.67367 0
M  V30 5311 C 521.176 3.39267 2.76073 0
M  V30 5312 C 520.235 3.48049 3.94649 0
M  V30 5313 O 519.261 4.2108 3.82988 0
M  V30 5314 N 520.463 2.79191 5.08953 0
M  V30 5315 H 523.228 2.81831 1.01938 0
M  V30 5316 H 520.789 1.5658 0.411612 0
M  V30 5317 H 522.781 2.11441 3.45072 0
M  V30 5318 H 521.351 1.21944 2.87834 0
M  V30 5319 H 520.571 3.48175 1.84846 0
M  V30 5320 H 521.859 4.25575 2.7886 0
M  V30 5321 H 521.257 2.19635 5.21322 0
M  V30 5322 H 519.814 2.88043 5.84701 0
M  V30 5323 N 523.247 -0.488276 1.49845 0
M  V30 5324 C 524.493 -1.24341 1.6021 0
M  V30 5325 C 524.826 -1.91967 0.293651 0
M  V30 5326 O 524.101 -1.81323 -0.703718 0
M  V30 5327 C 524.384 -2.3005 2.77036 0
M  V30 5328 C 524.237 -1.66842 4.17713 0
M  V30 5329 C 525.556 -3.31509 2.89464 0
M  V30 5330 H 522.675 -0.450704 0.583125 0
M  V30 5331 H 525.317 -0.539673 1.82174 0
M  V30 5332 H 523.467 -2.90071 2.58439 0
M  V30 5333 H 525.139 -1.1055 4.47858 0
M  V30 5334 H 523.382 -0.972079 4.22768 0
M  V30 5335 H 524.053 -2.43576 4.95353 0
M  V30 5336 H 526.529 -2.81493 3.06433 0
M  V30 5337 H 525.405 -4.02822 3.72861 0
M  V30 5338 H 525.666 -3.94603 1.99351 0
M  V30 5339 N 524.725 -1.39134 -0.740242 0
M  V30 5340 C 525.635 -1.39697 -1.88473 0
M  V30 5341 C 526.651 -0.292403 -1.71526 0
M  V30 5342 O 527.827 -0.533021 -1.94219 0
M  V30 5343 C 524.892 -1.23382 -3.24003 0
M  V30 5344 C 523.953 -2.43763 -3.53381 0
M  V30 5345 C 523.186 -2.28216 -4.82445 0
M  V30 5346 O 523.409 -1.28288 -5.55786 0
M  V30 5347 O 522.343 -3.1709 -5.11603 0
M  V30 5348 H 526.169 -2.36159 -1.90952 0
M  V30 5349 H 523.754 -1.20194 -0.887346 0
M  V30 5350 H 525.636 -1.16395 -4.05006 0
M  V30 5351 H 524.311 -0.300121 -3.22306 0
M  V30 5352 H 523.218 -2.56325 -2.72485 0
M  V30 5353 H 524.551 -3.35808 -3.59852 0
M  V30 5354 N 526.204 0.969867 -1.24223 0
M  V30 5355 C 527.134 2.08191 -1.05729 0
M  V30 5356 C 528.115 1.70075 0.0290765 0
M  V30 5357 O 529.3 1.93712 -0.137583 0
M  V30 5358 C 526.43 3.40991 -0.658995 0
M  V30 5359 C 525.384 3.93054 -1.69389 0
M  V30 5360 C 524.71 5.22171 -1.15072 0
M  V30 5361 C 526.01 4.21137 -3.08935 0
M  V30 5362 H 527.704 2.23921 -1.98746 0
M  V30 5363 H 525.25 1.07602 -0.956967 0
M  V30 5364 H 527.203 4.18221 -0.51662 0
M  V30 5365 H 525.927 3.25155 0.30686 0
M  V30 5366 H 524.586 3.17977 -1.82444 0
M  V30 5367 H 524.234 5.02694 -0.175539 0
M  V30 5368 H 523.934 5.57973 -1.84229 0
M  V30 5369 H 525.458 6.02013 -1.02042 0
M  V30 5370 H 526.872 4.8908 -2.99121 0
M  V30 5371 H 525.269 4.68163 -3.75425 0
M  V30 5372 H 526.339 3.27996 -3.57137 0
M  V30 5373 N 527.682 1.05563 1.17022 0
M  V30 5374 C 528.629 0.659893 2.21165 0
M  V30 5375 C 529.599 -0.339813 1.62587 0
M  V30 5376 O 530.784 -0.230378 1.89404 0
M  V30 5377 C 527.924 0.0447297 3.45071 0
M  V30 5378 C 527.037 1.09372 4.17926 0
M  V30 5379 C 526.172 0.445481 5.29329 0
M  V30 5380 C 525.211 1.47852 5.93975 0
M  V30 5381 N 524.348 0.854172 6.96885 0
M  V30 5382 H 529.188 1.55243 2.54369 0
M  V30 5383 H 526.725 0.776336 1.24946 0
M  V30 5384 H 528.683 -0.329404 4.15898 0
M  V30 5385 H 527.313 -0.811244 3.1244 0
M  V30 5386 H 526.365 1.58564 3.45777 0
M  V30 5387 H 527.677 1.87773 4.62107 0
M  V30 5388 H 526.831 0.0179688 6.06697 0
M  V30 5389 H 525.57 -0.370481 4.86291 0
M  V30 5390 H 524.575 1.91601 5.15334 0
M  V30 5391 H 525.8 2.29645 6.39093 0
M  V30 5392 H 523.746 0.0587882 6.55974 0
M  V30 5393 H 523.663 1.57567 7.39397 0
M  V30 5394 H 524.931 0.451559 7.78191 0
M  V30 5395 N 529.16 -1.33526 0.837174 0
M  V30 5396 C 530.123 -2.27551 0.274421 0
M  V30 5397 C 531.123 -1.50886 -0.555881 0
M  V30 5398 O 532.313 -1.70227 -0.369918 0
M  V30 5399 C 529.445 -3.35332 -0.613605 0
M  V30 5400 H 530.638 -2.78837 1.10408 0
M  V30 5401 H 528.191 -1.439 0.610126 0
M  V30 5402 H 528.926 -2.89285 -1.46577 0
M  V30 5403 H 528.711 -3.92095 -0.0195341 0
M  V30 5404 H 530.201 -4.05433 -1.00068 0
M  V30 5405 N 530.638 -0.59345 -1.46 0
M  V30 5406 C 531.885 -0.0831523 -2.02329 0
M  V30 5407 C 532.213 1.28093 -1.46364 0
M  V30 5408 O 531.468 1.85526 -0.622793 0
M  V30 5409 C 531.767 0.021178 -3.57394 0
M  V30 5410 C 531.433 -1.27671 -4.32448 0
M  V30 5411 C 530.095 -1.63227 -4.5267 0
M  V30 5412 C 532.447 -2.13511 -4.7546 0
M  V30 5413 C 529.775 -2.84401 -5.1316 0
M  V30 5414 C 532.127 -3.33922 -5.37289 0
M  V30 5415 C 530.791 -3.69747 -5.55737 0
M  V30 5416 H 530.061 -0.0304276 -0.740375 0
M  V30 5417 H 532.708 -0.772239 -1.75239 0
M  V30 5418 H 531.013 0.793454 -3.83682 0
M  V30 5419 H 532.71 0.431942 -3.98667 0
M  V30 5420 H 529.3 -0.989937 -4.17011 0
M  V30 5421 H 533.484 -1.87344 -4.59582 0
M  V30 5422 H 528.74 -3.12282 -5.25633 0
M  V30 5423 H 532.914 -4.00698 -5.69574 0
M  V30 5424 H 530.541 -4.6373 -6.02377 0
M  V30 5425 N 532.116 1.54067 -0.331816 0
M  V30 5426 C 533.048 2.22139 0.564538 0
M  V30 5427 C 534.061 1.22408 1.07332 0
M  V30 5428 O 535.25 1.4883 0.985481 0
M  V30 5429 C 532.35 2.87876 1.78831 0
M  V30 5430 C 531.523 4.13817 1.41682 0
M  V30 5431 C 530.582 4.63072 2.49901 0
M  V30 5432 O 529.608 5.27562 2.13699 0
M  V30 5433 N 530.81 4.38001 3.80967 0
M  V30 5434 H 533.575 2.99694 -0.0183736 0
M  V30 5435 H 531.136 1.61153 -0.155396 0
M  V30 5436 H 533.128 3.17747 2.50637 0
M  V30 5437 H 531.698 2.13977 2.27887 0
M  V30 5438 H 530.918 3.9062 0.530044 0
M  V30 5439 H 532.206 4.95762 1.14443 0
M  V30 5440 H 531.604 3.864 4.13173 0
M  V30 5441 H 530.161 4.72507 4.48977 0
M  V30 5442 N 533.594 0.0601682 1.57485 0
M  V30 5443 C 534.557 -0.896373 2.10945 0
M  V30 5444 C 535.557 -1.23402 1.03095 0
M  V30 5445 O 536.747 -1.16921 1.29132 0
M  V30 5446 C 533.879 -2.20346 2.60116 0
M  V30 5447 H 535.072 -0.432778 2.96761 0
M  V30 5448 H 532.625 -0.188372 1.55161 0
M  V30 5449 H 533.36 -2.71268 1.7772 0
M  V30 5450 H 533.145 -1.9714 3.38937 0
M  V30 5451 H 534.635 -2.88846 3.01592 0
M  V30 5452 N 535.072 -1.5615 -0.213296 0
M  V30 5453 C 536.3 -1.83638 -0.953139 0
M  V30 5454 C 536.715 -0.640362 -1.77609 0
M  V30 5455 O 536.072 0.391071 -1.78261 0
M  V30 5456 C 536.123 -3.09735 -1.86405 0
M  V30 5457 O 535.844 -4.24723 -1.07435 0
M  V30 5458 C 537.345 -3.5027 -2.71709 0
M  V30 5459 H 534.565 -0.610263 -0.278962 0
M  V30 5460 H 537.109 -2.03247 -0.226035 0
M  V30 5461 H 535.264 -2.92077 -2.545 0
M  V30 5462 H 535.678 -4.9641 -1.69343 0
M  V30 5463 H 537.152 -4.41515 -3.31313 0
M  V30 5464 H 537.629 -2.72406 -3.44516 0
M  V30 5465 H 538.235 -3.70396 -2.09015 0
M  V30 5466 N 536.55 0.480323 -1.50102 0
M  V30 5467 C 537.482 1.59669 -1.64433 0
M  V30 5468 C 538.495 1.54063 -0.52615 0
M  V30 5469 O 539.684 1.59619 -0.798992 0
M  V30 5470 C 536.784 2.98527 -1.6042 0
M  V30 5471 C 535.957 3.291 -2.88117 0
M  V30 5472 C 535.016 4.47468 -2.76873 0
M  V30 5473 O 534.042 4.4823 -3.50825 0
M  V30 5474 N 535.244 5.48593 -1.89806 0
M  V30 5475 H 538.009 1.47795 -2.60723 0
M  V30 5476 H 535.57 0.66858 -1.4745 0
M  V30 5477 H 537.562 3.75666 -1.50523 0
M  V30 5478 H 536.132 3.04218 -0.719036 0
M  V30 5479 H 535.352 2.40662 -3.12211 0
M  V30 5480 H 536.64 3.46334 -3.72734 0
M  V30 5481 H 536.038 5.50791 -1.2902 0
M  V30 5482 H 534.595 6.24752 -1.85819 0
M  V30 5483 N 538.028 1.39524 0.732853 0
M  V30 5484 C 538.96 1.34318 1.85718 0
M  V30 5485 C 539.973 0.251576 1.60844 0
M  V30 5486 O 541.162 0.510685 1.71039 0
M  V30 5487 C 538.262 1.06334 3.21786 0
M  V30 5488 C 537.435 2.26813 3.73998 0
M  V30 5489 C 536.494 1.95253 4.88634 0
M  V30 5490 O 535.52 2.67957 5.02183 0
M  V30 5491 N 536.722 0.919984 5.73164 0
M  V30 5492 H 539.487 2.3121 1.90688 0
M  V30 5493 H 537.048 1.33654 0.91368 0
M  V30 5494 H 539.04 0.832363 3.96048 0
M  V30 5495 H 537.61 0.181682 3.12072 0
M  V30 5496 H 536.83 2.65849 2.91064 0
M  V30 5497 H 538.118 3.0717 4.05616 0
M  V30 5498 H 537.516 0.317487 5.64808 0
M  V30 5499 H 536.073 0.748905 6.47483 0
M  V30 5500 N 539.506 -0.963266 1.24736 0
M  V30 5501 C 540.453 -2.05857 1.04363 0
M  V30 5502 C 541.423 -1.6604 -0.0444951 0
M  V30 5503 O 542.608 -1.90477 0.110999 0
M  V30 5504 C 539.748 -3.38745 0.659235 0
M  V30 5505 C 538.861 -3.9173 1.82131 0
M  V30 5506 C 537.996 -5.12906 1.38208 0
M  V30 5507 C 537.035 -5.58098 2.51382 0
M  V30 5508 N 536.172 -6.7049 2.08295 0
M  V30 5509 H 541.012 -2.22616 1.98107 0
M  V30 5510 H 538.549 -1.09103 0.986661 0
M  V30 5511 H 540.507 -4.15107 0.417371 0
M  V30 5512 H 539.137 -3.21898 -0.241201 0
M  V30 5513 H 538.189 -3.11966 2.17672 0
M  V30 5514 H 539.501 -4.21225 2.67153 0
M  V30 5515 H 538.655 -5.96657 1.09935 0
M  V30 5516 H 537.394 -4.85105 0.502456 0
M  V30 5517 H 536.399 -4.72917 2.80409 0
M  V30 5518 H 537.624 -5.87911 3.39909 0
M  V30 5519 H 535.57 -6.44416 1.22737 0
M  V30 5520 H 535.487 -6.99458 2.86869 0
M  V30 5521 H 536.755 -7.57672 1.83175 0
M  V30 5522 O 541.023 -1.1863 -1.09586 0
M  V30 5523 H 541.714 -0.930355 -1.69894 0
M  V30 END ATOM
M  V30 BEGIN BOND
M  V30 END BOND
M  V30 END CTAB
M  END
$$$$
