drugbank_target|P09669 Cytochrome c oxidase subunit 6C (DB02659; DB04464)
 OpenBabel12092120443D

  0  0  0     0  0            999 V3000
M  V30 BEGIN CTAB
M  V30 COUNTS 1263 1275 0 0 0
M  V30 BEGIN ATOM
M  V30 1 H -0.908 1.98254 -0.117106 0
M  V30 2 N 0 1.576 0 0
M  V30 3 C 0.933 2.03868 1.02534 0
M  V30 4 C 1.911 0.928543 1.3348 0
M  V30 5 O 3.095 1.19667 1.45644 0
M  V30 6 C 0.222 2.43627 2.35294 0
M  V30 7 C -0.732 3.65373 2.2001 0
M  V30 8 S 0.101 5.13292 1.52614 0
M  V30 9 C 1.257 5.56322 2.86805 0
M  V30 10 H 1.49 2.90518 0.631377 0
M  V30 11 H -0.977 1.52953 0.210867 0
M  V30 12 H 0.981 2.67203 3.11629 0
M  V30 13 H -0.358 1.57376 2.7183 0
M  V30 14 H -1.165 3.90944 3.18086 0
M  V30 15 H -1.563 3.418 1.51819 0
M  V30 16 H 0.729 5.58782 3.83104 0
M  V30 17 H 1.672 6.56266 2.65933 0
M  V30 18 H 2.08 4.83886 2.90714 0
M  V30 19 N 1.4781 -0.272755 1.55222 0
M  V30 20 C 2.4411 -1.32041 1.87344 0
M  V30 21 C 3.4411 -1.42342 0.74803 0
M  V30 22 O 4.6311 -1.41488 1.0162 0
M  V30 23 C 1.7631 -2.70173 2.07893 0
M  V30 24 H 2.9561 -1.04789 2.80997 0
M  V30 25 H 0.5091 -0.51083 1.47717 0
M  V30 26 H 1.2441 -3.02605 1.16622 0
M  V30 27 H 1.0291 -2.64082 2.89833 0
M  V30 28 H 2.5191 -3.45869 2.34017 0
M  V30 29 N 2.9562 -1.48159 -0.537278 0
M  V30 30 C 4.3672 -1.49429 -1.11928 0
M  V30 31 C 4.7182 -0.26 -1.9447 0
M  V30 32 O 3.8432 0.633489 -2.0692 0
M  V30 33 C 4.4382 -2.70758 -2.03656 0
M  V30 34 C 2.9972 -2.74923 -2.57088 0
M  V30 35 C 2.1442 -2.42835 -1.3389 0
M  V30 36 H 5.0952 -1.55381 -0.322886 0
M  V30 37 H 5.1162 -2.48861 -2.87834 0
M  V30 38 H 4.6282 -3.60575 -1.43553 0
M  V30 39 H 2.7292 -1.89296 -3.20933 0
M  V30 40 H 2.8422 -3.76157 -2.9672 0
M  V30 41 H 1.2062 -1.93836 -1.65226 0
M  V30 42 H 1.9892 -3.34884 -0.755504 0
M  V30 43 N 4.4343 0.785586 -1.36625 0
M  V30 44 C 5.3443 1.92964 -1.33425 0
M  V30 45 C 6.3603 1.72394 -0.235851 0
M  V30 46 O 7.5363 1.95866 -0.468878 0
M  V30 47 C 4.6013 3.27884 -1.12662 0
M  V30 48 C 3.6623 3.61204 -2.32013 0
M  V30 49 C 2.8953 4.89687 -2.12231 0
M  V30 50 O 3.1183 5.59704 -1.09945 0
M  V30 51 O 2.0523 5.21752 -3.00098 0
M  V30 52 H 5.8783 1.98613 -2.29753 0
M  V30 53 H 3.4633 0.926384 -1.17211 0
M  V30 54 H 5.3453 4.08614 -1.03016 0
M  V30 55 H 4.0203 3.23118 -0.193991 0
M  V30 56 H 2.9273 2.80765 -2.47228 0
M  V30 57 H 4.2603 3.70698 -3.23796 0
M  V30 58 N 5.9124 1.20967 1.01018 0
M  V30 59 C 7.1584 1.02526 1.74975 0
M  V30 60 C 7.4914 -0.4408 1.89131 0
M  V30 61 O 6.7664 -1.32718 1.42184 0
M  V30 62 C 7.0494 1.71699 3.1653 0
M  V30 63 C 6.9024 3.25791 3.10129 0
M  V30 64 C 8.2214 1.45531 4.15342 0
M  V30 65 H 5.3404 0.373863 0.635134 0
M  V30 66 H 7.9824 1.49071 1.17805 0
M  V30 67 H 6.1324 1.32128 3.65341 0
M  V30 68 H 7.8044 3.74697 2.69072 0
M  V30 69 H 6.0474 3.56363 2.47362 0
M  V30 70 H 6.7184 3.69353 4.10222 0
M  V30 71 H 9.1944 1.79872 3.75213 0
M  V30 72 H 8.0704 1.96453 5.1254 0
M  V30 73 H 8.3314 0.384237 4.40427 0
M  V30 74 N 7.3905 -1.2043 1.01659 0
M  V30 75 C 8.3205 -2.25466 0.607226 0
M  V30 76 C 9.3015 -1.65853 -0.377716 0
M  V30 77 O 10.4865 -1.92409 -0.263149 0
M  V30 78 C 7.6165 -3.47256 -0.0552949 0
M  V30 79 C 6.5705 -4.19462 0.850632 0
M  V30 80 C 5.8965 -5.34673 0.0538859 0
M  V30 81 C 7.1965 -4.75603 2.15868 0
M  V30 82 H 8.8905 -2.59962 1.48526 0
M  V30 83 H 6.4365 -1.2496 0.715605 0
M  V30 84 H 8.3895 -4.19917 -0.353233 0
M  V30 85 H 7.1135 -3.11924 -0.968045 0
M  V30 86 H 5.7725 -3.48667 1.13257 0
M  V30 87 H 5.4205 -4.95585 -0.860514 0
M  V30 88 H 5.1205 -5.83913 0.657192 0
M  V30 89 H 6.6445 -6.10138 -0.237598 0
M  V30 90 H 8.0585 -5.40083 1.92311 0
M  V30 91 H 6.4555 -5.3528 2.71284 0
M  V30 92 H 7.5255 -3.94346 2.82169 0
M  V30 93 N 8.8686 -0.792821 -1.36206 0
M  V30 94 C 10.2796 -0.429513 -1.81692 0
M  V30 95 C 10.6306 1.04695 -1.65932 0
M  V30 96 O 9.7556 1.81256 -1.18218 0
M  V30 97 C 10.3506 -0.772831 -3.29868 0
M  V30 98 C 8.9096 -0.462307 -3.7355 0
M  V30 99 C 8.0566 -1.00569 -2.5842 0
M  V30 100 H 11.0076 -0.985672 -1.24379 0
M  V30 101 H 11.0286 -0.0651928 -3.80444 0
M  V30 102 H 10.5406 -1.84747 -3.41307 0
M  V30 103 H 8.6416 0.604158 -3.67669 0
M  V30 104 H 8.7546 -0.985299 -4.68859 0
M  V30 105 H 7.1186 -0.428734 -2.51066 0
M  V30 106 H 7.9016 -2.08616 -2.72643 0
M  V30 107 N 10.3467 1.47872 -0.545128 0
M  V30 108 C 11.2937 2.29849 0.2093 0
M  V30 109 C 12.2637 1.38313 0.919707 0
M  V30 110 O 13.4487 1.67277 0.917772 0
M  V30 111 C 10.5887 3.22019 1.24088 0
M  V30 112 C 9.7017 4.2864 0.537778 0
M  V30 113 C 8.8367 5.07973 1.5536 0
M  V30 114 C 7.8757 6.06381 0.8348 0
M  V30 115 N 7.0127 6.78717 1.79688 0
M  V30 116 H 11.8527 2.93845 -0.49591 0
M  V30 117 H 9.3897 1.44848 -0.256389 0
M  V30 118 H 11.3477 3.73868 1.85144 0
M  V30 119 H 9.9777 2.59914 1.91428 0
M  V30 120 H 9.0297 3.7994 -0.187046 0
M  V30 121 H 10.3417 4.98793 -0.0258907 0
M  V30 122 H 9.4957 5.63912 2.23803 0
M  V30 123 H 8.2347 4.37693 2.15118 0
M  V30 124 H 7.2397 5.49631 0.136388 0
M  V30 125 H 8.4647 6.78665 0.24313 0
M  V30 126 H 6.4107 6.11177 2.38326 0
M  V30 127 H 6.3277 7.44998 1.28505 0
M  V30 128 H 7.5957 7.39237 2.47282 0
M  V30 129 N 11.8248 0.280983 1.55075 0
M  V30 130 C 13.2358 -0.215629 1.85451 0
M  V30 131 C 13.5868 -1.54991 1.203 0
M  V30 132 O 12.7118 -2.10699 0.493435 0
M  V30 133 C 13.3068 -0.398026 3.36454 0
M  V30 134 C 11.8658 -0.838866 3.66933 0
M  V30 135 C 11.0128 0.064458 2.77225 0
M  V30 136 H 13.9638 0.502601 1.50531 0
M  V30 137 H 13.9848 -1.23569 3.59876 0
M  V30 138 H 13.4968 0.573241 3.83843 0
M  V30 139 H 11.5978 -1.8214 3.25048 0
M  V30 140 H 11.7108 -0.672123 4.74362 0
M  V30 141 H 10.0748 -0.452863 2.50642 0
M  V30 142 H 10.8578 1.03172 3.2743 0
M  V30 143 N 13.3029 -1.57598 0.00835791 0
M  V30 144 C 14.7189 -1.55764 -0.347822 0
M  V30 145 C 14.9189 -1.01186 -1.74252 0
M  V30 146 O 13.9749 -0.649371 -2.44007 0
M  V30 147 C 15.2879 -2.99927 -0.215407 0
M  V30 148 C 16.8359 -3.11656 -0.289725 0
M  V30 149 C 17.3109 -4.57621 -0.18634 0
M  V30 150 N 18.8019 -4.62557 -0.243978 0
M  V30 151 C 19.5369 -5.73094 -0.18745 0
M  V30 152 N 19.0329 -6.92753 -0.0810331 0
M  V30 153 N 20.8259 -5.61588 -0.239925 0
M  V30 154 H 12.9769 -1.91411 0.92062 0
M  V30 155 H 15.2399 -0.879562 0.353659 0
M  V30 156 H 14.9459 -3.43729 0.744512 0
M  V30 157 H 14.8199 -3.63865 -0.994097 0
M  V30 158 H 17.2069 -2.67779 -1.24009 0
M  V30 159 H 17.2879 -2.5048 0.51898 0
M  V30 160 H 16.9319 -5.02174 0.760519 0
M  V30 161 H 16.8619 -5.16752 -1.01364 0
M  V30 162 H 19.3529 -3.76481 -0.327217 0
M  V30 163 H 19.6659 -7.72787 -0.0440241 0
M  V30 164 H 18.0109 -6.94984 -0.0465419 0
M  V30 165 H 21.2019 -4.66996 -0.321317 0
M  V30 166 H 21.3749 -6.47714 -0.192407 0
M  V30 167 N 14.781 0.264519 -1.55364 0
M  V30 168 C 15.714 1.35297 -1.83766 0
M  V30 169 C 16.692 1.47171 -0.691336 0
M  V30 170 O 17.876 1.63663 -0.935238 0
M  V30 171 C 15.003 2.72847 -2.00679 0
M  V30 172 C 14.049 2.78214 -3.23263 0
M  V30 173 S 14.882 2.36601 -4.80396 0
M  V30 174 C 16.038 3.7611 -5.00292 0
M  V30 175 H 16.271 1.11003 -2.758 0
M  V30 176 H 13.804 0.464596 -1.47244 0
M  V30 177 H 15.762 3.52057 -2.11108 0
M  V30 178 H 14.423 2.94388 -1.09518 0
M  V30 179 H 13.616 3.7919 -3.3201 0
M  V30 180 H 13.218 2.07034 -3.11469 0
M  V30 181 H 15.51 4.71457 -4.86554 0
M  V30 182 H 16.453 3.7231 -6.02321 0
M  V30 183 H 16.861 3.67806 -4.28228 0
M  V30 184 N 16.2591 1.48442 0.529413 0
M  V30 185 C 17.6751 1.34575 0.858004 0
M  V30 186 C 17.8751 0.3572 1.98309 0
M  V30 187 O 16.9311 -0.221379 2.51528 0
M  V30 188 C 18.2441 2.74617 1.22499 0
M  V30 189 C 19.7921 2.83109 1.33484 0
M  V30 190 C 20.2671 4.23854 1.73526 0
M  V30 191 N 21.7581 4.2653 1.80628 0
M  V30 192 C 22.4931 5.32372 2.12997 0
M  V30 193 N 21.9891 6.48491 2.43786 0
M  V30 194 N 23.7821 5.19766 2.14008 0
M  V30 195 H 15.9331 2.1133 -0.212925 0
M  V30 196 H 18.1961 0.947439 -0.0326199 0
M  V30 197 H 17.9021 3.4852 0.471905 0
M  V30 198 H 17.7761 3.08177 2.17501 0
M  V30 199 H 20.1631 2.09462 2.0787 0
M  V30 200 H 20.2441 2.53168 0.366027 0
M  V30 201 H 19.8881 4.98018 0.997013 0
M  V30 202 H 19.8181 4.5124 2.71459 0
M  V30 203 H 22.3091 3.42772 1.59108 0
M  V30 204 H 22.6221 7.24993 2.67592 0
M  V30 205 H 20.9671 6.51765 2.41304 0
M  V30 206 H 24.1581 4.28066 1.89412 0
M  V30 207 H 24.3311 6.02354 2.38902 0
M  V30 208 N 17.7372 -0.778329 1.37039 0
M  V30 209 C 18.9852 -1.53361 1.31623 0
M  V30 210 C 19.3062 -1.94739 -0.100831 0
M  V30 211 O 18.5762 -1.65797 -1.04347 0
M  V30 212 H 17.1562 -0.568794 0.484234 0
M  V30 213 H 19.8182 -0.926742 1.71457 0
M  V30 214 H 18.9142 -2.43606 1.95096 0
M  V30 215 N 19.2153 -1.21501 -1.00376 0
M  V30 216 C 20.1453 -0.999478 -2.11028 0
M  V30 217 C 21.1263 0.0759671 -1.6993 0
M  V30 218 O 22.3113 -0.0841106 -1.94018 0
M  V30 219 C 19.4413 -0.564709 -3.42678 0
M  V30 220 C 18.3953 -1.58486 -3.97576 0
M  V30 221 C 17.7213 -1.00628 -5.25146 0
M  V30 222 C 19.0213 -2.97204 -4.29496 0
M  V30 223 H 20.7153 -1.92495 -2.29317 0
M  V30 224 H 18.2613 -0.92693 -1.102 0
M  V30 225 H 20.2143 -0.401091 -4.19487 0
M  V30 226 H 18.9383 0.396411 -3.24185 0
M  V30 227 H 17.5973 -1.73606 -3.22888 0
M  V30 228 H 17.2453 -0.0368439 -5.02987 0
M  V30 229 H 16.9453 -1.68771 -5.62841 0
M  V30 230 H 18.4693 -0.854015 -6.04598 0
M  V30 231 H 19.8833 -2.8552 -4.97143 0
M  V30 232 H 18.2803 -3.62372 -4.78338 0
M  V30 233 H 19.3503 -3.47956 -3.3772 0
M  V30 234 N 20.6934 1.19889 -1.02296 0
M  V30 235 C 21.6234 2.25141 -0.619174 0
M  V30 236 C 22.6044 1.66051 0.368915 0
M  V30 237 O 23.7894 1.92546 0.252941 0
M  V30 238 C 20.9194 3.4728 0.0368783 0
M  V30 239 C 19.8734 4.19005 -0.872865 0
M  V30 240 C 19.1994 5.34637 -0.0822402 0
M  V30 241 C 20.4994 4.74452 -2.18387 0
M  V30 242 H 22.1934 2.59171 -1.49903 0
M  V30 243 H 19.7394 1.24579 -0.722222 0
M  V30 244 H 21.6924 4.20098 0.330958 0
M  V30 245 H 20.4164 3.12433 0.95149 0
M  V30 246 H 19.0754 3.48061 -1.15105 0
M  V30 247 H 18.7234 4.96034 0.83422 0
M  V30 248 H 18.4234 5.83557 -0.688149 0
M  V30 249 H 19.9474 6.10255 0.205238 0
M  V30 250 H 21.3614 5.39055 -1.95172 0
M  V30 251 H 19.7584 5.33834 -2.74119 0
M  V30 252 H 20.8284 3.92844 -2.84257 0
M  V30 253 N 22.1715 0.800033 1.35784 0
M  V30 254 C 23.1345 0.211565 2.28221 0
M  V30 255 C 24.1345 -0.59728 1.49296 0
M  V30 256 O 25.3245 -0.416721 1.69142 0
M  V30 257 C 22.4565 -0.705846 3.33513 0
M  V30 258 H 23.6495 1.02677 2.81776 0
M  V30 259 H 21.2025 0.570211 1.45528 0
M  V30 260 H 21.9375 -1.54498 2.85133 0
M  V30 261 H 21.7225 -0.127655 3.91892 0
M  V30 262 H 23.2125 -1.11211 4.02519 0
M  V30 263 N 23.6496 -1.47581 0.552962 0
M  V30 264 C 25.0656 -1.5818 0.212424 0
M  V30 265 C 25.2656 -1.55213 -1.28496 0
M  V30 266 O 24.3216 -1.45329 -2.06484 0
M  V30 267 C 25.6346 -2.88865 0.835318 0
M  V30 268 C 27.1826 -3.0244 0.806156 0
M  V30 269 C 27.6576 -4.35819 1.40804 0
M  V30 270 N 29.1486 -4.42444 1.37103 0
M  V30 271 C 29.8836 -5.44202 1.80641 0
M  V30 272 N 29.3796 -6.52795 2.32015 0
M  V30 273 N 31.1726 -5.35222 1.71738 0
M  V30 274 H 23.3236 -1.47753 1.52587 0
M  V30 275 H 25.5866 -0.702941 0.636064 0
M  V30 276 H 25.2926 -2.9676 1.88749 0
M  V30 277 H 25.1666 -3.7579 0.325848 0
M  V30 278 H 27.5536 -2.94144 -0.237317 0
M  V30 279 H 27.6346 -2.17068 1.35334 0
M  V30 280 H 27.2786 -4.44871 2.45056 0
M  V30 281 H 27.2086 -5.19916 0.836338 0
M  V30 282 H 29.6996 -3.6456 0.995202 0
M  V30 283 H 30.0126 -7.26609 2.63171 0
M  V30 284 H 28.3576 -6.53696 2.36023 0
M  V30 285 H 31.5486 -4.49284 1.31382 0
M  V30 286 H 31.7216 -6.14389 2.05987 0
M  V30 287 N 25.1277 -0.289203 -1.54924 0
M  V30 288 C 26.5437 0.0645403 -1.59469 0
M  V30 289 C 26.7437 1.53419 -1.30632 0
M  V30 290 O 25.7997 2.2852 -1.074 0
M  V30 291 C 27.1127 -0.32278 -2.98963 0
M  V30 292 C 28.6607 -0.270564 -3.11828 0
M  V30 293 C 29.1357 -0.632532 -4.53611 0
M  V30 294 N 30.6267 -0.584617 -4.59496 0
M  V30 295 C 31.3617 -0.837314 -5.67254 0
M  V30 296 N 30.8577 -1.15536 -6.83098 0
M  V30 297 N 32.6507 -0.765166 -5.56868 0
M  V30 298 H 24.8017 -1.24714 -1.71931 0
M  V30 299 H 27.0647 -0.504809 -0.802416 0
M  V30 300 H 26.7707 -1.34541 -3.24948 0
M  V30 301 H 26.6447 0.32944 -3.75759 0
M  V30 302 H 29.0317 0.742805 -2.85598 0
M  V30 303 H 29.1127 -0.957242 -2.37214 0
M  V30 304 H 28.7567 -1.64365 -4.80569 0
M  V30 305 H 28.6867 0.07609 -5.26545 0
M  V30 306 H 31.1777 -0.349248 -3.76283 0
M  V30 307 H 31.4907 -1.33447 -7.61191 0
M  V30 308 H 29.8357 -1.19328 -6.84679 0
M  V30 309 H 33.0267 -0.516432 -4.65243 0
M  V30 310 H 33.1997 -0.965477 -6.40767 0
M  V30 311 N 26.6058 1.57591 -0.0167156 0
M  V30 312 C 27.5358 2.12496 0.967858 0
M  V30 313 C 28.5168 1.03807 1.34752 0
M  V30 314 O 29.7018 1.31577 1.42833 0
M  V30 315 C 26.8318 2.64194 2.25431 0
M  V30 316 C 25.7858 3.77559 2.01576 0
M  V30 317 C 25.1118 4.15636 3.36379 0
M  V30 318 C 26.4118 5.04151 1.36489 0
M  V30 319 H 28.1058 2.95013 0.510643 0
M  V30 320 H 25.6518 1.41915 0.244181 0
M  V30 321 H 27.6048 3.01236 2.94678 0
M  V30 322 H 26.3288 1.78821 2.73296 0
M  V30 323 H 24.9878 3.40937 1.34751 0
M  V30 324 H 24.6358 3.27263 3.81979 0
M  V30 325 H 24.3358 4.92022 3.21229 0
M  V30 326 H 25.8598 4.5525 4.06915 0
M  V30 327 H 27.2738 5.38857 1.95718 0
M  V30 328 H 25.6708 5.85453 1.31776 0
M  V30 329 H 26.7408 4.83733 0.336219 0
M  V30 330 N 28.0839 -0.256276 1.55502 0
M  V30 331 C 29.4999 -0.604325 1.47716 0
M  V30 332 C 29.6999 -1.88763 0.705039 0
M  V30 333 O 28.7559 -2.51445 0.230613 0
M  V30 334 C 30.0689 -0.715756 2.92057 0
M  V30 335 C 31.6169 -0.808706 3.02372 0
M  V30 336 C 32.0919 -0.951777 4.48001 0
M  V30 337 N 33.5829 -1.01688 4.519 0
M  V30 338 C 34.3179 -1.14668 5.61817 0
M  V30 339 N 33.8139 -1.24261 6.81565 0
M  V30 340 N 35.6069 -1.1791 5.49594 0
M  V30 341 H 27.7579 0.586291 2.04148 0
M  V30 342 H 30.0209 0.201015 0.926443 0
M  V30 343 H 29.7269 0.157027 3.51349 0
M  V30 344 H 29.6009 -1.59071 3.42018 0
M  V30 345 H 31.9879 -1.67195 2.43166 0
M  V30 346 H 32.0689 0.0912063 2.55637 0
M  V30 347 H 31.7129 -0.0931291 5.07815 0
M  V30 348 H 31.6429 -1.86659 4.92408 0
M  V30 349 H 34.1339 -0.954468 3.65648 0
M  V30 350 H 34.4469 -1.34046 7.61086 0
M  V30 351 H 32.7919 -1.21236 6.84344 0
M  V30 352 H 35.9829 -1.10057 4.54978 0
M  V30 353 H 36.1559 -1.27681 6.35296 0
M  V30 354 N 29.562 -1.4872 -0.521534 0
M  V30 355 C 30.51 -1.64328 -1.64618 0
M  V30 356 C 31.504 -0.50953 -1.61555 0
M  V30 357 O 32.71 -0.688525 -1.66311 0
M  V30 358 H 29.085 -0.517805 -0.545328 0
M  V30 359 H 31.056 -2.58767 -1.48601 0
M  V30 360 C 29.805 -1.70805 -3.02855 0
M  V30 361 H 29.128 -2.5741 -3.05909 0
M  V30 362 H 30.568 -1.85766 -3.81139 0
M  V30 363 C 29.027 -0.448479 -3.33902 0
M  V30 364 O 29.557 0.434928 -3.99339 0
M  V30 365 N 27.763 -0.317616 -2.88859 0
M  V30 366 H 27.31 -1.03748 -2.35784 0
M  V30 367 H 27.268 0.524113 -3.10001 0
M  V30 368 N 31.0401 0.771051 -1.3745 0
M  V30 369 C 31.9901 1.87456 -1.29785 0
M  V30 370 C 32.9741 1.59827 -0.185541 0
M  V30 371 O 34.1661 1.71945 -0.419997 0
M  V30 372 C 31.2951 3.24935 -1.1078 0
M  V30 373 C 30.3811 3.58514 -2.26558 0
M  V30 374 N 30.7721 3.6327 -3.5195 0
M  V30 375 C 29.0701 3.88683 -2.18727 0
M  V30 376 C 29.7711 3.93616 -4.283 0
M  V30 377 N 28.7471 4.09551 -3.57448 0
M  V30 378 H 32.5491 1.89386 -2.24745 0
M  V30 379 H 30.0631 0.967531 -1.30432 0
M  V30 380 H 32.0601 4.03881 -1.03374 0
M  V30 381 H 30.7201 3.24268 -0.16738 0
M  V30 382 H 31.7311 3.45458 -3.85848 0
M  V30 383 H 28.4081 3.95834 -1.32746 0
M  V30 384 H 29.7981 4.04066 -5.36824 0
M  V30 385 N 32.5182 1.22032 0.997298 0
M  V30 386 C 33.4512 0.929735 2.08401 0
M  V30 387 C 34.4292 -0.125681 1.62114 0
M  V30 388 O 35.6132 0.00495409 1.88499 0
M  V30 389 C 32.7402 0.397488 3.3636 0
M  V30 390 C 31.7862 1.4369 4.01566 0
M  V30 391 S 32.6192 3.00874 4.42984 0
M  V30 392 C 33.7752 2.49276 5.74119 0
M  V30 393 H 34.0082 1.84998 2.32729 0
M  V30 394 H 31.5412 1.0509 1.13117 0
M  V30 395 H 33.4992 0.0969846 4.10385 0
M  V30 396 H 32.1602 -0.501571 3.10069 0
M  V30 397 H 31.3532 1.01427 4.93689 0
M  V30 398 H 30.9552 1.68588 3.33847 0
M  V30 399 H 33.2472 1.90242 6.50242 0
M  V30 400 H 34.1902 3.39872 6.21203 0
M  V30 401 H 34.5982 1.90714 5.31308 0
M  V30 402 N 33.9963 -1.19345 1.0293 0
M  V30 403 C 34.9593 -2.20793 0.615069 0
M  V30 404 C 35.9593 -1.57553 -0.321533 0
M  V30 405 O 37.1493 -1.73862 -0.108483 0
M  V30 406 C 34.2813 -3.40754 -0.0999222 0
M  V30 407 H 35.4743 -2.58955 1.51269 0
M  V30 408 H 33.0273 -1.3303 0.820534 0
M  V30 409 H 33.7623 -3.0811 -1.01187 0
M  V30 410 H 33.5473 -3.87889 0.57309 0
M  V30 411 H 35.0373 -4.15898 -0.376645 0
M  V30 412 N 35.4744 -0.807222 -1.35358 0
M  V30 413 C 36.7204 -0.388463 -1.99045 0
M  V30 414 C 37.0534 1.04184 -1.63888 0
M  V30 415 O 36.3284 1.72292 -0.902535 0
M  V30 416 C 36.6114 -0.572783 -3.55515 0
M  V30 417 C 36.4644 -2.04807 -4.00468 0
M  V30 418 C 37.7834 0.00114064 -4.401 0
M  V30 419 H 34.9024 -0.142619 -0.723069 0
M  V30 420 H 37.5444 -1.01687 -1.60498 0
M  V30 421 H 35.6944 -0.0378425 -3.88482 0
M  V30 422 H 37.3664 -2.64544 -3.77908 0
M  V30 423 H 35.6094 -2.54427 -3.51353 0
M  V30 424 H 36.2804 -2.12792 -5.09337 0
M  V30 425 H 38.7564 -0.455716 -4.13597 0
M  V30 426 H 37.6324 -0.157737 -5.48673 0
M  V30 427 H 37.8934 1.09488 -4.28328 0
M  V30 428 N 36.9525 1.47285 -0.560781 0
M  V30 429 C 37.9155 2.28535 0.174488 0
M  V30 430 C 38.9155 1.37153 0.839388 0
M  V30 431 O 40.1055 1.59748 0.694702 0
M  V30 432 C 37.2375 3.16934 1.25561 0
M  V30 433 H 38.4305 2.95012 -0.539262 0
M  V30 434 H 35.9835 1.53034 -0.317865 0
M  V30 435 H 36.7185 2.55157 2.00164 0
M  V30 436 H 36.5035 3.8419 0.783604 0
M  V30 437 H 37.9935 3.78143 1.77193 0
M  V30 438 N 38.4306 0.297415 1.54768 0
M  V30 439 C 39.6776 -0.312913 2.00068 0
M  V30 440 C 40.0056 -1.54171 1.18582 0
M  V30 441 O 39.2606 -1.94108 0.249133 0
M  V30 442 C 39.5596 -0.717561 3.50123 0
M  V30 443 C 39.2256 0.409095 4.4904 0
M  V30 444 C 37.8876 0.718399 4.75807 0
M  V30 445 C 40.2396 1.16717 5.07963 0
M  V30 446 C 37.5676 1.78896 5.5876 0
M  V30 447 C 39.9196 2.22762 5.92081 0
M  V30 448 C 38.5836 2.54303 6.1716 0
M  V30 449 H 37.8536 -0.114503 0.7321 0
M  V30 450 H 40.5006 0.415767 1.86932 0
M  V30 451 H 38.8056 -1.52627 3.60849 0
M  V30 452 H 40.5026 -1.20091 3.82595 0
M  V30 453 H 37.0926 0.157918 4.28309 0
M  V30 454 H 41.2766 0.941466 4.87289 0
M  V30 455 H 36.5326 2.0381 5.7643 0
M  V30 456 H 40.7066 2.81962 6.36765 0
M  V30 457 H 38.3336 3.3739 6.81229 0
M  V30 458 N 39.9087 -1.5758 0.0250728 0
M  V30 459 C 41.1547 -1.91917 -0.655413 0
M  V30 460 C 41.4877 -0.901433 -1.72011 0
M  V30 461 O 40.7627 0.0764069 -1.9435 0
M  V30 462 C 41.0457 -3.36751 -1.27558 0
M  V30 463 C 40.8987 -4.49258 -0.220719 0
M  V30 464 C 42.2177 -3.81469 -2.19475 0
M  V30 465 H 39.3367 -0.697925 -0.23679 0
M  V30 466 H 41.9787 -1.89825 0.0815036 0
M  V30 467 H 40.1287 -3.38664 -1.90365 0
M  V30 468 H 41.8007 -4.59478 0.409601 0
M  V30 469 H 40.0437 -4.31415 0.454264 0
M  V30 470 H 40.7147 -5.47618 -0.694175 0
M  V30 471 H 43.1907 -3.81266 -1.66659 0
M  V30 472 H 42.0667 -4.83512 -2.59822 0
M  V30 473 H 42.3277 -3.16744 -3.08424 0
M  V30 474 N 41.3868 0.248026 -1.55636 0
M  V30 475 C 42.3168 1.31079 -1.93237 0
M  V30 476 C 43.2978 1.50264 -0.797174 0
M  V30 477 O 44.4828 1.62891 -1.05737 0
M  V30 478 C 41.6128 2.66575 -2.22609 0
M  V30 479 C 40.5668 2.62087 -3.3837 0
M  V30 480 C 39.8928 4.01369 -3.53281 0
M  V30 481 C 41.1928 2.19171 -4.7409 0
M  V30 482 H 42.8868 0.998556 -2.82257 0
M  V30 483 H 40.4328 0.47891 -1.35803 0
M  V30 484 H 42.3858 3.41057 -2.47503 0
M  V30 485 H 41.1098 2.99432 -1.30414 0
M  V30 486 H 39.7688 1.90063 -3.13483 0
M  V30 487 H 39.4168 4.31489 -2.58508 0
M  V30 488 H 39.1168 3.99254 -4.31127 0
M  V30 489 H 40.6408 4.77552 -3.80495 0
M  V30 490 H 42.0548 2.83384 -4.98363 0
M  V30 491 H 40.4518 2.2817 -5.5503 0
M  V30 492 H 41.5218 1.14336 -4.71227 0
M  V30 493 N 42.8649 1.48995 0.513639 0
M  V30 494 C 44.0899 1.61792 1.29762 0
M  V30 495 C 44.5149 0.284475 1.85936 0
M  V30 496 O 43.8729 -0.746185 1.65232 0
M  V30 497 C 43.9209 2.67993 2.41272 0
M  V30 498 O 43.0249 2.26287 3.44772 0
M  V30 499 H 42.3659 0.541963 0.38363 0
M  V30 500 H 44.8959 1.95097 0.616307 0
M  V30 501 H 44.9059 2.89772 2.87221 0
M  V30 502 H 43.5809 3.64791 1.9975 0
M  V30 503 H 42.1579 2.14788 3.04829 0
M  V30 504 N 44.343 -0.763751 1.37857 0
M  V30 505 C 45.273 -1.89103 1.36975 0
M  V30 506 C 46.254 -1.68439 0.237152 0
M  V30 507 O 47.439 -1.8918 0.438713 0
M  V30 508 C 44.569 -3.26496 1.18395 0
M  V30 509 C 43.523 -3.61741 2.28751 0
M  V30 510 C 42.849 -4.97762 1.95286 0
M  V30 511 C 44.149 -3.67665 3.70972 0
M  V30 512 H 45.843 -1.90099 2.31307 0
M  V30 513 H 43.389 -0.91319 1.11341 0
M  V30 514 H 45.342 -4.05003 1.16406 0
M  V30 515 H 44.066 -3.25955 0.205215 0
M  V30 516 H 42.725 -2.85547 2.29909 0
M  V30 517 H 42.373 -4.93769 0.959221 0
M  V30 518 H 42.073 -5.22313 2.69189 0
M  V30 519 H 43.597 -5.7866 1.94898 0
M  V30 520 H 45.011 -4.36307 3.719 0
M  V30 521 H 43.408 -4.03718 4.43995 0
M  V30 522 H 44.478 -2.68134 4.0402 0
M  V30 523 N 45.8211 -1.22559 -0.990812 0
M  V30 524 C 47.0691 -1.04933 -1.72724 0
M  V30 525 C 47.3901 0.416158 -1.90508 0
M  V30 526 O 46.6601 1.29918 -1.46622 0
M  V30 527 H 45.2401 -0.385296 -0.639965 0
M  V30 528 H 47.9021 -1.54105 -1.19322 0
M  V30 529 H 46.9981 -1.52886 -2.72089 0
M  V30 530 N 47.2992 1.18797 -1.03562 0
M  V30 531 C 48.5452 1.8893 -0.737113 0
M  V30 532 C 48.8782 1.79837 0.732956 0
M  V30 533 O 48.1532 1.19525 1.5344 0
M  V30 534 C 48.4362 3.39607 -1.19745 0
M  V30 535 C 48.2892 3.57537 -2.72924 0
M  V30 536 C 49.6082 4.33069 -0.783526 0
M  V30 537 H 46.7272 0.686057 -0.269249 0
M  V30 538 H 49.3692 1.39797 -1.28673 0
M  V30 539 H 47.5192 3.81583 -0.729855 0
M  V30 540 H 49.1912 3.24688 -3.27682 0
M  V30 541 H 47.4342 3.00363 -3.12993 0
M  V30 542 H 48.1052 4.63238 -3.00191 0
M  V30 543 H 50.5812 3.98846 -1.18581 0
M  V30 544 H 49.4572 5.3707 -1.13343 0
M  V30 545 H 49.7182 4.40986 0.313681 0
M  V30 546 N 48.7773 0.814389 1.34928 0
M  V30 547 C 49.7403 0.235759 2.27984 0
M  V30 548 C 50.7403 -0.581412 1.49921 0
M  V30 549 O 51.9303 -0.398758 1.69575 0
M  V30 550 C 49.0623 -0.670433 3.34242 0
M  V30 551 H 50.2553 1.05659 2.80671 0
M  V30 552 H 47.8083 0.585614 1.44915 0
M  V30 553 H 48.5433 -1.51466 2.86755 0
M  V30 554 H 48.3283 -0.0860822 3.92005 0
M  V30 555 H 49.8183 -1.06935 4.03676 0
M  V30 556 N 50.2554 -1.46986 0.568584 0
M  V30 557 C 51.2184 -2.28624 -0.162366 0
M  V30 558 C 52.2184 -1.37596 -0.832103 0
M  V30 559 O 53.4084 -1.60115 -0.68622 0
M  V30 560 C 50.5404 -3.17596 -1.23878 0
M  V30 561 H 51.7334 -2.94722 0.554899 0
M  V30 562 H 49.2864 -1.52863 0.325976 0
M  V30 563 H 50.0214 -2.56214 -1.98808 0
M  V30 564 H 49.8064 -3.846 -0.763219 0
M  V30 565 H 51.2964 -3.79078 -1.75185 0
M  V30 566 N 51.7335 -0.305618 -1.54608 0
M  V30 567 C 52.6635 0.561482 -2.26649 0
M  V30 568 C 53.6445 1.13415 -1.26772 0
M  V30 569 O 54.8295 1.16262 -1.55553 0
M  V30 570 C 51.9595 1.73122 -3.01075 0
M  V30 571 C 50.9135 1.2887 -4.08138 0
M  V30 572 C 50.2395 2.54396 -4.70305 0
M  V30 573 C 51.5395 0.416578 -5.20636 0
M  V30 574 H 53.2335 -0.0393902 -2.99374 0
M  V30 575 H 50.7795 -0.020385 -1.43986 0
M  V30 576 H 52.7325 2.34396 -3.50195 0
M  V30 577 H 51.4565 2.3584 -2.25936 0
M  V30 578 H 50.1155 0.698991 -3.59875 0
M  V30 579 H 49.7635 3.15439 -3.918 0
M  V30 580 H 49.4635 2.25486 -5.42614 0
M  V30 581 H 50.9875 3.16464 -5.2219 0
M  V30 582 H 52.4015 0.935116 -5.65622 0
M  V30 583 H 50.7985 0.221046 -5.99693 0
M  V30 584 H 51.8685 -0.557162 -4.81688 0
M  V30 585 N 53.2116 1.57565 -0.0334293 0
M  V30 586 C 54.4416 1.95996 0.653398 0
M  V30 587 C 54.8496 0.908749 1.65947 0
M  V30 588 O 54.1926 -0.117471 1.83324 0
M  V30 589 C 54.2546 3.30589 1.41249 0
M  V30 590 C 53.9186 4.53503 0.564263 0
M  V30 591 C 54.9156 5.19647 -0.16225 0
M  V30 592 C 52.6006 4.99801 0.500398 0
M  V30 593 C 54.5946 6.30412 -0.941255 0
M  V30 594 C 52.2816 6.10448 -0.282308 0
M  V30 595 C 53.2796 6.75612 -1.00184 0
M  V30 596 O 52.9676 7.84134 -1.77171 0
M  V30 597 H 52.6996 0.65027 0.184728 0
M  V30 598 H 55.2536 2.05199 -0.0907841 0
M  V30 599 H 53.4836 3.17888 2.20191 0
M  V30 600 H 55.1726 3.53892 1.98784 0
M  V30 601 H 55.9386 4.84846 -0.12227 0
M  V30 602 H 51.8176 4.48883 1.05002 0
M  V30 603 H 55.3616 6.81208 -1.50339 0
M  V30 604 H 51.2586 6.44686 -0.323989 0
M  V30 605 H 52.0266 8.00822 -1.69194 0
M  V30 606 N 54.6897 -0.239769 1.55765 0
M  V30 607 C 55.6367 -1.29696 1.90913 0
M  V30 608 C 56.6067 -1.47478 0.764164 0
M  V30 609 O 57.7917 -1.61345 1.01845 0
M  V30 610 C 54.9317 -2.64598 2.21544 0
M  V30 611 C 54.0447 -2.54765 3.48882 0
M  V30 612 C 53.1797 -3.82069 3.69049 0
M  V30 613 C 52.2187 -3.66883 4.89963 0
M  V30 614 N 51.3557 -4.86094 5.06614 0
M  V30 615 H 56.1957 -0.990224 2.81067 0
M  V30 616 H 53.7327 -0.477684 1.39128 0
M  V30 617 H 55.6907 -3.43132 2.3731 0
M  V30 618 H 54.3207 -2.93405 1.34585 0
M  V30 619 H 53.3727 -1.67763 3.41409 0
M  V30 620 H 54.6847 -2.39457 4.37563 0
M  V30 621 H 53.8387 -4.69046 3.84812 0
M  V30 622 H 52.5777 -4.00282 2.78614 0
M  V30 623 H 51.5827 -2.78289 4.74168 0
M  V30 624 H 52.8077 -3.50157 5.81865 0
M  V30 625 H 50.7537 -5.04655 4.19117 0
M  V30 626 H 50.6707 -4.73443 5.89396 0
M  V30 627 H 51.9387 -5.74549 5.26795 0
M  V30 628 N 56.1678 -1.49265 -0.50573 0
M  V30 629 C 57.4148 -1.58513 -1.26015 0
M  V30 630 C 57.7428 -0.26972 -1.92621 0
M  V30 631 O 56.9978 0.741997 -1.81088 0
M  V30 632 C 57.2968 -2.69008 -2.35308 0
M  V30 633 C 56.9628 -4.10662 -1.86192 0
M  V30 634 C 55.6248 -4.49212 -1.72516 0
M  V30 635 C 57.9768 -4.99336 -1.49375 0
M  V30 636 C 55.3048 -5.74214 -1.20394 0
M  V30 637 C 57.6568 -6.24852 -0.987072 0
M  V30 638 C 56.3208 -6.62236 -0.836669 0
M  V30 639 H 55.5908 -0.580041 -0.461122 0
M  V30 640 H 58.2378 -1.83078 -0.561665 0
M  V30 641 H 56.5428 -2.38396 -3.10926 0
M  V30 642 H 58.2398 -2.73373 -2.93374 0
M  V30 643 H 54.8298 -3.8023 -1.97795 0
M  V30 644 H 59.0138 -4.70212 -1.5879 0
M  V30 645 H 54.2698 -6.01883 -1.07458 0
M  V30 646 H 58.4438 -6.92944 -0.692983 0
M  V30 647 H 56.0708 -7.58979 -0.430607 0
M  V30 648 N 57.6459 0.756429 -1.3826 0
M  V30 649 C 59.0619 1.0591 -1.19395 0
M  V30 650 C 59.2619 2.01459 -0.0406567 0
M  V30 651 O 58.3179 2.44909 0.614467 0
M  V30 652 C 59.6309 1.64191 -2.51916 0
M  V30 653 C 61.1789 1.76376 -2.58574 0
M  V30 654 C 61.6539 2.38069 -3.91264 0
M  V30 655 N 63.1449 2.45503 -3.92788 0
M  V30 656 C 63.8799 2.94126 -4.92217 0
M  V30 657 N 63.3759 3.42805 -6.02043 0
M  V30 658 N 65.1689 2.9314 -4.7961 0
M  V30 659 H 57.3199 0.122313 -2.12048 0
M  V30 660 H 59.5829 0.116892 -0.940766 0
M  V30 661 H 59.2889 1.01451 -3.3675 0
M  V30 662 H 59.1629 2.6329 -2.70108 0
M  V30 663 H 61.5499 2.38244 -1.74137 0
M  V30 664 H 61.6309 0.759894 -2.44252 0
M  V30 665 H 61.2749 1.76835 -4.76121 0
M  V30 666 H 61.2049 3.39091 -4.02895 0
M  V30 667 H 63.6959 2.1107 -3.13461 0
M  V30 668 H 64.0089 3.78354 -6.73846 0
M  V30 669 H 62.3539 3.4087 -6.05667 0
M  V30 670 H 65.5449 2.54419 -3.92923 0
M  V30 671 H 65.7179 3.30721 -5.5725 0
M  V30 672 N 59.124 1.23083 0.984299 0
M  V30 673 C 60.37 1.06214 1.72761 0
M  V30 674 C 60.703 -0.400584 1.90024 0
M  V30 675 O 59.978 -1.29672 1.44967 0
M  V30 676 C 60.261 1.78375 3.12817 0
M  V30 677 C 60.114 3.32296 3.03149 0
M  V30 678 C 61.433 1.54309 4.12161 0
M  V30 679 H 58.552 0.387251 0.627061 0
M  V30 680 H 61.194 1.51536 1.14616 0
M  V30 681 H 59.344 1.39848 3.62457 0
M  V30 682 H 61.016 3.8032 2.61064 0
M  V30 683 H 59.259 3.6153 2.39747 0
M  V30 684 H 59.93 3.77972 4.02295 0
M  V30 685 H 62.406 1.87791 3.71314 0
M  V30 686 H 61.282 2.07281 5.08258 0
M  V30 687 H 61.543 0.477572 4.39513 0
M  V30 688 N 60.6021 -1.18246 1.0419 0
M  V30 689 C 61.5651 -2.20128 0.638452 0
M  V30 690 C 62.5651 -1.57885 -0.304805 0
M  V30 691 O 63.7551 -1.73967 -0.0900369 0
M  V30 692 C 60.8871 -3.4084 -0.0637751 0
M  V30 693 H 62.0801 -2.57336 1.54007 0
M  V30 694 H 59.6331 -1.32152 0.834598 0
M  V30 695 H 60.3681 -3.09166 -0.979136 0
M  V30 696 H 60.1531 -3.8726 0.614198 0
M  V30 697 H 61.6431 -4.16274 -0.332512 0
M  V30 698 N 62.0802 -0.821533 -1.34494 0
M  V30 699 C 63.3572 -0.33159 -1.92769 0
M  V30 700 C 63.7372 1.18088 -1.74981 0
M  V30 701 O 63.0852 1.98733 -1.12772 0
M  V30 702 C 63.2952 -0.759398 -3.40638 0
M  V30 703 C 64.6432 -0.757433 -4.1779 0
M  V30 704 O 65.6672 -0.70189 -3.49216 0
M  V30 705 O 64.5262 -0.829361 -5.4017 0
M  V30 706 H 61.6202 -0.0902502 -0.822061 0
M  V30 707 H 64.1662 -0.906231 -1.43477 0
M  V30 708 H 62.9382 -1.8012 -3.47379 0
M  V30 709 H 62.5612 -0.160378 -3.97276 0
M  V30 710 N 63.5583 1.46682 -0.576371 0
M  V30 711 C 64.4903 2.28341 0.198231 0
M  V30 712 C 65.5033 1.38141 0.861453 0
M  V30 713 O 66.6923 1.62797 0.732082 0
M  V30 714 C 63.7923 3.12986 1.29972 0
M  V30 715 C 62.9653 4.31271 0.729639 0
M  V30 716 C 62.0243 4.97363 1.71803 0
M  V30 717 O 61.0503 5.55156 1.25658 0
M  V30 718 N 62.2523 4.93796 3.05198 0
M  V30 719 H 65.0173 2.9546 -0.502324 0
M  V30 720 H 62.5783 1.56525 -0.413715 0
M  V30 721 H 64.5703 3.54066 1.96008 0
M  V30 722 H 63.1403 2.47984 1.90323 0
M  V30 723 H 62.3603 3.94052 -0.108012 0
M  V30 724 H 63.6483 5.07739 0.328438 0
M  V30 725 H 63.0463 4.48077 3.45317 0
M  V30 726 H 61.6033 5.38837 3.6674 0
M  V30 727 N 65.0364 0.313813 1.54444 0
M  V30 728 C 66.4524 -0.0391619 1.59552 0
M  V30 729 C 66.6524 -1.51322 1.33056 0
M  V30 730 O 65.7084 -2.26782 1.11022 0
M  V30 731 C 67.0214 0.370302 2.98411 0
M  V30 732 C 68.5694 0.320139 3.11358 0
M  V30 733 C 69.0444 0.704617 4.52547 0
M  V30 734 N 70.5354 0.657645 4.58508 0
M  V30 735 C 71.2704 0.927453 5.6585 0
M  V30 736 N 70.7664 1.26389 6.81174 0
M  V30 737 N 72.5594 0.853662 5.5558 0
M  V30 738 H 64.7104 1.27433 1.69925 0
M  V30 739 H 66.9734 0.517511 0.794284 0
M  V30 740 H 66.6794 1.39694 3.22767 0
M  V30 741 H 66.5534 -0.269619 3.76235 0
M  V30 742 H 68.9404 -0.697275 2.86744 0
M  V30 743 H 69.0214 0.99486 2.35661 0
M  V30 744 H 68.6654 1.7199 4.77893 0
M  V30 745 H 68.5954 0.00768843 5.26599 0
M  V30 746 H 71.0864 0.409067 3.75679 0
M  V30 747 H 71.3994 1.4554 7.58972 0
M  V30 748 H 69.7444 1.30206 6.82694 0
M  V30 749 H 72.9354 0.590383 4.64362 0
M  V30 750 H 73.1084 1.0673 6.3915 0
M  V30 751 N 66.5145 -1.57545 0.0417849 0
M  V30 752 C 67.4615 -2.10977 -0.935805 0
M  V30 753 C 68.4315 -1.01486 -1.31491 0
M  V30 754 O 69.6165 -1.2898 -1.40602 0
M  V30 755 C 66.7565 -2.65169 -2.2086 0
M  V30 756 C 65.8695 -3.88714 -1.88482 0
M  V30 757 C 65.0045 -4.31254 -3.1015 0
M  V30 758 C 64.0435 -5.47524 -2.7365 0
M  V30 759 N 63.1805 -5.85162 -3.87982 0
M  V30 760 H 68.0205 -2.94218 -0.473249 0
M  V30 761 H 65.5575 -1.45415 -0.221981 0
M  V30 762 H 67.5155 -2.94685 -2.95325 0
M  V30 763 H 66.1455 -1.8474 -2.64709 0
M  V30 764 H 65.1975 -3.65849 -1.04205 0
M  V30 765 H 66.5095 -4.73245 -1.57608 0
M  V30 766 H 65.6635 -4.62273 -3.92923 0
M  V30 767 H 64.4025 -3.45516 -3.44195 0
M  V30 768 H 63.4075 -5.16187 -1.89291 0
M  V30 769 H 64.6325 -6.34971 -2.40807 0
M  V30 770 H 62.5785 -5.02377 -4.21846 0
M  V30 771 H 62.4955 -6.64362 -3.60775 0
M  V30 772 H 63.7635 -6.20791 -4.71422 0
M  V30 773 N 67.9926 0.231505 -1.5589 0
M  V30 774 C 68.9396 1.28682 -1.91598 0
M  V30 775 C 69.9096 1.47071 -0.771974 0
M  V30 776 O 71.0946 1.60802 -1.027 0
M  V30 777 C 68.2346 2.6342 -2.22944 0
M  V30 778 C 67.3476 2.52912 -3.50228 0
M  V30 779 C 66.4826 3.80106 -3.7107 0
M  V30 780 C 65.5216 3.64279 -4.91902 0
M  V30 781 N 64.6586 4.834 -5.09184 0
M  V30 782 H 69.4986 0.975305 -2.81588 0
M  V30 783 H 67.0356 0.470299 -1.39379 0
M  V30 784 H 68.9936 3.41869 -2.39126 0
M  V30 785 H 67.6236 2.92687 -1.36139 0
M  V30 786 H 66.6756 1.6595 -3.42294 0
M  V30 787 H 67.9876 2.37133 -4.38827 0
M  V30 788 H 67.1416 4.66999 -3.87295 0
M  V30 789 H 65.8806 3.98799 -2.80733 0
M  V30 790 H 64.8856 2.7577 -4.75637 0
M  V30 791 H 66.1106 3.47067 -5.83714 0
M  V30 792 H 64.0566 5.02425 -4.21788 0
M  V30 793 H 63.9736 4.70311 -5.91898 0
M  V30 794 H 65.2416 5.71747 -5.29835 0
M  V30 795 N 69.4707 1.49531 0.497807 0
M  V30 796 C 70.4337 1.65916 1.58128 0
M  V30 797 C 71.4337 0.530825 1.51786 0
M  V30 798 O 72.6237 0.797342 1.54881 0
M  V30 799 C 69.7557 1.65951 2.9778 0
M  V30 800 H 70.9487 2.62556 1.44929 0
M  V30 801 H 68.5017 1.38611 0.722275 0
M  V30 802 H 69.2367 0.709065 3.16453 0
M  V30 803 H 69.0217 2.47897 3.03792 0
M  V30 804 H 70.5117 1.80673 3.76493 0
M  V30 805 N 70.9488 -0.749086 1.3866 0
M  V30 806 C 72.1788 -1.53611 1.38157 0
M  V30 807 C 72.5868 -1.89177 -0.0293595 0
M  V30 808 O 71.9298 -1.53606 -1.00752 0
M  V30 809 C 71.9918 -2.86087 2.17702 0
M  V30 810 C 71.6558 -2.73034 3.66472 0
M  V30 811 C 72.6528 -2.42526 4.59866 0
M  V30 812 C 70.3378 -2.90345 4.09884 0
M  V30 813 C 72.3318 -2.29492 5.94653 0
M  V30 814 C 70.0188 -2.7693 5.4475 0
M  V30 815 C 71.0168 -2.46547 6.36949 0
M  V30 816 O 70.7048 -2.33199 7.69333 0
M  V30 817 H 70.4368 -0.481773 0.474205 0
M  V30 818 H 72.9908 -0.934465 1.82912 0
M  V30 819 H 71.2208 -3.48458 1.67672 0
M  V30 820 H 72.9098 -3.47625 2.09551 0
M  V30 821 H 73.6758 -2.28816 4.27631 0
M  V30 822 H 69.5548 -3.1299 3.38464 0
M  V30 823 H 73.0988 -2.05698 6.66584 0
M  V30 824 H 68.9958 -2.90215 5.76581 0
M  V30 825 H 69.7638 -2.48376 7.79905 0
M  V30 826 N 72.4269 -1.23603 -0.977757 0
M  V30 827 C 73.3899 -1.02069 -2.05218 0
M  V30 828 C 74.3899 0.0184305 -1.60789 0
M  V30 829 O 75.5799 -0.221569 -1.72785 0
M  V30 830 C 72.7119 -0.544926 -3.36517 0
M  V30 831 H 73.9049 -1.9742 -2.25755 0
M  V30 832 H 71.4579 -1.05684 -1.15155 0
M  V30 833 H 72.1929 0.412241 -3.21669 0
M  V30 834 H 71.9779 -1.2948 -3.70105 0
M  V30 835 H 73.4679 -0.414985 -4.15533 0
M  V30 836 N 73.905 1.17692 -1.04816 0
M  V30 837 C 75.182 1.83768 -0.669963 0
M  V30 838 C 75.562 1.93232 0.849986 0
M  V30 839 O 74.91 1.46397 1.75443 0
M  V30 840 C 75.12 3.21641 -1.35455 0
M  V30 841 C 76.468 3.97592 -1.49017 0
M  V30 842 O 77.492 3.31107 -1.31326 0
M  V30 843 O 76.351 5.16729 -1.77914 0
M  V30 844 H 73.445 0.792799 -0.235368 0
M  V30 845 H 75.991 1.25021 -1.14751 0
M  V30 846 H 74.763 3.097 -2.39168 0
M  V30 847 H 74.386 3.88052 -0.866107 0
M  V30 848 N 75.3831 0.828654 1.34056 0
M  V30 849 C 76.6301 0.419458 1.98108 0
M  V30 850 C 76.9581 -1.01886 1.65679 0
M  V30 851 O 76.2131 -1.72539 0.923512 0
M  V30 852 C 76.5121 0.575226 3.52741 0
M  V30 853 C 76.1781 1.98012 4.05095 0
M  V30 854 C 74.8401 2.36442 4.19104 0
M  V30 855 C 77.1921 2.89824 4.33188 0
M  V30 856 C 74.5201 3.66009 4.58535 0
M  V30 857 C 76.8721 4.1886 4.74066 0
M  V30 858 C 75.5361 4.5726 4.86281 0
M  V30 859 H 74.8061 0.153491 0.724929 0
M  V30 860 H 77.4531 1.05371 1.59904 0
M  V30 861 H 75.7581 -0.142385 3.91541 0
M  V30 862 H 77.4551 0.239057 4.00287 0
M  V30 863 H 74.0451 1.67162 3.94658 0
M  V30 864 H 78.2291 2.61375 4.21897 0
M  V30 865 H 73.4851 3.95579 4.66184 0
M  V30 866 H 77.6591 4.90086 4.94761 0
M  V30 867 H 75.2861 5.57707 5.16592 0
M  V30 868 N 76.8612 -1.46375 0.584142 0
M  V30 869 C 78.0912 -2.06461 0.0758195 0
M  V30 870 C 78.4992 -1.43322 -1.23512 0
M  V30 871 O 77.8422 -0.533216 -1.75791 0
M  V30 872 C 77.9042 -3.59131 -0.162773 0
M  V30 873 C 77.5682 -4.4447 1.06279 0
M  V30 874 C 78.5652 -4.80918 1.97519 0
M  V30 875 C 76.2502 -4.85584 1.28504 0
M  V30 876 C 78.2442 -5.57309 3.09331 0
M  V30 877 C 75.9312 -5.61734 2.4062 0
M  V30 878 C 76.9292 -5.9751 3.30863 0
M  V30 879 O 76.6172 -6.72121 4.41032 0
M  V30 880 H 76.3492 -0.673745 0.0551725 0
M  V30 881 H 78.9032 -1.88969 0.804984 0
M  V30 882 H 77.1332 -3.74936 -0.946565 0
M  V30 883 H 78.8222 -4.0114 -0.619782 0
M  V30 884 H 79.5882 -4.49732 1.81565 0
M  V30 885 H 75.4672 -4.57187 0.591702 0
M  V30 886 H 79.0112 -5.85152 3.79793 0
M  V30 887 H 74.9082 -5.92334 2.56537 0
M  V30 888 H 75.6762 -6.90547 4.39417 0
M  V30 889 N 78.3393 -0.321999 -1.54275 0
M  V30 890 C 79.7553 0.0306999 -1.5957 0
M  V30 891 C 79.9553 1.50614 -1.33857 0
M  V30 892 O 79.0113 2.2619 -1.12223 0
M  V30 893 C 80.3243 -0.386122 -2.98211 0
M  V30 894 C 81.8723 -0.336647 -3.11184 0
M  V30 895 C 82.3473 -0.728607 -4.52167 0
M  V30 896 N 83.8383 -0.681952 -4.58152 0
M  V30 897 C 84.5733 -0.957449 -5.6535 0
M  V30 898 N 84.0693 -1.3 -6.80494 0
M  V30 899 N 85.8623 -0.883113 -5.55119 0
M  V30 900 H 78.0133 -1.28332 -1.69247 0
M  V30 901 H 80.2763 -0.521716 -0.791528 0
M  V30 902 H 79.9823 -1.41404 -3.22022 0
M  V30 903 H 79.8563 0.249662 -3.76373 0
M  V30 904 H 82.2433 0.682058 -2.8711 0
M  V30 905 H 82.3243 -1.00734 -2.3513 0
M  V30 906 H 81.9683 -1.74522 -4.76974 0
M  V30 907 H 81.8983 -0.0356152 -5.26588 0
M  V30 908 H 84.3893 -0.428985 -3.75457 0
M  V30 909 H 84.7023 -1.49563 -7.58189 0
M  V30 910 H 83.0473 -1.33824 -6.81994 0
M  V30 911 H 86.2383 -0.615001 -4.64042 0
M  V30 912 H 86.4113 -1.10118 -6.38575 0
M  V30 913 N 79.8174 1.5752 -0.0501392 0
M  V30 914 C 80.7654 2.12651 0.942459 0
M  V30 915 C 81.7594 1.05807 1.32292 0
M  V30 916 O 82.9654 1.24217 1.3027 0
M  V30 917 H 79.3404 0.679673 0.321789 0
M  V30 918 H 81.3114 2.94951 0.452356 0
M  V30 919 C 80.0604 2.68565 2.20836 0
M  V30 920 H 79.3834 3.50439 1.92439 0
M  V30 921 H 80.8234 3.10761 2.8845 0
M  V30 922 C 79.2824 1.62291 2.95234 0
M  V30 923 O 79.8124 1.03508 3.88135 0
M  V30 924 N 78.0184 1.33836 2.57946 0
M  V30 925 H 77.5654 1.81826 1.82475 0
M  V30 926 H 77.5234 0.629595 3.08032 0
M  V30 927 N 81.2955 -0.223234 1.56011 0
M  V30 928 C 82.5255 -0.963413 1.82762 0
M  V30 929 C 82.9335 -1.78516 0.626804 0
M  V30 930 O 82.2765 -1.78974 -0.414014 0
M  V30 931 C 82.3385 -1.93126 3.0322 0
M  V30 932 C 82.0025 -1.2942 4.38291 0
M  V30 933 C 82.9995 -0.684916 5.15369 0
M  V30 934 C 80.6845 -1.30647 4.85012 0
M  V30 935 C 82.6785 -0.0963971 6.37327 0
M  V30 936 C 80.3655 -0.71411 6.06913 0
M  V30 937 C 81.3635 -0.110123 6.82911 0
M  V30 938 O 81.0515 0.47303 8.02507 0
M  V30 939 H 80.7835 -0.288011 0.611576 0
M  V30 940 H 83.3375 -0.244103 2.03944 0
M  V30 941 H 81.5675 -2.68952 2.77852 0
M  V30 942 H 83.2565 -2.53685 3.16857 0
M  V30 943 H 84.0225 -0.667774 4.80381 0
M  V30 944 H 79.9015 -1.76598 4.25833 0
M  V30 945 H 83.4455 0.375657 6.96588 0
M  V30 946 H 79.3425 -0.728659 6.41374 0
M  V30 947 H 80.1105 0.367186 8.17676 0
M  V30 948 N 82.7736 -1.49793 -0.48987 0
M  V30 949 C 84.0506 -1.50348 -1.25119 0
M  V30 950 C 84.4306 -0.237466 -2.0976 0
M  V30 951 O 83.7786 0.77981 -2.14782 0
M  V30 952 C 83.9886 -2.78872 -2.09837 0
M  V30 953 C 85.3366 -3.288 -2.68655 0
M  V30 954 O 86.3606 -2.80065 -2.20096 0
M  V30 955 O 85.2196 -4.13707 -3.57083 0
M  V30 956 H 82.3136 -0.602242 -0.566775 0
M  V30 957 H 84.8596 -1.62067 -0.503229 0
M  V30 958 H 83.6316 -3.62499 -1.47343 0
M  V30 959 H 83.2546 -2.70066 -2.91805 0
M  V30 960 N 84.2517 0.741722 -1.39055 0
M  V30 961 C 85.4977 1.50336 -1.36113 0
M  V30 962 C 85.8307 1.94148 0.0450796 0
M  V30 963 O 85.1057 1.66301 1.00868 0
M  V30 964 C 85.3887 2.74773 -2.32749 0
M  V30 965 C 85.2417 2.37023 -3.82283 0
M  V30 966 C 86.5607 3.76846 -2.27322 0
M  V30 967 H 83.6797 0.545351 -0.495743 0
M  V30 968 H 86.3217 0.848624 -1.69995 0
M  V30 969 H 84.4717 3.30639 -2.03986 0
M  V30 970 H 86.1437 1.8684 -4.21768 0
M  V30 971 H 84.3867 1.69334 -3.99385 0
M  V30 972 H 85.0577 3.26104 -4.45376 0
M  V30 973 H 87.5337 3.30548 -2.5274 0
M  V30 974 H 86.4097 4.6159 -2.97028 0
M  V30 975 H 86.6707 4.23286 -1.27599 0
M  V30 976 N 85.7298 1.2412 0.971189 0
M  V30 977 C 86.6628 0.97373 2.06382 0
M  V30 978 C 87.6408 -0.0912662 1.62344 0
M  V30 979 O 88.8248 0.0449365 1.88446 0
M  V30 980 C 85.9518 0.468746 3.35441 0
M  V30 981 C 84.9978 1.52176 3.98428 0
M  V30 982 S 85.8308 3.10203 4.36503 0
M  V30 983 C 86.9868 2.61398 5.68702 0
M  V30 984 H 87.2198 1.89893 2.28753 0
M  V30 985 H 84.7528 1.07466 1.10862 0
M  V30 986 H 86.7108 0.184012 4.10087 0
M  V30 987 H 85.3718 -0.435688 3.11064 0
M  V30 988 H 84.5648 1.11876 4.91426 0
M  V30 989 H 84.1668 1.75632 3.30196 0
M  V30 990 H 86.4588 2.03992 6.4606 0
M  V30 991 H 87.4018 3.52972 6.13854 0
M  V30 992 H 87.8098 2.01941 5.27143 0
M  V30 993 N 87.2079 -1.17134 1.05439 0
M  V30 994 C 88.1549 -2.21235 0.657539 0
M  V30 995 C 89.1249 -1.62551 -0.341543 0
M  V30 996 O 90.3099 -1.89379 -0.232393 0
M  V30 997 C 87.4499 -3.45076 0.0410575 0
M  V30 998 C 86.5629 -4.18042 1.08927 0
M  V30 999 C 85.6979 -5.29376 0.439848 0
M  V30 1000 C 84.7369 -5.94132 1.4722 0
M  V30 1001 N 83.8739 -6.96975 0.846756 0
M  V30 1002 H 88.7139 -2.54534 1.54972 0
M  V30 1003 H 86.2509 -1.25028 0.775006 0
M  V30 1004 H 88.2089 -4.15862 -0.33383 0
M  V30 1005 H 86.8389 -3.12353 -0.814568 0
M  V30 1006 H 85.8909 -3.45945 1.58196 0
M  V30 1007 H 87.2029 -4.62306 1.87282 0
M  V30 1008 H 86.3569 -6.06699 0.0115125 0
M  V30 1009 H 85.0959 -4.86251 -0.375656 0
M  V30 1010 H 84.1009 -5.15538 1.91052 0
M  V30 1011 H 85.3259 -6.39337 2.28965 0
M  V30 1012 H 83.2719 -6.5598 0.0518075 0
M  V30 1013 H 83.1889 -7.39565 1.5678 0
M  V30 1014 H 84.4569 -7.78239 0.443277 0
M  V30 1015 N 88.686 -0.835752 -1.33615 0
M  V30 1016 C 89.963 -0.352017 -1.92406 0
M  V30 1017 C 90.343 1.16225 -1.76224 0
M  V30 1018 O 89.691 1.97526 -1.14873 0
M  V30 1019 C 89.901 -0.795485 -3.39813 0
M  V30 1020 C 91.249 -0.801703 -4.16963 0
M  V30 1021 O 92.273 -0.738889 -3.48452 0
M  V30 1022 O 91.132 -0.886607 -5.3926 0
M  V30 1023 H 88.226 -0.0989641 -0.821057 0
M  V30 1024 H 90.772 -0.921397 -1.42507 0
M  V30 1025 H 89.544 -1.83795 -3.45449 0
M  V30 1026 H 89.167 -0.202505 -3.97084 0
M  V30 1027 N 90.1641 1.46063 -0.591896 0
M  V30 1028 C 91.4111 2.02338 -0.0809991 0
M  V30 1029 C 91.7391 1.46228 1.28249 0
M  V30 1030 O 90.9941 0.620818 1.85592 0
M  V30 1031 C 91.2931 3.57391 0.0249813 0
M  V30 1032 C 90.9591 4.32583 -1.27211 0
M  V30 1033 C 89.6211 4.52844 -1.62745 0
M  V30 1034 C 91.9731 4.75687 -2.13005 0
M  V30 1035 C 89.3011 5.13462 -2.83855 0
M  V30 1036 C 91.6531 5.37644 -3.3335 0
M  V30 1037 C 90.3171 5.5613 -3.69155 0
M  V30 1038 H 89.5871 0.740407 -0.0296397 0
M  V30 1039 H 92.2341 1.75321 -0.770374 0
M  V30 1040 H 90.5391 3.83597 0.797537 0
M  V30 1041 H 92.2361 3.98621 0.436184 0
M  V30 1042 H 88.8261 4.17116 -0.985499 0
M  V30 1043 H 93.0101 4.59782 -1.86855 0
M  V30 1044 H 88.2661 5.25965 -3.11722 0
M  V30 1045 H 92.4401 5.7 -4.00092 0
M  V30 1046 H 90.0671 6.0287 -4.63089 0
M  V30 1047 N 91.6422 0.330177 1.54103 0
M  V30 1048 C 92.5522 -0.541534 2.28264 0
M  V30 1049 C 93.5682 -1.12351 1.32866 0
M  V30 1050 O 94.7442 -1.14206 1.65888 0
M  V30 1051 C 91.8092 -1.68322 3.03098 0
M  V30 1052 C 90.8702 -1.13238 4.14096 0
M  V30 1053 C 90.1032 -2.21966 4.85352 0
M  V30 1054 O 90.3262 -3.42437 4.56172 0
M  V30 1055 O 89.2602 -1.87013 5.7211 0
M  V30 1056 H 93.0862 0.060938 3.03639 0
M  V30 1057 H 90.6712 0.09565 1.49093 0
M  V30 1058 H 92.5532 -2.34777 3.49939 0
M  V30 1059 H 91.2282 -2.27176 2.30593 0
M  V30 1060 H 90.1352 -0.432736 3.71589 0
M  V30 1061 H 91.4682 -0.588898 4.88664 0
M  V30 1062 N 93.1203 -1.57491 0.0584922 0
M  V30 1063 C 94.0303 -2.15448 -0.928414 0
M  V30 1064 C 95.0463 -1.11416 -1.3365 0
M  V30 1065 O 96.2223 -1.4362 -1.41193 0
M  V30 1066 C 93.2873 -2.69393 -2.18239 0
M  V30 1067 C 92.3483 -3.88249 -1.83196 0
M  V30 1068 C 91.5813 -4.39613 -3.02616 0
M  V30 1069 O 91.8043 -3.90023 -4.16219 0
M  V30 1070 O 90.7383 -5.31111 -2.83204 0
M  V30 1071 H 94.5643 -3.00112 -0.465483 0
M  V30 1072 H 92.1493 -1.48499 -0.163826 0
M  V30 1073 H 94.0313 -3.04026 -2.91798 0
M  V30 1074 H 92.7063 -1.87796 -2.63656 0
M  V30 1075 H 91.6133 -3.58492 -1.06931 0
M  V30 1076 H 92.9463 -4.71098 -1.42573 0
M  V30 1077 N 94.5984 0.214957 -1.56127 0
M  V30 1078 C 95.5314 1.29382 -1.87977 0
M  V30 1079 C 96.5094 1.44897 -0.737807 0
M  V30 1080 O 97.6934 1.60605 -0.986833 0
M  V30 1081 C 94.8204 2.66325 -2.09258 0
M  V30 1082 C 93.8664 2.67789 -3.31951 0
M  V30 1083 S 94.6994 2.21198 -4.8768 0
M  V30 1084 C 95.8554 3.60003 -5.12004 0
M  V30 1085 H 96.0884 1.02173 -2.79192 0
M  V30 1086 H 93.6214 0.417516 -1.48648 0
M  V30 1087 H 95.5794 3.45162 -2.22201 0
M  V30 1088 H 94.2404 2.90755 -1.18829 0
M  V30 1089 H 93.4334 3.68436 -3.43906 0
M  V30 1090 H 93.0354 1.9702 -3.17898 0
M  V30 1091 H 95.3274 4.55739 -5.01307 0
M  V30 1092 H 96.2704 3.52959 -6.13861 0
M  V30 1093 H 96.6784 3.53996 -4.39712 0
M  V30 1094 N 96.0765 1.50051 0.48192 0
M  V30 1095 C 97.4925 1.37237 0.814756 0
M  V30 1096 C 97.6925 0.420109 1.97072 0
M  V30 1097 O 96.7485 -0.141246 2.52105 0
M  V30 1098 C 98.0615 2.78375 1.13701 0
M  V30 1099 C 99.6095 2.87213 1.2441 0
M  V30 1100 C 100.084 4.29161 1.59954 0
M  V30 1101 N 101.575 4.32061 1.66967 0
M  V30 1102 C 102.31 5.38879 1.95952 0
M  V30 1103 N 101.806 6.55918 2.23031 0
M  V30 1104 N 103.599 5.26312 1.97363 0
M  V30 1105 H 95.7505 2.10546 -0.28005 0
M  V30 1106 H 98.0135 0.945921 -0.0627454 0
M  V30 1107 H 97.7195 3.49845 0.360787 0
M  V30 1108 H 97.5935 3.14941 2.07586 0
M  V30 1109 H 99.9805 2.15969 2.01101 0
M  V30 1110 H 100.061 2.54204 0.285299 0
M  V30 1111 H 99.7055 5.00938 0.838067 0
M  V30 1112 H 99.6355 4.59648 2.56966 0
M  V30 1113 H 102.126 3.47661 1.48123 0
M  V30 1114 H 102.439 7.33139 2.44391 0
M  V30 1115 H 100.784 6.59112 2.20447 0
M  V30 1116 H 103.975 4.33876 1.75697 0
M  V30 1117 H 104.148 6.09649 2.19618 0
M  V30 1118 N 97.5546 -0.734337 1.39446 0
M  V30 1119 C 98.5016 -1.84835 1.38219 0
M  V30 1120 C 99.4716 -1.64331 0.24179 0
M  V30 1121 O 100.657 -1.85728 0.437002 0
M  V30 1122 C 97.7966 -3.22355 1.23212 0
M  V30 1123 C 96.9096 -3.5456 2.46801 0
M  V30 1124 C 96.0446 -4.81485 2.24377 0
M  V30 1125 C 95.0836 -5.06536 3.43639 0
M  V30 1126 N 94.2206 -6.24665 3.20528 0
M  V30 1127 H 99.0606 -1.85219 2.33448 0
M  V30 1128 H 96.5976 -0.905039 1.15963 0
M  V30 1129 H 98.5556 -4.0174 1.12522 0
M  V30 1130 H 97.1856 -3.21248 0.316121 0
M  V30 1131 H 96.2376 -2.69872 2.68092 0
M  V30 1132 H 97.5496 -3.6899 3.3563 0
M  V30 1133 H 96.7036 -5.68852 2.10933 0
M  V30 1134 H 95.4426 -4.6923 1.32944 0
M  V30 1135 H 94.4476 -4.17632 3.5758 0
M  V30 1136 H 95.6726 -5.20676 4.35974 0
M  V30 1137 H 93.6186 -6.13696 2.3176 0
M  V30 1138 H 93.5356 -6.39685 4.02913 0
M  V30 1139 H 94.8036 -7.14868 3.10779 0
M  V30 1140 N 99.0327 -1.24633 -0.964593 0
M  V30 1141 C 99.9957 -1.0424 -2.04124 0
M  V30 1142 C 100.996 0.00137563 -1.608 0
M  V30 1143 O 102.186 -0.239883 -1.7254 0
M  V30 1144 C 99.3177 -0.580588 -3.3592 0
M  V30 1145 H 100.511 -1.99803 -2.23649 0
M  V30 1146 H 98.0637 -1.06899 -1.14027 0
M  V30 1147 H 98.7987 0.3781 -3.22088 0
M  V30 1148 H 98.5837 -1.33398 -3.6871 0
M  V30 1149 H 100.074 -0.459034 -4.15069 0
M  V30 1150 N 100.511 1.16574 -1.06058 0
M  V30 1151 C 101.759 1.86677 -0.77434 0
M  V30 1152 C 102.08 1.81959 0.701147 0
M  V30 1153 O 101.35 1.2515 1.50713 0
M  V30 1154 H 99.9298 0.691134 -0.283449 0
M  V30 1155 H 102.592 1.41378 -1.34158 0
M  V30 1156 H 101.688 2.92181 -1.09711 0
M  V30 1157 N 101.989 0.842826 1.3317 0
M  V30 1158 C 103.238 0.436738 1.96915 0
M  V30 1159 C 103.551 -1.01025 1.67491 0
M  V30 1160 O 104.757 -1.5212 2.24881 0
M  V30 1161 C 103.213 0.730021 3.52418 0
M  V30 1162 C 102.821 2.19195 3.90714 0
M  V30 1163 C 104.565 0.391076 4.22695 0
M  V30 1164 C 102.472 2.42907 5.39212 0
M  V30 1165 H 101.402 0.15958 0.736919 0
M  V30 1166 H 104.053 1.03196 1.51733 0
M  V30 1167 H 102.435 0.0643755 3.95948 0
M  V30 1168 H 103.609 2.8984 3.58231 0
M  V30 1169 H 101.924 2.49425 3.33431 0
M  V30 1170 H 104.521 0.545817 5.31907 0
M  V30 1171 H 104.864 -0.666294 4.10933 0
M  V30 1172 H 105.397 1.01212 3.84709 0
M  V30 1173 H 102.136 3.47224 5.55982 0
M  V30 1174 H 101.656 1.76827 5.73142 0
M  V30 1175 H 103.335 2.2626 6.06148 0
M  V30 1176 N 103.467 -1.45747 0.599634 0
M  V30 1177 C 104.714 -2.02292 0.0917284 0
M  V30 1178 C 105.042 -1.46906 -1.27472 0
M  V30 1179 O 104.297 -0.630652 -1.8526 0
M  V30 1180 C 104.596 -3.57399 -0.00602758 0
M  V30 1181 C 104.262 -4.31902 1.29503 0
M  V30 1182 C 102.924 -4.51974 1.65144 0
M  V30 1183 C 105.276 -4.74551 2.15525 0
M  V30 1184 C 102.604 -5.11949 2.86574 0
M  V30 1185 C 104.956 -5.35868 3.36196 0
M  V30 1186 C 103.62 -5.54165 3.72099 0
M  V30 1187 H 102.89 -0.740239 0.0335658 0
M  V30 1188 H 105.537 -1.7491 0.779661 0
M  V30 1189 H 103.842 -3.84014 -0.777183 0
M  V30 1190 H 105.539 -3.98846 -0.415038 0
M  V30 1191 H 102.129 -4.16588 1.00761 0
M  V30 1192 H 106.313 -4.58784 1.8929 0
M  V30 1193 H 101.569 -5.24305 3.14507 0
M  V30 1194 H 105.743 -5.6787 4.03109 0
M  V30 1195 H 103.37 -6.00406 4.6628 0
M  V30 1196 N 104.945 -0.338344 -1.53925 0
M  V30 1197 C 105.877 0.555117 -2.22376 0
M  V30 1198 C 106.89 1.06812 -1.22862 0
M  V30 1199 O 108.079 0.979163 -1.49247 0
M  V30 1200 C 105.179 1.77609 -2.88631 0
M  V30 1201 C 104.352 1.39927 -4.14414 0
M  V30 1202 C 103.411 2.47936 -4.64127 0
M  V30 1203 O 102.437 2.11461 -5.28463 0
M  V30 1204 N 103.639 3.79107 -4.39612 0
M  V30 1205 H 106.404 -0.0310778 -2.99684 0
M  V30 1206 H 103.965 -0.162226 -1.61085 0
M  V30 1207 H 105.957 2.49287 -3.18807 0
M  V30 1208 H 104.527 2.26978 -2.14941 0
M  V30 1209 H 103.747 0.513481 -3.90841 0
M  V30 1210 H 105.035 1.12341 -4.96243 0
M  V30 1211 H 104.433 4.11531 -3.88148 0
M  V30 1212 H 102.99 4.4697 -4.74406 0
M  V30 1213 N 106.423 1.57458 -0.0668435 0
M  V30 1214 C 107.648 1.9804 0.616027 0
M  V30 1215 C 108.073 0.944771 1.62652 0
M  V30 1216 O 107.431 -0.0902094 1.81075 0
M  V30 1217 C 107.479 3.37665 1.26549 0
M  V30 1218 O 106.583 3.36701 2.38131 0
M  V30 1219 H 105.924 0.644719 0.158849 0
M  V30 1220 H 108.454 2.04121 -0.139891 0
M  V30 1221 H 108.464 3.7474 1.6135 0
M  V30 1222 H 107.139 4.12573 0.525016 0
M  V30 1223 H 105.716 3.1139 2.0516 0
M  V30 1224 N 107.901 -0.206675 1.56239 0
M  V30 1225 C 109.147 -0.930218 1.80208 0
M  V30 1226 C 109.48 -1.83387 0.638981 0
M  V30 1227 O 108.755 -1.91119 -0.361066 0
M  V30 1228 C 109.038 -1.75641 3.1436 0
M  V30 1229 C 108.891 -0.878257 4.41142 0
M  V30 1230 C 110.21 -2.73129 3.45092 0
M  V30 1231 H 107.329 -0.336742 0.655571 0
M  V30 1232 H 109.971 -0.198222 1.88963 0
M  V30 1233 H 108.121 -2.38048 3.07027 0
M  V30 1234 H 109.793 -0.269787 4.6051 0
M  V30 1235 H 108.036 -0.184385 4.33408 0
M  V30 1236 H 108.707 -1.49106 5.3148 0
M  V30 1237 H 111.183 -2.20856 3.52649 0
M  V30 1238 H 110.059 -3.28028 4.40101 0
M  V30 1239 H 110.32 -3.51606 2.68003 0
M  V30 1240 N 109.379 -1.50304 -0.473955 0
M  V30 1241 C 110.326 -1.68959 -1.57231 0
M  V30 1242 C 111.296 -0.530899 -1.57387 0
M  V30 1243 O 112.481 -0.761133 -1.74961 0
M  V30 1244 C 109.621 -1.7871 -2.95223 0
M  V30 1245 C 108.734 -3.06061 -3.04878 0
M  V30 1246 C 107.869 -3.06626 -4.33767 0
M  V30 1247 C 106.908 -4.28443 -4.37154 0
M  V30 1248 N 106.045 -4.26763 -5.5751 0
M  V30 1249 H 110.885 -2.6273 -1.40631 0
M  V30 1250 H 108.422 -1.30241 -0.683789 0
M  V30 1251 H 110.38 -1.82344 -3.75242 0
M  V30 1252 H 109.01 -0.883806 -3.10465 0
M  V30 1253 H 108.062 -3.11911 -2.17751 0
M  V30 1254 H 109.374 -3.96039 -3.0324 0
M  V30 1255 H 108.528 -3.08973 -5.22131 0
M  V30 1256 H 107.267 -2.14473 -4.3801 0
M  V30 1257 H 106.272 -4.2631 -3.47188 0
M  V30 1258 H 107.497 -5.2182 -4.34605 0
M  V30 1259 H 105.443 -3.37462 -5.62544 0
M  V30 1260 H 105.36 -5.10507 -5.57601 0
M  V30 1261 H 106.628 -4.33253 -6.48006 0
M  V30 1262 O 110.896 0.619474 -1.49147 0
M  V30 1263 H 111.587 1.27382 -1.45923 0
M  V30 END ATOM
M  V30 BEGIN BOND
M  V30 END BOND
M  V30 END CTAB
M  END
$$$$
