drugbank_target|P09373 Formate acetyltransferase 1 (DB01992; DB03278; DB03940)
 OpenBabel12092119593D

  0  0  0     0  0            999 V3000
M  V30 BEGIN CTAB
M  V30 COUNTS 11919 12040 0 0 0
M  V30 BEGIN ATOM
M  V30 1 H -0.908 1.98254 -0.117106 0
M  V30 2 N 0 1.576 0 0
M  V30 3 C 0.933 2.03868 1.02534 0
M  V30 4 C 1.911 0.928543 1.3348 0
M  V30 5 O 3.095 1.19667 1.45644 0
M  V30 6 C 0.222 2.43627 2.35294 0
M  V30 7 C -0.732 3.65373 2.2001 0
M  V30 8 S 0.101 5.13292 1.52614 0
M  V30 9 C 1.257 5.56322 2.86805 0
M  V30 10 H 1.49 2.90518 0.631377 0
M  V30 11 H -0.977 1.52953 0.210867 0
M  V30 12 H 0.981 2.67203 3.11629 0
M  V30 13 H -0.358 1.57376 2.7183 0
M  V30 14 H -1.165 3.90944 3.18086 0
M  V30 15 H -1.563 3.418 1.51819 0
M  V30 16 H 0.729 5.58782 3.83104 0
M  V30 17 H 1.672 6.56266 2.65933 0
M  V30 18 H 2.08 4.83886 2.90714 0
M  V30 19 N 1.4781 -0.272755 1.55222 0
M  V30 20 C 2.7031 -1.02683 1.80197 0
M  V30 21 C 3.1281 -1.79142 0.573551 0
M  V30 22 O 2.4861 -1.74917 -0.476849 0
M  V30 23 C 2.5341 -1.9609 3.02624 0
M  V30 24 O 1.6381 -3.04863 2.77727 0
M  V30 25 H 0.9791 -0.293557 0.595584 0
M  V30 26 H 3.5091 -0.30159 2.02365 0
M  V30 27 H 3.5191 -2.38039 3.31363 0
M  V30 28 H 2.1941 -1.39851 3.91682 0
M  V30 29 H 0.7711 -2.67228 2.60084 0
M  V30 30 N 2.9562 -1.48159 -0.537278 0
M  V30 31 C 3.8662 -1.64807 -1.6696 0
M  V30 32 C 4.8822 -0.530651 -1.65711 0
M  V30 33 O 6.0582 -0.800784 -1.84796 0
M  V30 34 C 3.1232 -1.67708 -3.03438 0
M  V30 35 C 2.1842 -2.91025 -3.156 0
M  V30 36 C 1.4172 -2.93778 -4.45567 0
M  V30 37 O 1.6402 -2.05153 -5.3223 0
M  V30 38 O 0.5742 -3.85868 -4.61941 0
M  V30 39 H 4.4002 -2.6066 -1.55853 0
M  V30 40 H 1.9852 -1.31475 -0.709549 0
M  V30 41 H 3.8672 -1.7218 -3.84619 0
M  V30 42 H 2.5422 -0.750278 -3.14885 0
M  V30 43 H 1.4492 -2.92089 -2.33741 0
M  V30 44 H 2.7822 -3.83065 -3.09066 0
M  V30 45 N 4.4343 0.785586 -1.36625 0
M  V30 46 C 5.3643 1.91259 -1.33949 0
M  V30 47 C 6.3453 1.68795 -0.210325 0
M  V30 48 O 7.5303 1.89854 -0.408561 0
M  V30 49 C 4.6603 3.28339 -1.13186 0
M  V30 50 C 3.6143 3.65335 -2.22967 0
M  V30 51 C 2.9403 5.00806 -1.87342 0
M  V30 52 C 4.2403 3.7352 -3.65075 0
M  V30 53 H 5.9343 1.93755 -2.28253 0
M  V30 54 H 3.4803 0.930788 -1.09874 0
M  V30 55 H 5.4333 4.06804 -1.09948 0
M  V30 56 H 4.1573 3.2624 -0.153332 0
M  V30 57 H 2.8163 2.89169 -2.25337 0
M  V30 58 H 2.4643 4.95233 -0.880545 0
M  V30 59 H 2.1643 5.26529 -2.60846 0
M  V30 60 H 3.6883 5.81687 -1.85667 0
M  V30 61 H 5.1023 4.42168 -3.64911 0
M  V30 62 H 3.4993 4.10731 -4.37516 0
M  V30 63 H 4.5693 2.74527 -3.99703 0
M  V30 64 N 5.9124 1.20967 1.01018 0
M  V30 65 C 6.8604 0.961223 2.1181 0
M  V30 66 C 7.8544 -0.0897034 1.69162 0
M  V30 67 O 9.0604 0.0612271 1.79896 0
M  V30 68 H 5.4354 0.29355 0.692338 0
M  V30 69 H 7.4064 1.90178 2.29946 0
M  V30 70 C 6.1554 0.536854 3.4353 0
M  V30 71 H 5.4784 1.33713 3.76777 0
M  V30 72 H 6.9184 0.402286 4.22087 0
M  V30 73 C 5.3774 -0.751574 3.2841 0
M  V30 74 O 5.9074 -1.80841 3.58691 0
M  V30 75 N 4.1134 -0.716079 2.81639 0
M  V30 76 H 3.6604 0.144236 2.57196 0
M  V30 77 H 3.6184 -1.57847 2.71904 0
M  V30 78 N 7.3905 -1.2043 1.01659 0
M  V30 79 C 8.3005 -2.2689 0.596484 0
M  V30 80 C 9.3165 -1.70107 -0.36599 0
M  V30 81 O 10.4925 -2.00117 -0.226942 0
M  V30 82 C 7.5575 -3.4665 -0.0586659 0
M  V30 83 C 6.6185 -4.18662 0.949751 0
M  V30 84 C 5.8515 -5.32705 0.32577 0
M  V30 85 O 6.0745 -5.63656 -0.874509 0
M  V30 86 O 5.0085 -5.92803 1.04249 0
M  V30 87 H 8.8345 -2.65041 1.4828 0
M  V30 88 H 6.4195 -1.27048 0.786082 0
M  V30 89 H 8.3015 -4.19256 -0.424564 0
M  V30 90 H 6.9765 -3.10375 -0.91918 0
M  V30 91 H 5.8835 -3.48229 1.36702 0
M  V30 92 H 7.2165 -4.58878 1.78023 0
M  V30 93 N 8.8686 -0.792821 -1.36206 0
M  V30 94 C 9.8156 -0.191653 -2.30003 0
M  V30 95 C 10.7856 0.666453 -1.52143 0
M  V30 96 O 11.9706 0.61442 -1.80636 0
M  V30 97 C 9.1106 0.664848 -3.38635 0
M  V30 98 C 8.2236 -0.212175 -4.31479 0
M  V30 99 C 7.3586 0.651022 -5.27196 0
M  V30 100 C 6.3976 -0.227247 -6.11678 0
M  V30 101 N 5.5346 0.595127 -6.99573 0
M  V30 102 H 10.3746 -0.996978 -2.80828 0
M  V30 103 H 7.9116 -0.503206 -1.38225 0
M  V30 104 H 9.8696 1.17645 -4.00269 0
M  V30 105 H 8.4996 1.43557 -2.89122 0
M  V30 106 H 7.5516 -0.841777 -3.70969 0
M  V30 107 H 8.8636 -0.888751 -4.90818 0
M  V30 108 H 8.0176 1.2283 -5.94136 0
M  V30 109 H 6.7566 1.36121 -4.68319 0
M  V30 110 H 5.7616 -0.816904 -5.43697 0
M  V30 111 H 6.9866 -0.93509 -6.72631 0
M  V30 112 H 4.9326 1.28955 -6.432 0
M  V30 113 H 4.8496 -0.0236952 -7.55996 0
M  V30 114 H 6.1176 1.15613 -7.70879 0
M  V30 115 N 10.3467 1.47872 -0.545128 0
M  V30 116 C 11.2767 2.32661 0.197793 0
M  V30 117 C 12.2577 1.43041 0.920504 0
M  V30 118 O 13.4427 1.71912 0.90333 0
M  V30 119 C 10.5727 3.24569 1.23582 0
M  V30 120 C 9.5267 4.23333 0.630323 0
M  V30 121 C 8.8527 5.0448 1.77211 0
M  V30 122 C 10.1527 5.20704 -0.407974 0
M  V30 123 H 11.8467 2.95024 -0.510045 0
M  V30 124 H 9.3927 1.4187 -0.246731 0
M  V30 125 H 11.3457 3.8272 1.76362 0
M  V30 126 H 10.0697 2.60236 1.97344 0
M  V30 127 H 8.7287 3.6639 0.123922 0
M  V30 128 H 8.3767 4.36561 2.49847 0
M  V30 129 H 8.0767 5.71339 1.37281 0
M  V30 130 H 9.6007 5.65487 2.3034 0
M  V30 131 H 11.0147 5.7329 0.033305 0
M  V30 132 H 9.4117 5.95699 -0.725486 0
M  V30 133 H 10.4817 4.66917 -1.30828 0
M  V30 134 N 11.8248 0.280983 1.55075 0
M  V30 135 C 12.7878 -0.590896 2.21452 0
M  V30 136 C 13.7878 -1.07682 1.19421 0
M  V30 137 O 14.9778 -0.97605 1.44288 0
M  V30 138 C 12.1098 -1.81587 2.88511 0
M  V30 139 H 13.3028 -0.0112554 2.99898 0
M  V30 140 H 10.8558 0.0316438 1.56268 0
M  V30 141 H 11.5908 -2.43587 2.14093 0
M  V30 142 H 11.3758 -1.4753 3.63287 0
M  V30 143 H 12.8658 -2.43575 3.39206 0
M  V30 144 N 13.3029 -1.57598 0.00835791 0
M  V30 145 C 14.5309 -1.95214 -0.68549 0
M  V30 146 C 14.9459 -0.883706 -1.66841 0
M  V30 147 O 14.3029 0.136565 -1.81988 0
M  V30 148 C 14.3539 -3.32865 -1.41007 0
M  V30 149 O 14.0749 -4.35609 -0.466552 0
M  V30 150 C 15.5759 -3.84991 -2.19765 0
M  V30 151 H 12.7959 -0.643422 -0.190392 0
M  V30 152 H 15.3399 -2.04406 0.0619607 0
M  V30 153 H 13.4949 -3.24956 -2.10908 0
M  V30 154 H 13.9089 -5.15288 -0.978699 0
M  V30 155 H 15.3829 -4.8371 -2.65948 0
M  V30 156 H 15.8599 -3.18137 -3.02796 0
M  V30 157 H 16.4659 -3.96103 -1.54864 0
M  V30 158 N 14.781 0.264519 -1.55364 0
M  V30 159 C 15.744 1.31046 -1.88042 0
M  V30 160 C 16.744 1.41943 -0.755569 0
M  V30 161 O 17.934 1.40947 -1.02369 0
M  V30 162 C 15.066 2.69067 -2.09323 0
M  V30 163 H 16.259 1.03297 -2.81549 0
M  V30 164 H 13.812 0.502989 -1.47986 0
M  V30 165 H 14.547 3.01982 -1.18226 0
M  V30 166 H 14.332 2.62542 -2.91229 0
M  V30 167 H 15.822 3.44623 -2.35848 0
M  V30 168 N 16.2591 1.48442 0.529413 0
M  V30 169 C 17.5051 1.57699 1.28463 0
M  V30 170 C 17.8601 0.247913 1.90796 0
M  V30 171 O 17.1531 -0.749279 1.76342 0
M  V30 172 C 17.3471 2.6523 2.39558 0
M  V30 173 C 17.1761 4.08464 1.88114 0
M  V30 174 C 15.9461 4.75596 1.70693 0
M  V30 175 C 18.1441 4.94613 1.40935 0
M  V30 176 N 16.1261 6.03245 1.13881 0
M  V30 177 C 17.4971 6.12511 0.960734 0
M  V30 178 C 19.5521 4.80833 1.29243 0
M  V30 179 C 18.2551 7.18149 0.406792 0
M  V30 180 C 20.2811 5.86593 0.752487 0
M  V30 181 C 19.6431 7.037 0.313946 0
M  V30 182 H 15.7421 0.631608 0.46108 0
M  V30 183 H 18.3261 1.85325 0.596886 0
M  V30 184 H 16.4971 2.39425 3.05827 0
M  V30 185 H 18.2291 2.64169 3.06589 0
M  V30 186 H 14.9841 4.31938 1.94232 0
M  V30 187 H 15.4081 6.71324 0.874831 0
M  V30 188 H 20.0501 3.90635 1.61754 0
M  V30 189 H 17.7681 8.0807 0.0693671 0
M  V30 190 H 21.3541 5.77985 0.665192 0
M  V30 191 H 20.2341 7.8414 -0.0973632 0
M  V30 192 N 17.7372 -0.778329 1.37039 0
M  V30 193 C 18.6472 -1.92253 1.34446 0
M  V30 194 C 19.6632 -1.72267 0.244991 0
M  V30 195 O 20.8392 -1.95615 0.479258 0
M  V30 196 C 17.9042 -3.27282 1.144 0
M  V30 197 C 16.9652 -3.59969 2.33925 0
M  V30 198 C 16.1982 -4.88555 2.14825 0
M  V30 199 O 16.4212 -5.59113 1.12912 0
M  V30 200 O 15.3552 -5.20153 3.02861 0
M  V30 201 H 19.1812 -1.97392 2.30803 0
M  V30 202 H 16.7662 -0.920154 1.17701 0
M  V30 203 H 18.6482 -4.08062 1.05182 0
M  V30 204 H 17.3232 -3.23011 0.211124 0
M  V30 205 H 16.2302 -2.7945 2.48714 0
M  V30 206 H 17.5632 -3.68976 3.25757 0
M  V30 207 N 19.2153 -1.21501 -1.00376 0
M  V30 208 C 20.4633 -1.03095 -1.73827 0
M  V30 209 C 20.7843 0.436341 -1.90055 0
M  V30 210 O 20.0543 1.31466 -1.45236 0
M  V30 211 H 18.6343 -0.378487 -0.644016 0
M  V30 212 H 21.2963 -1.52831 -1.20949 0
M  V30 213 H 20.3923 -1.49991 -2.73695 0
M  V30 214 N 20.6934 1.19889 -1.02296 0
M  V30 215 C 21.9404 1.8942 -0.715972 0
M  V30 216 C 22.2684 1.79251 0.754944 0
M  V30 217 O 21.5234 1.17526 1.56481 0
M  V30 218 C 21.8224 3.39883 -1.10518 0
M  V30 219 C 21.4884 3.70254 -2.57337 0
M  V30 220 C 20.1504 3.78254 -2.97452 0
M  V30 221 C 22.5024 3.84052 -3.52354 0
M  V30 222 C 19.8304 3.97514 -4.31509 0
M  V30 223 C 22.1824 4.04824 -4.86108 0
M  V30 224 C 20.8464 4.11054 -5.25919 0
M  V30 225 H 20.1164 0.693138 -0.261993 0
M  V30 226 H 22.7634 1.42012 -1.28472 0
M  V30 227 H 21.0684 3.8915 -0.454953 0
M  V30 228 H 22.7654 3.9199 -0.845261 0
M  V30 229 H 19.3554 3.64632 -2.25258 0
M  V30 230 H 23.5394 3.77221 -3.22518 0
M  V30 231 H 18.7954 4.00574 -4.61898 0
M  V30 232 H 22.9694 4.14442 -5.59653 0
M  V30 233 H 20.5964 4.2573 -6.29808 0
M  V30 234 N 22.1715 0.800033 1.35784 0
M  V30 235 C 23.3995 0.389606 2.03199 0
M  V30 236 C 23.8145 -0.997375 1.60306 0
M  V30 237 O 23.1715 -1.64154 0.797481 0
M  V30 238 C 23.2225 0.455855 3.58614 0
M  V30 239 O 22.9435 1.78815 3.99946 0
M  V30 240 C 24.4445 0.0374032 4.43284 0
M  V30 241 H 21.6645 0.159132 0.651857 0
M  V30 242 H 24.2085 1.08183 1.73541 0
M  V30 243 H 22.3635 -0.188057 3.86943 0
M  V30 244 H 22.7775 1.74636 4.94573 0
M  V30 245 H 24.2515 0.134882 5.51835 0
M  V30 246 H 24.7285 -1.01651 4.27275 0
M  V30 247 H 25.3345 0.654215 4.20238 0
M  V30 248 N 23.6496 -1.47581 0.552962 0
M  V30 249 C 24.5966 -2.29957 -0.197108 0
M  V30 250 C 25.5666 -1.38799 -0.912359 0
M  V30 251 O 26.7516 -1.67761 -0.908888 0
M  V30 252 C 23.8916 -3.22672 -1.22379 0
M  V30 253 C 23.0046 -4.28919 -0.515038 0
M  V30 254 C 22.1396 -5.0879 -1.52664 0
M  V30 255 C 21.1786 -6.06815 -0.802631 0
M  V30 256 N 20.3156 -6.7966 -1.76086 0
M  V30 257 H 25.1556 -2.93578 0.511486 0
M  V30 258 H 22.6926 -1.4471 0.264067 0
M  V30 259 H 24.6506 -3.74845 -1.83159 0
M  V30 260 H 23.2806 -2.60925 -1.90047 0
M  V30 261 H 22.3326 -3.79835 0.207192 0
M  V30 262 H 23.6446 -4.98773 0.0523425 0
M  V30 263 H 22.7986 -5.65091 -2.20809 0
M  V30 264 H 21.5376 -4.38828 -2.12794 0
M  V30 265 H 20.5426 -5.49695 -0.107238 0
M  V30 266 H 21.7676 -6.78784 -0.207135 0
M  V30 267 H 19.7136 -6.12432 -2.35081 0
M  V30 268 H 19.6306 -7.45669 -1.24552 0
M  V30 269 H 20.8986 -7.40538 -2.43359 0
M  V30 270 N 25.1277 -0.289203 -1.54924 0
M  V30 271 C 26.3757 0.322879 -1.99504 0
M  V30 272 C 26.6967 1.55313 -1.1791 0
M  V30 273 O 25.9667 1.94001 -0.272097 0
M  V30 274 H 24.5467 0.122291 -0.736922 0
M  V30 275 H 27.2087 -0.397802 -1.90797 0
M  V30 276 H 26.3047 0.603061 -3.06218 0
M  V30 277 N 26.6058 1.57591 -0.0167156 0
M  V30 278 C 27.8828 1.82547 0.702564 0
M  V30 279 C 28.2628 0.898018 1.91047 0
M  V30 280 O 27.6108 -0.0493456 2.28447 0
M  V30 281 C 27.8208 3.31459 1.09251 0
M  V30 282 C 29.1688 3.97622 1.48937 0
M  V30 283 O 30.1928 3.35881 1.18584 0
M  V30 284 O 29.0518 5.06415 2.05442 0
M  V30 285 H 26.1458 0.752268 0.343544 0
M  V30 286 H 28.6918 1.69644 -0.0434495 0
M  V30 287 H 27.4638 3.9061 0.23227 0
M  V30 288 H 27.0868 3.49422 1.89709 0
M  V30 289 N 28.0839 -0.256276 1.55502 0
M  V30 290 C 29.3299 -0.982884 1.78076 0
M  V30 291 C 29.6849 -1.83319 0.584109 0
M  V30 292 O 28.9779 -1.86875 -0.422877 0
M  V30 293 C 29.1719 -1.88432 3.03691 0
M  V30 294 C 29.0009 -1.12276 4.35459 0
M  V30 295 C 27.7709 -0.831647 4.98409 0
M  V30 296 C 29.9689 -0.504933 5.11815 0
M  V30 297 N 27.9509 -0.0450423 6.13883 0
M  V30 298 C 29.3219 0.146696 6.19826 0
M  V30 299 C 31.3769 -0.414455 4.96172 0
M  V30 300 C 30.0799 0.880103 7.13895 0
M  V30 301 C 32.1059 0.305398 5.90611 0
M  V30 302 C 31.4679 0.945701 6.98023 0
M  V30 303 H 27.5669 -0.341084 0.703694 0
M  V30 304 H 30.1509 -0.256909 1.92998 0
M  V30 305 H 28.3219 -2.58241 2.90114 0
M  V30 306 H 30.0539 -2.54579 3.14598 0
M  V30 307 H 26.8089 -1.14111 4.59647 0
M  V30 308 H 27.2329 0.336079 6.76165 0
M  V30 309 H 31.8749 -0.895163 4.13215 0
M  V30 310 H 29.5929 1.37244 7.9636 0
M  V30 311 H 33.1789 0.375946 5.80584 0
M  V30 312 H 32.0589 1.49383 7.6984 0
M  V30 313 N 29.562 -1.4872 -0.521534 0
M  V30 314 C 30.494 -1.59968 -1.64143 0
M  V30 315 C 31.507 -0.483463 -1.55456 0
M  V30 316 O 32.696 -0.75467 -1.61762 0
M  V30 317 C 29.796 -1.52127 -3.02838 0
M  V30 318 C 28.969 -2.78932 -3.36921 0
M  V30 319 C 28.028 -2.64428 -4.54933 0
M  V30 320 O 27.054 -3.38331 -4.57735 0
M  V30 321 N 28.256 -1.74606 -5.53618 0
M  V30 322 H 31.021 -2.56548 -1.54929 0
M  V30 323 H 28.582 -1.45551 -0.708988 0
M  V30 324 H 30.574 -1.40106 -3.79674 0
M  V30 325 H 29.144 -0.634868 -3.06085 0
M  V30 326 H 28.364 -3.05455 -2.4918 0
M  V30 327 H 29.652 -3.63041 -3.56481 0
M  V30 328 H 29.05 -1.13782 -5.54139 0
M  V30 329 H 27.607 -1.6852 -6.29638 0
M  V30 330 N 31.0401 0.771051 -1.3745 0
M  V30 331 C 31.9881 1.90574 -1.33358 0
M  V30 332 C 32.9821 1.67936 -0.22224 0
M  V30 333 O 34.1881 1.75717 -0.390304 0
M  V30 334 H 30.5631 0.626714 -0.415612 0
M  V30 335 H 32.5341 1.91142 -2.29144 0
M  V30 336 C 31.2831 3.27845 -1.15813 0
M  V30 337 H 30.6061 3.45842 -2.00583 0
M  V30 338 H 32.0461 4.07538 -1.17 0
M  V30 339 C 30.5051 3.36625 0.136165 0
M  V30 340 O 31.0351 3.85785 1.11949 0
M  V30 341 N 29.2411 2.89997 0.187099 0
M  V30 342 H 28.7881 2.50182 -0.613753 0
M  V30 343 H 28.7461 2.96252 1.05272 0
M  V30 344 N 32.5182 1.22032 0.997298 0
M  V30 345 C 33.4282 1.00271 2.12092 0
M  V30 346 C 34.4442 -0.047621 1.73935 0
M  V30 347 O 35.6202 0.144136 2.00884 0
M  V30 348 C 32.6852 0.578449 3.4184 0
M  V30 349 C 31.7462 1.70189 3.94125 0
M  V30 350 C 30.9792 1.29778 5.17681 0
M  V30 351 O 31.2022 0.174676 5.70132 0
M  V30 352 O 30.1362 2.11261 5.63607 0
M  V30 353 H 33.9622 1.94398 2.3333 0
M  V30 354 H 31.5472 1.00587 1.10465 0
M  V30 355 H 33.4292 0.351998 4.19927 0
M  V30 356 H 32.1042 -0.334019 3.21972 0
M  V30 357 H 31.0112 1.98282 3.1723 0
M  V30 358 H 32.3442 2.59206 4.18417 0
M  V30 359 N 33.9963 -1.19345 1.0293 0
M  V30 360 C 35.2423 -1.89318 0.727083 0
M  V30 361 C 35.5753 -1.79446 -0.742483 0
M  V30 362 O 34.8503 -1.1871 -1.54072 0
M  V30 363 C 35.1333 -3.40238 1.17942 0
M  V30 364 C 34.9863 -3.58979 2.71024 0
M  V30 365 C 36.3053 -4.33479 0.760548 0
M  V30 366 H 33.4243 -0.687475 0.265606 0
M  V30 367 H 36.0663 -1.40477 1.2793 0
M  V30 368 H 34.2163 -3.81964 0.709608 0
M  V30 369 H 35.8883 -3.26421 3.25955 0
M  V30 370 H 34.1313 -3.02018 3.11396 0
M  V30 371 H 34.8023 -4.64823 2.9773 0
M  V30 372 H 37.2783 -3.99469 1.16464 0
M  V30 373 H 36.1543 -5.37664 1.10493 0
M  V30 374 H 36.4153 -4.40813 -0.337063 0
M  V30 375 N 35.4744 -0.807222 -1.35358 0
M  V30 376 C 36.4224 -0.20614 -2.31685 0
M  V30 377 C 37.4164 0.644445 -1.56663 0
M  V30 378 O 38.6224 0.537538 -1.71786 0
M  V30 379 H 34.9974 -0.0479006 -0.750473 0
M  V30 380 H 36.9684 -1.03369 -2.79924 0
M  V30 381 C 35.7174 0.630212 -3.41941 0
M  V30 382 H 35.0404 -0.0149558 -3.99797 0
M  V30 383 H 36.4804 1.01716 -4.11619 0
M  V30 384 C 34.9394 1.79601 -2.85035 0
M  V30 385 O 35.4694 2.89351 -2.78637 0
M  V30 386 N 33.6754 1.60774 -2.42074 0
M  V30 387 H 33.2224 0.715009 -2.47478 0
M  V30 388 H 33.1804 2.38933 -2.04349 0
M  V30 389 N 36.9525 1.47285 -0.560781 0
M  V30 390 C 38.1985 2.02764 -0.0381184 0
M  V30 391 C 38.5315 1.43384 1.30976 0
M  V30 392 O 37.8065 0.590733 1.85312 0
M  V30 393 C 38.0895 3.60064 0.0511427 0
M  V30 394 C 37.9425 4.2987 -1.32408 0
M  V30 395 C 39.2615 4.33439 0.762795 0
M  V30 396 H 36.3805 0.736841 -0.0153264 0
M  V30 397 H 39.0225 1.75675 -0.723759 0
M  V30 398 H 37.1725 3.83274 0.635065 0
M  V30 399 H 38.8445 4.17989 -1.95148 0
M  V30 400 H 37.0875 3.90085 -1.8978 0
M  V30 401 H 37.7585 5.38478 -1.21431 0
M  V30 402 H 40.2345 4.15243 0.266965 0
M  V30 403 H 39.1105 5.43124 0.794221 0
M  V30 404 H 39.3715 4.02915 1.81966 0
M  V30 405 N 38.4306 0.297415 1.54768 0
M  V30 406 C 39.8466 -0.0560823 1.59501 0
M  V30 407 C 40.0466 -1.52725 1.31444 0
M  V30 408 O 39.1026 -2.27947 1.08611 0
M  V30 409 C 40.4156 0.338631 2.98787 0
M  V30 410 C 41.9636 0.287097 3.11681 0
M  V30 411 C 42.4386 0.656579 4.53269 0
M  V30 412 N 43.9296 0.608977 4.59179 0
M  V30 413 C 44.6646 0.867385 5.66802 0
M  V30 414 N 44.1606 1.19157 6.82476 0
M  V30 415 N 45.9536 0.794687 5.56454 0
M  V30 416 H 38.1046 1.25624 1.71267 0
M  V30 417 H 40.3676 0.509057 0.799728 0
M  V30 418 H 40.0736 1.36263 3.2423 0
M  V30 419 H 39.9476 -0.309508 3.75928 0
M  V30 420 H 42.3346 -0.727649 2.85988 0
M  V30 421 H 42.4156 0.969809 2.36703 0
M  V30 422 H 42.0596 1.66912 4.7969 0
M  V30 423 H 41.9896 -0.0481649 5.26578 0
M  V30 424 H 44.4806 0.369198 3.76092 0
M  V30 425 H 44.7936 1.37482 7.60473 0
M  V30 426 H 43.1386 1.22958 6.84037 0
M  V30 427 H 46.3296 0.541098 4.64962 0
M  V30 428 H 46.5026 0.999445 6.40246 0
M  V30 429 N 39.9087 -1.5758 0.0250728 0
M  V30 430 C 41.1857 -1.82917 -0.692873 0
M  V30 431 C 41.5657 -0.908137 -1.90568 0
M  V30 432 O 40.9137 0.0372298 -2.2847 0
M  V30 433 C 41.1237 -3.32034 -1.07492 0
M  V30 434 C 42.4717 -3.98406 -1.46826 0
M  V30 435 O 43.4957 -3.36505 -1.16801 0
M  V30 436 O 42.3547 -5.07497 -2.02754 0
M  V30 437 H 39.4487 -0.754079 -0.33955 0
M  V30 438 H 41.9947 -1.69619 0.0524456 0
M  V30 439 H 40.7667 -3.90728 -0.211552 0
M  V30 440 H 40.3897 -3.50424 -1.87854 0
M  V30 441 N 41.3868 0.248026 -1.55636 0
M  V30 442 C 42.6338 0.976224 -1.77415 0
M  V30 443 C 42.9618 1.85361 -0.589193 0
M  V30 444 O 42.2168 1.90973 0.427529 0
M  V30 445 C 42.5158 1.86819 -3.04686 0
M  V30 446 C 42.1818 1.14625 -4.36087 0
M  V30 447 C 40.8438 0.946723 -4.71795 0
M  V30 448 C 43.1958 0.634463 -5.17324 0
M  V30 449 C 40.5238 0.223091 -5.86276 0
M  V30 450 C 42.8758 -0.0756959 -6.32555 0
M  V30 451 C 41.5398 -0.286711 -6.66884 0
M  V30 452 H 40.8098 0.357226 -0.649208 0
M  V30 453 H 43.4568 0.246415 -1.89908 0
M  V30 454 H 41.7618 2.66502 -2.872 0
M  V30 455 H 43.4588 2.43329 -3.18735 0
M  V30 456 H 40.0488 1.3117 -4.08035 0
M  V30 457 H 44.2328 0.77616 -4.90193 0
M  V30 458 H 39.4888 0.0491185 -6.1138 0
M  V30 459 H 43.6628 -0.479899 -6.94745 0
M  V30 460 H 41.2898 -0.849389 -7.5544 0
M  V30 461 N 42.8649 1.48995 0.513639 0
M  V30 462 C 44.1139 1.57093 1.2651 0
M  V30 463 C 44.4269 0.257091 1.93903 0
M  V30 464 O 45.6329 0.216478 2.70636 0
M  V30 465 C 44.0889 2.77118 2.29638 0
M  V30 466 C 43.6969 4.15209 1.68241 0
M  V30 467 C 45.4409 2.94538 3.05692 0
M  V30 468 C 43.3479 5.26474 2.69406 0
M  V30 469 H 42.2779 0.584876 0.475854 0
M  V30 470 H 44.9289 1.7536 0.540487 0
M  V30 471 H 43.3109 2.52319 3.05207 0
M  V30 472 H 44.4849 4.50094 0.987505 0
M  V30 473 H 42.7999 4.03042 1.04623 0
M  V30 474 H 45.3969 3.74832 3.8132 0
M  V30 475 H 45.7399 2.04614 3.62545 0
M  V30 476 H 46.2729 3.19316 2.37238 0
M  V30 477 H 43.0119 6.18417 2.17351 0
M  V30 478 H 42.5319 4.96058 3.37175 0
M  V30 479 H 44.2109 5.55277 3.32078 0
M  V30 480 N 44.343 -0.763751 1.37857 0
M  V30 481 C 45.275 -1.88664 1.30148 0
M  V30 482 C 46.288 -1.61365 0.215685 0
M  V30 483 O 47.477 -1.72134 0.472459 0
M  V30 484 C 44.577 -3.24075 0.991396 0
M  V30 485 C 43.75 -3.78958 2.18426 0
M  V30 486 C 42.809 -4.92862 1.8432 0
M  V30 487 O 41.835 -5.08027 2.56704 0
M  V30 488 N 43.037 -5.75071 0.792081 0
M  V30 489 H 45.802 -1.95791 2.26905 0
M  V30 490 H 43.363 -0.943226 1.31586 0
M  V30 491 H 45.355 -3.97804 0.743935 0
M  V30 492 H 43.925 -3.12399 0.112122 0
M  V30 493 H 43.145 -2.96913 2.59299 0
M  V30 494 H 44.433 -4.12357 2.98058 0
M  V30 495 H 43.831 -5.65375 0.191595 0
M  V30 496 H 42.388 -6.48991 0.60449 0
M  V30 497 N 45.8211 -1.22559 -0.990812 0
M  V30 498 C 46.7681 -0.997519 -2.0813 0
M  V30 499 C 47.7381 0.0814702 -1.659 0
M  V30 500 O 48.9231 -0.0685424 -1.90677 0
M  V30 501 C 46.0631 -0.583615 -3.40129 0
M  V30 502 C 45.1761 -1.7336 -3.9569 0
M  V30 503 C 44.3111 -1.26748 -5.15857 0
M  V30 504 C 43.3501 -2.38888 -5.63559 0
M  V30 505 N 42.4871 -1.93308 -6.74964 0
M  V30 506 H 47.3271 -1.93099 -2.26973 0
M  V30 507 H 44.8641 -0.962114 -1.11273 0
M  V30 508 H 46.8221 -0.324801 -4.15934 0
M  V30 509 H 45.4521 0.312845 -3.2128 0
M  V30 510 H 44.5041 -2.10669 -3.16738 0
M  V30 511 H 45.8161 -2.57704 -4.27071 0
M  V30 512 H 44.9701 -0.966173 -5.98957 0
M  V30 513 H 43.7091 -0.394272 -4.86104 0
M  V30 514 H 42.7141 -2.69805 -4.79046 0
M  V30 515 H 43.9391 -3.26728 -5.95336 0
M  V30 516 H 41.8851 -1.08352 -6.4699 0
M  V30 517 H 41.8021 -2.71217 -7.05675 0
M  V30 518 H 43.0701 -1.66252 -7.61564 0
M  V30 519 N 47.2992 1.18797 -1.03562 0
M  V30 520 C 48.2472 2.24297 -0.615905 0
M  V30 521 C 49.2412 1.65643 0.354808 0
M  V30 522 O 50.4472 1.78618 0.22265 0
M  V30 523 H 46.8222 0.729909 -0.180934 0
M  V30 524 H 48.7932 2.5701 -1.5162 0
M  V30 525 C 47.5422 3.47698 0.0104735 0
M  V30 526 H 46.8652 3.93125 -0.727509 0
M  V30 527 H 48.3052 4.23159 0.266995 0
M  V30 528 C 46.7642 3.12489 1.25905 0
M  V30 529 O 47.2942 3.25761 2.35038 0
M  V30 530 N 45.5002 2.6686 1.15039 0
M  V30 531 H 45.0472 2.56261 0.262328 0
M  V30 532 H 45.0052 2.43674 1.98672 0
M  V30 533 N 48.7773 0.814389 1.34928 0
M  V30 534 C 50.0073 0.41054 2.0248 0
M  V30 535 C 50.4153 -0.985625 1.61499 0
M  V30 536 O 49.7583 -1.64781 0.811976 0
M  V30 537 C 49.8203 0.423384 3.56998 0
M  V30 538 C 49.4843 1.77141 4.21272 0
M  V30 539 C 50.4813 2.73093 4.42398 0
M  V30 540 C 48.1663 2.05755 4.58225 0
M  V30 541 C 50.1603 3.95838 4.9959 0
M  V30 542 C 47.8473 3.28762 5.1513 0
M  V30 543 C 48.8453 4.23621 5.35755 0
M  V30 544 O 48.5333 5.44456 5.91458 0
M  V30 545 H 48.2653 0.163997 0.655806 0
M  V30 546 H 50.8193 1.10155 1.73364 0
M  V30 547 H 49.0493 -0.324276 3.85338 0
M  V30 548 H 50.7383 0.0407683 4.0588 0
M  V30 549 H 51.5043 2.5228 4.14222 0
M  V30 550 H 47.3833 1.32727 4.4148 0
M  V30 551 H 50.9273 4.69891 5.15605 0
M  V30 552 H 46.8243 3.49443 5.42734 0
M  V30 553 H 47.5923 5.4586 6.09901 0
M  V30 554 N 50.2554 -1.46986 0.568584 0
M  V30 555 C 51.4834 -2.0683 0.0539956 0
M  V30 556 C 51.8984 -1.41953 -1.24478 0
M  V30 557 O 51.2554 -0.519933 -1.74937 0
M  V30 558 C 51.3064 -3.61254 -0.133362 0
M  V30 559 O 51.0274 -4.237 1.11399 0
M  V30 560 C 52.5284 -4.37992 -0.683927 0
M  V30 561 H 49.7484 -0.669058 0.0510141 0
M  V30 562 H 52.2924 -1.88824 0.785234 0
M  V30 563 H 50.4474 -3.78735 -0.81477 0
M  V30 564 H 50.8614 -5.16388 0.91888 0
M  V30 565 H 52.3354 -5.46684 -0.764263 0
M  V30 566 H 52.8124 -4.05058 -1.69778 0
M  V30 567 H 53.4184 -4.25283 -0.0378494 0
M  V30 568 N 51.7335 -0.305618 -1.54608 0
M  V30 569 C 53.1445 0.186098 -1.8577 0
M  V30 570 C 53.4955 1.53058 -1.22751 0
M  V30 571 O 52.6205 2.09888 -0.526893 0
M  V30 572 C 53.2155 0.344449 -3.37044 0
M  V30 573 C 51.7745 0.780384 -3.68221 0
M  V30 574 C 50.9215 -0.108554 -2.77087 0
M  V30 575 H 53.8725 -0.526485 -1.49712 0
M  V30 576 H 53.8935 1.17828 -3.61796 0
M  V30 577 H 53.4055 -0.634235 -3.82883 0
M  V30 578 H 51.5065 1.76945 -3.27904 0
M  V30 579 H 51.6195 0.596572 -4.75371 0
M  V30 580 H 49.9835 0.412931 -2.5133 0
M  V30 581 H 50.7665 -1.08368 -3.25747 0
M  V30 582 N 53.2116 1.57565 -0.0334293 0
M  V30 583 C 54.4416 1.95996 0.653398 0
M  V30 584 C 54.8496 0.908749 1.65947 0
M  V30 585 O 54.1926 -0.117471 1.83324 0
M  V30 586 C 54.2546 3.30589 1.41249 0
M  V30 587 C 53.9186 4.53503 0.564263 0
M  V30 588 C 54.9156 5.19647 -0.16225 0
M  V30 589 C 52.6006 4.99801 0.500398 0
M  V30 590 C 54.5946 6.30412 -0.941255 0
M  V30 591 C 52.2816 6.10448 -0.282308 0
M  V30 592 C 53.2796 6.75612 -1.00184 0
M  V30 593 O 52.9676 7.84134 -1.77171 0
M  V30 594 H 52.6996 0.65027 0.184728 0
M  V30 595 H 55.2536 2.05199 -0.0907841 0
M  V30 596 H 53.4836 3.17888 2.20191 0
M  V30 597 H 55.1726 3.53892 1.98784 0
M  V30 598 H 55.9386 4.84846 -0.12227 0
M  V30 599 H 51.8176 4.48883 1.05002 0
M  V30 600 H 55.3616 6.81208 -1.50339 0
M  V30 601 H 51.2586 6.44686 -0.323989 0
M  V30 602 H 52.0266 8.00822 -1.69194 0
M  V30 603 N 54.6897 -0.239769 1.55765 0
M  V30 604 C 55.5997 -1.31831 1.94056 0
M  V30 605 C 56.6157 -1.52275 0.841925 0
M  V30 606 O 57.7917 -1.65759 1.14394 0
M  V30 607 C 54.8567 -2.65156 2.23368 0
M  V30 608 C 53.9177 -2.53173 3.46701 0
M  V30 609 C 53.1507 -3.8014 3.74606 0
M  V30 610 O 53.3737 -4.82343 3.04469 0
M  V30 611 O 52.3077 -3.78344 4.68123 0
M  V30 612 H 56.1337 -1.02347 2.85935 0
M  V30 613 H 53.7187 -0.441123 1.42739 0
M  V30 614 H 55.6007 -3.43929 2.43497 0
M  V30 615 H 54.2757 -2.94358 1.34666 0
M  V30 616 H 53.1827 -1.72662 3.31871 0
M  V30 617 H 54.5157 -2.28915 4.35728 0
M  V30 618 N 56.1678 -1.49265 -0.50573 0
M  V30 619 C 57.4158 -1.582 -1.25766 0
M  V30 620 C 57.7368 -0.268482 -1.93143 0
M  V30 621 O 57.0068 0.711833 -1.8251 0
M  V30 622 H 55.5868 -0.582873 -0.467191 0
M  V30 623 H 58.2488 -1.85865 -0.586525 0
M  V30 624 H 57.3448 -2.37563 -2.02412 0
M  V30 625 N 57.6459 0.756429 -1.3826 0
M  V30 626 C 58.9229 1.50584 -1.24835 0
M  V30 627 C 59.3029 2.10556 0.151485 0
M  V30 628 O 58.6509 1.96825 1.1607 0
M  V30 629 C 58.8609 2.57448 -2.3563 0
M  V30 630 C 60.2089 3.24429 -2.73917 0
M  V30 631 O 61.2329 2.67751 -2.34921 0
M  V30 632 O 60.0919 4.26937 -3.41156 0
M  V30 633 H 57.1859 0.667664 -0.48801 0
M  V30 634 H 59.7319 0.792083 -1.5008 0
M  V30 635 H 58.5039 2.11362 -3.29305 0
M  V30 636 H 58.1269 3.36408 -2.11933 0
M  V30 637 N 59.124 1.23083 0.984299 0
M  V30 638 C 60.034 1.02515 2.11016 0
M  V30 639 C 61.05 -0.0291702 1.73976 0
M  V30 640 O 62.226 0.165434 2.00719 0
M  V30 641 C 59.291 0.614673 3.41208 0
M  V30 642 C 58.352 1.74359 3.92297 0
M  V30 643 C 57.585 1.35261 5.16275 0
M  V30 644 O 57.808 0.235136 5.69915 0
M  V30 645 O 56.742 2.17227 5.61334 0
M  V30 646 H 60.568 1.96862 2.31255 0
M  V30 647 H 58.153 1.01753 1.09392 0
M  V30 648 H 60.035 0.396518 4.1953 0
M  V30 649 H 58.71 -0.299851 3.22308 0
M  V30 650 H 57.617 2.01635 3.1511 0
M  V30 651 H 58.95 2.63629 4.15645 0
M  V30 652 N 60.6021 -1.18246 1.0419 0
M  V30 653 C 61.8271 -1.92736 0.765996 0
M  V30 654 C 62.2521 -1.75728 -0.67091 0
M  V30 655 O 61.6101 -1.06825 -1.46486 0
M  V30 656 C 61.6581 -3.42148 1.13875 0
M  V30 657 O 60.7621 -4.11548 0.264954 0
M  V30 658 H 60.1031 -0.601238 0.281797 0
M  V30 659 H 62.6331 -1.49942 1.39207 0
M  V30 660 H 62.6431 -3.92858 1.1012 0
M  V30 661 H 61.3181 -3.53848 2.18551 0
M  V30 662 H 59.8951 -3.71137 0.362226 0
M  V30 663 N 62.0802 -0.821533 -1.34494 0
M  V30 664 C 63.3272 -0.408946 -1.98328 0
M  V30 665 C 63.6552 1.02764 -1.65136 0
M  V30 666 O 62.9102 1.73026 -0.914349 0
M  V30 667 C 63.2092 -0.556512 -3.53041 0
M  V30 668 C 62.8752 -1.95861 -4.0614 0
M  V30 669 C 61.5372 -2.34217 -4.20352 0
M  V30 670 C 63.8892 -2.87523 -4.34718 0
M  V30 671 C 61.2172 -3.63572 -4.6047 0
M  V30 672 C 63.5692 -4.1634 -4.76281 0
M  V30 673 C 62.2332 -4.54675 -4.88699 0
M  V30 674 H 61.5032 -0.149644 -0.725732 0
M  V30 675 H 64.1502 -1.04521 -1.6046 0
M  V30 676 H 62.4552 0.163148 -3.9146 0
M  V30 677 H 64.1522 -0.217826 -4.00408 0
M  V30 678 H 60.7422 -1.65066 -3.95539 0
M  V30 679 H 64.9262 -2.59133 -4.23277 0
M  V30 680 H 60.1822 -3.93101 -4.68275 0
M  V30 681 H 64.3562 -4.87455 -4.97354 0
M  V30 682 H 61.9832 -5.54959 -5.19542 0
M  V30 683 N 63.5583 1.46682 -0.576371 0
M  V30 684 C 64.4883 2.33028 0.148397 0
M  V30 685 C 65.4693 1.44961 0.889956 0
M  V30 686 O 66.6543 1.73789 0.866662 0
M  V30 687 C 63.7843 3.27117 1.1667 0
M  V30 688 C 62.7383 4.24575 0.540386 0
M  V30 689 C 62.0643 5.08126 1.6647 0
M  V30 690 C 63.3643 5.19722 -0.518331 0
M  V30 691 H 65.0583 2.93875 -0.572509 0
M  V30 692 H 62.6043 1.41315 -0.276768 0
M  V30 693 H 64.5573 3.86374 1.68204 0
M  V30 694 H 63.2813 2.64364 1.9178 0
M  V30 695 H 61.9403 3.66571 0.0461769 0
M  V30 696 H 61.5883 4.41762 2.40531 0
M  V30 697 H 61.2883 5.74122 1.25131 0
M  V30 698 H 62.8123 5.70246 2.18293 0
M  V30 699 H 64.2263 5.73232 -0.0883058 0
M  V30 700 H 62.6233 5.94026 -0.851679 0
M  V30 701 H 63.6933 4.64037 -1.40703 0
M  V30 702 N 65.0364 0.313813 1.54444 0
M  V30 703 C 65.9994 -0.54379 2.22656 0
M  V30 704 C 66.9994 -1.05124 1.21678 0
M  V30 705 O 68.1894 -0.945225 1.46325 0
M  V30 706 C 65.3214 -1.75427 2.92298 0
M  V30 707 H 66.5144 0.0523599 2.99854 0
M  V30 708 H 64.0674 0.0647834 1.56166 0
M  V30 709 H 64.8024 -2.38991 2.19211 0
M  V30 710 H 64.5874 -1.39791 3.66334 0
M  V30 711 H 66.0774 -2.36325 3.44297 0
M  V30 712 N 66.5145 -1.57545 0.0417849 0
M  V30 713 C 67.7625 -1.91937 -0.632829 0
M  V30 714 C 68.0835 -0.919978 -1.71934 0
M  V30 715 O 67.3535 0.0366064 -1.95866 0
M  V30 716 H 65.9335 -0.708493 -0.236742 0
M  V30 717 H 68.5955 -1.9468 0.0925745 0
M  V30 718 H 67.6915 -2.92912 -1.07746 0
M  V30 719 N 67.9926 0.231505 -1.5589 0
M  V30 720 C 68.9556 1.27028 -1.90779 0
M  V30 721 C 69.9556 1.40308 -0.785507 0
M  V30 722 O 71.1456 1.38744 -1.05336 0
M  V30 723 C 68.2776 2.64566 -2.14983 0
M  V30 724 H 69.4706 0.973017 -2.83677 0
M  V30 725 H 67.0236 0.471486 -1.49019 0
M  V30 726 H 67.7586 2.99406 -1.24604 0
M  V30 727 H 67.5436 2.56305 -2.96732 0
M  V30 728 H 69.0336 3.39543 -2.43105 0
M  V30 729 N 69.4707 1.49531 0.497807 0
M  V30 730 C 70.6987 1.62893 1.27567 0
M  V30 731 C 71.1137 0.301585 1.86376 0
M  V30 732 O 70.4707 -0.713335 1.67982 0
M  V30 733 C 70.5217 2.70013 2.40364 0
M  V30 734 O 70.2427 3.976 1.83972 0
M  V30 735 C 71.7437 2.94109 3.31685 0
M  V30 736 H 68.9637 0.548298 0.386794 0
M  V30 737 H 71.5077 1.95584 0.597245 0
M  V30 738 H 69.6627 2.40092 3.04031 0
M  V30 739 H 70.0767 4.56631 2.58047 0
M  V30 740 H 71.5507 3.72788 4.07104 0
M  V30 741 H 72.0277 2.04147 3.88871 0
M  V30 742 H 72.6337 3.2546 2.73781 0
M  V30 743 N 70.9488 -0.749086 1.3866 0
M  V30 744 C 71.8588 -1.89358 1.38494 0
M  V30 745 C 72.8748 -1.71708 0.281476 0
M  V30 746 O 74.0508 -1.94554 0.520643 0
M  V30 747 C 71.1158 -3.24782 1.21316 0
M  V30 748 C 70.1768 -3.54926 2.41508 0
M  V30 749 C 69.4098 -4.83888 2.2514 0
M  V30 750 O 69.6328 -5.56592 1.24746 0
M  V30 751 O 68.5668 -5.13612 3.13826 0
M  V30 752 H 72.3928 -1.92452 2.34938 0
M  V30 753 H 69.9778 -0.894981 1.19626 0
M  V30 754 H 71.8598 -4.05739 1.13814 0
M  V30 755 H 70.5348 -3.2249 0.279592 0
M  V30 756 H 69.4418 -2.74112 2.54585 0
M  V30 757 H 70.7748 -3.61983 3.3351 0
M  V30 758 N 72.4269 -1.23603 -0.977757 0
M  V30 759 C 73.3899 -1.02069 -2.05218 0
M  V30 760 C 74.3899 0.0184305 -1.60789 0
M  V30 761 O 75.5799 -0.221569 -1.72785 0
M  V30 762 C 72.7119 -0.544926 -3.36517 0
M  V30 763 H 73.9049 -1.9742 -2.25755 0
M  V30 764 H 71.4579 -1.05684 -1.15155 0
M  V30 765 H 72.1929 0.412241 -3.21669 0
M  V30 766 H 71.9779 -1.2948 -3.70105 0
M  V30 767 H 73.4679 -0.414985 -4.15533 0
M  V30 768 N 73.905 1.17692 -1.04816 0
M  V30 769 C 75.133 1.91786 -0.776254 0
M  V30 770 C 75.548 1.76604 0.667577 0
M  V30 771 O 74.905 1.10067 1.45573 0
M  V30 772 C 74.956 3.42967 -1.14263 0
M  V30 773 O 74.677 3.57678 -2.52978 0
M  V30 774 C 76.178 4.34144 -0.896311 0
M  V30 775 H 73.398 0.608624 -0.282519 0
M  V30 776 H 75.942 1.49268 -1.39783 0
M  V30 777 H 74.097 3.83245 -0.565874 0
M  V30 778 H 74.511 4.51319 -2.67229 0
M  V30 779 H 75.985 5.38744 -1.20244 0
M  V30 780 H 76.462 4.38876 0.168636 0
M  V30 781 H 77.068 3.99574 -1.45672 0
M  V30 782 N 75.3831 0.828654 1.34056 0
M  V30 783 C 76.6111 0.43262 2.02326 0
M  V30 784 C 77.0261 -0.963147 1.62385 0
M  V30 785 O 76.3831 -1.62425 0.832121 0
M  V30 786 C 76.4341 0.53182 3.57567 0
M  V30 787 O 76.1551 1.87258 3.96063 0
M  V30 788 C 77.6561 0.131422 4.43105 0
M  V30 789 H 74.8761 0.172923 0.648335 0
M  V30 790 H 77.4201 1.1184 1.71208 0
M  V30 791 H 75.5751 -0.105938 3.87255 0
M  V30 792 H 75.9891 1.85087 4.90758 0
M  V30 793 H 77.4631 0.251904 5.51425 0
M  V30 794 H 77.9401 -0.925645 4.29335 0
M  V30 795 H 78.5461 0.743207 4.18756 0
M  V30 796 N 76.8612 -1.46375 0.584142 0
M  V30 797 C 78.0892 -2.06761 0.0759296 0
M  V30 798 C 78.5042 -1.43266 -1.22965 0
M  V30 799 O 77.8612 -0.538458 -1.74376 0
M  V30 800 C 77.9122 -3.61375 -0.0950384 0
M  V30 801 O 77.6332 -4.22495 1.15887 0
M  V30 802 C 79.1342 -4.38693 -0.637434 0
M  V30 803 H 76.3542 -0.668479 0.0581075 0
M  V30 804 H 78.8982 -1.8798 0.805218 0
M  V30 805 H 77.0532 -3.79578 -0.774554 0
M  V30 806 H 77.4672 -5.15385 0.973598 0
M  V30 807 H 78.9412 -5.47464 -0.706237 0
M  V30 808 H 79.4182 -4.06836 -1.65472 0
M  V30 809 H 80.0242 -4.25299 0.00725967 0
M  V30 810 N 78.3393 -0.321999 -1.54275 0
M  V30 811 C 79.2693 0.537411 -2.27231 0
M  V30 812 C 80.2503 1.12064 -1.27968 0
M  V30 813 O 81.4353 1.14606 -1.56777 0
M  V30 814 C 78.5653 1.69919 -3.02894 0
M  V30 815 C 77.5193 1.24534 -4.09482 0
M  V30 816 C 76.8453 2.49394 -4.72977 0
M  V30 817 C 78.1453 0.361335 -5.21049 0
M  V30 818 H 79.8393 -0.0711406 -2.99315 0
M  V30 819 H 77.3853 -0.0356555 -1.43956 0
M  V30 820 H 79.3383 2.30668 -3.52662 0
M  V30 821 H 78.0623 2.33431 -2.28424 0
M  V30 822 H 76.7213 0.660782 -3.60596 0
M  V30 823 H 76.3693 3.11265 -3.95124 0
M  V30 824 H 76.0693 2.19718 -5.44975 0
M  V30 825 H 77.5933 3.10908 -5.25517 0
M  V30 826 H 79.0073 0.875072 -5.66582 0
M  V30 827 H 77.4043 0.157428 -5.99893 0
M  V30 828 H 78.4743 -0.60822 -4.8107 0
M  V30 829 N 79.8174 1.5752 -0.0501392 0
M  V30 830 C 81.0634 1.93755 0.618901 0
M  V30 831 C 81.4184 0.928514 1.68512 0
M  V30 832 O 80.7114 -0.0524613 1.91528 0
M  V30 833 C 80.9054 3.34467 1.25963 0
M  V30 834 C 80.7344 4.48965 0.257 0
M  V30 835 C 79.5044 5.05075 -0.150656 0
M  V30 836 C 81.7024 5.11891 -0.497166 0
M  V30 837 N 79.6844 6.03104 -1.14626 0
M  V30 838 C 81.0554 6.05216 -1.34588 0
M  V30 839 C 83.1104 4.9479 -0.55559 0
M  V30 840 C 81.8134 6.83277 -2.24778 0
M  V30 841 C 83.8394 5.73477 -1.44492 0
M  V30 842 C 83.2014 6.66433 -2.28136 0
M  V30 843 H 79.3004 0.756479 0.198149 0
M  V30 844 H 81.8844 1.94316 -0.122229 0
M  V30 845 H 80.0554 3.34685 1.97079 0
M  V30 846 H 81.7874 3.57994 1.88739 0
M  V30 847 H 78.5424 4.7305 0.228094 0
M  V30 848 H 78.9664 6.56813 -1.64092 0
M  V30 849 H 83.6084 4.2273 0.0768625 0
M  V30 850 H 81.3264 7.54629 -2.89069 0
M  V30 851 H 84.9124 5.62273 -1.49468 0
M  V30 852 H 83.7924 7.26258 -2.95835 0
M  V30 853 N 81.2955 -0.223234 1.56011 0
M  V30 854 C 82.5725 -0.972108 1.69733 0
M  V30 855 C 82.9525 -2.02485 0.59691 0
M  V30 856 O 82.3005 -2.25037 -0.396324 0
M  V30 857 C 82.5105 -1.58407 3.10979 0
M  V30 858 C 83.8585 -2.07696 3.70334 0
M  V30 859 O 84.8825 -1.68304 3.1393 0
M  V30 860 O 83.7415 -2.80096 4.69264 0
M  V30 861 H 80.8355 -0.453993 0.691245 0
M  V30 862 H 83.3815 -0.215149 1.68331 0
M  V30 863 H 82.1535 -0.823831 3.82529 0
M  V30 864 H 81.7765 -2.40661 3.16493 0
M  V30 865 N 82.7736 -1.49793 -0.48987 0
M  V30 866 C 83.7206 -1.67281 -1.59014 0
M  V30 867 C 84.6906 -0.514177 -1.57941 0
M  V30 868 O 85.8756 -0.742533 -1.75759 0
M  V30 869 C 83.0156 -1.75569 -2.97102 0
M  V30 870 C 82.1286 -3.0281 -3.08107 0
M  V30 871 C 81.2636 -3.02008 -4.36995 0
M  V30 872 C 80.3026 -4.23782 -4.41673 0
M  V30 873 N 79.4396 -4.20826 -5.62005 0
M  V30 874 H 84.2796 -2.61224 -1.43409 0
M  V30 875 H 81.8166 -1.29508 -0.697565 0
M  V30 876 H 83.7746 -1.78354 -3.77155 0
M  V30 877 H 82.4046 -0.850827 -3.11385 0
M  V30 878 H 81.4566 -3.09584 -2.21047 0
M  V30 879 H 82.7686 -3.92801 -3.07423 0
M  V30 880 H 81.9226 -3.03418 -5.25378 0
M  V30 881 H 80.6616 -2.09815 -4.4026 0
M  V30 882 H 79.6666 -4.22604 -3.5169 0
M  V30 883 H 80.8916 -5.17181 -4.40115 0
M  V30 884 H 78.8376 -3.31476 -5.66091 0
M  V30 885 H 78.7546 -5.04564 -5.62984 0
M  V30 886 H 80.0226 -4.26355 -6.52565 0
M  V30 887 N 84.2517 0.741722 -1.39055 0
M  V30 888 C 85.4977 1.50336 -1.36113 0
M  V30 889 C 85.8307 1.94148 0.0450796 0
M  V30 890 O 85.1057 1.66301 1.00868 0
M  V30 891 C 85.3887 2.74773 -2.32749 0
M  V30 892 C 85.2417 2.37023 -3.82283 0
M  V30 893 C 86.5607 3.76846 -2.27322 0
M  V30 894 H 83.6797 0.545351 -0.495743 0
M  V30 895 H 86.3217 0.848624 -1.69995 0
M  V30 896 H 84.4717 3.30639 -2.03986 0
M  V30 897 H 86.1437 1.8684 -4.21768 0
M  V30 898 H 84.3867 1.69334 -3.99385 0
M  V30 899 H 85.0577 3.26104 -4.45376 0
M  V30 900 H 87.5337 3.30548 -2.5274 0
M  V30 901 H 86.4097 4.6159 -2.97028 0
M  V30 902 H 86.6707 4.23286 -1.27599 0
M  V30 903 N 85.7298 1.2412 0.971189 0
M  V30 904 C 86.6628 0.97373 2.06382 0
M  V30 905 C 87.6408 -0.0912662 1.62344 0
M  V30 906 O 88.8248 0.0449365 1.88446 0
M  V30 907 C 85.9518 0.468746 3.35441 0
M  V30 908 C 84.9978 1.52176 3.98428 0
M  V30 909 S 85.8308 3.10203 4.36503 0
M  V30 910 C 86.9868 2.61398 5.68702 0
M  V30 911 H 87.2198 1.89893 2.28753 0
M  V30 912 H 84.7528 1.07466 1.10862 0
M  V30 913 H 86.7108 0.184012 4.10087 0
M  V30 914 H 85.3718 -0.435688 3.11064 0
M  V30 915 H 84.5648 1.11876 4.91426 0
M  V30 916 H 84.1668 1.75632 3.30196 0
M  V30 917 H 86.4588 2.03992 6.4606 0
M  V30 918 H 87.4018 3.52972 6.13854 0
M  V30 919 H 87.8098 2.01941 5.27143 0
M  V30 920 N 87.2079 -1.17134 1.05439 0
M  V30 921 C 88.1179 -2.24878 0.668365 0
M  V30 922 C 89.1339 -1.71186 -0.311687 0
M  V30 923 O 90.3099 -2.00738 -0.163161 0
M  V30 924 C 87.3749 -3.46662 0.051648 0
M  V30 925 C 86.4359 -4.15429 1.08246 0
M  V30 926 C 85.6689 -5.31399 0.495082 0
M  V30 927 O 85.8919 -5.66153 -0.694743 0
M  V30 928 O 84.8259 -5.89187 1.23056 0
M  V30 929 H 88.6519 -2.60189 1.56637 0
M  V30 930 H 86.2369 -1.24482 0.826104 0
M  V30 931 H 88.1189 -4.20394 -0.290966 0
M  V30 932 H 86.7939 -3.13142 -0.819971 0
M  V30 933 H 85.7009 -3.43704 1.47711 0
M  V30 934 H 87.0339 -4.52982 1.92532 0
M  V30 935 N 88.686 -0.835752 -1.33615 0
M  V30 936 C 89.934 -0.429109 -1.97492 0
M  V30 937 C 90.255 1.01433 -1.66543 0
M  V30 938 O 89.525 1.70611 -0.962744 0
M  V30 939 H 88.105 -0.155686 -0.730596 0
M  V30 940 H 90.767 -1.06802 -1.63031 0
M  V30 941 H 89.863 -0.55861 -3.0706 0
M  V30 942 N 90.1641 1.46063 -0.591896 0
M  V30 943 C 91.4101 2.02638 -0.0811191 0
M  V30 944 C 91.7431 1.4613 1.27905 0
M  V30 945 O 91.0181 0.629908 1.84017 0
M  V30 946 C 91.3011 3.60091 -0.0252436 0
M  V30 947 C 91.1541 4.26965 -1.41496 0
M  V30 948 C 92.4731 4.3496 0.670685 0
M  V30 949 H 89.5921 0.73635 -0.0309524 0
M  V30 950 H 92.2341 1.741 -0.760859 0
M  V30 951 H 90.3841 3.84535 0.553624 0
M  V30 952 H 92.0561 4.13756 -2.0397 0
M  V30 953 H 90.2991 3.85971 -1.98011 0
M  V30 954 H 90.9701 5.35781 -1.32825 0
M  V30 955 H 93.4461 4.15716 0.178825 0
M  V30 956 H 92.3221 5.44686 0.678837 0
M  V30 957 H 92.5831 4.06685 1.73379 0
M  V30 958 N 91.6422 0.330177 1.54103 0
M  V30 959 C 92.5892 -0.532762 2.24567 0
M  V30 960 C 93.5592 -1.10635 1.23892 0
M  V30 961 O 94.7442 -1.14546 1.5259 0
M  V30 962 C 91.8842 -1.6845 3.01195 0
M  V30 963 C 90.9972 -1.13951 4.167 0
M  V30 964 C 90.1322 -2.25746 4.80845 0
M  V30 965 C 89.1712 -1.6853 5.88442 0
M  V30 966 N 88.3082 -2.74014 6.46421 0
M  V30 967 H 93.1482 0.0746905 2.97906 0
M  V30 968 H 90.6852 0.048632 1.4702 0
M  V30 969 H 92.6432 -2.36234 3.43874 0
M  V30 970 H 91.2732 -2.26314 2.30178 0
M  V30 971 H 90.3252 -0.35301 3.78758 0
M  V30 972 H 91.6372 -0.680892 4.94131 0
M  V30 973 H 90.7912 -3.01422 5.26526 0
M  V30 974 H 89.5302 -2.74947 4.0281 0
M  V30 975 H 88.5352 -0.913543 5.42157 0
M  V30 976 H 89.7602 -1.20198 6.68378 0
M  V30 977 H 87.7062 -3.22494 5.71256 0
M  V30 978 H 87.6232 -2.32735 7.19285 0
M  V30 979 H 88.8912 -3.49499 6.96757 0
M  V30 980 N 93.1203 -1.57491 0.0584922 0
M  V30 981 C 94.0503 -2.14988 -0.911178 0
M  V30 982 C 95.0313 -1.07343 -1.31952 0
M  V30 983 O 96.2163 -1.35318 -1.39294 0
M  V30 984 C 93.3463 -2.70078 -2.18347 0
M  V30 985 C 92.3003 -3.82771 -1.91495 0
M  V30 986 C 91.6263 -4.24408 -3.25241 0
M  V30 987 C 92.9263 -5.07592 -1.23075 0
M  V30 988 H 94.6203 -2.96263 -0.432246 0
M  V30 989 H 92.1663 -1.42512 -0.206469 0
M  V30 990 H 94.1193 -3.08943 -2.86587 0
M  V30 991 H 92.8433 -1.86005 -2.68458 0
M  V30 992 H 91.5023 -3.44389 -1.25664 0
M  V30 993 H 91.1503 -3.37275 -3.73168 0
M  V30 994 H 90.8503 -5.00366 -3.08071 0
M  V30 995 H 92.3743 -4.65879 -3.94701 0
M  V30 996 H 93.7883 -5.43857 -1.81362 0
M  V30 997 H 92.1853 -5.88741 -1.16207 0
M  V30 998 H 93.2553 -4.84454 -0.207847 0
M  V30 999 N 94.5984 0.214957 -1.56127 0
M  V30 1000 C 95.5084 1.28727 -1.96129 0
M  V30 1001 C 96.5244 1.50916 -0.866044 0
M  V30 1002 O 97.7004 1.63918 -1.17016 0
M  V30 1003 C 94.7654 2.61569 -2.27558 0
M  V30 1004 C 93.8264 2.47625 -3.50685 0
M  V30 1005 C 93.0594 3.74132 -3.80606 0
M  V30 1006 O 93.2824 4.77438 -3.12104 0
M  V30 1007 O 92.2164 3.70849 -4.74083 0
M  V30 1008 H 96.0424 0.977855 -2.87527 0
M  V30 1009 H 93.6274 0.418358 -1.43423 0
M  V30 1010 H 95.5094 3.40012 -2.48938 0
M  V30 1011 H 94.1844 2.92178 -1.39332 0
M  V30 1012 H 93.0914 1.67361 -3.34576 0
M  V30 1013 H 94.4244 2.21954 -4.39315 0
M  V30 1014 N 96.0765 1.50051 0.48192 0
M  V30 1015 C 97.0245 1.68635 1.60203 0
M  V30 1016 C 98.0185 0.552184 1.60148 0
M  V30 1017 O 99.2245 0.732377 1.64427 0
M  V30 1018 H 95.5995 0.532081 0.531407 0
M  V30 1019 H 97.5705 2.62616 1.41688 0
M  V30 1020 C 96.3195 1.78775 2.9822 0
M  V30 1021 H 95.6425 2.6543 2.98976 0
M  V30 1022 H 97.0825 1.95806 3.7608 0
M  V30 1023 C 95.5415 0.536849 3.32595 0
M  V30 1024 O 96.0715 -0.328897 4.00351 0
M  V30 1025 N 94.2775 0.394091 2.87915 0
M  V30 1026 H 93.8245 1.09962 2.32951 0
M  V30 1027 H 93.7825 -0.441737 3.11281 0
M  V30 1028 N 97.5546 -0.734337 1.39446 0
M  V30 1029 C 98.9706 -1.03997 1.21065 0
M  V30 1030 C 99.1706 -2.01369 0.0727019 0
M  V30 1031 O 98.2266 -2.45856 -0.575426 0
M  V30 1032 C 99.5396 -1.60163 2.54496 0
M  V30 1033 C 101.088 -1.7224 2.61347 0
M  V30 1034 C 101.563 -2.31814 3.95002 0
M  V30 1035 N 103.054 -2.39223 3.96644 0
M  V30 1036 C 103.789 -2.86258 4.96834 0
M  V30 1037 N 103.285 -3.33184 6.07421 0
M  V30 1038 N 105.078 -2.85473 4.84213 0
M  V30 1039 H 97.2286 -0.0885624 2.12215 0
M  V30 1040 H 99.4916 -0.10191 0.942506 0
M  V30 1041 H 99.1976 -0.960811 3.38321 0
M  V30 1042 H 99.0716 -2.5896 2.74262 0
M  V30 1043 H 101.459 -2.35443 1.77906 0
M  V30 1044 H 101.54 -0.720939 2.4543 0
M  V30 1045 H 101.184 -1.69238 4.78875 0
M  V30 1046 H 101.114 -3.32638 4.08239 0
M  V30 1047 H 103.605 -2.06057 3.16779 0
M  V30 1048 H 103.918 -3.67586 6.7978 0
M  V30 1049 H 102.263 -3.31191 6.11013 0
M  V30 1050 H 105.454 -2.48136 3.96921 0
M  V30 1051 H 105.627 -3.21814 5.62441 0
M  V30 1052 N 99.0327 -1.24633 -0.964593 0
M  V30 1053 C 100.261 -1.11501 -1.74285 0
M  V30 1054 C 100.676 0.332165 -1.85855 0
M  V30 1055 O 100.033 1.22903 -1.34911 0
M  V30 1056 C 100.084 -1.75258 -3.16175 0
M  V30 1057 O 99.8047 -3.14318 -3.05182 0
M  V30 1058 C 101.306 -1.67776 -4.10324 0
M  V30 1059 H 98.5257 -0.389407 -0.546446 0
M  V30 1060 H 101.07 -1.64801 -1.21083 0
M  V30 1061 H 99.2247 -1.25954 -3.66353 0
M  V30 1062 H 99.6387 -3.4551 -3.94618 0
M  V30 1063 H 101.113 -2.17064 -5.0753 0
M  V30 1064 H 101.59 -0.639584 -4.34518 0
M  V30 1065 H 102.196 -2.16522 -3.66058 0
M  V30 1066 N 100.511 1.16574 -1.06058 0
M  V30 1067 C 101.461 2.18854 -0.63929 0
M  V30 1068 C 102.445 1.57505 0.328798 0
M  V30 1069 O 103.637 1.76408 0.144623 0
M  V30 1070 C 100.766 3.43291 -0.0247203 0
M  V30 1071 C 99.8518 4.11722 -1.01716 0
M  V30 1072 N 100.243 4.55841 -2.19186 0
M  V30 1073 C 98.5408 4.37872 -0.847569 0
M  V30 1074 C 99.2418 5.08751 -2.82042 0
M  V30 1075 N 98.2178 5.01489 -2.09784 0
M  V30 1076 H 102.02 2.5068 -1.53417 0
M  V30 1077 H 99.5338 1.32999 -0.931935 0
M  V30 1078 H 101.531 4.15856 0.294915 0
M  V30 1079 H 100.191 3.12954 0.865448 0
M  V30 1080 H 101.202 4.49649 -2.56975 0
M  V30 1081 H 97.8788 4.17499 -0.00918848 0
M  V30 1082 H 99.2688 5.52944 -3.81709 0
M  V30 1083 N 101.989 0.842826 1.3317 0
M  V30 1084 C 102.952 0.284065 2.27433 0
M  V30 1085 C 103.952 -0.54948 1.5112 0
M  V30 1086 O 105.142 -0.362699 1.70382 0
M  V30 1087 C 102.274 -0.599384 3.35589 0
M  V30 1088 H 103.467 1.11589 2.78366 0
M  V30 1089 H 101.02 0.616221 1.4364 0
M  V30 1090 H 101.755 -1.45349 2.89904 0
M  V30 1091 H 101.54 -0.00291266 3.921 0
M  V30 1092 H 103.03 -0.983488 4.05854 0
M  V30 1093 N 103.467 -1.45747 0.599634 0
M  V30 1094 C 104.878 -1.85853 0.177681 0
M  V30 1095 C 105.229 -1.50102 -1.26348 0
M  V30 1096 O 104.354 -0.923905 -1.95686 0
M  V30 1097 C 104.949 -3.37326 0.315688 0
M  V30 1098 C 103.508 -3.76365 -0.0515144 0
M  V30 1099 C 102.655 -2.69722 0.643822 0
M  V30 1100 H 105.606 -1.36661 0.806814 0
M  V30 1101 H 105.627 -3.77778 -0.454321 0
M  V30 1102 H 105.139 -3.63315 1.36468 0
M  V30 1103 H 103.24 -3.55993 -1.09999 0
M  V30 1104 H 103.353 -4.77916 0.336594 0
M  V30 1105 H 101.717 -2.54567 0.0822881 0
M  V30 1106 H 102.5 -2.98549 1.6948 0
M  V30 1107 N 104.945 -0.338344 -1.53925 0
M  V30 1108 C 106.191 0.260143 -2.01125 0
M  V30 1109 C 106.524 1.50617 -1.22589 0
M  V30 1110 O 105.799 1.91979 -0.312113 0
M  V30 1111 C 106.082 0.579499 -3.55407 0
M  V30 1112 C 105.935 -0.678264 -4.44657 0
M  V30 1113 C 107.254 1.39122 -4.17532 0
M  V30 1114 H 104.373 0.0930772 -0.731099 0
M  V30 1115 H 107.015 -0.457852 -1.84401 0
M  V30 1116 H 105.165 1.19118 -3.69788 0
M  V30 1117 H 106.837 -1.31631 -4.42121 0
M  V30 1118 H 105.08 -1.3042 -4.13731 0
M  V30 1119 H 105.751 -0.410143 -5.50474 0
M  V30 1120 H 108.227 0.874035 -4.06817 0
M  V30 1121 H 107.103 1.58342 -5.25565 0
M  V30 1122 H 107.364 2.39178 -3.71815 0
M  V30 1123 N 106.423 1.57458 -0.0668435 0
M  V30 1124 C 107.7 1.8469 0.644132 0
M  V30 1125 C 108.08 0.958343 1.88093 0
M  V30 1126 O 107.428 0.0233579 2.28488 0
M  V30 1127 C 107.638 3.34767 0.986509 0
M  V30 1128 C 108.986 4.02159 1.36212 0
M  V30 1129 O 110.01 3.39484 1.07839 0
M  V30 1130 O 108.869 5.12694 1.89227 0
M  V30 1131 H 105.963 0.762816 0.319437 0
M  V30 1132 H 108.509 1.6942 -0.0973986 0
M  V30 1133 H 107.281 3.91151 0.107883 0
M  V30 1134 H 106.904 3.55281 1.78497 0
M  V30 1135 N 107.901 -0.206675 1.56239 0
M  V30 1136 C 109.148 -0.928842 1.79941 0
M  V30 1137 C 109.476 -1.83734 0.638131 0
M  V30 1138 O 108.731 -1.92039 -0.376746 0
M  V30 1139 C 109.03 -1.78675 3.09532 0
M  V30 1140 C 108.696 -1.03022 4.38973 0
M  V30 1141 C 107.358 -0.821302 4.74139 0
M  V30 1142 C 109.71 -0.497081 5.18824 0
M  V30 1143 C 107.038 -0.0675719 5.86661 0
M  V30 1144 C 109.39 0.24338 6.32132 0
M  V30 1145 C 108.054 0.463422 6.65889 0
M  V30 1146 H 107.324 -0.339887 0.658451 0
M  V30 1147 H 109.971 -0.195977 1.90495 0
M  V30 1148 H 108.276 -2.58794 2.94165 0
M  V30 1149 H 109.973 -2.34792 3.25075 0
M  V30 1150 H 106.563 -1.20306 4.11369 0
M  V30 1151 H 110.747 -0.645921 4.92079 0
M  V30 1152 H 106.003 0.112995 6.11296 0
M  V30 1153 H 110.177 0.66393 6.93228 0
M  V30 1154 H 107.804 1.04938 7.52922 0
M  V30 1155 N 109.379 -1.50304 -0.473955 0
M  V30 1156 C 110.656 -1.51667 -1.23518 0
M  V30 1157 C 111.036 -0.259701 -2.09496 0
M  V30 1158 O 110.384 0.756986 -2.15597 0
M  V30 1159 C 110.594 -2.81082 -2.06868 0
M  V30 1160 C 111.942 -3.31631 -2.65153 0
M  V30 1161 O 112.966 -2.82384 -2.17113 0
M  V30 1162 O 111.825 -4.17471 -3.52675 0
M  V30 1163 H 108.919 -0.60822 -0.560355 0
M  V30 1164 H 111.465 -1.62592 -0.486011 0
M  V30 1165 H 110.237 -3.64041 -1.4349 0
M  V30 1166 H 109.86 -2.73146 -2.88924 0
M  V30 1167 N 110.857 0.726932 -1.39834 0
M  V30 1168 C 112.085 1.51613 -1.40787 0
M  V30 1169 C 112.5 1.88799 -0.00451505 0
M  V30 1170 O 111.857 1.54662 0.968809 0
M  V30 1171 C 111.908 2.79863 -2.28821 0
M  V30 1172 O 111.629 2.44253 -3.63692 0
M  V30 1173 C 113.13 3.73837 -2.38245 0
M  V30 1174 H 110.35 0.468264 -0.480593 0
M  V30 1175 H 112.894 0.897607 -1.83748 0
M  V30 1176 H 111.049 3.38027 -1.89252 0
M  V30 1177 H 111.463 3.26695 -4.1033 0
M  V30 1178 H 112.937 4.60699 -3.04073 0
M  V30 1179 H 113.414 4.16153 -1.40403 0
M  V30 1180 H 114.02 3.21589 -2.78317 0
M  V30 1181 N 112.336 1.25143 0.95797 0
M  V30 1182 C 113.299 1.05321 2.03569 0
M  V30 1183 C 114.299 0.007152 1.60798 0
M  V30 1184 O 115.489 0.24903 1.72411 0
M  V30 1185 C 112.621 0.598394 3.35607 0
M  V30 1186 H 113.814 2.00986 2.22586 0
M  V30 1187 H 111.367 1.07502 1.13459 0
M  V30 1188 H 112.102 -0.361014 3.22284 0
M  V30 1189 H 111.887 1.35351 3.67998 0
M  V30 1190 H 113.377 0.48104 4.1482 0
M  V30 1191 N 113.814 -1.1601 1.06675 0
M  V30 1192 C 115.06 -1.86909 0.786945 0
M  V30 1193 C 115.393 -1.81717 -0.685018 0
M  V30 1194 O 114.668 -1.23551 -1.50218 0
M  V30 1195 C 114.951 -3.36313 1.28707 0
M  V30 1196 C 114.804 -3.50175 2.82308 0
M  V30 1197 C 116.123 -4.3084 0.898071 0
M  V30 1198 H 113.242 -0.678677 0.287343 0
M  V30 1199 H 115.884 -1.36336 1.32334 0
M  V30 1200 H 114.034 -3.79513 0.830768 0
M  V30 1201 H 115.706 -3.15886 3.36175 0
M  V30 1202 H 113.949 -2.91959 3.20847 0
M  V30 1203 H 114.62 -4.55116 3.12368 0
M  V30 1204 H 117.096 -3.95561 1.29114 0
M  V30 1205 H 115.972 -5.33876 1.27543 0
M  V30 1206 H 116.233 -4.41662 -0.196651 0
M  V30 1207 N 115.292 -0.849877 -1.32721 0
M  V30 1208 C 116.255 -0.296122 -2.27279 0
M  V30 1209 C 117.255 0.541458 -1.5141 0
M  V30 1210 O 118.445 0.353658 -1.70572 0
M  V30 1211 C 115.577 0.581579 -3.35902 0
M  V30 1212 H 116.77 -1.13064 -2.77771 0
M  V30 1213 H 114.323 -0.62383 -1.43311 0
M  V30 1214 H 115.058 1.43809 -2.9067 0
M  V30 1215 H 114.843 -0.0178814 -3.92096 0
M  V30 1216 H 116.333 0.961951 -4.0637 0
M  V30 1217 N 116.77 1.45427 -0.607355 0
M  V30 1218 C 117.995 2.07124 -0.107006 0
M  V30 1219 C 118.42 1.44906 1.19933 0
M  V30 1220 O 117.778 0.541687 1.73019 0
M  V30 1221 C 117.826 3.60595 0.0194119 0
M  V30 1222 O 116.93 3.98285 1.0697 0
M  V30 1223 H 116.271 0.659868 -0.0739597 0
M  V30 1224 H 118.801 1.86683 -0.837297 0
M  V30 1225 H 118.811 4.07419 0.2177 0
M  V30 1226 H 117.486 4.05266 -0.934453 0
M  V30 1227 H 116.063 3.63133 0.847889 0
M  V30 1228 N 118.248 0.346503 1.53744 0
M  V30 1229 C 119.476 -0.25041 2.05379 0
M  V30 1230 C 119.891 -1.43979 1.22129 0
M  V30 1231 O 119.248 -1.80677 0.257321 0
M  V30 1232 C 119.299 -0.662575 3.55376 0
M  V30 1233 O 119.02 0.479515 4.35468 0
M  V30 1234 C 120.521 -1.31989 4.23195 0
M  V30 1235 H 117.741 -0.0478198 0.669294 0
M  V30 1236 H 120.285 0.499346 1.9831 0
M  V30 1237 H 118.44 -1.36227 3.62658 0
M  V30 1238 H 118.854 0.15037 5.24284 0
M  V30 1239 H 120.328 -1.55902 5.29527 0
M  V30 1240 H 120.805 -2.27436 3.75725 0
M  V30 1241 H 121.411 -0.662154 4.20114 0
M  V30 1242 N 119.726 -1.57421 0.075193 0
M  V30 1243 C 120.975 -1.92794 -0.592731 0
M  V30 1244 C 121.288 -0.957478 -1.70563 0
M  V30 1245 O 122.494 -1.20417 -2.43335 0
M  V30 1246 C 120.95 -3.42495 -1.10569 0
M  V30 1247 C 120.558 -4.47994 -0.0236121 0
M  V30 1248 C 122.302 -3.86864 -1.74748 0
M  V30 1249 C 120.209 -5.88829 -0.550803 0
M  V30 1250 H 119.139 -0.719591 -0.225177 0
M  V30 1251 H 121.79 -1.82902 0.147978 0
M  V30 1252 H 120.172 -3.47471 -1.89947 0
M  V30 1253 H 121.346 -4.54637 0.751099 0
M  V30 1254 H 119.661 -4.13113 0.522159 0
M  V30 1255 H 122.258 -4.8947 -2.15229 0
M  V30 1256 H 122.601 -3.24417 -2.60882 0
M  V30 1257 H 123.134 -3.84504 -1.01986 0
M  V30 1258 H 119.873 -6.54929 0.273457 0
M  V30 1259 H 119.393 -5.85698 -1.29296 0
M  V30 1260 H 121.072 -6.38811 -1.02613 0
M  V30 1261 N 121.204 0.198386 -1.56346 0
M  V30 1262 C 122.432 0.935572 -1.84539 0
M  V30 1263 C 122.847 1.76989 -0.657281 0
M  V30 1264 O 122.204 1.78626 0.374043 0
M  V30 1265 C 122.255 1.8344 -3.11499 0
M  V30 1266 O 121.976 1.03377 -4.25728 0
M  V30 1267 C 123.477 2.68355 -3.52846 0
M  V30 1268 H 120.697 0.273126 -0.612897 0
M  V30 1269 H 123.241 0.20663 -2.03453 0
M  V30 1270 H 121.396 2.51701 -2.94492 0
M  V30 1271 H 121.81 1.64599 -4.98003 0
M  V30 1272 H 123.284 3.27085 -4.44657 0
M  V30 1273 H 123.761 3.41901 -2.75681 0
M  V30 1274 H 124.367 2.05471 -3.72373 0
M  V30 1275 N 122.682 1.50554 0.465978 0
M  V30 1276 C 123.907 1.65838 1.24549 0
M  V30 1277 C 124.332 0.343486 1.84937 0
M  V30 1278 O 123.69 -0.69324 1.67523 0
M  V30 1279 C 123.738 2.75533 2.32624 0
M  V30 1280 O 122.842 2.37142 3.37398 0
M  V30 1281 H 122.183 0.553893 0.366194 0
M  V30 1282 H 124.713 1.96959 0.553927 0
M  V30 1283 H 124.723 2.98763 2.77857 0
M  V30 1284 H 123.398 3.70962 1.88043 0
M  V30 1285 H 121.975 2.24377 2.97841 0
M  V30 1286 N 124.16 -0.719506 1.40217 0
M  V30 1287 C 125.11 -1.8251 1.36653 0
M  V30 1288 C 126.094 -1.59028 0.244732 0
M  V30 1289 O 127.286 -1.70268 0.483524 0
M  V30 1290 C 124.415 -3.20599 1.22763 0
M  V30 1291 C 123.501 -3.49858 2.39708 0
M  V30 1292 N 123.892 -3.49957 3.6519 0
M  V30 1293 C 122.19 -3.80297 2.33002 0
M  V30 1294 C 122.891 -3.77449 4.42614 0
M  V30 1295 N 121.867 -3.96002 3.72402 0
M  V30 1296 H 125.669 -1.80914 2.31619 0
M  V30 1297 H 123.183 -0.918455 1.33933 0
M  V30 1298 H 125.18 -3.99766 1.18292 0
M  V30 1299 H 123.84 -3.23424 0.287614 0
M  V30 1300 H 124.851 -3.309 3.98404 0
M  V30 1301 H 121.528 -3.90635 1.47346 0
M  V30 1302 H 122.918 -3.83863 5.51451 0
M  V30 1303 N 125.638 -1.25649 -0.95132 0
M  V30 1304 C 126.915 -1.01361 -1.67288 0
M  V30 1305 C 127.295 0.459135 -2.06046 0
M  V30 1306 O 126.643 1.43723 -1.7764 0
M  V30 1307 C 126.853 -1.95256 -2.89268 0
M  V30 1308 C 128.201 -2.23289 -3.61147 0
M  V30 1309 O 129.225 -1.93041 -2.99355 0
M  V30 1310 O 128.084 -2.74741 -4.72419 0
M  V30 1311 H 125.178 -0.38464 -0.732107 0
M  V30 1312 H 127.724 -1.36817 -1.00395 0
M  V30 1313 H 126.496 -2.94685 -2.57442 0
M  V30 1314 H 126.119 -1.60218 -3.6389 0
M  V30 1315 N 127.117 1.15442 -1.07289 0
M  V30 1316 C 128.08 2.18358 -0.696591 0
M  V30 1317 C 129.08 1.58637 0.262837 0
M  V30 1318 O 130.27 1.74145 0.0438809 0
M  V30 1319 C 127.402 3.4089 -0.0266151 0
M  V30 1320 H 128.595 2.53162 -1.60776 0
M  V30 1321 H 126.148 1.29893 -0.869342 0
M  V30 1322 H 126.883 3.11653 0.896822 0
M  V30 1323 H 126.668 3.85495 -0.716657 0
M  V30 1324 H 128.158 4.17009 0.222028 0
M  V30 1325 N 128.595 0.856903 1.32268 0
M  V30 1326 C 129.843 0.460474 1.96784 0
M  V30 1327 C 130.164 -0.987701 1.68135 0
M  V30 1328 O 129.434 -1.69058 0.989765 0
M  V30 1329 H 128.014 0.167289 0.728027 0
M  V30 1330 H 130.676 1.09383 1.61312 0
M  V30 1331 H 129.772 0.60739 3.06133 0
M  V30 1332 N 130.073 -1.45103 0.615059 0
M  V30 1333 C 131.303 -2.06254 0.119596 0
M  V30 1334 C 131.711 -1.4591 -1.20445 0
M  V30 1335 O 131.054 -0.570384 -1.7462 0
M  V30 1336 C 131.116 -3.59396 -0.0865591 0
M  V30 1337 C 130.78 -4.42116 1.15683 0
M  V30 1338 C 131.777 -4.7662 2.07676 0
M  V30 1339 C 129.462 -4.82749 1.38775 0
M  V30 1340 C 131.456 -5.50622 3.21082 0
M  V30 1341 C 129.143 -5.56504 2.52481 0
M  V30 1342 C 130.141 -5.90358 3.43463 0
M  V30 1343 O 129.829 -6.62615 4.55189 0
M  V30 1344 H 129.561 -0.672423 0.0694512 0
M  V30 1345 H 132.115 -1.87219 0.844885 0
M  V30 1346 H 130.345 -3.76859 -0.866823 0
M  V30 1347 H 132.034 -4.02365 -0.534555 0
M  V30 1348 H 132.8 -4.4578 1.91063 0
M  V30 1349 H 128.679 -4.55829 0.688545 0
M  V30 1350 H 132.223 -5.76965 3.92119 0
M  V30 1351 H 128.12 -5.86759 2.69043 0
M  V30 1352 H 128.888 -6.81071 4.53966 0
M  V30 1353 N 131.551 -0.354651 -1.53558 0
M  V30 1354 C 132.8 0.239504 -2.00273 0
M  V30 1355 C 133.113 1.50759 -1.24623 0
M  V30 1356 O 134.319 2.17968 -1.61871 0
M  V30 1357 C 132.775 0.477341 -3.5672 0
M  V30 1358 C 132.383 -0.775488 -4.41237 0
M  V30 1359 C 134.127 1.02975 -4.11821 0
M  V30 1360 C 132.034 -0.507838 -5.89216 0
M  V30 1361 H 130.964 0.0932743 -0.748208 0
M  V30 1362 H 133.615 -0.471701 -1.77334 0
M  V30 1363 H 131.997 1.24953 -3.7577 0
M  V30 1364 H 133.171 -1.54963 -4.33962 0
M  V30 1365 H 131.486 -1.25033 -3.97185 0
M  V30 1366 H 134.083 1.24513 -5.2 0
M  V30 1367 H 134.426 1.98862 -3.65731 0
M  V30 1368 H 134.959 0.317994 -3.96527 0
M  V30 1369 H 131.698 -1.43674 -6.39561 0
M  V30 1370 H 131.218 0.228011 -5.99366 0
M  V30 1371 H 132.897 -0.129238 -6.46871 0
M  V30 1372 N 133.029 1.57378 -0.0835403 0
M  V30 1373 C 133.977 2.14602 0.89714 0
M  V30 1374 C 134.971 1.08589 1.30018 0
M  V30 1375 O 136.177 1.26952 1.27606 0
M  V30 1376 H 132.552 0.686346 0.3073 0
M  V30 1377 H 134.523 2.95845 0.38969 0
M  V30 1378 C 133.272 2.73188 2.15089 0
M  V30 1379 H 132.595 3.54442 1.84962 0
M  V30 1380 H 134.035 3.1681 2.81793 0
M  V30 1381 C 132.494 1.68517 2.91725 0
M  V30 1382 O 133.024 1.11718 3.85852 0
M  V30 1383 N 131.23 1.39277 2.55049 0
M  V30 1384 H 130.777 1.85655 1.78577 0
M  V30 1385 H 130.735 0.694791 3.06627 0
M  V30 1386 N 134.507 -0.190092 1.56449 0
M  V30 1387 C 135.454 -1.23557 1.94942 0
M  V30 1388 C 136.424 -1.44972 0.810696 0
M  V30 1389 O 137.609 -1.58023 1.06927 0
M  V30 1390 C 134.749 -2.57416 2.2985 0
M  V30 1391 C 133.862 -2.43537 3.5681 0
M  V30 1392 C 132.997 -3.70134 3.81017 0
M  V30 1393 C 132.036 -3.51109 5.01387 0
M  V30 1394 N 131.173 -4.6973 5.21822 0
M  V30 1395 H 136.013 -0.900304 2.84075 0
M  V30 1396 H 133.55 -0.43318 1.40577 0
M  V30 1397 H 135.508 -3.35409 2.48106 0
M  V30 1398 H 134.138 -2.88975 1.43852 0
M  V30 1399 H 133.19 -1.56816 3.46573 0
M  V30 1400 H 134.502 -2.25415 4.4496 0
M  V30 1401 H 133.656 -4.56566 3.9954 0
M  V30 1402 H 132.395 -3.91215 2.91207 0
M  V30 1403 H 131.4 -2.63063 4.82782 0
M  V30 1404 H 132.625 -3.31468 5.9271 0
M  V30 1405 H 130.571 -4.91065 4.34961 0
M  V30 1406 H 130.488 -4.54452 6.0416 0
M  V30 1407 H 131.756 -5.57499 5.44808 0
M  V30 1408 N 135.985 -1.50799 -0.457987 0
M  V30 1409 C 136.917 -1.66786 -1.57211 0
M  V30 1410 C 137.93 -0.548962 -1.53265 0
M  V30 1411 O 139.119 -0.8226 -1.58416 0
M  V30 1412 C 136.219 -1.64834 -2.96113 0
M  V30 1413 C 135.392 -2.92971 -3.24787 0
M  V30 1414 C 134.451 -2.83485 -4.43309 0
M  V30 1415 O 133.477 -3.5744 -4.42973 0
M  V30 1416 N 134.679 -1.97929 -5.45714 0
M  V30 1417 H 137.444 -2.62889 -1.43909 0
M  V30 1418 H 135.005 -1.48427 -0.646617 0
M  V30 1419 H 136.997 -1.56084 -3.7339 0
M  V30 1420 H 135.567 -0.764118 -3.03117 0
M  V30 1421 H 134.787 -3.15749 -2.36 0
M  V30 1422 H 136.075 -3.77834 -3.40762 0
M  V30 1423 H 135.473 -1.37182 -5.48815 0
M  V30 1424 H 134.03 -1.95073 -6.21924 0
M  V30 1425 N 137.463 0.71206 -1.40597 0
M  V30 1426 C 138.393 1.83889 -1.43899 0
M  V30 1427 C 139.374 1.67442 -0.299504 0
M  V30 1428 O 140.559 1.87421 -0.508624 0
M  V30 1429 C 137.689 3.21877 -1.30431 0
M  V30 1430 C 136.643 3.53002 -2.42019 0
M  V30 1431 C 135.969 4.90172 -2.13626 0
M  V30 1432 C 137.269 3.53643 -3.84362 0
M  V30 1433 H 138.963 1.81383 -2.38203 0
M  V30 1434 H 136.509 0.871237 -1.14654 0
M  V30 1435 H 138.462 4.00404 -1.31357 0
M  V30 1436 H 137.186 3.24968 -0.326049 0
M  V30 1437 H 135.845 2.76818 -2.40349 0
M  V30 1438 H 135.493 4.89869 -1.14182 0
M  V30 1439 H 135.193 5.11962 -2.88389 0
M  V30 1440 H 136.717 5.71028 -2.1624 0
M  V30 1441 H 138.131 4.22203 -3.87837 0
M  V30 1442 H 136.528 3.86961 -4.58673 0
M  V30 1443 H 137.598 2.52954 -4.13693 0
M  V30 1444 N 138.941 1.26152 0.944643 0
M  V30 1445 C 139.851 1.09176 2.07648 0
M  V30 1446 C 140.867 0.0261935 1.7398 0
M  V30 1447 O 142.043 0.229208 2.00091 0
M  V30 1448 C 139.108 0.722915 3.39079 0
M  V30 1449 C 138.169 1.86752 3.86552 0
M  V30 1450 C 137.402 1.51617 5.11711 0
M  V30 1451 O 137.625 0.416331 5.68879 0
M  V30 1452 O 136.559 2.34975 5.54139 0
M  V30 1453 H 140.385 2.0412 2.24875 0
M  V30 1454 H 137.97 1.05182 1.061 0
M  V30 1455 H 139.852 0.529787 4.18056 0
M  V30 1456 H 138.527 -0.197159 3.23099 0
M  V30 1457 H 137.434 2.11558 3.08535 0
M  V30 1458 H 138.767 2.76719 4.07047 0
M  V30 1459 N 140.419 -1.14872 1.07899 0
M  V30 1460 C 141.366 -2.19791 0.704319 0
M  V30 1461 C 142.336 -1.63238 -0.306987 0
M  V30 1462 O 143.521 -1.8983 -0.192171 0
M  V30 1463 C 140.661 -3.44911 0.114244 0
M  V30 1464 C 139.774 -4.15637 1.1777 0
M  V30 1465 C 138.909 -5.28324 0.552037 0
M  V30 1466 C 137.948 -5.90875 1.59789 0
M  V30 1467 N 137.085 -6.95022 0.994404 0
M  V30 1468 H 141.925 -2.5119 1.60336 0
M  V30 1469 H 139.462 -1.23356 0.801352 0
M  V30 1470 H 141.42 -4.16477 -0.245544 0
M  V30 1471 H 140.05 -3.14011 -0.74813 0
M  V30 1472 H 139.102 -3.42512 1.65499 0
M  V30 1473 H 140.414 -4.5823 1.97046 0
M  V30 1474 H 139.568 -6.06538 0.1402 0
M  V30 1475 H 138.307 -4.86939 -0.272431 0
M  V30 1476 H 137.312 -5.11369 2.01945 0
M  V30 1477 H 138.537 -6.34337 2.42474 0
M  V30 1478 H 136.483 -6.55722 0.190939 0
M  V30 1479 H 136.4 -7.36073 1.72432 0
M  V30 1480 H 137.668 -7.77123 0.608253 0
M  V30 1481 N 141.898 -0.863906 -1.31812 0
M  V30 1482 C 143.147 -0.46801 -1.96195 0
M  V30 1483 C 143.46 0.983474 -1.69077 0
M  V30 1484 O 144.666 1.48523 -2.27273 0
M  V30 1485 C 143.122 -0.785995 -3.51212 0
M  V30 1486 C 142.73 -2.25383 -3.87178 0
M  V30 1487 C 144.474 -0.458274 -4.22019 0
M  V30 1488 C 142.381 -2.51455 -5.3528 0
M  V30 1489 H 141.311 -0.171283 -0.734287 0
M  V30 1490 H 143.962 -1.05597 -1.50072 0
M  V30 1491 H 142.344 -0.127359 -3.95795 0
M  V30 1492 H 143.518 -2.95502 -3.53575 0
M  V30 1493 H 141.833 -2.54698 -3.2942 0
M  V30 1494 H 144.43 -0.630369 -5.30971 0
M  V30 1495 H 144.773 0.600834 -4.11941 0
M  V30 1496 H 145.306 -1.07319 -3.8305 0
M  V30 1497 H 142.045 -3.56025 -5.50387 0
M  V30 1498 H 141.565 -1.85923 -5.70257 0
M  V30 1499 H 143.244 -2.35874 -6.02472 0
M  V30 1500 N 143.376 1.44774 -0.622745 0
M  V30 1501 C 144.622 2.0242 -0.124083 0
M  V30 1502 C 144.955 1.4881 1.24777 0
M  V30 1503 O 144.23 0.668799 1.8264 0
M  V30 1504 C 144.513 3.59957 -0.101619 0
M  V30 1505 C 144.366 4.23867 -1.50521 0
M  V30 1506 C 145.685 4.36284 0.578272 0
M  V30 1507 H 142.804 0.735528 -0.0465645 0
M  V30 1508 H 145.446 1.72447 -0.797617 0
M  V30 1509 H 143.596 3.85623 0.471934 0
M  V30 1510 H 145.268 4.09336 -2.12701 0
M  V30 1511 H 143.511 3.81684 -2.06154 0
M  V30 1512 H 144.182 5.32843 -1.4416 0
M  V30 1513 H 146.658 4.16001 0.0906057 0
M  V30 1514 H 145.534 5.46004 0.563149 0
M  V30 1515 H 145.795 4.10271 1.64713 0
M  V30 1516 N 144.854 0.36279 1.53368 0
M  V30 1517 C 146.102 -0.227326 2.00817 0
M  V30 1518 C 146.423 -1.49511 1.25186 0
M  V30 1519 O 145.693 -1.92482 0.364348 0
M  V30 1520 H 144.273 -0.0869923 0.741917 0
M  V30 1521 H 146.935 0.488381 1.88682 0
M  V30 1522 H 146.031 -0.456273 3.08747 0
M  V30 1523 N 146.332 -1.57332 0.0918853 0
M  V30 1524 C 147.262 -2.16872 -0.865371 0
M  V30 1525 C 148.243 -1.10118 -1.29646 0
M  V30 1526 O 149.428 -1.38242 -1.36392 0
M  V30 1527 C 146.558 -2.74649 -2.12569 0
M  V30 1528 C 145.512 -3.86747 -1.83333 0
M  V30 1529 C 144.838 -4.31212 -3.16166 0
M  V30 1530 C 146.138 -5.10089 -1.1228 0
M  V30 1531 H 147.832 -2.97114 -0.369307 0
M  V30 1532 H 145.378 -1.42918 -0.176194 0
M  V30 1533 H 147.331 -3.14952 -2.7997 0
M  V30 1534 H 146.055 -1.91657 -2.64452 0
M  V30 1535 H 144.714 -3.46978 -1.18331 0
M  V30 1536 H 144.362 -3.45115 -3.6593 0
M  V30 1537 H 144.062 -5.06788 -2.97388 0
M  V30 1538 H 145.586 -4.74146 -3.84731 0
M  V30 1539 H 147 -5.47582 -1.69785 0
M  V30 1540 H 145.397 -5.91073 -1.03693 0
M  V30 1541 H 146.467 -4.84786 -0.105041 0
M  V30 1542 N 147.81 0.181792 -1.56548 0
M  V30 1543 C 148.742 1.24956 -1.92142 0
M  V30 1544 C 149.755 1.41022 -0.813422 0
M  V30 1545 O 150.944 1.41212 -1.09186 0
M  V30 1546 C 148.044 2.61981 -2.14987 0
M  V30 1547 C 147.217 2.6735 -3.46183 0
M  V30 1548 C 146.276 3.85664 -3.5798 0
M  V30 1549 O 145.302 3.72148 -4.30691 0
M  V30 1550 N 146.504 5.01683 -2.92053 0
M  V30 1551 H 149.269 0.947329 -2.84334 0
M  V30 1552 H 146.83 0.371629 -1.57577 0
M  V30 1553 H 148.822 3.3958 -2.20154 0
M  V30 1554 H 147.392 2.84637 -1.2923 0
M  V30 1555 H 146.612 1.75925 -3.52766 0
M  V30 1556 H 147.9 2.67939 -4.32534 0
M  V30 1557 H 147.298 5.15564 -2.32832 0
M  V30 1558 H 145.855 5.77181 -3.0283 0
M  V30 1559 N 149.288 1.51039 0.449983 0
M  V30 1560 C 150.516 1.66869 1.2232 0
M  V30 1561 C 150.931 0.360727 1.85322 0
M  V30 1562 O 150.288 -0.659531 1.70166 0
M  V30 1563 C 150.339 2.77524 2.31652 0
M  V30 1564 O 150.06 4.03252 1.7123 0
M  V30 1565 C 151.561 3.04512 3.2216 0
M  V30 1566 H 148.781 0.560326 0.369155 0
M  V30 1567 H 151.325 1.97385 0.534719 0
M  V30 1568 H 149.48 2.49642 2.96239 0
M  V30 1569 H 149.894 4.64609 2.43389 0
M  V30 1570 H 151.368 3.85551 3.95038 0
M  V30 1571 H 151.845 2.16415 3.8218 0
M  V30 1572 H 152.451 3.34005 2.63288 0
M  V30 1573 N 150.766 -0.704594 1.40972 0
M  V30 1574 C 151.676 -1.84856 1.44448 0
M  V30 1575 C 152.692 -1.70726 0.335961 0
M  V30 1576 O 153.868 -1.92799 0.582276 0
M  V30 1577 C 150.933 -3.20758 1.31587 0
M  V30 1578 C 149.994 -3.47063 2.52677 0
M  V30 1579 C 149.227 -4.76481 2.4042 0
M  V30 1580 O 149.45 -5.52341 1.42391 0
M  V30 1581 O 148.384 -5.03367 3.30007 0
M  V30 1582 H 152.21 -1.8488 2.40942 0
M  V30 1583 H 149.795 -0.85647 1.22413 0
M  V30 1584 H 151.677 -4.01913 1.26665 0
M  V30 1585 H 150.352 -3.21438 0.382049 0
M  V30 1586 H 149.259 -2.65873 2.63177 0
M  V30 1587 H 150.592 -3.5119 3.44858 0
M  V30 1588 N 152.244 -1.26651 -0.937939 0
M  V30 1589 C 153.207 -1.08546 -2.01867 0
M  V30 1590 C 154.207 -0.0327327 -1.60767 0
M  V30 1591 O 155.397 -0.276427 -1.71993 0
M  V30 1592 C 152.529 -0.651711 -3.34613 0
M  V30 1593 H 153.722 -2.04502 -2.1936 0
M  V30 1594 H 151.275 -1.09294 -1.11734 0
M  V30 1595 H 152.01 0.309696 -3.22818 0
M  V30 1596 H 151.795 -1.41189 -3.65798 0
M  V30 1597 H 153.285 -0.546973 -4.14002 0
M  V30 1598 N 153.722 1.14298 -1.08507 0
M  V30 1599 C 155.133 1.66926 -0.836227 0
M  V30 1600 C 155.484 1.85576 0.63686 0
M  V30 1601 O 154.609 1.56767 1.49175 0
M  V30 1602 C 155.204 3.03219 -1.51142 0
M  V30 1603 C 153.763 3.52876 -1.30979 0
M  V30 1604 C 152.91 2.2833 -1.57356 0
M  V30 1605 H 155.861 0.983491 -1.24552 0
M  V30 1606 H 155.882 3.68726 -0.939211 0
M  V30 1607 H 155.394 2.89612 -2.58353 0
M  V30 1608 H 153.495 3.71703 -0.258429 0
M  V30 1609 H 153.608 4.33586 -2.03814 0
M  V30 1610 H 151.972 2.34454 -0.995164 0
M  V30 1611 H 152.755 2.17298 -2.65775 0
M  V30 1612 N 155.201 0.870884 1.31352 0
M  V30 1613 C 156.131 0.343096 2.30966 0
M  V30 1614 C 157.112 -0.566507 1.60389 0
M  V30 1615 O 158.297 -0.483336 1.88089 0
M  V30 1616 C 155.427 -0.455487 3.443 0
M  V30 1617 C 154.381 0.361103 4.26474 0
M  V30 1618 C 153.707 -0.563221 5.31725 0
M  V30 1619 C 155.007 1.59566 4.97329 0
M  V30 1620 H 156.701 1.17548 2.75359 0
M  V30 1621 H 154.247 0.566686 1.32381 0
M  V30 1622 H 156.2 -0.83525 4.13039 0
M  V30 1623 H 154.924 -1.32139 2.98675 0
M  V30 1624 H 153.583 0.722825 3.59403 0
M  V30 1625 H 153.231 -1.42643 4.82351 0
M  V30 1626 H 152.931 -0.0207409 5.87596 0
M  V30 1627 H 154.455 -0.939808 6.03324 0
M  V30 1628 H 155.869 1.28728 5.58661 0
M  V30 1629 H 154.266 2.07728 5.63 0
M  V30 1630 H 155.336 2.34798 4.24262 0
M  V30 1631 N 156.679 -1.44442 0.630414 0
M  V30 1632 C 157.626 -2.30678 -0.0749355 0
M  V30 1633 C 158.596 -1.4344 -0.837502 0
M  V30 1634 O 159.781 -1.72343 -0.818684 0
M  V30 1635 C 156.921 -3.28706 -1.05103 0
M  V30 1636 C 156.034 -4.31046 -0.286954 0
M  V30 1637 C 155.169 -5.16167 -1.2548 0
M  V30 1638 C 154.208 -6.10216 -0.479843 0
M  V30 1639 N 153.345 -6.88039 -1.39811 0
M  V30 1640 H 158.185 -2.90454 0.666386 0
M  V30 1641 H 155.722 -1.43107 0.340404 0
M  V30 1642 H 157.68 -3.84027 -1.63031 0
M  V30 1643 H 156.31 -2.70632 -1.75949 0
M  V30 1644 H 155.362 -3.78203 0.408243 0
M  V30 1645 H 156.674 -4.97794 0.316657 0
M  V30 1646 H 155.828 -5.76002 -1.90544 0
M  V30 1647 H 154.567 -4.49491 -1.89233 0
M  V30 1648 H 153.572 -5.49491 0.184295 0
M  V30 1649 H 154.797 -6.78928 0.152965 0
M  V30 1650 H 152.743 -6.24032 -2.02287 0
M  V30 1651 H 152.66 -7.51223 -0.848508 0
M  V30 1652 H 153.928 -7.52397 -2.03762 0
M  V30 1653 N 158.157 -0.370918 -1.53173 0
M  V30 1654 C 159.573 -0.0200818 -1.59587 0
M  V30 1655 C 159.773 1.46279 -1.38581 0
M  V30 1656 O 158.829 2.22506 -1.19363 0
M  V30 1657 C 160.142 -0.4808 -2.96831 0
M  V30 1658 C 161.69 -0.435477 -3.09956 0
M  V30 1659 C 162.165 -0.872092 -4.4962 0
M  V30 1660 N 163.656 -0.827364 -4.55751 0
M  V30 1661 C 164.391 -1.13683 -5.62018 0
M  V30 1662 N 163.887 -1.51584 -6.76014 0
M  V30 1663 N 165.68 -1.05927 -5.52029 0
M  V30 1664 H 157.831 -1.33652 -1.65079 0
M  V30 1665 H 160.094 -0.546634 -0.774529 0
M  V30 1666 H 159.8 -1.51577 -3.1736 0
M  V30 1667 H 159.674 0.129796 -3.76977 0
M  V30 1668 H 162.061 0.590371 -2.89134 0
M  V30 1669 H 162.142 -1.08164 -2.31806 0
M  V30 1670 H 161.786 -1.89608 -4.71181 0
M  V30 1671 H 161.716 -0.203127 -5.26208 0
M  V30 1672 H 164.207 -0.548216 -3.73902 0
M  V30 1673 H 164.52 -1.73609 -7.53047 0
M  V30 1674 H 162.865 -1.55454 -6.77391 0
M  V30 1675 H 166.056 -0.762321 -4.61851 0
M  V30 1676 H 166.229 -1.30378 -6.34749 0
M  V30 1677 N 159.635 1.57281 -0.100228 0
M  V30 1678 C 160.598 2.13158 0.842398 0
M  V30 1679 C 161.598 1.06202 1.20738 0
M  V30 1680 O 162.788 1.32066 1.13597 0
M  V30 1681 C 159.92 2.65639 2.13655 0
M  V30 1682 H 161.113 2.97766 0.357114 0
M  V30 1683 H 158.666 1.5559 0.148823 0
M  V30 1684 H 159.401 1.84566 2.66657 0
M  V30 1685 H 159.186 3.43844 1.88451 0
M  V30 1686 H 160.676 3.08846 2.81077 0
M  V30 1687 N 161.113 -0.173488 1.56642 0
M  V30 1688 C 162.043 -1.2171 1.99271 0
M  V30 1689 C 163.024 -1.46289 0.867959 0
M  V30 1690 O 164.209 -1.5766 1.13388 0
M  V30 1691 C 161.339 -2.55651 2.35074 0
M  V30 1692 C 160.293 -2.45645 3.50489 0
M  V30 1693 C 159.619 -3.84056 3.72028 0
M  V30 1694 C 160.919 -1.96302 4.84007 0
M  V30 1695 H 162.613 -0.86275 2.867 0
M  V30 1696 H 160.159 -0.413571 1.37933 0
M  V30 1697 H 162.112 -3.2886 2.63494 0
M  V30 1698 H 160.836 -2.92869 1.44552 0
M  V30 1699 H 159.495 -1.7489 3.22194 0
M  V30 1700 H 159.143 -4.18664 2.788 0
M  V30 1701 H 158.843 -3.7823 4.49684 0
M  V30 1702 H 160.367 -4.58854 4.02846 0
M  V30 1703 H 161.781 -2.59284 5.11317 0
M  V30 1704 H 160.178 -2.01429 5.65284 0
M  V30 1705 H 161.248 -0.917226 4.76146 0
M  V30 1706 N 162.591 -1.51276 -0.441967 0
M  V30 1707 C 163.84 -1.6295 -1.18871 0
M  V30 1708 C 164.153 -0.349312 -1.92456 0
M  V30 1709 O 165.359 -0.345355 -2.69295 0
M  V30 1710 C 163.815 -2.87759 -2.16155 0
M  V30 1711 C 163.423 -4.22764 -1.48239 0
M  V30 1712 C 165.167 -3.08788 -2.91291 0
M  V30 1713 C 163.074 -5.38728 -2.4398 0
M  V30 1714 H 162.004 -0.606913 -0.447406 0
M  V30 1715 H 164.655 -1.77739 -0.456205 0
M  V30 1716 H 163.037 -2.66593 -2.92821 0
M  V30 1717 H 164.211 -4.54293 -0.771635 0
M  V30 1718 H 162.526 -4.07575 -0.852741 0
M  V30 1719 H 165.123 -3.92599 -3.63002 0
M  V30 1720 H 165.466 -2.21679 -3.5237 0
M  V30 1721 H 165.999 -3.30272 -2.21733 0
M  V30 1722 H 162.738 -6.28082 -1.87598 0
M  V30 1723 H 162.258 -5.1158 -3.13123 0
M  V30 1724 H 163.937 -5.70489 -3.05207 0
M  V30 1725 N 164.069 0.697108 -1.41344 0
M  V30 1726 C 165.48 1.27697 -1.36199 0
M  V30 1727 C 165.831 1.9615 -0.0443463 0
M  V30 1728 O 164.956 1.98689 0.857419 0
M  V30 1729 C 165.551 2.32223 -2.46694 0
M  V30 1730 C 164.11 2.8579 -2.44952 0
M  V30 1731 C 163.257 1.59807 -2.26621 0
M  V30 1732 H 166.208 0.491968 -1.50882 0
M  V30 1733 H 166.229 3.1348 -2.15664 0
M  V30 1734 H 165.741 1.82373 -3.42581 0
M  V30 1735 H 163.842 3.3982 -1.52817 0
M  V30 1736 H 163.955 3.36325 -3.41207 0
M  V30 1737 H 162.319 1.8556 -1.7447 0
M  V30 1738 H 163.102 1.11956 -3.24532 0
M  V30 1739 N 165.547 1.27147 0.931209 0
M  V30 1740 C 166.794 1.13278 1.67852 0
M  V30 1741 C 167.122 -0.32204 1.91815 0
M  V30 1742 O 166.377 -1.25224 1.50391 0
M  V30 1743 C 166.676 1.8579 3.05314 0
M  V30 1744 C 166.342 3.35657 3.01073 0
M  V30 1745 C 165.004 3.76536 2.99623 0
M  V30 1746 C 167.356 4.31299 2.92627 0
M  V30 1747 C 164.684 5.11426 2.87506 0
M  V30 1748 C 167.036 5.66242 2.82051 0
M  V30 1749 C 165.7 6.06418 2.7895 0
M  V30 1750 H 164.97 0.414515 0.614214 0
M  V30 1751 H 167.617 1.57712 1.08624 0
M  V30 1752 H 165.922 1.33854 3.68226 0
M  V30 1753 H 167.619 1.72491 3.62005 0
M  V30 1754 H 164.209 3.03146 3.02986 0
M  V30 1755 H 168.393 4.00692 2.92848 0
M  V30 1756 H 163.649 5.41705 2.83489 0
M  V30 1757 H 167.823 6.40026 2.74481 0
M  V30 1758 H 165.45 7.10895 2.69318 0
M  V30 1759 N 167.025 -1.13721 1.09112 0
M  V30 1760 C 168.273 -1.84559 0.823562 0
M  V30 1761 C 168.594 -1.83754 -0.652658 0
M  V30 1762 O 167.864 -1.29102 -1.47342 0
M  V30 1763 H 166.444 -0.683376 0.301673 0
M  V30 1764 H 169.106 -1.37771 1.37859 0
M  V30 1765 H 168.202 -2.8917 1.17419 0
M  V30 1766 N 168.503 -0.877838 -1.30888 0
M  V30 1767 C 169.751 -0.491723 -1.96027 0
M  V30 1768 C 170.072 0.960827 -1.69685 0
M  V30 1769 O 169.342 1.67462 -1.01654 0
M  V30 1770 H 167.922 -0.17885 -0.725273 0
M  V30 1771 H 170.584 -1.11935 -1.59551 0
M  V30 1772 H 169.68 -0.656016 -3.05128 0
M  V30 1773 N 169.982 1.44106 -0.638065 0
M  V30 1774 C 171.231 2.01194 -0.142744 0
M  V30 1775 C 171.544 1.50835 1.24532 0
M  V30 1776 O 172.75 2.00096 1.83504 0
M  V30 1777 C 171.206 3.59319 -0.20442 0
M  V30 1778 C 170.814 4.18674 -1.59423 0
M  V30 1779 C 172.558 4.23854 0.234079 0
M  V30 1780 C 170.465 5.69045 -1.61065 0
M  V30 1781 H 169.395 0.752367 -0.0495998 0
M  V30 1782 H 172.046 1.65246 -0.797881 0
M  V30 1783 H 170.428 3.92598 0.517946 0
M  V30 1784 H 171.602 3.96921 -2.34074 0
M  V30 1785 H 169.917 3.66453 -1.97741 0
M  V30 1786 H 172.514 5.34155 0.241443 0
M  V30 1787 H 172.857 3.96688 1.2627 0
M  V30 1788 H 173.39 3.95403 -0.436025 0
M  V30 1789 H 170.129 6.00956 -2.61787 0
M  V30 1790 H 169.649 5.929 -0.90718 0
M  V30 1791 H 171.328 6.32809 -1.34766 0
M  V30 1792 N 171.46 0.379036 1.52974 0
M  V30 1793 C 172.407 -0.461048 2.26148 0
M  V30 1794 C 173.377 -1.06637 1.27349 0
M  V30 1795 O 174.562 -1.09633 1.56157 0
M  V30 1796 C 171.702 -1.58782 3.06402 0
M  V30 1797 C 170.815 -1.00636 4.20115 0
M  V30 1798 C 169.95 -2.10334 4.87784 0
M  V30 1799 C 168.989 -1.49724 5.93506 0
M  V30 1800 N 168.126 -2.5331 6.54812 0
M  V30 1801 H 172.966 0.169429 2.97518 0
M  V30 1802 H 170.503 0.0953806 1.4679 0
M  V30 1803 H 172.461 -2.25174 3.51215 0
M  V30 1804 H 171.091 -2.18876 2.37261 0
M  V30 1805 H 170.143 -0.232332 3.7969 0
M  V30 1806 H 171.455 -0.523343 4.96047 0
M  V30 1807 H 170.609 -2.84519 5.35849 0
M  V30 1808 H 169.348 -2.61992 4.11353 0
M  V30 1809 H 168.353 -0.740598 5.44789 0
M  V30 1810 H 169.578 -0.988732 6.71864 0
M  V30 1811 H 167.524 -3.04156 5.81227 0
M  V30 1812 H 167.441 -2.09734 7.26325 0
M  V30 1813 H 168.709 -3.27155 7.07524 0
M  V30 1814 N 172.938 -1.57226 0.108567 0
M  V30 1815 C 173.871 -2.10447 -0.882464 0
M  V30 1816 C 174.849 -1.01829 -1.26766 0
M  V30 1817 O 176.033 -1.29415 -1.37054 0
M  V30 1818 C 173.16 -2.59258 -2.17952 0
M  V30 1819 C 172.206 -3.79662 -1.94318 0
M  V30 1820 S 173.039 -5.22586 -1.16892 0
M  V30 1821 C 174.195 -5.74758 -2.47799 0
M  V30 1822 H 174.428 -2.94178 -0.429745 0
M  V30 1823 H 171.961 -1.54043 -0.105 0
M  V30 1824 H 173.919 -2.88036 -2.92482 0
M  V30 1825 H 172.58 -1.75728 -2.60343 0
M  V30 1826 H 171.773 -4.11928 -2.90399 0
M  V30 1827 H 171.375 -3.51446 -1.27913 0
M  V30 1828 H 173.667 -5.83846 -3.43701 0
M  V30 1829 H 174.61 -6.73027 -2.20093 0
M  V30 1830 H 175.018 -5.02763 -2.56689 0
M  V30 1831 N 174.416 0.165178 -1.56732 0
M  V30 1832 C 175.665 0.879143 -1.81532 0
M  V30 1833 C 175.978 1.83144 -0.686842 0
M  V30 1834 O 177.184 2.58823 -0.819944 0
M  V30 1835 C 175.64 1.61388 -3.21686 0
M  V30 1836 C 175.248 0.704904 -4.4242 0
M  V30 1837 C 176.992 2.3157 -3.55774 0
M  V30 1838 C 174.899 1.44022 -5.73595 0
M  V30 1839 H 173.829 0.332033 -0.676957 0
M  V30 1840 H 176.48 0.132008 -1.83025 0
M  V30 1841 H 174.862 2.40599 -3.14529 0
M  V30 1842 H 176.036 -0.0506815 -4.60772 0
M  V30 1843 H 174.351 0.112419 -4.16248 0
M  V30 1844 H 176.948 2.8719 -4.51028 0
M  V30 1845 H 177.291 3.07201 -2.8095 0
M  V30 1846 H 177.824 1.59297 -3.64513 0
M  V30 1847 H 174.563 0.72612 -6.51466 0
M  V30 1848 H 174.083 2.16898 -5.5921 0
M  V30 1849 H 175.762 1.98606 -6.15764 0
M  V30 1850 N 175.894 1.51508 0.433938 0
M  V30 1851 C 176.804 1.75917 1.5521 0
M  V30 1852 C 177.82 0.643545 1.61662 0
M  V30 1853 O 178.996 0.926183 1.7884 0
M  V30 1854 C 176.061 1.88213 2.91164 0
M  V30 1855 C 175.122 3.12074 2.94802 0
M  V30 1856 C 174.355 3.23774 4.24271 0
M  V30 1857 O 174.578 2.4133 5.16833 0
M  V30 1858 O 173.512 4.16774 4.34262 0
M  V30 1859 H 177.338 2.70777 1.37527 0
M  V30 1860 H 174.923 1.36051 0.617293 0
M  V30 1861 H 176.805 1.98267 3.71845 0
M  V30 1862 H 175.48 0.965413 3.08968 0
M  V30 1863 H 174.387 3.07497 2.13065 0
M  V30 1864 H 175.72 4.03446 2.81943 0
M  V30 1865 N 177.372 -0.689602 1.41712 0
M  V30 1866 C 178.62 -1.4468 1.4111 0
M  V30 1867 C 178.941 -1.94986 0.0232196 0
M  V30 1868 O 178.211 -1.72097 -0.935913 0
M  V30 1869 H 176.791 -0.536847 0.519427 0
M  V30 1870 H 179.453 -0.815825 1.77004 0
M  V30 1871 H 178.549 -2.30706 2.10193 0
M  V30 1872 N 178.85 -1.27639 -0.924453 0
M  V30 1873 C 180.075 -1.17101 -1.71179 0
M  V30 1874 C 180.5 0.268134 -1.86179 0
M  V30 1875 O 179.858 1.19415 -1.36418 0
M  V30 1876 C 179.906 -1.86313 -3.08739 0
M  V30 1877 O 179.01 -1.16331 -3.95652 0
M  V30 1878 H 178.351 -0.407091 -0.524569 0
M  V30 1879 H 180.881 -1.68767 -1.15666 0
M  V30 1880 H 180.891 -1.938 -3.59034 0
M  V30 1881 H 179.566 -2.91001 -2.97138 0
M  V30 1882 H 178.143 -1.16935 -3.54091 0
M  V30 1883 N 180.328 1.1314 -1.09713 0
M  V30 1884 C 181.568 1.8613 -0.844683 0
M  V30 1885 C 181.932 1.81765 0.618491 0
M  V30 1886 O 183.133 2.50024 0.98699 0
M  V30 1887 C 181.404 3.30151 -1.36877 0
M  V30 1888 S 182.963 4.206 -1.25064 0
M  V30 1889 H 179.781 0.642056 -0.305427 0
M  V30 1890 H 182.383 1.36343 -1.4011 0
M  V30 1891 H 181.087 3.30883 -2.42786 0
M  V30 1892 H 180.618 3.85 -0.808614 0
M  V30 1893 H 182.633 4.95783 -0.203486 0
M  V30 1894 N 181.806 0.884767 1.30421 0
M  V30 1895 C 182.753 0.349642 2.28136 0
M  V30 1896 C 183.723 -0.560061 1.56373 0
M  V30 1897 O 184.908 -0.488524 1.8444 0
M  V30 1898 C 182.048 -0.42999 3.42411 0
M  V30 1899 C 181.161 0.508907 4.28992 0
M  V30 1900 C 180.296 -0.286301 5.30428 0
M  V30 1901 C 179.335 0.648079 6.08659 0
M  V30 1902 N 178.472 -0.111792 7.02011 0
M  V30 1903 H 183.312 1.18807 2.73293 0
M  V30 1904 H 180.849 0.597231 1.3443 0
M  V30 1905 H 182.807 -0.897923 4.07423 0
M  V30 1906 H 181.437 -1.23299 2.98324 0
M  V30 1907 H 180.489 1.09533 3.64289 0
M  V30 1908 H 181.801 1.22475 4.8353 0
M  V30 1909 H 180.955 -0.816098 6.01186 0
M  V30 1910 H 179.694 -1.03536 4.76583 0
M  V30 1911 H 178.699 1.18951 5.36778 0
M  V30 1912 H 179.924 1.39623 6.64592 0
M  V30 1913 H 177.87 -0.843395 6.50556 0
M  V30 1914 H 177.787 0.544429 7.54037 0
M  V30 1915 H 179.055 -0.622339 7.77012 0
M  V30 1916 N 183.284 -1.43765 0.645699 0
M  V30 1917 C 184.247 -2.29163 -0.0409488 0
M  V30 1918 C 185.247 -1.41813 -0.757996 0
M  V30 1919 O 186.437 -1.63527 -0.600382 0
M  V30 1920 C 183.569 -3.23716 -1.06869 0
M  V30 1921 H 184.762 -2.91366 0.710345 0
M  V30 1922 H 182.315 -1.5092 0.406547 0
M  V30 1923 H 183.05 -2.66393 -1.84947 0
M  V30 1924 H 182.835 -3.88105 -0.558277 0
M  V30 1925 H 184.325 -3.87831 -1.54845 0
M  V30 1926 N 184.763 -0.387143 -1.52771 0
M  V30 1927 C 185.993 0.195585 -2.05672 0
M  V30 1928 C 186.401 1.41241 -1.25887 0
M  V30 1929 O 185.744 1.81265 -0.298081 0
M  V30 1930 C 185.806 0.632327 -3.53895 0
M  V30 1931 C 185.47 -0.470739 -4.54569 0
M  V30 1932 C 186.467 -1.32746 -5.02667 0
M  V30 1933 C 184.152 -0.637151 -4.98243 0
M  V30 1934 C 186.146 -2.33574 -5.93061 0
M  V30 1935 C 183.833 -1.64877 -5.88438 0
M  V30 1936 C 184.831 -2.49649 -6.35739 0
M  V30 1937 O 184.519 -3.49082 -7.24153 0
M  V30 1938 H 184.251 0.033658 -0.675162 0
M  V30 1939 H 186.805 -0.550221 -1.97893 0
M  V30 1940 H 185.035 1.43008 -3.59285 0
M  V30 1941 H 186.724 1.14048 -3.89548 0
M  V30 1942 H 187.49 -1.21019 -4.69659 0
M  V30 1943 H 183.369 0.0129567 -4.60998 0
M  V30 1944 H 186.913 -2.99777 -6.29904 0
M  V30 1945 H 182.81 -1.76643 -6.2086 0
M  V30 1946 H 183.578 -3.45065 -7.42208 0
M  V30 1947 N 186.241 1.57166 -0.116904 0
M  V30 1948 C 187.189 2.16457 0.851418 0
M  V30 1949 C 188.183 1.11323 1.27686 0
M  V30 1950 O 189.389 1.2963 1.24884 0
M  V30 1951 H 185.764 0.69271 0.292672 0
M  V30 1952 H 187.735 2.96605 0.32685 0
M  V30 1953 C 186.484 2.77689 2.09246 0
M  V30 1954 H 185.807 3.58285 1.77402 0
M  V30 1955 H 187.247 3.22716 2.7501 0
M  V30 1956 C 185.706 1.74667 2.88085 0
M  V30 1957 O 186.236 1.19877 3.83396 0
M  V30 1958 N 184.442 1.44656 2.52038 0
M  V30 1959 H 183.989 1.89402 1.74599 0
M  V30 1960 H 183.947 0.759675 3.05084 0
M  V30 1961 N 187.719 -0.156864 1.56817 0
M  V30 1962 C 189.135 -0.50916 1.5126 0
M  V30 1963 C 189.335 -1.83897 0.823658 0
M  V30 1964 O 188.391 -2.49469 0.390055 0
M  V30 1965 C 189.704 -0.52857 2.96018 0
M  V30 1966 C 191.252 -0.614771 3.06903 0
M  V30 1967 C 191.727 -0.664938 4.53147 0
M  V30 1968 N 193.218 -0.727433 4.57452 0
M  V30 1969 C 193.953 -0.787067 5.67973 0
M  V30 1970 N 193.449 -0.806649 6.88088 0
M  V30 1971 N 195.242 -0.827195 5.5598 0
M  V30 1972 H 187.393 0.714935 2.00006 0
M  V30 1973 H 189.656 0.259526 0.911784 0
M  V30 1974 H 189.362 0.380154 3.49639 0
M  V30 1975 H 189.236 -1.36998 3.51442 0
M  V30 1976 H 191.623 -1.51392 2.53307 0
M  V30 1977 H 191.704 0.253597 2.5454 0
M  V30 1978 H 191.348 0.230011 5.07379 0
M  V30 1979 H 191.278 -1.54966 5.03282 0
M  V30 1980 H 193.769 -0.719998 3.70978 0
M  V30 1981 H 194.082 -0.853727 7.6807 0
M  V30 1982 H 192.427 -0.774687 6.90669 0
M  V30 1983 H 195.618 -0.808998 4.61056 0
M  V30 1984 H 195.791 -0.870206 6.4213 0
M  V30 1985 N 189.197 -1.51736 -0.425897 0
M  V30 1986 C 190.107 -1.76738 -1.54275 0
M  V30 1987 C 191.123 -0.65211 -1.61318 0
M  V30 1988 O 192.299 -0.935654 -1.78346 0
M  V30 1989 C 189.364 -1.89755 -2.90162 0
M  V30 1990 C 188.425 -3.13633 -2.93143 0
M  V30 1991 C 187.658 -3.2602 -4.22548 0
M  V30 1992 O 187.881 -2.44067 -5.15546 0
M  V30 1993 O 186.815 -4.19071 -4.32046 0
M  V30 1994 H 190.641 -2.71502 -1.36089 0
M  V30 1995 H 188.226 -1.36376 -0.610069 0
M  V30 1996 H 190.108 -2.00236 -3.70788 0
M  V30 1997 H 188.783 -0.981785 -3.08452 0
M  V30 1998 H 187.69 -3.08622 -2.11431 0
M  V30 1999 H 189.023 -4.04936 -2.798 0
M  V30 2000 N 190.675 0.682077 -1.42076 0
M  V30 2001 C 191.605 1.80796 -1.47767 0
M  V30 2002 C 192.586 1.6677 -0.334954 0
M  V30 2003 O 193.771 1.863 -0.548264 0
M  V30 2004 C 190.901 3.19038 -1.37229 0
M  V30 2005 C 189.855 3.47789 -2.49453 0
M  V30 2006 C 189.181 4.8553 -2.23975 0
M  V30 2007 C 190.481 3.45411 -3.91776 0
M  V30 2008 H 192.175 1.7629 -2.41997 0
M  V30 2009 H 189.721 0.846721 -1.16476 0
M  V30 2010 H 191.674 3.97528 -1.39821 0
M  V30 2011 H 190.398 3.24204 -0.394907 0
M  V30 2012 H 189.057 2.71657 -2.46166 0
M  V30 2013 H 188.705 4.87337 -1.24547 0
M  V30 2014 H 188.405 5.0573 -2.99184 0
M  V30 2015 H 189.929 5.66312 -2.28304 0
M  V30 2016 H 191.343 4.13882 -3.96705 0
M  V30 2017 H 189.74 3.77145 -4.66778 0
M  V30 2018 H 190.81 2.44122 -4.18966 0
M  V30 2019 N 192.153 1.28127 0.917671 0
M  V30 2020 C 193.43 1.05761 1.64542 0
M  V30 2021 C 193.81 -0.404344 2.07191 0
M  V30 2022 O 193.158 -1.38963 1.81388 0
M  V30 2023 C 193.368 2.02857 2.83989 0
M  V30 2024 C 194.716 2.32786 3.551 0
M  V30 2025 O 195.74 2.0091 2.94132 0
M  V30 2026 O 194.599 2.87169 4.64969 0
M  V30 2027 H 191.693 0.403916 0.721652 0
M  V30 2028 H 194.239 1.39431 0.967322 0
M  V30 2029 H 193.011 3.01407 2.49538 0
M  V30 2030 H 192.634 1.69809 3.59514 0
M  V30 2031 N 193.631 -1.12557 1.10312 0
M  V30 2032 C 195.042 -1.65574 0.862678 0
M  V30 2033 C 195.393 -1.86566 -0.607256 0
M  V30 2034 O 194.518 -1.59121 -1.46662 0
M  V30 2035 C 195.113 -3.00776 1.55947 0
M  V30 2036 C 193.672 -3.50748 1.36576 0
M  V30 2037 C 192.819 -2.25797 1.60968 0
M  V30 2038 H 195.77 -0.963552 1.26101 0
M  V30 2039 H 195.791 -3.67185 0.997753 0
M  V30 2040 H 195.303 -2.85465 2.62928 0
M  V30 2041 H 193.404 -3.71245 0.317531 0
M  V30 2042 H 193.517 -4.30289 2.10686 0
M  V30 2043 H 191.881 -2.32841 1.03234 0
M  V30 2044 H 192.664 -2.13043 2.69198 0
M  V30 2045 N 195.109 -0.891671 -1.2995 0
M  V30 2046 C 196.042 -0.307994 -2.26112 0
M  V30 2047 C 197.02 0.575262 -1.52084 0
M  V30 2048 O 198.204 0.523864 -1.81074 0
M  V30 2049 C 195.331 0.561734 -3.34009 0
M  V30 2050 C 194.377 -0.253107 -4.25748 0
M  V30 2051 S 195.21 -1.64572 -5.09584 0
M  V30 2052 C 196.366 -0.782699 -6.20987 0
M  V30 2053 H 196.599 -1.12309 -2.75271 0
M  V30 2054 H 194.132 -0.691509 -1.38049 0
M  V30 2055 H 196.09 1.05777 -3.96638 0
M  V30 2056 H 194.751 1.35099 -2.83561 0
M  V30 2057 H 193.944 0.410908 -5.02322 0
M  V30 2058 H 193.546 -0.682004 -3.67729 0
M  V30 2059 H 195.838 -0.00257476 -6.775 0
M  V30 2060 H 196.781 -1.52026 -6.91588 0
M  V30 2061 H 197.189 -0.340638 -5.63471 0
M  V30 2062 N 196.587 1.43421 -0.653314 0
M  V30 2063 C 197.836 2.01032 -0.164076 0
M  V30 2064 C 198.149 1.52147 1.22926 0
M  V30 2065 O 199.355 2.02031 1.81371 0
M  V30 2066 C 197.811 3.59082 -0.24252 0
M  V30 2067 C 197.419 4.1696 -1.63855 0
M  V30 2068 C 199.163 4.24079 0.18911 0
M  V30 2069 C 197.07 5.67304 -1.67092 0
M  V30 2070 H 196 0.751798 -0.0575769 0
M  V30 2071 H 198.651 1.6439 -0.815362 0
M  V30 2072 H 197.033 3.93125 0.476276 0
M  V30 2073 H 198.207 3.94416 -2.38271 0
M  V30 2074 H 196.522 3.64335 -2.01616 0
M  V30 2075 H 199.119 5.34381 0.184775 0
M  V30 2076 H 199.462 3.98005 1.22056 0
M  V30 2077 H 199.995 3.94918 -0.477938 0
M  V30 2078 H 196.734 5.98145 -2.68146 0
M  V30 2079 H 196.254 5.91904 -0.970014 0
M  V30 2080 H 197.933 6.31344 -1.4147 0
M  V30 2081 N 198.065 0.39524 1.52563 0
M  V30 2082 C 199.012 -0.437036 2.26624 0
M  V30 2083 C 199.982 -1.05281 1.28472 0
M  V30 2084 O 201.167 -1.07971 1.57311 0
M  V30 2085 C 198.307 -1.55524 3.08069 0
M  V30 2086 C 197.42 -0.961745 4.21158 0
M  V30 2087 C 196.555 -2.05149 4.89987 0
M  V30 2088 C 195.594 -1.4342 5.95061 0
M  V30 2089 N 194.731 -2.46351 6.57462 0
M  V30 2090 H 199.571 0.200976 2.97322 0
M  V30 2091 H 197.108 0.110944 1.46681 0
M  V30 2092 H 199.066 -2.21437 3.53584 0
M  V30 2093 H 197.696 -2.16348 2.3957 0
M  V30 2094 H 196.748 -0.192048 3.79915 0
M  V30 2095 H 198.06 -0.470701 4.96574 0
M  V30 2096 H 197.214 -2.78819 5.38837 0
M  V30 2097 H 195.953 -2.57615 4.14109 0
M  V30 2098 H 194.958 -0.682774 5.45544 0
M  V30 2099 H 196.183 -0.917416 6.72875 0
M  V30 2100 H 194.129 -2.97975 5.8442 0
M  V30 2101 H 194.046 -2.02019 7.28508 0
M  V30 2102 H 195.314 -3.19633 7.10954 0
M  V30 2103 N 199.544 -1.57102 0.125237 0
M  V30 2104 C 200.491 -2.15641 -0.822655 0
M  V30 2105 C 201.461 -1.08313 -1.25927 0
M  V30 2106 O 202.646 -1.36251 -1.33567 0
M  V30 2107 C 199.786 -2.76504 -2.06494 0
M  V30 2108 C 198.899 -3.98158 -1.67612 0
M  V30 2109 C 198.034 -4.47088 -2.86854 0
M  V30 2110 C 197.073 -5.6126 -2.44242 0
M  V30 2111 N 196.21 -6.04905 -3.56419 0
M  V30 2112 H 201.05 -2.96313 -0.316625 0
M  V30 2113 H 198.587 -1.46388 -0.144588 0
M  V30 2114 H 200.545 -3.09925 -2.79289 0
M  V30 2115 H 199.175 -1.98512 -2.54545 0
M  V30 2116 H 198.227 -3.70858 -0.846661 0
M  V30 2117 H 199.539 -4.80934 -1.32301 0
M  V30 2118 H 198.693 -4.82451 -3.67867 0
M  V30 2119 H 197.432 -3.63275 -3.25396 0
M  V30 2120 H 196.437 -5.25495 -1.61663 0
M  V30 2121 H 197.662 -6.46843 -2.0681 0
M  V30 2122 H 195.608 -5.24032 -3.94623 0
M  V30 2123 H 195.525 -6.82552 -3.25051 0
M  V30 2124 H 196.793 -6.44907 -4.37853 0
M  V30 2125 N 201.022 0.148545 -1.56898 0
M  V30 2126 C 202.271 0.85984 -1.82454 0
M  V30 2127 C 202.584 1.82406 -0.706229 0
M  V30 2128 O 203.79 2.57938 -0.847349 0
M  V30 2129 C 202.246 1.57967 -3.2338 0
M  V30 2130 C 201.854 0.65794 -4.43142 0
M  V30 2131 C 203.598 2.27784 -3.58211 0
M  V30 2132 C 201.505 1.3793 -5.75091 0
M  V30 2133 H 200.435 0.324834 -0.68044 0
M  V30 2134 H 203.086 0.112588 -1.83154 0
M  V30 2135 H 201.468 2.37249 -3.17063 0
M  V30 2136 H 202.642 -0.0995497 -4.60692 0
M  V30 2137 H 200.957 0.0682643 -4.16344 0
M  V30 2138 H 203.554 2.8239 -4.54048 0
M  V30 2139 H 203.897 3.04204 -2.84193 0
M  V30 2140 H 204.43 1.55421 -3.66182 0
M  V30 2141 H 201.169 0.656982 -6.52199 0
M  V30 2142 H 200.689 2.10954 -5.61479 0
M  V30 2143 H 202.368 1.92063 -6.17835 0
M  V30 2144 N 202.5 1.5196 0.417844 0
M  V30 2145 C 203.747 1.65591 1.16559 0
M  V30 2146 C 204.075 0.381565 1.90721 0
M  V30 2147 O 203.33 -0.635156 1.85106 0
M  V30 2148 C 203.629 2.82269 2.19223 0
M  V30 2149 C 203.295 4.20819 1.61933 0
M  V30 2150 C 201.957 4.58506 1.46033 0
M  V30 2151 C 204.309 5.07196 1.20008 0
M  V30 2152 C 201.637 5.80257 0.867113 0
M  V30 2153 C 203.989 6.29544 0.621086 0
M  V30 2154 C 202.653 6.65987 0.449144 0
M  V30 2155 H 201.923 0.605939 0.42652 0
M  V30 2156 H 204.57 1.86041 0.45397 0
M  V30 2157 H 202.875 2.56118 2.96498 0
M  V30 2158 H 204.572 2.90012 2.76936 0
M  V30 2159 H 201.162 3.91116 1.7529 0
M  V30 2160 H 205.346 4.7867 1.31105 0
M  V30 2161 H 200.602 6.07124 0.721833 0
M  V30 2162 H 204.776 6.95805 0.287798 0
M  V30 2163 H 202.403 7.60199 -0.012632 0
M  V30 2164 N 203.978 -0.674533 1.42435 0
M  V30 2165 C 205.206 -1.46283 1.46317 0
M  V30 2166 C 205.621 -1.88653 0.0745836 0
M  V30 2167 O 204.978 -1.58151 -0.91074 0
M  V30 2168 C 205.029 -2.71178 2.3905 0
M  V30 2169 O 204.75 -2.30586 3.72507 0
M  V30 2170 C 206.251 -3.64738 2.51955 0
M  V30 2171 H 203.471 -0.450104 0.497642 0
M  V30 2172 H 206.015 -0.828792 1.86953 0
M  V30 2173 H 204.17 -3.3077 2.01667 0
M  V30 2174 H 204.584 -3.11241 4.22172 0
M  V30 2175 H 206.058 -4.49096 3.20962 0
M  V30 2176 H 206.535 -4.10656 1.55752 0
M  V30 2177 H 207.141 -3.11038 2.90061 0
M  V30 2178 N 205.456 -1.28612 -0.910864 0
M  V30 2179 C 206.366 -1.14643 -2.0468 0
M  V30 2180 C 207.382 -0.0723121 -1.7385 0
M  V30 2181 O 208.558 -0.282178 -1.99413 0
M  V30 2182 C 205.623 -0.812561 -3.37044 0
M  V30 2183 C 204.684 -1.96935 -3.81465 0
M  V30 2184 C 203.917 -1.65131 -5.07511 0
M  V30 2185 O 204.14 -0.567013 -5.67575 0
M  V30 2186 O 203.074 -2.49585 -5.47714 0
M  V30 2187 H 206.9 -2.1001 -2.19384 0
M  V30 2188 H 204.485 -1.07958 -1.03274 0
M  V30 2189 H 206.367 -0.640441 -4.16505 0
M  V30 2190 H 205.042 0.111426 -3.23508 0
M  V30 2191 H 203.949 -2.19664 -3.02818 0
M  V30 2192 H 205.282 -2.87414 -3.99567 0
M  V30 2193 N 206.934 1.1197 -1.10907 0
M  V30 2194 C 208.164 1.8713 -0.875553 0
M  V30 2195 C 208.572 1.8016 0.577843 0
M  V30 2196 O 207.915 1.17699 1.41042 0
M  V30 2197 C 207.977 3.37005 -1.2517 0
M  V30 2198 C 207.641 3.67748 -2.71313 0
M  V30 2199 C 208.638 3.65698 -3.69542 0
M  V30 2200 C 206.323 3.96928 -3.07821 0
M  V30 2201 C 208.317 3.92395 -5.023 0
M  V30 2202 C 206.004 4.23284 -4.40765 0
M  V30 2203 C 207.002 4.21005 -5.37814 0
M  V30 2204 O 206.69 4.46704 -6.68364 0
M  V30 2205 H 206.422 0.598786 -0.313737 0
M  V30 2206 H 208.976 1.42568 -1.47863 0
M  V30 2207 H 207.206 3.82146 -0.591741 0
M  V30 2208 H 208.895 3.93519 -0.994877 0
M  V30 2209 H 209.661 3.43211 -3.42682 0
M  V30 2210 H 205.54 3.97841 -2.32902 0
M  V30 2211 H 209.084 3.90531 -5.78041 0
M  V30 2212 H 204.981 4.45246 -4.67361 0
M  V30 2213 H 205.749 4.64299 -6.74069 0
M  V30 2214 N 208.412 0.89855 1.29475 0
M  V30 2215 C 209.828 0.594483 1.48115 0
M  V30 2216 C 210.028 -0.86431 1.82022 0
M  V30 2217 O 209.084 -1.64457 1.91599 0
M  V30 2218 C 210.397 1.51932 2.59494 0
M  V30 2219 C 211.945 1.5244 2.7337 0
M  V30 2220 C 212.42 2.43548 3.87877 0
M  V30 2221 N 213.911 2.41589 3.95208 0
M  V30 2222 C 214.646 3.08789 4.83153 0
M  V30 2223 N 214.142 3.85265 5.75798 0
M  V30 2224 N 215.935 2.97952 4.76635 0
M  V30 2225 H 208.086 1.84207 1.05742 0
M  V30 2226 H 210.349 0.789251 0.525154 0
M  V30 2227 H 210.055 2.55865 2.41301 0
M  V30 2228 H 209.929 1.23899 3.56271 0
M  V30 2229 H 212.316 0.492518 2.90961 0
M  V30 2230 H 212.397 1.8451 1.77172 0
M  V30 2231 H 212.041 3.46829 3.71041 0
M  V30 2232 H 211.971 2.08788 4.83441 0
M  V30 2233 H 214.462 1.86025 3.28943 0
M  V30 2234 H 214.775 4.33598 6.39697 0
M  V30 2235 H 213.12 3.89371 5.75687 0
M  V30 2236 H 216.311 2.37723 4.03244 0
M  V30 2237 H 216.484 3.50599 5.44962 0
M  V30 2238 N 209.89 -1.43072 0.660911 0
M  V30 2239 C 210.837 -2.30785 -0.0259884 0
M  V30 2240 C 211.807 -1.45184 -0.806888 0
M  V30 2241 O 212.992 -1.74041 -0.781943 0
M  V30 2242 C 210.132 -3.30861 -0.981067 0
M  V30 2243 C 209.245 -4.31558 -0.195458 0
M  V30 2244 C 208.38 -5.18712 -1.14503 0
M  V30 2245 C 207.419 -6.11097 -0.350299 0
M  V30 2246 N 206.556 -6.90849 -1.25186 0
M  V30 2247 H 211.396 -2.88975 0.727846 0
M  V30 2248 H 208.933 -1.42353 0.370682 0
M  V30 2249 H 210.891 -3.87399 -1.54849 0
M  V30 2250 H 209.521 -2.74304 -1.70169 0
M  V30 2251 H 208.573 -3.77252 0.488374 0
M  V30 2252 H 209.885 -4.9701 0.422176 0
M  V30 2253 H 209.039 -5.79914 -1.78284 0
M  V30 2254 H 207.778 -4.53404 -1.79656 0
M  V30 2255 H 206.783 -5.48976 0.300808 0
M  V30 2256 H 208.008 -6.7845 0.296941 0
M  V30 2257 H 205.954 -6.28182 -1.89005 0
M  V30 2258 H 205.871 -7.52854 -0.688971 0
M  V30 2259 H 207.139 -7.5655 -1.87757 0
M  V30 2260 N 211.368 -0.403325 -1.52352 0
M  V30 2261 C 212.596 0.174012 -2.06167 0
M  V30 2262 C 213.011 1.39347 -1.27388 0
M  V30 2263 O 212.368 1.79597 -0.324201 0
M  V30 2264 C 212.419 0.530223 -3.5759 0
M  V30 2265 O 212.14 -0.640806 -4.33388 0
M  V30 2266 C 213.641 1.16192 -4.27802 0
M  V30 2267 H 210.861 0.0229464 -0.670608 0
M  V30 2268 H 213.405 -0.572604 -1.9632 0
M  V30 2269 H 211.56 1.22673 -3.67464 0
M  V30 2270 H 211.974 -0.344851 -5.23365 0
M  V30 2271 H 213.448 1.36141 -5.34948 0
M  V30 2272 H 213.925 2.13335 -3.83907 0
M  V30 2273 H 214.531 0.505775 -4.22282 0
M  V30 2274 N 212.846 1.57033 -0.133567 0
M  V30 2275 C 213.796 2.12641 0.822671 0
M  V30 2276 C 214.78 1.05081 1.21847 0
M  V30 2277 O 215.972 1.31287 1.18713 0
M  V30 2278 C 213.101 2.74094 2.06706 0
M  V30 2279 C 212.187 3.88757 1.69497 0
M  V30 2280 N 212.578 4.95194 1.03037 0
M  V30 2281 C 210.876 3.99213 1.98859 0
M  V30 2282 C 211.577 5.75414 0.852873 0
M  V30 2283 N 210.553 5.25726 1.3825 0
M  V30 2284 H 214.355 2.92308 0.305537 0
M  V30 2285 H 211.869 1.62256 0.0684276 0
M  V30 2286 H 213.866 3.12285 2.76195 0
M  V30 2287 H 212.526 1.95896 2.5895 0
M  V30 2288 H 213.537 5.13247 0.692669 0
M  V30 2289 H 210.214 3.32075 2.53047 0
M  V30 2290 H 211.604 6.71089 0.330091 0
M  V30 2291 N 214.325 -0.140222 1.56975 0
M  V30 2292 C 215.273 -1.19207 1.99731 0
M  V30 2293 C 216.267 -1.44089 0.890777 0
M  V30 2294 O 217.473 -1.44301 1.07597 0
M  V30 2295 H 213.848 -0.40142 0.635898 0
M  V30 2296 H 215.819 -0.804813 2.87342 0
M  V30 2297 C 214.568 -2.51617 2.39967 0
M  V30 2298 H 213.891 -2.33303 3.24669 0
M  V30 2299 H 215.331 -3.23827 2.73701 0
M  V30 2300 C 213.79 -3.12654 1.25496 0
M  V30 2301 O 214.32 -3.97786 0.559371 0
M  V30 2302 N 212.526 -2.72206 1.01746 0
M  V30 2303 H 212.073 -2.03074 1.58489 0
M  V30 2304 H 212.031 -3.13377 0.253461 0
M  V30 2305 N 215.803 -1.52179 -0.40978 0
M  V30 2306 C 216.735 -1.71703 -1.51825 0
M  V30 2307 C 217.748 -0.597445 -1.51441 0
M  V30 2308 O 218.937 -0.872582 -1.55719 0
M  V30 2309 C 216.037 -1.74171 -2.90719 0
M  V30 2310 C 215.21 -3.03156 -3.15302 0
M  V30 2311 C 214.269 -2.97445 -4.34065 0
M  V30 2312 O 213.295 -3.71352 -4.31377 0
M  V30 2313 N 214.497 -2.15191 -5.39141 0
M  V30 2314 H 217.262 -2.67334 -1.35472 0
M  V30 2315 H 214.823 -1.50409 -0.599069 0
M  V30 2316 H 216.815 -1.67884 -3.68235 0
M  V30 2317 H 215.385 -0.860166 -3.00533 0
M  V30 2318 H 214.605 -3.23097 -2.25836 0
M  V30 2319 H 215.893 -3.88484 -3.28569 0
M  V30 2320 H 215.291 -1.54573 -5.44173 0
M  V30 2321 H 213.848 -2.1476 -6.15403 0
M  V30 2322 N 217.281 0.66697 -1.42791 0
M  V30 2323 C 218.529 1.42417 -1.43394 0
M  V30 2324 C 218.85 1.94925 -0.0542373 0
M  V30 2325 O 218.12 1.73564 0.908415 0
M  V30 2326 H 216.7 0.528515 -0.527902 0
M  V30 2327 H 219.362 0.787562 -1.78279 0
M  V30 2328 H 218.458 2.27333 -2.13837 0
M  V30 2329 N 218.759 1.29093 0.90403 0
M  V30 2330 C 220.005 1.16986 1.65656 0
M  V30 2331 C 220.338 -0.278925 1.92186 0
M  V30 2332 O 219.613 -1.2019 1.5292 0
M  V30 2333 C 219.896 1.97908 3.0084 0
M  V30 2334 C 219.749 3.50903 2.81403 0
M  V30 2335 C 221.068 1.80208 4.01513 0
M  V30 2336 H 218.187 0.426346 0.601164 0
M  V30 2337 H 220.829 1.58518 1.04747 0
M  V30 2338 H 218.979 1.62616 3.52829 0
M  V30 2339 H 220.651 3.96153 2.36348 0
M  V30 2340 H 218.894 3.76045 2.1627 0
M  V30 2341 H 219.565 4.02791 3.77443 0
M  V30 2342 H 222.041 2.11025 3.58619 0
M  V30 2343 H 220.917 2.39184 4.94047 0
M  V30 2344 H 221.178 0.756119 4.35586 0
M  V30 2345 N 220.237 -1.11381 1.11499 0
M  V30 2346 C 221.484 -1.83132 0.864231 0
M  V30 2347 C 221.812 -1.84683 -0.610114 0
M  V30 2348 O 221.067 -1.29589 -1.46646 0
M  V30 2349 C 221.366 -3.30026 1.37177 0
M  V30 2350 C 221.032 -3.48634 2.85946 0
M  V30 2351 C 219.694 -3.53421 3.26569 0
M  V30 2352 C 222.046 -3.54837 3.81759 0
M  V30 2353 C 219.374 -3.61967 4.61733 0
M  V30 2354 C 221.726 -3.64915 5.1674 0
M  V30 2355 C 220.39 -3.67962 5.5692 0
M  V30 2356 H 219.66 -0.670127 0.316245 0
M  V30 2357 H 222.307 -1.31354 1.3935 0
M  V30 2358 H 220.612 -3.84304 0.762753 0
M  V30 2359 H 222.309 -3.84034 1.15408 0
M  V30 2360 H 218.899 -3.45579 2.53521 0
M  V30 2361 H 223.083 -3.50399 3.51474 0
M  V30 2362 H 218.339 -3.62603 4.92269 0
M  V30 2363 H 222.513 -3.68658 5.90816 0
M  V30 2364 H 220.14 -3.74336 6.61647 0
M  V30 2365 N 221.715 -0.905404 -1.28997 0
M  V30 2366 C 222.992 -0.453513 -1.9027 0
M  V30 2367 C 223.372 1.06721 -1.82137 0
M  V30 2368 O 222.72 1.91159 -1.25182 0
M  V30 2369 C 222.93 -0.974494 -3.35119 0
M  V30 2370 C 224.278 -1.0216 -4.12127 0
M  V30 2371 O 225.302 -0.922557 -3.44046 0
M  V30 2372 O 224.161 -1.17121 -5.33802 0
M  V30 2373 H 221.255 -0.142347 -0.814657 0
M  V30 2374 H 223.801 -0.995642 -1.37423 0
M  V30 2375 H 222.573 -2.01848 -3.35221 0
M  V30 2376 H 222.196 -0.412706 -3.95452 0
M  V30 2377 N 223.193 1.4272 -0.668489 0
M  V30 2378 C 224.439 2.01923 -0.188419 0
M  V30 2379 C 224.772 1.52704 1.19979 0
M  V30 2380 O 224.047 0.726566 1.8042 0
M  V30 2381 C 224.33 3.59451 -0.216085 0
M  V30 2382 C 224.183 4.18864 -1.6393 0
M  V30 2383 C 225.502 4.37903 0.439179 0
M  V30 2384 H 222.621 0.733674 -0.0699412 0
M  V30 2385 H 225.263 1.69822 -0.852076 0
M  V30 2386 H 223.413 3.86929 0.349012 0
M  V30 2387 H 225.085 4.02362 -2.25616 0
M  V30 2388 H 223.328 3.74933 -2.18193 0
M  V30 2389 H 223.999 5.27987 -1.61039 0
M  V30 2390 H 226.475 4.16079 -0.0417878 0
M  V30 2391 H 225.351 5.47519 0.389157 0
M  V30 2392 H 225.612 4.15303 1.51577 0
M  V30 2393 N 224.671 0.411399 1.52136 0
M  V30 2394 C 225.901 -0.16284 2.05957 0
M  V30 2395 C 226.309 -1.3922 1.28119 0
M  V30 2396 O 225.652 -1.80768 0.326881 0
M  V30 2397 C 225.714 -0.575946 3.54856 0
M  V30 2398 C 225.378 0.542998 4.53763 0
M  V30 2399 C 226.375 1.40726 5.00492 0
M  V30 2400 C 224.06 0.716337 4.97166 0
M  V30 2401 C 226.054 2.4298 5.8927 0
M  V30 2402 C 223.741 1.74218 5.8574 0
M  V30 2403 C 224.739 2.59731 6.31687 0
M  V30 2404 O 224.427 3.60558 7.18507 0
M  V30 2405 H 224.159 -0.0229125 0.675612 0
M  V30 2406 H 226.713 0.581634 1.96993 0
M  V30 2407 H 224.943 -1.37274 3.61515 0
M  V30 2408 H 226.632 -1.07836 3.91313 0
M  V30 2409 H 227.398 1.28476 4.67674 0
M  V30 2410 H 223.277 0.0603857 4.6096 0
M  V30 2411 H 226.821 3.0976 6.25055 0
M  V30 2412 H 222.718 1.86498 6.17971 0
M  V30 2413 H 223.486 3.56829 7.36624 0
M  V30 2414 N 226.149 -1.5696 0.141893 0
M  V30 2415 C 227.377 -2.00322 -0.517579 0
M  V30 2416 C 227.792 -1.02193 -1.58752 0
M  V30 2417 O 227.149 -0.0181619 -1.82491 0
M  V30 2418 C 227.2 -3.43618 -1.12289 0
M  V30 2419 O 226.921 -4.37995 -0.0956929 0
M  V30 2420 C 228.422 -4.02231 -1.86347 0
M  V30 2421 H 225.642 -0.657243 -0.135177 0
M  V30 2422 H 228.186 -2.03146 0.234973 0
M  V30 2423 H 226.341 -3.41662 -1.82609 0
M  V30 2424 H 226.755 -5.21729 -0.538469 0
M  V30 2425 H 228.229 -5.04509 -2.23997 0
M  V30 2426 H 228.706 -3.42655 -2.74744 0
M  V30 2427 H 229.312 -4.07802 -1.20737 0
M  V30 2428 N 227.627 0.131896 -1.57047 0
M  V30 2429 C 229.038 0.690407 -1.73465 0
M  V30 2430 C 229.389 1.8094 -0.758629 0
M  V30 2431 O 228.514 2.16282 0.0713813 0
M  V30 2432 C 229.109 1.25916 -3.14532 0
M  V30 2433 C 227.668 1.76409 -3.32501 0
M  V30 2434 C 226.815 0.658579 -2.69366 0
M  V30 2435 H 229.766 -0.0939144 -1.58422 0
M  V30 2436 H 229.787 2.12892 -3.15369 0
M  V30 2437 H 229.299 0.444515 -3.85546 0
M  V30 2438 H 227.4 2.60391 -2.66509 0
M  V30 2439 H 227.513 1.88241 -4.4057 0
M  V30 2440 H 225.877 1.08899 -2.30246 0
M  V30 2441 H 226.66 -0.14487 -3.42994 0
M  V30 2442 N 229.106 1.52395 0.401703 0
M  V30 2443 C 230.383 1.57387 1.16141 0
M  V30 2444 C 230.763 0.359359 2.08019 0
M  V30 2445 O 230.111 -0.65326 2.18963 0
M  V30 2446 C 230.321 2.90631 1.93221 0
M  V30 2447 C 231.669 3.43904 2.49028 0
M  V30 2448 O 232.693 2.92421 2.03393 0
M  V30 2449 O 231.552 4.33823 3.32356 0
M  V30 2450 H 228.646 0.634262 0.530698 0
M  V30 2451 H 231.192 1.64725 0.407883 0
M  V30 2452 H 229.964 3.70473 1.25958 0
M  V30 2453 H 229.587 2.8662 2.75563 0
M  V30 2454 N 230.584 -0.659388 1.43143 0
M  V30 2455 C 231.833 -1.41518 1.43721 0
M  V30 2456 C 232.146 -1.95499 0.0628176 0
M  V30 2457 O 233.352 -2.71446 -0.0539683 0
M  V30 2458 C 231.808 -2.5608 2.52885 0
M  V30 2459 C 231.416 -2.08733 3.96402 0
M  V30 2460 C 233.16 -3.3349 2.62649 0
M  V30 2461 C 231.067 -3.20469 4.97045 0
M  V30 2462 H 229.997 -0.531705 0.534608 0
M  V30 2463 H 232.648 -0.712343 1.69109 0
M  V30 2464 H 231.03 -3.28805 2.20688 0
M  V30 2465 H 232.204 -1.43059 4.3803 0
M  V30 2466 H 230.519 -1.44219 3.90627 0
M  V30 2467 H 233.116 -4.16734 3.35017 0
M  V30 2468 H 233.459 -3.8111 1.67513 0
M  V30 2469 H 233.992 -2.67842 2.94118 0
M  V30 2470 H 230.731 -2.77824 5.93712 0
M  V30 2471 H 230.251 -3.84874 4.60034 0
M  V30 2472 H 231.93 -3.85698 5.19467 0
M  V30 2473 N 232.062 -1.29571 -0.897171 0
M  V30 2474 C 232.992 -1.17473 -2.01798 0
M  V30 2475 C 233.973 -0.068323 -1.69963 0
M  V30 2476 O 235.158 -0.248239 -1.92607 0
M  V30 2477 C 232.288 -0.853099 -3.36659 0
M  V30 2478 C 231.242 -1.9161 -3.82713 0
M  V30 2479 C 230.568 -1.44773 -5.14728 0
M  V30 2480 C 231.868 -3.32535 -4.02763 0
M  V30 2481 H 233.562 -2.11237 -2.12177 0
M  V30 2482 H 231.108 -1.01699 -1.01948 0
M  V30 2483 H 233.061 -0.755165 -4.14578 0
M  V30 2484 H 231.785 0.120236 -3.26379 0
M  V30 2485 H 230.444 -2.00346 -3.07013 0
M  V30 2486 H 230.092 -0.462995 -5.00865 0
M  V30 2487 H 229.792 -2.15865 -5.46513 0
M  V30 2488 H 231.316 -1.36334 -5.95185 0
M  V30 2489 H 232.73 -3.26626 -4.71156 0
M  V30 2490 H 231.127 -4.01607 -4.45905 0
M  V30 2491 H 232.197 -3.75326 -3.07016 0
M  V30 2492 N 233.54 1.10788 -1.12088 0
M  V30 2493 C 234.956 1.34691 -0.856186 0
M  V30 2494 C 235.156 1.94791 0.515615 0
M  V30 2495 O 234.212 2.18524 1.26505 0
M  V30 2496 C 235.525 2.27208 -1.9697 0
M  V30 2497 C 237.073 2.40755 -2.00016 0
M  V30 2498 C 237.548 3.36598 -3.1059 0
M  V30 2499 N 239.039 3.44164 -3.10008 0
M  V30 2500 C 239.774 4.18284 -3.92206 0
M  V30 2501 N 239.27 4.95322 -4.84384 0
M  V30 2502 N 241.063 4.13865 -3.80357 0
M  V30 2503 H 233.214 0.70144 -2.00483 0
M  V30 2504 H 235.477 0.371405 -0.872217 0
M  V30 2505 H 235.183 1.90251 -2.958 0
M  V30 2506 H 235.057 3.27485 -1.87172 0
M  V30 2507 H 237.444 2.76982 -1.01808 0
M  V30 2508 H 237.525 1.40305 -2.13888 0
M  V30 2509 H 237.169 3.01096 -4.09028 0
M  V30 2510 H 237.099 4.36918 -2.93956 0
M  V30 2511 H 239.59 2.8922 -2.43228 0
M  V30 2512 H 239.903 5.49267 -5.43623 0
M  V30 2513 H 238.248 4.94459 -4.884 0
M  V30 2514 H 241.439 3.52773 -3.07683 0
M  V30 2515 H 241.612 4.71372 -4.44649 0
M  V30 2516 N 235.018 0.912232 1.28515 0
M  V30 2517 C 236.258 0.551677 1.96814 0
M  V30 2518 C 236.622 -0.887825 1.7024 0
M  V30 2519 O 237.823 -1.35588 2.32098 0
M  V30 2520 C 236.094 0.850555 3.47132 0
M  V30 2521 S 237.653 0.59619 4.34731 0
M  V30 2522 H 234.471 0.204191 0.681049 0
M  V30 2523 H 237.073 1.17736 1.56072 0
M  V30 2524 H 235.777 1.8962 3.63968 0
M  V30 2525 H 235.308 0.213471 3.9282 0
M  V30 2526 H 237.323 -0.553154 4.93107 0
M  V30 2527 N 236.496 -1.42363 0.676048 0
M  V30 2528 C 237.912 -1.55811 0.345718 0
M  V30 2529 C 238.112 -1.65544 -1.14879 0
M  V30 2530 O 237.168 -1.62306 -1.93424 0
M  V30 2531 C 238.481 -2.80746 1.07713 0
M  V30 2532 C 240.029 -2.9452 1.05958 0
M  V30 2533 C 240.504 -4.22318 1.77233 0
M  V30 2534 N 241.995 -4.29233 1.74108 0
M  V30 2535 C 242.73 -5.26935 2.26113 0
M  V30 2536 N 242.226 -6.30783 2.86505 0
M  V30 2537 N 244.019 -5.18741 2.1648 0
M  V30 2538 H 236.17 -1.34289 1.6456 0
M  V30 2539 H 238.433 -0.646506 0.69335 0
M  V30 2540 H 238.139 -2.79696 2.13221 0
M  V30 2541 H 238.013 -3.71676 0.64316 0
M  V30 2542 H 240.4 -2.95097 0.0128255 0
M  V30 2543 H 240.481 -2.04817 1.53244 0
M  V30 2544 H 240.125 -4.22502 2.81877 0
M  V30 2545 H 240.055 -5.10958 1.27396 0
M  V30 2546 H 242.546 -3.54814 1.30059 0
M  V30 2547 H 242.859 -7.01691 3.23805 0
M  V30 2548 H 241.204 -6.31341 2.90575 0
M  V30 2549 H 244.395 -4.36533 1.68987 0
M  V30 2550 H 244.568 -5.94721 2.57316 0
M  V30 2551 N 237.974 -0.419461 -1.51915 0
M  V30 2552 C 238.921 0.400927 -2.27291 0
M  V30 2553 C 239.891 1.03224 -1.30131 0
M  V30 2554 O 241.076 1.05455 -1.59009 0
M  V30 2555 C 238.216 1.50603 -3.10504 0
M  V30 2556 C 237.329 0.89462 -4.22635 0
M  V30 2557 C 236.464 1.97328 -4.93189 0
M  V30 2558 C 235.503 1.33935 -5.97267 0
M  V30 2559 N 234.64 2.3586 -6.61298 0
M  V30 2560 H 239.48 -0.248251 -2.96964 0
M  V30 2561 H 237.017 -0.134266 -1.46486 0
M  V30 2562 H 238.975 2.15783 -3.57062 0
M  V30 2563 H 237.605 2.12509 -2.42981 0
M  V30 2564 H 236.657 0.131583 -3.80172 0
M  V30 2565 H 237.969 0.391641 -4.9726 0
M  V30 2566 H 237.123 2.70211 -5.43204 0
M  V30 2567 H 235.862 2.50994 -4.18155 0
M  V30 2568 H 234.867 0.595896 -5.46561 0
M  V30 2569 H 236.092 0.810252 -6.74249 0
M  V30 2570 H 234.038 2.88639 -5.89087 0
M  V30 2571 H 233.955 1.90403 -7.3163 0
M  V30 2572 H 235.223 3.08282 -7.15949 0
M  V30 2573 N 239.452 1.56882 -0.150215 0
M  V30 2574 C 240.677 2.01027 0.510184 0
M  V30 2575 C 241.102 1.02966 1.57415 0
M  V30 2576 O 240.46 0.00590158 1.81299 0
M  V30 2577 C 240.508 3.43899 1.08472 0
M  V30 2578 O 239.612 3.4885 2.19948 0
M  V30 2579 H 238.953 0.652233 0.124451 0
M  V30 2580 H 241.483 2.03093 -0.247894 0
M  V30 2581 H 241.493 3.82766 1.41259 0
M  V30 2582 H 240.168 4.14776 0.305582 0
M  V30 2583 H 238.745 3.21827 1.88366 0
M  V30 2584 N 240.93 -0.123565 1.57115 0
M  V30 2585 C 242.178 -0.83051 1.84247 0
M  V30 2586 C 242.499 -1.80629 0.73471 0
M  V30 2587 O 241.769 -1.94403 -0.241688 0
M  V30 2588 H 240.349 -0.309694 0.679778 0
M  V30 2589 H 243.011 -0.111976 1.94578 0
M  V30 2590 H 242.107 -1.37852 2.80006 0
M  V30 2591 N 242.408 -1.52605 -0.393616 0
M  V30 2592 C 243.654 -1.67672 -1.14079 0
M  V30 2593 C 243.987 -0.413121 -1.89755 0
M  V30 2594 O 243.262 0.588952 -1.85369 0
M  V30 2595 C 243.545 -2.9088 -2.12276 0
M  V30 2596 C 243.398 -4.27329 -1.40394 0
M  V30 2597 C 244.717 -3.09628 -3.12759 0
M  V30 2598 H 241.836 -0.610168 -0.413356 0
M  V30 2599 H 244.478 -1.85193 -0.424696 0
M  V30 2600 H 242.628 -2.76073 -2.73342 0
M  V30 2601 H 244.3 -4.53894 -0.82327 0
M  V30 2602 H 242.543 -4.2802 -0.705801 0
M  V30 2603 H 243.214 -5.09615 -2.12123 0
M  V30 2604 H 245.69 -3.23436 -2.61779 0
M  V30 2605 H 244.566 -3.97322 -3.78717 0
M  V30 2606 H 244.827 -2.23637 -3.81365 0
M  V30 2607 N 243.887 0.651787 -1.4349 0
M  V30 2608 C 244.817 1.77621 -1.51569 0
M  V30 2609 C 245.798 1.66022 -0.370253 0
M  V30 2610 O 246.983 1.85095 -0.587658 0
M  V30 2611 C 244.113 3.16056 -1.43966 0
M  V30 2612 C 243.067 3.4242 -2.56774 0
M  V30 2613 C 242.393 4.8067 -2.34223 0
M  V30 2614 C 243.693 3.37023 -3.99015 0
M  V30 2615 H 245.387 1.71117 -2.45681 0
M  V30 2616 H 242.933 0.821825 -1.18246 0
M  V30 2617 H 244.886 3.94472 -1.48221 0
M  V30 2618 H 243.61 3.23293 -0.463586 0
M  V30 2619 H 242.269 2.66375 -2.51873 0
M  V30 2620 H 241.917 4.84585 -1.34856 0
M  V30 2621 H 241.617 4.9927 -3.09844 0
M  V30 2622 H 243.141 5.61342 -2.40265 0
M  V30 2623 H 244.555 4.05374 -4.05395 0
M  V30 2624 H 242.952 3.67159 -4.74673 0
M  V30 2625 H 244.022 2.3518 -4.2405 0
M  V30 2626 N 245.365 1.30045 0.890287 0
M  V30 2627 C 246.593 1.21472 1.67487 0
M  V30 2628 C 247.008 -0.223241 1.87476 0
M  V30 2629 O 246.365 -1.14828 1.41847 0
M  V30 2630 C 246.416 1.93394 3.05419 0
M  V30 2631 O 246.137 3.31576 2.86337 0
M  V30 2632 C 247.638 1.91414 3.99844 0
M  V30 2633 H 244.858 0.420604 0.522813 0
M  V30 2634 H 247.402 1.7158 1.11268 0
M  V30 2635 H 245.557 1.47099 3.58386 0
M  V30 2636 H 245.971 3.67929 3.73802 0
M  V30 2637 H 247.445 2.46285 4.94012 0
M  V30 2638 H 247.922 0.891833 4.3005 0
M  V30 2639 H 248.528 2.37496 3.52811 0
M  V30 2640 N 246.843 -1.10192 1.12674 0
M  V30 2641 C 248.091 -1.81845 0.881861 0
M  V30 2642 C 248.412 -1.85737 -0.593867 0
M  V30 2643 O 247.682 -1.33724 -1.4316 0
M  V30 2644 H 246.262 -0.673432 0.323261 0
M  V30 2645 H 248.924 -1.33316 1.42172 0
M  V30 2646 H 248.02 -2.85288 1.2656 0
M  V30 2647 N 248.321 -0.919034 -1.28029 0
M  V30 2648 C 249.251 -0.428581 -2.29533 0
M  V30 2649 C 250.232 0.50659 -1.62381 0
M  V30 2650 O 251.417 0.413195 -1.89753 0
M  V30 2651 C 248.547 0.327388 -3.45753 0
M  V30 2652 C 247.501 -0.519137 -4.2484 0
M  V30 2653 C 246.827 0.365486 -5.33449 0
M  V30 2654 C 248.127 -1.77914 -4.91064 0
M  V30 2655 H 249.821 -1.27687 -2.70807 0
M  V30 2656 H 247.367 -0.615428 -1.30186 0
M  V30 2657 H 249.32 0.681378 -4.15855 0
M  V30 2658 H 248.044 1.20963 -3.03374 0
M  V30 2659 H 246.703 -0.855717 -3.56473 0
M  V30 2660 H 246.351 1.24642 -4.87312 0
M  V30 2661 H 246.051 -0.197356 -5.87268 0
M  V30 2662 H 247.575 0.715241 -6.06396 0
M  V30 2663 H 248.989 -1.49374 -5.53498 0
M  V30 2664 H 247.386 -2.2848 -5.54903 0
M  V30 2665 H 248.456 -2.50382 -4.15255 0
M  V30 2666 N 249.799 1.42003 -0.683588 0
M  V30 2667 C 251.21 1.84501 -0.285736 0
M  V30 2668 C 251.561 1.57213 1.17382 0
M  V30 2669 O 250.686 1.03642 1.89966 0
M  V30 2670 C 251.281 3.34912 -0.511821 0
M  V30 2671 C 249.84 3.76025 -0.168005 0
M  V30 2672 C 248.987 2.6551 -0.799983 0
M  V30 2673 H 251.938 1.31724 -0.885119 0
M  V30 2674 H 251.959 3.79784 0.233292 0
M  V30 2675 H 251.471 3.54741 -1.57418 0
M  V30 2676 H 249.572 3.61801 0.890567 0
M  V30 2677 H 249.685 4.75141 -0.614661 0
M  V30 2678 H 248.049 2.53654 -0.230568 0
M  V30 2679 H 248.832 2.8816 -1.86597 0
M  V30 2680 N 251.277 0.427512 1.51691 0
M  V30 2681 C 252.554 -0.201684 1.94557 0
M  V30 2682 C 252.934 -1.60981 1.36559 0
M  V30 2683 O 252.282 -2.21814 0.548702 0
M  V30 2684 C 252.492 -0.189394 3.48486 0
M  V30 2685 C 253.84 -0.39978 4.22714 0
M  V30 2686 O 254.864 -0.267945 3.55191 0
M  V30 2687 O 253.723 -0.661249 5.42485 0
M  V30 2688 H 250.817 -0.135261 0.815864 0
M  V30 2689 H 253.363 0.484782 1.62628 0
M  V30 2690 H 252.135 0.795431 3.8313 0
M  V30 2691 H 251.758 -0.919187 3.86829 0
M  V30 2692 N 252.755 -1.56801 0.158532 0
M  V30 2693 C 253.718 -2.16138 -0.762705 0
M  V30 2694 C 254.718 -1.1061 -1.16713 0
M  V30 2695 O 255.908 -1.36191 -1.08617 0
M  V30 2696 C 253.04 -2.73386 -2.03649 0
M  V30 2697 H 254.233 -2.98886 -0.246354 0
M  V30 2698 H 251.786 -1.56035 -0.0909744 0
M  V30 2699 H 252.521 -1.94335 -2.59623 0
M  V30 2700 H 252.306 -3.50601 -1.75559 0
M  V30 2701 H 253.796 -3.19065 -2.6942 0
M  V30 2702 N 254.233 0.115231 -1.57178 0
M  V30 2703 C 255.463 0.835224 -1.88964 0
M  V30 2704 C 255.871 1.73774 -0.74829 0
M  V30 2705 O 255.214 1.81401 0.289739 0
M  V30 2706 C 255.276 1.7178 -3.15804 0
M  V30 2707 C 254.94 0.989198 -4.46166 0
M  V30 2708 C 255.937 0.328263 -5.18863 0
M  V30 2709 C 253.622 0.969256 -4.9286 0
M  V30 2710 C 255.616 -0.342873 -6.36477 0
M  V30 2711 C 253.303 0.294324 -6.10391 0
M  V30 2712 C 254.301 -0.360582 -6.82048 0
M  V30 2713 O 253.989 -1.02474 -7.97342 0
M  V30 2714 H 253.721 0.245197 -0.629964 0
M  V30 2715 H 256.275 0.10303 -2.05141 0
M  V30 2716 H 254.505 2.49173 -2.95719 0
M  V30 2717 H 256.194 2.31255 -3.33581 0
M  V30 2718 H 256.96 0.335263 -4.8384 0
M  V30 2719 H 252.839 1.46844 -4.36987 0
M  V30 2720 H 256.383 -0.854629 -6.92345 0
M  V30 2721 H 252.28 0.285099 -6.4487 0
M  V30 2722 H 253.048 -0.929594 -8.13204 0
M  V30 2723 N 255.711 1.52812 0.385517 0
M  V30 2724 C 256.959 1.67694 1.12797 0
M  V30 2725 C 257.28 0.421115 1.90399 0
M  V30 2726 O 256.55 -0.564551 1.87589 0
M  V30 2727 H 255.13 0.618155 0.419396 0
M  V30 2728 H 257.792 1.89938 0.436972 0
M  V30 2729 H 256.888 2.52896 1.82894 0
M  V30 2730 N 257.189 -0.644168 1.43834 0
M  V30 2731 C 258.605 -0.960875 1.27434 0
M  V30 2732 C 258.805 -2.00499 0.200618 0
M  V30 2733 O 257.861 -2.49018 -0.417906 0
M  V30 2734 C 259.174 -1.43653 2.64167 0
M  V30 2735 C 260.722 -1.55271 2.71772 0
M  V30 2736 C 261.197 -2.06224 4.08944 0
M  V30 2737 N 262.688 -2.13513 4.11055 0
M  V30 2738 C 263.423 -2.54081 5.14033 0
M  V30 2739 N 262.919 -2.9388 6.27381 0
M  V30 2740 N 264.712 -2.54101 5.01387 0
M  V30 2741 H 256.863 0.0465779 2.12349 0
M  V30 2742 H 259.126 -0.0417638 0.94708 0
M  V30 2743 H 258.832 -0.743706 3.43747 0
M  V30 2744 H 258.706 -2.40993 2.90176 0
M  V30 2745 H 261.093 -2.23653 1.92519 0
M  V30 2746 H 261.174 -0.563395 2.49519 0
M  V30 2747 H 260.818 -1.38441 4.88668 0
M  V30 2748 H 260.748 -3.06003 4.28567 0
M  V30 2749 H 263.239 -1.85493 3.29242 0
M  V30 2750 H 263.552 -3.2361 7.01781 0
M  V30 2751 H 261.897 -2.91663 6.30839 0
M  V30 2752 H 265.088 -2.22391 4.11898 0
M  V30 2753 H 265.261 -2.85394 5.81768 0
M  V30 2754 N 258.668 -1.30515 -0.883378 0
M  V30 2755 C 259.916 -1.19194 -1.63209 0
M  V30 2756 C 260.237 0.253205 -1.93349 0
M  V30 2757 O 259.507 1.17025 -1.57105 0
M  V30 2758 H 258.087 -0.438148 -0.605009 0
M  V30 2759 H 260.749 -1.63663 -1.05832 0
M  V30 2760 H 259.845 -1.75396 -2.58153 0
M  V30 2761 N 260.146 1.09593 -1.13257 0
M  V30 2762 C 261.562 1.33775 -0.870423 0
M  V30 2763 C 261.762 1.95327 0.494926 0
M  V30 2764 O 260.818 2.19853 1.2418 0
M  V30 2765 C 262.131 2.25106 -1.99369 0
M  V30 2766 C 263.679 2.3862 -2.02558 0
M  V30 2767 C 264.154 3.33285 -3.14142 0
M  V30 2768 N 265.645 3.40857 -3.13641 0
M  V30 2769 C 266.38 4.14101 -3.96621 0
M  V30 2770 N 265.876 4.90157 -4.8961 0
M  V30 2771 N 267.669 4.09808 -3.84726 0
M  V30 2772 H 259.82 0.680136 -2.01216 0
M  V30 2773 H 262.083 0.362133 -0.876107 0
M  V30 2774 H 261.789 1.87103 -2.97801 0
M  V30 2775 H 261.663 3.25481 -1.90635 0
M  V30 2776 H 264.05 2.75887 -1.0474 0
M  V30 2777 H 264.131 1.38028 -2.15364 0
M  V30 2778 H 263.775 2.96741 -4.12198 0
M  V30 2779 H 263.705 4.33776 -2.98574 0
M  V30 2780 H 266.196 2.86624 -2.46282 0
M  V30 2781 H 266.509 5.4347 -5.49418 0
M  V30 2782 H 264.854 4.89251 -4.93617 0
M  V30 2783 H 268.045 3.4949 -3.11408 0
M  V30 2784 H 268.218 4.66629 -4.49623 0
M  V30 2785 N 261.624 0.925811 1.2754 0
M  V30 2786 C 262.873 0.561084 1.93739 0
M  V30 2787 C 263.186 -0.901685 1.73577 0
M  V30 2788 O 264.392 -1.37511 2.34101 0
M  V30 2789 C 262.848 0.952668 3.47062 0
M  V30 2790 C 262.456 2.43599 3.75983 0
M  V30 2791 C 264.2 0.659103 4.19352 0
M  V30 2792 C 262.107 2.76707 5.22673 0
M  V30 2793 H 261.037 0.206122 0.725279 0
M  V30 2794 H 263.688 1.12637 1.44863 0
M  V30 2795 H 262.07 0.316053 3.94737 0
M  V30 2796 H 263.244 3.12035 3.39073 0
M  V30 2797 H 261.559 2.70125 3.16893 0
M  V30 2798 H 264.156 0.882985 5.27359 0
M  V30 2799 H 264.499 -0.403607 4.14339 0
M  V30 2800 H 265.032 1.25473 3.77494 0
M  V30 2801 H 261.771 3.8188 5.32774 0
M  V30 2802 H 261.291 2.12919 5.60737 0
M  V30 2803 H 262.97 2.6435 5.90532 0
M  V30 2804 N 263.102 -1.41638 0.69111 0
M  V30 2805 C 264.351 -2.00526 0.217318 0
M  V30 2806 C 264.664 -1.55353 -1.18848 0
M  V30 2807 O 265.87 -2.06769 -1.75951 0
M  V30 2808 C 264.326 -3.58313 0.337639 0
M  V30 2809 C 263.934 -4.12469 1.74852 0
M  V30 2810 C 265.678 -4.24431 -0.0766066 0
M  V30 2811 C 263.585 -5.62675 1.82074 0
M  V30 2812 H 262.515 -0.750008 0.0774893 0
M  V30 2813 H 265.166 -1.6217 0.858661 0
M  V30 2814 H 263.548 -3.9425 -0.371879 0
M  V30 2815 H 264.722 -3.8796 2.48644 0
M  V30 2816 H 263.037 -3.58861 2.11205 0
M  V30 2817 H 265.634 -5.34683 -0.0430284 0
M  V30 2818 H 265.977 -4.01101 -1.1146 0
M  V30 2819 H 266.51 -3.93512 0.582476 0
M  V30 2820 H 263.249 -5.90826 2.83911 0
M  V30 2821 H 262.769 -5.89124 1.12661 0
M  V30 2822 H 264.448 -6.27371 1.58159 0
M  V30 2823 N 264.58 -0.43555 -1.51462 0
M  V30 2824 C 265.828 0.131254 -2.01673 0
M  V30 2825 C 266.149 1.43368 -1.32177 0
M  V30 2826 O 265.419 1.90524 -0.455769 0
M  V30 2827 H 263.999 0.0514954 -0.745223 0
M  V30 2828 H 266.661 -0.577847 -1.86137 0
M  V30 2829 H 265.757 0.308446 -3.10572 0
M  V30 2830 N 266.058 1.56714 -0.166846 0
M  V30 2831 C 267.335 1.88412 0.525373 0
M  V30 2832 C 267.715 1.07602 1.81618 0
M  V30 2833 O 267.063 0.168621 2.27877 0
M  V30 2834 C 267.273 3.40363 0.771613 0
M  V30 2835 C 268.621 4.10007 1.1036 0
M  V30 2836 O 269.645 3.45655 0.860304 0
M  V30 2837 O 268.504 5.2369 1.56239 0
M  V30 2838 H 265.598 0.781587 0.270278 0
M  V30 2839 H 268.144 1.68458 -0.204946 0
M  V30 2840 H 266.916 3.91046 -0.141093 0
M  V30 2841 H 266.539 3.65914 1.55541 0
M  V30 2842 N 267.536 -0.106894 1.57237 0
M  V30 2843 C 268.766 -0.825191 1.89405 0
M  V30 2844 C 269.174 -1.73374 0.757496 0
M  V30 2845 O 268.517 -1.81552 -0.280115 0
M  V30 2846 C 268.579 -1.70102 3.1671 0
M  V30 2847 C 268.243 -0.965523 4.46684 0
M  V30 2848 C 269.24 -0.300741 5.19029 0
M  V30 2849 C 266.925 -0.943105 4.93367 0
M  V30 2850 C 268.919 0.376622 6.36286 0
M  V30 2851 C 266.606 -0.261949 6.10538 0
M  V30 2852 C 267.604 0.396748 6.81847 0
M  V30 2853 O 267.292 1.06701 7.96787 0
M  V30 2854 H 267.024 -0.241852 0.631255 0
M  V30 2855 H 269.578 -0.0921491 2.05193 0
M  V30 2856 H 267.808 -2.47601 2.97036 0
M  V30 2857 H 269.497 -2.29483 3.34802 0
M  V30 2858 H 270.263 -0.309599 4.84011 0
M  V30 2859 H 266.142 -1.44524 4.3776 0
M  V30 2860 H 269.686 0.891334 6.91882 0
M  V30 2861 H 265.583 -0.250896 6.45012 0
M  V30 2862 H 266.351 0.972707 8.127 0
M  V30 2863 N 269.014 -1.53014 -0.377408 0
M  V30 2864 C 270.43 -1.42523 -0.718281 0
M  V30 2865 C 270.63 -0.55487 -1.9371 0
M  V30 2866 O 269.686 -0.0327593 -2.52479 0
M  V30 2867 C 270.999 -2.85546 -0.942539 0
M  V30 2868 C 272.547 -2.95101 -1.04329 0
M  V30 2869 C 273.022 -4.3916 -1.3001 0
M  V30 2870 N 274.513 -4.42536 -1.36806 0
M  V30 2871 C 275.248 -5.51097 -1.58364 0
M  V30 2872 N 274.744 -6.69724 -1.77317 0
M  V30 2873 N 276.537 -5.38657 -1.60638 0
M  V30 2874 H 268.688 -2.08116 0.424426 0
M  V30 2875 H 270.951 -0.939352 0.127759 0
M  V30 2876 H 270.657 -3.51499 -0.118929 0
M  V30 2877 H 270.531 -3.28493 -1.85397 0
M  V30 2878 H 272.918 -2.29309 -1.85745 0
M  V30 2879 H 272.999 -2.55566 -0.109505 0
M  V30 2880 H 272.643 -5.05521 -0.490991 0
M  V30 2881 H 272.573 -4.76258 -2.24691 0
M  V30 2882 H 275.064 -3.57039 -1.23821 0
M  V30 2883 H 275.377 -7.48233 -1.93306 0
M  V30 2884 H 273.722 -6.72732 -1.74518 0
M  V30 2885 H 276.913 -4.44948 -1.45391 0
M  V30 2886 H 277.086 -6.2333 -1.77098 0
M  V30 2887 N 270.492 0.636531 -1.44174 0
M  V30 2888 C 271.908 0.954104 -1.27941 0
M  V30 2889 C 272.108 2.0039 -0.211248 0
M  V30 2890 O 271.164 2.49236 0.404695 0
M  V30 2891 C 272.477 1.4225 -2.64925 0
M  V30 2892 C 274.025 1.53827 -2.72592 0
M  V30 2893 C 274.5 2.04053 -4.10032 0
M  V30 2894 N 275.991 2.11331 -4.12182 0
M  V30 2895 C 276.726 2.51352 -5.15374 0
M  V30 2896 N 276.222 2.90549 -6.2893 0
M  V30 2897 N 278.015 2.51438 -5.02728 0
M  V30 2898 H 270.166 -0.0578386 -2.12321 0
M  V30 2899 H 272.429 0.0367406 -0.947288 0
M  V30 2900 H 272.135 0.725466 -3.44136 0
M  V30 2901 H 272.009 2.39451 -2.9145 0
M  V30 2902 H 274.396 2.22628 -1.93702 0
M  V30 2903 H 274.477 0.550154 -2.49814 0
M  V30 2904 H 274.121 1.35848 -4.89395 0
M  V30 2905 H 274.051 3.03726 -4.30184 0
M  V30 2906 H 276.542 1.83745 -3.30222 0
M  V30 2907 H 276.855 3.19884 -7.03487 0
M  V30 2908 H 275.2 2.88313 -6.32377 0
M  V30 2909 H 278.391 2.20203 -4.13072 0
M  V30 2910 H 278.564 2.82304 -5.83274 0
M  V30 2911 N 271.97 1.30982 0.876444 0
M  V30 2912 C 273.216 1.20474 1.63138 0
M  V30 2913 C 273.549 -0.238096 1.92735 0
M  V30 2914 O 272.824 -1.1692 1.55435 0
M  V30 2915 C 273.107 2.04244 2.96574 0
M  V30 2916 C 272.96 3.56793 2.73896 0
M  V30 2917 C 274.279 1.88684 3.97601 0
M  V30 2918 H 271.398 0.439001 0.591985 0
M  V30 2919 H 274.04 1.60704 1.01361 0
M  V30 2920 H 272.19 1.70063 3.493 0
M  V30 2921 H 273.862 4.01077 2.27892 0
M  V30 2922 H 272.105 3.80548 2.08245 0
M  V30 2923 H 272.776 4.10706 3.68815 0
M  V30 2924 H 275.252 2.18584 3.54062 0
M  V30 2925 H 274.128 2.4961 4.88862 0
M  V30 2926 H 274.389 0.848343 4.33884 0
M  V30 2927 N 273.449 -1.08991 1.13837 0
M  V30 2928 C 274.412 -2.13925 0.822715 0
M  V30 2929 C 275.412 -1.599 -0.1699 0
M  V30 2930 O 276.602 -1.74104 0.0577251 0
M  V30 2931 C 273.734 -3.40155 0.225318 0
M  V30 2932 H 274.927 -2.43358 1.75262 0
M  V30 2933 H 272.48 -1.24603 0.943594 0
M  V30 2934 H 273.215 -3.16352 -0.713594 0
M  V30 2935 H 273 -3.80661 0.940193 0
M  V30 2936 H 274.49 -4.17594 0.0214784 0
M  V30 2937 N 274.927 -0.932562 -1.27047 0
M  V30 2938 C 275.857 -0.452902 -2.29066 0
M  V30 2939 C 276.838 0.489338 -1.62909 0
M  V30 2940 O 278.023 0.393046 -1.90181 0
M  V30 2941 C 275.153 0.290698 -3.46081 0
M  V30 2942 C 274.107 -0.564168 -4.24265 0
M  V30 2943 C 273.433 0.308886 -5.33807 0
M  V30 2944 C 274.733 -1.83112 -4.89149 0
M  V30 2945 H 276.427 -1.30552 -2.69437 0
M  V30 2946 H 273.973 -0.629201 -1.29526 0
M  V30 2947 H 275.926 0.637233 -4.16554 0
M  V30 2948 H 274.65 1.17738 -3.0464 0
M  V30 2949 H 273.309 -0.893477 -3.55545 0
M  V30 2950 H 272.957 1.19467 -4.88607 0
M  V30 2951 H 272.657 -0.259633 -5.87026 0
M  V30 2952 H 274.181 0.650884 -6.07121 0
M  V30 2953 H 275.595 -1.55236 -5.51883 0
M  V30 2954 H 273.992 -2.34353 -5.52448 0
M  V30 2955 H 275.062 -2.54772 -4.12576 0
M  V30 2956 N 276.405 1.4127 -0.698611 0
M  V30 2957 C 277.635 2.05205 -0.239644 0
M  V30 2958 C 278.043 1.52684 1.11733 0
M  V30 2959 O 277.386 0.671222 1.70998 0
M  V30 2960 C 277.448 3.59289 -0.123126 0
M  V30 2961 C 277.112 4.34619 -1.41263 0
M  V30 2962 C 278.109 4.63701 -2.35111 0
M  V30 2963 C 275.794 4.73837 -1.66684 0
M  V30 2964 C 277.788 5.30966 -3.52639 0
M  V30 2965 C 275.475 5.40837 -2.84498 0
M  V30 2966 C 276.473 5.69329 -3.77298 0
M  V30 2967 O 276.161 6.34949 -4.93047 0
M  V30 2968 H 275.893 0.66723 -0.108537 0
M  V30 2969 H 278.447 1.81974 -0.952602 0
M  V30 2970 H 276.677 3.81272 0.645628 0
M  V30 2971 H 278.366 4.04797 0.299056 0
M  V30 2972 H 279.132 4.33882 -2.16729 0
M  V30 2973 H 275.011 4.51039 -0.953135 0
M  V30 2974 H 278.555 5.53121 -4.25091 0
M  V30 2975 H 274.452 5.70075 -3.02795 0
M  V30 2976 H 275.22 6.53445 -4.92902 0
M  V30 2977 N 277.883 0.443576 1.51229 0
M  V30 2978 C 279.131 -0.120557 2.0174 0
M  V30 2979 C 279.452 -1.42665 1.32935 0
M  V30 2980 O 278.722 -1.9028 0.465866 0
M  V30 2981 H 277.302 -0.0475426 0.745486 0
M  V30 2982 H 279.964 0.587711 1.85828 0
M  V30 2983 H 279.06 -0.291972 3.10731 0
M  V30 2984 N 279.361 -1.56624 0.175154 0
M  V30 2985 C 280.61 -1.96173 -0.468921 0
M  V30 2986 C 280.923 -1.06401 -1.64128 0
M  V30 2987 O 282.129 -1.35648 -2.35185 0
M  V30 2988 C 280.585 -3.48833 -0.885633 0
M  V30 2989 C 280.193 -4.47237 0.261343 0
M  V30 2990 C 281.937 -3.97194 -1.49791 0
M  V30 2991 C 279.844 -5.9114 -0.175214 0
M  V30 2992 H 278.774 -0.732455 -0.178958 0
M  V30 2993 H 281.425 -1.81591 0.263997 0
M  V30 2994 H 279.807 -3.58848 -1.67464 0
M  V30 2995 H 280.981 -4.4894 1.03871 0
M  V30 2996 H 279.296 -4.08956 0.783827 0
M  V30 2997 H 281.893 -5.02167 -1.83665 0
M  V30 2998 H 282.236 -3.40351 -2.39722 0
M  V30 2999 H 282.769 -3.90212 -0.773267 0
M  V30 3000 H 279.508 -6.51865 0.689414 0
M  V30 3001 H 279.028 -5.92735 -0.91786 0
M  V30 3002 H 280.707 -6.44044 -0.617792 0
M  V30 3003 N 280.839 0.0985539 -1.57292 0
M  V30 3004 C 282.116 0.834155 -1.76921 0
M  V30 3005 C 282.496 1.97101 -0.755928 0
M  V30 3006 O 281.844 2.27474 0.216245 0
M  V30 3007 C 282.054 1.33194 -3.22584 0
M  V30 3008 C 283.402 1.77611 -3.85668 0
M  V30 3009 O 284.426 1.42825 -3.26312 0
M  V30 3010 O 283.285 2.4192 -4.90038 0
M  V30 3011 H 280.379 0.397628 -0.725135 0
M  V30 3012 H 282.925 0.0807044 -1.69508 0
M  V30 3013 H 281.697 0.517248 -3.87866 0
M  V30 3014 H 281.32 2.1475 -3.34616 0
M  V30 3015 N 282.317 1.53212 0.369288 0
M  V30 3016 C 283.547 1.72868 1.13139 0
M  V30 3017 C 283.955 0.455754 1.83629 0
M  V30 3018 O 283.298 -0.580861 1.74275 0
M  V30 3019 C 283.36 2.83667 2.20847 0
M  V30 3020 C 283.024 4.24142 1.70155 0
M  V30 3021 C 284.021 5.06619 1.16763 0
M  V30 3022 C 281.706 4.70539 1.7578 0
M  V30 3023 C 283.7 6.33581 0.696678 0
M  V30 3024 C 281.387 5.97481 1.28297 0
M  V30 3025 C 282.385 6.78833 0.753307 0
M  V30 3026 O 282.073 8.03393 0.285475 0
M  V30 3027 H 281.805 0.581707 0.344373 0
M  V30 3028 H 284.359 2.00736 0.435243 0
M  V30 3029 H 282.589 2.51265 2.93944 0
M  V30 3030 H 284.278 2.91536 2.82421 0
M  V30 3031 H 285.044 4.71948 1.11758 0
M  V30 3032 H 280.923 4.07293 2.15949 0
M  V30 3033 H 284.467 6.97027 0.282581 0
M  V30 3034 H 280.364 6.31651 1.32994 0
M  V30 3035 H 281.132 8.17497 0.405145 0
M  V30 3036 N 283.795 -0.628877 1.44509 0
M  V30 3037 C 284.725 -1.75187 1.54376 0
M  V30 3038 C 285.706 -1.65411 0.396618 0
M  V30 3039 O 286.891 -1.84137 0.617031 0
M  V30 3040 C 284.021 -3.13725 1.48976 0
M  V30 3041 C 282.975 -3.38291 2.62189 0
M  V30 3042 C 282.301 -4.76883 2.41841 0
M  V30 3043 C 283.601 -3.30632 4.04326 0
M  V30 3044 H 285.295 -1.67187 2.48373 0
M  V30 3045 H 282.841 -0.802909 1.19538 0
M  V30 3046 H 284.794 -3.92064 1.54478 0
M  V30 3047 H 283.518 -3.22515 0.514961 0
M  V30 3048 H 282.177 -2.62334 2.56079 0
M  V30 3049 H 281.825 -4.82378 1.42548 0
M  V30 3050 H 281.525 -4.94278 3.17747 0
M  V30 3051 H 283.049 -5.57449 2.49165 0
M  V30 3052 H 284.463 -3.98873 4.11793 0
M  V30 3053 H 282.86 -3.59561 4.80454 0
M  V30 3054 H 283.93 -2.28404 4.27738 0
M  V30 3055 N 285.273 -1.31445 -0.869486 0
M  V30 3056 C 286.206 -1.13465 -1.97992 0
M  V30 3057 C 287.184 -0.0380291 -1.62556 0
M  V30 3058 O 288.368 -0.194544 -1.87493 0
M  V30 3059 C 285.495 -0.733822 -3.30655 0
M  V30 3060 C 284.541 -1.83356 -3.85075 0
M  V30 3061 S 285.374 -3.43909 -4.10472 0
M  V30 3062 C 286.53 -3.05763 -5.46132 0
M  V30 3063 H 286.763 -2.07471 -2.1294 0
M  V30 3064 H 284.296 -1.15936 -1.01972 0
M  V30 3065 H 286.254 -0.509306 -4.07328 0
M  V30 3066 H 284.915 0.187123 -3.13542 0
M  V30 3067 H 284.108 -1.50574 -4.80982 0
M  V30 3068 H 283.71 -2.01315 -3.15195 0
M  V30 3069 H 286.002 -2.54686 -6.27807 0
M  V30 3070 H 286.945 -4.00635 -5.83864 0
M  V30 3071 H 287.353 -2.43192 -5.09429 0
M  V30 3072 N 286.751 1.08385 -1.14413 0
M  V30 3073 C 287.698 2.15311 -0.831265 0
M  V30 3074 C 288.668 1.64751 0.211292 0
M  V30 3075 O 289.853 1.90627 0.0811674 0
M  V30 3076 C 286.993 3.43658 -0.315143 0
M  V30 3077 C 286.106 4.08064 -1.41802 0
M  V30 3078 C 285.241 5.24207 -0.859126 0
M  V30 3079 C 284.28 5.80554 -1.93967 0
M  V30 3080 N 283.417 6.88042 -1.39793 0
M  V30 3081 H 288.257 2.41415 -1.74708 0
M  V30 3082 H 285.794 1.18474 -0.871909 0
M  V30 3083 H 287.752 4.172 0.00230884 0
M  V30 3084 H 286.382 3.17839 0.56378 0
M  V30 3085 H 285.434 3.3228 -1.85187 0
M  V30 3086 H 286.746 4.45962 -2.23427 0
M  V30 3087 H 285.9 6.04689 -0.49359 0
M  V30 3088 H 284.639 4.87699 -0.011932 0
M  V30 3089 H 283.644 4.98725 -2.31415 0
M  V30 3090 H 284.869 6.19121 -2.79046 0
M  V30 3091 H 282.815 6.53493 -0.572919 0
M  V30 3092 H 282.732 7.24767 -2.15054 0
M  V30 3093 H 284 7.72255 -1.0603 0
M  V30 3094 N 288.23 0.939286 1.26551 0
M  V30 3095 C 289.507 0.5038 1.89001 0
M  V30 3096 C 289.887 -1.01854 1.84903 0
M  V30 3097 O 289.235 -1.87773 1.30206 0
M  V30 3098 C 289.445 1.063 3.32417 0
M  V30 3099 C 290.793 1.13051 4.09273 0
M  V30 3100 O 291.817 1.01345 3.41479 0
M  V30 3101 O 290.676 1.31233 5.30509 0
M  V30 3102 H 287.77 0.163897 0.810597 0
M  V30 3103 H 290.316 1.03173 1.34735 0
M  V30 3104 H 289.088 2.10665 3.29752 0
M  V30 3105 H 288.711 0.517408 3.94219 0
M  V30 3106 N 289.708 -1.40897 0.706093 0
M  V30 3107 C 290.655 -2.30751 0.0474474 0
M  V30 3108 C 291.625 -1.47678 -0.76029 0
M  V30 3109 O 292.81 -1.76441 -0.726177 0
M  V30 3110 C 289.95 -3.33815 -0.875309 0
M  V30 3111 C 289.063 -4.31961 -0.0580623 0
M  V30 3112 C 288.198 -5.22093 -0.979425 0
M  V30 3113 C 287.237 -6.11902 -0.155706 0
M  V30 3114 N 286.374 -6.94482 -1.03144 0
M  V30 3115 H 291.214 -2.86513 0.819413 0
M  V30 3116 H 288.751 -1.41102 0.415783 0
M  V30 3117 H 290.709 -3.92129 -1.42446 0
M  V30 3118 H 289.339 -2.79579 -1.61356 0
M  V30 3119 H 288.391 -3.75507 0.608147 0
M  V30 3120 H 289.703 -4.95415 0.580082 0
M  V30 3121 H 288.857 -5.85292 -1.59744 0
M  V30 3122 H 287.596 -4.5889 -1.65141 0
M  V30 3123 H 286.601 -5.47742 0.475309 0
M  V30 3124 H 287.826 -6.77162 0.512635 0
M  V30 3125 H 285.772 -6.33877 -1.68924 0
M  V30 3126 H 285.689 -7.54665 -0.449108 0
M  V30 3127 H 286.957 -7.6214 -1.63593 0
M  V30 3128 N 291.186 -0.45159 -1.50991 0
M  V30 3129 C 292.116 0.342898 -2.30969 0
M  V30 3130 C 293.097 1.00815 -1.37005 0
M  V30 3131 O 294.282 1.00907 -1.65926 0
M  V30 3132 C 291.412 1.43637 -3.16205 0
M  V30 3133 C 290.366 0.893818 -4.18563 0
M  V30 3134 C 289.692 2.08411 -4.92411 0
M  V30 3135 C 290.992 -0.0815568 -5.22236 0
M  V30 3136 H 292.686 -0.324556 -2.97636 0
M  V30 3137 H 290.232 -0.157531 -1.43136 0
M  V30 3138 H 292.185 1.9995 -3.70942 0
M  V30 3139 H 290.909 2.13232 -2.47386 0
M  V30 3140 H 289.568 0.352798 -3.64898 0
M  V30 3141 H 289.216 2.76658 -4.20082 0
M  V30 3142 H 288.916 1.72741 -5.61636 0
M  V30 3143 H 290.44 2.65251 -5.49976 0
M  V30 3144 H 291.854 0.391742 -5.7196 0
M  V30 3145 H 290.251 -0.351551 -5.99069 0
M  V30 3146 H 291.321 -1.01374 -4.74185 0
M  V30 3147 N 292.664 1.56529 -0.183458 0
M  V30 3148 C 293.627 2.17324 0.728223 0
M  V30 3149 C 294.627 1.12453 1.14939 0
M  V30 3150 O 295.817 1.37902 1.06437 0
M  V30 3151 C 292.949 2.76591 1.99274 0
M  V30 3152 H 294.142 2.99241 0.198772 0
M  V30 3153 H 291.695 1.5616 0.0661391 0
M  V30 3154 H 292.43 1.98441 2.56499 0
M  V30 3155 H 292.215 3.5335 1.69959 0
M  V30 3156 H 293.705 3.23311 2.6431 0
M  V30 3157 N 294.142 -0.090211 1.57342 0
M  V30 3158 C 295.074 -1.13541 1.99101 0
M  V30 3159 C 296.087 -1.3604 0.894258 0
M  V30 3160 O 297.276 -1.34606 1.17233 0
M  V30 3161 C 294.376 -2.49001 2.29895 0
M  V30 3162 C 293.549 -2.46712 3.61182 0
M  V30 3163 C 292.608 -3.64136 3.79857 0
M  V30 3164 O 291.634 -3.46405 4.51655 0
M  V30 3165 N 292.836 -4.83802 3.20806 0
M  V30 3166 H 295.601 -0.779942 2.89373 0
M  V30 3167 H 293.162 -0.279125 1.59476 0
M  V30 3168 H 295.154 -3.26166 2.39578 0
M  V30 3169 H 293.724 -2.76619 1.45605 0
M  V30 3170 H 292.944 -1.55058 3.62423 0
M  V30 3171 H 294.232 -2.42265 4.4742 0
M  V30 3172 H 293.63 -5.01112 2.62494 0
M  V30 3173 H 292.187 -5.58543 3.35966 0
M  V30 3174 N 295.62 -1.53406 -0.361157 0
M  V30 3175 C 296.867 -1.69802 -1.10333 0
M  V30 3176 C 297.195 -0.452087 -1.89173 0
M  V30 3177 O 296.45 0.566017 -1.87336 0
M  V30 3178 C 296.749 -2.90211 -2.08596 0
M  V30 3179 C 296.415 -4.26539 -1.46203 0
M  V30 3180 C 295.077 -4.6361 -1.28915 0
M  V30 3181 C 297.429 -5.113 -1.01101 0
M  V30 3182 C 294.757 -5.83075 -0.651157 0
M  V30 3183 C 297.109 -6.31415 -0.387007 0
M  V30 3184 C 295.773 -6.67195 -0.201657 0
M  V30 3185 H 295.043 -0.621351 -0.403737 0
M  V30 3186 H 297.69 -1.87598 -0.384609 0
M  V30 3187 H 295.995 -2.66946 -2.86788 0
M  V30 3188 H 297.692 -3.00091 -2.65982 0
M  V30 3189 H 294.282 -3.97352 -1.60653 0
M  V30 3190 H 298.466 -4.83206 -1.13249 0
M  V30 3191 H 293.722 -6.09385 -0.496006 0
M  V30 3192 H 297.896 -6.96394 -0.0293563 0
M  V30 3193 H 295.523 -7.59628 0.294766 0
M  V30 3194 N 297.098 0.621204 -1.44841 0
M  V30 3195 C 298.326 1.40752 -1.51646 0
M  V30 3196 C 298.741 1.88246 -0.144549 0
M  V30 3197 O 298.098 1.61422 0.851416 0
M  V30 3198 C 298.149 2.62119 -2.4895 0
M  V30 3199 O 297.87 2.16602 -3.80808 0
M  V30 3200 C 299.371 3.55135 -2.65319 0
M  V30 3201 H 296.591 0.431325 -0.514004 0
M  V30 3202 H 299.135 0.758835 -1.899 0
M  V30 3203 H 297.29 3.23058 -2.13805 0
M  V30 3204 H 297.704 2.95358 -4.33433 0
M  V30 3205 H 299.178 4.36874 -3.37409 0
M  V30 3206 H 299.655 4.04592 -1.70886 0
M  V30 3207 H 300.261 3.00058 -3.01405 0
M  V30 3208 N 298.576 1.31904 0.862503 0
M  V30 3209 C 299.801 1.25135 1.65397 0
M  V30 3210 C 300.226 -0.179 1.87246 0
M  V30 3211 O 299.584 -1.1277 1.4196 0
M  V30 3212 C 299.632 2.00832 2.99498 0
M  V30 3213 O 298.736 1.35075 3.89652 0
M  V30 3214 H 298.077 0.431655 0.504549 0
M  V30 3215 H 300.607 1.74094 1.07483 0
M  V30 3216 H 300.617 2.10709 3.49379 0
M  V30 3217 H 299.292 3.04847 2.82916 0
M  V30 3218 H 297.869 1.33696 3.48109 0
M  V30 3219 N 300.054 -1.07777 1.14986 0
M  V30 3220 C 300.984 -2.16865 0.865557 0
M  V30 3221 C 301.965 -1.69123 -0.182083 0
M  V30 3222 O 303.15 -1.94164 -0.0373815 0
M  V30 3223 C 300.28 -3.45539 0.349313 0
M  V30 3224 C 299.234 -4.06708 1.33313 0
M  V30 3225 C 298.56 -5.30411 0.675918 0
M  V30 3226 C 299.86 -4.47241 2.69764 0
M  V30 3227 H 301.554 -2.40905 1.77778 0
M  V30 3228 H 299.1 -1.15781 0.856203 0
M  V30 3229 H 301.053 -4.21174 0.137983 0
M  V30 3230 H 299.777 -3.21072 -0.598362 0
M  V30 3231 H 298.436 -3.33112 1.53075 0
M  V30 3232 H 298.084 -5.02232 -0.277767 0
M  V30 3233 H 297.784 -5.72293 1.33244 0
M  V30 3234 H 299.308 -6.08755 0.474262 0
M  V30 3235 H 300.722 -5.14025 2.53873 0
M  V30 3236 H 299.119 -5.00062 3.3175 0
M  V30 3237 H 300.189 -3.58818 3.26156 0
M  V30 3238 N 301.532 -0.945985 -1.26051 0
M  V30 3239 C 302.464 -0.416662 -2.25381 0
M  V30 3240 C 303.477 0.462712 -1.56086 0
M  V30 3241 O 304.666 0.272383 -1.7641 0
M  V30 3242 C 301.766 0.419812 -3.3629 0
M  V30 3243 C 300.939 -0.444531 -4.35135 0
M  V30 3244 C 299.998 0.332305 -5.2515 0
M  V30 3245 O 299.024 -0.266324 -5.68577 0
M  V30 3246 N 300.226 1.62763 -5.57215 0
M  V30 3247 H 302.991 -1.27059 -2.71433 0
M  V30 3248 H 300.552 -0.815392 -1.39868 0
M  V30 3249 H 302.544 0.947013 -3.93464 0
M  V30 3250 H 301.114 1.17456 -2.89694 0
M  V30 3251 H 300.334 -1.15291 -3.76964 0
M  V30 3252 H 301.622 -1.03478 -4.98166 0
M  V30 3253 H 301.02 2.13603 -5.23823 0
M  V30 3254 H 299.577 2.10097 -6.17011 0
M  V30 3255 N 303.011 1.40521 -0.713556 0
M  V30 3256 C 303.974 2.29098 -0.0684347 0
M  V30 3257 C 304.974 1.45268 0.689472 0
M  V30 3258 O 306.164 1.66205 0.521677 0
M  V30 3259 C 303.296 3.28446 0.913024 0
M  V30 3260 H 304.489 2.87645 -0.84855 0
M  V30 3261 H 302.042 1.48809 -0.47809 0
M  V30 3262 H 302.777 2.74913 1.72027 0
M  V30 3263 H 302.562 3.90327 0.372472 0
M  V30 3264 H 304.052 3.94777 1.36165 0
M  V30 3265 N 304.489 0.459591 1.5075 0
M  V30 3266 C 305.766 -0.160371 1.94941 0
M  V30 3267 C 306.146 -1.58048 1.39943 0
M  V30 3268 O 305.494 -2.206 0.595629 0
M  V30 3269 C 305.704 -0.115432 3.48809 0
M  V30 3270 C 307.052 -0.310026 4.23467 0
M  V30 3271 O 308.076 -0.192543 3.55679 0
M  V30 3272 O 306.935 -0.546031 5.43765 0
M  V30 3273 H 304.029 -0.117925 0.818549 0
M  V30 3274 H 306.575 0.519169 1.61563 0
M  V30 3275 H 305.347 0.87652 3.81357 0
M  V30 3276 H 304.97 -0.836928 3.88692 0
M  V30 3277 N 305.967 -1.56429 0.191757 0
M  V30 3278 C 306.897 -2.21937 -0.725696 0
M  V30 3279 C 307.878 -1.1814 -1.2238 0
M  V30 3280 O 309.063 -1.46636 -1.27325 0
M  V30 3281 C 306.193 -2.87611 -1.94672 0
M  V30 3282 C 305.147 -3.97623 -1.58366 0
M  V30 3283 C 304.473 -4.50446 -2.88102 0
M  V30 3284 C 305.773 -5.16197 -0.796133 0
M  V30 3285 H 307.467 -2.98861 -0.179606 0
M  V30 3286 H 305.013 -1.43749 -0.0849464 0
M  V30 3287 H 306.966 -3.3212 -2.59373 0
M  V30 3288 H 305.69 -2.08087 -2.51728 0
M  V30 3289 H 304.349 -3.53801 -0.960247 0
M  V30 3290 H 303.997 -3.67688 -3.43241 0
M  V30 3291 H 303.697 -5.24675 -2.64556 0
M  V30 3292 H 305.221 -4.97654 -3.53798 0
M  V30 3293 H 306.635 -5.57271 -1.34618 0
M  V30 3294 H 305.032 -5.96471 -0.658928 0
M  V30 3295 H 306.102 -4.84473 0.203478 0
M  V30 3296 N 307.445 0.0818655 -1.57387 0
M  V30 3297 C 308.355 1.11642 -2.06333 0
M  V30 3298 C 309.371 1.43033 -0.99083 0
M  V30 3299 O 310.547 1.53411 -1.30488 0
M  V30 3300 C 307.612 2.41342 -2.48907 0
M  V30 3301 C 306.673 2.17014 -3.7041 0
M  V30 3302 C 305.906 3.4053 -4.10944 0
M  V30 3303 O 306.129 4.4927 -3.51444 0
M  V30 3304 O 305.063 3.29336 -5.03807 0
M  V30 3305 H 308.889 0.730657 -2.9478 0
M  V30 3306 H 306.474 0.295301 -1.46452 0
M  V30 3307 H 308.356 3.17691 -2.76858 0
M  V30 3308 H 307.031 2.79319 -1.63593 0
M  V30 3309 H 305.938 1.38403 -3.47556 0
M  V30 3310 H 307.271 1.83923 -4.56545 0
M  V30 3311 N 308.923 1.53595 0.353017 0
M  V30 3312 C 309.871 1.81605 1.45335 0
M  V30 3313 C 310.865 0.685923 1.54892 0
M  V30 3314 O 312.071 0.869095 1.57628 0
M  V30 3315 H 308.446 0.575204 0.484401 0
M  V30 3316 H 310.417 2.73679 1.18921 0
M  V30 3317 C 309.166 2.03406 2.81995 0
M  V30 3318 H 308.489 2.89814 2.75405 0
M  V30 3319 H 309.929 2.26975 3.58132 0
M  V30 3320 C 308.388 0.816794 3.26849 0
M  V30 3321 O 308.918 0.0115856 4.01698 0
M  V30 3322 N 307.124 0.636682 2.8354 0
M  V30 3323 H 306.671 1.2931 2.22793 0
M  V30 3324 H 306.629 -0.176336 3.13905 0
M  V30 3325 N 310.401 -0.613514 1.45168 0
M  V30 3326 C 311.649 -1.36997 1.48581 0
M  V30 3327 C 311.97 -1.94589 0.126545 0
M  V30 3328 O 311.24 -1.76816 -0.843372 0
M  V30 3329 H 309.82 -0.508558 0.547154 0
M  V30 3330 H 312.482 -0.720853 1.81079 0
M  V30 3331 H 311.578 -2.1924 2.22127 0
M  V30 3332 N 311.879 -1.3236 -0.855495 0
M  V30 3333 C 313.125 -1.23054 -1.612 0
M  V30 3334 C 313.458 0.207404 -1.93089 0
M  V30 3335 O 312.733 1.14432 -1.57275 0
M  V30 3336 C 313.016 -2.08937 -2.93287 0
M  V30 3337 C 312.869 -3.61105 -2.68185 0
M  V30 3338 C 314.188 -1.94986 -3.94549 0
M  V30 3339 H 311.307 -0.448364 -0.584926 0
M  V30 3340 H 313.949 -1.62297 -0.987917 0
M  V30 3341 H 312.099 -1.75599 -3.46551 0
M  V30 3342 H 313.771 -4.04652 -2.21483 0
M  V30 3343 H 312.014 -3.83813 -2.02164 0
M  V30 3344 H 312.685 -4.16522 -3.62234 0
M  V30 3345 H 315.161 -2.24189 -3.5054 0
M  V30 3346 H 314.037 -2.57356 -4.84829 0
M  V30 3347 H 314.298 -0.917263 -4.3248 0
M  V30 3348 N 313.357 1.07166 -1.15556 0
M  V30 3349 C 314.305 2.16517 -0.8499 0
M  V30 3350 C 315.299 1.68468 0.177454 0
M  V30 3351 O 316.505 1.79971 0.0323026 0
M  V30 3352 H 312.88 0.706652 -0.25719 0
M  V30 3353 H 314.851 2.39514 -1.77976 0
M  V30 3354 C 313.6 3.45855 -0.357682 0
M  V30 3355 H 312.923 3.83214 -1.13961 0
M  V30 3356 H 314.363 4.23607 -0.182489 0
M  V30 3357 C 312.822 3.24062 0.921152 0
M  V30 3358 O 313.352 3.48813 1.9923 0
M  V30 3359 N 311.558 2.77539 0.86141 0
M  V30 3360 H 311.105 2.57598 -0.0104408 0
M  V30 3361 H 311.063 2.63337 1.71758 0
M  V30 3362 N 314.835 0.952656 1.25548 0
M  V30 3363 C 315.765 0.489287 2.28316 0
M  V30 3364 C 316.746 -0.463359 1.63667 0
M  V30 3365 O 317.931 -0.36274 1.90782 0
M  V30 3366 C 315.061 -0.235603 3.465 0
M  V30 3367 C 314.015 0.631593 4.23314 0
M  V30 3368 C 313.341 -0.223923 5.34231 0
M  V30 3369 C 314.641 1.90871 4.86174 0
M  V30 3370 H 316.335 1.34822 2.67326 0
M  V30 3371 H 313.881 0.649728 1.28509 0
M  V30 3372 H 315.834 -0.570882 4.17515 0
M  V30 3373 H 314.558 -1.12877 3.06474 0
M  V30 3374 H 313.217 0.949929 3.54079 0
M  V30 3375 H 312.865 -1.11678 4.90446 0
M  V30 3376 H 312.565 0.35299 5.86539 0
M  V30 3377 H 314.089 -0.554214 6.0808 0
M  V30 3378 H 315.503 1.63997 5.49343 0
M  V30 3379 H 313.9 2.43112 5.4865 0
M  V30 3380 H 314.97 2.61304 4.08471 0
M  V30 3381 N 316.313 -1.40141 0.720998 0
M  V30 3382 C 317.223 -2.34486 0.0731031 0
M  V30 3383 C 318.239 -1.57587 -0.737723 0
M  V30 3384 O 319.415 -1.89949 -0.669429 0
M  V30 3385 C 316.48 -3.36528 -0.833656 0
M  V30 3386 C 315.541 -4.29298 -0.0121673 0
M  V30 3387 C 314.774 -5.26466 -0.875742 0
M  V30 3388 O 314.997 -5.29745 -2.11485 0
M  V30 3389 O 313.931 -6.01092 -0.31185 0
M  V30 3390 H 317.757 -2.9152 0.851444 0
M  V30 3391 H 315.342 -1.41427 0.481527 0
M  V30 3392 H 317.224 -3.99093 -1.35289 0
M  V30 3393 H 315.899 -2.81899 -1.59105 0
M  V30 3394 H 314.806 -3.70001 0.552262 0
M  V30 3395 H 316.139 -4.87094 0.707129 0
M  V30 3396 N 317.792 -0.46758 -1.50504 0
M  V30 3397 C 318.724 0.364655 -2.26281 0
M  V30 3398 C 319.737 0.960151 -1.31472 0
M  V30 3399 O 320.926 0.849153 -1.57008 0
M  V30 3400 C 318.026 1.52509 -3.02645 0
M  V30 3401 C 317.199 1.04302 -4.24782 0
M  V30 3402 C 316.258 2.07709 -4.8347 0
M  V30 3403 O 315.284 1.65913 -5.44483 0
M  V30 3404 N 316.486 3.40485 -4.70159 0
M  V30 3405 H 319.251 -0.28495 -2.98342 0
M  V30 3406 H 316.812 -0.298163 -1.59131 0
M  V30 3407 H 318.804 2.21371 -3.38787 0
M  V30 3408 H 317.374 2.07945 -2.33404 0
M  V30 3409 H 316.594 0.180393 -3.93787 0
M  V30 3410 H 317.882 0.698798 -5.03978 0
M  V30 3411 H 317.28 3.77155 -4.21629 0
M  V30 3412 H 315.837 4.05156 -5.1058 0
M  V30 3413 N 319.27 1.56325 -0.20005 0
M  V30 3414 C 320.498 2.02105 0.442874 0
M  V30 3415 C 320.913 1.08014 1.5485 0
M  V30 3416 O 320.27 0.0858797 1.82298 0
M  V30 3417 C 320.321 3.47549 0.994583 0
M  V30 3418 O 320.042 4.38049 -0.0669322 0
M  V30 3419 C 321.543 4.0887 1.7129 0
M  V30 3420 H 318.763 0.661807 0.110691 0
M  V30 3421 H 321.307 2.02134 -0.310207 0
M  V30 3422 H 319.462 3.48204 1.69803 0
M  V30 3423 H 319.876 5.23368 0.344462 0
M  V30 3424 H 321.35 5.12475 2.05118 0
M  V30 3425 H 321.827 3.52615 2.61838 0
M  V30 3426 H 322.433 4.12002 1.05518 0
M  V30 3427 N 320.748 -0.0735177 1.57428 0
M  V30 3428 C 321.997 -0.771809 1.86349 0
M  V30 3429 C 322.31 -1.78828 0.792452 0
M  V30 3430 O 323.516 -2.53602 0.96945 0
M  V30 3431 C 321.972 -1.42358 3.30548 0
M  V30 3432 C 321.58 -0.445761 4.45777 0
M  V30 3433 C 323.324 -2.10434 3.6867 0
M  V30 3434 C 321.231 -1.10335 5.81016 0
M  V30 3435 H 320.161 -0.291999 0.695164 0
M  V30 3436 H 322.812 -0.0250749 1.83483 0
M  V30 3437 H 321.194 -2.21852 3.28021 0
M  V30 3438 H 322.368 0.319239 4.59693 0
M  V30 3439 H 320.683 0.130457 4.16196 0
M  V30 3440 H 323.28 -2.60405 4.67004 0
M  V30 3441 H 323.623 -2.90298 2.98383 0
M  V30 3442 H 324.156 -1.37773 3.7318 0
M  V30 3443 H 320.895 -0.345061 6.54591 0
M  V30 3444 H 320.415 -1.83925 5.70904 0
M  V30 3445 H 322.094 -1.62367 6.26295 0
M  V30 3446 N 322.226 -1.5378 -0.344866 0
M  V30 3447 C 323.642 -1.44015 -0.687888 0
M  V30 3448 C 323.842 -0.595834 -1.92489 0
M  V30 3449 O 322.898 -0.0863064 -2.52352 0
M  V30 3450 C 324.211 -2.87481 -0.881758 0
M  V30 3451 C 325.759 -2.97247 -0.980459 0
M  V30 3452 C 326.234 -4.41819 -1.20665 0
M  V30 3453 N 327.725 -4.45339 -1.27389 0
M  V30 3454 C 328.46 -5.54333 -1.46639 0
M  V30 3455 N 327.956 -6.73335 -1.63071 0
M  V30 3456 N 329.749 -5.41944 -1.49176 0
M  V30 3457 H 321.9 -2.07169 0.468475 0
M  V30 3458 H 324.163 -0.93643 0.147655 0
M  V30 3459 H 323.869 -3.51672 -0.0443444 0
M  V30 3460 H 323.743 -3.32352 -1.78388 0
M  V30 3461 H 326.13 -2.33197 -1.8084 0
M  V30 3462 H 326.211 -2.5574 -0.0552713 0
M  V30 3463 H 325.855 -5.06449 -0.383652 0
M  V30 3464 H 325.785 -4.80917 -2.14539 0
M  V30 3465 H 328.276 -3.59585 -1.1622 0
M  V30 3466 H 328.589 -7.52165 -1.77391 0
M  V30 3467 H 326.934 -6.76282 -1.60209 0
M  V30 3468 H 330.125 -4.47932 -1.3592 0
M  V30 3469 H 330.298 -6.26946 -1.63837 0
M  V30 3470 N 323.704 0.605807 -1.45491 0
M  V30 3471 C 324.634 1.72709 -1.57143 0
M  V30 3472 C 325.615 1.6476 -0.422884 0
M  V30 3473 O 326.8 1.83132 -0.646247 0
M  V30 3474 C 323.93 3.11316 -1.53948 0
M  V30 3475 C 322.884 3.34077 -2.67537 0
M  V30 3476 C 322.21 4.72975 -2.49397 0
M  V30 3477 C 323.51 3.24158 -4.09535 0
M  V30 3478 H 325.204 1.63214 -2.51001 0
M  V30 3479 H 322.75 0.78379 -1.208 0
M  V30 3480 H 324.703 3.89557 -1.60696 0
M  V30 3481 H 323.427 3.21655 -0.566205 0
M  V30 3482 H 322.086 2.58227 -2.6022 0
M  V30 3483 H 321.734 4.8005 -1.50205 0
M  V30 3484 H 321.434 4.8916 -3.25571 0
M  V30 3485 H 322.958 5.53414 -2.58002 0
M  V30 3486 H 324.372 3.92271 -4.18086 0
M  V30 3487 H 322.769 3.51872 -4.86113 0
M  V30 3488 H 323.839 2.2157 -4.31317 0
M  V30 3489 N 325.182 1.32811 0.848464 0
M  V30 3490 C 326.598 1.11937 1.13764 0
M  V30 3491 C 326.798 -0.0960789 2.01271 0
M  V30 3492 O 325.854 -0.779165 2.40178 0
M  V30 3493 C 327.167 2.402 1.809 0
M  V30 3494 C 328.715 2.46016 1.93508 0
M  V30 3495 C 329.19 3.74215 2.64059 0
M  V30 3496 N 330.681 3.75232 2.71579 0
M  V30 3497 C 331.416 4.71134 3.26833 0
M  V30 3498 N 330.912 5.77406 3.8285 0
M  V30 3499 N 332.705 4.58623 3.24995 0
M  V30 3500 H 324.856 2.1073 0.265855 0
M  V30 3501 H 327.119 0.930671 0.180431 0
M  V30 3502 H 326.825 3.29093 1.24058 0
M  V30 3503 H 326.699 2.51628 2.81004 0
M  V30 3504 H 329.086 1.57577 2.49506 0
M  V30 3505 H 329.167 2.38536 0.923811 0
M  V30 3506 H 328.811 4.63031 2.08722 0
M  V30 3507 H 328.741 3.78968 3.65637 0
M  V30 3508 H 331.232 2.98423 2.31845 0
M  V30 3509 H 331.545 6.46632 4.23187 0
M  V30 3510 H 329.89 5.81152 3.81165 0
M  V30 3511 H 333.081 3.74762 2.80484 0
M  V30 3512 H 333.254 5.33535 3.67756 0
M  V30 3513 N 326.66 -1.06551 1.16123 0
M  V30 3514 C 327.57 -2.17484 0.879662 0
M  V30 3515 C 328.586 -1.73377 -0.147104 0
M  V30 3516 O 329.762 -2.01379 0.0289128 0
M  V30 3517 C 326.827 -3.44591 0.381829 0
M  V30 3518 C 325.888 -4.0322 1.4735 0
M  V30 3519 C 325.121 -5.24261 0.999324 0
M  V30 3520 O 325.344 -5.70198 -0.151957 0
M  V30 3521 O 324.278 -5.74775 1.78653 0
M  V30 3522 H 328.104 -2.44075 1.80724 0
M  V30 3523 H 325.689 -1.16042 0.940992 0
M  V30 3524 H 327.571 -4.21254 0.111053 0
M  V30 3525 H 326.246 -3.19532 -0.51777 0
M  V30 3526 H 325.153 -3.2806 1.79798 0
M  V30 3527 H 326.486 -4.32568 2.34831 0
M  V30 3528 N 328.138 -0.959301 -1.25041 0
M  V30 3529 C 329.048 -0.489994 -2.29426 0
M  V30 3530 C 330.064 0.444944 -1.68215 0
M  V30 3531 O 331.24 0.320046 -1.98841 0
M  V30 3532 C 328.305 0.220309 -3.45999 0
M  V30 3533 C 327.366 -0.753418 -4.22637 0
M  V30 3534 C 326.599 -0.076918 -5.33645 0
M  V30 3535 O 326.822 1.13649 -5.58963 0
M  V30 3536 O 325.756 -0.764824 -5.97021 0
M  V30 3537 H 329.582 -1.35755 -2.71669 0
M  V30 3538 H 327.167 -0.725961 -1.30576 0
M  V30 3539 H 329.049 0.619677 -4.16819 0
M  V30 3540 H 327.724 1.06296 -3.0575 0
M  V30 3541 H 326.631 -1.20308 -3.54227 0
M  V30 3542 H 327.964 -1.56423 -4.66683 0
M  V30 3543 N 329.616 1.39756 -0.72842 0
M  V30 3544 C 330.865 1.99879 -0.270407 0
M  V30 3545 C 331.178 1.58449 1.14688 0
M  V30 3546 O 332.384 2.11362 1.70407 0
M  V30 3547 C 330.84 3.57292 -0.43252 0
M  V30 3548 C 330.448 4.07688 -1.85727 0
M  V30 3549 C 332.192 4.24485 -0.0359507 0
M  V30 3550 C 330.099 5.5765 -1.96928 0
M  V30 3551 H 329.029 0.747689 -0.0973472 0
M  V30 3552 H 331.68 1.59837 -0.901355 0
M  V30 3553 H 330.062 3.95097 0.267219 0
M  V30 3554 H 331.236 3.81231 -2.58843 0
M  V30 3555 H 329.551 3.53135 -2.20646 0
M  V30 3556 H 332.148 5.34609 -0.0987484 0
M  V30 3557 H 332.491 4.03915 1.00787 0
M  V30 3558 H 333.024 3.9183 -0.686604 0
M  V30 3559 H 329.763 5.8309 -2.99476 0
M  V30 3560 H 329.283 5.8593 -1.28241 0
M  V30 3561 H 330.962 6.22957 -1.74737 0
M  V30 3562 N 331.094 0.475555 1.50254 0
M  V30 3563 C 332.057 -0.305016 2.27161 0
M  V30 3564 C 333.057 -0.916519 1.32123 0
M  V30 3565 O 334.247 -0.785003 1.5551 0
M  V30 3566 C 331.379 -1.43496 3.09227 0
M  V30 3567 H 332.572 0.369511 2.97615 0
M  V30 3568 H 330.125 0.229747 1.54602 0
M  V30 3569 H 330.86 -2.14441 2.43281 0
M  V30 3570 H 330.645 -1.00223 3.79075 0
M  V30 3571 H 332.135 -1.98548 3.67381 0
M  V30 3572 N 332.573 -1.56217 0.208337 0
M  V30 3573 C 333.483 -2.23316 -0.718836 0
M  V30 3574 C 334.499 -1.23648 -1.22422 0
M  V30 3575 O 335.675 -1.56423 -1.26861 0
M  V30 3576 C 332.74 -2.88968 -1.91568 0
M  V30 3577 C 331.801 -4.03943 -1.45357 0
M  V30 3578 C 331.034 -4.66455 -2.59337 0
M  V30 3579 O 331.257 -4.27919 -3.77149 0
M  V30 3580 O 330.191 -5.55686 -2.31293 0
M  V30 3581 H 334.017 -3.03182 -0.177315 0
M  V30 3582 H 331.602 -1.49384 -0.0215402 0
M  V30 3583 H 333.484 -3.30455 -2.61491 0
M  V30 3584 H 332.159 -2.12071 -2.44556 0
M  V30 3585 H 331.066 -3.67052 -0.722746 0
M  V30 3586 H 332.399 -4.82543 -0.970219 0
M  V30 3587 N 334.051 0.0651679 -1.57465 0
M  V30 3588 C 334.983 1.10359 -2.00882 0
M  V30 3589 C 335.996 1.346 -0.915788 0
M  V30 3590 O 337.185 1.32723 -1.1936 0
M  V30 3591 C 334.285 2.45312 -2.33828 0
M  V30 3592 C 333.458 2.40934 -3.65061 0
M  V30 3593 C 332.517 3.58047 -3.85602 0
M  V30 3594 O 331.543 3.39175 -4.57109 0
M  V30 3595 N 332.745 4.78637 -3.28462 0
M  V30 3596 H 335.51 0.733807 -2.90578 0
M  V30 3597 H 333.071 0.253719 -1.599 0
M  V30 3598 H 335.063 3.22314 -2.44737 0
M  V30 3599 H 333.633 2.74267 -1.49988 0
M  V30 3600 H 332.853 1.49273 -3.64844 0
M  V30 3601 H 334.141 2.35117 -4.51218 0
M  V30 3602 H 333.539 4.96872 -2.70433 0
M  V30 3603 H 332.096 5.53127 -3.44809 0
M  V30 3604 N 335.529 1.53961 0.336706 0
M  V30 3605 C 336.479 1.7881 1.41461 0
M  V30 3606 C 337.463 0.643561 1.47469 0
M  V30 3607 O 338.655 0.903166 1.52223 0
M  V30 3608 C 335.784 2.00722 2.78506 0
M  V30 3609 C 334.87 3.2126 2.76862 0
M  V30 3610 N 335.261 4.42588 2.44845 0
M  V30 3611 C 333.559 3.22568 3.08004 0
M  V30 3612 C 334.26 5.2447 2.51607 0
M  V30 3613 N 333.236 4.61344 2.87511 0
M  V30 3614 H 337.038 2.70205 1.15615 0
M  V30 3615 H 334.552 1.52978 0.545112 0
M  V30 3616 H 336.549 2.1666 3.5618 0
M  V30 3617 H 335.209 1.10573 3.05293 0
M  V30 3618 H 336.22 4.69819 2.17922 0
M  V30 3619 H 332.897 2.42409 3.39918 0
M  V30 3620 H 334.287 6.31324 2.29955 0
M  V30 3621 N 337.007 -0.598083 1.45811 0
M  V30 3622 C 338.423 -0.919847 1.30426 0
M  V30 3623 C 338.623 -1.99759 0.264303 0
M  V30 3624 O 337.679 -2.50221 -0.338472 0
M  V30 3625 C 338.992 -1.35176 2.68603 0
M  V30 3626 C 340.54 -1.46546 2.76574 0
M  V30 3627 C 341.015 -1.9311 4.15298 0
M  V30 3628 N 342.506 -2.00328 4.1764 0
M  V30 3629 C 343.241 -2.37599 5.21856 0
M  V30 3630 N 342.737 -2.73771 6.36413 0
M  V30 3631 N 344.53 -2.38021 5.09218 0
M  V30 3632 H 336.681 0.114111 2.12093 0
M  V30 3633 H 338.944 -0.0116121 0.947929 0
M  V30 3634 H 338.65 -0.633969 3.45939 0
M  V30 3635 H 338.524 -2.3164 2.97696 0
M  V30 3636 H 340.911 -2.17415 1.99537 0
M  V30 3637 H 340.992 -0.483727 2.51185 0
M  V30 3638 H 340.636 -1.22824 4.92825 0
M  V30 3639 H 340.566 -2.92213 4.38086 0
M  V30 3640 H 343.057 -1.74925 3.34977 0
M  V30 3641 H 343.37 -3.0112 7.11721 0
M  V30 3642 H 341.715 -2.71445 6.39799 0
M  V30 3643 H 344.906 -2.09174 4.18765 0
M  V30 3644 H 345.079 -2.66741 5.90554 0
M  V30 3645 N 338.485 -1.33259 -0.841409 0
M  V30 3646 C 339.448 -1.23221 -1.9326 0
M  V30 3647 C 340.448 -0.151895 -1.60081 0
M  V30 3648 O 341.638 -0.403246 -1.69468 0
M  V30 3649 C 338.77 -0.898123 -3.28856 0
M  V30 3650 H 339.963 -2.2021 -2.03587 0
M  V30 3651 H 337.516 -1.17281 -1.03319 0
M  V30 3652 H 338.251 0.0693841 -3.24226 0
M  V30 3653 H 338.036 -1.67934 -3.54317 0
M  V30 3654 H 339.526 -0.852563 -4.08805 0
M  V30 3655 N 339.963 1.05934 -1.16686 0
M  V30 3656 C 340.893 2.1546 -0.899949 0
M  V30 3657 C 341.874 1.69391 0.155154 0
M  V30 3658 O 343.059 1.94199 0.00648693 0
M  V30 3659 C 340.189 3.44939 -0.404241 0
M  V30 3660 C 339.143 4.04536 -1.39767 0
M  V30 3661 C 338.469 5.29268 -0.760216 0
M  V30 3662 C 339.769 4.42893 -2.76845 0
M  V30 3663 H 341.463 2.38046 -1.81588 0
M  V30 3664 H 339.009 1.14404 -0.874514 0
M  V30 3665 H 340.962 4.20901 -0.204971 0
M  V30 3666 H 339.686 3.21983 0.547206 0
M  V30 3667 H 338.345 3.30635 -1.58355 0
M  V30 3668 H 337.993 5.02611 0.197831 0
M  V30 3669 H 337.693 5.70101 -1.42332 0
M  V30 3670 H 339.217 6.07924 -0.57105 0
M  V30 3671 H 340.631 5.09921 -2.62019 0
M  V30 3672 H 339.028 4.94721 -3.39663 0
M  V30 3673 H 340.098 3.53584 -3.31823 0
M  V30 3674 N 341.441 0.965919 1.2453 0
M  V30 3675 C 342.689 0.625593 1.92174 0
M  V30 3676 C 343.01 -0.841652 1.75901 0
M  V30 3677 O 342.28 -1.60061 1.12948 0
M  V30 3678 H 340.86 0.228388 0.71123 0
M  V30 3679 H 343.522 1.2266 1.51461 0
M  V30 3680 H 342.618 0.864653 2.99884 0
M  V30 3681 N 342.919 -1.39368 0.735821 0
M  V30 3682 C 343.851 -2.2913 0.0567723 0
M  V30 3683 C 344.864 -1.46859 -0.702589 0
M  V30 3684 O 346.053 -1.69925 -0.546616 0
M  V30 3685 C 343.153 -3.25492 -0.943823 0
M  V30 3686 C 342.326 -4.36709 -0.24581 0
M  V30 3687 C 341.385 -5.13376 -1.15463 0
M  V30 3688 O 340.411 -5.65683 -0.631803 0
M  V30 3689 N 341.613 -5.24656 -2.48427 0
M  V30 3690 H 344.378 -2.88047 0.827582 0
M  V30 3691 H 341.939 -1.50957 0.585112 0
M  V30 3692 H 343.931 -3.73657 -1.55443 0
M  V30 3693 H 342.501 -2.676 -1.61583 0
M  V30 3694 H 341.721 -3.9041 0.545286 0
M  V30 3695 H 343.009 -5.08244 0.237891 0
M  V30 3696 H 342.407 -4.83679 -2.93379 0
M  V30 3697 H 340.964 -5.76258 -3.04582 0
M  V30 3698 N 344.397 -0.483516 -1.5 0
M  V30 3699 C 345.33 0.350427 -2.25493 0
M  V30 3700 C 346.308 0.985549 -1.29328 0
M  V30 3701 O 347.492 1.01906 -1.58579 0
M  V30 3702 C 344.619 1.49202 -3.04066 0
M  V30 3703 C 343.665 0.973036 -4.15252 0
M  V30 3704 S 344.498 -0.122237 -5.3536 0
M  V30 3705 C 345.654 1.02294 -6.17484 0
M  V30 3706 H 345.887 -0.290381 -2.95878 0
M  V30 3707 H 343.42 -0.268562 -1.52046 0
M  V30 3708 H 345.378 2.14623 -3.49925 0
M  V30 3709 H 344.039 2.10438 -2.33183 0
M  V30 3710 H 343.232 1.82804 -4.69679 0
M  V30 3711 H 342.834 0.396335 -3.71894 0
M  V30 3712 H 345.126 1.93195 -6.49371 0
M  V30 3713 H 346.069 0.517664 -7.06205 0
M  V30 3714 H 346.477 1.28238 -5.49741 0
M  V30 3715 N 345.875 1.56104 -0.216619 0
M  V30 3716 C 346.822 2.2007 0.695531 0
M  V30 3717 C 347.792 1.15471 1.19397 0
M  V30 3718 O 348.977 1.43807 1.25396 0
M  V30 3719 C 346.117 2.88073 1.90021 0
M  V30 3720 C 345.23 4.07253 1.44113 0
M  V30 3721 C 344.365 4.63052 2.603 0
M  V30 3722 C 343.404 5.74545 2.11103 0
M  V30 3723 N 342.541 6.24656 3.20545 0
M  V30 3724 H 347.381 2.97655 0.143327 0
M  V30 3725 H 344.918 1.46982 0.0589934 0
M  V30 3726 H 346.876 3.25681 2.60745 0
M  V30 3727 H 345.506 2.13015 2.42538 0
M  V30 3728 H 344.558 3.75164 0.628999 0
M  V30 3729 H 345.87 4.8783 1.04036 0
M  V30 3730 H 345.024 5.03078 3.39113 0
M  V30 3731 H 343.763 3.81628 3.03663 0
M  V30 3732 H 342.768 5.34027 1.3075 0
M  V30 3733 H 343.993 6.57801 1.68746 0
M  V30 3734 H 341.939 5.46148 3.63399 0
M  V30 3735 H 341.856 7.00343 2.84704 0
M  V30 3736 H 343.124 6.69338 3.99508 0
M  V30 3737 N 347.353 -0.0568162 1.57498 0
M  V30 3738 C 348.263 -1.08346 2.08083 0
M  V30 3739 C 349.279 -1.41439 1.01346 0
M  V30 3740 O 350.455 -1.51316 1.32912 0
M  V30 3741 C 347.52 -2.37352 2.52715 0
M  V30 3742 C 346.581 -2.11093 3.73816 0
M  V30 3743 C 345.814 -3.33949 4.1631 0
M  V30 3744 O 346.037 -4.43622 3.58547 0
M  V30 3745 O 344.971 -3.21279 5.08983 0
M  V30 3746 H 348.797 -0.683667 2.95905 0
M  V30 3747 H 346.382 -0.271965 1.46904 0
M  V30 3748 H 348.264 -3.13246 2.81877 0
M  V30 3749 H 346.939 -2.76681 1.68016 0
M  V30 3750 H 345.846 -1.32856 3.49714 0
M  V30 3751 H 347.179 -1.76637 4.59413 0
M  V30 3752 N 348.832 -1.54138 -0.328536 0
M  V30 3753 C 349.765 -1.78014 -1.4278 0
M  V30 3754 C 350.743 -0.629889 -1.49904 0
M  V30 3755 O 351.927 -0.866763 -1.6739 0
M  V30 3756 C 349.054 -1.89225 -2.80912 0
M  V30 3757 C 348.1 -3.11483 -2.91343 0
M  V30 3758 S 348.933 -4.70201 -2.56263 0
M  V30 3759 C 350.089 -4.84312 -3.96476 0
M  V30 3760 H 350.322 -2.70974 -1.22313 0
M  V30 3761 H 347.855 -1.45197 -0.525084 0
M  V30 3762 H 349.813 -1.9637 -3.60485 0
M  V30 3763 H 348.474 -0.972518 -2.98665 0
M  V30 3764 H 347.667 -3.16046 -3.92595 0
M  V30 3765 H 347.269 -3.02642 -2.19736 0
M  V30 3766 H 349.561 -4.66643 -4.91173 0
M  V30 3767 H 350.504 -5.86411 -3.96898 0
M  V30 3768 H 350.912 -4.12652 -3.85199 0
M  V30 3769 N 350.31 0.590341 -1.46126 0
M  V30 3770 C 351.273 1.68194 -1.55703 0
M  V30 3771 C 352.273 1.54808 -0.434868 0
M  V30 3772 O 353.463 1.59564 -0.698928 0
M  V30 3773 C 350.595 3.07575 -1.47005 0
M  V30 3774 H 351.788 1.61064 -2.52979 0
M  V30 3775 H 349.341 0.807541 -1.33823 0
M  V30 3776 H 350.076 3.20268 -0.509785 0
M  V30 3777 H 349.861 3.187 -2.28414 0
M  V30 3778 H 351.351 3.87055 -1.56776 0
M  V30 3779 N 351.788 1.33704 0.83433 0
M  V30 3780 C 352.751 1.24244 1.92603 0
M  V30 3781 C 353.751 0.160383 1.59998 0
M  V30 3782 O 354.941 0.412228 1.69252 0
M  V30 3783 C 352.073 0.91555 3.28376 0
M  V30 3784 H 353.266 2.21287 2.02416 0
M  V30 3785 H 350.819 1.17827 1.02696 0
M  V30 3786 H 351.554 -0.0521886 3.24258 0
M  V30 3787 H 351.339 1.69811 3.53422 0
M  V30 3788 H 352.829 0.874231 4.08347 0
M  V30 3789 N 353.266 -1.05314 1.17247 0
M  V30 3790 C 354.213 -2.13031 0.888058 0
M  V30 3791 C 355.183 -1.65253 -0.167537 0
M  V30 3792 O 356.368 -1.90775 -0.0305974 0
M  V30 3793 C 353.508 -3.42702 0.406147 0
M  V30 3794 C 352.621 -4.04161 1.52572 0
M  V30 3795 C 351.756 -5.21744 0.997808 0
M  V30 3796 C 350.795 -5.75207 2.09291 0
M  V30 3797 N 349.932 -6.84094 1.57986 0
M  V30 3798 H 354.772 -2.36698 1.81048 0
M  V30 3799 H 352.309 -1.16121 0.903013 0
M  V30 3800 H 354.267 -4.17059 0.108305 0
M  V30 3801 H 352.897 -3.19222 -0.479313 0
M  V30 3802 H 351.949 -3.27253 1.93931 0
M  V30 3803 H 353.261 -4.39881 2.35172 0
M  V30 3804 H 352.415 -6.03168 0.653739 0
M  V30 3805 H 351.154 -4.87495 0.141232 0
M  V30 3806 H 350.159 -4.92414 2.44557 0
M  V30 3807 H 351.384 -6.11505 2.95362 0
M  V30 3808 H 349.33 -6.51745 0.74598 0
M  V30 3809 H 349.247 -7.18811 2.34195 0
M  V30 3810 H 350.515 -7.69172 1.26468 0
M  V30 3811 N 354.744 -0.972509 -1.24016 0
M  V30 3812 C 355.974 -0.653853 -1.9598 0
M  V30 3813 C 356.382 0.781801 -1.72292 0
M  V30 3814 O 355.725 1.53677 -1.00644 0
M  V30 3815 C 355.787 -0.854608 -3.49194 0
M  V30 3816 C 355.451 -2.27082 -3.96589 0
M  V30 3817 C 356.448 -3.24892 -4.05883 0
M  V30 3818 C 354.133 -2.5998 -4.29786 0
M  V30 3819 C 356.127 -4.53684 -4.47716 0
M  V30 3820 C 353.814 -3.88997 -4.71301 0
M  V30 3821 C 354.812 -4.85661 -4.80232 0
M  V30 3822 O 354.5 -6.12376 -5.20818 0
M  V30 3823 H 354.232 -0.242572 -0.630979 0
M  V30 3824 H 356.786 -1.30431 -1.58673 0
M  V30 3825 H 355.016 -0.146985 -3.86421 0
M  V30 3826 H 356.705 -0.534311 -4.02368 0
M  V30 3827 H 357.471 -3.00805 -3.80449 0
M  V30 3828 H 353.35 -1.85457 -4.22051 0
M  V30 3829 H 356.894 -5.29135 -4.54601 0
M  V30 3830 H 352.791 -4.12882 -4.96184 0
M  V30 3831 H 353.559 -6.16013 -5.38953 0
M  V30 3832 N 356.222 1.38976 -0.743202 0
M  V30 3833 C 357.47 1.99948 -0.29417 0
M  V30 3834 C 357.791 1.59279 1.12495 0
M  V30 3835 O 357.061 0.844808 1.76748 0
M  V30 3836 H 355.641 0.739473 -0.105774 0
M  V30 3837 H 358.303 1.699 -0.954986 0
M  V30 3838 H 357.399 3.10142 -0.349056 0
M  V30 3839 N 357.7 0.491464 1.49741 0
M  V30 3840 C 358.93 -0.0534375 2.06531 0
M  V30 3841 C 359.338 -1.32233 1.35318 0
M  V30 3842 O 358.681 -1.78781 0.422243 0
M  V30 3843 C 358.743 -0.387034 3.57411 0
M  V30 3844 C 358.407 0.782764 4.50246 0
M  V30 3845 C 359.404 1.67059 4.92329 0
M  V30 3846 C 357.089 0.978866 4.9267 0
M  V30 3847 C 359.083 2.73874 5.75562 0
M  V30 3848 C 356.77 2.05022 5.75682 0
M  V30 3849 C 357.768 2.92851 6.17031 0
M  V30 3850 O 357.456 3.98138 6.98385 0
M  V30 3851 H 357.188 0.0129324 0.675876 0
M  V30 3852 H 359.742 0.685238 1.93633 0
M  V30 3853 H 357.972 -1.17918 3.68283 0
M  V30 3854 H 359.661 -0.869419 3.96479 0
M  V30 3855 H 360.427 1.53086 4.60206 0
M  V30 3856 H 356.306 0.304646 4.59992 0
M  V30 3857 H 359.85 3.42458 6.07757 0
M  V30 3858 H 355.747 2.18993 6.07217 0
M  V30 3859 H 356.515 3.95374 7.16674 0
M  V30 3860 N 359.178 -1.55987 0.224894 0
M  V30 3861 C 360.455 -1.90232 -0.455083 0
M  V30 3862 C 360.835 -1.14269 -1.77499 0
M  V30 3863 O 360.183 -0.253079 -2.27094 0
M  V30 3864 C 360.393 -3.42993 -0.644758 0
M  V30 3865 C 361.741 -4.13821 -0.950669 0
M  V30 3866 O 362.765 -3.4861 -0.731423 0
M  V30 3867 O 361.624 -5.29128 -1.36695 0
M  V30 3868 H 358.718 -0.79108 -0.241084 0
M  V30 3869 H 361.264 -1.67581 0.267327 0
M  V30 3870 H 360.036 -3.90252 0.28613 0
M  V30 3871 H 359.659 -3.71434 -1.41853 0
M  V30 3872 N 360.656 0.0484629 -1.57525 0
M  V30 3873 C 361.905 0.742065 -1.87553 0
M  V30 3874 C 362.218 1.77545 -0.820802 0
M  V30 3875 O 363.424 2.52027 -1.00967 0
M  V30 3876 C 361.88 1.37081 -3.32771 0
M  V30 3877 C 361.488 0.374786 -4.4643 0
M  V30 3878 C 363.232 2.04542 -3.71972 0
M  V30 3879 C 361.139 1.01077 -5.82698 0
M  V30 3880 H 360.069 0.280903 -0.699721 0
M  V30 3881 H 362.72 -0.00411877 -1.835 0
M  V30 3882 H 361.102 2.16605 -3.31509 0
M  V30 3883 H 362.276 -0.392331 -4.59127 0
M  V30 3884 H 360.591 -0.196653 -4.15935 0
M  V30 3885 H 363.188 2.52943 -4.71088 0
M  V30 3886 H 363.531 2.85515 -3.02964 0
M  V30 3887 H 364.064 1.31819 -3.75325 0
M  V30 3888 H 360.803 0.240878 -6.55057 0
M  V30 3889 H 360.323 1.74819 -5.73758 0
M  V30 3890 H 362.002 1.52383 -6.28799 0
M  V30 3891 N 362.134 1.5431 0.320358 0
M  V30 3892 C 363.359 1.76954 1.08175 0
M  V30 3893 C 363.784 0.518193 1.80821 0
M  V30 3894 O 363.142 -0.530411 1.73368 0
M  V30 3895 C 363.19 2.96451 2.05303 0
M  V30 3896 O 362.294 2.68221 3.13259 0
M  V30 3897 H 361.635 0.586275 0.311733 0
M  V30 3898 H 364.165 2.01342 0.363676 0
M  V30 3899 H 364.175 3.23887 2.48116 0
M  V30 3900 H 362.85 3.87196 1.51829 0
M  V30 3901 H 361.427 2.51744 2.75099 0
M  V30 3902 N 363.613 -0.582584 1.46437 0
M  V30 3903 C 364.861 -1.33814 1.51453 0
M  V30 3904 C 365.182 -1.94277 0.167792 0
M  V30 3905 O 364.452 -1.78566 -0.805677 0
M  V30 3906 H 363.032 -0.496838 0.557818 0
M  V30 3907 H 365.694 -0.682281 1.82568 0
M  V30 3908 H 364.79 -2.14479 2.26728 0
M  V30 3909 N 365.091 -1.34144 -0.827227 0
M  V30 3910 C 366.502 -1.23557 -1.39966 0
M  V30 3911 C 366.853 0.140731 -1.95695 0
M  V30 3912 O 365.978 1.04087 -1.89723 0
M  V30 3913 C 366.573 -2.23708 -2.54441 0
M  V30 3914 C 365.132 -2.16924 -3.07605 0
M  V30 3915 C 364.279 -2.10549 -1.80456 0
M  V30 3916 H 367.23 -1.45573 -0.631991 0
M  V30 3917 H 367.251 -1.85157 -3.32411 0
M  V30 3918 H 366.763 -3.23866 -2.13851 0
M  V30 3919 H 364.864 -1.20107 -3.52711 0
M  V30 3920 H 364.977 -3.07988 -3.66988 0
M  V30 3921 H 363.341 -1.56203 -2.01178 0
M  V30 3922 H 364.124 -3.12535 -1.42046 0
M  V30 3923 N 366.569 1.04691 -1.17803 0
M  V30 3924 C 367.532 2.10724 -0.901545 0
M  V30 3925 C 368.532 1.6042 0.110437 0
M  V30 3926 O 369.722 1.7377 -0.122303 0
M  V30 3927 C 366.854 3.39084 -0.351409 0
M  V30 3928 H 368.047 2.36686 -1.84174 0
M  V30 3929 H 365.6 1.21015 -0.98919 0
M  V30 3930 H 366.335 3.18782 0.59569 0
M  V30 3931 H 366.12 3.76909 -1.08083 0
M  V30 3932 H 367.61 4.17227 -0.176451 0
M  V30 3933 N 368.047 0.979072 1.23499 0
M  V30 3934 C 369.275 0.665202 1.95915 0
M  V30 3935 C 369.69 -0.767571 1.72493 0
M  V30 3936 O 369.047 -1.51635 1.01554 0
M  V30 3937 C 369.098 0.944438 3.48945 0
M  V30 3938 O 368.819 2.3209 3.71572 0
M  V30 3939 C 370.32 0.646336 4.38563 0
M  V30 3940 H 367.54 0.247218 0.623798 0
M  V30 3941 H 370.084 1.31009 1.57025 0
M  V30 3942 H 368.239 0.345575 3.85856 0
M  V30 3943 H 368.653 2.40957 4.65876 0
M  V30 3944 H 370.127 0.892091 5.44744 0
M  V30 3945 H 370.604 -0.419575 4.37191 0
M  V30 3946 H 371.21 1.22562 4.07258 0
M  V30 3947 N 369.525 -1.3858 0.750561 0
M  V30 3948 C 370.473 -2.32339 0.110162 0
M  V30 3949 C 371.467 -1.53864 -0.708674 0
M  V30 3950 O 372.673 -1.69417 -0.608112 0
M  V30 3951 H 369.048 -0.751812 0.0168275 0
M  V30 3952 H 371.019 -2.83959 0.917053 0
M  V30 3953 C 369.768 -3.39043 -0.771067 0
M  V30 3954 H 369.091 -3.99517 -0.150374 0
M  V30 3955 H 370.531 -4.07061 -1.1865 0
M  V30 3956 C 368.99 -2.77365 -1.91234 0
M  V30 3957 O 369.52 -2.66434 -3.00626 0
M  V30 3958 N 367.726 -2.35219 -1.70646 0
M  V30 3959 H 367.273 -2.4431 -0.81673 0
M  V30 3960 H 367.231 -1.94294 -2.47178 0
M  V30 3961 N 371.003 -0.499398 -1.49478 0
M  V30 3962 C 371.966 0.268838 -2.27618 0
M  V30 3963 C 372.966 0.895383 -1.33565 0
M  V30 3964 O 374.156 0.760164 -1.56739 0
M  V30 3965 C 371.288 1.38559 -3.11471 0
M  V30 3966 H 372.481 -0.416812 -2.96989 0
M  V30 3967 H 370.034 -0.254313 -1.54217 0
M  V30 3968 H 370.769 2.10544 -2.46661 0
M  V30 3969 H 370.554 0.941797 -3.80621 0
M  V30 3970 H 372.044 1.92678 -3.70493 0
M  V30 3971 N 372.481 1.55866 -0.233164 0
M  V30 3972 C 373.413 2.18099 0.704668 0
M  V30 3973 C 374.426 1.15334 1.14899 0
M  V30 3974 O 375.615 1.42262 1.07814 0
M  V30 3975 C 372.715 2.7592 1.96777 0
M  V30 3976 C 371.888 4.03969 1.67713 0
M  V30 3977 C 370.947 4.46242 2.78845 0
M  V30 3978 O 369.973 5.12903 2.46818 0
M  V30 3979 N 371.175 4.12886 4.08051 0
M  V30 3980 H 373.94 2.99205 0.172258 0
M  V30 3981 H 371.501 1.61815 -0.0525945 0
M  V30 3982 H 373.493 3.01165 2.70337 0
M  V30 3983 H 372.063 1.99051 2.41034 0
M  V30 3984 H 371.283 3.86459 0.777391 0
M  V30 3985 H 372.571 4.8748 1.4574 0
M  V30 3986 H 371.969 3.59342 4.3691 0
M  V30 3987 H 370.526 4.42997 4.78118 0
M  V30 3988 N 373.959 -0.0401083 1.57549 0
M  V30 3989 C 374.869 -1.06133 2.0922 0
M  V30 3990 C 375.885 -1.40356 1.0284 0
M  V30 3991 O 377.061 -1.49897 1.34509 0
M  V30 3992 C 374.126 -2.34658 2.55218 0
M  V30 3993 C 373.187 -2.07117 3.76033 0
M  V30 3994 C 372.42 -3.29514 4.19829 0
M  V30 3995 O 372.643 -4.39794 3.63232 0
M  V30 3996 O 371.577 -3.15863 5.12362 0
M  V30 3997 H 375.403 -0.652244 2.96613 0
M  V30 3998 H 372.988 -0.256368 1.47184 0
M  V30 3999 H 374.87 -3.10239 2.85184 0
M  V30 4000 H 373.545 -2.74883 1.70941 0
M  V30 4001 H 372.452 -1.29139 3.51104 0
M  V30 4002 H 373.785 -1.71754 4.61261 0
M  V30 4003 N 375.437 -1.54477 -0.31217 0
M  V30 4004 C 376.4 -1.83923 -1.36766 0
M  V30 4005 C 377.4 -0.711563 -1.44199 0
M  V30 4006 O 378.59 -0.979866 -1.44029 0
M  V30 4007 C 375.722 -2.0095 -2.75376 0
M  V30 4008 H 376.915 -2.78239 -1.11906 0
M  V30 4009 H 374.468 -1.46369 -0.548257 0
M  V30 4010 H 375.203 -1.08883 -3.05475 0
M  V30 4011 H 374.988 -2.83018 -2.71373 0
M  V30 4012 H 376.478 -2.2514 -3.51713 0
M  V30 4013 N 376.915 0.57481 -1.46744 0
M  V30 4014 C 378.164 1.32898 -1.51727 0
M  V30 4015 C 378.477 1.948 -0.176692 0
M  V30 4016 O 379.683 2.71299 -0.104385 0
M  V30 4017 C 378.139 2.40901 -2.67385 0
M  V30 4018 C 377.747 1.85266 -4.07898 0
M  V30 4019 C 379.491 3.17609 -2.81646 0
M  V30 4020 C 377.398 2.90945 -5.14883 0
M  V30 4021 H 376.328 0.499631 -0.564699 0
M  V30 4022 H 378.979 0.612536 -1.72975 0
M  V30 4023 H 377.361 3.15379 -2.39483 0
M  V30 4024 H 378.535 1.17278 -4.45626 0
M  V30 4025 H 376.85 1.21199 -3.98371 0
M  V30 4026 H 379.447 3.96493 -3.58744 0
M  V30 4027 H 379.79 3.70696 -1.89448 0
M  V30 4028 H 380.323 2.50239 -3.09233 0
M  V30 4029 H 377.062 2.42736 -6.089 0
M  V30 4030 H 376.582 3.57398 -4.81691 0
M  V30 4031 H 378.261 3.54755 -5.41071 0
M  V30 4032 N 378.394 1.34581 0.820102 0
M  V30 4033 C 379.326 1.22236 1.93884 0
M  V30 4034 C 380.339 0.148776 1.62119 0
M  V30 4035 O 381.528 0.400877 1.7394 0
M  V30 4036 C 378.628 0.856542 3.27897 0
M  V30 4037 C 377.801 2.02569 3.87666 0
M  V30 4038 C 376.86 1.63782 5.00062 0
M  V30 4039 O 375.886 2.35477 5.18208 0
M  V30 4040 N 377.088 0.553611 5.77854 0
M  V30 4041 H 379.853 2.18615 2.05006 0
M  V30 4042 H 377.414 1.27573 0.99683 0
M  V30 4043 H 379.406 0.578806 4.0054 0
M  V30 4044 H 377.976 -0.0171518 3.12595 0
M  V30 4045 H 377.196 2.468 3.07382 0
M  V30 4046 H 378.484 2.80752 4.24329 0
M  V30 4047 H 377.882 -0.0423528 5.65684 0
M  V30 4048 H 376.439 0.335614 6.50935 0
M  V30 4049 N 379.872 -1.04064 1.18357 0
M  V30 4050 C 381.118 -1.77658 0.990412 0
M  V30 4051 C 381.473 -1.86446 -0.474944 0
M  V30 4052 O 380.766 -1.36153 -1.34807 0
M  V30 4053 C 380.96 -3.20634 1.57888 0
M  V30 4054 C 380.789 -3.25782 3.09994 0
M  V30 4055 C 379.559 -3.34411 3.7881 0
M  V30 4056 C 381.757 -3.13791 4.0748 0
M  V30 4057 N 379.739 -3.28809 5.18418 0
M  V30 4058 C 381.11 -3.15689 5.33611 0
M  V30 4059 C 383.165 -2.97833 3.98998 0
M  V30 4060 C 381.868 -3.03268 6.52243 0
M  V30 4061 C 383.894 -2.86759 5.17227 0
M  V30 4062 C 383.256 -2.893 6.4225 0
M  V30 4063 H 379.355 -0.661901 0.416427 0
M  V30 4064 H 381.939 -1.23968 1.50133 0
M  V30 4065 H 380.11 -3.7267 1.09414 0
M  V30 4066 H 381.842 -3.82525 1.32124 0
M  V30 4067 H 378.597 -3.40144 3.29543 0
M  V30 4068 H 379.021 -3.29448 5.91433 0
M  V30 4069 H 383.663 -2.94698 3.03171 0
M  V30 4070 H 381.381 -3.05156 7.48268 0
M  V30 4071 H 384.967 -2.75465 5.12455 0
M  V30 4072 H 383.847 -2.80818 7.32196 0
M  V30 4073 N 381.35 -0.985608 -1.22978 0
M  V30 4074 C 382.578 -0.675582 -1.95559 0
M  V30 4075 C 382.993 0.758413 -1.72897 0
M  V30 4076 O 382.35 1.51094 -1.02357 0
M  V30 4077 C 382.401 -0.96293 -3.48439 0
M  V30 4078 O 382.122 -2.34057 -3.70336 0
M  V30 4079 C 383.623 -0.669585 -4.38214 0
M  V30 4080 H 380.843 -0.250523 -0.622478 0
M  V30 4081 H 383.387 -1.3184 -1.56328 0
M  V30 4082 H 381.542 -0.366033 -3.85667 0
M  V30 4083 H 381.956 -2.43424 -4.64591 0
M  V30 4084 H 383.43 -0.920967 -5.44263 0
M  V30 4085 H 383.907 0.396383 -4.37408 0
M  V30 4086 H 384.513 -1.2472 -4.06602 0
M  V30 4087 N 382.828 1.3818 -0.7579 0
M  V30 4088 C 384.058 2.04004 -0.326463 0
M  V30 4089 C 384.466 1.57286 1.05156 0
M  V30 4090 O 383.809 0.743144 1.67997 0
M  V30 4091 C 383.871 3.58444 -0.275402 0
M  V30 4092 C 383.535 4.28237 -1.59569 0
M  V30 4093 C 384.532 4.53312 -2.54566 0
M  V30 4094 C 382.217 4.66341 -1.86631 0
M  V30 4095 C 384.211 5.15531 -3.74842 0
M  V30 4096 C 381.898 5.28283 -3.0718 0
M  V30 4097 C 382.896 5.52814 -4.01106 0
M  V30 4098 O 382.584 6.13465 -5.19534 0
M  V30 4099 H 382.316 0.662026 -0.136739 0
M  V30 4100 H 384.87 1.7777 -1.02893 0
M  V30 4101 H 383.1 3.83667 0.483337 0
M  V30 4102 H 384.789 4.05701 0.127099 0
M  V30 4103 H 385.555 4.24299 -2.34936 0
M  V30 4104 H 381.434 4.46591 -1.14358 0
M  V30 4105 H 384.978 5.34594 -4.48168 0
M  V30 4106 H 380.875 5.56719 -3.26702 0
M  V30 4107 H 381.643 6.31951 -5.20173 0
M  V30 4108 N 384.306 0.507319 1.49211 0
M  V30 4109 C 385.553 -0.0349529 2.0247 0
M  V30 4110 C 385.881 -1.36409 1.38647 0
M  V30 4111 O 385.136 -1.88841 0.513566 0
M  V30 4112 C 385.435 -0.229513 3.56662 0
M  V30 4113 C 385.101 1.02241 4.39156 0
M  V30 4114 C 383.763 1.36557 4.61417 0
M  V30 4115 C 386.115 1.85428 4.871 0
M  V30 4116 C 383.443 2.53999 5.28868 0
M  V30 4117 C 385.795 3.02028 5.55843 0
M  V30 4118 C 384.459 3.36717 5.76349 0
M  V30 4119 H 383.729 -0.0127902 0.74089 0
M  V30 4120 H 386.376 0.668756 1.79443 0
M  V30 4121 H 384.681 -1.0158 3.78403 0
M  V30 4122 H 386.378 -0.663641 3.9547 0
M  V30 4123 H 382.968 0.745124 4.22073 0
M  V30 4124 H 387.152 1.6023 4.69723 0
M  V30 4125 H 382.408 2.81105 5.42946 0
M  V30 4126 H 386.582 3.66808 5.91967 0
M  V30 4127 H 384.209 4.27821 6.28389 0
M  V30 4128 N 385.784 -1.5574 0.241426 0
M  V30 4129 C 387.032 -1.98417 -0.384075 0
M  V30 4130 C 387.353 -1.13078 -1.58866 0
M  V30 4131 O 386.623 -0.212312 -1.94746 0
M  V30 4132 H 385.203 -0.732813 -0.144894 0
M  V30 4133 H 387.865 -1.9193 0.338943 0
M  V30 4134 H 386.961 -3.04219 -0.696939 0
M  V30 4135 N 387.262 0.0317525 -1.57568 0
M  V30 4136 C 388.492 0.733884 -1.93126 0
M  V30 4137 C 388.9 1.69563 -0.839352 0
M  V30 4138 O 388.243 1.82681 0.193175 0
M  V30 4139 C 388.305 1.54798 -3.24465 0
M  V30 4140 C 387.969 0.751304 -4.50782 0
M  V30 4141 C 388.966 0.0527632 -5.19873 0
M  V30 4142 C 386.651 0.706639 -4.97305 0
M  V30 4143 C 388.645 -0.679774 -6.33765 0
M  V30 4144 C 386.332 -0.0296449 -6.11093 0
M  V30 4145 C 387.33 -0.721614 -6.79177 0
M  V30 4146 O 387.018 -1.44595 -7.90789 0
M  V30 4147 H 386.75 0.211459 -0.642076 0
M  V30 4148 H 389.304 -0.00585615 -2.05399 0
M  V30 4149 H 387.534 2.33147 -3.08512 0
M  V30 4150 H 389.223 2.13247 -3.4537 0
M  V30 4151 H 389.989 0.0783188 -4.84937 0
M  V30 4152 H 385.868 1.23474 -4.44157 0
M  V30 4153 H 389.412 -1.22042 -6.86842 0
M  V30 4154 H 385.309 -0.0571331 -6.45475 0
M  V30 4155 H 386.077 -1.35935 -8.07133 0
M  V30 4156 N 388.74 1.54641 0.303973 0
M  V30 4157 C 389.67 1.88386 1.3796 0
M  V30 4158 C 390.651 0.742485 1.5304 0
M  V30 4159 O 391.836 0.997959 1.66597 0
M  V30 4160 C 388.966 2.12854 2.74427 0
M  V30 4161 C 387.92 3.28702 2.74115 0
M  V30 4162 C 387.246 3.38582 4.13844 0
M  V30 4163 C 388.546 4.65881 2.3612 0
M  V30 4164 H 390.24 2.78474 1.09966 0
M  V30 4165 H 387.786 1.33988 0.527556 0
M  V30 4166 H 389.739 2.35047 3.49758 0
M  V30 4167 H 388.463 1.19535 3.03939 0
M  V30 4168 H 387.122 3.06428 2.0124 0
M  V30 4169 H 386.77 2.42784 4.40528 0
M  V30 4170 H 386.47 4.16453 4.14537 0
M  V30 4171 H 387.994 3.63031 4.90959 0
M  V30 4172 H 389.408 4.87823 3.01167 0
M  V30 4173 H 387.805 5.46444 2.48031 0
M  V30 4174 H 388.875 4.66799 1.3125 0
M  V30 4175 N 390.218 -0.567019 1.47046 0
M  V30 4176 C 391.181 -1.65696 1.58359 0
M  V30 4177 C 392.181 -1.54097 0.459441 0
M  V30 4178 O 393.371 -1.58432 0.724225 0
M  V30 4179 C 390.503 -3.05197 1.51879 0
M  V30 4180 H 391.696 -1.57019 2.5551 0
M  V30 4181 H 389.249 -0.786148 1.3509 0
M  V30 4182 H 389.984 -3.19417 0.560673 0
M  V30 4183 H 389.769 -3.15025 2.33455 0
M  V30 4184 H 391.259 -3.84511 1.62913 0
M  V30 4185 N 391.696 -1.35014 -0.812953 0
M  V30 4186 C 392.659 -1.27292 -1.90602 0
M  V30 4187 C 393.659 -0.185817 -1.59723 0
M  V30 4188 O 394.849 -0.439102 -1.68575 0
M  V30 4189 C 391.981 -0.967676 -3.26877 0
M  V30 4190 H 393.174 -2.24479 -1.9887 0
M  V30 4191 H 390.727 -1.19446 -1.00808 0
M  V30 4192 H 391.462 0.0005954 -3.243 0
M  V30 4193 H 391.247 -1.75412 -3.50675 0
M  V30 4194 H 392.737 -0.939085 -4.06904 0
M  V30 4195 N 393.175 1.03435 -1.18907 0
M  V30 4196 C 394.421 1.77005 -0.989798 0
M  V30 4197 C 394.754 1.88205 0.478816 0
M  V30 4198 O 394.029 1.39481 1.35556 0
M  V30 4199 C 394.312 3.19925 -1.65287 0
M  V30 4200 C 394.165 3.1663 -3.19477 0
M  V30 4201 C 395.484 4.18189 -1.37134 0
M  V30 4202 H 392.603 0.642538 -0.360991 0
M  V30 4203 H 395.245 1.20784 -1.46667 0
M  V30 4204 H 393.395 3.67929 -1.24741 0
M  V30 4205 H 395.067 2.76567 -3.692 0
M  V30 4206 H 393.31 2.54491 -3.51307 0
M  V30 4207 H 393.981 4.1758 -3.61013 0
M  V30 4208 H 396.457 3.78761 -1.72276 0
M  V30 4209 H 395.333 5.16394 -1.86087 0
M  V30 4210 H 395.594 4.41112 -0.295424 0
M  V30 4211 N 394.653 0.992116 1.22453 0
M  V30 4212 C 395.6 0.541731 2.24352 0
M  V30 4213 C 396.57 -0.425519 1.60557 0
M  V30 4214 O 397.755 -0.330453 1.87917 0
M  V30 4215 C 394.895 -0.138248 3.44823 0
M  V30 4216 C 394.008 0.870649 4.23136 0
M  V30 4217 C 393.143 0.164269 5.30946 0
M  V30 4218 C 392.182 1.16159 6.00977 0
M  V30 4219 N 391.319 0.483568 7.00433 0
M  V30 4220 H 396.159 1.41541 2.62241 0
M  V30 4221 H 393.696 0.709013 1.28885 0
M  V30 4222 H 395.654 -0.5494 4.13567 0
M  V30 4223 H 394.284 -0.975721 3.077 0
M  V30 4224 H 393.336 1.40013 3.53696 0
M  V30 4225 H 394.648 1.63014 4.7141 0
M  V30 4226 H 393.802 -0.303653 6.0594 0
M  V30 4227 H 392.541 -0.627733 4.83643 0
M  V30 4228 H 391.546 1.64015 5.24766 0
M  V30 4229 H 392.771 1.95445 6.50368 0
M  V30 4230 H 390.717 -0.289012 6.55363 0
M  V30 4231 H 390.634 1.18152 7.4671 0
M  V30 4232 H 391.902 0.0384219 7.79491 0
M  V30 4233 N 396.131 -1.37776 0.765217 0
M  V30 4234 C 397.356 -2.04651 0.336537 0
M  V30 4235 C 397.781 -1.57337 -1.03086 0
M  V30 4236 O 397.139 -0.730621 -1.65927 0
M  V30 4237 C 397.187 -3.58577 0.381468 0
M  V30 4238 O 396.291 -4.07706 -0.62042 0
M  V30 4239 H 395.632 -0.64756 0.146838 0
M  V30 4240 H 398.162 -1.76221 1.03959 0
M  V30 4241 H 398.172 -4.07314 0.236448 0
M  V30 4242 H 396.847 -3.9237 1.37907 0
M  V30 4243 H 395.424 -3.70306 -0.439056 0
M  V30 4244 N 397.609 -0.515225 -1.4894 0
M  V30 4245 C 398.541 0.292481 -2.27326 0
M  V30 4246 C 399.554 0.917838 -1.3446 0
M  V30 4247 O 400.743 0.798772 -1.5963 0
M  V30 4248 C 397.843 1.42803 -3.07344 0
M  V30 4249 C 397.016 0.907347 -4.27885 0
M  V30 4250 C 396.075 1.92222 -4.89834 0
M  V30 4251 O 395.101 1.48506 -5.49486 0
M  V30 4252 N 396.303 3.25355 -4.80754 0
M  V30 4253 H 399.068 -0.379721 -2.97285 0
M  V30 4254 H 396.629 -0.348638 -1.58102 0
M  V30 4255 H 398.621 2.10481 -3.45658 0
M  V30 4256 H 397.191 2.00414 -2.39902 0
M  V30 4257 H 396.411 0.0550218 -3.94162 0
M  V30 4258 H 397.699 0.538108 -5.05946 0
M  V30 4259 H 397.097 3.6355 -4.33414 0
M  V30 4260 H 395.654 3.88707 -5.23211 0
M  V30 4261 N 399.087 1.5561 -0.249682 0
M  V30 4262 C 400.035 2.22894 0.664906 0
M  V30 4263 C 401.029 1.21743 1.17792 0
M  V30 4264 O 402.235 1.39748 1.13449 0
M  V30 4265 H 398.61 0.715022 0.232912 0
M  V30 4266 H 400.581 2.98307 0.0742998 0
M  V30 4267 C 399.33 2.94424 1.84959 0
M  V30 4268 H 398.653 3.72031 1.46399 0
M  V30 4269 H 400.093 3.44862 2.4667 0
M  V30 4270 C 398.552 1.98454 2.72245 0
M  V30 4271 O 399.082 1.51939 3.71857 0
M  V30 4272 N 397.288 1.65496 2.38871 0
M  V30 4273 H 396.835 2.03517 1.57919 0
M  V30 4274 H 396.793 1.0155 2.97548 0
M  V30 4275 N 400.565 -0.0233959 1.57583 0
M  V30 4276 C 401.813 -0.711654 1.89156 0
M  V30 4277 C 402.134 -1.75591 0.848096 0
M  V30 4278 O 401.404 -1.95547 -0.117566 0
M  V30 4279 H 399.984 -0.265835 0.698098 0
M  V30 4280 H 402.646 0.0119948 1.94896 0
M  V30 4281 H 401.742 -1.19766 2.88206 0
M  V30 4282 N 402.043 -1.548 -0.295768 0
M  V30 4283 C 403.006 -1.85363 -1.34808 0
M  V30 4284 C 404.006 -0.726817 -1.43436 0
M  V30 4285 O 405.196 -0.995088 -1.42981 0
M  V30 4286 C 402.328 -2.03859 -2.73229 0
M  V30 4287 H 403.521 -2.7941 -1.08949 0
M  V30 4288 H 401.074 -1.46942 -0.532702 0
M  V30 4289 H 401.809 -1.12117 -3.04303 0
M  V30 4290 H 401.594 -2.8588 -2.68356 0
M  V30 4291 H 403.084 -2.28857 -3.49305 0
M  V30 4292 N 403.521 0.559213 -1.47345 0
M  V30 4293 C 404.484 1.64854 -1.59235 0
M  V30 4294 C 405.484 1.53851 -0.467607 0
M  V30 4295 O 406.674 1.58045 -0.732617 0
M  V30 4296 C 403.806 3.04388 -1.53496 0
M  V30 4297 H 404.999 1.55662 -2.56339 0
M  V30 4298 H 402.552 0.778973 -1.35505 0
M  V30 4299 H 403.287 3.19115 -0.577604 0
M  V30 4300 H 403.072 3.13783 -2.35123 0
M  V30 4301 H 404.562 3.83642 -1.6495 0
M  V30 4302 N 404.999 1.35443 0.805782 0
M  V30 4303 C 405.932 1.22783 1.92353 0
M  V30 4304 C 406.91 0.115543 1.62189 0
M  V30 4305 O 408.094 0.283778 1.86352 0
M  V30 4306 C 405.221 0.890746 3.26777 0
M  V30 4307 C 404.267 2.01519 3.75889 0
M  V30 4308 S 405.1 3.63101 3.93596 0
M  V30 4309 C 406.256 3.31472 5.30921 0
M  V30 4310 H 406.489 2.17394 2.02798 0
M  V30 4311 H 404.022 1.20669 0.963245 0
M  V30 4312 H 405.98 0.703068 4.04434 0
M  V30 4313 H 404.641 -0.0373152 3.14078 0
M  V30 4314 H 403.834 1.7335 4.7325 0
M  V30 4315 H 403.436 2.16124 3.05231 0
M  V30 4316 H 405.728 2.8435 6.1494 0
M  V30 4317 H 406.671 4.28036 5.64084 0
M  V30 4318 H 407.079 2.67221 4.97246 0
M  V30 4319 N 406.477 -1.02803 1.19454 0
M  V30 4320 C 407.702 -1.80378 1.02364 0
M  V30 4321 C 408.127 -1.83282 -0.423007 0
M  V30 4322 O 407.485 -1.25945 -1.30413 0
M  V30 4323 C 407.533 -3.23248 1.59821 0
M  V30 4324 O 406.637 -4.04 0.828105 0
M  V30 4325 H 405.978 -0.556799 0.361761 0
M  V30 4326 H 408.508 -1.29385 1.58495 0
M  V30 4327 H 408.518 -3.73994 1.63073 0
M  V30 4328 H 407.193 -3.2045 2.65113 0
M  V30 4329 H 405.77 -3.62635 0.86891 0
M  V30 4330 N 407.956 -0.998596 -1.21925 0
M  V30 4331 C 409.203 -0.677663 -1.90824 0
M  V30 4332 C 409.531 0.790905 -1.77693 0
M  V30 4333 O 408.786 1.58817 -1.14349 0
M  V30 4334 C 409.085 -1.03648 -3.42041 0
M  V30 4335 C 408.751 -2.49825 -3.75364 0
M  V30 4336 C 407.413 -2.8977 -3.8417 0
M  V30 4337 C 409.765 -3.44545 -3.91073 0
M  V30 4338 C 407.093 -4.23412 -4.06127 0
M  V30 4339 C 409.445 -4.77853 -4.14535 0
M  V30 4340 C 408.109 -5.17531 -4.21566 0
M  V30 4341 H 407.379 -0.247975 -0.698276 0
M  V30 4342 H 410.026 -1.25584 -1.44571 0
M  V30 4343 H 408.331 -0.376457 -3.89987 0
M  V30 4344 H 410.028 -0.766113 -3.93614 0
M  V30 4345 H 406.618 -2.17866 -3.69097 0
M  V30 4346 H 410.802 -3.14853 -3.83642 0
M  V30 4347 H 406.058 -4.53734 -4.09799 0
M  V30 4348 H 410.232 -5.51189 -4.25633 0
M  V30 4349 H 407.859 -6.21102 -4.38333 0
M  V30 4350 N 409.434 1.37368 -0.772513 0
M  V30 4351 C 410.682 1.99279 -0.336516 0
M  V30 4352 C 411.003 1.6163 1.09091 0
M  V30 4353 O 410.273 0.882109 1.74916 0
M  V30 4354 H 408.853 0.737063 -0.121435 0
M  V30 4355 H 411.515 1.67836 -0.990809 0
M  V30 4356 H 410.611 3.09332 -0.414763 0
M  V30 4357 N 410.912 0.523116 1.48665 0
M  V30 4358 C 412.328 0.180511 1.58576 0
M  V30 4359 C 412.528 -1.31597 1.52592 0
M  V30 4360 O 411.584 -2.0937 1.4114 0
M  V30 4361 C 412.897 0.776949 2.90489 0
M  V30 4362 C 414.445 0.745058 3.04003 0
M  V30 4363 C 414.92 1.31995 4.38567 0
M  V30 4364 N 416.411 1.28162 4.45117 0
M  V30 4365 C 417.146 1.6964 5.47731 0
M  V30 4366 N 416.642 2.18816 6.57337 0
M  V30 4367 N 418.435 1.6092 5.38573 0
M  V30 4368 H 410.586 1.4958 1.50797 0
M  V30 4369 H 412.849 0.621772 0.715614 0
M  V30 4370 H 412.555 1.82732 3.00503 0
M  V30 4371 H 412.429 0.25007 3.7637 0
M  V30 4372 H 414.816 -0.296532 2.93606 0
M  V30 4373 H 414.897 1.30933 2.1975 0
M  V30 4374 H 414.541 2.36043 4.49718 0
M  V30 4375 H 414.471 0.731418 5.21496 0
M  V30 4376 H 416.962 0.92155 3.66491 0
M  V30 4377 H 417.275 2.48478 7.31764 0
M  V30 4378 H 415.62 2.22805 6.58318 0
M  V30 4379 H 418.811 1.22304 4.5184 0
M  V30 4380 H 418.984 1.93567 6.18414 0
M  V30 4381 N 412.39 -1.55475 0.257931 0
M  V30 4382 C 413.618 -2.03609 -0.367559 0
M  V30 4383 C 414.033 -1.13687 -1.50734 0
M  V30 4384 O 413.39 -0.153479 -1.81853 0
M  V30 4385 C 413.441 -3.51001 -0.864908 0
M  V30 4386 O 413.162 -4.37499 0.229465 0
M  V30 4387 C 414.663 -4.14946 -1.55997 0
M  V30 4388 H 411.883 -0.665459 -0.0860521 0
M  V30 4389 H 414.427 -2.00843 0.385014 0
M  V30 4390 H 412.582 -3.54266 -1.56762 0
M  V30 4391 H 412.996 -5.24286 -0.14998 0
M  V30 4392 H 414.47 -5.19735 -1.85956 0
M  V30 4393 H 414.947 -3.6209 -2.4857 0
M  V30 4394 H 415.553 -4.15635 -0.901543 0
M  V30 4395 N 413.868 0.0150385 -1.57593 0
M  V30 4396 C 415.093 0.718067 -1.94573 0
M  V30 4397 C 415.518 1.6734 -0.859005 0
M  V30 4398 O 414.876 1.80362 0.184147 0
M  V30 4399 C 414.924 1.43918 -3.30636 0
M  V30 4400 O 414.028 2.55299 -3.23876 0
M  V30 4401 H 413.369 0.192125 -0.635597 0
M  V30 4402 H 415.899 -0.0336708 -2.04572 0
M  V30 4403 H 415.909 1.80598 -3.65853 0
M  V30 4404 H 414.584 0.738619 -4.09289 0
M  V30 4405 H 413.161 2.21058 -3.00312 0
M  V30 4406 N 415.346 1.54954 0.287554 0
M  V30 4407 C 416.574 1.78881 1.03967 0
M  V30 4408 C 416.989 0.554894 1.80462 0
M  V30 4409 O 416.346 -0.475676 1.76192 0
M  V30 4410 C 416.397 3.00488 2.0097 0
M  V30 4411 O 416.118 4.19113 1.27577 0
M  V30 4412 C 417.619 3.36907 2.88112 0
M  V30 4413 H 414.839 0.596259 0.307761 0
M  V30 4414 H 417.383 2.01937 0.322749 0
M  V30 4415 H 415.538 2.79601 2.68145 0
M  V30 4416 H 415.952 4.87765 1.92835 0
M  V30 4417 H 417.426 4.25205 3.52001 0
M  V30 4418 H 417.903 2.55659 3.57121 0
M  V30 4419 H 418.509 3.60001 2.26449 0
M  V30 4420 N 416.824 -0.551391 1.4764 0
M  V30 4421 C 418.071 -1.3083 1.54563 0
M  V30 4422 C 418.399 -1.93359 0.210361 0
M  V30 4423 O 417.654 -1.78721 -0.797332 0
M  V30 4424 C 417.953 -2.43469 2.61644 0
M  V30 4425 C 417.619 -1.98732 4.04742 0
M  V30 4426 C 416.281 -1.86248 4.43695 0
M  V30 4427 C 418.633 -1.64659 4.94507 0
M  V30 4428 C 415.961 -1.37995 5.70241 0
M  V30 4429 C 418.313 -1.17875 6.21521 0
M  V30 4430 C 416.977 -1.03992 6.5935 0
M  V30 4431 H 416.247 -0.478741 0.565587 0
M  V30 4432 H 418.894 -0.617697 1.81264 0
M  V30 4433 H 417.199 -3.18109 2.28722 0
M  V30 4434 H 418.896 -3.01642 2.64222 0
M  V30 4435 H 415.486 -2.09393 3.73968 0
M  V30 4436 H 419.67 -1.73174 4.65107 0
M  V30 4437 H 414.926 -1.25915 5.98294 0
M  V30 4438 H 419.1 -0.905739 6.90485 0
M  V30 4439 H 416.727 -0.663794 7.57296 0
M  V30 4440 N 418.302 -1.35869 -0.798587 0
M  V30 4441 C 419.232 -1.32118 -1.92528 0
M  V30 4442 C 420.213 -0.194209 -1.68988 0
M  V30 4443 O 421.398 -0.390426 -1.90235 0
M  V30 4444 C 418.528 -1.10047 -3.29404 0
M  V30 4445 C 417.482 -2.19471 -3.67446 0
M  V30 4446 C 416.808 -1.82555 -5.02571 0
M  V30 4447 C 418.108 -3.61495 -3.76987 0
M  V30 4448 H 419.802 -2.26394 -1.95924 0
M  V30 4449 H 417.348 -1.08981 -0.94123 0
M  V30 4450 H 419.301 -1.06061 -4.07835 0
M  V30 4451 H 418.025 -0.122195 -3.26371 0
M  V30 4452 H 416.684 -2.22568 -2.91306 0
M  V30 4453 H 416.332 -0.833249 -4.9605 0
M  V30 4454 H 416.032 -2.5581 -5.28995 0
M  V30 4455 H 417.556 -1.80108 -5.83432 0
M  V30 4456 H 418.97 -3.60676 -4.4563 0
M  V30 4457 H 417.367 -4.33577 -4.14887 0
M  V30 4458 H 418.437 -3.97065 -2.78329 0
M  V30 4459 N 419.78 1.02168 -1.19998 0
M  V30 4460 C 421.057 1.72816 -0.916191 0
M  V30 4461 C 421.437 2.03081 0.576325 0
M  V30 4462 O 420.785 1.69122 1.53656 0
M  V30 4463 C 420.995 2.9997 -1.78378 0
M  V30 4464 C 422.343 3.73336 -2.02251 0
M  V30 4465 O 423.367 3.09914 -1.75589 0
M  V30 4466 O 422.226 4.87371 -2.47249 0
M  V30 4467 H 419.32 0.752924 -0.342103 0
M  V30 4468 H 421.866 1.08062 -1.30846 0
M  V30 4469 H 420.638 2.73888 -2.79466 0
M  V30 4470 H 420.261 3.72464 -1.39126 0
M  V30 4471 N 421.258 1.00505 1.21394 0
M  V30 4472 C 422.504 0.688793 1.90745 0
M  V30 4473 C 422.837 -0.778486 1.77914 0
M  V30 4474 O 422.112 -1.56433 1.15581 0
M  V30 4475 C 422.395 1.11063 3.42545 0
M  V30 4476 C 422.248 2.63737 3.64367 0
M  V30 4477 C 423.567 0.673059 4.34923 0
M  V30 4478 H 420.686 0.251702 0.692687 0
M  V30 4479 H 423.328 1.25074 1.43026 0
M  V30 4480 H 421.478 0.632508 3.83317 0
M  V30 4481 H 423.15 3.19313 3.32922 0
M  V30 4482 H 421.393 3.05248 3.08231 0
M  V30 4483 H 422.064 2.88305 4.70727 0
M  V30 4484 H 424.54 1.08392 4.01734 0
M  V30 4485 H 423.416 0.996383 5.39781 0
M  V30 4486 H 423.677 -0.425808 4.40045 0
M  V30 4487 N 422.737 -1.36956 0.779787 0
M  V30 4488 C 423.967 -2.03459 0.358877 0
M  V30 4489 C 424.375 -1.58939 -1.02641 0
M  V30 4490 O 423.718 -0.769777 -1.66794 0
M  V30 4491 C 423.78 -3.5796 0.332393 0
M  V30 4492 C 423.444 -4.25644 1.66362 0
M  V30 4493 C 424.441 -4.49205 2.61746 0
M  V30 4494 C 422.126 -4.63313 1.94027 0
M  V30 4495 C 424.12 -5.09503 3.82996 0
M  V30 4496 C 421.807 -5.2333 3.15546 0
M  V30 4497 C 422.805 -5.46363 4.0985 0
M  V30 4498 O 422.493 -6.05122 5.29228 0
M  V30 4499 H 422.225 -0.659767 0.147254 0
M  V30 4500 H 424.779 -1.76111 1.05708 0
M  V30 4501 H 423.009 -3.84388 -0.422237 0
M  V30 4502 H 424.698 -4.05852 -0.0625389 0
M  V30 4503 H 425.464 -4.20508 2.41657 0
M  V30 4504 H 421.343 -4.44715 1.21448 0
M  V30 4505 H 424.887 -5.27397 4.56617 0
M  V30 4506 H 420.784 -5.51451 3.35517 0
M  V30 4507 H 421.552 -6.23595 5.30161 0
M  V30 4508 N 424.215 -0.530993 -1.48385 0
M  V30 4509 C 425.464 0.00474348 -2.01699 0
M  V30 4510 C 425.777 1.35227 -1.41325 0
M  V30 4511 O 426.983 1.97643 -1.86144 0
M  V30 4512 C 425.439 0.0588473 -3.59852 0
M  V30 4513 C 425.047 -1.28385 -4.2921 0
M  V30 4514 C 426.791 0.543358 -4.21008 0
M  V30 4515 C 424.698 -1.19028 -5.79298 0
M  V30 4516 H 423.628 0.00554317 -0.75398 0
M  V30 4517 H 426.279 -0.674924 -1.70637 0
M  V30 4518 H 424.661 0.803612 -3.8776 0
M  V30 4519 H 425.835 -2.04426 -4.12973 0
M  V30 4520 H 424.15 -1.70418 -3.7993 0
M  V30 4521 H 426.747 0.631351 -5.3096 0
M  V30 4522 H 427.09 1.54937 -3.86394 0
M  V30 4523 H 427.623 -0.145754 -3.97533 0
M  V30 4524 H 424.362 -2.17147 -6.18488 0
M  V30 4525 H 423.882 -0.471246 -5.97946 0
M  V30 4526 H 425.561 -0.881365 -6.40969 0
M  V30 4527 N 425.693 1.55336 -0.266172 0
M  V30 4528 C 426.603 2.2583 0.635458 0
M  V30 4529 C 427.619 1.28106 1.17749 0
M  V30 4530 O 428.795 1.61024 1.20968 0
M  V30 4531 C 425.86 2.95879 1.80712 0
M  V30 4532 C 424.921 4.09059 1.30265 0
M  V30 4533 C 424.154 4.75759 2.41846 0
M  V30 4534 O 424.377 4.41622 3.61007 0
M  V30 4535 O 423.311 5.63888 2.1051 0
M  V30 4536 H 427.137 3.03631 0.0646693 0
M  V30 4537 H 424.722 1.49361 -0.0339177 0
M  V30 4538 H 426.604 3.39932 2.49047 0
M  V30 4539 H 425.279 2.21002 2.36516 0
M  V30 4540 H 424.186 3.69482 0.586019 0
M  V30 4541 H 425.519 4.85811 0.790458 0
M  V30 4542 N 427.171 -0.0066808 1.57599 0
M  V30 4543 C 428.587 -0.36267 1.55425 0
M  V30 4544 C 428.787 -1.75209 0.995187 0
M  V30 4545 O 427.843 -2.44616 0.626058 0
M  V30 4546 C 429.156 -0.244017 2.99708 0
M  V30 4547 C 430.704 -0.319451 3.11366 0
M  V30 4548 C 431.179 -0.229998 4.57422 0
M  V30 4549 N 432.67 -0.288105 4.62303 0
M  V30 4550 C 433.405 -0.242127 5.72889 0
M  V30 4551 N 432.901 -0.147133 6.92644 0
M  V30 4552 N 434.694 -0.293502 5.61333 0
M  V30 4553 H 426.845 0.902314 1.92281 0
M  V30 4554 H 429.108 0.34525 0.882896 0
M  V30 4555 H 428.814 0.711678 3.44424 0
M  V30 4556 H 428.688 -1.02877 3.629 0
M  V30 4557 H 431.075 -1.26559 2.66584 0
M  V30 4558 H 431.156 0.495055 2.50964 0
M  V30 4559 H 430.8 0.712566 5.02877 0
M  V30 4560 H 430.73 -1.0629 5.15761 0
M  V30 4561 H 433.221 -0.363126 3.76151 0
M  V30 4562 H 433.534 -0.117763 7.7271 0
M  V30 4563 H 431.879 -0.112857 6.94908 0
M  V30 4564 H 435.07 -0.365864 4.66668 0
M  V30 4565 H 435.243 -0.254204 6.47501 0
M  V30 4566 N 428.649 -1.55105 -0.279332 0
M  V30 4567 C 429.926 -1.66119 -1.03267 0
M  V30 4568 C 430.306 -0.523525 -2.04505 0
M  V30 4569 O 429.654 0.477194 -2.23462 0
M  V30 4570 C 429.864 -3.05067 -1.69515 0
M  V30 4571 C 431.212 -3.62606 -2.20912 0
M  V30 4572 O 432.236 -3.07659 -1.79512 0
M  V30 4573 O 431.095 -4.58861 -2.96831 0
M  V30 4574 H 428.189 -0.674429 -0.478618 0
M  V30 4575 H 430.735 -1.67446 -0.275694 0
M  V30 4576 H 429.507 -3.79311 -0.9612 0
M  V30 4577 H 429.13 -3.07611 -2.51915 0
M  V30 4578 N 430.127 0.543554 -1.4793 0
M  V30 4579 C 431.057 1.65888 -1.64327 0
M  V30 4580 C 432.038 1.62818 -0.492383 0
M  V30 4581 O 433.223 1.80226 -0.723338 0
M  V30 4582 C 430.353 3.04506 -1.67013 0
M  V30 4583 C 429.307 3.2243 -2.81466 0
M  V30 4584 C 428.633 4.61972 -2.69233 0
M  V30 4585 C 429.933 3.06496 -4.22915 0
M  V30 4586 H 431.627 1.52421 -2.57698 0
M  V30 4587 H 429.173 0.731849 -1.24016 0
M  V30 4588 H 431.126 3.82391 -1.77074 0
M  V30 4589 H 429.85 3.18964 -0.70212 0
M  V30 4590 H 428.509 2.46957 -2.70938 0
M  V30 4591 H 428.157 4.73247 -1.7043 0
M  V30 4592 H 427.857 4.74911 -3.46025 0
M  V30 4593 H 429.381 5.41974 -2.81242 0
M  V30 4594 H 430.795 3.74186 -4.34348 0
M  V30 4595 H 429.192 3.30938 -5.006 0
M  V30 4596 H 430.262 2.03077 -4.40327 0
M  V30 4597 N 431.605 1.3629 0.791371 0
M  V30 4598 C 432.552 1.30458 1.90393 0
M  V30 4599 C 433.522 0.173632 1.6519 0
M  V30 4600 O 434.707 0.35983 1.87376 0
M  V30 4601 C 431.847 1.09777 3.27174 0
M  V30 4602 C 430.96 2.31929 3.64462 0
M  V30 4603 C 430.095 2.04276 4.90352 0
M  V30 4604 C 429.134 3.224 5.20312 0
M  V30 4605 N 428.271 2.94424 6.37385 0
M  V30 4606 H 433.111 2.25589 1.94714 0
M  V30 4607 H 430.648 1.12122 0.952216 0
M  V30 4608 H 432.606 0.958133 4.06049 0
M  V30 4609 H 431.236 0.183014 3.22281 0
M  V30 4610 H 430.288 2.56703 2.80727 0
M  V30 4611 H 431.6 3.20085 3.82553 0
M  V30 4612 H 430.754 1.87231 5.77087 0
M  V30 4613 H 429.493 1.13428 4.74326 0
M  V30 4614 H 428.498 3.40005 4.32061 0
M  V30 4615 H 429.723 4.14071 5.38258 0
M  V30 4616 H 427.669 2.06185 6.22755 0
M  V30 4617 H 427.586 3.76118 6.55798 0
M  V30 4618 H 428.854 2.80953 7.27108 0
M  V30 4619 N 433.083 -1.0153 1.20538 0
M  V30 4620 C 434.046 -2.0826 0.957098 0
M  V30 4621 C 435.046 -1.60657 -0.0678655 0
M  V30 4622 O 436.236 -1.73385 0.168332 0
M  V30 4623 C 433.368 -3.38033 0.441188 0
M  V30 4624 H 434.561 -2.31719 1.90384 0
M  V30 4625 H 432.114 -1.1835 1.02093 0
M  V30 4626 H 432.849 -3.20249 -0.510961 0
M  V30 4627 H 432.634 -3.73911 1.18038 0
M  V30 4628 H 434.124 -4.16613 0.287009 0
M  V30 4629 N 434.561 -1.01147 -1.20859 0
M  V30 4630 C 435.809 -0.696486 -1.89719 0
M  V30 4631 C 436.13 0.775788 -1.78904 0
M  V30 4632 O 435.4 1.55759 -1.18811 0
M  V30 4633 H 433.98 -0.254628 -0.702263 0
M  V30 4634 H 436.642 -1.28197 -1.46804 0
M  V30 4635 H 435.738 -0.975357 -2.96468 0
M  V30 4636 N 436.039 1.36541 -0.78704 0
M  V30 4637 C 436.986 2.30082 -0.181901 0
M  V30 4638 C 437.956 1.5186 0.672896 0
M  V30 4639 O 439.141 1.80374 0.622072 0
M  V30 4640 C 436.281 3.3835 0.679197 0
M  V30 4641 C 435.394 4.31565 -0.193882 0
M  V30 4642 C 434.529 5.26915 0.673364 0
M  V30 4643 C 433.568 6.11769 -0.201315 0
M  V30 4644 N 432.705 6.99315 0.624777 0
M  V30 4645 H 437.545 2.81248 -0.985064 0
M  V30 4646 H 435.082 1.38437 -0.497342 0
M  V30 4647 H 437.04 3.99767 1.19341 0
M  V30 4648 H 435.67 2.8851 1.44781 0
M  V30 4649 H 434.722 3.71323 -0.826044 0
M  V30 4650 H 436.034 4.91191 -0.867937 0
M  V30 4651 H 435.188 5.9361 1.25348 0
M  V30 4652 H 433.927 4.67737 1.38105 0
M  V30 4653 H 432.932 5.44039 -0.793849 0
M  V30 4654 H 434.157 6.73022 -0.906568 0
M  V30 4655 H 432.103 6.42648 1.3168 0
M  V30 4656 H 432.02 7.56 0.00835237 0
M  V30 4657 H 433.288 7.70382 1.18879 0
M  V30 4658 N 437.518 0.538854 1.48102 0
M  V30 4659 C 438.767 0.0059532 2.01699 0
M  V30 4660 C 439.08 -1.34476 1.42041 0
M  V30 4661 O 440.286 -1.96653 1.87189 0
M  V30 4662 C 438.742 -0.0397627 3.59878 0
M  V30 4663 C 438.35 1.30659 4.28523 0
M  V30 4664 C 440.094 -0.521024 4.2129 0
M  V30 4665 C 438.001 1.22098 5.78659 0
M  V30 4666 H 436.931 -0.00154456 0.753998 0
M  V30 4667 H 439.582 0.683963 1.70277 0
M  V30 4668 H 437.964 -0.783037 3.88181 0
M  V30 4669 H 439.138 2.06613 4.11883 0
M  V30 4670 H 437.453 1.7243 3.79021 0
M  V30 4671 H 440.05 -0.603184 5.31287 0
M  V30 4672 H 440.393 -1.52885 3.8721 0
M  V30 4673 H 440.926 0.166834 3.9745 0
M  V30 4674 H 437.665 2.20424 6.17328 0
M  V30 4675 H 437.185 0.50295 5.97688 0
M  V30 4676 H 438.864 0.915345 6.40492 0
M  V30 4677 N 438.996 -1.55193 0.274407 0
M  V30 4678 C 440.224 -2.03987 -0.345943 0
M  V30 4679 C 440.639 -1.15279 -1.4952 0
M  V30 4680 O 439.996 -0.172759 -1.8168 0
M  V30 4681 C 440.047 -3.51898 -0.827631 0
M  V30 4682 O 439.768 -4.37231 0.275855 0
M  V30 4683 C 441.269 -4.16577 -1.51587 0
M  V30 4684 H 438.489 -0.666335 -0.0789892 0
M  V30 4685 H 441.033 -2.00423 0.406294 0
M  V30 4686 H 439.188 -3.55909 -1.52996 0
M  V30 4687 H 439.602 -5.24415 -0.0943638 0
M  V30 4688 H 441.076 -5.21678 -1.80433 0
M  V30 4689 H 441.553 -3.64707 -2.44716 0
M  V30 4690 H 442.159 -4.16568 -0.857409 0
M  V30 4691 N 440.474 -0.00167713 -1.576 0
M  V30 4692 C 441.384 1.00548 -2.1196 0
M  V30 4693 C 442.4 1.3758 -1.06526 0
M  V30 4694 O 443.576 1.46278 -1.38436 0
M  V30 4695 C 440.641 2.27809 -2.6135 0
M  V30 4696 C 439.702 1.97074 -3.81393 0
M  V30 4697 C 438.935 3.18267 -4.28417 0
M  V30 4698 O 439.158 4.30009 -3.74765 0
M  V30 4699 O 438.092 3.02167 -5.20556 0
M  V30 4700 H 441.918 0.573373 -2.98238 0
M  V30 4701 H 439.503 0.217255 -1.47812 0
M  V30 4702 H 441.385 3.02568 -2.93309 0
M  V30 4703 H 440.06 2.70254 -1.78169 0
M  V30 4704 H 438.967 1.19785 -3.54404 0
M  V30 4705 H 440.3 1.59464 -4.65652 0
M  V30 4706 N 441.952 1.55251 0.271103 0
M  V30 4707 C 442.884 1.84675 1.35749 0
M  V30 4708 C 443.897 0.731366 1.45447 0
M  V30 4709 O 445.086 1.00924 1.4723 0
M  V30 4710 C 442.186 1.99638 2.73857 0
M  V30 4711 C 441.359 3.30312 2.86727 0
M  V30 4712 C 440.418 3.35318 4.05522 0
M  V30 4713 O 439.444 4.08682 3.96191 0
M  V30 4714 N 440.646 2.62857 5.17577 0
M  V30 4715 H 443.411 2.78445 1.10853 0
M  V30 4716 H 440.972 1.55191 0.461218 0
M  V30 4717 H 442.964 2.00355 3.51625 0
M  V30 4718 H 441.534 1.12725 2.91568 0
M  V30 4719 H 440.754 3.42118 1.95829 0
M  V30 4720 H 442.042 4.16488 2.92258 0
M  V30 4721 H 441.44 2.02939 5.28046 0
M  V30 4722 H 439.997 2.69295 5.93568 0
M  V30 4723 N 443.43 -0.535701 1.48216 0
M  V30 4724 C 444.34 -1.66785 1.64985 0
M  V30 4725 C 445.356 -1.65654 0.532414 0
M  V30 4726 O 446.532 -1.8471 0.80275 0
M  V30 4727 C 443.597 -3.0326 1.68031 0
M  V30 4728 C 442.658 -3.1529 2.9136 0
M  V30 4729 C 441.891 -4.45255 2.94252 0
M  V30 4730 O 442.114 -5.32011 2.05719 0
M  V30 4731 O 441.048 -4.6153 3.86359 0
M  V30 4732 H 444.874 -1.55576 2.60825 0
M  V30 4733 H 442.459 -0.70815 1.31551 0
M  V30 4734 H 444.341 -3.84436 1.72589 0
M  V30 4735 H 443.016 -3.14805 0.753628 0
M  V30 4736 H 441.923 -2.3343 2.92337 0
M  V30 4737 H 443.256 -3.08658 3.83394 0
M  V30 4738 N 444.908 -1.36708 -0.784132 0
M  V30 4739 C 445.871 -1.31307 -1.87859 0
M  V30 4740 C 446.871 -0.219654 -1.59293 0
M  V30 4741 O 448.061 -0.47476 -1.67606 0
M  V30 4742 C 445.193 -1.03679 -3.24751 0
M  V30 4743 H 446.386 -2.28647 -1.94064 0
M  V30 4744 H 443.939 -1.21558 -0.98252 0
M  V30 4745 H 444.674 -0.0681936 -3.24228 0
M  V30 4746 H 444.459 -1.82811 -3.46876 0
M  V30 4747 H 445.949 -1.02518 -4.04821 0
M  V30 4748 N 446.386 1.0089 -1.21074 0
M  V30 4749 C 447.318 2.09737 -0.924291 0
M  V30 4750 C 448.331 1.62546 0.0909809 0
M  V30 4751 O 449.52 1.77942 -0.141021 0
M  V30 4752 C 446.62 3.36922 -0.36559 0
M  V30 4753 C 445.793 4.13216 -1.43426 0
M  V30 4754 C 444.852 5.18696 -0.885496 0
M  V30 4755 O 443.878 5.47176 -1.56801 0
M  V30 4756 N 445.08 5.79718 0.301227 0
M  V30 4757 H 447.845 2.34895 -1.8613 0
M  V30 4758 H 445.406 1.17341 -1.11546 0
M  V30 4759 H 447.398 4.04697 0.0158407 0
M  V30 4760 H 445.968 3.08952 0.476149 0
M  V30 4761 H 445.188 3.40301 -1.9897 0
M  V30 4762 H 446.476 4.60967 -2.15376 0
M  V30 4763 H 445.874 5.58926 0.872849 0
M  V30 4764 H 444.431 6.48804 0.624211 0
M  V30 4765 N 447.864 1.01787 1.20321 0
M  V30 4766 C 448.774 0.598898 2.26827 0
M  V30 4767 C 449.79 -0.36418 1.70146 0
M  V30 4768 O 450.966 -0.224812 2.00141 0
M  V30 4769 C 448.031 -0.0549769 3.46656 0
M  V30 4770 C 447.092 0.954205 4.18561 0
M  V30 4771 C 446.325 0.331439 5.3267 0
M  V30 4772 O 446.548 -0.86851 5.63749 0
M  V30 4773 O 445.482 1.0488 5.92692 0
M  V30 4774 H 449.308 1.48562 2.64883 0
M  V30 4775 H 446.893 0.787434 1.26964 0
M  V30 4776 H 448.775 -0.420102 4.19301 0
M  V30 4777 H 447.45 -0.915876 3.10473 0
M  V30 4778 H 446.357 1.37072 3.48083 0
M  V30 4779 H 447.69 1.78511 4.58688 0
M  V30 4780 N 449.342 -1.36122 0.79427 0
M  V30 4781 C 450.275 -2.27759 0.141845 0
M  V30 4782 C 451.253 -1.47471 -0.684921 0
M  V30 4783 O 452.437 -1.76759 -0.654857 0
M  V30 4784 C 449.564 -3.29008 -0.804446 0
M  V30 4785 C 448.61 -4.26459 -0.0588617 0
M  V30 4786 S 449.443 -5.20253 1.26873 0
M  V30 4787 C 450.599 -6.25048 0.326562 0
M  V30 4788 H 450.832 -2.82746 0.918818 0
M  V30 4789 H 448.365 -1.42736 0.588722 0
M  V30 4790 H 450.323 -3.87842 -1.34495 0
M  V30 4791 H 448.984 -2.72924 -1.5547 0
M  V30 4792 H 448.177 -4.97973 -0.777087 0
M  V30 4793 H 447.779 -3.71731 0.411309 0
M  V30 4794 H 450.071 -6.75705 -0.492795 0
M  V30 4795 H 451.014 -7.00852 1.01053 0
M  V30 4796 H 451.422 -5.64454 -0.0722627 0
M  V30 4797 N 450.82 -0.546701 -1.47814 0
M  V30 4798 C 452.066 -0.0187684 -2.02791 0
M  V30 4799 C 452.399 1.32338 -1.42128 0
M  V30 4800 O 451.674 1.85867 -0.573023 0
M  V30 4801 C 451.957 0.0854985 -3.59998 0
M  V30 4802 C 451.81 -1.283 -4.31114 0
M  V30 4803 C 453.129 0.80412 -4.32691 0
M  V30 4804 H 450.248 -0.0082946 -0.736953 0
M  V30 4805 H 452.89 -0.706962 -1.76358 0
M  V30 4806 H 451.04 0.671609 -3.82651 0
M  V30 4807 H 452.712 -1.91151 -4.19832 0
M  V30 4808 H 450.955 -1.86049 -3.91878 0
M  V30 4809 H 451.626 -1.16287 -5.39612 0
M  V30 4810 H 454.102 0.306576 -4.14969 0
M  V30 4811 H 452.978 0.846011 -5.42341 0
M  V30 4812 H 453.239 1.85802 -4.01161 0
M  V30 4813 N 452.299 1.55045 -0.282633 0
M  V30 4814 C 453.576 1.9179 0.384166 0
M  V30 4815 C 453.956 1.20778 1.73136 0
M  V30 4816 O 453.304 0.33719 2.25998 0
M  V30 4817 C 453.514 3.45149 0.517014 0
M  V30 4818 C 454.862 4.17064 0.796427 0
M  V30 4819 O 455.886 3.51084 0.601535 0
M  V30 4820 O 454.745 5.33837 1.16962 0
M  V30 4821 H 451.839 0.799483 0.211558 0
M  V30 4822 H 454.385 1.66474 -0.32934 0
M  V30 4823 H 453.157 3.88922 -0.430772 0
M  V30 4824 H 452.78 3.76443 1.2797 0
M  V30 4825 N 453.777 0.010035 1.57597 0
M  V30 4826 C 454.727 -0.986858 2.05536 0
M  V30 4827 C 455.711 -1.29711 0.952042 0
M  V30 4828 O 456.903 -1.28641 1.21575 0
M  V30 4829 C 454.032 -2.2756 2.57043 0
M  V30 4830 C 453.118 -1.99455 3.74271 0
M  V30 4831 N 453.509 -1.41546 4.85591 0
M  V30 4832 C 451.807 -2.29547 3.82393 0
M  V30 4833 C 452.508 -1.3014 5.66956 0
M  V30 4834 N 451.484 -1.79044 5.13268 0
M  V30 4835 H 455.286 -0.533778 2.89012 0
M  V30 4836 H 452.8 -0.195432 1.6122 0
M  V30 4837 H 454.797 -2.99829 2.89669 0
M  V30 4838 H 453.457 -2.73512 1.7499 0
M  V30 4839 H 454.468 -1.09294 5.06236 0
M  V30 4840 H 451.145 -2.78304 3.11213 0
M  V30 4841 H 452.535 -0.855237 6.66435 0
M  V30 4842 N 455.255 -1.55392 -0.262866 0
M  V30 4843 C 456.185 -1.91978 -1.32917 0
M  V30 4844 C 457.166 -0.7828 -1.51017 0
M  V30 4845 O 458.351 -1.04178 -1.63892 0
M  V30 4846 C 455.481 -2.20055 -2.68687 0
M  V30 4847 C 454.435 -3.35854 -2.65304 0
M  V30 4848 C 453.761 -3.49435 -4.04721 0
M  V30 4849 C 455.061 -4.71977 -2.23685 0
M  V30 4850 H 456.755 -2.81292 -1.02544 0
M  V30 4851 H 454.301 -1.3534 -0.491846 0
M  V30 4852 H 456.254 -2.44237 -3.43404 0
M  V30 4853 H 454.978 -1.27551 -3.00663 0
M  V30 4854 H 453.637 -3.11655 -1.93045 0
M  V30 4855 H 453.285 -2.54379 -4.33936 0
M  V30 4856 H 452.985 -4.27297 -4.0335 0
M  V30 4857 H 454.509 -3.7592 -4.81161 0
M  V30 4858 H 455.923 -4.95637 -2.88127 0
M  V30 4859 H 454.32 -5.52828 -2.33456 0
M  V30 4860 H 455.39 -4.70115 -1.18827 0
M  V30 4861 N 456.733 0.527833 -1.48498 0
M  V30 4862 C 457.979 1.28545 -1.56857 0
M  V30 4863 C 458.312 1.92678 -0.242651 0
M  V30 4864 O 457.587 1.79394 0.751545 0
M  V30 4865 C 457.87 2.37314 -2.70839 0
M  V30 4866 C 457.723 1.77858 -4.13142 0
M  V30 4867 C 459.042 3.39068 -2.80573 0
M  V30 4868 H 456.161 0.466006 -0.570971 0
M  V30 4869 H 458.803 0.587784 -1.8068 0
M  V30 4870 H 456.953 2.96821 -2.50658 0
M  V30 4871 H 458.625 1.22385 -4.44769 0
M  V30 4872 H 456.868 1.08383 -4.20042 0
M  V30 4873 H 457.539 2.56624 -4.88721 0
M  V30 4874 H 460.015 2.89518 -2.98862 0
M  V30 4875 H 458.891 4.12566 -3.6205 0
M  V30 4876 H 459.152 3.9975 -1.88818 0
M  V30 4877 N 458.211 1.37122 0.776871 0
M  V30 4878 C 459.144 1.26835 1.89705 0
M  V30 4879 C 460.122 0.14992 1.61907 0
M  V30 4880 O 461.306 0.323242 1.85708 0
M  V30 4881 C 458.433 0.95986 3.24814 0
M  V30 4882 C 457.479 2.09447 3.7153 0
M  V30 4883 S 458.312 3.71368 3.85806 0
M  V30 4884 C 459.468 3.42659 5.23771 0
M  V30 4885 H 459.701 2.21647 1.98141 0
M  V30 4886 H 457.234 1.22685 0.937433 0
M  V30 4887 H 459.192 0.788696 4.02852 0
M  V30 4888 H 457.853 0.0293137 3.14086 0
M  V30 4889 H 457.046 1.8335 4.69467 0
M  V30 4890 H 456.648 2.2255 3.00578 0
M  V30 4891 H 458.94 2.9733 6.0877 0
M  V30 4892 H 459.883 4.39905 5.54878 0
M  V30 4893 H 460.291 2.77708 4.91466 0
M  V30 4894 N 459.689 -1.00246 1.21608 0
M  V30 4895 C 460.636 -2.09073 0.977613 0
M  V30 4896 C 461.606 -1.65815 -0.097297 0
M  V30 4897 O 462.791 -1.90734 0.0503445 0
M  V30 4898 C 459.931 -3.40671 0.551133 0
M  V30 4899 C 459.044 -3.97326 1.69576 0
M  V30 4900 C 458.179 -5.17043 1.2182 0
M  V30 4901 C 457.218 -5.65813 2.335 0
M  V30 4902 N 456.355 -6.76778 1.86859 0
M  V30 4903 H 461.195 -2.28806 1.90924 0
M  V30 4904 H 458.732 -1.12186 0.951452 0
M  V30 4905 H 460.69 -4.16225 0.285097 0
M  V30 4906 H 459.32 -3.20967 -0.343489 0
M  V30 4907 H 458.372 -3.18734 2.07637 0
M  V30 4908 H 459.684 -4.29511 2.53617 0
M  V30 4909 H 458.838 -5.99852 0.908975 0
M  V30 4910 H 457.577 -4.86458 0.347869 0
M  V30 4911 H 456.582 -4.81599 2.65222 0
M  V30 4912 H 457.807 -5.98427 3.21033 0
M  V30 4913 H 455.753 -6.47994 1.02174 0
M  V30 4914 H 455.67 -7.08231 2.64471 0
M  V30 4915 H 456.938 -7.63116 1.58978 0
M  V30 4916 N 461.167 -1.02423 -1.1978 0
M  V30 4917 C 462.097 -0.62157 -2.25075 0
M  V30 4918 C 463.078 0.367148 -1.6609 0
M  V30 4919 O 464.263 0.250892 -1.92573 0
M  V30 4920 C 461.393 0.0331826 -3.47284 0
M  V30 4921 C 460.347 -0.877323 -4.18912 0
M  V30 4922 C 459.673 -0.0879296 -5.34628 0
M  V30 4923 C 460.973 -2.18892 -4.74219 0
M  V30 4924 H 462.667 -1.50179 -2.59011 0
M  V30 4925 H 460.213 -0.723547 -1.24502 0
M  V30 4926 H 462.166 0.326488 -4.20133 0
M  V30 4927 H 460.89 0.948164 -3.12534 0
M  V30 4928 H 459.549 -1.15475 -3.47938 0
M  V30 4929 H 459.197 0.828941 -4.96123 0
M  V30 4930 H 458.897 -0.694359 -5.83483 0
M  V30 4931 H 460.421 0.198743 -6.10276 0
M  V30 4932 H 461.835 -1.95746 -5.38847 0
M  V30 4933 H 460.232 -2.74686 -5.33542 0
M  V30 4934 H 461.302 -2.84674 -3.92541 0
M  V30 4935 N 462.645 1.35699 -0.801477 0
M  V30 4936 C 464.061 1.52065 -0.484596 0
M  V30 4937 C 464.261 1.75215 0.995084 0
M  V30 4938 O 463.317 1.79061 1.78026 0
M  V30 4939 C 464.63 2.69908 -1.32552 0
M  V30 4940 C 466.178 2.83784 -1.32044 0
M  V30 4941 C 466.653 4.04646 -2.14536 0
M  V30 4942 N 468.144 4.11814 -2.12046 0
M  V30 4943 C 468.879 5.04437 -2.72636 0
M  V30 4944 N 468.375 6.02426 -3.42133 0
M  V30 4945 N 470.168 4.97144 -2.62305 0
M  V30 4946 H 462.319 1.18928 -1.75983 0
M  V30 4947 H 464.582 0.581455 -0.748741 0
M  V30 4948 H 464.288 2.59363 -2.37537 0
M  V30 4949 H 464.162 3.64376 -0.975181 0
M  V30 4950 H 466.549 2.93783 -0.27846 0
M  V30 4951 H 466.63 1.90188 -1.71062 0
M  V30 4952 H 466.274 3.95407 -3.18772 0
M  V30 4953 H 466.204 4.97413 -1.72882 0
M  V30 4954 H 468.695 3.41664 -1.61476 0
M  V30 4955 H 469.008 6.69688 -3.85666 0
M  V30 4956 H 467.353 6.02615 -3.46237 0
M  V30 4957 H 470.544 4.19546 -2.07603 0
M  V30 4958 H 470.717 5.69138 -3.09815 0
M  V30 4959 N 464.123 0.554532 1.47522 0
M  V30 4960 C 465.056 -0.242442 2.26908 0
M  V30 4961 C 466.034 -0.922722 1.33883 0
M  V30 4962 O 467.218 -0.942244 1.63261 0
M  V30 4963 C 464.345 -1.34525 3.10839 0
M  V30 4964 C 463.391 -0.773805 4.19422 0
M  V30 4965 S 464.224 0.377525 5.34168 0
M  V30 4966 C 465.38 -0.727164 6.21662 0
M  V30 4967 H 465.613 0.431218 2.94156 0
M  V30 4968 H 463.146 0.3408 1.50592 0
M  V30 4969 H 465.104 -1.97683 3.59766 0
M  V30 4970 H 463.765 -1.99073 2.42958 0
M  V30 4971 H 462.958 -1.60187 4.77866 0
M  V30 4972 H 462.56 -0.218448 3.73361 0
M  V30 4973 H 464.852 -1.61992 6.57849 0
M  V30 4974 H 465.795 -0.180135 7.07871 0
M  V30 4975 H 466.203 -1.01863 5.55233 0
M  V30 4976 N 465.601 -1.54893 0.290851 0
M  V30 4977 C 466.847 -2.0023 -0.321867 0
M  V30 4978 C 467.18 -1.179 -1.54316 0
M  V30 4979 O 466.455 -0.25293 -1.92848 0
M  V30 4980 C 466.738 -3.53456 -0.688515 0
M  V30 4981 C 466.591 -4.46532 0.541209 0
M  V30 4982 C 467.91 -4.13057 -1.51895 0
M  V30 4983 H 465.029 -0.727891 -0.115515 0
M  V30 4984 H 467.671 -1.85722 0.400931 0
M  V30 4985 H 465.821 -3.6595 -1.30433 0
M  V30 4986 H 467.493 -4.4596 1.17973 0
M  V30 4987 H 465.736 -4.17545 1.17636 0
M  V30 4988 H 466.407 -5.51475 0.240675 0
M  V30 4989 H 468.883 -4.03937 -0.99872 0
M  V30 4990 H 467.759 -5.20448 -1.74429 0
M  V30 4991 H 468.02 -3.64284 -2.50498 0
M  V30 4992 N 467.08 -0.0183926 -1.57589 0
M  V30 4993 C 468.496 0.337897 -1.55982 0
M  V30 4994 C 468.696 1.73604 -1.02294 0
M  V30 4995 O 467.752 2.43589 -0.664895 0
M  V30 4996 C 469.065 0.196305 -3.00059 0
M  V30 4997 C 470.613 0.269875 -3.11834 0
M  V30 4998 C 471.088 0.157197 -4.5773 0
M  V30 4999 N 472.579 0.214521 -4.62703 0
M  V30 5000 C 473.314 0.150955 -5.73201 0
M  V30 5001 N 472.81 0.0369212 -6.9279 0
M  V30 5002 N 474.603 0.204162 -5.61729 0
M  V30 5003 H 466.754 -0.93279 -1.90821 0
M  V30 5004 H 469.017 -0.359253 -0.877292 0
M  V30 5005 H 468.723 -0.766383 -3.43248 0
M  V30 5006 H 468.597 0.970908 -3.6449 0
M  V30 5007 H 470.984 1.22302 -2.68563 0
M  V30 5008 H 471.065 -0.534918 -2.50144 0
M  V30 5009 H 470.709 -0.792479 -5.01679 0
M  V30 5010 H 470.639 0.980717 -5.17387 0
M  V30 5011 H 473.13 0.303238 -3.76681 0
M  V30 5012 H 473.443 -0.00518321 -7.728 0
M  V30 5013 H 471.788 0.0022886 -6.95 0
M  V30 5014 H 474.979 0.291575 -4.67191 0
M  V30 5015 H 475.152 0.15116 -6.47824 0
M  V30 5016 N 468.558 1.5553 0.254621 0
M  V30 5017 C 469.805 1.77 0.983736 0
M  V30 5018 C 470.133 0.58133 1.85609 0
M  V30 5019 O 469.388 -0.435621 1.9079 0
M  V30 5020 C 469.687 3.03891 1.88109 0
M  V30 5021 C 469.353 4.35597 1.16472 0
M  V30 5022 C 468.015 4.7139 0.966714 0
M  V30 5023 C 470.367 5.1705 0.656387 0
M  V30 5024 C 467.695 5.86176 0.247942 0
M  V30 5025 C 470.047 6.32581 -0.0488807 0
M  V30 5026 C 468.711 6.67 -0.258438 0
M  V30 5027 H 467.981 0.647688 0.359974 0
M  V30 5028 H 470.628 1.89802 0.254463 0
M  V30 5029 H 468.933 2.86068 2.67717 0
M  V30 5030 H 470.63 3.17701 2.44677 0
M  V30 5031 H 467.22 4.07475 1.32899 0
M  V30 5032 H 471.404 4.8986 0.796933 0
M  V30 5033 H 466.66 6.11354 0.075035 0
M  V30 5034 H 470.834 6.94942 -0.450444 0
M  V30 5035 H 468.461 7.55793 -0.817358 0
M  V30 5036 N 470.036 -0.519951 1.48776 0
M  V30 5037 C 470.966 -1.63253 1.66945 0
M  V30 5038 C 471.947 -1.62014 0.518224 0
M  V30 5039 O 473.132 -1.79053 0.751919 0
M  V30 5040 C 470.262 -3.0181 1.71836 0
M  V30 5041 C 469.216 -3.17911 2.8656 0
M  V30 5042 C 468.542 -4.5763 2.76548 0
M  V30 5043 C 469.842 -2.99729 4.27738 0
M  V30 5044 H 471.536 -1.48302 2.6009 0
M  V30 5045 H 469.082 -0.712026 1.25165 0
M  V30 5046 H 471.035 -3.79525 1.83135 0
M  V30 5047 H 469.759 -3.17806 0.752775 0
M  V30 5048 H 468.418 -2.42616 2.74833 0
M  V30 5049 H 468.066 -4.70476 1.77937 0
M  V30 5050 H 467.766 -4.69346 3.53536 0
M  V30 5051 H 469.29 -5.37431 2.89828 0
M  V30 5052 H 470.704 -3.67228 4.40246 0
M  V30 5053 H 469.101 -3.22932 5.05801 0
M  V30 5054 H 470.171 -1.96047 4.43502 0
M  V30 5055 N 471.514 -1.37532 -0.769588 0
M  V30 5056 C 472.93 -1.18379 -1.07045 0
M  V30 5057 C 473.13 -0.0214312 -2.01489 0
M  V30 5058 O 472.186 0.637809 -2.44312 0
M  V30 5059 C 473.499 -2.50338 -1.66588 0
M  V30 5060 C 475.047 -2.56879 -1.78835 0
M  V30 5061 C 475.522 -3.88974 -2.41792 0
M  V30 5062 N 477.013 -3.90428 -2.4924 0
M  V30 5063 C 477.748 -4.89388 -2.98809 0
M  V30 5064 N 477.244 -5.98745 -3.48535 0
M  V30 5065 N 479.037 -4.76791 -2.97703 0
M  V30 5066 H 471.188 -2.11921 -0.142541 0
M  V30 5067 H 473.451 -0.939608 -0.125863 0
M  V30 5068 H 473.157 -3.35767 -1.0466 0
M  V30 5069 H 473.031 -2.67583 -2.65856 0
M  V30 5070 H 475.418 -1.71856 -2.39895 0
M  V30 5071 H 475.499 -2.43516 -0.783166 0
M  V30 5072 H 475.143 -4.74412 -1.81371 0
M  V30 5073 H 475.073 -3.99641 -3.4292 0
M  V30 5074 H 477.564 -3.11433 -2.14052 0
M  V30 5075 H 477.877 -6.70205 -3.84767 0
M  V30 5076 H 476.222 -6.02387 -3.46634 0
M  V30 5077 H 479.413 -3.90478 -2.58157 0
M  V30 5078 H 479.586 -5.54069 -3.36024 0
M  V30 5079 N 472.992 0.995999 -1.22138 0
M  V30 5080 C 474.22 1.77066 -1.07029 0
M  V30 5081 C 474.635 1.8495 0.379357 0
M  V30 5082 O 473.992 1.3174 1.26297 0
M  V30 5083 C 474.043 3.20533 -1.67155 0
M  V30 5084 O 473.764 3.13082 -3.06449 0
M  V30 5085 C 475.265 4.14461 -1.5728 0
M  V30 5086 H 472.485 0.556179 -0.375374 0
M  V30 5087 H 475.029 1.25238 -1.61666 0
M  V30 5088 H 473.184 3.6944 -1.16589 0
M  V30 5089 H 473.598 4.03283 -3.35355 0
M  V30 5090 H 475.072 5.1289 -2.04078 0
M  V30 5091 H 475.549 4.36005 -0.528795 0
M  V30 5092 H 476.155 3.71449 -2.07136 0
M  V30 5093 N 474.47 1.03057 1.19235 0
M  V30 5094 C 475.881 0.757449 1.70645 0
M  V30 5095 C 476.232 -0.722735 1.82403 0
M  V30 5096 O 475.357 -1.56325 1.49638 0
M  V30 5097 C 475.952 1.36833 3.09939 0
M  V30 5098 C 474.511 1.14375 3.58602 0
M  V30 5099 C 473.658 1.46533 2.35422 0
M  V30 5100 H 476.609 1.19828 1.04052 0
M  V30 5101 H 476.63 0.766184 3.72706 0
M  V30 5102 H 476.142 2.44562 3.01349 0
M  V30 5103 H 474.243 0.0847542 3.72504 0
M  V30 5104 H 474.356 1.83366 4.42622 0
M  V30 5105 H 472.72 0.884712 2.38841 0
M  V30 5106 H 473.503 2.55349 2.2946 0
M  V30 5107 N 475.948 -1.35272 0.808662 0
M  V30 5108 C 476.858 -2.33546 0.222079 0
M  V30 5109 C 477.874 -1.6196 -0.636011 0
M  V30 5110 O 479.05 -1.93822 -0.547274 0
M  V30 5111 C 476.115 -3.41148 -0.61795 0
M  V30 5112 C 475.176 -4.28507 0.260875 0
M  V30 5113 C 474.409 -5.3097 -0.539156 0
M  V30 5114 O 474.632 -5.42123 -1.77367 0
M  V30 5115 O 473.566 -6.01858 0.0710526 0
M  V30 5116 H 477.392 -2.85515 1.03512 0
M  V30 5117 H 474.977 -1.38079 0.570495 0
M  V30 5118 H 476.859 -4.06889 -1.09634 0
M  V30 5119 H 475.534 -2.91447 -1.40855 0
M  V30 5120 H 474.441 -3.6574 0.786451 0
M  V30 5121 H 475.774 -4.81611 1.01547 0
M  V30 5122 N 477.426 -0.562348 -1.47226 0
M  V30 5123 C 478.656 -0.0451619 -2.06551 0
M  V30 5124 C 479.064 1.25626 -1.41473 0
M  V30 5125 O 478.407 1.76563 -0.507061 0
M  V30 5126 C 478.469 0.216068 -3.5885 0
M  V30 5127 C 478.133 -0.996691 -4.45999 0
M  V30 5128 C 479.13 -1.90358 -4.83797 0
M  V30 5129 C 476.815 -1.21281 -4.87438 0
M  V30 5130 C 478.809 -3.01023 -5.6184 0
M  V30 5131 C 476.496 -2.32255 -5.65244 0
M  V30 5132 C 477.494 -3.21956 -6.02356 0
M  V30 5133 O 477.182 -4.31005 -6.78594 0
M  V30 5134 H 476.914 -0.0451646 -0.67449 0
M  V30 5135 H 479.468 -0.776842 -1.90143 0
M  V30 5136 H 477.698 1.00212 -3.7349 0
M  V30 5137 H 479.387 0.679264 -4.00176 0
M  V30 5138 H 480.153 -1.74868 -4.52378 0
M  V30 5139 H 476.032 -0.523767 -4.58015 0
M  V30 5140 H 479.576 -3.71064 -5.90726 0
M  V30 5141 H 475.473 -2.47715 -5.96077 0
M  V30 5142 H 476.241 -4.29118 -6.96994 0
M  V30 5143 N 478.904 1.54736 -0.299062 0
M  V30 5144 C 480.181 1.92187 0.363802 0
M  V30 5145 C 480.561 1.22607 1.71845 0
M  V30 5146 O 479.909 0.361141 2.25628 0
M  V30 5147 C 480.119 3.45678 0.480377 0
M  V30 5148 C 481.467 4.17885 0.752147 0
M  V30 5149 O 482.491 3.51702 0.564264 0
M  V30 5150 O 481.35 5.35048 1.11294 0
M  V30 5151 H 478.444 0.801681 0.203066 0
M  V30 5152 H 480.99 1.66115 -0.346978 0
M  V30 5153 H 479.762 3.88443 -0.471999 0
M  V30 5154 H 479.385 3.77779 1.2397 0
M  V30 5155 N 480.382 0.0267497 1.57577 0
M  V30 5156 C 481.292 -0.971633 2.13533 0
M  V30 5157 C 482.308 -1.35868 1.08701 0
M  V30 5158 O 483.484 -1.44058 1.40746 0
M  V30 5159 C 480.549 -2.23622 2.64941 0
M  V30 5160 C 479.61 -1.90982 3.8448 0
M  V30 5161 C 478.843 -3.11411 4.33427 0
M  V30 5162 O 479.066 -4.23992 3.81558 0
M  V30 5163 O 478 -2.93848 5.25297 0
M  V30 5164 H 481.826 -0.525853 2.99113 0
M  V30 5165 H 479.411 -0.193712 1.48139 0
M  V30 5166 H 481.293 -2.97864 2.98086 0
M  V30 5167 H 479.968 -2.67386 1.82446 0
M  V30 5168 H 478.875 -1.14132 3.56265 0
M  V30 5169 H 480.208 -1.52036 4.6813 0
M  V30 5170 N 481.861 -1.55662 -0.24637 0
M  V30 5171 C 482.791 -1.93377 -1.30873 0
M  V30 5172 C 483.772 -0.798773 -1.50179 0
M  V30 5173 O 484.957 -1.0591 -1.62778 0
M  V30 5174 C 482.087 -2.22893 -2.66338 0
M  V30 5175 C 481.041 -3.38649 -2.61727 0
M  V30 5176 C 480.367 -3.53708 -4.00992 0
M  V30 5177 C 481.667 -4.74323 -2.18666 0
M  V30 5178 H 483.361 -2.82363 -0.995552 0
M  V30 5179 H 480.907 -1.35854 -0.477464 0
M  V30 5180 H 482.86 -2.47866 -3.40794 0
M  V30 5181 H 481.584 -1.30733 -2.99293 0
M  V30 5182 H 480.243 -3.13685 -1.89729 0
M  V30 5183 H 479.891 -2.58967 -4.31214 0
M  V30 5184 H 479.591 -4.31551 -3.98795 0
M  V30 5185 H 481.115 -3.81003 -4.77147 0
M  V30 5186 H 482.529 -4.98665 -2.82854 0
M  V30 5187 H 480.926 -5.55273 -2.27579 0
M  V30 5188 H 481.996 -4.71349 -1.13834 0
M  V30 5189 N 483.339 0.512053 -1.4905 0
M  V30 5190 C 484.586 1.26686 -1.57978 0
M  V30 5191 C 484.914 1.92733 -0.261553 0
M  V30 5192 O 484.169 1.80772 0.749667 0
M  V30 5193 C 484.468 2.36446 -2.68008 0
M  V30 5194 C 484.134 1.87932 -4.09869 0
M  V30 5195 C 482.796 1.74419 -4.48477 0
M  V30 5196 C 485.148 1.5149 -4.98698 0
M  V30 5197 C 482.476 1.22827 -5.73699 0
M  V30 5198 C 484.828 1.01355 -6.24428 0
M  V30 5199 C 483.492 0.864735 -6.61875 0
M  V30 5200 H 482.762 0.463577 -0.578081 0
M  V30 5201 H 485.409 0.569421 -1.82838 0
M  V30 5202 H 483.714 3.11933 -2.37076 0
M  V30 5203 H 485.411 2.9453 -2.72127 0
M  V30 5204 H 482.001 1.99405 -3.79389 0
M  V30 5205 H 486.185 1.60782 -4.69535 0
M  V30 5206 H 481.441 1.10008 -6.01422 0
M  V30 5207 H 485.615 0.722351 -6.92644 0
M  V30 5208 H 483.242 0.462777 -7.5879 0
M  V30 5209 N 484.817 1.37938 0.762283 0
M  V30 5210 C 486.042 1.37059 1.55659 0
M  V30 5211 C 486.467 -0.0396123 1.88058 0
M  V30 5212 O 485.825 -1.01929 1.49934 0
M  V30 5213 C 485.873 2.22494 2.83776 0
M  V30 5214 O 484.977 1.63607 3.78559 0
M  V30 5215 H 484.318 0.467892 0.47114 0
M  V30 5216 H 486.848 1.81587 0.942725 0
M  V30 5217 H 486.858 2.36045 3.32786 0
M  V30 5218 H 485.533 3.24993 2.59524 0
M  V30 5219 H 484.11 1.5915 3.37233 0
M  V30 5220 N 486.295 -0.989507 1.22664 0
M  V30 5221 C 487.543 -1.72612 1.05117 0
M  V30 5222 C 487.864 -1.90552 -0.414131 0
M  V30 5223 O 487.134 -1.4676 -1.29762 0
M  V30 5224 H 485.714 -0.639555 0.385977 0
M  V30 5225 H 488.376 -1.19158 1.54232 0
M  V30 5226 H 487.472 -2.71926 1.53175 0
M  V30 5227 N 487.773 -1.03688 -1.18687 0
M  V30 5228 C 489.05 -0.652397 -1.84399 0
M  V30 5229 C 489.43 0.868386 -1.92412 0
M  V30 5230 O 488.778 1.76832 -1.44716 0
M  V30 5231 C 488.988 -1.3238 -3.22919 0
M  V30 5232 C 490.336 -1.45216 -3.98996 0
M  V30 5233 O 491.36 -1.2816 -3.32345 0
M  V30 5234 O 490.219 -1.72975 -5.18403 0
M  V30 5235 H 487.313 -0.227793 -0.795009 0
M  V30 5236 H 489.859 -1.13553 -1.2611 0
M  V30 5237 H 488.631 -2.36202 -3.11968 0
M  V30 5238 H 488.254 -0.829039 -3.88861 0
M  V30 5239 N 489.251 1.34841 -0.815825 0
M  V30 5240 C 490.662 1.80937 -0.46029 0
M  V30 5241 C 491.013 1.67685 1.01863 0
M  V30 5242 O 490.138 1.21277 1.79223 0
M  V30 5243 C 490.733 3.28509 -0.828708 0
M  V30 5244 C 489.292 3.72712 -0.525644 0
M  V30 5245 C 488.439 2.56676 -1.04941 0
M  V30 5246 H 491.39 1.22688 -1.00664 0
M  V30 5247 H 491.411 3.80279 -0.129757 0
M  V30 5248 H 490.923 3.38122 -1.90513 0
M  V30 5249 H 489.024 3.68642 0.541666 0
M  V30 5250 H 489.137 4.67119 -1.06474 0
M  V30 5251 H 487.501 2.50302 -0.471286 0
M  V30 5252 H 488.284 2.69063 -2.13214 0
M  V30 5253 N 490.729 0.570148 1.46925 0
M  V30 5254 C 491.978 0.0487352 2.01641 0
M  V30 5255 C 492.291 -1.31433 1.44861 0
M  V30 5256 O 493.497 -1.92638 1.91318 0
M  V30 5257 C 491.953 0.0365817 3.59881 0
M  V30 5258 C 491.561 1.39719 4.25655 0
M  V30 5259 C 493.305 -0.431545 4.22301 0
M  V30 5260 C 491.212 1.34345 5.75939 0
M  V30 5261 H 490.142 0.0144492 0.753862 0
M  V30 5262 H 492.793 0.719928 1.68788 0
M  V30 5263 H 491.175 -0.700522 3.89755 0
M  V30 5264 H 492.349 2.15303 4.07408 0
M  V30 5265 H 490.664 1.80431 3.75278 0
M  V30 5266 H 493.261 -0.490354 5.32447 0
M  V30 5267 H 493.604 -1.44638 3.90366 0
M  V30 5268 H 494.137 0.251102 3.97007 0
M  V30 5269 H 490.876 2.33469 6.12513 0
M  V30 5270 H 490.396 0.629615 5.96486 0
M  V30 5271 H 492.075 1.051 6.38407 0
M  V30 5272 N 492.207 -1.54576 0.307264 0
M  V30 5273 C 493.453 -2.01272 -0.293453 0
M  V30 5274 C 493.808 -1.19178 -1.51044 0
M  V30 5275 O 493.101 -0.261704 -1.89804 0
M  V30 5276 C 493.295 -3.50572 -0.695253 0
M  V30 5277 C 493.124 -4.47118 0.481249 0
M  V30 5278 C 491.894 -4.958 0.97524 0
M  V30 5279 C 494.092 -4.96853 1.32823 0
M  V30 5280 N 492.074 -5.76212 2.11785 0
M  V30 5281 C 493.445 -5.75028 2.31824 0
M  V30 5282 C 495.5 -4.79026 1.35788 0
M  V30 5283 C 494.203 -6.37276 3.33574 0
M  V30 5284 C 496.229 -5.42097 2.364 0
M  V30 5285 C 495.591 -6.2011 3.34129 0
M  V30 5286 H 491.69 -0.778709 -0.0716705 0
M  V30 5287 H 494.274 -1.89695 0.438602 0
M  V30 5288 H 492.445 -3.62427 -1.39647 0
M  V30 5289 H 494.177 -3.84056 -1.27604 0
M  V30 5290 H 490.932 -4.70405 0.549184 0
M  V30 5291 H 491.356 -6.21101 2.69375 0
M  V30 5292 H 495.998 -4.18288 0.616021 0
M  V30 5293 H 493.716 -6.97144 4.08676 0
M  V30 5294 H 497.302 -5.30229 2.39475 0
M  V30 5295 H 496.182 -6.68049 4.10707 0
M  V30 5296 N 493.685 -0.035106 -1.57561 0
M  V30 5297 C 494.648 0.929819 -2.09492 0
M  V30 5298 C 495.648 1.25026 -1.01119 0
M  V30 5299 O 496.838 1.18961 -1.27255 0
M  V30 5300 C 493.97 2.24457 -2.56577 0
M  V30 5301 H 495.163 0.479935 -2.96035 0
M  V30 5302 H 492.716 0.213033 -1.54841 0
M  V30 5303 H 493.451 2.74061 -1.73382 0
M  V30 5304 H 493.236 2.02508 -3.35757 0
M  V30 5305 H 494.726 2.93607 -2.96959 0
M  V30 5306 N 495.163 1.55791 0.238111 0
M  V30 5307 C 496.391 1.82098 0.982233 0
M  V30 5308 C 496.806 0.612025 1.78605 0
M  V30 5309 O 496.163 -0.419381 1.77616 0
M  V30 5310 C 496.214 3.0673 1.91309 0
M  V30 5311 O 495.935 4.2296 1.14179 0
M  V30 5312 C 497.436 3.45903 2.77248 0
M  V30 5313 H 494.656 0.605748 0.288635 0
M  V30 5314 H 497.2 2.02862 0.258341 0
M  V30 5315 H 495.355 2.87991 2.59114 0
M  V30 5316 H 495.769 4.93653 1.7722 0
M  V30 5317 H 497.243 4.36189 3.38295 0
M  V30 5318 H 497.72 2.66891 3.48806 0
M  V30 5319 H 498.326 3.67024 2.14881 0
M  V30 5320 N 496.642 -0.504142 1.49319 0
M  V30 5321 C 497.552 -1.63248 1.68486 0
M  V30 5322 C 498.568 -1.64488 0.567432 0
M  V30 5323 O 499.744 -1.82966 0.841749 0
M  V30 5324 C 496.809 -2.99627 1.74426 0
M  V30 5325 C 495.87 -3.09039 2.97982 0
M  V30 5326 C 495.103 -4.38913 3.0363 0
M  V30 5327 O 495.326 -5.27528 2.16958 0
M  V30 5328 O 494.26 -4.53231 3.96062 0
M  V30 5329 H 498.086 -1.50008 2.64067 0
M  V30 5330 H 495.671 -0.680086 1.33023 0
M  V30 5331 H 497.553 -3.80689 1.80705 0
M  V30 5332 H 496.228 -3.13136 0.820233 0
M  V30 5333 H 495.135 -2.27177 2.97223 0
M  V30 5334 H 496.468 -3.00456 3.89855 0
M  V30 5335 N 498.12 -1.38341 -0.754957 0
M  V30 5336 C 499.345 -1.37882 -1.5493 0
M  V30 5337 C 499.77 0.0296385 -1.88077 0
M  V30 5338 O 499.128 1.01133 -1.50472 0
M  V30 5339 C 499.176 -2.23996 -2.82592 0
M  V30 5340 O 498.28 -1.65612 -3.77686 0
M  V30 5341 H 497.621 -0.470384 -0.468652 0
M  V30 5342 H 500.151 -1.82084 -0.933082 0
M  V30 5343 H 500.161 -2.37806 -3.3153 0
M  V30 5344 H 498.836 -3.26365 -2.57796 0
M  V30 5345 H 497.413 -1.60936 -3.36384 0
M  V30 5346 N 499.598 0.982988 -1.23187 0
M  V30 5347 C 500.847 1.71817 -1.05649 0
M  V30 5348 C 501.16 1.91315 0.407176 0
M  V30 5349 O 502.366 2.62256 0.702436 0
M  V30 5350 C 500.822 3.09188 -1.84203 0
M  V30 5351 C 500.43 2.97586 -3.34882 0
M  V30 5352 C 502.174 3.86684 -1.75146 0
M  V30 5353 C 500.081 4.30173 -4.05839 0
M  V30 5354 H 499.011 0.644258 -0.391724 0
M  V30 5355 H 501.662 1.09659 -1.4713 0
M  V30 5356 H 500.044 3.72087 -1.35527 0
M  V30 5357 H 501.218 2.43793 -3.91026 0
M  V30 5358 H 499.533 2.33567 -3.44725 0
M  V30 5359 H 502.13 4.84836 -2.25473 0
M  V30 5360 H 502.473 4.10136 -0.713737 0
M  V30 5361 H 503.006 3.30482 -2.21419 0
M  V30 5362 H 499.745 4.11918 -5.09906 0
M  V30 5363 H 499.265 4.83841 -3.54482 0
M  V30 5364 H 500.944 4.98873 -4.11989 0
M  V30 5365 N 501.076 1.04316 1.18135 0
M  V30 5366 C 502.324 0.746542 1.87806 0
M  V30 5367 C 502.645 -0.728082 1.80898 0
M  V30 5368 O 501.915 -1.52554 1.22899 0
M  V30 5369 H 500.495 0.273157 0.695265 0
M  V30 5370 H 503.157 1.32044 1.43354 0
M  V30 5371 H 502.253 1.05362 2.93778 0
M  V30 5372 N 502.554 -1.34406 0.822964 0
M  V30 5373 C 503.802 -1.97892 0.410245 0
M  V30 5374 C 504.123 -1.65567 -1.03017 0
M  V30 5375 O 503.393 -0.94642 -1.71522 0
M  V30 5376 H 501.973 -0.732049 0.148707 0
M  V30 5377 H 504.635 -1.64043 1.05242 0
M  V30 5378 H 503.731 -3.07579 0.529284 0
M  V30 5379 N 504.032 -0.577932 -1.46621 0
M  V30 5380 C 504.965 0.206312 -2.27265 0
M  V30 5381 C 505.943 0.901306 -1.35334 0
M  V30 5382 O 507.127 0.916151 -1.64739 0
M  V30 5383 C 504.254 1.29563 -3.1294 0
M  V30 5384 C 503.3 0.706981 -4.206 0
M  V30 5385 S 504.133 -0.462459 -5.33499 0
M  V30 5386 C 505.289 0.628171 -6.2274 0
M  V30 5387 H 505.522 -0.477961 -2.93433 0
M  V30 5388 H 503.055 -0.364715 -1.50031 0
M  V30 5389 H 505.013 1.91935 -3.62865 0
M  V30 5390 H 503.674 1.95183 -2.46095 0
M  V30 5391 H 502.867 1.52565 -4.80354 0
M  V30 5392 H 502.469 0.159022 -3.73662 0
M  V30 5393 H 504.761 1.51506 -6.60342 0
M  V30 5394 H 505.704 0.0674961 -7.08068 0
M  V30 5395 H 506.112 0.930167 -5.56784 0
M  V30 5396 N 505.51 1.54411 -0.315457 0
M  V30 5397 C 506.758 2.00023 0.288971 0
M  V30 5398 C 507.079 1.20529 1.5329 0
M  V30 5399 O 506.349 0.304986 1.93511 0
M  V30 5400 H 504.929 0.738891 0.109766 0
M  V30 5401 H 507.591 1.90094 -0.430129 0
M  V30 5402 H 506.687 3.07198 0.550999 0
M  V30 5403 N 506.988 0.0434614 1.5754 0
M  V30 5404 C 507.918 -0.931651 2.14109 0
M  V30 5405 C 508.899 -1.32971 1.06079 0
M  V30 5406 O 510.084 -1.40579 1.33982 0
M  V30 5407 C 507.214 -2.20914 2.67982 0
M  V30 5408 C 506.168 -1.95139 3.80926 0
M  V30 5409 C 505.494 -3.29276 4.21285 0
M  V30 5410 C 506.794 -1.27913 5.06395 0
M  V30 5411 H 508.488 -0.460497 2.95837 0
M  V30 5412 H 506.034 -0.220058 1.42309 0
M  V30 5413 H 507.987 -2.89522 3.06194 0
M  V30 5414 H 506.711 -2.70221 1.83434 0
M  V30 5415 H 505.37 -1.28945 3.43175 0
M  V30 5416 H 505.018 -3.76369 3.33699 0
M  V30 5417 H 504.718 -3.12831 4.97404 0
M  V30 5418 H 506.242 -3.99129 4.62091 0
M  V30 5419 H 507.656 -1.86544 5.42102 0
M  V30 5420 H 506.053 -1.2182 5.87605 0
M  V30 5421 H 507.123 -0.254066 4.84234 0
M  V30 5422 N 508.466 -1.55915 -0.229846 0
M  V30 5423 C 509.743 -1.6932 -0.979295 0
M  V30 5424 C 510.123 -0.588321 -2.02736 0
M  V30 5425 O 509.471 0.40586 -2.24867 0
M  V30 5426 C 509.681 -3.10305 -1.59724 0
M  V30 5427 C 511.029 -3.6945 -2.09264 0
M  V30 5428 O 512.053 -3.13214 -1.69633 0
M  V30 5429 O 510.912 -4.68072 -2.82082 0
M  V30 5430 H 508.006 -0.689314 -0.456919 0
M  V30 5431 H 510.552 -1.68238 -0.222283 0
M  V30 5432 H 509.324 -3.82177 -0.840039 0
M  V30 5433 H 508.947 -3.1547 -2.42001 0
M  V30 5434 N 509.944 0.496216 -1.49584 0
M  V30 5435 C 511.192 1.24756 -1.58998 0
M  V30 5436 C 511.513 1.92968 -0.280775 0
M  V30 5437 O 510.783 1.82959 0.700198 0
M  V30 5438 H 509.363 0.463471 -0.585836 0
M  V30 5439 H 512.025 0.574678 -1.86235 0
M  V30 5440 H 511.121 2.00895 -2.38847 0
M  V30 5441 N 511.423 1.38739 0.74761 0
M  V30 5442 C 512.839 1.20067 1.05148 0
M  V30 5443 C 513.039 0.0534835 2.01429 0
M  V30 5444 O 512.095 -0.59886 2.45296 0
M  V30 5445 C 513.408 2.52957 1.62584 0
M  V30 5446 C 514.956 2.59692 1.74726 0
M  V30 5447 C 515.431 3.92772 2.35573 0
M  V30 5448 N 516.922 3.94343 2.42997 0
M  V30 5449 C 517.657 4.9408 2.90985 0
M  V30 5450 N 517.153 6.04214 3.38965 0
M  V30 5451 N 518.946 4.81466 2.9008 0
M  V30 5452 H 511.097 2.12121 0.108808 0
M  V30 5453 H 513.36 0.941491 0.110899 0
M  V30 5454 H 513.066 3.37389 0.993051 0
M  V30 5455 H 512.94 2.71779 2.61565 0
M  V30 5456 H 515.327 1.75651 2.3713 0
M  V30 5457 H 515.408 2.44731 0.744326 0
M  V30 5458 H 515.052 4.77238 1.738 0
M  V30 5459 H 514.982 4.05046 3.36519 0
M  V30 5460 H 517.473 3.14799 2.0907 0
M  V30 5461 H 517.786 6.76241 3.74056 0
M  V30 5462 H 516.131 6.07825 3.37007 0
M  V30 5463 H 519.322 3.94535 2.51912 0
M  V30 5464 H 519.495 5.59344 3.27166 0
M  V30 5465 N 512.901 -0.976442 1.23707 0
M  V30 5466 C 514.129 -1.75341 1.09833 0
M  V30 5467 C 514.544 -1.8553 -0.349885 0
M  V30 5468 O 513.901 -1.33732 -1.24185 0
M  V30 5469 C 513.952 -3.17833 1.72233 0
M  V30 5470 O 513.673 -3.08167 3.11391 0
M  V30 5471 C 515.174 -4.11906 1.63853 0
M  V30 5472 H 512.394 -0.550137 0.384175 0
M  V30 5473 H 514.938 -1.2265 1.63638 0
M  V30 5474 H 513.093 -3.67538 1.22452 0
M  V30 5475 H 513.507 -3.97897 3.41729 0
M  V30 5476 H 514.981 -5.09579 2.12211 0
M  V30 5477 H 515.458 -4.35109 0.598092 0
M  V30 5478 H 516.064 -3.68107 2.13019 0
M  V30 5479 N 514.379 -1.04941 -1.1758 0
M  V30 5480 C 515.309 -0.669172 -2.23706 0
M  V30 5481 C 516.29 0.331835 -1.66832 0
M  V30 5482 O 517.475 0.209988 -1.93061 0
M  V30 5483 C 514.605 -0.0404889 -3.47276 0
M  V30 5484 C 513.559 -0.965983 -4.16957 0
M  V30 5485 C 512.885 -0.201312 -5.34321 0
M  V30 5486 C 514.185 -2.28902 -4.69469 0
M  V30 5487 H 515.879 -1.55639 -2.55767 0
M  V30 5488 H 513.425 -0.749793 -1.22939 0
M  V30 5489 H 515.378 0.237298 -4.20731 0
M  V30 5490 H 514.102 0.881658 -3.14475 0
M  V30 5491 H 512.761 -1.22829 -3.45411 0
M  V30 5492 H 512.409 0.723519 -4.97769 0
M  V30 5493 H 512.109 -0.817968 -5.81879 0
M  V30 5494 H 513.633 0.0692499 -6.10561 0
M  V30 5495 H 515.047 -2.07132 -5.34574 0
M  V30 5496 H 513.444 -2.85942 -5.27596 0
M  V30 5497 H 514.514 -2.92937 -3.86414 0
M  V30 5498 N 515.857 1.33968 -0.830081 0
M  V30 5499 C 517.103 1.98357 -0.422191 0
M  V30 5500 C 517.436 1.65633 1.01387 0
M  V30 5501 O 516.711 0.931648 1.70735 0
M  V30 5502 C 516.994 3.54492 -0.633043 0
M  V30 5503 C 516.847 3.96934 -2.11574 0
M  V30 5504 C 518.166 4.40039 -0.0735584 0
M  V30 5505 H 515.285 0.720544 -0.154871 0
M  V30 5506 H 517.927 1.58749 -1.04397 0
M  V30 5507 H 516.077 3.88361 -0.103775 0
M  V30 5508 H 517.749 3.73363 -2.7092 0
M  V30 5509 H 515.992 3.46984 -2.60354 0
M  V30 5510 H 516.663 5.05651 -2.21406 0
M  V30 5511 H 519.139 4.12764 -0.52585 0
M  V30 5512 H 518.015 5.48327 -0.250841 0
M  V30 5513 H 518.276 4.30124 1.02202 0
M  V30 5514 N 517.335 0.585699 1.46312 0
M  V30 5515 C 518.563 0.0781299 2.06752 0
M  V30 5516 C 518.978 -1.22812 1.43396 0
M  V30 5517 O 518.335 -1.74318 0.540314 0
M  V30 5518 C 518.386 -0.0911927 3.61385 0
M  V30 5519 O 518.107 1.16336 4.22371 0
M  V30 5520 C 519.608 -0.632765 4.38761 0
M  V30 5521 H 516.828 0.0588188 0.668417 0
M  V30 5522 H 519.372 0.807218 1.87894 0
M  V30 5523 H 517.527 -0.770514 3.7966 0
M  V30 5524 H 517.941 0.979082 5.15281 0
M  V30 5525 H 519.415 -0.70041 5.47538 0
M  V30 5526 H 519.892 -1.65039 4.07012 0
M  V30 5527 H 520.498 0.0117856 4.25298 0
M  V30 5528 N 518.813 -1.54241 0.323641 0
M  V30 5529 C 519.76 -2.24339 -0.542277 0
M  V30 5530 C 520.73 -1.23421 -1.11159 0
M  V30 5531 O 521.915 -1.52104 -1.15192 0
M  V30 5532 C 519.055 -3.00479 -1.69725 0
M  V30 5533 C 518.168 -4.16214 -1.15716 0
M  V30 5534 C 517.303 -4.79884 -2.27783 0
M  V30 5535 C 516.342 -5.87722 -1.71023 0
M  V30 5536 N 515.479 -6.45254 -2.76752 0
M  V30 5537 H 520.319 -2.97935 0.0620613 0
M  V30 5538 H 517.856 -1.47039 0.0423993 0
M  V30 5539 H 519.814 -3.42869 -2.3769 0
M  V30 5540 H 518.444 -2.29217 -2.27288 0
M  V30 5541 H 517.496 -3.78605 -0.369063 0
M  V30 5542 H 518.808 -4.93838 -0.701832 0
M  V30 5543 H 517.962 -5.25243 -3.03651 0
M  V30 5544 H 516.701 -4.01641 -2.76652 0
M  V30 5545 H 515.706 -5.41765 -0.936518 0
M  V30 5546 H 516.931 -6.67863 -1.2303 0
M  V30 5547 H 514.877 -5.69884 -3.24912 0
M  V30 5548 H 514.794 -7.18292 -2.35782 0
M  V30 5549 H 516.062 -6.95269 -3.5245 0
M  V30 5550 N 520.291 -0.0518155 -1.57515 0
M  V30 5551 C 521.239 0.940195 -2.12751 0
M  V30 5552 C 522.233 1.3218 -1.05948 0
M  V30 5553 O 523.439 1.30138 -1.24355 0
M  V30 5554 H 519.814 0.321066 -0.680015 0
M  V30 5555 H 521.785 0.449217 -2.94999 0
M  V30 5556 C 520.534 2.2055 -2.68799 0
M  V30 5557 H 519.857 1.92066 -3.50643 0
M  V30 5558 H 521.297 2.88119 -3.11068 0
M  V30 5559 C 519.756 2.95061 -1.62605 0
M  V30 5560 O 520.286 3.88025 -1.03921 0
M  V30 5561 N 518.492 2.57804 -1.34111 0
M  V30 5562 H 518.039 1.82281 -1.8202 0
M  V30 5563 H 517.997 3.07964 -0.632872 0
M  V30 5564 N 521.769 1.56035 0.221574 0
M  V30 5565 C 522.994 1.83476 0.967026 0
M  V30 5566 C 523.419 0.632139 1.7716 0
M  V30 5567 O 522.777 -0.419082 1.7639 0
M  V30 5568 C 522.825 3.08907 1.86034 0
M  V30 5569 O 521.929 2.876 2.95567 0
M  V30 5570 H 521.27 0.604913 0.273817 0
M  V30 5571 H 523.8 2.03247 0.234893 0
M  V30 5572 H 523.81 3.3901 2.27016 0
M  V30 5573 H 522.485 3.96068 1.26898 0
M  V30 5574 H 521.062 2.6873 2.58532 0
M  V30 5575 N 523.247 -0.488276 1.49845 0
M  V30 5576 C 524.494 -1.24157 1.59973 0
M  V30 5577 C 524.822 -1.92293 0.292182 0
M  V30 5578 O 524.077 -1.81942 -0.720813 0
M  V30 5579 C 524.376 -2.32152 2.71735 0
M  V30 5580 C 524.042 -1.81387 4.12807 0
M  V30 5581 C 522.704 -1.67262 4.51195 0
M  V30 5582 C 525.056 -1.43537 5.01045 0
M  V30 5583 C 522.384 -1.13685 5.7558 0
M  V30 5584 C 524.736 -0.914081 6.25961 0
M  V30 5585 C 523.4 -0.759327 6.63167 0
M  V30 5586 H 522.67 -0.454322 0.585383 0
M  V30 5587 H 525.317 -0.540261 1.83721 0
M  V30 5588 H 523.622 -3.08122 2.42008 0
M  V30 5589 H 525.319 -2.90164 2.76778 0
M  V30 5590 H 521.909 -1.93344 3.82513 0
M  V30 5591 H 526.093 -1.53292 4.72033 0
M  V30 5592 H 521.349 -1.00426 6.03096 0
M  V30 5593 H 525.523 -0.612066 6.93705 0
M  V30 5594 H 523.15 -0.342002 7.5943 0
M  V30 5595 N 524.725 -1.39134 -0.740242 0
M  V30 5596 C 526.141 -1.20623 -1.0451 0
M  V30 5597 C 526.341 -0.0641651 -2.01398 0
M  V30 5598 O 525.397 0.585843 -2.4561 0
M  V30 5599 C 526.71 -2.53815 -1.6124 0
M  V30 5600 C 528.258 -2.60615 -1.73346 0
M  V30 5601 C 528.733 -3.94015 -2.33486 0
M  V30 5602 N 530.224 -3.95627 -2.40902 0
M  V30 5603 C 530.959 -4.95616 -2.88361 0
M  V30 5604 N 530.455 -6.06003 -3.35756 0
M  V30 5605 N 532.248 -4.82998 -2.87523 0
M  V30 5606 H 524.399 -2.12176 -0.0975576 0
M  V30 5607 H 526.662 -0.942066 -0.105904 0
M  V30 5608 H 526.368 -3.37911 -0.975144 0
M  V30 5609 H 526.242 -2.73162 -2.6012 0
M  V30 5610 H 528.629 -1.76906 -2.36195 0
M  V30 5611 H 528.71 -2.45123 -0.731336 0
M  V30 5612 H 528.354 -4.78153 -1.71267 0
M  V30 5613 H 528.284 -4.06825 -3.34366 0
M  V30 5614 H 530.775 -3.15903 -2.07398 0
M  V30 5615 H 531.088 -6.78215 -3.70464 0
M  V30 5616 H 529.433 -6.09604 -3.33778 0
M  V30 5617 H 532.624 -3.95866 -2.49816 0
M  V30 5618 H 532.797 -5.61072 -3.24196 0
M  V30 5619 N 526.204 0.969867 -1.24223 0
M  V30 5620 C 527.451 1.71256 -1.08063 0
M  V30 5621 C 527.779 1.90734 0.380872 0
M  V30 5622 O 527.034 1.46469 1.29789 0
M  V30 5623 C 527.333 3.10883 -1.76314 0
M  V30 5624 C 526.999 3.11252 -3.26241 0
M  V30 5625 C 525.661 3.1106 -3.67144 0
M  V30 5626 C 528.013 3.05751 -4.22097 0
M  V30 5627 C 525.341 3.03097 -5.02344 0
M  V30 5628 C 527.693 2.9933 -5.57301 0
M  V30 5629 C 526.357 2.97466 -5.97554 0
M  V30 5630 H 525.627 0.62667 -0.395431 0
M  V30 5631 H 528.274 1.13422 -1.54297 0
M  V30 5632 H 526.579 3.72168 -1.22468 0
M  V30 5633 H 528.276 3.67138 -1.61277 0
M  V30 5634 H 524.866 3.12165 -2.93685 0
M  V30 5635 H 529.05 3.05031 -3.91497 0
M  V30 5636 H 524.306 3.00013 -5.32731 0
M  V30 5637 H 528.48 2.94033 -6.31283 0
M  V30 5638 H 526.107 2.91051 -7.02277 0
M  V30 5639 N 527.682 1.05563 1.17022 0
M  V30 5640 C 528.612 0.681026 2.23348 0
M  V30 5641 C 529.593 -0.322983 1.67005 0
M  V30 5642 O 530.778 -0.199746 1.9317 0
M  V30 5643 C 527.908 0.0589053 3.4725 0
M  V30 5644 C 526.862 0.988082 4.16438 0
M  V30 5645 C 526.188 0.229646 5.34207 0
M  V30 5646 C 527.488 2.31388 4.68249 0
M  V30 5647 H 529.182 1.56993 2.54938 0
M  V30 5648 H 526.728 0.756302 1.2254 0
M  V30 5649 H 528.681 -0.214982 4.20851 0
M  V30 5650 H 527.405 -0.864968 3.14938 0
M  V30 5651 H 526.064 1.24659 3.44754 0
M  V30 5652 H 525.712 -0.697111 4.98146 0
M  V30 5653 H 525.412 0.848815 5.81437 0
M  V30 5654 H 526.936 -0.0368694 6.10589 0
M  V30 5655 H 528.35 2.09964 5.33468 0
M  V30 5656 H 526.747 2.88736 5.26072 0
M  V30 5657 H 527.817 2.94982 3.84855 0
M  V30 5658 N 529.16 -1.33526 0.837174 0
M  V30 5659 C 530.108 -2.31168 0.257698 0
M  V30 5660 C 531.102 -1.5806 -0.609388 0
M  V30 5661 O 532.308 -1.72941 -0.499139 0
M  V30 5662 H 528.683 -0.74922 0.0646058 0
M  V30 5663 H 530.654 -2.77552 1.09578 0
M  V30 5664 C 529.403 -3.4326 -0.553887 0
M  V30 5665 H 528.726 -3.99665 0.104008 0
M  V30 5666 H 530.166 -4.13782 -0.925219 0
M  V30 5667 C 528.625 -2.88965 -1.73207 0
M  V30 5668 O 529.155 -2.85013 -2.83073 0
M  V30 5669 N 527.361 -2.45596 -1.55342 0
M  V30 5670 H 526.908 -2.49009 -0.659705 0
M  V30 5671 H 526.866 -2.0962 -2.34322 0
M  V30 5672 N 530.638 -0.59345 -1.46 0
M  V30 5673 C 531.866 -0.0890934 -2.06708 0
M  V30 5674 C 532.281 1.2205 -1.44046 0
M  V30 5675 O 531.638 1.74029 -0.549551 0
M  V30 5676 C 531.689 0.0720263 -3.61428 0
M  V30 5677 O 531.41 -1.18574 -4.21748 0
M  V30 5678 C 532.911 0.609487 -4.3909 0
M  V30 5679 H 530.131 -0.0623628 -0.668096 0
M  V30 5680 H 532.675 -0.817171 -1.87464 0
M  V30 5681 H 530.83 0.750369 -3.80063 0
M  V30 5682 H 531.244 -1.0064 -5.14754 0
M  V30 5683 H 532.718 0.671363 -5.47902 0
M  V30 5684 H 533.195 1.62878 -4.07882 0
M  V30 5685 H 533.801 -0.03434 -4.25286 0
M  V30 5686 N 532.116 1.54067 -0.331816 0
M  V30 5687 C 533.046 2.27569 0.522932 0
M  V30 5688 C 534.027 1.28679 1.11247 0
M  V30 5689 O 535.212 1.57504 1.13605 0
M  V30 5690 C 532.342 3.0397 1.67987 0
M  V30 5691 C 531.296 4.10267 1.21924 0
M  V30 5692 C 530.622 4.74555 2.46377 0
M  V30 5693 C 531.922 5.21268 0.32815 0
M  V30 5694 H 533.616 2.99264 -0.0901977 0
M  V30 5695 H 531.162 1.4393 -0.044821 0
M  V30 5696 H 533.115 3.54123 2.28418 0
M  V30 5697 H 531.839 2.29906 2.31971 0
M  V30 5698 H 530.498 3.61009 0.637809 0
M  V30 5699 H 530.146 3.97098 3.08743 0
M  V30 5700 H 529.846 5.46363 2.16243 0
M  V30 5701 H 531.37 5.27487 3.07555 0
M  V30 5702 H 532.784 5.67128 0.838978 0
M  V30 5703 H 531.181 5.99982 0.119228 0
M  V30 5704 H 532.251 4.80673 -0.638839 0
M  V30 5705 N 533.594 0.0601682 1.57485 0
M  V30 5706 C 534.824 -0.620037 1.97076 0
M  V30 5707 C 535.232 -1.64381 0.936784 0
M  V30 5708 O 534.575 -1.83497 -0.0863377 0
M  V30 5709 C 534.637 -1.35617 3.32939 0
M  V30 5710 C 534.301 -0.487208 4.54396 0
M  V30 5711 C 535.298 0.250428 5.19297 0
M  V30 5712 C 532.983 -0.415494 5.00579 0
M  V30 5713 C 534.977 1.04812 6.28723 0
M  V30 5714 C 532.664 0.385879 6.0988 0
M  V30 5715 C 533.662 1.11637 6.73815 0
M  V30 5716 O 533.35 1.90454 7.81014 0
M  V30 5717 H 533.082 -0.173664 0.653312 0
M  V30 5718 H 535.636 0.1256 2.05016 0
M  V30 5719 H 533.866 -2.14763 3.2158 0
M  V30 5720 H 535.555 -1.92749 3.57215 0
M  V30 5721 H 536.321 0.204546 4.84568 0
M  V30 5722 H 532.2 -0.973679 4.506 0
M  V30 5723 H 535.744 1.6188 6.78558 0
M  V30 5724 H 531.641 0.433366 6.44044 0
M  V30 5725 H 532.409 1.82762 7.97835 0
M  V30 5726 N 535.072 -1.5615 -0.213296 0
M  V30 5727 C 536.3 -1.83638 -0.953139 0
M  V30 5728 C 536.715 -0.640362 -1.77609 0
M  V30 5729 O 536.072 0.391071 -1.78261 0
M  V30 5730 C 536.123 -3.09735 -1.86405 0
M  V30 5731 O 535.844 -4.24723 -1.07435 0
M  V30 5732 C 537.345 -3.5027 -2.71709 0
M  V30 5733 H 534.565 -0.610263 -0.278962 0
M  V30 5734 H 537.109 -2.03247 -0.226035 0
M  V30 5735 H 535.264 -2.92077 -2.545 0
M  V30 5736 H 535.678 -4.9641 -1.69343 0
M  V30 5737 H 537.152 -4.41515 -3.31313 0
M  V30 5738 H 537.629 -2.72406 -3.44516 0
M  V30 5739 H 538.235 -3.70396 -2.09015 0
M  V30 5740 N 536.55 0.480323 -1.50102 0
M  V30 5741 C 537.483 1.59789 -1.62919 0
M  V30 5742 C 538.461 1.55429 -0.477557 0
M  V30 5743 O 539.645 1.75186 -0.695851 0
M  V30 5744 C 536.772 2.98351 -1.60325 0
M  V30 5745 C 535.818 3.20899 -2.80938 0
M  V30 5746 S 536.651 3.01791 -4.4236 0
M  V30 5747 C 537.807 4.42712 -4.42444 0
M  V30 5748 H 538.04 1.48676 -2.57454 0
M  V30 5749 H 535.573 0.666996 -1.3925 0
M  V30 5750 H 537.531 3.7824 -1.59514 0
M  V30 5751 H 536.192 3.06862 -0.670419 0
M  V30 5752 H 535.385 4.22102 -2.75401 0
M  V30 5753 H 534.987 2.48768 -2.79268 0
M  V30 5754 H 537.279 5.3518 -4.15438 0
M  V30 5755 H 538.222 4.53294 -5.43995 0
M  V30 5756 H 538.63 4.24359 -3.72263 0
M  V30 5757 N 538.028 1.39524 0.732853 0
M  V30 5758 C 539.276 1.36594 1.48951 0
M  V30 5759 C 539.597 -0.0367507 1.94965 0
M  V30 5760 O 538.867 -0.988391 1.69138 0
M  V30 5761 H 537.447 0.502673 0.552566 0
M  V30 5762 H 540.109 1.74411 0.869869 0
M  V30 5763 H 539.205 2.03 2.3706 0
M  V30 5764 N 539.506 -0.963266 1.24736 0
M  V30 5765 C 540.917 -1.52145 1.08207 0
M  V30 5766 C 541.268 -1.93142 -0.345061 0
M  V30 5767 O 540.393 -1.77769 -1.23399 0
M  V30 5768 C 540.988 -2.76486 1.95808 0
M  V30 5769 C 539.547 -3.28646 1.8349 0
M  V30 5770 C 538.694 -2.01529 1.90476 0
M  V30 5771 H 541.645 -0.781083 1.38148 0
M  V30 5772 H 541.666 -3.49986 1.49297 0
M  V30 5773 H 541.178 -2.46617 2.99669 0
M  V30 5774 H 539.279 -3.63357 0.824787 0
M  V30 5775 H 539.392 -3.97246 2.67829 0
M  V30 5776 H 537.756 -2.16442 1.34258 0
M  V30 5777 H 538.539 -1.7402 2.95926 0
M  V30 5778 N 540.985 -1.06182 -1.16461 0
M  V30 5779 C 542.21 -0.798599 -1.91408 0
M  V30 5780 C 542.635 0.640987 -1.76842 0
M  V30 5781 O 541.993 1.44652 -1.09296 0
M  V30 5782 C 542.041 -1.19665 -3.40165 0
M  V30 5783 O 541.145 -0.334768 -4.11039 0
M  V30 5784 H 540.486 -0.291961 -0.596368 0
M  V30 5785 H 543.016 -1.41732 -1.47557 0
M  V30 5786 H 543.026 -1.16772 -3.90933 0
M  V30 5787 H 541.701 -2.24526 -3.50087 0
M  V30 5788 H 540.278 -0.425168 -3.70468 0
M  V30 5789 N 542.463 1.3308 -0.844243 0
M  V30 5790 C 543.874 1.7992 -0.498566 0
M  V30 5791 C 544.225 1.69808 0.982834 0
M  V30 5792 O 543.35 1.25051 1.7661 0
M  V30 5793 C 543.945 3.26677 -0.898204 0
M  V30 5794 C 542.504 3.71513 -0.604583 0
M  V30 5795 C 541.651 2.54393 -1.10362 0
M  V30 5796 H 544.602 1.20526 -1.03244 0
M  V30 5797 H 544.623 3.79918 -0.21039 0
M  V30 5798 H 544.135 3.34004 -1.97643 0
M  V30 5799 H 542.236 3.69708 0.46335 0
M  V30 5800 H 542.349 4.64755 -1.16358 0
M  V30 5801 H 540.713 2.49246 -0.524273 0
M  V30 5802 H 541.496 2.6448 -2.18873 0
M  V30 5803 N 543.941 0.601185 1.45683 0
M  V30 5804 C 544.851 -0.123395 2.34275 0
M  V30 5805 C 545.867 -0.86702 1.5086 0
M  V30 5806 O 547.043 -0.826049 1.8368 0
M  V30 5807 C 544.108 -1.11237 3.2837 0
M  V30 5808 C 543.169 -0.371405 4.2769 0
M  V30 5809 C 542.402 -1.31327 5.1729 0
M  V30 5810 O 542.625 -2.55078 5.10188 0
M  V30 5811 O 541.559 -0.813811 5.96373 0
M  V30 5812 H 545.385 0.604483 2.97623 0
M  V30 5813 H 542.97 0.361477 1.44961 0
M  V30 5814 H 544.852 -1.68214 3.8637 0
M  V30 5815 H 543.527 -1.82139 2.67595 0
M  V30 5816 H 542.434 0.24067 3.73325 0
M  V30 5817 H 543.767 0.296998 4.91303 0
M  V30 5818 N 545.419 -1.53889 0.339982 0
M  V30 5819 C 546.83 -1.86139 -0.144671 0
M  V30 5820 C 547.181 -1.2613 -1.50285 0
M  V30 5821 O 546.306 -0.573515 -2.08662 0
M  V30 5822 C 546.901 -3.37728 -0.269285 0
M  V30 5823 C 545.46 -3.69868 -0.698168 0
M  V30 5824 C 544.607 -2.76777 0.170249 0
M  V30 5825 H 547.558 -1.48503 0.559704 0
M  V30 5826 H 547.579 -3.64331 -1.0974 0
M  V30 5827 H 547.091 -3.81375 0.719366 0
M  V30 5828 H 545.192 -3.31764 -1.69597 0
M  V30 5829 H 545.305 -4.76582 -0.490533 0
M  V30 5830 H 543.669 -2.52188 -0.356844 0
M  V30 5831 H 544.452 -3.23253 1.15597 0
M  V30 5832 N 546.897 -0.0685191 -1.57451 0
M  V30 5833 C 547.845 0.917577 -2.13736 0
M  V30 5834 C 548.839 1.31049 -1.07344 0
M  V30 5835 O 550.045 1.28811 -1.25728 0
M  V30 5836 H 546.42 0.313835 -0.683382 0
M  V30 5837 H 548.391 0.417903 -2.95459 0
M  V30 5838 C 547.14 2.17686 -2.71123 0
M  V30 5839 H 546.463 1.88336 -3.52661 0
M  V30 5840 H 547.903 2.84803 -3.14107 0
M  V30 5841 C 546.362 2.9332 -1.65726 0
M  V30 5842 O 546.892 3.86901 -1.08031 0
M  V30 5843 N 545.098 2.56367 -1.36837 0
M  V30 5844 H 544.645 1.80341 -1.83943 0
M  V30 5845 H 544.603 3.07276 -0.665501 0
M  V30 5846 N 548.375 1.56261 0.205012 0
M  V30 5847 C 549.308 1.88797 1.28183 0
M  V30 5848 C 550.286 0.747018 1.44424 0
M  V30 5849 O 551.47 0.997039 1.59973 0
M  V30 5850 C 548.597 2.10949 2.64987 0
M  V30 5851 C 547.643 3.33649 2.6567 0
M  V30 5852 S 548.476 4.89078 2.18088 0
M  V30 5853 C 549.632 5.14286 3.56736 0
M  V30 5854 H 549.865 2.79837 1.00393 0
M  V30 5855 H 547.398 1.48911 0.408042 0
M  V30 5856 H 549.356 2.24395 3.4374 0
M  V30 5857 H 548.017 1.20678 2.89993 0
M  V30 5858 H 547.21 3.46245 3.66239 0
M  V30 5859 H 546.812 3.19146 1.94992 0
M  V30 5860 H 549.104 5.04198 4.52537 0
M  V30 5861 H 550.047 6.16096 3.49043 0
M  V30 5862 H 550.455 4.41957 3.51189 0
M  V30 5863 N 549.853 -0.472356 1.50355 0
M  V30 5864 C 551.081 -1.24784 1.65035 0
M  V30 5865 C 551.496 -1.85837 0.333176 0
M  V30 5866 O 550.853 -1.69168 -0.68472 0
M  V30 5867 C 550.904 -2.35747 2.74054 0
M  V30 5868 O 550.625 -1.77197 4.00665 0
M  V30 5869 C 552.126 -3.26645 2.99696 0
M  V30 5870 H 549.346 -0.377432 0.554785 0
M  V30 5871 H 551.89 -0.563962 1.9657 0
M  V30 5872 H 550.045 -2.99912 2.45217 0
M  V30 5873 H 550.459 -2.5026 4.60945 0
M  V30 5874 H 551.933 -4.00718 3.79644 0
M  V30 5875 H 552.41 -3.8535 2.10718 0
M  V30 5876 H 553.016 -2.68218 3.3006 0
M  V30 5877 N 551.331 -1.39911 -0.725443 0
M  V30 5878 C 552.58 -1.36963 -1.48068 0
M  V30 5879 C 552.893 0.0284478 -1.95579 0
M  V30 5880 O 554.099 0.180535 -2.70899 0
M  V30 5881 C 552.555 -2.40664 -2.67598 0
M  V30 5882 C 552.163 -3.86234 -2.26997 0
M  V30 5883 C 553.907 -2.46807 -3.45379 0
M  V30 5884 C 551.814 -4.81554 -3.43307 0
M  V30 5885 H 550.744 -0.509223 -0.556065 0
M  V30 5886 H 553.395 -1.65602 -0.790454 0
M  V30 5887 H 551.777 -2.05109 -3.38742 0
M  V30 5888 H 552.951 -4.3088 -1.63337 0
M  V30 5889 H 551.266 -3.83475 -1.62284 0
M  V30 5890 H 553.863 -3.15213 -4.31909 0
M  V30 5891 H 554.206 -1.49552 -3.8851 0
M  V30 5892 H 554.739 -2.81303 -2.81271 0
M  V30 5893 H 551.478 -5.80106 -3.05217 0
M  V30 5894 H 550.998 -4.4158 -4.05915 0
M  V30 5895 H 552.677 -5.0091 -4.0951 0
M  V30 5896 N 552.809 0.956637 -1.25245 0
M  V30 5897 C 553.739 2.07058 -1.07931 0
M  V30 5898 C 554.72 1.70096 0.0110361 0
M  V30 5899 O 555.905 1.93555 -0.158121 0
M  V30 5900 C 553.035 3.40272 -0.695124 0
M  V30 5901 C 551.989 3.91235 -1.73549 0
M  V30 5902 C 551.315 5.20921 -1.20604 0
M  V30 5903 C 552.615 4.17837 -3.13385 0
M  V30 5904 H 554.309 2.218 -2.01109 0
M  V30 5905 H 551.855 1.06581 -0.968326 0
M  V30 5906 H 553.808 4.1765 -0.560949 0
M  V30 5907 H 552.532 3.25462 0.272355 0
M  V30 5908 H 551.191 3.16025 -1.85807 0
M  V30 5909 H 550.839 5.02479 -0.228846 0
M  V30 5910 H 550.539 5.55987 -1.90136 0
M  V30 5911 H 552.063 6.00897 -1.08421 0
M  V30 5912 H 553.477 4.8588 -3.04292 0
M  V30 5913 H 551.874 4.64154 -3.80369 0
M  V30 5914 H 552.944 3.2419 -3.60595 0
M  V30 5915 N 554.287 1.06798 1.15896 0
M  V30 5916 C 555.533 0.798757 1.8706 0
M  V30 5917 C 555.888 -0.667739 1.80441 0
M  V30 5918 O 555.181 -1.48334 1.21274 0
M  V30 5919 C 555.375 1.23414 3.35416 0
M  V30 5920 C 555.204 2.74142 3.56478 0
M  V30 5921 C 553.974 3.41675 3.72272 0
M  V30 5922 C 556.172 3.72348 3.5477 0
M  V30 5923 N 554.154 4.81101 3.81333 0
M  V30 5924 C 555.525 4.97585 3.69877 0
M  V30 5925 C 557.58 3.65585 3.38011 0
M  V30 5926 C 556.283 6.16866 3.69959 0
M  V30 5927 C 558.309 4.84323 3.39389 0
M  V30 5928 C 557.671 6.08391 3.5502 0
M  V30 5929 H 553.77 0.344761 0.7019 0
M  V30 5930 H 556.354 1.36314 1.3902 0
M  V30 5931 H 554.525 0.697522 3.82085 0
M  V30 5932 H 556.257 0.91304 3.94266 0
M  V30 5933 H 553.012 2.92078 3.7281 0
M  V30 5934 H 553.436 5.53647 3.8962 0
M  V30 5935 H 558.078 2.70615 3.2485 0
M  V30 5936 H 555.796 7.12164 3.819 0
M  V30 5937 H 559.382 4.80762 3.27658 0
M  V30 5938 H 558.262 6.98731 3.56012 0
M  V30 5939 N 555.766 -1.3263 0.851289 0
M  V30 5940 C 556.991 -2.02097 0.466006 0
M  V30 5941 C 557.416 -1.63574 -0.928709 0
M  V30 5942 O 556.774 -0.834665 -1.60944 0
M  V30 5943 C 556.822 -3.55425 0.608737 0
M  V30 5944 O 555.926 -4.10827 -0.359878 0
M  V30 5945 H 555.267 -0.636911 0.187724 0
M  V30 5946 H 557.797 -1.69253 1.14955 0
M  V30 5947 H 557.807 -4.04986 0.495006 0
M  V30 5948 H 556.482 -3.82806 1.62581 0
M  V30 5949 H 555.059 -3.72349 -0.202666 0
M  V30 5950 N 557.244 -0.608902 -1.45362 0
M  V30 5951 C 558.154 0.110969 -2.34337 0
M  V30 5952 C 559.17 0.859007 -1.51318 0
M  V30 5953 O 560.346 0.816296 -1.84116 0
M  V30 5954 C 557.411 1.09494 -3.28956 0
M  V30 5955 C 556.472 0.348718 -4.27881 0
M  V30 5956 C 555.705 1.28582 -5.17979 0
M  V30 5957 O 555.928 2.52369 -5.11533 0
M  V30 5958 O 554.862 0.782172 -5.96796 0
M  V30 5959 H 558.688 -0.620258 -2.97299 0
M  V30 5960 H 556.273 -0.36916 -1.44767 0
M  V30 5961 H 558.155 1.66163 -3.87257 0
M  V30 5962 H 556.83 1.80717 -2.68557 0
M  V30 5963 H 555.737 -0.260465 -3.73192 0
M  V30 5964 H 557.07 -0.323049 -4.91139 0
M  V30 5965 N 558.722 1.53707 -0.348139 0
M  V30 5966 C 559.669 2.25173 0.506518 0
M  V30 5967 C 560.639 1.25174 1.09182 0
M  V30 5968 O 561.824 1.53917 1.12757 0
M  V30 5969 C 558.964 3.03141 1.64923 0
M  V30 5970 C 558.077 4.18002 1.0908 0
M  V30 5971 C 557.212 4.83447 2.20119 0
M  V30 5972 C 556.251 5.90369 1.61651 0
M  V30 5973 N 555.388 6.49575 2.66451 0
M  V30 5974 H 560.228 2.97799 -0.109452 0
M  V30 5975 H 557.765 1.46953 -0.0657866 0
M  V30 5976 H 559.723 3.46607 2.32205 0
M  V30 5977 H 558.353 2.32803 2.23612 0
M  V30 5978 H 557.405 3.79145 0.308783 0
M  V30 5979 H 558.717 4.94892 0.623178 0
M  V30 5980 H 557.871 5.30008 2.95257 0
M  V30 5981 H 556.61 4.05991 2.70227 0
M  V30 5982 H 555.615 5.43186 0.850209 0
M  V30 5983 H 556.84 6.69735 1.1239 0
M  V30 5984 H 554.786 5.74981 3.15805 0
M  V30 5985 H 554.703 7.21952 2.24325 0
M  V30 5986 H 555.971 7.00789 3.41344 0
M  V30 5987 N 560.2 0.0768682 1.57412 0
M  V30 5988 C 561.13 -0.886026 2.16037 0
M  V30 5989 C 562.111 -1.30691 1.08876 0
M  V30 5990 O 563.296 -1.37705 1.36934 0
M  V30 5991 C 560.426 -2.1518 2.72608 0
M  V30 5992 C 559.38 -1.87015 3.8498 0
M  V30 5993 C 558.706 -3.20266 4.28175 0
M  V30 5994 C 560.006 -1.17143 5.08994 0
M  V30 5995 H 561.7 -0.397642 2.96748 0
M  V30 5996 H 559.246 -0.189823 1.42743 0
M  V30 5997 H 561.199 -2.82962 3.12266 0
M  V30 5998 H 559.923 -2.66269 1.89125 0
M  V30 5999 H 558.582 -1.21636 3.45833 0
M  V30 6000 H 558.23 -3.69207 3.41607 0
M  V30 6001 H 557.93 -3.0221 5.03927 0
M  V30 6002 H 559.454 -3.89237 4.70454 0
M  V30 6003 H 560.868 -1.75003 5.45937 0
M  V30 6004 H 559.265 -1.09328 5.90057 0
M  V30 6005 H 560.335 -0.151295 4.84664 0
M  V30 6006 N 561.678 -1.56367 -0.196722 0
M  V30 6007 C 563.089 -1.70462 -0.761545 0
M  V30 6008 C 563.44 -0.683161 -1.83922 0
M  V30 6009 O 562.565 0.160753 -2.15802 0
M  V30 6010 C 563.16 -3.09057 -1.38814 0
M  V30 6011 C 561.719 -3.24922 -1.90007 0
M  V30 6012 C 560.866 -2.66412 -0.769399 0
M  V30 6013 H 563.817 -1.58675 0.0283263 0
M  V30 6014 H 563.838 -3.06296 -2.2575 0
M  V30 6015 H 563.35 -3.83378 -0.603559 0
M  V30 6016 H 561.451 -2.55514 -2.71189 0
M  V30 6017 H 561.564 -4.3241 -2.06297 0
M  V30 6018 H 559.928 -2.25546 -1.18326 0
M  V30 6019 H 560.711 -3.433 0.00291773 0
M  V30 6020 N 563.156 0.464375 -1.50603 0
M  V30 6021 C 564.086 1.56944 -1.72889 0
M  V30 6022 C 565.067 1.59979 -0.577997 0
M  V30 6023 O 566.252 1.76138 -0.817855 0
M  V30 6024 C 563.382 2.95225 -1.8292 0
M  V30 6025 C 562.336 3.07056 -2.98162 0
M  V30 6026 C 561.662 4.47051 -2.93343 0
M  V30 6027 C 562.962 2.83648 -4.38567 0
M  V30 6028 H 564.656 1.38547 -2.65415 0
M  V30 6029 H 562.202 0.665082 -1.27721 0
M  V30 6030 H 564.155 3.72467 -1.97095 0
M  V30 6031 H 562.879 3.14793 -0.870209 0
M  V30 6032 H 561.538 2.32248 -2.83648 0
M  V30 6033 H 561.186 4.63547 -1.95276 0
M  V30 6034 H 560.886 4.55902 -3.70712 0
M  V30 6035 H 562.41 5.26304 -3.09575 0
M  V30 6036 H 563.824 3.50636 -4.53572 0
M  V30 6037 H 562.221 3.03937 -5.17438 0
M  V30 6038 H 563.291 1.79451 -4.50472 0
M  V30 6039 N 564.634 1.40294 0.718013 0
M  V30 6040 C 565.582 1.40536 1.85344 0
M  V30 6041 C 566.576 0.286192 1.66965 0
M  V30 6042 O 567.782 0.457105 1.74099 0
M  V30 6043 H 564.157 0.439236 0.61039 0
M  V30 6044 H 566.128 2.36275 1.82255 0
M  V30 6045 C 564.877 1.28245 3.23185 0
M  V30 6046 H 564.2 2.1364 3.37932 0
M  V30 6047 H 565.64 1.32474 4.02774 0
M  V30 6048 C 564.099 -0.0075503 3.36899 0
M  V30 6049 O 564.629 -0.971391 3.89778 0
M  V30 6050 N 562.835 -0.0762479 2.905 0
M  V30 6051 H 562.382 0.708819 2.47656 0
M  V30 6052 H 562.34 -0.938846 3.00055 0
M  V30 6053 N 566.112 -0.949982 1.2575 0
M  V30 6054 C 567.359 -1.69515 1.10774 0
M  V30 6055 C 567.687 -1.91316 -0.350479 0
M  V30 6056 O 566.942 -1.48515 -1.27443 0
M  V30 6057 C 567.241 -3.08039 1.81237 0
M  V30 6058 C 566.907 -3.06023 3.31151 0
M  V30 6059 C 565.569 -3.0518 3.72047 0
M  V30 6060 C 567.921 -2.98998 4.26907 0
M  V30 6061 C 565.249 -2.95067 5.07102 0
M  V30 6062 C 567.601 -2.90426 5.61992 0
M  V30 6063 C 566.265 -2.87922 6.0221 0
M  V30 6064 H 565.535 -0.6203 0.405351 0
M  V30 6065 H 568.182 -1.10953 1.56082 0
M  V30 6066 H 566.487 -3.70172 1.28373 0
M  V30 6067 H 568.184 -3.64526 1.67098 0
M  V30 6068 H 564.774 -3.07453 2.98614 0
M  V30 6069 H 568.958 -2.98764 3.963 0
M  V30 6070 H 564.214 -2.915 5.37436 0
M  V30 6071 H 568.388 -2.83952 6.35881 0
M  V30 6072 H 566.015 -2.79841 7.06819 0
M  V30 6073 N 567.59 -1.07411 -1.15328 0
M  V30 6074 C 568.537 -0.694995 -2.20087 0
M  V30 6075 C 569.507 0.313904 -1.63107 0
M  V30 6076 O 570.692 0.200216 -1.89747 0
M  V30 6077 C 567.832 -0.0996218 -3.44956 0
M  V30 6078 C 566.945 -1.16007 -4.16133 0
M  V30 6079 C 566.08 -0.529636 -5.28553 0
M  V30 6080 C 565.119 -1.57283 -5.91548 0
M  V30 6081 N 564.256 -0.964932 -6.95438 0
M  V30 6082 H 569.096 -1.5927 -2.51867 0
M  V30 6083 H 566.633 -0.796115 -1.23695 0
M  V30 6084 H 568.591 0.263197 -4.16369 0
M  V30 6085 H 567.221 0.761435 -3.13691 0
M  V30 6086 H 566.273 -1.64045 -3.4321 0
M  V30 6087 H 567.585 -1.95101 -4.59061 0
M  V30 6088 H 566.739 -0.114487 -6.06592 0
M  V30 6089 H 565.478 0.29307 -4.86819 0
M  V30 6090 H 564.483 -1.99775 -5.12221 0
M  V30 6091 H 565.708 -2.39783 -6.35359 0
M  V30 6092 H 563.654 -0.16314 -6.55797 0
M  V30 6093 H 563.571 -1.69311 -7.36797 0
M  V30 6094 H 564.839 -0.575305 -7.77374 0
M  V30 6095 N 569.068 1.32177 -0.85831 0
M  V30 6096 C 570.015 2.28794 -0.303607 0
M  V30 6097 C 570.985 1.55213 0.591453 0
M  V30 6098 O 572.17 1.83418 0.525585 0
M  V30 6099 C 569.31 3.41475 0.49889 0
M  V30 6100 C 568.423 4.2993 -0.422373 0
M  V30 6101 C 567.558 5.29743 0.393111 0
M  V30 6102 C 566.597 6.09842 -0.525317 0
M  V30 6103 N 565.734 7.01643 0.253208 0
M  V30 6104 H 570.574 2.75631 -1.13276 0
M  V30 6105 H 568.111 1.35606 -0.570026 0
M  V30 6106 H 570.069 4.05531 0.979826 0
M  V30 6107 H 568.699 2.95779 1.29284 0
M  V30 6108 H 567.751 3.66422 -1.02171 0
M  V30 6109 H 569.063 4.85899 -1.12709 0
M  V30 6110 H 568.217 5.9942 0.937056 0
M  V30 6111 H 566.956 4.744 1.13117 0
M  V30 6112 H 565.961 5.39066 -1.08112 0
M  V30 6113 H 567.186 6.6727 -1.26205 0
M  V30 6114 H 565.132 6.48725 0.974295 0
M  V30 6115 H 565.049 7.54981 -0.392398 0
M  V30 6116 H 566.317 7.756 0.778761 0
M  V30 6117 N 570.547 0.616602 1.45037 0
M  V30 6118 C 571.794 0.115331 2.02171 0
M  V30 6119 C 572.122 -1.25748 1.48383 0
M  V30 6120 O 571.377 -1.84511 0.652229 0
M  V30 6121 C 571.676 0.0356829 3.57382 0
M  V30 6122 C 571.342 1.34535 4.30362 0
M  V30 6123 C 570.004 1.70408 4.50016 0
M  V30 6124 C 572.356 2.21049 4.72003 0
M  V30 6125 C 569.684 2.92529 5.0857 0
M  V30 6126 C 572.036 3.42427 5.31908 0
M  V30 6127 C 570.7 3.78541 5.49784 0
M  V30 6128 H 569.97 0.0422024 0.739797 0
M  V30 6129 H 572.617 0.80002 1.73988 0
M  V30 6130 H 570.922 -0.732314 3.84895 0
M  V30 6131 H 572.619 -0.368463 3.99304 0
M  V30 6132 H 569.209 1.05615 4.15383 0
M  V30 6133 H 573.393 1.94632 4.56544 0
M  V30 6134 H 568.649 3.20605 5.20598 0
M  V30 6135 H 572.823 4.09709 5.63127 0
M  V30 6136 H 570.45 4.73255 5.94923 0
M  V30 6137 N 572.025 -1.5352 0.356285 0
M  V30 6138 C 572.988 -2.24071 -0.482182 0
M  V30 6139 C 573.988 -1.24531 -1.01729 0
M  V30 6140 O 575.178 -1.48876 -0.904513 0
M  V30 6141 C 572.31 -2.97025 -1.67299 0
M  V30 6142 H 573.503 -2.99596 0.135031 0
M  V30 6143 H 571.056 -1.55928 0.107825 0
M  V30 6144 H 571.791 -2.25719 -2.32855 0
M  V30 6145 H 571.576 -3.7005 -1.29636 0
M  V30 6146 H 573.066 -3.50683 -2.26741 0
M  V30 6147 N 573.503 -0.0852151 -1.57369 0
M  V30 6148 C 574.466 0.8627 -2.12344 0
M  V30 6149 C 575.466 1.21746 -1.05046 0
M  V30 6150 O 576.656 1.14852 -1.30976 0
M  V30 6151 C 573.788 2.1618 -2.63589 0
M  V30 6152 H 574.981 0.385511 -2.97412 0
M  V30 6153 H 572.534 0.163663 -1.55441 0
M  V30 6154 H 573.269 2.68406 -1.82013 0
M  V30 6155 H 573.054 1.91723 -3.4203 0
M  V30 6156 H 574.544 2.84011 -3.06149 0
M  V30 6157 N 574.981 1.5647 0.188427 0
M  V30 6158 C 575.928 1.95073 1.23349 0
M  V30 6159 C 576.898 0.812238 1.44886 0
M  V30 6160 O 578.083 1.07095 1.57909 0
M  V30 6161 C 575.223 2.30124 2.57171 0
M  V30 6162 C 574.336 3.57069 2.43157 0
M  V30 6163 C 573.471 3.81411 3.69729 0
M  V30 6164 C 572.51 5.0176 3.50575 0
M  V30 6165 N 571.647 5.22321 4.69175 0
M  V30 6166 H 576.487 2.84171 0.89728 0
M  V30 6167 H 574.024 1.40623 0.431683 0
M  V30 6168 H 575.982 2.48463 3.35145 0
M  V30 6169 H 574.612 1.44159 2.88822 0
M  V30 6170 H 573.664 3.4674 1.56447 0
M  V30 6171 H 574.976 4.452 2.24942 0
M  V30 6172 H 574.13 4.00026 4.56141 0
M  V30 6173 H 572.869 2.91624 3.90905 0
M  V30 6174 H 571.874 4.83061 2.62549 0
M  V30 6175 H 573.099 5.93063 3.30837 0
M  V30 6176 H 571.045 4.35483 4.90602 0
M  V30 6177 H 570.962 6.04643 4.53809 0
M  V30 6178 H 572.23 5.45401 5.56919 0
M  V30 6179 N 576.459 -0.456382 1.50847 0
M  V30 6180 C 577.705 -1.20914 1.62811 0
M  V30 6181 C 578.038 -1.91301 0.334304 0
M  V30 6182 O 577.313 -1.82775 -0.665098 0
M  V30 6183 C 577.596 -2.24122 2.81853 0
M  V30 6184 C 577.449 -1.57944 4.21158 0
M  V30 6185 C 578.768 -3.25295 2.96431 0
M  V30 6186 H 575.887 -0.438233 0.592554 0
M  V30 6187 H 578.529 -0.50091 1.83278 0
M  V30 6188 H 576.679 -2.84524 2.64534 0
M  V30 6189 H 578.351 -1.01025 4.50102 0
M  V30 6190 H 576.594 -0.882185 4.24735 0
M  V30 6191 H 577.265 -2.33014 5.00408 0
M  V30 6192 H 579.741 -2.7493 3.12335 0
M  V30 6193 H 578.617 -3.94822 3.81322 0
M  V30 6194 H 578.878 -3.90286 2.07676 0
M  V30 6195 N 577.937 -1.40673 -0.710563 0
M  V30 6196 C 579.162 -1.42741 -1.50465 0
M  V30 6197 C 579.587 -0.0302116 -1.88076 0
M  V30 6198 O 578.945 0.962945 -1.53613 0
M  V30 6199 C 578.993 -2.32873 -2.75322 0
M  V30 6200 O 578.097 -1.77544 -3.72226 0
M  V30 6201 H 577.438 -0.485056 -0.45345 0
M  V30 6202 H 579.968 -1.84961 -0.874681 0
M  V30 6203 H 579.978 -2.48233 -3.23797 0
M  V30 6204 H 578.653 -3.34401 -2.47283 0
M  V30 6205 H 577.23 -1.71556 -3.31093 0
M  V30 6206 N 579.415 0.9433 -1.26252 0
M  V30 6207 C 580.664 1.68369 -1.11062 0
M  V30 6208 C 580.977 1.92514 0.346104 0
M  V30 6209 O 582.183 2.64358 0.618646 0
M  V30 6210 C 580.639 3.03171 -1.93946 0
M  V30 6211 C 580.247 2.86782 -3.4418 0
M  V30 6212 C 581.991 3.80916 -1.87359 0
M  V30 6213 C 579.898 4.17044 -4.19319 0
M  V30 6214 H 578.828 0.631469 -0.412023 0
M  V30 6215 H 581.479 1.04922 -1.50544 0
M  V30 6216 H 579.861 3.67587 -1.47296 0
M  V30 6217 H 581.035 2.31229 -3.98585 0
M  V30 6218 H 579.35 2.22482 -3.51981 0
M  V30 6219 H 581.947 4.77417 -2.40784 0
M  V30 6220 H 582.29 4.07658 -0.843857 0
M  V30 6221 H 582.823 3.2327 -2.31821 0
M  V30 6222 H 579.562 3.95487 -5.22753 0
M  V30 6223 H 579.082 4.72319 -3.69696 0
M  V30 6224 H 580.761 4.85513 -4.27651 0
M  V30 6225 N 580.893 1.08022 1.14757 0
M  V30 6226 C 582.17 0.720386 1.81851 0
M  V30 6227 C 582.55 -0.796375 1.95502 0
M  V30 6228 O 581.898 -1.71339 1.51179 0
M  V30 6229 C 582.108 1.44273 3.17783 0
M  V30 6230 C 583.456 1.59925 3.93331 0
M  V30 6231 O 584.48 1.40407 3.2736 0
M  V30 6232 O 583.339 1.92096 5.11626 0
M  V30 6233 H 580.433 0.257142 0.786007 0
M  V30 6234 H 582.979 1.18155 1.21809 0
M  V30 6235 H 581.751 2.47618 3.02987 0
M  V30 6236 H 581.374 0.97279 3.85516 0
M  V30 6237 N 582.371 -1.3172 0.865308 0
M  V30 6238 C 583.599 -2.01057 0.488251 0
M  V30 6239 C 584.014 -1.64979 -0.918 0
M  V30 6240 O 583.371 -0.876597 -1.60069 0
M  V30 6241 C 583.422 -3.55964 0.630224 0
M  V30 6242 O 583.143 -3.90749 1.98109 0
M  V30 6243 C 584.644 -4.42574 0.253567 0
M  V30 6244 H 581.864 -0.64332 0.190736 0
M  V30 6245 H 584.408 -1.68058 1.16519 0
M  V30 6246 H 582.563 -3.874 0.000895422 0
M  V30 6247 H 582.977 -4.85467 1.9855 0
M  V30 6248 H 584.451 -5.50521 0.403875 0
M  V30 6249 H 584.928 -4.31724 -0.806895 0
M  V30 6250 H 585.534 -4.16547 0.858404 0
M  V30 6251 N 583.85 -0.624285 -1.44708 0
M  V30 6252 C 585.075 -0.131171 -2.06985 0
M  V30 6253 C 585.5 1.18234 -1.46295 0
M  V30 6254 O 584.858 1.72375 -0.561842 0
M  V30 6255 C 584.906 -0.0226724 -3.60593 0
M  V30 6256 O 584.01 1.02314 -3.99507 0
M  V30 6257 H 583.351 -0.0816556 -0.65896 0
M  V30 6258 H 585.88 -0.859027 -1.85693 0
M  V30 6259 H 585.891 0.170138 -4.07645 0
M  V30 6260 H 584.566 -0.981685 -4.04148 0
M  V30 6261 H 583.143 0.805452 -3.64097 0
M  V30 6262 N 585.328 1.53329 -0.364422 0
M  V30 6263 C 586.553 2.06132 0.229033 0
M  V30 6264 C 586.978 1.23625 1.41769 0
M  V30 6265 O 586.336 0.255038 1.79497 0
M  V30 6266 C 586.384 3.55544 0.60174 0
M  V30 6267 O 585.488 3.75771 1.69912 0
M  V30 6268 H 584.829 0.663148 0.0336213 0
M  V30 6269 H 587.359 1.97758 -0.524689 0
M  V30 6270 H 587.369 3.98549 0.873073 0
M  V30 6271 H 586.044 4.15039 -0.267421 0
M  V30 6272 H 584.621 3.44663 1.42343 0
M  V30 6273 N 586.806 0.0935595 1.57322 0
M  V30 6274 C 587.736 -0.863062 2.16964 0
M  V30 6275 C 588.717 -1.29528 1.10256 0
M  V30 6276 O 589.902 -1.36245 1.38387 0
M  V30 6277 C 587.032 -2.12276 2.74875 0
M  V30 6278 C 585.986 -1.82921 3.86942 0
M  V30 6279 C 585.312 -3.15707 4.31548 0
M  V30 6280 C 586.612 -1.11737 5.10208 0
M  V30 6281 H 588.306 -0.366145 2.97153 0
M  V30 6282 H 585.852 -0.174673 1.42937 0
M  V30 6283 H 587.805 -2.79634 3.1525 0
M  V30 6284 H 586.529 -2.64248 1.91938 0
M  V30 6285 H 585.188 -1.17961 3.47103 0
M  V30 6286 H 584.836 -3.65563 3.45504 0
M  V30 6287 H 584.536 -2.96849 5.07104 0
M  V30 6288 H 586.06 -3.84226 4.74555 0
M  V30 6289 H 587.474 -1.69203 5.47762 0
M  V30 6290 H 585.871 -1.03064 5.91183 0
M  V30 6291 H 586.941 -0.0998818 4.84797 0
M  V30 6292 N 588.284 -1.56567 -0.180126 0
M  V30 6293 C 589.216 -1.92275 -1.24751 0
M  V30 6294 C 590.229 -0.814922 -1.40936 0
M  V30 6295 O 591.418 -1.09336 -1.41095 0
M  V30 6296 C 588.518 -2.15265 -2.61752 0
M  V30 6297 C 587.691 -3.46467 -2.66981 0
M  V30 6298 C 586.75 -3.58391 -3.85283 0
M  V30 6299 O 585.776 -4.31086 -3.7169 0
M  V30 6300 N 586.978 -2.92587 -5.01371 0
M  V30 6301 H 589.743 -2.84435 -0.944302 0
M  V30 6302 H 587.304 -1.57617 -0.369952 0
M  V30 6303 H 589.296 -2.20515 -3.39345 0
M  V30 6304 H 587.866 -1.29533 -2.845 0
M  V30 6305 H 587.086 -3.52953 -1.75549 0
M  V30 6306 H 588.374 -4.32819 -2.67479 0
M  V30 6307 H 587.772 -2.3338 -5.15316 0
M  V30 6308 H 586.329 -3.03444 -5.76858 0
M  V30 6309 N 589.762 0.448376 -1.51087 0
M  V30 6310 C 590.992 1.21965 -1.66757 0
M  V30 6311 C 591.4 1.85748 -0.359753 0
M  V30 6312 O 590.743 1.71022 0.670604 0
M  V30 6313 C 590.805 2.35284 -2.71812 0
M  V30 6314 C 590.469 1.91957 -4.1473 0
M  V30 6315 C 591.466 1.42921 -4.9987 0
M  V30 6316 C 589.151 1.99985 -4.60772 0
M  V30 6317 C 591.145 1.02485 -6.29107 0
M  V30 6318 C 588.832 1.5916 -5.90009 0
M  V30 6319 C 589.83 1.10491 -6.74004 0
M  V30 6320 O 589.518 0.702413 -8.00825 0
M  V30 6321 H 589.25 0.374125 -0.563034 0
M  V30 6322 H 591.804 0.538927 -1.98204 0
M  V30 6323 H 590.034 3.06599 -2.35657 0
M  V30 6324 H 591.723 2.97184 -2.76472 0
M  V30 6325 H 592.489 1.36123 -4.65506 0
M  V30 6326 H 588.368 2.36814 -3.95525 0
M  V30 6327 H 591.912 0.644271 -6.94619 0
M  V30 6328 H 587.809 1.65626 -6.2389 0
M  V30 6329 H 588.577 0.829248 -8.14288 0
M  V30 6330 N 591.24 1.41047 0.703093 0
M  V30 6331 C 592.15 1.44645 1.84703 0
M  V30 6332 C 593.166 0.337778 1.7069 0
M  V30 6333 O 594.342 0.584327 1.92737 0
M  V30 6334 C 591.407 1.31928 3.20618 0
M  V30 6335 C 590.468 2.53047 3.46794 0
M  V30 6336 C 589.701 2.40927 4.76224 0
M  V30 6337 O 589.924 1.42978 5.5219 0
M  V30 6338 O 588.858 3.30543 5.03016 0
M  V30 6339 H 592.684 2.41139 1.84624 0
M  V30 6340 H 590.269 1.22504 0.855167 0
M  V30 6341 H 592.151 1.27092 4.01778 0
M  V30 6342 H 590.826 0.385469 3.21397 0
M  V30 6343 H 589.733 2.6346 2.65593 0
M  V30 6344 H 591.066 3.45231 3.50822 0
M  V30 6345 N 592.718 -0.936591 1.26751 0
M  V30 6346 C 593.666 -2.0573 1.08527 0
M  V30 6347 C 594.66 -1.69397 0.0108784 0
M  V30 6348 O 595.866 -1.79215 0.167915 0
M  V30 6349 H 592.241 -0.673691 0.334133 0
M  V30 6350 H 594.212 -2.1825 2.03493 0
M  V30 6351 C 592.961 -3.39738 0.739845 0
M  V30 6352 H 592.284 -3.68174 1.55845 0
M  V30 6353 H 593.724 -4.18955 0.652149 0
M  V30 6354 C 592.183 -3.32292 -0.555288 0
M  V30 6355 O 592.713 -3.68794 -1.59229 0
M  V30 6356 N 590.919 -2.85394 -0.54762 0
M  V30 6357 H 590.466 -2.55886 0.296667 0
M  V30 6358 H 590.424 -2.80795 -1.41427 0
M  V30 6359 N 594.196 -1.08629 -1.14182 0
M  V30 6360 C 595.473 -0.73002 -1.81466 0
M  V30 6361 C 595.853 0.785996 -1.95922 0
M  V30 6362 O 595.201 1.70535 -1.52086 0
M  V30 6363 C 595.411 -1.45957 -3.17014 0
M  V30 6364 C 596.759 -1.62008 -3.92477 0
M  V30 6365 O 597.783 -1.42141 -3.26611 0
M  V30 6366 O 596.642 -1.94806 -5.106 0
M  V30 6367 H 593.736 -0.261307 -0.784632 0
M  V30 6368 H 596.282 -1.188 -1.2118 0
M  V30 6369 H 595.054 -2.49221 -3.01669 0
M  V30 6370 H 594.677 -0.993222 -3.84995 0
M  V30 6371 N 595.674 1.31259 -0.872281 0
M  V30 6372 C 596.951 1.91362 -0.404943 0
M  V30 6373 C 597.331 1.79362 1.11321 0
M  V30 6374 O 596.679 1.20277 1.94283 0
M  V30 6375 C 596.889 3.3749 -0.888893 0
M  V30 6376 C 598.237 4.14593 -0.916384 0
M  V30 6377 O 599.261 3.46282 -0.834701 0
M  V30 6378 O 598.12 5.3661 -1.03498 0
M  V30 6379 H 595.214 0.818016 -0.121569 0
M  V30 6380 H 597.76 1.39912 -0.960346 0
M  V30 6381 H 596.532 3.40249 -1.93251 0
M  V30 6382 H 596.155 3.96375 -0.311932 0
M  V30 6383 N 597.152 0.631951 1.44375 0
M  V30 6384 C 598.082 -0.0593243 2.33425 0
M  V30 6385 C 599.063 -0.833964 1.48253 0
M  V30 6386 O 600.248 -0.799682 1.76971 0
M  V30 6387 C 597.378 -1.04096 3.31333 0
M  V30 6388 C 596.332 -0.377899 4.26328 0
M  V30 6389 C 595.658 -1.4695 5.14111 0
M  V30 6390 C 596.958 0.716371 5.17364 0
M  V30 6391 H 598.652 0.684287 2.91475 0
M  V30 6392 H 596.198 0.330518 1.40156 0
M  V30 6393 H 598.151 -1.53331 3.92514 0
M  V30 6394 H 596.875 -1.81547 2.71493 0
M  V30 6395 H 595.534 0.0938054 3.6648 0
M  V30 6396 H 595.182 -2.2349 4.50623 0
M  V30 6397 H 594.882 -1.03121 5.78481 0
M  V30 6398 H 596.406 -1.96363 5.78164 0
M  V30 6399 H 597.82 0.307089 5.72477 0
M  V30 6400 H 596.217 1.07784 5.90341 0
M  V30 6401 H 597.287 1.58316 4.58327 0
M  V30 6402 N 598.631 -1.53133 0.372548 0
M  V30 6403 C 599.564 -2.22328 -0.514361 0
M  V30 6404 C 600.542 -1.21776 -1.07747 0
M  V30 6405 O 601.726 -1.50704 -1.13228 0
M  V30 6406 C 598.853 -2.92343 -1.71035 0
M  V30 6407 C 597.899 -4.07026 -1.27405 0
M  V30 6408 S 598.732 -5.34821 -0.269526 0
M  V30 6409 C 599.888 -6.08352 -1.47168 0
M  V30 6410 H 600.121 -2.9721 0.0732683 0
M  V30 6411 H 597.654 -1.53603 0.156673 0
M  V30 6412 H 599.612 -3.33296 -2.39634 0
M  V30 6413 H 598.273 -2.17173 -2.26925 0
M  V30 6414 H 597.466 -4.55056 -2.16656 0
M  V30 6415 H 597.068 -3.68001 -0.66719 0
M  V30 6416 H 599.36 -6.33507 -2.40157 0
M  V30 6417 H 600.303 -7.0053 -1.03263 0
M  V30 6418 H 600.711 -5.38893 -1.6809 0
M  V30 6419 N 600.109 -0.101901 -1.5727 0
M  V30 6420 C 601.525 0.254739 -1.57554 0
M  V30 6421 C 601.725 1.67937 -1.11352 0
M  V30 6422 O 600.781 2.39722 -0.793081 0
M  V30 6423 C 602.094 0.036975 -3.00677 0
M  V30 6424 C 603.642 0.104199 -3.12827 0
M  V30 6425 C 604.117 -0.0856565 -4.5792 0
M  V30 6426 N 605.608 -0.0310498 -4.6319 0
M  V30 6427 C 606.343 -0.153099 -5.73196 0
M  V30 6428 N 605.839 -0.330364 -6.92012 0
M  V30 6429 N 607.632 -0.0938854 -5.62022 0
M  V30 6430 H 599.783 -1.03263 -1.85609 0
M  V30 6431 H 602.046 -0.405251 -0.857016 0
M  V30 6432 H 601.752 -0.947254 -3.38703 0
M  V30 6433 H 601.626 0.776335 -3.69124 0
M  V30 6434 H 604.013 1.07894 -2.74669 0
M  V30 6435 H 604.094 -0.666762 -2.46957 0
M  V30 6436 H 603.738 -1.05729 -4.96773 0
M  V30 6437 H 603.668 0.705082 -5.21858 0
M  V30 6438 H 606.159 0.103141 -3.77759 0
M  V30 6439 H 606.472 -0.41482 -7.71686 0
M  V30 6440 H 604.817 -0.366119 -6.94035 0
M  V30 6441 H 608.008 0.0435168 -4.6808 0
M  V30 6442 H 608.181 -0.19245 -6.47714 0
M  V30 6443 N 601.587 1.56661 0.17182 0
M  V30 6444 C 602.998 1.71652 0.734329 0
M  V30 6445 C 603.349 0.712335 1.82812 0
M  V30 6446 O 602.474 -0.126401 2.16031 0
M  V30 6447 C 603.069 3.11226 1.3388 0
M  V30 6448 C 601.628 3.27904 1.84813 0
M  V30 6449 C 600.775 2.67603 0.726917 0
M  V30 6450 H 603.726 1.5861 -0.0535665 0
M  V30 6451 H 603.747 3.09849 2.20849 0
M  V30 6452 H 603.259 3.8429 0.54249 0
M  V30 6453 H 601.36 2.59796 2.6709 0
M  V30 6454 H 601.473 4.35637 1.99392 0
M  V30 6455 H 599.837 2.274 1.14723 0
M  V30 6456 H 600.62 3.43252 -0.0575334 0
M  V30 6457 N 603.065 -0.440357 1.51323 0
M  V30 6458 C 604.342 -1.20109 1.5438 0
M  V30 6459 C 604.722 -2.08866 0.306303 0
M  V30 6460 O 604.07 -2.1723 -0.708773 0
M  V30 6461 C 604.28 -2.00555 2.8562 0
M  V30 6462 C 605.628 -2.577 3.37455 0
M  V30 6463 O 606.652 -2.10769 2.8715 0
M  V30 6464 O 605.511 -3.43289 4.25224 0
M  V30 6465 H 602.605 -0.546668 0.620551 0
M  V30 6466 H 605.151 -0.449672 1.63634 0
M  V30 6467 H 603.923 -1.35346 3.67147 0
M  V30 6468 H 603.546 -2.82768 2.79514 0
M  V30 6469 N 604.543 -1.41418 -0.695603 0
M  V30 6470 C 605.79 -1.40774 -1.45564 0
M  V30 6471 C 606.118 -0.0168604 -1.94493 0
M  V30 6472 O 605.373 0.971259 -1.69897 0
M  V30 6473 C 605.672 -2.36112 -2.68302 0
M  V30 6474 C 605.338 -3.82952 -2.38031 0
M  V30 6475 C 604 -4.22954 -2.29486 0
M  V30 6476 C 606.352 -4.75662 -2.13061 0
M  V30 6477 C 603.68 -5.53674 -1.94067 0
M  V30 6478 C 606.032 -6.06702 -1.79151 0
M  V30 6479 C 604.696 -6.45725 -1.69102 0
M  V30 6480 H 603.966 -0.515128 -0.532658 0
M  V30 6481 H 606.613 -1.74216 -0.795047 0
M  V30 6482 H 604.918 -1.95924 -3.39295 0
M  V30 6483 H 606.615 -2.32887 -3.26442 0
M  V30 6484 H 603.205 -3.5127 -2.45576 0
M  V30 6485 H 607.389 -4.45561 -2.18608 0
M  V30 6486 H 602.645 -5.8279 -1.8484 0
M  V30 6487 H 606.819 -6.78041 -1.5885 0
M  V30 6488 H 604.446 -7.46929 -1.41426 0
M  V30 6489 N 606.021 0.929856 -1.27246 0
M  V30 6490 C 606.969 2.05151 -1.09616 0
M  V30 6491 C 607.963 1.69388 -0.0198617 0
M  V30 6492 O 609.169 1.79124 -0.177417 0
M  V30 6493 H 605.544 0.671909 -0.337701 0
M  V30 6494 H 607.515 2.17168 -2.04648 0
M  V30 6495 C 606.264 3.3934 -0.757851 0
M  V30 6496 H 605.587 3.67343 -1.57795 0
M  V30 6497 H 607.027 4.18603 -0.674358 0
M  V30 6498 C 605.486 3.32582 0.537658 0
M  V30 6499 O 606.016 3.69633 1.57271 0
M  V30 6500 N 604.222 2.8568 0.532478 0
M  V30 6501 H 603.769 2.55725 -0.310233 0
M  V30 6502 H 603.727 2.81541 1.39936 0
M  V30 6503 N 607.499 1.09233 1.13605 0
M  V30 6504 C 608.447 0.724572 2.21027 0
M  V30 6505 C 609.441 -0.273595 1.67176 0
M  V30 6506 O 610.647 -0.135266 1.79491 0
M  V30 6507 H 607.022 0.216319 0.720215 0
M  V30 6508 H 608.993 1.63975 2.49309 0
M  V30 6509 C 607.742 0.159126 3.47336 0
M  V30 6510 H 607.065 0.918387 3.89109 0
M  V30 6511 H 608.505 -0.0602851 4.23957 0
M  V30 6512 C 606.964 -1.10514 3.18258 0
M  V30 6513 O 607.494 -2.18869 3.36837 0
M  V30 6514 N 605.7 -1.01886 2.72154 0
M  V30 6515 H 605.247 -0.137027 2.57235 0
M  V30 6516 H 605.205 -1.8655 2.53074 0
M  V30 6517 N 608.977 -1.30795 0.87923 0
M  V30 6518 C 610.254 -1.91145 0.415086 0
M  V30 6519 C 610.634 -1.7995 -1.10368 0
M  V30 6520 O 609.982 -1.21305 -1.93642 0
M  V30 6521 C 610.192 -3.37014 0.906778 0
M  V30 6522 C 611.54 -4.14101 0.938358 0
M  V30 6523 O 612.564 -3.45834 0.853053 0
M  V30 6524 O 611.423 -5.36054 1.06342 0
M  V30 6525 H 608.517 -0.81736 0.125905 0
M  V30 6526 H 611.063 -1.39401 0.967753 0
M  V30 6527 H 609.835 -3.3922 1.95053 0
M  V30 6528 H 609.458 -3.96204 0.332948 0
M  V30 6529 N 610.455 -0.639598 -1.44038 0
M  V30 6530 C 611.732 -0.078012 -1.95444 0
M  V30 6531 C 612.112 1.39847 -1.58133 0
M  V30 6532 O 611.46 2.11714 -0.859614 0
M  V30 6533 C 611.67 -0.309832 -3.47622 0
M  V30 6534 C 613.018 -0.207521 -4.24093 0
M  V30 6535 O 614.042 -0.241653 -3.55379 0
M  V30 6536 O 612.901 -0.119641 -5.46369 0
M  V30 6537 H 609.995 0.0174534 -0.826816 0
M  V30 6538 H 612.541 -0.711891 -1.54046 0
M  V30 6539 H 611.313 -1.33401 -3.67858 0
M  V30 6540 H 610.936 0.357777 -3.95987 0
M  V30 6541 N 611.933 1.52934 -0.380664 0
M  V30 6542 C 613.163 2.05587 0.204302 0
M  V30 6543 C 613.571 1.25288 1.41773 0
M  V30 6544 O 612.914 0.290394 1.8139 0
M  V30 6545 C 612.976 3.53624 0.647324 0
M  V30 6546 C 612.64 4.54765 -0.451465 0
M  V30 6547 C 613.637 5.03226 -1.30614 0
M  V30 6548 C 611.322 4.98508 -0.616025 0
M  V30 6549 C 613.316 5.94046 -2.31058 0
M  V30 6550 C 611.003 5.89131 -1.62381 0
M  V30 6551 C 612.001 6.36792 -2.46952 0
M  V30 6552 O 611.689 7.25626 -3.46009 0
M  V30 6553 H 611.421 0.675013 0.0365198 0
M  V30 6554 H 613.975 1.98125 -0.541827 0
M  V30 6555 H 612.205 3.58676 1.44529 0
M  V30 6556 H 613.894 3.89061 1.15698 0
M  V30 6557 H 614.66 4.70167 -1.19027 0
M  V30 6558 H 610.539 4.60989 0.0324987 0
M  V30 6559 H 614.083 6.3117 -2.97104 0
M  V30 6560 H 609.98 6.21603 -1.7401 0
M  V30 6561 H 610.748 7.43664 -3.41916 0
M  V30 6562 N 613.412 0.11024 1.57214 0
M  V30 6563 C 614.375 -0.828808 2.1369 0
M  V30 6564 C 615.375 -1.20059 1.06969 0
M  V30 6565 O 616.565 -1.12754 1.32786 0
M  V30 6566 C 613.697 -2.11959 2.66994 0
M  V30 6567 H 614.89 -0.338146 2.97988 0
M  V30 6568 H 612.443 -0.138913 1.55681 0
M  V30 6569 H 613.178 -2.65476 1.8626 0
M  V30 6570 H 612.963 -1.86258 3.45037 0
M  V30 6571 H 614.453 -2.79105 3.10629 0
M  V30 6572 N 614.89 -1.56749 -0.16351 0
M  V30 6573 C 616.139 -1.81626 -0.877211 0
M  V30 6574 C 616.452 -0.688791 -1.83071 0
M  V30 6575 O 617.658 -0.822697 -2.58735 0
M  V30 6576 C 616.114 -3.21858 -1.61045 0
M  V30 6577 C 615.722 -4.42494 -0.700195 0
M  V30 6578 C 617.466 -3.56021 -2.31192 0
M  V30 6579 C 615.373 -5.73748 -1.43412 0
M  V30 6580 H 614.303 -0.67731 -0.331312 0
M  V30 6581 H 616.954 -1.83039 -0.13006 0
M  V30 6582 H 615.336 -3.14784 -2.40264 0
M  V30 6583 H 616.51 -4.60766 0.0555849 0
M  V30 6584 H 614.825 -4.1626 -0.10799 0
M  V30 6585 H 617.422 -4.51333 -2.8671 0
M  V30 6586 H 617.765 -2.81277 -3.06902 0
M  V30 6587 H 618.298 -3.64682 -1.58909 0
M  V30 6588 H 615.037 -6.51543 -0.719186 0
M  V30 6589 H 614.557 -5.5944 -2.16302 0
M  V30 6590 H 616.236 -6.15975 -1.9795 0
M  V30 6591 N 616.368 0.432326 -1.51554 0
M  V30 6592 C 617.331 1.50765 -1.72634 0
M  V30 6593 C 618.331 1.49334 -0.596314 0
M  V30 6594 O 619.521 1.51268 -0.863925 0
M  V30 6595 C 616.653 2.90284 -1.7874 0
M  V30 6596 H 617.846 1.33377 -2.68609 0
M  V30 6597 H 615.399 0.661329 -1.4162 0
M  V30 6598 H 616.134 3.13071 -0.845977 0
M  V30 6599 H 615.919 2.92727 -2.6087 0
M  V30 6600 H 617.409 3.68282 -1.96871 0
M  V30 6601 N 617.846 1.41785 0.688094 0
M  V30 6602 C 619.086 1.43018 1.46032 0
M  V30 6603 C 619.45 0.0402632 1.91958 0
M  V30 6604 O 620.651 -0.0726425 2.68702 0
M  V30 6605 C 618.922 2.4151 2.63453 0
M  V30 6606 S 620.481 2.61335 3.5249 0
M  V30 6607 H 617.299 0.506546 0.498931 0
M  V30 6608 H 619.901 1.78283 0.80221 0
M  V30 6609 H 618.605 3.41286 2.27929 0
M  V30 6610 H 618.136 2.07624 3.34149 0
M  V30 6611 H 620.151 1.88637 4.58945 0
M  V30 6612 N 619.324 -0.923095 1.27737 0
M  V30 6613 C 620.564 -1.6858 1.15586 0
M  V30 6614 C 620.928 -1.89758 -0.292562 0
M  V30 6615 O 622.129 -2.6339 -0.536583 0
M  V30 6616 C 620.4 -3.01275 1.92271 0
M  V30 6617 S 621.959 -3.924 1.96387 0
M  V30 6618 H 618.777 -0.579069 0.412554 0
M  V30 6619 H 621.379 -1.09866 1.61709 0
M  V30 6620 H 620.083 -2.83556 2.96689 0
M  V30 6621 H 619.614 -3.6504 1.46661 0
M  V30 6622 H 621.629 -4.84667 1.06361 0
M  V30 6623 N 620.802 -1.09834 -1.13024 0
M  V30 6624 C 622.048 -0.83819 -1.84668 0
M  V30 6625 C 622.381 0.634645 -1.83537 0
M  V30 6626 O 621.656 1.46753 -1.27647 0
M  V30 6627 C 621.939 -1.37933 -3.32636 0
M  V30 6628 C 621.792 -2.91857 -3.42257 0
M  V30 6629 C 623.111 -1.01654 -4.28199 0
M  V30 6630 H 620.23 -0.30595 -0.670495 0
M  V30 6631 H 622.872 -1.36044 -1.32635 0
M  V30 6632 H 621.022 -0.935111 -3.77078 0
M  V30 6633 H 622.694 -3.44759 -3.06495 0
M  V30 6634 H 620.937 -3.28776 -2.83 0
M  V30 6635 H 621.608 -3.24799 -4.46329 0
M  V30 6636 H 624.084 -1.39973 -3.9185 0
M  V30 6637 H 622.96 -1.42217 -5.30156 0
M  V30 6638 H 623.221 0.0747794 -4.42037 0
M  V30 6639 N 622.28 1.30327 -0.886154 0
M  V30 6640 C 623.505 2.0079 -0.519425 0
M  V30 6641 C 623.93 1.65979 0.885013 0
M  V30 6642 O 623.288 0.877043 1.58675 0
M  V30 6643 C 623.336 3.53686 -0.702758 0
M  V30 6644 O 622.44 4.11637 0.250828 0
M  V30 6645 H 621.781 0.63171 -0.204544 0
M  V30 6646 H 624.311 1.66145 -1.19402 0
M  V30 6647 H 624.321 4.03531 -0.602207 0
M  V30 6648 H 622.996 3.78361 -1.72673 0
M  V30 6649 H 621.573 3.72755 0.103873 0
M  V30 6650 N 623.758 0.647228 1.43697 0
M  V30 6651 C 625.169 0.238689 1.85168 0
M  V30 6652 C 625.52 -1.21345 1.54175 0
M  V30 6653 O 624.645 -1.92542 0.987743 0
M  V30 6654 C 625.24 0.426422 3.36106 0
M  V30 6655 C 623.799 0.0722541 3.76331 0
M  V30 6656 C 622.946 0.732153 2.6746 0
M  V30 6657 H 625.897 0.851309 1.33934 0
M  V30 6658 H 625.918 -0.32987 3.79067 0
M  V30 6659 H 625.43 1.48339 3.58632 0
M  V30 6660 H 623.531 -0.982355 3.59417 0
M  V30 6661 H 623.644 0.493541 4.76551 0
M  V30 6662 H 622.008 0.16594 2.54159 0
M  V30 6663 H 622.791 1.79204 2.92816 0
M  V30 6664 N 625.236 -1.5273 0.388769 0
M  V30 6665 C 626.169 -2.22861 -0.490752 0
M  V30 6666 C 627.147 -1.22912 -1.06449 0
M  V30 6667 O 628.331 -1.51896 -1.11624 0
M  V30 6668 C 625.458 -2.94141 -1.67925 0
M  V30 6669 C 624.504 -4.08355 -1.23081 0
M  V30 6670 S 625.337 -5.35077 -0.212786 0
M  V30 6671 C 626.493 -6.09879 -1.40708 0
M  V30 6672 H 626.726 -2.97115 0.104787 0
M  V30 6673 H 624.259 -1.53428 0.172956 0
M  V30 6674 H 626.217 -3.35818 -2.36085 0
M  V30 6675 H 624.878 -2.19568 -2.24608 0
M  V30 6676 H 624.071 -4.57328 -2.11818 0
M  V30 6677 H 623.673 -3.68688 -0.628121 0
M  V30 6678 H 625.965 -6.36018 -2.33424 0
M  V30 6679 H 626.908 -7.01586 -0.958271 0
M  V30 6680 H 627.316 -5.40646 -1.62364 0
M  V30 6681 N 626.714 -0.118576 -1.57153 0
M  V30 6682 C 627.963 0.539339 -1.94355 0
M  V30 6683 C 628.276 1.67858 -1.00415 0
M  V30 6684 O 629.482 2.39922 -1.27081 0
M  V30 6685 C 627.938 1.01082 -3.45414 0
M  V30 6686 C 627.546 -0.0999402 -4.47889 0
M  V30 6687 C 629.29 1.64013 -3.91535 0
M  V30 6688 C 627.197 0.388212 -5.90124 0
M  V30 6689 H 626.127 0.205247 -0.725527 0
M  V30 6690 H 628.778 -0.19836 -1.82425 0
M  V30 6691 H 627.16 1.80292 -3.52577 0
M  V30 6692 H 628.334 -0.876189 -4.52393 0
M  V30 6693 H 626.649 -0.635885 -4.11516 0
M  V30 6694 H 629.246 2.01649 -4.95219 0
M  V30 6695 H 629.589 2.51836 -3.31488 0
M  V30 6696 H 630.122 0.913439 -3.87171 0
M  V30 6697 H 626.861 -0.453963 -6.53926 0
M  V30 6698 H 626.381 1.13095 -5.89041 0
M  V30 6699 H 628.06 0.849574 -6.41398 0
M  V30 6700 N 628.193 1.56834 0.155195 0
M  V30 6701 C 629.439 1.83169 0.870467 0
M  V30 6702 C 629.772 0.698929 1.81187 0
M  V30 6703 O 629.047 -0.298035 1.92203 0
M  V30 6704 C 629.33 3.19965 1.65211 0
M  V30 6705 C 629.183 4.43792 0.732744 0
M  V30 6706 C 630.502 3.53885 2.61636 0
M  V30 6707 H 627.621 0.666288 0.315006 0
M  V30 6708 H 630.263 1.89513 0.135988 0
M  V30 6709 H 628.413 3.14687 2.27825 0
M  V30 6710 H 630.085 4.61148 0.118236 0
M  V30 6711 H 628.328 4.3378 0.0417906 0
M  V30 6712 H 628.999 5.36095 1.31552 0
M  V30 6713 H 631.475 3.5972 2.09143 0
M  V30 6714 H 630.351 4.50648 3.13381 0
M  V30 6715 H 630.612 2.79418 3.42605 0
M  V30 6716 N 629.671 -0.424282 1.51781 0
M  V30 6717 C 630.919 -1.17028 1.64769 0
M  V30 6718 C 631.24 -1.91409 0.372523 0
M  V30 6719 O 630.51 -1.86091 -0.612108 0
M  V30 6720 H 629.09 -0.434992 0.607282 0
M  V30 6721 H 631.752 -0.485169 1.88765 0
M  V30 6722 H 630.848 -1.8927 2.4816 0
M  V30 6723 N 631.149 -1.42148 -0.680565 0
M  V30 6724 C 632.096 -1.45175 -1.79424 0
M  V30 6725 C 633.066 -0.304352 -1.63288 0
M  V30 6726 O 634.251 -0.507591 -1.83924 0
M  V30 6727 C 631.391 -1.35429 -3.17416 0
M  V30 6728 C 630.504 -2.60158 -3.4488 0
M  V30 6729 C 629.639 -2.42596 -4.72568 0
M  V30 6730 C 628.678 -3.62727 -4.93047 0
M  V30 6731 N 627.815 -3.44143 -6.11973 0
M  V30 6732 H 632.655 -2.40349 -1.76172 0
M  V30 6733 H 630.192 -1.19334 -0.860107 0
M  V30 6734 H 632.15 -1.27777 -3.97151 0
M  V30 6735 H 630.78 -0.438536 -3.19807 0
M  V30 6736 H 629.832 -2.78199 -2.5944 0
M  V30 6737 H 631.144 -3.49473 -3.55908 0
M  V30 6738 H 630.298 -2.32497 -5.60384 0
M  V30 6739 H 629.037 -1.50761 -4.63813 0
M  V30 6740 H 628.042 -3.73264 -4.03676 0
M  V30 6741 H 629.267 -4.55534 -5.03652 0
M  V30 6742 H 627.213 -2.5502 -6.04401 0
M  V30 6743 H 627.13 -4.27041 -6.23836 0
M  V30 6744 H 628.398 -3.37845 -7.02482 0
M  V30 6745 N 632.627 0.916307 -1.28225 0
M  V30 6746 C 633.559 2.02303 -1.07732 0
M  V30 6747 C 634.572 1.62773 -0.0298421 0
M  V30 6748 O 635.761 1.76406 -0.272626 0
M  V30 6749 C 632.861 3.33282 -0.614504 0
M  V30 6750 C 632.034 4.01439 -1.73682 0
M  V30 6751 C 631.093 5.10698 -1.26781 0
M  V30 6752 O 630.119 5.34038 -1.96958 0
M  V30 6753 N 631.321 5.80355 -0.129624 0
M  V30 6754 H 634.086 2.20442 -2.03041 0
M  V30 6755 H 631.647 1.08744 -1.19943 0
M  V30 6756 H 633.639 4.03699 -0.284397 0
M  V30 6757 H 632.209 3.11633 0.245664 0
M  V30 6758 H 631.429 3.24604 -2.23665 0
M  V30 6759 H 632.717 4.43721 -2.48976 0
M  V30 6760 H 632.115 5.6386 0.455847 0
M  V30 6761 H 630.672 6.51647 0.141224 0
M  V30 6762 N 634.105 1.10431 1.1244 0
M  V30 6763 C 635.038 0.696987 2.17296 0
M  V30 6764 C 636.016 -0.301673 1.59777 0
M  V30 6765 O 637.2 -0.200583 1.8743 0
M  V30 6766 C 634.327 0.0284094 3.38688 0
M  V30 6767 C 633.373 0.990536 4.14838 0
M  V30 6768 S 634.206 2.50785 4.73146 0
M  V30 6769 C 635.362 1.85198 5.97873 0
M  V30 6770 H 635.595 1.58523 2.51511 0
M  V30 6771 H 633.128 0.921312 1.239 0
M  V30 6772 H 635.086 -0.351009 4.08997 0
M  V30 6773 H 633.747 -0.836629 3.02753 0
M  V30 6774 H 632.94 0.469991 5.01804 0
M  V30 6775 H 632.542 1.31186 3.50237 0
M  V30 6776 H 634.834 1.18217 6.67106 0
M  V30 6777 H 635.777 2.7012 6.54554 0
M  V30 6778 H 636.185 1.31653 5.48933 0
M  V30 6779 N 635.583 -1.29855 0.893053 0
M  V30 6780 C 636.515 -2.26911 0.32311 0
M  V30 6781 C 637.528 -1.54039 -0.526858 0
M  V30 6782 O 638.717 -1.75132 -0.345095 0
M  V30 6783 C 635.817 -3.34266 -0.558509 0
M  V30 6784 C 634.99 -4.36601 0.264222 0
M  V30 6785 C 634.049 -5.23326 -0.549171 0
M  V30 6786 O 633.075 -5.69192 0.0309883 0
M  V30 6787 N 634.277 -5.50008 -1.85664 0
M  V30 6788 H 637.042 -2.76455 1.15726 0
M  V30 6789 H 634.603 -1.4312 0.756859 0
M  V30 6790 H 636.595 -3.89211 -1.1089 0
M  V30 6791 H 635.165 -2.8459 -1.29334 0
M  V30 6792 H 634.385 -3.81409 0.996046 0
M  V30 6793 H 635.673 -5.02019 0.827906 0
M  V30 6794 H 635.071 -5.14542 -2.35081 0
M  V30 6795 H 633.628 -6.07796 -2.35431 0
M  V30 6796 N 637.061 -0.65484 -1.43351 0
M  V30 6797 C 638.308 -0.168892 -2.01794 0
M  V30 6798 C 638.636 1.2177 -1.51665 0
M  V30 6799 O 637.891 1.82717 -0.70092 0
M  V30 6800 C 638.19 -0.130424 -3.57162 0
M  V30 6801 C 637.856 -1.45898 -4.26643 0
M  V30 6802 C 636.518 -1.82279 -4.4534 0
M  V30 6803 C 638.87 -2.33485 -4.65976 0
M  V30 6804 C 636.198 -3.0591 -5.00635 0
M  V30 6805 C 638.55 -3.5641 -5.22642 0
M  V30 6806 C 637.214 -3.92985 -5.39555 0
M  V30 6807 H 636.484 -0.061802 -0.738418 0
M  V30 6808 H 639.131 -0.845869 -1.71806 0
M  V30 6809 H 637.436 0.630008 -3.86702 0
M  V30 6810 H 639.133 0.262465 -4.0014 0
M  V30 6811 H 635.723 -1.16591 -4.12437 0
M  V30 6812 H 639.907 -2.06668 -4.51223 0
M  V30 6813 H 635.163 -3.34295 -5.11915 0
M  V30 6814 H 639.337 -4.24495 -5.52066 0
M  V30 6815 H 636.964 -4.88862 -5.82167 0
M  V30 6816 N 638.539 1.52521 -0.396863 0
M  V30 6817 C 639.786 2.01672 0.182898 0
M  V30 6818 C 640.114 1.28302 1.46181 0
M  V30 6819 O 639.369 0.374118 1.92091 0
M  V30 6820 C 639.668 3.5403 0.489677 0
M  V30 6821 C 639.334 4.45456 -0.698581 0
M  V30 6822 C 637.996 4.70166 -1.02454 0
M  V30 6823 C 640.348 4.99354 -1.49316 0
M  V30 6824 C 637.676 5.46024 -2.1465 0
M  V30 6825 C 640.028 5.76439 -2.60579 0
M  V30 6826 C 638.692 5.99426 -2.93675 0
M  V30 6827 H 637.962 0.737971 0.066927 0
M  V30 6828 H 640.609 1.83853 -0.535764 0
M  V30 6829 H 638.914 3.69963 1.28976 0
M  V30 6830 H 640.611 3.8956 0.951018 0
M  V30 6831 H 637.201 4.26392 -0.434525 0
M  V30 6832 H 641.385 4.80182 -1.25457 0
M  V30 6833 H 636.641 5.62046 -2.40654 0
M  V30 6834 H 640.815 6.17202 -3.22544 0
M  V30 6835 H 638.442 6.57988 -3.80731 0
M  V30 6836 N 640.017 0.126909 1.57088 0
M  V30 6837 C 641.265 -0.528123 1.95078 0
M  V30 6838 C 641.586 -1.66708 1.0116 0
M  V30 6839 O 640.856 -1.95777 0.0693527 0
M  V30 6840 H 639.436 -0.198087 0.720257 0
M  V30 6841 H 642.098 0.197703 1.93895 0
M  V30 6842 H 641.194 -0.917507 2.98309 0
M  V30 6843 N 641.495 -1.56914 -0.146875 0
M  V30 6844 C 642.458 -1.97368 -1.16526 0
M  V30 6845 C 643.458 -0.860223 -1.35856 0
M  V30 6846 O 644.648 -1.12684 -1.32846 0
M  V30 6847 C 641.78 -2.28974 -2.52555 0
M  V30 6848 H 642.973 -2.88523 -0.818209 0
M  V30 6849 H 640.526 -1.5135 -0.390221 0
M  V30 6850 H 641.261 -1.40611 -2.92231 0
M  V30 6851 H 641.046 -3.10157 -2.39886 0
M  V30 6852 H 642.536 -2.61109 -3.25902 0
M  V30 6853 N 642.974 0.416227 -1.52004 0
M  V30 6854 C 644.39 0.754319 -1.40649 0
M  V30 6855 C 644.59 1.95059 -0.505392 0
M  V30 6856 O 643.646 2.5248 0.0315057 0
M  V30 6857 C 644.959 1.0149 -2.83055 0
M  V30 6858 C 646.507 1.11805 -2.9235 0
M  V30 6859 C 646.982 1.41144 -4.35709 0
M  V30 6860 N 648.473 1.48024 -4.38911 0
M  V30 6861 C 649.208 1.72338 -5.46889 0
M  V30 6862 N 648.704 1.94303 -6.64995 0
M  V30 6863 N 650.497 1.74294 -5.34395 0
M  V30 6864 H 642.648 -0.371324 -2.09129 0
M  V30 6865 H 644.911 -0.103811 -0.942299 0
M  V30 6866 H 644.617 0.208345 -3.51082 0
M  V30 6867 H 644.491 1.93697 -3.23668 0
M  V30 6868 H 646.878 1.91521 -2.24508 0
M  V30 6869 H 646.959 0.17451 -2.55204 0
M  V30 6870 H 646.603 0.619484 -5.04108 0
M  V30 6871 H 646.533 2.36739 -4.70385 0
M  V30 6872 H 649.024 1.32868 -3.53772 0
M  V30 6873 H 649.337 2.12286 -7.43071 0
M  V30 6874 H 647.682 1.91582 -6.68073 0
M  V30 6875 H 650.873 1.56667 -4.41104 0
M  V30 6876 H 651.046 1.92904 -6.18621 0
M  V30 6877 N 644.452 1.42507 0.673017 0
M  V30 6878 C 645.415 1.4582 1.76831 0
M  V30 6879 C 646.415 0.345542 1.57043 0
M  V30 6880 O 647.605 0.606447 1.63303 0
M  V30 6881 C 644.737 1.29158 3.15485 0
M  V30 6882 H 645.93 2.43345 1.7528 0
M  V30 6883 H 643.483 1.28981 0.882817 0
M  V30 6884 H 644.218 0.325626 3.22661 0
M  V30 6885 H 644.003 2.09797 3.31252 0
M  V30 6886 H 645.493 1.34363 3.95394 0
M  V30 6887 N 645.93 -0.909495 1.28709 0
M  V30 6888 C 646.878 -2.03381 1.12866 0
M  V30 6889 C 647.872 -1.69335 0.0468074 0
M  V30 6890 O 649.078 -1.78819 0.205891 0
M  V30 6891 H 645.453 -0.666452 0.348348 0
M  V30 6892 H 647.424 -2.13885 2.08077 0
M  V30 6893 C 646.173 -3.38092 0.811742 0
M  V30 6894 H 645.496 -3.64786 1.63619 0
M  V30 6895 H 646.936 -4.17477 0.740869 0
M  V30 6896 C 645.395 -3.33395 -0.484679 0
M  V30 6897 O 645.925 -3.72089 -1.5137 0
M  V30 6898 N 644.131 -2.86491 -0.486961 0
M  V30 6899 H 643.678 -2.55199 0.350877 0
M  V30 6900 H 643.636 -2.83731 -1.3544 0
M  V30 6901 N 647.408 -1.11026 -1.11852 0
M  V30 6902 C 648.338 -0.786812 -2.19844 0
M  V30 6903 C 649.319 0.242935 -1.68356 0
M  V30 6904 O 650.504 0.107355 -1.93903 0
M  V30 6905 C 647.634 -0.224516 -3.46574 0
M  V30 6906 C 646.588 -1.18564 -4.1125 0
M  V30 6907 C 645.914 -0.484261 -5.32503 0
M  V30 6908 C 647.214 -2.53465 -4.56676 0
M  V30 6909 H 648.908 -1.68978 -2.47158 0
M  V30 6910 H 646.454 -0.813906 -1.18792 0
M  V30 6911 H 648.407 0.0139435 -4.21398 0
M  V30 6912 H 647.131 0.713722 -3.18706 0
M  V30 6913 H 645.79 -1.40966 -3.38414 0
M  V30 6914 H 645.438 0.458646 -5.00905 0
M  V30 6915 H 645.138 -1.12526 -5.76725 0
M  V30 6916 H 646.662 -0.254492 -6.10069 0
M  V30 6917 H 648.076 -2.35177 -5.22843 0
M  V30 6918 H 646.473 -3.13507 -5.11697 0
M  V30 6919 H 647.543 -3.13008 -3.70343 0
M  V30 6920 N 648.886 1.2938 -0.899927 0
M  V30 6921 C 649.849 2.25983 -0.382677 0
M  V30 6922 C 650.849 1.53366 0.483259 0
M  V30 6923 O 652.039 1.71798 0.28828 0
M  V30 6924 C 649.171 3.37878 0.452915 0
M  V30 6925 H 650.364 2.73252 -1.23586 0
M  V30 6926 H 647.917 1.40825 -0.678088 0
M  V30 6927 H 648.652 2.95949 1.32608 0
M  V30 6928 H 648.437 3.91742 -0.167562 0
M  V30 6929 H 649.927 4.09746 0.806107 0
M  V30 6930 N 650.364 0.662433 1.43002 0
M  V30 6931 C 651.311 -0.0235324 2.30788 0
M  V30 6932 C 652.281 -0.805342 1.4527 0
M  V30 6933 O 653.466 -0.78009 1.74124 0
M  V30 6934 C 650.606 -0.977545 3.30965 0
M  V30 6935 C 649.719 -0.190865 4.31578 0
M  V30 6936 C 648.854 -1.13951 5.18834 0
M  V30 6937 C 647.893 -0.343796 6.11134 0
M  V30 6938 N 647.03 -1.2445 6.90982 0
M  V30 6939 H 651.87 0.730921 2.88897 0
M  V30 6940 H 649.407 0.372197 1.42313 0
M  V30 6941 H 651.365 -1.54437 3.87563 0
M  V30 6942 H 649.995 -1.69877 2.74484 0
M  V30 6943 H 649.047 0.492388 3.772 0
M  V30 6944 H 650.359 0.427464 4.96965 0
M  V30 6945 H 649.513 -1.77666 5.80103 0
M  V30 6946 H 648.252 -1.79174 4.53595 0
M  V30 6947 H 647.257 0.30665 5.48944 0
M  V30 6948 H 648.482 0.304161 6.78419 0
M  V30 6949 H 646.428 -1.88336 6.28383 0
M  V30 6950 H 646.345 -0.680959 7.52927 0
M  V30 6951 H 647.613 -1.86952 7.56749 0
M  V30 6952 N 651.842 -1.52309 0.404946 0
M  V30 6953 C 653.07 -2.06185 -0.171818 0
M  V30 6954 C 653.485 -1.27536 -1.39212 0
M  V30 6955 O 652.842 -0.326112 -1.79563 0
M  V30 6956 C 652.893 -3.57647 -0.526417 0
M  V30 6957 O 652.614 -4.3332 0.645417 0
M  V30 6958 C 654.115 -4.27925 -1.15736 0
M  V30 6959 H 651.335 -0.670632 -0.0222328 0
M  V30 6960 H 653.879 -1.96259 0.574692 0
M  V30 6961 H 652.034 -3.67595 -1.22282 0
M  V30 6962 H 652.448 -5.23328 0.35042 0
M  V30 6963 H 653.922 -5.35093 -1.35572 0
M  V30 6964 H 654.399 -3.84134 -2.12926 0
M  V30 6965 H 655.005 -4.22335 -0.501281 0
M  V30 6966 N 653.32 -0.135238 -1.57019 0
M  V30 6967 C 654.253 0.846618 -2.11914 0
M  V30 6968 C 655.231 1.25019 -1.03966 0
M  V30 6969 O 656.415 1.34838 -1.31723 0
M  V30 6970 C 653.542 2.1352 -2.6292 0
M  V30 6971 C 652.588 1.87846 -3.82905 0
M  V30 6972 S 653.421 1.08005 -5.24495 0
M  V30 6973 C 654.577 2.38008 -5.78881 0
M  V30 6974 H 654.81 0.379752 -2.94865 0
M  V30 6975 H 652.343 0.0788387 -1.54199 0
M  V30 6976 H 654.301 2.87551 -2.92958 0
M  V30 6977 H 652.962 2.57323 -1.80121 0
M  V30 6978 H 652.155 2.83365 -4.16797 0
M  V30 6979 H 651.757 1.21929 -3.53567 0
M  V30 6980 H 654.049 3.33742 -5.89595 0
M  V30 6981 H 654.992 2.08638 -6.76665 0
M  V30 6982 H 655.4 2.48119 -5.07048 0
M  V30 6983 N 654.798 1.5699 0.138552 0
M  V30 6984 C 655.728 2.01933 1.17241 0
M  V30 6985 C 656.709 0.90033 1.44319 0
M  V30 6986 O 657.894 1.16872 1.55095 0
M  V30 6987 C 655.024 2.40711 2.50351 0
M  V30 6988 C 653.978 3.55874 2.37776 0
M  V30 6989 C 653.304 3.80491 3.75674 0
M  V30 6990 C 654.604 4.8826 1.85472 0
M  V30 6991 H 656.298 2.88551 0.798672 0
M  V30 6992 H 653.844 1.3882 0.382743 0
M  V30 6993 H 655.797 2.70754 3.22909 0
M  V30 6994 H 654.521 1.5104 2.89576 0
M  V30 6995 H 653.18 3.2601 1.67669 0
M  V30 6996 H 652.828 2.88057 4.12349 0
M  V30 6997 H 652.528 4.57998 3.68119 0
M  V30 6998 H 654.052 4.12967 4.49767 0
M  V30 6999 H 655.466 5.16965 2.4783 0
M  V30 7000 H 653.863 5.69631 1.88787 0
M  V30 7001 H 654.933 4.78071 0.810935 0
M  V30 7002 N 656.276 -0.40816 1.52223 0
M  V30 7003 C 657.506 -1.17501 1.69932 0
M  V30 7004 C 657.914 -1.84729 0.408874 0
M  V30 7005 O 657.257 -1.7274 -0.625025 0
M  V30 7006 C 657.319 -2.27994 2.77955 0
M  V30 7007 C 656.983 -1.80894 4.19674 0
M  V30 7008 C 657.98 -1.29618 5.03483 0
M  V30 7009 C 655.665 -1.87698 4.65913 0
M  V30 7010 C 657.659 -0.857695 6.31603 0
M  V30 7011 C 655.346 -1.43461 5.94022 0
M  V30 7012 C 656.344 -0.925822 6.76696 0
M  V30 7013 O 656.032 -0.489841 8.02406 0
M  V30 7014 H 655.764 -0.359065 0.572755 0
M  V30 7015 H 658.318 -0.486188 1.99563 0
M  V30 7016 H 656.548 -3.00243 2.43703 0
M  V30 7017 H 658.237 -2.89749 2.84254 0
M  V30 7018 H 659.003 -1.23733 4.68951 0
M  V30 7019 H 654.882 -2.26244 4.01665 0
M  V30 7020 H 658.426 -0.459879 6.96083 0
M  V30 7021 H 654.323 -1.49026 6.28062 0
M  V30 7022 H 655.091 -0.613062 8.16201 0
M  V30 7023 N 657.755 -1.42862 -0.66545 0
M  V30 7024 C 658.718 -1.46756 -1.76055 0
M  V30 7025 C 659.718 -0.353866 -1.56858 0
M  V30 7026 O 660.908 -0.615099 -1.62979 0
M  V30 7027 C 658.04 -1.30829 -3.14796 0
M  V30 7028 H 659.233 -2.44271 -1.73987 0
M  V30 7029 H 656.786 -1.29447 -0.875965 0
M  V30 7030 H 657.521 -0.342733 -3.22484 0
M  V30 7031 H 657.306 -2.11551 -3.30134 0
M  V30 7032 H 658.796 -1.36458 -3.94676 0
M  V30 7033 N 659.233 0.902656 -1.29189 0
M  V30 7034 C 660.482 1.6475 -1.16362 0
M  V30 7035 C 660.795 1.93517 0.284682 0
M  V30 7036 O 662.001 2.66192 0.534229 0
M  V30 7037 C 660.457 2.96848 -2.03493 0
M  V30 7038 C 660.065 2.75687 -3.5313 0
M  V30 7039 C 661.809 3.74762 -1.99383 0
M  V30 7040 C 659.716 4.03492 -4.32375 0
M  V30 7041 H 658.646 0.618041 -0.431904 0
M  V30 7042 H 661.297 1.0008 -1.53806 0
M  V30 7043 H 659.679 3.62715 -1.58916 0
M  V30 7044 H 660.853 2.18431 -4.05739 0
M  V30 7045 H 659.168 2.11171 -3.58881 0
M  V30 7046 H 661.765 4.69515 -2.5585 0
M  V30 7047 H 662.108 4.04767 -0.973123 0
M  V30 7048 H 662.641 3.15732 -2.41988 0
M  V30 7049 H 659.38 3.78656 -5.3507 0
M  V30 7050 H 658.9 4.60318 -3.84535 0
M  V30 7051 H 660.579 4.71662 -4.42881 0
M  V30 7052 N 660.711 1.11618 1.11262 0
M  V30 7053 C 661.659 0.771291 2.1944 0
M  V30 7054 C 662.653 -0.238073 1.67719 0
M  V30 7055 O 663.859 -0.0971628 1.79738 0
M  V30 7056 H 660.234 0.231548 0.715465 0
M  V30 7057 H 662.205 1.69226 2.45775 0
M  V30 7058 C 660.954 0.232765 3.4692 0
M  V30 7059 H 660.277 1.00072 3.87073 0
M  V30 7060 H 661.717 0.0296561 4.2399 0
M  V30 7061 C 660.176 -1.03738 3.20531 0
M  V30 7062 O 660.706 -2.11675 3.41404 0
M  V30 7063 N 658.912 -0.960906 2.74253 0
M  V30 7064 H 658.459 -0.0824323 2.57468 0
M  V30 7065 H 658.417 -1.8114 2.56974 0
M  V30 7066 N 662.189 -1.289 0.906776 0
M  V30 7067 C 663.437 -1.94883 0.535266 0
M  V30 7068 C 663.758 -1.71784 -0.922791 0
M  V30 7069 O 663.028 -1.05359 -1.65156 0
M  V30 7070 H 661.608 -0.721109 0.194962 0
M  V30 7071 H 664.27 -1.57018 1.15461 0
M  V30 7072 H 663.366 -3.03591 0.723821 0
M  V30 7073 N 663.667 -0.670007 -1.42649 0
M  V30 7074 C 664.915 -0.18991 -2.01206 0
M  V30 7075 C 665.236 1.20617 -1.53221 0
M  V30 7076 O 664.506 1.80898 -0.751856 0
M  V30 7077 H 663.086 -0.0672189 -0.743969 0
M  V30 7078 H 665.748 -0.865442 -1.74631 0
M  V30 7079 H 664.844 -0.187481 -3.11536 0
M  V30 7080 N 665.145 1.52092 -0.413018 0
M  V30 7081 C 666.391 2.02154 0.161737 0
M  V30 7082 C 666.724 1.29789 1.44459 0
M  V30 7083 O 665.999 0.405378 1.90229 0
M  V30 7084 C 666.282 3.5781 0.405463 0
M  V30 7085 C 666.135 4.40819 -0.894335 0
M  V30 7086 C 667.454 4.23821 1.18591 0
M  V30 7087 H 664.573 0.734769 0.0573077 0
M  V30 7088 H 667.215 1.81948 -0.547247 0
M  V30 7089 H 665.365 3.75158 1.0094 0
M  V30 7090 H 667.037 4.35175 -1.53039 0
M  V30 7091 H 665.28 4.06877 -1.50444 0
M  V30 7092 H 665.951 5.47819 -0.678144 0
M  V30 7093 H 668.427 4.10596 0.674573 0
M  V30 7094 H 667.303 5.32663 1.3252 0
M  V30 7095 H 667.564 3.83038 2.20758 0
M  V30 7096 N 666.623 0.143563 1.56945 0
M  V30 7097 C 667.9 -0.553285 1.87612 0
M  V30 7098 C 668.28 -1.83195 1.04894 0
M  V30 7099 O 667.628 -2.28102 0.134773 0
M  V30 7100 C 667.838 -0.822055 3.3918 0
M  V30 7101 C 669.186 -1.16435 4.08324 0
M  V30 7102 O 670.21 -0.911522 3.4434 0
M  V30 7103 O 669.069 -1.63996 5.21313 0
M  V30 7104 H 666.163 -0.281851 0.777489 0
M  V30 7105 H 668.709 0.179916 1.68744 0
M  V30 7106 H 667.481 0.0830265 3.91212 0
M  V30 7107 H 667.104 -1.60956 3.63564 0
M  V30 7108 N 668.101 -1.57061 -0.130224 0
M  V30 7109 C 669.011 -2.02802 -1.17934 0
M  V30 7110 C 670.027 -0.946378 -1.46013 0
M  V30 7111 O 671.203 -1.25708 -1.57351 0
M  V30 7112 C 668.268 -2.41368 -2.48882 0
M  V30 7113 C 667.329 -3.63561 -2.28301 0
M  V30 7114 C 666.562 -4.00279 -3.53005 0
M  V30 7115 O 666.785 -3.37463 -4.59864 0
M  V30 7116 O 665.719 -4.93441 -3.44673 0
M  V30 7117 H 669.545 -2.92394 -0.820958 0
M  V30 7118 H 667.13 -1.45475 -0.340197 0
M  V30 7119 H 669.012 -2.66958 -3.26054 0
M  V30 7120 H 667.687 -1.54926 -2.84217 0
M  V30 7121 H 666.594 -3.43136 -1.49025 0
M  V30 7122 H 667.927 -4.50673 -1.97875 0
M  V30 7123 N 669.579 0.400081 -1.52437 0
M  V30 7124 C 670.526 1.48803 -1.76426 0
M  V30 7125 C 671.496 1.5461 -0.607032 0
M  V30 7126 O 672.681 1.71041 -0.845563 0
M  V30 7127 C 669.821 2.86156 -1.92896 0
M  V30 7128 C 668.934 2.89587 -3.20567 0
M  V30 7129 C 668.069 4.18296 -3.27417 0
M  V30 7130 C 667.108 4.15736 -4.49255 0
M  V30 7131 N 666.245 5.36032 -4.53447 0
M  V30 7132 H 671.085 1.27649 -2.69276 0
M  V30 7133 H 668.622 0.619451 -1.33421 0
M  V30 7134 H 670.58 3.65901 -2.00429 0
M  V30 7135 H 669.21 3.05785 -1.03418 0
M  V30 7136 H 668.262 2.02278 -3.22161 0
M  V30 7137 H 669.574 2.83562 -4.10358 0
M  V30 7138 H 668.728 5.06439 -3.34072 0
M  V30 7139 H 667.467 4.27028 -2.35581 0
M  V30 7140 H 666.472 3.25982 -4.42737 0
M  V30 7141 H 667.697 4.08636 -5.42396 0
M  V30 7142 H 665.643 5.45415 -3.64498 0
M  V30 7143 H 665.56 5.32038 -5.37096 0
M  V30 7144 H 666.828 6.26104 -4.64343 0
M  V30 7145 N 671.057 1.43213 0.657864 0
M  V30 7146 C 671.987 1.50815 1.78262 0
M  V30 7147 C 672.968 0.363211 1.66177 0
M  V30 7148 O 674.153 0.579806 1.85343 0
M  V30 7149 C 671.283 1.42625 3.16663 0
M  V30 7150 C 670.237 2.5532 3.43505 0
M  V30 7151 C 669.563 2.32184 4.81658 0
M  V30 7152 C 670.863 3.97583 3.38711 0
M  V30 7153 H 672.557 2.44954 1.72157 0
M  V30 7154 H 670.103 1.17896 0.82683 0
M  V30 7155 H 672.056 1.46548 3.95097 0
M  V30 7156 H 670.78 0.449877 3.23487 0
M  V30 7157 H 669.439 2.50742 2.6744 0
M  V30 7158 H 669.087 1.32801 4.85153 0
M  V30 7159 H 668.787 3.07724 5.00579 0
M  V30 7160 H 670.311 2.37883 5.62356 0
M  V30 7161 H 671.725 4.03673 4.07089 0
M  V30 7162 H 670.122 4.73112 3.69168 0
M  V30 7163 H 671.192 4.23049 2.36976 0
M  V30 7164 N 672.536 -0.895792 1.29666 0
M  V30 7165 C 673.483 -2.00035 1.15129 0
M  V30 7166 C 674.453 -1.66043 0.0435819 0
M  V30 7167 O 675.638 -1.89621 0.211811 0
M  V30 7168 C 672.778 -3.34774 0.83787 0
M  V30 7169 C 671.891 -3.81525 2.0264 0
M  V30 7170 C 671.026 -5.04858 1.65201 0
M  V30 7171 C 670.065 -5.43988 2.80612 0
M  V30 7172 N 669.202 -6.58507 2.43544 0
M  V30 7173 H 674.042 -2.11802 2.09628 0
M  V30 7174 H 671.579 -1.03719 1.04311 0
M  V30 7175 H 673.537 -4.12311 0.636824 0
M  V30 7176 H 672.167 -3.22724 -0.0702314 0
M  V30 7177 H 671.219 -2.9999 2.33903 0
M  V30 7178 H 672.531 -4.06472 2.89106 0
M  V30 7179 H 671.685 -5.8999 1.41408 0
M  V30 7180 H 670.424 -4.81759 0.758893 0
M  V30 7181 H 669.429 -4.57388 3.05083 0
M  V30 7182 H 670.654 -5.69066 3.70595 0
M  V30 7183 H 668.6 -6.37004 1.56724 0
M  V30 7184 H 668.517 -6.83269 3.23542 0
M  V30 7185 H 669.785 -7.46897 2.2308 0
M  V30 7186 N 674.014 -1.12206 -1.10668 0
M  V30 7187 C 674.947 -0.731468 -2.16159 0
M  V30 7188 C 675.925 0.276216 -1.60237 0
M  V30 7189 O 677.109 0.17074 -1.87725 0
M  V30 7190 C 674.236 -0.0822882 -3.386 0
M  V30 7191 C 673.282 -1.05641 -4.1321 0
M  V30 7192 S 674.115 -2.58281 -4.69096 0
M  V30 7193 C 675.271 -1.94686 -5.94851 0
M  V30 7194 H 675.504 -1.62504 -2.48957 0
M  V30 7195 H 673.037 -0.940906 -1.22419 0
M  V30 7196 H 674.995 0.285896 -4.09503 0
M  V30 7197 H 673.656 0.788358 -3.04046 0
M  V30 7198 H 672.849 -0.549764 -5.00993 0
M  V30 7199 H 672.451 -1.36741 -3.48106 0
M  V30 7200 H 674.743 -1.28815 -6.65141 0
M  V30 7201 H 675.686 -2.80499 -6.50174 0
M  V30 7202 H 676.094 -1.40369 -5.46769 0
M  V30 7203 N 675.492 1.28418 -0.913599 0
M  V30 7204 C 676.424 2.26368 -0.359169 0
M  V30 7205 C 677.437 1.54858 0.502285 0
M  V30 7206 O 678.626 1.75659 0.31719 0
M  V30 7207 C 675.726 3.35112 0.50526 0
M  V30 7208 C 674.899 4.36126 -0.333648 0
M  V30 7209 C 673.958 5.24134 0.465845 0
M  V30 7210 O 672.984 5.6907 -0.121538 0
M  V30 7211 N 674.186 5.52892 1.76891 0
M  V30 7212 H 676.951 2.74579 -1.2011 0
M  V30 7213 H 674.512 1.41898 -0.779532 0
M  V30 7214 H 676.504 3.90926 1.04684 0
M  V30 7215 H 675.074 2.86611 1.2479 0
M  V30 7216 H 674.294 3.79776 -1.0566 0
M  V30 7217 H 675.582 5.00638 -0.907669 0
M  V30 7218 H 674.98 5.18217 2.26865 0
M  V30 7219 H 673.537 6.11464 2.25732 0
M  V30 7220 N 676.97 0.677563 1.42291 0
M  V30 7221 C 678.216 0.201272 2.01799 0
M  V30 7222 C 678.549 -1.19004 1.53465 0
M  V30 7223 O 677.824 -1.79953 0.738039 0
M  V30 7224 C 678.107 0.238968 3.59306 0
M  V30 7225 C 677.96 1.66594 4.17812 0
M  V30 7226 C 679.279 -0.411287 4.38174 0
M  V30 7227 H 676.398 0.0746114 0.733214 0
M  V30 7228 H 679.04 0.862872 1.69276 0
M  V30 7229 H 677.19 -0.324368 3.87144 0
M  V30 7230 H 678.862 2.28173 4.00917 0
M  V30 7231 H 677.105 2.20576 3.73536 0
M  V30 7232 H 677.776 1.64398 5.26951 0
M  V30 7233 H 680.252 0.0682804 4.16044 0
M  V30 7234 H 679.128 -0.354286 5.47755 0
M  V30 7235 H 679.389 -1.4893 4.1626 0
M  V30 7236 N 678.448 -1.51871 0.421078 0
M  V30 7237 C 679.696 -2.01539 -0.150492 0
M  V30 7238 C 680.017 -1.30803 -1.44623 0
M  V30 7239 O 679.287 -0.437568 -1.90951 0
M  V30 7240 H 677.867 -0.744698 -0.0586041 0
M  V30 7241 H 680.529 -1.8668 0.560059 0
M  V30 7242 H 679.625 -3.10264 -0.338068 0
M  V30 7243 N 679.926 -0.151884 -1.56866 0
M  V30 7244 C 681.337 0.368128 -1.83035 0
M  V30 7245 C 681.688 1.64402 -1.07082 0
M  V30 7246 O 680.813 2.14056 -0.317647 0
M  V30 7247 C 681.408 0.674676 -3.32014 0
M  V30 7248 C 679.967 1.13919 -3.58747 0
M  V30 7249 C 679.114 0.164833 -2.7681 0
M  V30 7250 H 682.065 -0.376499 -1.54169 0
M  V30 7251 H 682.086 1.52883 -3.48435 0
M  V30 7252 H 681.598 -0.254113 -3.87267 0
M  V30 7253 H 679.699 2.08375 -3.08886 0
M  V30 7254 H 679.812 1.06179 -4.67186 0
M  V30 7255 H 678.176 0.658419 -2.46043 0
M  V30 7256 H 678.959 -0.757633 -3.34836 0
M  V30 7257 N 681.404 1.57128 0.121893 0
M  V30 7258 C 682.351 2.0013 1.14964 0
M  V30 7259 C 683.321 0.872959 1.4131 0
M  V30 7260 O 684.506 1.13696 1.53225 0
M  V30 7261 C 681.646 2.40824 2.4718 0
M  V30 7262 C 680.759 3.67061 2.27794 0
M  V30 7263 C 679.894 3.96749 3.53219 0
M  V30 7264 C 678.933 5.16178 3.28978 0
M  V30 7265 N 678.07 5.41751 4.46599 0
M  V30 7266 H 682.91 2.8772 0.775947 0
M  V30 7267 H 680.447 1.42328 0.371652 0
M  V30 7268 H 682.405 2.62454 3.24305 0
M  V30 7269 H 681.035 1.56279 2.82448 0
M  V30 7270 H 680.087 3.53063 1.416 0
M  V30 7271 H 681.399 4.5434 2.05857 0
M  V30 7272 H 680.553 4.19012 4.38764 0
M  V30 7273 H 679.292 3.07941 3.78185 0
M  V30 7274 H 678.297 4.93762 2.41824 0
M  V30 7275 H 679.522 6.06561 3.05386 0
M  V30 7276 H 677.468 4.55899 4.71691 0
M  V30 7277 H 677.385 6.23347 4.27756 0
M  V30 7278 H 678.653 5.68531 5.33285 0
M  V30 7279 N 682.882 -0.391992 1.52647 0
M  V30 7280 C 684.107 -1.16312 1.71716 0
M  V30 7281 C 684.532 -1.83042 0.433279 0
M  V30 7282 O 683.89 -1.70705 -0.610707 0
M  V30 7283 C 683.938 -2.18908 2.86551 0
M  V30 7284 O 683.042 -3.2543 2.53316 0
M  V30 7285 H 682.383 -0.338743 0.571095 0
M  V30 7286 H 684.913 -0.457202 1.99426 0
M  V30 7287 H 684.923 -2.62954 3.1196 0
M  V30 7288 H 683.598 -1.69726 3.79692 0
M  V30 7289 H 682.175 -2.86543 2.38637 0
M  V30 7290 N 684.36 -1.4356 -0.65026 0
M  V30 7291 C 685.27 -1.514 -1.79207 0
M  V30 7292 C 686.286 -0.400895 -1.69319 0
M  V30 7293 O 687.462 -0.655458 -1.90436 0
M  V30 7294 C 684.527 -1.43737 -3.155 0
M  V30 7295 C 683.588 -2.65743 -3.37163 0
M  V30 7296 C 682.821 -2.58436 -4.66954 0
M  V30 7297 O 683.044 -1.63374 -5.46503 0
M  V30 7298 O 681.978 -3.48984 -4.90402 0
M  V30 7299 H 685.804 -2.47825 -1.75547 0
M  V30 7300 H 683.389 -1.25594 -0.809111 0
M  V30 7301 H 685.271 -1.41916 -3.96784 0
M  V30 7302 H 683.946 -0.504488 -3.19745 0
M  V30 7303 H 682.853 -2.73136 -2.55632 0
M  V30 7304 H 684.186 -3.58014 -3.37768 0
M  V30 7305 N 685.838 0.888903 -1.30139 0
M  V30 7306 C 687.249 1.45578 -1.16893 0
M  V30 7307 C 687.6 1.94825 0.231866 0
M  V30 7308 O 686.725 1.84661 1.12824 0
M  V30 7309 C 687.32 2.646 -2.11595 0
M  V30 7310 C 685.879 3.17389 -2.02339 0
M  V30 7311 C 685.026 1.90081 -2.01902 0
M  V30 7312 H 687.977 0.69921 -1.42467 0
M  V30 7313 H 687.998 3.40687 -1.69449 0
M  V30 7314 H 687.51 2.28726 -3.13538 0
M  V30 7315 H 685.611 3.5793 -1.03523 0
M  V30 7316 H 685.724 3.80955 -2.90534 0
M  V30 7317 H 684.088 2.08246 -1.46648 0
M  V30 7318 H 684.871 1.5647 -3.05568 0
M  V30 7319 N 687.317 1.12792 1.10072 0
M  V30 7320 C 688.566 0.880232 1.81479 0
M  V30 7321 C 688.879 -0.595575 1.86312 0
M  V30 7322 O 690.085 -0.959979 2.53962 0
M  V30 7323 C 688.541 1.52514 3.25987 0
M  V30 7324 C 688.149 3.036 3.29441 0
M  V30 7325 C 689.893 1.35788 4.02196 0
M  V30 7326 C 687.8 3.61007 4.68431 0
M  V30 7327 H 686.73 0.325654 0.680048 0
M  V30 7328 H 689.381 1.35485 1.23758 0
M  V30 7329 H 687.763 0.978188 3.83728 0
M  V30 7330 H 688.937 3.64819 2.81502 0
M  V30 7331 H 687.252 3.19765 2.66719 0
M  V30 7332 H 689.849 1.76096 5.0487 0
M  V30 7333 H 690.192 0.301972 4.15203 0
M  V30 7334 H 690.725 1.87426 3.50879 0
M  V30 7335 H 687.464 4.66375 4.60625 0
M  V30 7336 H 686.984 3.04564 5.16721 0
M  V30 7337 H 688.663 3.60289 5.37402 0
M  V30 7338 N 688.795 -1.27931 0.920396 0
M  V30 7339 C 689.742 -2.27085 0.412422 0
M  V30 7340 C 690.712 -1.57858 -0.516725 0
M  V30 7341 O 691.897 -1.85717 -0.437475 0
M  V30 7342 C 689.037 -3.43466 -0.335399 0
M  V30 7343 C 688.15 -4.27425 0.627017 0
M  V30 7344 C 687.285 -5.31016 -0.139916 0
M  V30 7345 C 686.324 -6.06641 0.815683 0
M  V30 7346 N 685.461 -7.02052 0.0818439 0
M  V30 7347 H 690.301 -2.69913 1.26298 0
M  V30 7348 H 687.838 -1.32732 0.634076 0
M  V30 7349 H 689.796 -4.09744 -0.785226 0
M  V30 7350 H 688.426 -3.01611 -1.15025 0
M  V30 7351 H 687.478 -3.6113 1.19537 0
M  V30 7352 H 688.79 -4.79969 1.35763 0
M  V30 7353 H 687.944 -6.03208 -0.649998 0
M  V30 7354 H 686.683 -4.79257 -0.903543 0
M  V30 7355 H 685.688 -5.33294 1.33708 0
M  V30 7356 H 686.913 -6.60489 1.57897 0
M  V30 7357 H 684.859 -6.52634 -0.663671 0
M  V30 7358 H 684.776 -7.52249 0.752163 0
M  V30 7359 H 686.044 -7.78432 -0.407825 0
M  V30 7360 N 690.273 -0.685099 -1.4193 0
M  V30 7361 C 691.521 -0.21124 -2.00993 0
M  V30 7362 C 691.842 1.18985 -1.54491 0
M  V30 7363 O 691.112 1.8009 -0.771 0
M  V30 7364 H 689.692 -0.0751059 -0.743215 0
M  V30 7365 H 692.354 -0.883915 -1.73704 0
M  V30 7366 H 691.45 -0.220513 -3.1132 0
M  V30 7367 N 691.751 1.51645 -0.429126 0
M  V30 7368 C 693.028 1.94579 0.199614 0
M  V30 7369 C 693.408 1.3673 1.60836 0
M  V30 7370 O 692.756 0.551062 2.21756 0
M  V30 7371 C 692.966 3.48506 0.185685 0
M  V30 7372 C 694.314 4.22756 0.395282 0
M  V30 7373 O 695.338 3.55219 0.264165 0
M  V30 7374 O 694.197 5.42555 0.655475 0
M  V30 7375 H 691.291 0.816007 0.134393 0
M  V30 7376 H 693.837 1.62577 -0.486513 0
M  V30 7377 H 692.609 3.83045 -0.799508 0
M  V30 7378 H 692.232 3.86927 0.91507 0
M  V30 7379 N 693.229 0.160201 1.56784 0
M  V30 7380 C 694.475 -0.48831 1.96833 0
M  V30 7381 C 694.808 -1.63641 1.04571 0
M  V30 7382 O 694.083 -1.94289 0.0906481 0
M  V30 7383 C 694.366 -0.981908 3.46454 0
M  V30 7384 C 694.219 0.165607 4.49495 0
M  V30 7385 C 695.538 -1.85931 3.98896 0
M  V30 7386 H 692.657 -0.176027 0.71567 0
M  V30 7387 H 695.299 0.244093 1.88426 0
M  V30 7388 H 693.449 -1.60602 3.5375 0
M  V30 7389 H 695.121 0.802372 4.54268 0
M  V30 7390 H 693.364 0.822789 4.25926 0
M  V30 7391 H 694.035 -0.221699 5.51555 0
M  V30 7392 H 696.511 -1.33327 3.94161 0
M  V30 7393 H 695.387 -2.17373 5.04024 0
M  V30 7394 H 695.648 -2.80106 3.42042 0
M  V30 7395 N 694.707 -1.5719 -0.113559 0
M  V30 7396 C 695.637 -2.03772 -1.14013 0
M  V30 7397 C 696.618 -0.923176 -1.42869 0
M  V30 7398 O 697.803 -1.19325 -1.53216 0
M  V30 7399 C 694.933 -2.44663 -2.4649 0
M  V30 7400 C 693.887 -3.59612 -2.32085 0
M  V30 7401 C 693.213 -3.8642 -3.69573 0
M  V30 7402 C 694.513 -4.91149 -1.7768 0
M  V30 7403 H 696.207 -2.89785 -0.752665 0
M  V30 7404 H 693.753 -1.39412 -0.360609 0
M  V30 7405 H 695.706 -2.75857 -3.18561 0
M  V30 7406 H 694.43 -1.55628 -2.87137 0
M  V30 7407 H 693.089 -3.28636 -1.62461 0
M  V30 7408 H 692.737 -2.94581 -4.07715 0
M  V30 7409 H 692.437 -4.63797 -3.60786 0
M  V30 7410 H 693.961 -4.2007 -4.4314 0
M  V30 7411 H 695.375 -5.20843 -2.39574 0
M  V30 7412 H 693.772 -5.72562 -1.79701 0
M  V30 7413 H 694.842 -4.79301 -0.734776 0
M  V30 7414 N 696.185 0.383891 -1.52853 0
M  V30 7415 C 697.133 1.48965 -1.7864 0
M  V30 7416 C 698.127 1.56242 -0.654577 0
M  V30 7417 O 699.333 1.59347 -0.83716 0
M  V30 7418 H 695.708 0.495892 -0.565328 0
M  V30 7419 H 697.679 1.24411 -2.71228 0
M  V30 7420 C 696.428 2.86036 -1.97683 0
M  V30 7421 H 695.751 2.81188 -2.84206 0
M  V30 7422 H 697.191 3.62632 -2.19713 0
M  V30 7423 C 695.65 3.28428 -0.750776 0
M  V30 7424 O 696.18 4.0164 0.0693491 0
M  V30 7425 N 694.386 2.84765 -0.579427 0
M  V30 7426 H 693.933 2.25353 -1.24795 0
M  V30 7427 H 693.891 3.13486 0.239544 0
M  V30 7428 N 697.663 1.43903 0.642637 0
M  V30 7429 C 698.893 1.49323 1.4278 0
M  V30 7430 C 699.301 0.113058 1.88862 0
M  V30 7431 O 698.644 -0.889089 1.60751 0
M  V30 7432 C 698.706 2.3861 2.68897 0
M  V30 7433 C 698.37 3.85976 2.44687 0
M  V30 7434 C 699.367 4.7681 2.07239 0
M  V30 7435 C 697.052 4.30567 2.58683 0
M  V30 7436 C 699.046 6.10234 1.841 0
M  V30 7437 C 696.733 5.64042 2.35159 0
M  V30 7438 C 697.731 6.53693 1.97925 0
M  V30 7439 O 697.419 7.84698 1.74654 0
M  V30 7440 H 697.151 0.509109 0.444729 0
M  V30 7441 H 699.705 1.89425 0.794195 0
M  V30 7442 H 697.935 1.93415 3.34855 0
M  V30 7443 H 699.624 2.35112 3.30873 0
M  V30 7444 H 700.39 4.43635 1.95993 0
M  V30 7445 H 696.269 3.61054 2.86637 0
M  V30 7446 H 699.813 6.80171 1.54962 0
M  V30 7447 H 695.71 5.96782 2.46011 0
M  V30 7448 H 696.478 7.96382 1.88993 0
M  V30 7449 N 699.141 -0.881989 1.30609 0
M  V30 7450 C 700.418 -1.61563 1.10258 0
M  V30 7451 C 700.798 -2.08228 -0.347053 0
M  V30 7452 O 700.146 -1.85151 -1.33908 0
M  V30 7453 C 700.356 -2.78287 2.10612 0
M  V30 7454 C 701.704 -3.48545 2.4249 0
M  V30 7455 O 702.728 -2.88479 2.08945 0
M  V30 7456 O 701.587 -4.56873 2.99883 0
M  V30 7457 H 698.681 -0.710238 0.423663 0
M  V30 7458 H 701.227 -0.928503 1.42045 0
M  V30 7459 H 699.999 -2.41131 3.08174 0
M  V30 7460 H 699.622 -3.54695 1.79659 0
M  V30 7461 N 700.619 -1.13374 -1.09472 0
M  V30 7462 C 701.529 -0.824029 -2.19652 0
M  V30 7463 C 702.545 0.19118 -1.72947 0
M  V30 7464 O 703.721 0.0223464 -2.01388 0
M  V30 7465 C 700.786 -0.294009 -3.45451 0
M  V30 7466 C 699.847 -1.3704 -4.0684 0
M  V30 7467 C 699.08 -0.86558 -5.26634 0
M  V30 7468 O 699.303 0.29702 -5.69626 0
M  V30 7469 O 698.237 -1.63968 -5.79136 0
M  V30 7470 H 702.063 -1.74454 -2.48595 0
M  V30 7471 H 699.648 -0.911155 -1.18399 0
M  V30 7472 H 701.53 -0.00381039 -4.214 0
M  V30 7473 H 700.205 0.598921 -3.18111 0
M  V30 7474 H 699.112 -1.71391 -3.3253 0
M  V30 7475 H 700.445 -2.23746 -4.38405 0
M  V30 7476 N 702.098 1.27442 -0.927168 0
M  V30 7477 C 703.344 1.94679 -0.568164 0
M  V30 7478 C 703.677 1.72697 0.888219 0
M  V30 7479 O 702.952 1.05573 1.63354 0
M  V30 7480 C 703.235 3.4882 -0.894253 0
M  V30 7481 C 703.088 3.80146 -2.40435 0
M  V30 7482 C 704.407 4.38281 -0.399766 0
M  V30 7483 H 701.526 0.707071 -0.207892 0
M  V30 7484 H 704.168 1.50568 -1.15885 0
M  V30 7485 H 702.318 3.86522 -0.391566 0
M  V30 7486 H 703.99 3.52238 -2.97869 0
M  V30 7487 H 702.233 3.26716 -2.85375 0
M  V30 7488 H 702.904 4.87835 -2.58304 0
M  V30 7489 H 705.38 4.07726 -0.83058 0
M  V30 7490 H 704.256 5.44955 -0.656885 0
M  V30 7491 H 704.517 4.36521 0.700153 0
M  V30 7492 N 703.576 0.692616 1.41565 0
M  V30 7493 C 704.509 -0.025063 2.28186 0
M  V30 7494 C 705.487 -0.790912 1.42068 0
M  V30 7495 O 706.671 -0.782344 1.71498 0
M  V30 7496 C 703.798 -1.04285 3.22246 0
M  V30 7497 C 702.844 -0.370515 4.24888 0
M  V30 7498 S 703.677 0.884942 5.28137 0
M  V30 7499 C 704.833 -0.131324 6.25762 0
M  V30 7500 H 705.066 0.709626 2.88707 0
M  V30 7501 H 702.599 0.482783 1.46658 0
M  V30 7502 H 704.557 -1.62493 3.7697 0
M  V30 7503 H 703.218 -1.7501 2.60827 0
M  V30 7504 H 702.411 -1.13911 4.90959 0
M  V30 7505 H 702.013 0.138411 3.73744 0
M  V30 7506 H 704.305 -0.985527 6.70294 0
M  V30 7507 H 705.248 0.495384 7.06365 0
M  V30 7508 H 705.656 -0.484777 5.62415 0
M  V30 7509 N 705.054 -1.51416 0.437162 0
M  V30 7510 C 705.964 -2.31493 -0.380537 0
M  V30 7511 C 706.98 -1.40399 -1.02782 0
M  V30 7512 O 708.156 -1.73471 -1.02323 0
M  V30 7513 C 705.221 -3.1413 -1.46709 0
M  V30 7514 C 704.282 -4.21003 -0.839953 0
M  V30 7515 C 703.515 -4.9969 -1.87473 0
M  V30 7516 O 703.738 -4.79008 -3.09689 0
M  V30 7517 O 702.672 -5.8379 -1.46536 0
M  V30 7518 H 706.498 -3.02469 0.273183 0
M  V30 7519 H 704.083 -1.48059 0.199706 0
M  V30 7520 H 705.965 -3.65505 -2.09724 0
M  V30 7521 H 704.64 -2.45919 -2.10489 0
M  V30 7522 H 703.547 -3.73706 -0.171752 0
M  V30 7523 H 704.88 -4.91587 -0.245638 0
M  V30 7524 N 706.532 -0.168513 -1.56696 0
M  V30 7525 C 707.948 0.187686 -1.58493 0
M  V30 7526 C 708.148 1.63063 -1.18375 0
M  V30 7527 O 707.204 2.36142 -0.894042 0
M  V30 7528 C 708.517 -0.0905858 -3.00564 0
M  V30 7529 C 710.065 -0.028575 -3.12987 0
M  V30 7530 C 710.54 -0.279799 -4.57145 0
M  V30 7531 N 712.031 -0.227476 -4.62641 0
M  V30 7532 C 712.766 -0.396073 -5.7203 0
M  V30 7533 N 712.262 -0.623572 -6.89988 0
M  V30 7534 N 714.055 -0.332173 -5.61118 0
M  V30 7535 H 706.206 -1.11042 -1.81062 0
M  V30 7536 H 708.469 -0.441235 -0.839056 0
M  V30 7537 H 708.175 -1.09006 -3.34381 0
M  V30 7538 H 708.049 0.619078 -3.72085 0
M  V30 7539 H 710.436 0.961471 -2.78998 0
M  V30 7540 H 710.517 -0.770905 -2.43907 0
M  V30 7541 H 710.161 -1.26704 -4.91842 0
M  V30 7542 H 710.091 0.48311 -5.24379 0
M  V30 7543 H 712.582 -0.0571723 -3.77857 0
M  V30 7544 H 712.895 -0.741745 -7.69232 0
M  V30 7545 H 711.24 -0.660153 -6.91858 0
M  V30 7546 H 714.431 -0.155051 -4.67843 0
M  V30 7547 H 714.604 -0.466994 -6.46315 0
M  V30 7548 N 708.01 1.57248 0.105221 0
M  V30 7549 C 708.943 1.96567 1.15916 0
M  V30 7550 C 709.921 0.837355 1.39381 0
M  V30 7551 O 711.105 1.09676 1.53308 0
M  V30 7552 C 708.232 2.27375 2.51035 0
M  V30 7553 C 707.278 3.49869 2.43913 0
M  V30 7554 S 708.111 5.01958 1.86543 0
M  V30 7555 C 709.267 5.35932 3.23307 0
M  V30 7556 H 709.5 2.85655 0.823931 0
M  V30 7557 H 707.033 1.51204 0.312515 0
M  V30 7558 H 708.991 2.45801 3.28774 0
M  V30 7559 H 707.652 1.38876 2.81731 0
M  V30 7560 H 706.845 3.68835 3.43477 0
M  V30 7561 H 706.447 3.30901 1.743 0
M  V30 7562 H 708.739 5.31958 4.19556 0
M  V30 7563 H 709.682 6.37047 3.09155 0
M  V30 7564 H 710.09 4.63397 3.22372 0
M  V30 7565 N 709.488 -0.375779 1.53054 0
M  V30 7566 C 710.765 -1.13453 1.59336 0
M  V30 7567 C 711.145 -2.07379 0.394614 0
M  V30 7568 O 710.493 -2.2004 -0.616 0
M  V30 7569 C 710.703 -1.8826 2.93869 0
M  V30 7570 C 712.051 -2.43155 3.48081 0
M  V30 7571 O 713.075 -1.984 2.95831 0
M  V30 7572 O 711.934 -3.24944 4.39401 0
M  V30 7573 H 709.028 -0.519856 0.643179 0
M  V30 7574 H 711.574 -0.379865 1.65394 0
M  V30 7575 H 710.346 -1.19652 3.72558 0
M  V30 7576 H 709.969 -2.70658 2.91256 0
M  V30 7577 N 710.966 -1.44241 -0.634997 0
M  V30 7578 C 711.916 -1.47247 -1.74076 0
M  V30 7579 C 712.9 -0.338708 -1.57295 0
M  V30 7580 O 714.092 -0.583751 -1.67097 0
M  V30 7581 C 711.221 -1.41579 -3.12746 0
M  V30 7582 C 710.307 -2.60055 -3.35011 0
M  V30 7583 N 710.698 -3.85321 -3.27661 0
M  V30 7584 C 708.996 -2.55168 -3.65794 0
M  V30 7585 C 709.697 -4.64241 -3.50508 0
M  V30 7586 N 708.673 -3.95254 -3.73196 0
M  V30 7587 H 712.475 -2.4195 -1.66845 0
M  V30 7588 H 709.989 -1.3915 -0.837326 0
M  V30 7589 H 711.986 -1.41816 -3.92038 0
M  V30 7590 H 710.646 -0.479108 -3.21146 0
M  V30 7591 H 711.657 -4.17345 -3.06665 0
M  V30 7592 H 708.334 -1.70276 -3.81198 0
M  V30 7593 H 709.724 -5.73267 -3.50449 0
M  V30 7594 N 712.444 0.87505 -1.31075 0
M  V30 7595 C 713.691 1.62768 -1.20469 0
M  V30 7596 C 714.019 1.93034 0.23834 0
M  V30 7597 O 713.274 1.55693 1.18567 0
M  V30 7598 C 713.573 2.96948 -1.98888 0
M  V30 7599 C 713.239 2.86195 -3.4843 0
M  V30 7600 C 711.901 2.82969 -3.89207 0
M  V30 7601 C 714.253 2.73599 -4.43614 0
M  V30 7602 C 711.581 2.64999 -5.23443 0
M  V30 7603 C 713.933 2.57166 -5.77969 0
M  V30 7604 C 712.597 2.52321 -6.17973 0
M  V30 7605 H 711.867 0.595611 -0.440827 0
M  V30 7606 H 714.514 1.01665 -1.62285 0
M  V30 7607 H 712.819 3.62058 -1.49737 0
M  V30 7608 H 714.516 3.54164 -1.88067 0
M  V30 7609 H 711.106 2.8952 -3.16032 0
M  V30 7610 H 715.29 2.7515 -4.13045 0
M  V30 7611 H 710.546 2.5967 -5.53517 0
M  V30 7612 H 714.72 2.46396 -6.51354 0
M  V30 7613 H 712.347 2.38156 -7.21932 0
M  V30 7614 N 713.922 1.13953 1.08869 0
M  V30 7615 C 714.855 0.765765 2.14968 0
M  V30 7616 C 715.833 -0.250689 1.60656 0
M  V30 7617 O 717.017 -0.140852 1.87973 0
M  V30 7618 C 714.144 0.136146 3.38426 0
M  V30 7619 C 713.19 1.12201 4.11477 0
M  V30 7620 S 714.023 2.65711 4.64928 0
M  V30 7621 C 715.179 2.04125 5.91679 0
M  V30 7622 H 715.412 1.66444 2.46341 0
M  V30 7623 H 712.945 0.960263 1.20906 0
M  V30 7624 H 714.903 -0.220712 4.09906 0
M  V30 7625 H 713.564 -0.739887 3.05261 0
M  V30 7626 H 712.757 0.629398 5.00055 0
M  V30 7627 H 712.359 1.42262 3.45886 0
M  V30 7628 H 714.651 1.39381 6.63008 0
M  V30 7629 H 715.594 2.90808 6.45629 0
M  V30 7630 H 716.002 1.4905 5.44467 0
M  V30 7631 N 715.4 -1.26948 0.933913 0
M  V30 7632 C 716.677 -1.89212 0.495784 0
M  V30 7633 C 717.057 -1.84469 -1.02637 0
M  V30 7634 O 716.405 -1.29409 -1.88323 0
M  V30 7635 C 716.615 -3.32865 1.0489 0
M  V30 7636 C 717.963 -4.09749 1.11315 0
M  V30 7637 O 718.987 -3.41905 0.998966 0
M  V30 7638 O 717.846 -5.31061 1.28983 0
M  V30 7639 H 714.94 -0.811284 0.160459 0
M  V30 7640 H 717.486 -1.35171 1.02601 0
M  V30 7641 H 716.258 -3.30642 2.09265 0
M  V30 7642 H 715.881 -3.94435 0.500692 0
M  V30 7643 N 716.879 -0.700114 -1.41195 0
M  V30 7644 C 718.125 -0.242122 -2.01954 0
M  V30 7645 C 718.48 1.14697 -1.54475 0
M  V30 7646 O 717.773 1.76392 -0.748095 0
M  V30 7647 C 717.967 -0.243986 -3.56566 0
M  V30 7648 C 717.796 -1.63172 -4.19053 0
M  V30 7649 C 716.566 -2.23566 -4.53152 0
M  V30 7650 C 718.764 -2.57916 -4.44954 0
M  V30 7651 N 716.746 -3.54856 -5.00949 0
M  V30 7652 C 718.117 -3.73892 -4.94576 0
M  V30 7653 C 720.172 -2.56125 -4.26971 0
M  V30 7654 C 718.875 -4.88363 -5.28104 0
M  V30 7655 C 720.901 -3.69712 -4.61592 0
M  V30 7656 C 720.263 -4.84418 -5.11389 0
M  V30 7657 H 716.362 -0.134088 -0.770418 0
M  V30 7658 H 718.946 -0.918576 -1.71669 0
M  V30 7659 H 717.117 0.401971 -3.86314 0
M  V30 7660 H 718.849 0.229261 -4.0405 0
M  V30 7661 H 715.604 -1.75809 -4.39759 0
M  V30 7662 H 716.028 -4.22167 -5.29249 0
M  V30 7663 H 720.67 -1.68656 -3.87705 0
M  V30 7664 H 718.388 -5.76488 -5.66292 0
M  V30 7665 H 721.974 -3.69583 -4.49332 0
M  V30 7666 H 720.854 -5.70855 -5.37675 0
M  V30 7667 N 718.357 1.51182 -0.445186 0
M  V30 7668 C 719.287 2.30821 0.352686 0
M  V30 7669 C 720.268 1.36576 1.01395 0
M  V30 7670 O 721.453 1.65497 1.01609 0
M  V30 7671 C 718.583 3.15593 1.44976 0
M  V30 7672 C 717.537 4.1818 0.911553 0
M  V30 7673 C 716.863 4.91523 2.10497 0
M  V30 7674 C 718.163 5.22266 -0.059418 0
M  V30 7675 H 719.857 2.97771 -0.311936 0
M  V30 7676 H 717.403 1.43201 -0.151461 0
M  V30 7677 H 719.356 3.70091 2.01521 0
M  V30 7678 H 718.08 2.4648 2.14278 0
M  V30 7679 H 716.739 3.64746 0.368264 0
M  V30 7680 H 716.387 4.18906 2.78437 0
M  V30 7681 H 716.087 5.60898 1.7512 0
M  V30 7682 H 717.611 5.48847 2.6758 0
M  V30 7683 H 719.025 5.71789 0.415985 0
M  V30 7684 H 717.422 5.99213 -0.326152 0
M  V30 7685 H 718.492 4.7461 -0.993631 0
M  V30 7686 N 719.835 0.176821 1.56605 0
M  V30 7687 C 720.798 -0.737429 2.17013 0
M  V30 7688 C 721.798 -1.15414 1.11965 0
M  V30 7689 O 722.988 -1.0702 1.37449 0
M  V30 7690 C 720.12 -2.00445 2.75744 0
M  V30 7691 H 721.313 -0.211455 2.99154 0
M  V30 7692 H 718.866 -0.0727582 1.56131 0
M  V30 7693 H 719.601 -2.57338 1.97352 0
M  V30 7694 H 719.386 -1.71456 3.52626 0
M  V30 7695 H 720.876 -2.65679 3.22187 0
M  V30 7696 N 721.313 -1.57302 -0.09688 0
M  V30 7697 C 722.26 -2.01933 -1.11766 0
M  V30 7698 C 723.23 -0.895329 -1.39904 0
M  V30 7699 O 724.415 -1.16119 -1.51397 0
M  V30 7700 C 721.555 -2.44726 -2.43317 0
M  V30 7701 C 720.668 -3.70639 -2.21925 0
M  V30 7702 C 719.803 -4.02318 -3.46862 0
M  V30 7703 C 718.842 -5.21346 -3.20725 0
M  V30 7704 N 717.979 -5.48787 -4.37924 0
M  V30 7705 H 722.819 -2.88919 -0.730075 0
M  V30 7706 H 720.356 -1.42901 -0.348962 0
M  V30 7707 H 722.314 -2.6758 -3.20088 0
M  V30 7708 H 720.944 -1.60753 -2.79926 0
M  V30 7709 H 719.996 -3.55271 -1.35965 0
M  V30 7710 H 721.308 -4.57557 -1.98603 0
M  V30 7711 H 720.462 -4.25939 -4.32042 0
M  V30 7712 H 719.201 -3.13918 -3.73238 0
M  V30 7713 H 718.206 -4.97547 -2.33938 0
M  V30 7714 H 719.431 -6.11343 -2.95697 0
M  V30 7715 H 717.377 -4.63346 -4.64378 0
M  V30 7716 H 717.294 -6.30073 -4.17785 0
M  V30 7717 H 718.562 -5.76943 -5.24173 0
M  V30 7718 N 722.791 0.367657 -1.53252 0
M  V30 7719 C 723.723 1.47032 -1.75824 0
M  V30 7720 C 724.736 1.49736 -0.63898 0
M  V30 7721 O 725.925 1.53253 -0.915193 0
M  V30 7722 C 723.025 2.85805 -1.82122 0
M  V30 7723 C 722.198 3.06822 -3.11736 0
M  V30 7724 C 721.257 4.25698 -3.09302 0
M  V30 7725 O 720.283 4.20972 -3.83107 0
M  V30 7726 N 721.485 5.33002 -2.29977 0
M  V30 7727 H 724.25 1.28048 -2.70968 0
M  V30 7728 H 721.811 0.557363 -1.52004 0
M  V30 7729 H 723.803 3.63465 -1.77975 0
M  V30 7730 H 722.373 2.98046 -0.942716 0
M  V30 7731 H 721.593 2.1684 -3.29202 0
M  V30 7732 H 722.881 3.17731 -3.97397 0
M  V30 7733 H 722.279 5.39703 -1.69521 0
M  V30 7734 H 720.836 6.09247 -2.3165 0
M  V30 7735 N 724.269 1.44576 0.627338 0
M  V30 7736 C 725.499 1.50829 1.41189 0
M  V30 7737 C 725.907 0.133083 1.88731 0
M  V30 7738 O 725.25 -0.87199 1.61685 0
M  V30 7739 C 725.312 2.41449 2.66351 0
M  V30 7740 C 724.976 3.88549 2.40579 0
M  V30 7741 C 725.973 4.78981 2.0217 0
M  V30 7742 C 723.658 4.33287 2.54102 0
M  V30 7743 C 725.652 6.12153 1.77618 0
M  V30 7744 C 723.339 5.66505 2.29163 0
M  V30 7745 C 724.337 6.55756 1.9098 0
M  V30 7746 O 724.025 7.86506 1.66321 0
M  V30 7747 H 723.757 0.513797 0.439304 0
M  V30 7748 H 726.311 1.90256 0.774059 0
M  V30 7749 H 724.541 1.96955 3.32784 0
M  V30 7750 H 726.23 2.38608 3.28361 0
M  V30 7751 H 726.996 4.45689 1.91277 0
M  V30 7752 H 722.875 3.64074 2.82792 0
M  V30 7753 H 726.419 6.81776 1.47739 0
M  V30 7754 H 722.316 5.99358 2.39668 0
M  V30 7755 H 723.084 7.98341 1.80536 0
M  V30 7756 N 725.747 -0.868086 1.31537 0
M  V30 7757 C 726.996 -1.61607 1.20689 0
M  V30 7758 C 727.309 -1.94204 -0.233275 0
M  V30 7759 O 728.515 -2.67515 -0.463465 0
M  V30 7760 C 726.971 -2.91348 2.11292 0
M  V30 7761 C 726.579 -2.66227 3.60315 0
M  V30 7762 C 728.323 -3.69344 2.09249 0
M  V30 7763 C 726.23 -3.91887 4.42921 0
M  V30 7764 H 725.16 -0.606373 0.448138 0
M  V30 7765 H 727.811 -0.959666 1.56405 0
M  V30 7766 H 726.193 -3.58374 1.68477 0
M  V30 7767 H 727.367 -2.07597 4.11388 0
M  V30 7768 H 725.682 -2.01582 3.64354 0
M  V30 7769 H 728.279 -4.62567 2.68209 0
M  V30 7770 H 728.622 -4.02044 1.0801 0
M  V30 7771 H 729.155 -3.09205 2.50274 0
M  V30 7772 H 725.894 -3.64336 5.44922 0
M  V30 7773 H 725.414 -4.49961 3.96605 0
M  V30 7774 H 727.093 -4.59754 4.55231 0
M  V30 7775 N 727.225 -1.14528 -1.08264 0
M  V30 7776 C 728.453 -0.937964 -1.84418 0
M  V30 7777 C 728.868 0.51357 -1.81681 0
M  V30 7778 O 728.225 1.35591 -1.22153 0
M  V30 7779 C 728.276 -1.43272 -3.31897 0
M  V30 7780 O 727.997 -2.82738 -3.34651 0
M  V30 7781 C 729.498 -1.26555 -4.24851 0
M  V30 7782 H 726.718 -0.333704 -0.582136 0
M  V30 7783 H 729.262 -1.52076 -1.36723 0
M  V30 7784 H 727.417 -0.892653 -3.76975 0
M  V30 7785 H 727.831 -3.04971 -4.26724 0
M  V30 7786 H 729.305 -1.66031 -5.26439 0
M  V30 7787 H 729.782 -0.208589 -4.38704 0
M  V30 7788 H 730.388 -1.79423 -3.856 0
M  V30 7789 N 728.703 1.26451 -0.940633 0
M  V30 7790 C 729.666 2.24651 -0.454378 0
M  V30 7791 C 730.666 1.54826 0.434222 0
M  V30 7792 O 731.856 1.72628 0.233477 0
M  V30 7793 C 728.988 3.39148 0.345192 0
M  V30 7794 H 730.181 2.69182 -1.32217 0
M  V30 7795 H 727.734 1.38596 -0.722547 0
M  V30 7796 H 728.469 3.00018 1.23125 0
M  V30 7797 H 728.254 3.9101 -0.292107 0
M  V30 7798 H 729.744 4.12103 0.675341 0
M  V30 7799 N 730.181 0.707592 1.40822 0
M  V30 7800 C 731.111 0.0644925 2.33411 0
M  V30 7801 C 732.092 -0.754205 1.52466 0
M  V30 7802 O 733.277 -0.704749 1.80961 0
M  V30 7803 C 730.407 -0.863865 3.36385 0
M  V30 7804 C 729.361 -0.15138 4.27732 0
M  V30 7805 C 728.687 -1.19491 5.21177 0
M  V30 7806 C 729.987 0.989607 5.12839 0
M  V30 7807 H 731.681 0.837829 2.87438 0
M  V30 7808 H 729.227 0.404346 1.38207 0
M  V30 7809 H 731.18 -1.32309 4.0009 0
M  V30 7810 H 729.904 -1.66901 2.80734 0
M  V30 7811 H 728.563 0.287937 3.65467 0
M  V30 7812 H 728.211 -1.9929 4.61836 0
M  V30 7813 H 727.911 -0.723123 5.83134 0
M  V30 7814 H 729.435 -1.6544 5.8776 0
M  V30 7815 H 730.849 0.610114 5.70044 0
M  V30 7816 H 729.246 1.38926 5.83798 0
M  V30 7817 H 730.316 1.82389 4.49291 0
M  V30 7818 N 731.66 -1.50943 0.453197 0
M  V30 7819 C 732.608 -2.29728 -0.364419 0
M  V30 7820 C 733.602 -1.36246 -1.00664 0
M  V30 7821 O 734.808 -1.53518 -0.939794 0
M  V30 7822 H 731.183 -0.739536 -0.136347 0
M  V30 7823 H 733.154 -2.96672 0.320696 0
M  V30 7824 C 731.903 -3.1629 -1.44415 0
M  V30 7825 H 731.226 -3.88119 -0.959343 0
M  V30 7826 H 732.666 -3.74444 -1.98917 0
M  V30 7827 C 731.125 -2.32702 -2.43622 0
M  V30 7828 O 731.655 -1.99763 -3.48508 0
M  V30 7829 N 729.861 -1.95621 -2.14897 0
M  V30 7830 H 729.408 -2.22607 -1.29629 0
M  V30 7831 H 729.366 -1.39993 -2.81513 0
M  V30 7832 N 733.138 -0.185124 -1.56509 0
M  V30 7833 C 734.387 0.456421 -1.96468 0
M  V30 7834 C 734.7 1.63448 -1.07444 0
M  V30 7835 O 735.906 2.34316 -1.37143 0
M  V30 7836 C 734.362 0.863404 -3.4939 0
M  V30 7837 C 733.97 -0.289815 -4.47062 0
M  V30 7838 C 735.714 1.47259 -3.98139 0
M  V30 7839 C 733.621 0.137571 -5.9124 0
M  V30 7840 H 732.551 0.17429 -0.733579 0
M  V30 7841 H 735.202 -0.275554 -1.81419 0
M  V30 7842 H 733.584 1.65176 -3.59907 0
M  V30 7843 H 734.758 -1.06728 -4.4827 0
M  V30 7844 H 733.073 -0.809851 -4.08449 0
M  V30 7845 H 735.67 1.80463 -5.03326 0
M  V30 7846 H 736.013 2.3755 -3.41871 0
M  V30 7847 H 736.546 0.748405 -3.90696 0
M  V30 7848 H 733.285 -0.730907 -6.51412 0
M  V30 7849 H 732.805 0.8801 -5.93308 0
M  V30 7850 H 734.484 0.576771 -6.44424 0
M  V30 7851 N 734.616 1.57351 0.0885366 0
M  V30 7852 C 735.865 1.85604 0.789556 0
M  V30 7853 C 736.178 0.775352 1.79576 0
M  V30 7854 O 737.384 0.945206 2.54515 0
M  V30 7855 C 735.84 3.29175 1.45506 0
M  V30 7856 C 735.448 4.45331 0.488278 0
M  V30 7857 C 737.192 3.66646 2.13942 0
M  V30 7858 C 735.099 5.79937 1.15874 0
M  V30 7859 H 734.029 0.692346 0.298619 0
M  V30 7860 H 736.68 1.83451 0.0425821 0
M  V30 7861 H 735.062 3.25889 2.24972 0
M  V30 7862 H 736.236 4.59977 -0.275359 0
M  V30 7863 H 734.551 4.16301 -0.0907363 0
M  V30 7864 H 737.148 4.64498 2.6485 0
M  V30 7865 H 737.491 2.956 2.93132 0
M  V30 7866 H 738.024 3.71848 1.41328 0
M  V30 7867 H 734.763 6.54232 0.407508 0
M  V30 7868 H 734.283 5.69123 1.89364 0
M  V30 7869 H 735.962 6.24718 1.68336 0
M  V30 7870 N 736.094 -0.359525 1.53444 0
M  V30 7871 C 737.044 -1.441 1.7669 0
M  V30 7872 C 738.028 -1.48408 0.621599 0
M  V30 7873 O 739.22 -1.53547 0.880468 0
M  V30 7874 C 736.349 -2.81455 1.96566 0
M  V30 7875 C 735.435 -2.81601 3.17115 0
M  V30 7876 N 735.826 -2.51388 4.38905 0
M  V30 7877 C 734.124 -3.12758 3.1796 0
M  V30 7878 C 734.825 -2.59365 5.20677 0
M  V30 7879 N 733.801 -2.94328 4.57025 0
M  V30 7880 H 737.603 -1.19613 2.68458 0
M  V30 7881 H 735.117 -0.567761 1.52152 0
M  V30 7882 H 737.114 -3.59357 2.11348 0
M  V30 7883 H 735.774 -3.06901 1.06029 0
M  V30 7884 H 736.785 -2.24873 4.66533 0
M  V30 7885 H 733.462 -3.43479 2.37336 0
M  V30 7886 H 734.852 -2.39301 6.27841 0
M  V30 7887 N 737.572 -1.44907 -0.619662 0
M  V30 7888 C 738.802 -1.51575 -1.40387 0
M  V30 7889 C 739.21 -0.14309 -1.88658 0
M  V30 7890 O 738.553 0.863403 -1.62145 0
M  V30 7891 C 738.615 -2.42858 -2.65067 0
M  V30 7892 C 738.279 -3.8982 -2.38515 0
M  V30 7893 C 739.276 -4.80047 -1.99627 0
M  V30 7894 C 736.961 -4.34628 -2.51801 0
M  V30 7895 C 738.955 -6.13086 -1.74369 0
M  V30 7896 C 736.642 -5.67712 -2.26156 0
M  V30 7897 C 737.64 -6.56759 -1.875 0
M  V30 7898 O 737.328 -7.87377 -1.62148 0
M  V30 7899 H 737.06 -0.51612 -0.436573 0
M  V30 7900 H 739.614 -1.90664 -0.763959 0
M  V30 7901 H 737.844 -1.98717 -3.31735 0
M  V30 7902 H 739.533 -2.40346 -3.27091 0
M  V30 7903 H 740.299 -4.46697 -1.8891 0
M  V30 7904 H 736.178 -3.65568 -2.80857 0
M  V30 7905 H 739.722 -6.8255 -1.44122 0
M  V30 7906 H 735.619 -6.0062 -2.36486 0
M  V30 7907 H 736.387 -7.99288 -1.763 0
M  V30 7908 N 739.05 0.861098 -1.31996 0
M  V30 7909 C 739.983 1.97266 -1.14724 0
M  V30 7910 C 740.961 1.62528 -0.0483789 0
M  V30 7911 O 742.145 1.87366 -0.206478 0
M  V30 7912 C 739.272 3.30181 -0.754861 0
M  V30 7913 C 738.318 3.839 -1.85804 0
M  V30 7914 S 739.151 4.08274 -3.46515 0
M  V30 7915 C 740.307 5.44174 -3.09235 0
M  V30 7916 H 740.54 2.11614 -2.08822 0
M  V30 7917 H 738.073 1.01232 -1.16582 0
M  V30 7918 H 740.031 4.06996 -0.535232 0
M  V30 7919 H 738.692 3.13655 0.167155 0
M  V30 7920 H 737.885 4.80013 -1.53633 0
M  V30 7921 H 737.487 3.13907 -2.03318 0
M  V30 7922 H 739.779 6.26172 -2.58679 0
M  V30 7923 H 740.722 5.81301 -4.04345 0
M  V30 7924 H 741.13 5.0787 -2.46431 0
M  V30 7925 N 740.528 1.15101 1.07655 0
M  V30 7926 C 741.478 0.813448 2.12995 0
M  V30 7927 C 742.462 -0.200899 1.59641 0
M  V30 7928 O 743.654 -0.00209918 1.77 0
M  V30 7929 C 740.783 0.301078 3.41977 0
M  V30 7930 C 739.869 1.3454 4.02194 0
M  V30 7931 N 740.26 2.55181 4.36711 0
M  V30 7932 C 738.558 1.19742 4.29625 0
M  V30 7933 C 739.259 3.22094 4.84387 0
M  V30 7934 N 738.235 2.49486 4.82968 0
M  V30 7935 H 742.037 1.73105 2.37511 0
M  V30 7936 H 739.551 1.03601 1.25063 0
M  V30 7937 H 741.548 0.040914 4.1688 0
M  V30 7938 H 740.208 -0.610629 3.18907 0
M  V30 7939 H 741.219 2.92349 4.27496 0
M  V30 7940 H 737.896 0.345353 4.16069 0
M  V30 7941 H 739.286 4.24996 5.20411 0
M  V30 7942 N 742.006 -1.2595 0.947325 0
M  V30 7943 C 743.283 -1.88676 0.515824 0
M  V30 7944 C 743.663 -1.85547 -1.00675 0
M  V30 7945 O 743.011 -1.31399 -1.8694 0
M  V30 7946 C 743.221 -3.31734 1.08415 0
M  V30 7947 C 744.569 -4.08545 1.15654 0
M  V30 7948 O 745.593 -3.40826 1.03517 0
M  V30 7949 O 744.452 -5.29663 1.34608 0
M  V30 7950 H 741.546 -0.809537 0.169055 0
M  V30 7951 H 744.092 -1.34075 1.04029 0
M  V30 7952 H 742.864 -3.28404 2.1276 0
M  V30 7953 H 742.487 -3.93882 0.542499 0
M  V30 7954 N 743.484 -0.715051 -1.40445 0
M  V30 7955 C 744.431 -0.0621393 -2.30716 0
M  V30 7956 C 745.401 0.750871 -1.48159 0
M  V30 7957 O 746.586 0.714928 -1.76899 0
M  V30 7958 C 743.726 0.854036 -3.34365 0
M  V30 7959 C 742.839 0.0305565 -4.31989 0
M  V30 7960 C 741.974 0.946162 -5.22706 0
M  V30 7961 C 741.013 0.116741 -6.11989 0
M  V30 7962 N 740.15 0.987194 -6.95125 0
M  V30 7963 H 744.99 -0.83764 -2.85985 0
M  V30 7964 H 742.527 -0.424759 -1.40834 0
M  V30 7965 H 744.485 1.39946 -3.93028 0
M  V30 7966 H 743.115 1.59572 -2.806 0
M  V30 7967 H 742.167 -0.632044 -3.75112 0
M  V30 7968 H 743.479 -0.611615 -4.95036 0
M  V30 7969 H 742.633 1.56014 -5.86297 0
M  V30 7970 H 741.372 1.62216 -4.59932 0
M  V30 7971 H 740.377 -0.510176 -5.47428 0
M  V30 7972 H 741.602 -0.555742 -6.76822 0
M  V30 7973 H 739.548 1.64885 -6.3494 0
M  V30 7974 H 739.465 0.401046 -7.54936 0
M  V30 7975 H 740.733 1.58737 -7.63166 0
M  V30 7976 N 744.962 1.50701 -0.461195 0
M  V30 7977 C 746.192 2.06381 0.0950376 0
M  V30 7978 C 746.6 1.32627 1.34933 0
M  V30 7979 O 745.943 0.386137 1.79596 0
M  V30 7980 C 746.005 3.56558 0.458965 0
M  V30 7981 C 745.669 4.51732 -0.691891 0
M  V30 7982 C 746.666 4.95594 -1.57105 0
M  V30 7983 C 744.351 4.94542 -0.879407 0
M  V30 7984 C 746.345 5.80963 -2.62223 0
M  V30 7985 C 744.032 5.79695 -1.93382 0
M  V30 7986 C 745.03 6.22806 -2.80359 0
M  V30 7987 O 744.718 7.06265 -3.83986 0
M  V30 7988 H 744.45 0.676 0.000687488 0
M  V30 7989 H 747.004 1.94974 -0.646087 0
M  V30 7990 H 745.234 3.65832 1.25314 0
M  V30 7991 H 746.923 3.94647 0.949124 0
M  V30 7992 H 747.689 4.63197 -1.43783 0
M  V30 7993 H 743.568 4.60513 -0.211907 0
M  V30 7994 H 747.112 6.14533 -3.30143 0
M  V30 7995 H 743.009 6.11506 -2.06715 0
M  V30 7996 H 743.777 7.24494 -3.80855 0
M  V30 7997 N 746.441 0.193421 1.56409 0
M  V30 7998 C 747.666 -0.454552 2.02358 0
M  V30 7999 C 748.091 -1.54516 1.07268 0
M  V30 8000 O 747.449 -1.81214 0.0558962 0
M  V30 8001 C 747.497 -0.989469 3.46759 0
M  V30 8002 O 746.601 -2.10244 3.54783 0
M  V30 8003 H 745.942 -0.106417 0.655417 0
M  V30 8004 H 748.472 0.303807 2.02332 0
M  V30 8005 H 748.482 -1.30649 3.86516 0
M  V30 8006 H 747.157 -0.191083 4.15461 0
M  V30 8007 H 745.734 -1.79419 3.26899 0
M  V30 8008 N 747.919 -1.57396 -0.0801906 0
M  V30 8009 C 749.149 -1.90778 -0.792924 0
M  V30 8010 C 749.557 -0.786814 -1.72064 0
M  V30 8011 O 748.9 0.249259 -1.82001 0
M  V30 8012 C 748.962 -3.19552 -1.64702 0
M  V30 8013 C 748.626 -4.48259 -0.889567 0
M  V30 8014 C 749.623 -5.19465 -0.212602 0
M  V30 8015 C 747.308 -4.94896 -0.859229 0
M  V30 8016 C 749.302 -6.35555 0.484566 0
M  V30 8017 C 746.989 -6.10895 -0.158284 0
M  V30 8018 C 747.987 -6.81075 0.512421 0
M  V30 8019 O 747.675 -7.94862 1.20209 0
M  V30 8020 H 747.407 -0.63527 -0.231103 0
M  V30 8021 H 749.961 -2.0532 -0.0573081 0
M  V30 8022 H 748.191 -3.01196 -2.42524 0
M  V30 8023 H 749.88 -3.38649 -2.23767 0
M  V30 8024 H 750.646 -4.84467 -0.227403 0
M  V30 8025 H 746.525 -4.4015 -1.37073 0
M  V30 8026 H 750.069 -6.9027 1.00864 0
M  V30 8027 H 745.966 -6.45345 -0.141381 0
M  V30 8028 H 746.734 -8.10932 1.11051 0
M  V30 8029 N 749.397 0.351382 -1.53633 0
M  V30 8030 C 750.307 1.45471 -1.84052 0
M  V30 8031 C 751.323 1.57945 -0.730015 0
M  V30 8032 O 752.499 1.73571 -1.02153 0
M  V30 8033 C 749.564 2.80562 -2.03681 0
M  V30 8034 C 748.625 2.77497 -3.27558 0
M  V30 8035 C 747.858 4.06144 -3.46241 0
M  V30 8036 O 748.081 5.03028 -2.68922 0
M  V30 8037 O 747.015 4.11092 -4.39645 0
M  V30 8038 H 750.841 1.22684 -2.77817 0
M  V30 8039 H 748.426 0.542827 -1.3919 0
M  V30 8040 H 750.308 3.6058 -2.18082 0
M  V30 8041 H 748.983 3.03296 -1.13106 0
M  V30 8042 H 747.89 1.96126 -3.18568 0
M  V30 8043 H 749.223 2.59716 -4.18101 0
M  V30 8044 N 750.875 1.45233 0.611969 0
M  V30 8045 C 751.838 1.53189 1.70487 0
M  V30 8046 C 752.838 0.411839 1.55437 0
M  V30 8047 O 754.028 0.675164 1.60584 0
M  V30 8048 C 751.16 1.42422 3.09723 0
M  V30 8049 H 752.353 2.5056 1.64802 0
M  V30 8050 H 749.906 1.32609 0.827318 0
M  V30 8051 H 750.641 0.462185 3.2099 0
M  V30 8052 H 750.426 2.23658 3.22055 0
M  V30 8053 H 751.916 1.51012 3.89339 0
M  V30 8054 N 752.353 -0.854086 1.3245 0
M  V30 8055 C 753.578 -1.64597 1.26185 0
M  V30 8056 C 754.003 -1.87357 -0.167074 0
M  V30 8057 O 753.361 -1.42675 -1.11864 0
M  V30 8058 C 753.409 -2.98213 2.02734 0
M  V30 8059 O 752.513 -3.88784 1.37554 0
M  V30 8060 H 751.854 -0.50179 0.434859 0
M  V30 8061 H 754.384 -1.06372 1.74775 0
M  V30 8062 H 754.394 -3.4803 2.1293 0
M  V30 8063 H 753.069 -2.80969 3.06642 0
M  V30 8064 H 751.646 -3.4725 1.3591 0
M  V30 8065 N 753.831 -1.1567 -1.07043 0
M  V30 8066 C 754.761 -0.879348 -2.16309 0
M  V30 8067 C 755.742 0.171311 -1.69235 0
M  V30 8068 O 756.927 0.0250175 -1.94184 0
M  V30 8069 C 754.057 -0.371307 -3.45309 0
M  V30 8070 C 753.011 -1.359 -4.05851 0
M  V30 8071 C 752.337 -0.709678 -5.29969 0
M  V30 8072 C 753.637 -2.72606 -4.45514 0
M  V30 8073 H 755.331 -1.79308 -2.39768 0
M  V30 8074 H 752.877 -0.863558 -1.15233 0
M  V30 8075 H 754.83 -0.164798 -4.21078 0
M  V30 8076 H 753.554 0.577906 -3.21446 0
M  V30 8077 H 752.213 -1.55193 -3.32131 0
M  V30 8078 H 751.861 0.245782 -5.02399 0
M  V30 8079 H 751.561 -1.36886 -5.71433 0
M  V30 8080 H 753.085 -0.513015 -6.08441 0
M  V30 8081 H 754.499 -2.57141 -5.12398 0
M  V30 8082 H 752.896 -3.34927 -4.97939 0
M  V30 8083 H 753.966 -3.28434 -3.56734 0
M  V30 8084 N 755.309 1.25446 -0.953992 0
M  V30 8085 C 756.242 2.24341 -0.417912 0
M  V30 8086 C 757.22 1.54709 0.5004 0
M  V30 8087 O 758.404 1.83414 0.434923 0
M  V30 8088 C 755.531 3.36352 0.398155 0
M  V30 8089 C 754.577 4.24007 -0.460461 0
M  V30 8090 S 755.41 5.00951 -1.89231 0
M  V30 8091 C 756.566 6.1643 -1.08465 0
M  V30 8092 H 756.799 2.69465 -1.25602 0
M  V30 8093 H 754.332 1.34512 -0.758018 0
M  V30 8094 H 756.29 4.01325 0.863059 0
M  V30 8095 H 754.951 2.89813 1.21108 0
M  V30 8096 H 754.144 5.03728 0.165415 0
M  V30 8097 H 753.746 3.63965 -0.860549 0
M  V30 8098 H 756.038 6.76681 -0.333017 0
M  V30 8099 H 756.981 6.8335 -1.85577 0
M  V30 8100 H 757.389 5.61139 -0.615062 0
M  V30 8101 N 756.787 0.722489 1.40064 0
M  V30 8102 C 757.75 0.0830209 2.2905 0
M  V30 8103 C 758.75 -0.680208 1.45705 0
M  V30 8104 O 759.94 -0.511084 1.66534 0
M  V30 8105 C 757.072 -0.892092 3.29021 0
M  V30 8106 H 758.265 0.866848 2.87099 0
M  V30 8107 H 755.818 0.487556 1.48501 0
M  V30 8108 H 756.553 -1.70273 2.76003 0
M  V30 8109 H 756.338 -0.34761 3.90556 0
M  V30 8110 H 757.828 -1.33648 3.95636 0
M  V30 8111 N 758.265 -1.50454 0.469181 0
M  V30 8112 C 759.195 -2.31353 -0.31592 0
M  V30 8113 C 760.176 -1.38172 -0.992094 0
M  V30 8114 O 761.361 -1.67093 -0.989633 0
M  V30 8115 C 758.491 -3.1786 -1.39937 0
M  V30 8116 C 757.445 -4.19578 -0.844909 0
M  V30 8117 C 756.771 -4.9481 -2.0265 0
M  V30 8118 C 758.071 -5.22106 0.142499 0
M  V30 8119 H 759.765 -2.97237 0.359269 0
M  V30 8120 H 757.311 -1.42942 0.174224 0
M  V30 8121 H 759.264 -3.7325 -1.95607 0
M  V30 8122 H 757.988 -2.49858 -2.1033 0
M  V30 8123 H 756.647 -3.65285 -0.310189 0
M  V30 8124 H 756.295 -4.23282 -2.71737 0
M  V30 8125 H 755.995 -5.63613 -1.66174 0
M  V30 8126 H 757.519 -5.53035 -2.58815 0
M  V30 8127 H 758.933 -5.72378 -0.324966 0
M  V30 8128 H 757.33 -5.98618 0.421441 0
M  V30 8129 H 758.4 -4.7297 1.06901 0
M  V30 8130 N 759.743 -0.201713 -1.56304 0
M  V30 8131 C 760.693 0.729444 -2.16016 0
M  V30 8132 C 761.677 1.17164 -1.10279 0
M  V30 8133 O 762.869 1.12893 -1.36324 0
M  V30 8134 C 759.998 1.94594 -2.82822 0
M  V30 8135 C 759.084 1.52434 -3.95758 0
M  V30 8136 N 759.475 0.814106 -4.99205 0
M  V30 8137 C 757.773 1.81314 -4.07481 0
M  V30 8138 C 758.474 0.601896 -5.78578 0
M  V30 8139 N 757.45 1.15263 -5.3124 0
M  V30 8140 H 761.252 0.178163 -2.93359 0
M  V30 8141 H 758.766 -0.00218038 -1.624 0
M  V30 8142 H 760.763 2.62357 -3.23998 0
M  V30 8143 H 759.423 2.50188 -2.06969 0
M  V30 8144 H 760.434 0.468872 -5.15773 0
M  V30 8145 H 757.111 2.3837 -3.42762 0
M  V30 8146 H 758.501 0.0380119 -6.71889 0
M  V30 8147 N 761.222 1.57436 0.0718424 0
M  V30 8148 C 762.499 1.78312 0.804006 0
M  V30 8149 C 762.879 0.789273 1.9579 0
M  V30 8150 O 762.227 -0.177605 2.27809 0
M  V30 8151 C 762.437 3.24798 1.277 0
M  V30 8152 C 763.785 3.88627 1.71039 0
M  V30 8153 O 764.809 3.28689 1.37266 0
M  V30 8154 O 763.668 4.94073 2.33567 0
M  V30 8155 H 760.762 0.73178 0.385262 0
M  V30 8156 H 763.308 1.69621 0.0519219 0
M  V30 8157 H 762.08 3.88688 0.45134 0
M  V30 8158 H 761.703 3.38213 2.0904 0
M  V30 8159 N 762.7 -0.34323 1.53817 0
M  V30 8160 C 764.116 -0.686355 1.44088 0
M  V30 8161 C 764.316 -1.92426 0.597882 0
M  V30 8162 O 763.372 -2.52343 0.0889918 0
M  V30 8163 C 764.685 -0.878698 2.87575 0
M  V30 8164 C 766.233 -0.977296 2.97352 0
M  V30 8165 C 766.708 -1.20195 4.41947 0
M  V30 8166 N 768.199 -1.26915 4.45474 0
M  V30 8167 C 768.934 -1.46049 5.54488 0
M  V30 8168 N 768.43 -1.62354 6.73508 0
M  V30 8169 N 770.223 -1.48599 5.42102 0
M  V30 8170 H 762.374 0.470679 2.07119 0
M  V30 8171 H 764.637 0.148652 0.936273 0
M  V30 8172 H 764.343 -0.040602 3.51677 0
M  V30 8173 H 764.217 -1.78034 3.32541 0
M  V30 8174 H 766.604 -1.80591 2.3339 0
M  V30 8175 H 766.685 -0.0525498 2.55746 0
M  V30 8176 H 766.329 -0.378262 5.06489 0
M  V30 8177 H 766.259 -2.14027 4.81145 0
M  V30 8178 H 768.75 -1.15837 3.59708 0
M  V30 8179 H 769.063 -1.76591 7.52353 0
M  V30 8180 H 767.408 -1.5949 6.76453 0
M  V30 8181 H 770.599 -1.35443 4.48077 0
M  V30 8182 H 770.772 -1.6317 6.2712 0
M  V30 8183 N 764.178 -1.45556 -0.604258 0
M  V30 8184 C 765.455 -1.40221 -1.36373 0
M  V30 8185 C 765.835 -0.0745195 -2.10968 0
M  V30 8186 O 765.183 0.943594 -2.08107 0
M  V30 8187 C 765.393 -2.61807 -2.30777 0
M  V30 8188 C 766.741 -3.07037 -2.93281 0
M  V30 8189 O 767.765 -2.62203 -2.41097 0
M  V30 8190 O 766.624 -3.8485 -3.88011 0
M  V30 8191 H 763.718 -0.556602 -0.611656 0
M  V30 8192 H 766.264 -1.57689 -0.627069 0
M  V30 8193 H 765.036 -3.50017 -1.74939 0
M  V30 8194 H 764.659 -2.46688 -3.11818 0
M  V30 8195 N 765.656 0.84705 -1.32902 0
M  V30 8196 C 766.902 1.60414 -1.24078 0
M  V30 8197 C 767.235 1.93217 0.195105 0
M  V30 8198 O 766.51 1.58001 1.13428 0
M  V30 8199 C 766.793 2.91951 -2.108 0
M  V30 8200 C 766.646 2.6588 -3.62805 0
M  V30 8201 C 767.965 3.93299 -1.97494 0
M  V30 8202 H 765.084 0.58206 -0.452079 0
M  V30 8203 H 767.726 0.977562 -1.62922 0
M  V30 8204 H 765.876 3.45425 -1.77802 0
M  V30 8205 H 767.548 2.18902 -4.06054 0
M  V30 8206 H 765.791 1.99716 -3.85092 0
M  V30 8207 H 766.462 3.59574 -4.1882 0
M  V30 8208 H 768.938 3.49105 -2.26417 0
M  V30 8209 H 767.814 4.8318 -2.60438 0
M  V30 8210 H 768.075 4.31887 -0.944782 0
M  V30 8211 N 767.134 1.16236 1.06428 0
M  V30 8212 C 768.383 0.937523 1.78587 0
M  V30 8213 C 768.696 -0.536 1.88113 0
M  V30 8214 O 769.902 -0.878697 2.56887 0
M  V30 8215 C 768.358 1.62808 3.2097 0
M  V30 8216 C 767.966 3.13927 3.19615 0
M  V30 8217 C 769.71 1.48515 3.97673 0
M  V30 8218 C 767.617 3.75727 4.56709 0
M  V30 8219 H 766.547 0.347125 0.669343 0
M  V30 8220 H 769.198 1.39353 1.19385 0
M  V30 8221 H 767.58 1.09977 3.80422 0
M  V30 8222 H 768.754 3.7359 2.69753 0
M  V30 8223 H 767.069 3.28089 2.56411 0
M  V30 8224 H 769.666 1.92069 4.99013 0
M  V30 8225 H 770.009 0.433913 4.14032 0
M  V30 8226 H 770.542 1.98494 3.44739 0
M  V30 8227 H 767.281 4.80793 4.45554 0
M  V30 8228 H 766.801 3.20849 5.0677 0
M  V30 8229 H 768.48 3.77203 5.25668 0
M  V30 8230 N 768.612 -1.24939 0.960631 0
M  V30 8231 C 770.028 -1.45039 0.666018 0
M  V30 8232 C 770.228 -1.86021 -0.774501 0
M  V30 8233 O 769.284 -1.99392 -1.54916 0
M  V30 8234 C 770.597 -2.51775 1.64408 0
M  V30 8235 C 772.145 -2.6561 1.65592 0
M  V30 8236 C 772.62 -3.75536 2.62177 0
M  V30 8237 N 774.111 -3.82954 2.60577 0
M  V30 8238 C 774.846 -4.67517 3.31987 0
M  V30 8239 N 774.342 -5.56321 4.1289 0
M  V30 8240 N 776.135 -4.61535 3.20845 0
M  V30 8241 H 768.286 -0.96632 1.89145 0
M  V30 8242 H 770.549 -0.486034 0.813926 0
M  V30 8243 H 770.255 -2.28534 2.67329 0
M  V30 8244 H 770.129 -3.49804 1.41128 0
M  V30 8245 H 772.516 -2.88212 0.633846 0
M  V30 8246 H 772.597 -1.67962 1.92931 0
M  V30 8247 H 772.241 -3.53684 3.64514 0
M  V30 8248 H 772.171 -4.72682 2.32119 0
M  V30 8249 H 774.662 -3.19478 2.01847 0
M  V30 8250 H 774.975 -6.17787 4.64283 0
M  V30 8251 H 773.32 -5.5601 4.16987 0
M  V30 8252 H 776.511 -3.91169 2.57108 0
M  V30 8253 H 776.684 -5.27214 3.76762 0
M  V30 8254 N 770.09 -0.729906 -1.39679 0
M  V30 8255 C 771.318 -0.285709 -2.04918 0
M  V30 8256 C 771.733 1.07765 -1.55023 0
M  V30 8257 O 771.09 1.67999 -0.712923 0
M  V30 8258 C 771.141 -0.272793 -3.60469 0
M  V30 8259 O 770.862 -1.58233 -4.08527 0
M  V30 8260 C 772.363 0.188199 -4.429 0
M  V30 8261 H 769.583 -0.125758 -0.65911 0
M  V30 8262 H 772.127 -0.992129 -1.78821 0
M  V30 8263 H 770.282 0.384699 -3.85485 0
M  V30 8264 H 770.696 -1.49245 -5.02818 0
M  V30 8265 H 772.17 0.14608 -5.51807 0
M  V30 8266 H 772.647 1.2326 -4.21549 0
M  V30 8267 H 773.253 -0.439541 -4.23023 0
M  V30 8268 N 771.568 1.50203 -0.477153 0
M  V30 8269 C 772.501 2.25343 0.359983 0
M  V30 8270 C 773.479 1.28909 0.991022 0
M  V30 8271 O 774.663 1.58146 1.02578 0
M  V30 8272 C 771.79 3.03431 1.5049 0
M  V30 8273 C 770.836 4.14836 0.99063 0
M  V30 8274 S 771.669 5.35407 -0.0995413 0
M  V30 8275 C 772.825 6.17045 1.04911 0
M  V30 8276 H 773.058 2.95999 -0.277836 0
M  V30 8277 H 770.591 1.52159 -0.262115 0
M  V30 8278 H 772.549 3.49012 2.16105 0
M  V30 8279 H 771.21 2.32289 2.11425 0
M  V30 8280 H 770.403 4.689 1.84794 0
M  V30 8281 H 770.005 3.71723 0.412097 0
M  V30 8282 H 772.297 6.48546 1.95946 0
M  V30 8283 H 773.24 7.05979 0.547596 0
M  V30 8284 H 773.648 5.49193 1.30567 0
M  V30 8285 N 773.046 0.209999 1.56195 0
M  V30 8286 C 774.009 -0.691232 2.18528 0
M  V30 8287 C 775.009 -1.13013 1.14388 0
M  V30 8288 O 776.199 -1.04081 1.39688 0
M  V30 8289 C 773.331 -1.94551 2.79934 0
M  V30 8290 H 774.524 -0.147953 2.99535 0
M  V30 8291 H 772.077 -0.0396243 1.5625 0
M  V30 8292 H 772.812 -2.53094 2.02766 0
M  V30 8293 H 772.597 -1.63938 3.56184 0
M  V30 8294 H 774.087 -2.58785 3.2775 0
M  V30 8295 N 774.524 -1.57472 -0.0634922 0
M  V30 8296 C 775.764 -1.89491 -0.766312 0
M  V30 8297 C 776.128 -0.80475 -1.74321 0
M  V30 8298 O 777.329 -1.00825 -2.49174 0
M  V30 8299 C 775.6 -3.26731 -1.44851 0
M  V30 8300 S 777.159 -3.80516 -2.18525 0
M  V30 8301 H 773.977 -0.663832 -0.254653 0
M  V30 8302 H 776.579 -1.95488 -0.0220867 0
M  V30 8303 H 775.283 -4.03967 -0.723824 0
M  V30 8304 H 774.814 -3.23953 -2.232 0
M  V30 8305 H 776.829 -3.5647 -3.45172 0
M  V30 8306 N 776.003 0.335068 -1.53997 0
M  V30 8307 C 777.251 1.07223 -1.71312 0
M  V30 8308 C 777.572 1.88911 -0.483486 0
M  V30 8309 O 776.842 1.89344 0.50257 0
M  V30 8310 H 775.422 0.398846 -0.63161 0
M  V30 8311 H 778.084 0.374288 -1.91272 0
M  V30 8312 H 777.18 1.7448 -2.58772 0
M  V30 8313 N 777.481 1.45874 0.596531 0
M  V30 8314 C 778.73 1.49737 1.35135 0
M  V30 8315 C 779.043 0.147755 1.95041 0
M  V30 8316 O 780.249 0.0640984 2.71424 0
M  V30 8317 C 778.705 2.6378 2.44843 0
M  V30 8318 C 778.313 4.05102 1.91301 0
M  V30 8319 C 780.057 2.769 3.21755 0
M  V30 8320 C 777.964 5.10508 2.98557 0
M  V30 8321 H 776.894 0.557219 0.507959 0
M  V30 8322 H 779.545 1.72046 0.638147 0
M  V30 8323 H 777.927 2.34774 3.189 0
M  V30 8324 H 779.101 4.43836 1.2388 0
M  V30 8325 H 777.416 3.96528 1.271 0
M  V30 8326 H 780.013 3.52819 4.01775 0
M  V30 8327 H 780.356 1.83924 3.73467 0
M  V30 8328 H 780.889 3.05485 2.54802 0
M  V30 8329 H 777.628 6.0523 2.51749 0
M  V30 8330 H 777.148 4.76332 3.6451 0
M  V30 8331 H 778.827 5.35745 3.62748 0
M  V30 8332 N 778.959 -0.83999 1.33349 0
M  V30 8333 C 779.922 -1.93128 1.23426 0
M  V30 8334 C 780.922 -1.60065 0.153599 0
M  V30 8335 O 782.112 -1.69425 0.405049 0
M  V30 8336 C 779.244 -3.28761 0.901622 0
M  V30 8337 H 780.437 -2.03352 2.20427 0
M  V30 8338 H 777.99 -1.03194 1.17391 0
M  V30 8339 H 778.725 -3.24233 -0.0659337 0
M  V30 8340 H 778.51 -3.54138 1.68311 0
M  V30 8341 H 780 -4.08714 0.856913 0
M  V30 8342 N 780.437 -1.16799 -1.0581 0
M  V30 8343 C 781.685 -0.950642 -1.78346 0
M  V30 8344 C 782.006 0.522524 -1.87869 0
M  V30 8345 O 781.276 1.3795 -1.39092 0
M  V30 8346 H 779.856 -0.348736 -0.6606 0
M  V30 8347 H 782.518 -1.47158 -1.27791 0
M  V30 8348 H 781.614 -1.37359 -2.80248 0
M  V30 8349 N 781.915 1.24427 -0.967243 0
M  V30 8350 C 782.845 2.2773 -0.515899 0
M  V30 8351 C 783.826 1.64197 0.444227 0
M  V30 8352 O 785.011 1.91193 0.340451 0
M  V30 8353 C 782.141 3.46751 0.195149 0
M  V30 8354 C 781.095 4.22548 -0.680953 0
M  V30 8355 C 780.421 5.34456 0.161561 0
M  V30 8356 C 781.721 4.83914 -1.96532 0
M  V30 8357 H 783.415 2.65735 -1.37933 0
M  V30 8358 H 780.961 1.27742 -0.664681 0
M  V30 8359 H 782.914 4.18153 0.522117 0
M  V30 8360 H 781.638 3.07771 1.09292 0
M  V30 8361 H 780.297 3.52946 -0.991186 0
M  V30 8362 H 779.945 4.91716 1.05947 0
M  V30 8363 H 779.645 5.86087 -0.421418 0
M  V30 8364 H 781.169 6.08685 0.483211 0
M  V30 8365 H 782.583 5.47392 -1.70396 0
M  V30 8366 H 780.98 5.45775 -2.49499 0
M  V30 8367 H 782.05 4.05393 -2.66053 0
M  V30 8368 N 783.393 0.737304 1.3929 0
M  V30 8369 C 784.618 0.295237 2.05288 0
M  V30 8370 C 785.043 -1.06235 1.55228 0
M  V30 8371 O 784.401 -1.67365 0.697043 0
M  V30 8372 C 784.449 0.309146 3.59272 0
M  V30 8373 O 783.553 -0.702437 4.06374 0
M  V30 8374 H 782.894 0.133762 0.650387 0
M  V30 8375 H 785.424 1.00387 1.78279 0
M  V30 8376 H 785.434 0.154336 4.07708 0
M  V30 8377 H 784.109 1.29974 3.95069 0
M  V30 8378 H 782.686 -0.513574 3.69346 0
M  V30 8379 N 784.871 -1.49948 0.485112 0
M  V30 8380 C 786.117 -2.02695 -0.0651022 0
M  V30 8381 C 786.45 -1.36534 -1.38102 0
M  V30 8382 O 785.725 -0.495677 -1.88078 0
M  V30 8383 C 786.008 -3.59337 -0.234285 0
M  V30 8384 C 785.861 -4.3605 1.10364 0
M  V30 8385 C 787.18 -4.28996 -0.982351 0
M  V30 8386 H 784.299 -0.736666 -0.0221856 0
M  V30 8387 H 786.941 -1.7913 0.633433 0
M  V30 8388 H 785.091 -3.79546 -0.829262 0
M  V30 8389 H 786.763 -4.27377 1.73627 0
M  V30 8390 H 785.006 -3.99236 1.69686 0
M  V30 8391 H 785.677 -5.43959 0.938743 0
M  V30 8392 H 788.153 -4.13346 -0.477904 0
M  V30 8393 H 787.029 -5.38379 -1.06955 0
M  V30 8394 H 787.29 -3.93135 -2.02231 0
M  V30 8395 N 786.349 -0.21828 -1.56081 0
M  V30 8396 C 787.312 0.679633 -2.18892 0
M  V30 8397 C 788.312 1.12405 -1.14986 0
M  V30 8398 O 789.502 1.03339 -1.40238 0
M  V30 8399 C 786.634 1.93063 -2.80962 0
M  V30 8400 H 787.827 0.132066 -2.99609 0
M  V30 8401 H 785.38 0.0313374 -1.56269 0
M  V30 8402 H 786.115 2.52015 -2.04106 0
M  V30 8403 H 785.9 1.62046 -3.57048 0
M  V30 8404 H 787.39 2.57043 -3.29118 0
M  V30 8405 N 787.827 1.57504 0.0551401 0
M  V30 8406 C 788.79 2.03826 1.04821 0
M  V30 8407 C 789.79 0.937968 1.30609 0
M  V30 8408 O 790.98 1.20237 1.2605 0
M  V30 8409 C 788.112 2.43309 2.38775 0
M  V30 8410 H 789.305 2.92802 0.6486 0
M  V30 8411 H 786.858 1.53368 0.301315 0
M  V30 8412 H 787.593 1.5741 2.83536 0
M  V30 8413 H 787.378 3.23615 2.21395 0
M  V30 8414 H 788.868 2.79666 3.10124 0
M  V30 8415 N 789.305 -0.326896 1.54172 0
M  V30 8416 C 790.582 -1.08326 1.62864 0
M  V30 8417 C 790.962 -2.06018 0.46039 0
M  V30 8418 O 790.31 -2.21889 -0.545685 0
M  V30 8419 C 790.52 -1.78816 2.9971 0
M  V30 8420 C 791.868 -2.31958 3.55641 0
M  V30 8421 O 792.892 -1.88888 3.01993 0
M  V30 8422 O 791.751 -3.10801 4.49517 0
M  V30 8423 H 788.845 -0.499131 0.659392 0
M  V30 8424 H 791.391 -0.327054 1.66519 0
M  V30 8425 H 790.163 -1.07739 3.76176 0
M  V30 8426 H 789.786 -2.61255 2.99719 0
M  V30 8427 N 790.784 -1.46188 -0.588786 0
M  V30 8428 C 792.009 -1.5498 -1.37826 0
M  V30 8429 C 792.434 -0.189498 -1.87143 0
M  V30 8430 O 791.792 0.829293 -1.61222 0
M  V30 8431 C 791.84 -2.55369 -2.54596 0
M  V30 8432 O 790.944 -2.08452 -3.55839 0
M  V30 8433 H 790.285 -0.521741 -0.41071 0
M  V30 8434 H 792.815 -1.91708 -0.714779 0
M  V30 8435 H 792.825 -2.74782 -3.01594 0
M  V30 8436 H 791.5 -3.54155 -2.18052 0
M  V30 8437 H 790.077 -1.98999 -3.15363 0
M  V30 8438 N 792.262 0.832906 -1.33792 0
M  V30 8439 C 793.192 1.95828 -1.27176 0
M  V30 8440 C 794.173 1.69427 -0.15114 0
M  V30 8441 O 795.358 1.91167 -0.341886 0
M  V30 8442 C 792.488 3.32098 -1.01629 0
M  V30 8443 C 791.442 3.72912 -2.10049 0
M  V30 8444 C 790.768 5.07054 -1.69706 0
M  V30 8445 C 792.068 3.86064 -3.51783 0
M  V30 8446 H 793.762 2.01622 -2.21334 0
M  V30 8447 H 791.308 0.96866 -1.0655 0
M  V30 8448 H 793.261 4.10402 -0.956474 0
M  V30 8449 H 791.985 3.26577 -0.0390956 0
M  V30 8450 H 790.644 2.96876 -2.15082 0
M  V30 8451 H 790.292 4.9801 -0.706737 0
M  V30 8452 H 789.992 5.35333 -2.42264 0
M  V30 8453 H 791.516 5.87827 -1.65202 0
M  V30 8454 H 792.93 4.54665 -3.49218 0
M  V30 8455 H 791.327 4.25787 -4.22878 0
M  V30 8456 H 792.397 2.88344 -3.89854 0
M  V30 8457 N 793.74 1.17359 1.05189 0
M  V30 8458 C 794.965 0.98709 1.82404 0
M  V30 8459 C 795.39 -0.459848 1.82392 0
M  V30 8460 O 794.748 -1.32924 1.23292 0
M  V30 8461 C 794.796 1.53276 3.26403 0
M  V30 8462 O 793.9 0.746541 4.05587 0
M  V30 8463 H 793.241 0.35047 0.563974 0
M  V30 8464 H 795.771 1.55856 1.32552 0
M  V30 8465 H 795.781 1.55504 3.77203 0
M  V30 8466 H 794.456 2.58603 3.25726 0
M  V30 8467 H 793.033 0.795671 3.64312 0
M  V30 8468 N 795.218 -1.23913 0.973828 0
M  V30 8469 C 796.181 -2.23367 0.51378 0
M  V30 8470 C 797.181 -1.55923 -0.39302 0
M  V30 8471 O 798.371 -1.73187 -0.187626 0
M  V30 8472 C 795.503 -3.39944 -0.255152 0
M  V30 8473 H 796.696 -2.65581 1.39307 0
M  V30 8474 H 794.249 -1.36632 0.759039 0
M  V30 8475 H 794.984 -3.03177 -1.15127 0
M  V30 8476 H 794.769 -3.90098 0.395673 0
M  V30 8477 H 796.259 -4.13749 -0.565842 0
M  V30 8478 N 796.696 -0.74468 -1.38897 0
M  V30 8479 C 797.945 -0.293716 -1.9955 0
M  V30 8480 C 798.258 1.12831 -1.59777 0
M  V30 8481 O 799.464 1.67929 -2.13336 0
M  V30 8482 C 797.92 -0.474188 -3.56762 0
M  V30 8483 C 797.528 -1.90472 -4.05493 0
M  V30 8484 C 799.272 -0.0854875 -4.24414 0
M  V30 8485 C 797.179 -2.03423 -5.55314 0
M  V30 8486 H 796.109 -0.106066 -0.746502 0
M  V30 8487 H 798.76 -0.919948 -1.58774 0
M  V30 8488 H 797.142 0.221092 -3.95382 0
M  V30 8489 H 798.316 -2.63274 -3.78184 0
M  V30 8490 H 796.631 -2.24752 -3.50536 0
M  V30 8491 H 799.228 -0.161133 -5.34457 0
M  V30 8492 H 799.571 0.96066 -4.05064 0
M  V30 8493 H 800.104 -0.732286 -3.91002 0
M  V30 8494 H 796.843 -3.0626 -5.79556 0
M  V30 8495 H 796.363 -1.3507 -5.84394 0
M  V30 8496 H 798.042 -1.81996 -6.20876 0
M  V30 8497 N 798.174 1.49689 -0.493057 0
M  V30 8498 C 799.121 2.28976 0.28959 0
M  V30 8499 C 800.091 1.35011 0.967536 0
M  V30 8500 O 801.276 1.63964 0.975736 0
M  V30 8501 C 798.416 3.1748 1.35279 0
M  V30 8502 C 797.529 4.26496 0.687418 0
M  V30 8503 C 796.664 5.02226 1.73038 0
M  V30 8504 C 795.703 6.03089 1.04645 0
M  V30 8505 N 794.84 6.72014 2.03325 0
M  V30 8506 H 799.68 2.954 -0.392798 0
M  V30 8507 H 797.217 1.45657 -0.205554 0
M  V30 8508 H 799.175 3.67162 1.98111 0
M  V30 8509 H 797.805 2.53057 2.00405 0
M  V30 8510 H 796.857 3.80362 -0.0540001 0
M  V30 8511 H 798.169 4.98578 0.14864 0
M  V30 8512 H 797.323 5.55737 2.43395 0
M  V30 8513 H 796.062 4.29899 2.303 0
M  V30 8514 H 795.067 5.48817 0.328606 0
M  V30 8515 H 796.292 6.77398 0.480428 0
M  V30 8516 H 794.238 6.02464 2.59564 0
M  V30 8517 H 794.155 7.40046 1.54492 0
M  V30 8518 H 795.423 7.30133 2.72995 0
M  V30 8519 N 799.652 0.226554 1.55963 0
M  V30 8520 C 800.882 -0.407915 2.02533 0
M  V30 8521 C 801.29 -1.53539 1.10554 0
M  V30 8522 O 800.633 -1.8338 0.108409 0
M  V30 8523 C 800.695 -0.996081 3.45425 0
M  V30 8524 C 800.359 -0.00341651 4.57 0
M  V30 8525 C 801.356 0.798782 5.13727 0
M  V30 8526 C 799.041 0.116786 5.02164 0
M  V30 8527 C 801.035 1.70784 6.14094 0
M  V30 8528 C 798.722 1.02937 6.02368 0
M  V30 8529 C 799.72 1.82344 6.5821 0
M  V30 8530 O 799.408 2.72067 7.56462 0
M  V30 8531 H 799.14 -0.103524 0.668026 0
M  V30 8532 H 801.694 0.341937 2.02534 0
M  V30 8533 H 799.924 -1.79512 3.42509 0
M  V30 8534 H 801.613 -1.53848 3.75614 0
M  V30 8535 H 802.379 0.716393 4.7968 0
M  V30 8536 H 798.258 -0.491172 4.58376 0
M  V30 8537 H 801.802 2.32807 6.57607 0
M  V30 8538 H 797.699 1.11276 6.35836 0
M  V30 8539 H 798.467 2.66199 7.74003 0
M  V30 8540 N 801.13 -1.57531 -0.0467866 0
M  V30 8541 C 802.093 -2.04379 -1.03738 0
M  V30 8542 C 803.093 -0.944881 -1.3011 0
M  V30 8543 O 804.283 -1.20904 -1.25411 0
M  V30 8544 C 801.415 -2.44572 -2.37482 0
M  V30 8545 H 802.608 -2.93142 -0.633063 0
M  V30 8546 H 800.161 -1.53526 -0.293177 0
M  V30 8547 H 800.896 -1.58911 -2.82697 0
M  V30 8548 H 800.681 -3.24785 -2.19675 0
M  V30 8549 H 802.171 -2.81307 -3.08636 0
M  V30 8550 N 802.608 0.318715 -1.54344 0
M  V30 8551 C 803.555 1.39242 -1.84066 0
M  V30 8552 C 804.525 1.51175 -0.688134 0
M  V30 8553 O 805.71 1.66318 -0.935039 0
M  V30 8554 C 802.85 2.75528 -2.07794 0
M  V30 8555 C 801.963 2.72187 -3.35467 0
M  V30 8556 C 801.098 4.00352 -3.4913 0
M  V30 8557 C 800.137 3.91338 -4.7066 0
M  V30 8558 N 799.274 5.11242 -4.81224 0
M  V30 8559 H 804.114 1.13196 -2.75664 0
M  V30 8560 H 801.651 0.547857 -1.36517 0
M  V30 8561 H 803.609 3.54763 -2.19543 0
M  V30 8562 H 802.239 2.99873 -1.19482 0
M  V30 8563 H 801.291 1.84917 -3.3243 0
M  V30 8564 H 802.603 2.61411 -4.24812 0
M  V30 8565 H 801.757 4.88019 -3.60448 0
M  V30 8566 H 800.496 4.1394 -2.57886 0
M  V30 8567 H 799.501 3.02055 -4.59394 0
M  V30 8568 H 800.726 3.7931 -5.63294 0
M  V30 8569 H 798.672 5.25327 -3.92897 0
M  V30 8570 H 798.589 5.0282 -5.64543 0
M  V30 8571 H 799.857 6.0061 -4.96879 0
M  V30 8572 N 804.086 1.46499 0.581025 0
M  V30 8573 C 805.332 1.52121 1.34116 0
M  V30 8574 C 805.665 0.173031 1.93428 0
M  V30 8575 O 804.94 -0.815729 1.76568 0
M  V30 8576 C 805.223 2.62108 2.46924 0
M  V30 8577 C 805.076 4.06462 1.92636 0
M  V30 8578 C 806.395 2.68167 3.48962 0
M  V30 8579 H 803.514 0.5538 0.486287 0
M  V30 8580 H 806.156 1.78443 0.652538 0
M  V30 8581 H 804.306 2.39794 3.05665 0
M  V30 8582 H 805.978 4.40068 1.3834 0
M  V30 8583 H 804.221 4.15862 1.23455 0
M  V30 8584 H 804.892 4.79152 2.74076 0
M  V30 8585 H 807.368 2.8823 3.00104 0
M  V30 8586 H 806.244 3.46942 4.2535 0
M  V30 8587 H 806.505 1.74284 4.06297 0
M  V30 8588 N 805.565 -0.825799 1.34232 0
M  V30 8589 C 806.512 -1.93651 1.2557 0
M  V30 8590 C 807.482 -1.65578 0.131536 0
M  V30 8591 O 808.667 -1.88231 0.312027 0
M  V30 8592 C 805.807 -3.29862 1.01415 0
M  V30 8593 C 804.92 -3.70247 2.22579 0
M  V30 8594 C 804.055 -4.95392 1.91731 0
M  V30 8595 C 803.094 -5.28349 3.09053 0
M  V30 8596 N 802.231 -6.44671 2.78107 0
M  V30 8597 H 807.071 -2.00392 2.20561 0
M  V30 8598 H 804.608 -0.980441 1.09662 0
M  V30 8599 H 806.566 -4.08356 0.854485 0
M  V30 8600 H 805.196 -3.22642 0.100936 0
M  V30 8601 H 804.248 -2.87169 2.49476 0
M  V30 8602 H 805.56 -3.90575 3.10246 0
M  V30 8603 H 804.714 -5.81665 1.72484 0
M  V30 8604 H 803.453 -4.77059 1.0132 0
M  V30 8605 H 802.458 -4.40574 3.289 0
M  V30 8606 H 803.683 -5.48622 4.00239 0
M  V30 8607 H 801.629 -6.278 1.9027 0
M  V30 8608 H 801.546 -6.65158 3.59306 0
M  V30 8609 H 802.814 -7.34022 2.62358 0
M  V30 8610 N 807.043 -1.17915 -1.04565 0
M  V30 8611 C 808.454 -0.976383 -1.59134 0
M  V30 8612 C 808.805 0.475267 -1.90357 0
M  V30 8613 O 807.93 1.35172 -1.6899 0
M  V30 8614 C 808.525 -1.76604 -2.89131 0
M  V30 8615 C 807.084 -1.60777 -3.40335 0
M  V30 8616 C 806.231 -1.76369 -2.13985 0
M  V30 8617 H 809.182 -1.32532 -0.872985 0
M  V30 8618 H 809.203 -1.25215 -3.59307 0
M  V30 8619 H 808.715 -2.82252 -2.66375 0
M  V30 8620 H 806.816 -0.576436 -3.68114 0
M  V30 8621 H 806.929 -2.40268 -4.14497 0
M  V30 8622 H 805.293 -1.19268 -2.25049 0
M  V30 8623 H 806.076 -2.83441 -1.9369 0
M  V30 8624 N 808.521 1.23394 -0.980386 0
M  V30 8625 C 809.77 1.91116 -0.644785 0
M  V30 8626 C 810.083 1.77333 0.825367 0
M  V30 8627 O 811.289 2.39858 1.27203 0
M  V30 8628 C 809.745 3.42592 -1.10266 0
M  V30 8629 C 809.353 3.65037 -2.59715 0
M  V30 8630 C 811.097 4.1609 -0.8408 0
M  V30 8631 C 809.004 5.10148 -2.9917 0
M  V30 8632 H 807.934 0.715632 -0.23746 0
M  V30 8633 H 810.585 1.39829 -1.18828 0
M  V30 8634 H 808.967 3.92989 -0.487372 0
M  V30 8635 H 810.141 3.25186 -3.26482 0
M  V30 8636 H 808.456 3.04849 -2.83647 0
M  V30 8637 H 811.053 5.23021 -1.11143 0
M  V30 8638 H 811.396 4.15702 0.223085 0
M  V30 8639 H 811.929 3.71681 -1.41767 0
M  V30 8640 H 808.668 5.15668 -4.04682 0
M  V30 8641 H 808.188 5.50949 -2.37097 0
M  V30 8642 H 809.867 5.7848 -2.89775 0
M  V30 8643 N 809.999 0.752036 1.385 0
M  V30 8644 C 811.415 0.42946 1.53713 0
M  V30 8645 C 811.615 -1.0576 1.71514 0
M  V30 8646 O 810.671 -1.84366 1.72527 0
M  V30 8647 C 811.984 1.22735 2.74511 0
M  V30 8648 C 813.532 1.21727 2.8836 0
M  V30 8649 C 814.007 1.99809 4.12117 0
M  V30 8650 N 815.498 1.97062 4.19191 0
M  V30 8651 C 816.233 2.54274 5.13938 0
M  V30 8652 N 815.729 3.20193 6.14368 0
M  V30 8653 N 817.522 2.44212 5.06277 0
M  V30 8654 H 809.673 1.71581 1.25195 0
M  V30 8655 H 811.936 0.727293 0.60807 0
M  V30 8656 H 811.642 2.28032 2.67758 0
M  V30 8657 H 811.516 0.843186 3.67655 0
M  V30 8658 H 813.903 0.172367 2.94596 0
M  V30 8659 H 813.984 1.64094 1.96232 0
M  V30 8660 H 813.628 3.0431 4.06642 0
M  V30 8661 H 813.558 1.54837 5.03322 0
M  V30 8662 H 816.049 1.49054 3.47263 0
M  V30 8663 H 816.362 3.61272 6.83156 0
M  V30 8664 H 814.707 3.24287 6.14705 0
M  V30 8665 H 817.898 1.92343 4.26757 0
M  V30 8666 H 818.071 2.89096 5.79937 0
M  V30 8667 N 811.477 -1.49425 0.500989 0
M  V30 8668 C 812.754 -1.9531 -0.106551 0
M  V30 8669 C 813.134 -1.44248 -1.54129 0
M  V30 8670 O 812.482 -0.656237 -2.18874 0
M  V30 8671 C 812.692 -3.48995 -0.0191972 0
M  V30 8672 C 814.04 -4.24161 -0.193129 0
M  V30 8673 O 815.064 -3.56075 -0.0943843 0
M  V30 8674 O 813.923 -5.45064 -0.395869 0
M  V30 8675 H 811.017 -0.82149 -0.0953068 0
M  V30 8676 H 813.563 -1.6007 0.563526 0
M  V30 8677 H 812.335 -3.78794 0.981353 0
M  V30 8678 H 811.958 -3.90852 -0.72942 0
M  V30 8679 N 812.955 -0.234822 -1.55841 0
M  V30 8680 C 813.865 0.680828 -2.24504 0
M  V30 8681 C 814.881 1.20306 -1.25708 0
M  V30 8682 O 816.057 1.24188 -1.58554 0
M  V30 8683 C 813.122 1.86636 -2.92178 0
M  V30 8684 C 812.183 1.3848 -4.06352 0
M  V30 8685 C 811.416 2.51382 -4.70789 0
M  V30 8686 O 811.639 3.69831 -4.34259 0
M  V30 8687 O 810.573 2.21828 -5.59532 0
M  V30 8688 H 814.399 0.12583 -3.03439 0
M  V30 8689 H 811.984 -0.00381817 -1.494 0
M  V30 8690 H 813.866 2.55845 -3.34845 0
M  V30 8691 H 812.541 2.40921 -2.16192 0
M  V30 8692 H 811.448 0.660341 -3.68226 0
M  V30 8693 H 812.781 0.888177 -4.8412 0
M  V30 8694 N 814.433 1.57553 0.0384317 0
M  V30 8695 C 815.71 1.79977 0.766002 0
M  V30 8696 C 816.09 0.830625 1.94072 0
M  V30 8697 O 815.438 -0.129243 2.28134 0
M  V30 8698 C 815.648 3.27434 1.20781 0
M  V30 8699 C 816.996 3.92167 1.62758 0
M  V30 8700 O 818.02 3.31527 1.30263 0
M  V30 8701 O 816.879 4.98917 2.23035 0
M  V30 8702 H 813.973 0.739787 0.369654 0
M  V30 8703 H 816.519 1.69693 0.0159312 0
M  V30 8704 H 815.291 3.89558 0.368792 0
M  V30 8705 H 814.914 3.42571 2.01819 0
M  V30 8706 N 815.911 -0.310526 1.54511 0
M  V30 8707 C 817.159 -1.04484 1.72996 0
M  V30 8708 C 817.48 -1.88118 0.513479 0
M  V30 8709 O 816.75 -1.90119 -0.472384 0
M  V30 8710 H 815.33 -0.388747 0.637875 0
M  V30 8711 H 817.992 -0.343811 1.91844 0
M  V30 8712 H 817.088 -1.70341 2.61515 0
M  V30 8713 N 817.389 -1.46805 -0.573248 0
M  V30 8714 C 818.319 -1.60951 -1.69165 0
M  V30 8715 C 819.3 -0.45948 -1.63777 0
M  V30 8716 O 820.485 -0.68688 -1.81647 0
M  V30 8717 C 817.615 -1.60844 -3.07809 0
M  V30 8718 C 816.569 -2.74913 -3.28035 0
M  V30 8719 C 815.895 -2.59871 -4.67302 0
M  V30 8720 C 817.195 -4.16654 -3.14955 0
M  V30 8721 H 818.889 -2.54574 -1.57582 0
M  V30 8722 H 816.435 -1.22516 -0.756686 0
M  V30 8723 H 818.388 -1.69334 -3.85881 0
M  V30 8724 H 817.112 -0.637714 -3.20314 0
M  V30 8725 H 815.771 -2.65908 -2.52366 0
M  V30 8726 H 815.419 -1.60861 -4.76585 0
M  V30 8727 H 815.119 -3.36386 -4.81786 0
M  V30 8728 H 816.643 -2.70265 -5.4753 0
M  V30 8729 H 818.057 -4.26721 -3.82861 0
M  V30 8730 H 816.454 -4.93831 -3.40956 0
M  V30 8731 H 817.524 -4.36146 -2.11908 0
M  V30 8732 N 818.867 0.818669 -1.34668 0
M  V30 8733 C 819.83 1.9114 -1.26483 0
M  V30 8734 C 820.83 1.598 -0.179044 0
M  V30 8735 O 822.02 1.6876 -0.431952 0
M  V30 8736 C 819.152 3.27285 -0.95381 0
M  V30 8737 H 820.345 1.9982 -2.23634 0
M  V30 8738 H 817.898 1.01314 -1.19018 0
M  V30 8739 H 818.633 3.24297 0.0143428 0
M  V30 8740 H 818.418 3.51416 -1.73924 0
M  V30 8741 H 819.908 4.07299 -0.921827 0
M  V30 8742 N 820.346 1.18468 1.03938 0
M  V30 8743 C 821.595 0.975193 1.76558 0
M  V30 8744 C 821.908 -0.495978 1.89207 0
M  V30 8745 O 823.114 -0.824009 2.58694 0
M  V30 8746 C 821.57 1.69579 3.17444 0
M  V30 8747 C 821.178 3.20636 3.12884 0
M  V30 8748 C 822.922 1.56917 3.94433 0
M  V30 8749 C 820.829 3.8533 4.48636 0
M  V30 8750 H 819.759 0.361244 0.66183 0
M  V30 8751 H 822.41 1.41854 1.16403 0
M  V30 8752 H 820.792 1.18022 3.78004 0
M  V30 8753 H 821.966 3.79228 2.61768 0
M  V30 8754 H 820.281 3.33454 2.49394 0
M  V30 8755 H 822.878 2.02611 4.94826 0
M  V30 8756 H 823.221 0.521638 4.13019 0
M  V30 8757 H 823.754 2.05762 3.40451 0
M  V30 8758 H 820.493 4.90136 4.35255 0
M  V30 8759 H 820.013 3.31526 4.99851 0
M  V30 8760 H 821.692 3.88269 5.17549 0
M  V30 8761 N 821.824 -1.22873 0.986916 0
M  V30 8762 C 823.101 -1.86939 0.575589 0
M  V30 8763 C 823.481 -1.88656 -0.947205 0
M  V30 8764 O 822.829 -1.3728 -1.82665 0
M  V30 8765 C 823.039 -3.28117 1.18914 0
M  V30 8766 C 824.387 -4.04659 1.28593 0
M  V30 8767 O 825.411 -3.3736 1.14308 0
M  V30 8768 O 824.27 -5.25112 1.51391 0
M  V30 8769 H 821.364 -0.803748 0.194724 0
M  V30 8770 H 823.91 -1.30698 1.08241 0
M  V30 8771 H 822.682 -3.21468 2.231 0
M  V30 8772 H 822.305 -3.91956 0.667535 0
M  V30 8773 N 823.302 -0.75937 -1.38099 0
M  V30 8774 C 824.549 -0.318113 -1.99986 0
M  V30 8775 C 824.877 1.10184 -1.6028 0
M  V30 8776 O 824.132 1.77015 -0.834524 0
M  V30 8777 C 824.431 -0.394999 -3.55211 0
M  V30 8778 C 824.097 -1.77143 -4.14646 0
M  V30 8779 C 822.759 -2.14811 -4.30592 0
M  V30 8780 C 825.111 -2.67407 -4.47373 0
M  V30 8781 C 822.439 -3.42203 -4.76565 0
M  V30 8782 C 824.791 -3.94196 -4.94765 0
M  V30 8783 C 823.455 -4.31925 -5.08918 0
M  V30 8784 H 822.725 -0.116406 -0.7318 0
M  V30 8785 H 825.372 -0.97098 -1.65058 0
M  V30 8786 H 823.677 0.341426 -3.9031 0
M  V30 8787 H 825.374 -0.0350722 -4.00985 0
M  V30 8788 H 821.964 -1.46864 -4.02652 0
M  V30 8789 H 826.148 -2.39569 -4.3465 0
M  V30 8790 H 821.404 -3.71346 -4.85708 0
M  V30 8791 H 825.578 -4.64276 -5.19057 0
M  V30 8792 H 823.205 -5.30699 -5.443 0
M  V30 8793 N 824.78 1.49157 -0.508906 0
M  V30 8794 C 825.69 2.33045 0.269656 0
M  V30 8795 C 826.706 1.45143 0.959662 0
M  V30 8796 O 827.882 1.78155 0.939295 0
M  V30 8797 C 824.947 3.20772 1.31554 0
M  V30 8798 C 824.008 4.24531 0.638131 0
M  V30 8799 C 823.241 5.08065 1.63418 0
M  V30 8800 O 823.464 4.93238 2.86483 0
M  V30 8801 O 822.398 5.90117 1.18516 0
M  V30 8802 H 826.224 3.00821 -0.417183 0
M  V30 8803 H 823.809 1.46938 -0.270119 0
M  V30 8804 H 825.691 3.75095 1.92047 0
M  V30 8805 H 824.366 2.55681 1.98516 0
M  V30 8806 H 823.273 3.74099 -0.00674357 0
M  V30 8807 H 824.606 4.92199 0.0108155 0
M  V30 8808 N 826.258 0.243083 1.55714 0
M  V30 8809 C 827.507 -0.383188 1.98027 0
M  V30 8810 C 827.82 -1.59347 1.13436 0
M  V30 8811 O 829.026 -2.29065 1.45745 0
M  V30 8812 C 827.482 -0.733135 3.52354 0
M  V30 8813 C 827.09 0.455539 4.45678 0
M  V30 8814 C 828.834 -1.32381 4.03331 0
M  V30 8815 C 826.741 0.0819591 5.91343 0
M  V30 8816 H 825.671 -0.146944 0.739543 0
M  V30 8817 H 828.322 0.342697 1.80272 0
M  V30 8818 H 826.704 -1.51704 3.65789 0
M  V30 8819 H 827.878 1.23291 4.44 0
M  V30 8820 H 826.193 0.960886 4.05162 0
M  V30 8821 H 828.79 -1.61658 5.09677 0
M  V30 8822 H 829.133 -2.24698 3.50452 0
M  V30 8823 H 829.666 -0.602885 3.93205 0
M  V30 8824 H 826.405 0.972171 6.48251 0
M  V30 8825 H 825.925 -0.659291 5.96166 0
M  V30 8826 H 827.604 -0.3372 6.46121 0
M  V30 8827 N 827.736 -1.57571 -0.0300757 0
M  V30 8828 C 828.646 -2.09892 -1.04798 0
M  V30 8829 C 829.662 -1.03732 -1.39698 0
M  V30 8830 O 830.838 -1.35461 -1.49038 0
M  V30 8831 C 827.903 -2.56707 -2.33028 0
M  V30 8832 C 826.964 -3.77345 -2.04718 0
M  V30 8833 C 826.197 -4.21918 -3.26834 0
M  V30 8834 O 826.42 -3.66025 -4.37472 0
M  V30 8835 O 825.354 -5.14362 -3.12594 0
M  V30 8836 H 829.18 -2.97023 -0.633344 0
M  V30 8837 H 826.765 -1.47344 -0.246991 0
M  V30 8838 H 828.647 -2.87154 -3.08417 0
M  V30 8839 H 827.322 -1.72688 -2.73789 0
M  V30 8840 H 826.229 -3.51919 -1.26901 0
M  V30 8841 H 827.562 -4.62345 -1.68813 0
M  V30 8842 N 829.214 0.302327 -1.54673 0
M  V30 8843 C 830.462 1.03565 -1.73547 0
M  V30 8844 C 830.783 1.87843 -0.523448 0
M  V30 8845 O 830.053 1.90367 0.462295 0
M  V30 8846 H 828.633 0.385358 -0.639928 0
M  V30 8847 H 831.295 0.333632 -1.92023 0
M  V30 8848 H 830.391 1.68952 -2.62415 0
M  V30 8849 N 830.692 1.47107 0.565454 0
M  V30 8850 C 831.602 1.61591 1.70075 0
M  V30 8851 C 832.618 0.498931 1.66693 0
M  V30 8852 O 833.794 0.765372 1.8629 0
M  V30 8853 C 830.859 1.61887 3.06583 0
M  V30 8854 C 829.92 2.84949 3.21096 0
M  V30 8855 C 829.153 2.85221 4.51093 0
M  V30 8856 O 829.376 1.94959 5.36048 0
M  V30 8857 O 828.31 3.76982 4.69221 0
M  V30 8858 H 832.136 2.57638 1.60799 0
M  V30 8859 H 829.721 1.30097 0.73451 0
M  V30 8860 H 831.603 1.64809 3.87835 0
M  V30 8861 H 830.278 0.69005 3.16259 0
M  V30 8862 H 829.185 2.87575 2.39273 0
M  V30 8863 H 830.518 3.77098 3.1632 0
M  V30 8864 N 832.17 -0.811516 1.35101 0
M  V30 8865 C 833.4 -1.59749 1.31011 0
M  V30 8866 C 833.808 -1.88847 -0.115566 0
M  V30 8867 O 833.151 -1.48854 -1.07649 0
M  V30 8868 C 833.213 -2.95714 2.04435 0
M  V30 8869 C 832.877 -2.89456 3.53645 0
M  V30 8870 C 833.874 -2.63237 4.48333 0
M  V30 8871 C 831.559 -3.08728 3.96222 0
M  V30 8872 C 833.553 -2.56361 5.83573 0
M  V30 8873 C 831.24 -3.01475 5.3156 0
M  V30 8874 C 832.238 -2.75326 6.25048 0
M  V30 8875 O 831.926 -2.68026 7.57903 0
M  V30 8876 H 831.658 -0.502889 0.45175 0
M  V30 8877 H 834.212 -1.01687 1.78462 0
M  V30 8878 H 832.442 -3.55739 1.51613 0
M  V30 8879 H 834.131 -3.56816 1.93487 0
M  V30 8880 H 834.897 -2.48072 4.16756 0
M  V30 8881 H 830.776 -3.28094 3.23845 0
M  V30 8882 H 834.32 -2.35871 6.56514 0
M  V30 8883 H 830.217 -3.16197 5.62752 0
M  V30 8884 H 830.985 -2.8367 7.67772 0
M  V30 8885 N 833.648 -1.19017 -1.03309 0
M  V30 8886 C 835.059 -0.993206 -1.5809 0
M  V30 8887 C 835.41 0.45505 -1.9085 0
M  V30 8888 O 834.535 1.33372 -1.70414 0
M  V30 8889 C 835.13 -1.79661 -2.87241 0
M  V30 8890 C 833.689 -1.64377 -3.38611 0
M  V30 8891 C 832.836 -1.78628 -2.12102 0
M  V30 8892 H 835.787 -1.3345 -0.858879 0
M  V30 8893 H 835.808 -1.29019 -3.57958 0
M  V30 8894 H 835.32 -2.85061 -2.63366 0
M  V30 8895 H 833.421 -0.615447 -3.67482 0
M  V30 8896 H 833.534 -2.44651 -4.11926 0
M  V30 8897 H 831.898 -1.21648 -2.23772 0
M  V30 8898 H 832.681 -2.8548 -1.90673 0
M  V30 8899 N 835.127 1.22348 -0.993418 0
M  V30 8900 C 836.059 2.23626 -0.502404 0
M  V30 8901 C 837.072 1.57739 0.402784 0
M  V30 8902 O 838.261 1.77321 0.204835 0
M  V30 8903 C 835.361 3.37647 0.291118 0
M  V30 8904 C 834.534 4.33121 -0.610332 0
M  V30 8905 C 833.593 5.26035 0.131572 0
M  V30 8906 O 832.619 5.67145 -0.483199 0
M  V30 8907 N 833.821 5.63023 1.41371 0
M  V30 8908 H 836.586 2.66385 -1.37329 0
M  V30 8909 H 834.147 1.36653 -0.868196 0
M  V30 8910 H 836.139 3.96792 0.796107 0
M  V30 8911 H 834.709 2.93967 1.0631 0
M  V30 8912 H 833.929 3.72287 -1.29598 0
M  V30 8913 H 835.217 4.93853 -1.22422 0
M  V30 8914 H 834.615 5.31596 1.93449 0
M  V30 8915 H 833.172 6.24582 1.86388 0
M  V30 8916 N 836.605 0.766683 1.37694 0
M  V30 8917 C 837.852 0.328714 1.99814 0
M  V30 8918 C 838.18 -1.09333 1.60862 0
M  V30 8919 O 837.435 -1.7657 0.8439 0
M  V30 8920 C 837.734 0.413831 3.54996 0
M  V30 8921 C 837.4 1.7934 4.137 0
M  V30 8922 C 836.062 2.17092 4.29447 0
M  V30 8923 C 838.414 2.69776 4.45949 0
M  V30 8924 C 835.742 3.44726 4.74743 0
M  V30 8925 C 838.094 3.96814 4.92667 0
M  V30 8926 C 836.758 4.34618 5.0662 0
M  V30 8927 H 836.028 0.120285 0.731172 0
M  V30 8928 H 838.675 0.97972 1.64541 0
M  V30 8929 H 836.98 -0.320723 3.90485 0
M  V30 8930 H 838.677 0.0563369 4.0096 0
M  V30 8931 H 835.267 1.48997 4.01868 0
M  V30 8932 H 839.451 2.41871 4.33373 0
M  V30 8933 H 834.707 3.73917 4.83731 0
M  V30 8934 H 838.881 4.67022 5.16588 0
M  V30 8935 H 836.508 5.33578 5.41478 0
M  V30 8936 N 838.083 -1.48885 0.516809 0
M  V30 8937 C 839.331 -2.02088 -0.0220166 0
M  V30 8938 C 839.652 -1.39735 -1.36011 0
M  V30 8939 O 838.922 -0.558119 -1.87781 0
M  V30 8940 H 837.502 -0.746917 -0.0111255 0
M  V30 8941 H 840.164 -1.8274 0.677647 0
M  V30 8942 H 839.26 -3.11786 -0.140067 0
M  V30 8943 N 839.561 -0.251338 -1.55583 0
M  V30 8944 C 840.509 0.662534 -2.22965 0
M  V30 8945 C 841.503 1.17662 -1.21869 0
M  V30 8946 O 842.709 1.133 -1.39868 0
M  V30 8947 H 839.084 0.232151 -0.715269 0
M  V30 8948 H 841.055 0.0711252 -2.98315 0
M  V30 8949 C 839.804 1.84646 -2.94621 0
M  V30 8950 H 839.127 1.46003 -3.72187 0
M  V30 8951 H 840.567 2.46303 -3.45124 0
M  V30 8952 C 839.026 2.72034 -1.98744 0
M  V30 8953 O 839.556 3.71695 -1.52335 0
M  V30 8954 N 837.762 2.38695 -1.6575 0
M  V30 8955 H 837.309 1.57702 -2.03685 0
M  V30 8956 H 837.267 2.9744 -1.01867 0
M  V30 8957 N 841.039 1.57585 0.0217189 0
M  V30 8958 C 841.987 2.08134 1.03842 0
M  V30 8959 C 842.981 0.996662 1.36978 0
M  V30 8960 O 844.187 1.18149 1.35797 0
M  V30 8961 H 840.562 0.664298 0.352438 0
M  V30 8962 H 842.533 2.92583 0.58634 0
M  V30 8963 C 841.282 2.58218 2.32849 0
M  V30 8964 H 840.605 3.41302 2.08214 0
M  V30 8965 H 842.045 2.97289 3.02316 0
M  V30 8966 C 840.504 1.48664 3.02325 0
M  V30 8967 O 841.034 0.857075 3.9245 0
M  V30 8968 N 839.24 1.21938 2.63779 0
M  V30 8969 H 838.787 1.73319 1.90574 0
M  V30 8970 H 838.745 0.488523 3.10581 0
M  V30 8971 N 842.517 -0.29412 1.54831 0
M  V30 8972 C 843.794 -1.04847 1.65126 0
M  V30 8973 C 844.174 -2.04996 0.503986 0
M  V30 8974 O 843.522 -2.22996 -0.498496 0
M  V30 8975 C 843.732 -1.72418 3.03435 0
M  V30 8976 C 845.08 -2.24362 3.60481 0
M  V30 8977 O 846.104 -1.8244 3.05932 0
M  V30 8978 O 844.963 -3.01196 4.56008 0
M  V30 8979 H 842.057 -0.485032 0.669831 0
M  V30 8980 H 844.603 -0.291659 1.67175 0
M  V30 8981 H 843.375 -0.997351 3.78376 0
M  V30 8982 H 842.998 -2.54839 3.05193 0
M  V30 8983 N 843.995 -1.47404 -0.557645 0
M  V30 8984 C 845.406 -1.47872 -1.13977 0
M  V30 8985 C 845.757 -0.233176 -1.94809 0
M  V30 8986 O 844.882 0.661945 -2.06027 0
M  V30 8987 C 845.477 -2.67926 -2.07368 0
M  V30 8988 C 844.036 -2.71354 -2.60852 0
M  V30 8989 C 843.183 -2.40967 -1.37223 0
M  V30 8990 H 846.134 -1.54921 -0.344268 0
M  V30 8991 H 846.155 -2.44871 -2.91236 0
M  V30 8992 H 845.667 -3.58562 -1.48509 0
M  V30 8993 H 843.768 -1.84855 -3.23511 0
M  V30 8994 H 843.881 -3.72032 -3.01876 0
M  V30 8995 H 842.245 -1.91541 -1.67882 0
M  V30 8996 H 843.028 -3.33811 -0.801583 0
M  V30 8997 N 845.473 0.80434 -1.35529 0
M  V30 8998 C 846.889 1.10023 -1.15616 0
M  V30 8999 C 847.089 2.01478 0.0298535 0
M  V30 9000 O 846.145 2.42609 0.699778 0
M  V30 9001 C 847.458 1.72905 -2.46017 0
M  V30 9002 C 849.006 1.85315 -2.52245 0
M  V30 9003 C 849.481 2.51612 -3.82695 0
M  V30 9004 N 850.972 2.59095 -3.83958 0
M  V30 9005 C 851.707 3.11167 -4.81625 0
M  V30 9006 N 851.203 3.63659 -5.89681 0
M  V30 9007 N 852.996 3.09741 -4.6906 0
M  V30 9008 H 845.147 0.196428 -2.1149 0
M  V30 9009 H 847.41 0.149735 -0.9361 0
M  V30 9010 H 847.116 1.13171 -3.32994 0
M  V30 9011 H 846.99 2.72579 -2.6073 0
M  V30 9012 H 849.377 2.44191 -1.65695 0
M  V30 9013 H 849.458 0.844886 -2.41444 0
M  V30 9014 H 849.102 1.93385 -4.69643 0
M  V30 9015 H 849.032 3.5298 -3.90785 0
M  V30 9016 H 851.523 2.21908 -3.05884 0
M  V30 9017 H 851.836 4.01699 -6.60195 0
M  V30 9018 H 850.181 3.61852 -5.9337 0
M  V30 9019 H 853.372 2.68011 -3.83781 0
M  V30 9020 H 853.545 3.50016 -5.45338 0
M  V30 9021 N 846.951 1.19563 1.02676 0
M  V30 9022 C 848.197 1.00105 1.76371 0
M  V30 9023 C 848.53 -0.466823 1.88506 0
M  V30 9024 O 847.805 -1.34665 1.40341 0
M  V30 9025 C 848.088 1.67321 3.18866 0
M  V30 9026 C 847.941 3.21486 3.1459 0
M  V30 9027 C 849.26 1.39794 4.17308 0
M  V30 9028 H 846.379 0.365075 0.640226 0
M  V30 9029 H 849.021 1.47433 1.19848 0
M  V30 9030 H 847.171 1.27081 3.67128 0
M  V30 9031 H 848.843 3.70953 2.7421 0
M  V30 9032 H 847.086 3.5292 2.52249 0
M  V30 9033 H 847.757 3.63665 4.15273 0
M  V30 9034 H 850.233 1.74685 3.77657 0
M  V30 9035 H 849.109 1.89371 5.15199 0
M  V30 9036 H 849.37 0.323505 4.40915 0
M  V30 9037 N 848.429 -1.21819 0.999893 0
M  V30 9038 C 849.706 -1.86318 0.595384 0
M  V30 9039 C 850.086 -1.8965 -0.927143 0
M  V30 9040 O 849.434 -1.3921 -1.81199 0
M  V30 9041 C 849.644 -3.26837 1.22387 0
M  V30 9042 C 850.992 -4.03272 1.32878 0
M  V30 9043 O 852.016 -3.36129 1.1788 0
M  V30 9044 O 850.875 -5.23477 1.56952 0
M  V30 9045 H 847.969 -0.801638 0.203238 0
M  V30 9046 H 850.515 -1.29542 1.09622 0
M  V30 9047 H 849.287 -3.19084 2.26497 0
M  V30 9048 H 848.91 -3.91226 0.709069 0
M  V30 9049 N 849.908 -0.773975 -1.37286 0
M  V30 9050 C 851.185 -0.263942 -1.93811 0
M  V30 9051 C 851.565 1.24138 -1.70743 0
M  V30 9052 O 850.913 2.02557 -1.05749 0
M  V30 9053 C 851.123 -0.639753 -3.43086 0
M  V30 9054 C 852.471 -0.610796 -4.20184 0
M  V30 9055 O 853.495 -0.579278 -3.51458 0
M  V30 9056 O 852.354 -0.639862 -5.42741 0
M  V30 9057 H 849.448 -0.0614331 -0.824715 0
M  V30 9058 H 851.994 -0.855477 -1.46559 0
M  V30 9059 H 850.766 -1.67856 -3.53469 0
M  V30 9060 H 850.389 -0.0212827 -3.97594 0
M  V30 9061 N 851.386 1.48609 -0.524698 0
M  V30 9062 C 852.316 2.32366 0.229837 0
M  V30 9063 C 853.297 1.41759 0.940129 0
M  V30 9064 O 854.482 1.7065 0.926936 0
M  V30 9065 C 851.612 3.22835 1.28043 0
M  V30 9066 C 850.566 4.22424 0.688603 0
M  V30 9067 C 849.892 5.0199 1.84146 0
M  V30 9068 C 851.192 5.21217 -0.336176 0
M  V30 9069 H 852.886 2.95698 -0.469339 0
M  V30 9070 H 850.432 1.42197 -0.227156 0
M  V30 9071 H 852.385 3.80253 1.8162 0
M  V30 9072 H 851.109 2.57492 2.00912 0
M  V30 9073 H 849.768 3.66185 0.174402 0
M  V30 9074 H 849.416 4.33076 2.5584 0
M  V30 9075 H 849.116 5.69392 1.45142 0
M  V30 9076 H 850.64 5.62259 2.38111 0
M  V30 9077 H 852.054 5.7319 0.112307 0
M  V30 9078 H 850.451 5.96642 -0.643324 0
M  V30 9079 H 851.521 4.68676 -1.24381 0
M  V30 9080 N 852.864 0.259585 1.55447 0
M  V30 9081 C 853.827 -0.621359 2.20617 0
M  V30 9082 C 854.827 -1.09317 1.17925 0
M  V30 9083 O 856.017 -0.995842 1.42929 0
M  V30 9084 C 853.149 -1.85546 2.85982 0
M  V30 9085 H 854.342 -0.0525833 2.99854 0
M  V30 9086 H 851.895 0.0101055 1.56297 0
M  V30 9087 H 852.63 -2.46515 2.10715 0
M  V30 9088 H 852.415 -1.52523 3.61219 0
M  V30 9089 H 853.905 -2.48227 3.35817 0
M  V30 9090 N 854.342 -1.57594 -0.0133615 0
M  V30 9091 C 855.588 -1.90262 -0.702019 0
M  V30 9092 C 855.921 -0.859219 -1.74158 0
M  V30 9093 O 855.196 0.123778 -1.94106 0
M  V30 9094 C 855.479 -3.3354 -1.35732 0
M  V30 9095 C 855.332 -4.48586 -0.330208 0
M  V30 9096 C 856.651 -3.76004 -2.28712 0
M  V30 9097 H 853.77 -0.691943 -0.253739 0
M  V30 9098 H 856.412 -1.89967 0.0351894 0
M  V30 9099 H 854.562 -3.33921 -1.98567 0
M  V30 9100 H 856.234 -4.6034 0.297433 0
M  V30 9101 H 854.477 -4.32394 0.348926 0
M  V30 9102 H 855.148 -5.45762 -0.827508 0
M  V30 9103 H 857.624 -3.77089 -1.75906 0
M  V30 9104 H 856.5 -4.77032 -2.71535 0
M  V30 9105 H 856.761 -3.09129 -3.16056 0
M  V30 9106 N 855.82 0.285905 -1.54985 0
M  V30 9107 C 857.097 1.0397 -1.65679 0
M  V30 9108 C 857.477 2.04725 -0.514851 0
M  V30 9109 O 856.825 2.23257 0.486663 0
M  V30 9110 C 857.035 1.70807 -3.04345 0
M  V30 9111 C 858.383 2.22447 -3.61666 0
M  V30 9112 O 859.407 1.80815 -3.06895 0
M  V30 9113 O 858.266 2.98773 -4.57599 0
M  V30 9114 H 855.36 0.481473 -0.672394 0
M  V30 9115 H 857.906 0.282789 -1.67327 0
M  V30 9116 H 856.678 0.977271 -3.789 0
M  V30 9117 H 856.301 2.53217 -3.06541 0
M  V30 9118 N 857.298 1.47698 0.54982 0
M  V30 9119 C 858.228 1.63622 1.66583 0
M  V30 9120 C 859.209 0.485477 1.63025 0
M  V30 9121 O 860.394 0.715692 1.80531 0
M  V30 9122 C 857.524 1.65721 3.05211 0
M  V30 9123 C 856.478 2.80097 3.2362 0
M  V30 9124 C 855.804 2.67272 4.63109 0
M  V30 9125 C 857.104 4.21612 3.08286 0
M  V30 9126 H 858.798 2.57049 1.53512 0
M  V30 9127 H 856.344 1.23705 0.737099 0
M  V30 9128 H 858.297 1.75451 3.83138 0
M  V30 9129 H 857.021 0.688593 3.19258 0
M  V30 9130 H 855.68 2.69889 2.48104 0
M  V30 9131 H 855.328 1.68422 4.73965 0
M  V30 9132 H 855.028 3.44008 4.76374 0
M  V30 9133 H 856.552 2.78942 5.43161 0
M  V30 9134 H 857.966 4.32758 3.76024 0
M  V30 9135 H 856.363 4.99193 3.33057 0
M  V30 9136 H 857.433 4.39462 2.04942 0
M  V30 9137 N 858.776 -0.797141 1.35954 0
M  V30 9138 C 860.022 -1.55698 1.29946 0
M  V30 9139 C 860.355 -1.93808 -0.123259 0
M  V30 9140 O 859.63 -1.62102 -1.07486 0
M  V30 9141 C 859.913 -2.83926 2.2149 0
M  V30 9142 C 859.766 -2.52232 3.72423 0
M  V30 9143 C 861.085 -3.85698 2.11955 0
M  V30 9144 H 858.204 -0.56488 0.47337 0
M  V30 9145 H 860.846 -0.916421 1.66438 0
M  V30 9146 H 858.996 -3.38588 1.905 0
M  V30 9147 H 860.668 -2.0368 4.13899 0
M  V30 9148 H 858.911 -1.85286 3.92239 0
M  V30 9149 H 859.582 -3.43782 4.31877 0
M  V30 9150 H 862.058 -3.40462 2.39218 0
M  V30 9151 H 860.934 -4.73182 2.78191 0
M  V30 9152 H 861.195 -4.28083 1.10442 0
M  V30 9153 N 860.254 -1.20106 -1.0204 0
M  V30 9154 C 861.164 -0.962051 -2.13967 0
M  V30 9155 C 862.18 0.0808053 -1.73812 0
M  V30 9156 O 863.356 -0.105774 -2.01122 0
M  V30 9157 C 860.421 -0.513108 -3.42882 0
M  V30 9158 C 859.482 -1.62636 -3.97301 0
M  V30 9159 C 858.715 -1.19875 -5.20063 0
M  V30 9160 O 858.938 -0.0658423 -5.70362 0
M  V30 9161 O 857.872 -2.00467 -5.67536 0
M  V30 9162 H 861.698 -1.8991 -2.36998 0
M  V30 9163 H 859.283 -0.984608 -1.12365 0
M  V30 9164 H 861.165 -0.271797 -4.20523 0
M  V30 9165 H 859.84 0.395402 -3.21276 0
M  V30 9166 H 858.747 -1.92192 -3.20957 0
M  V30 9167 H 860.08 -2.51174 -4.23288 0
M  V30 9168 N 861.732 1.21287 -1.00634 0
M  V30 9169 C 863.148 1.42467 -0.719389 0
M  V30 9170 C 863.348 1.88767 0.704927 0
M  V30 9171 O 862.404 2.05004 1.47409 0
M  V30 9172 C 863.717 2.455 -1.73639 0
M  V30 9173 C 865.265 2.59281 -1.75335 0
M  V30 9174 C 865.74 3.65547 -2.75934 0
M  V30 9175 N 867.231 3.73019 -2.74611 0
M  V30 9176 C 867.966 4.54873 -3.4911 0
M  V30 9177 N 867.462 5.40614 -4.33253 0
M  V30 9178 N 869.255 4.49309 -3.37754 0
M  V30 9179 H 861.406 0.895454 -1.92602 0
M  V30 9180 H 863.669 0.455491 -0.831404 0
M  V30 9181 H 863.375 2.18455 -2.75627 0
M  V30 9182 H 863.249 3.44325 -1.54014 0
M  V30 9183 H 865.636 2.85661 -0.740377 0
M  V30 9184 H 865.717 1.60685 -1.99032 0
M  V30 9185 H 865.361 3.39911 -3.77389 0
M  V30 9186 H 865.291 4.63741 -2.49503 0
M  V30 9187 H 867.782 3.11766 -2.13565 0
M  V30 9188 H 868.095 6.0013 -4.86892 0
M  V30 9189 H 866.44 5.40151 -4.37335 0
M  V30 9190 H 869.631 3.81357 -2.71449 0
M  V30 9191 H 869.804 5.12867 -3.9607 0
M  V30 9192 N 863.21 0.781244 1.36873 0
M  V30 9193 C 864.457 0.349889 1.99454 0
M  V30 9194 C 864.785 -1.07621 1.62013 0
M  V30 9195 O 864.04 -1.75665 0.86258 0
M  V30 9196 C 864.339 0.45146 3.54537 0
M  V30 9197 C 864.005 1.83718 4.11775 0
M  V30 9198 C 862.667 2.21634 4.2712 0
M  V30 9199 C 865.019 2.7449 4.43063 0
M  V30 9200 C 862.347 3.49742 4.7106 0
M  V30 9201 C 864.699 4.02017 4.88431 0
M  V30 9202 C 863.363 4.39967 5.01982 0
M  V30 9203 H 862.633 0.128033 0.729855 0
M  V30 9204 H 865.28 0.997117 1.63493 0
M  V30 9205 H 863.585 -0.279288 3.90803 0
M  V30 9206 H 865.282 0.0988609 4.00878 0
M  V30 9207 H 861.872 1.53251 4.00265 0
M  V30 9208 H 866.056 2.46453 4.30783 0
M  V30 9209 H 861.312 3.79026 4.79738 0
M  V30 9210 H 865.486 4.72475 5.11605 0
M  V30 9211 H 863.113 5.39291 5.35788 0
M  V30 9212 N 864.689 -1.48329 0.532571 0
M  V30 9213 C 865.622 -2.26524 -0.2761 0
M  V30 9214 C 866.6 -1.32498 -0.942496 0
M  V30 9215 O 867.784 -1.61844 -0.966376 0
M  V30 9216 C 864.911 -3.08808 -1.39124 0
M  V30 9217 C 863.957 -4.18227 -0.835984 0
M  V30 9218 S 864.79 -5.34669 0.298186 0
M  V30 9219 C 865.946 -6.20514 -0.81937 0
M  V30 9220 H 866.179 -2.94764 0.387502 0
M  V30 9221 H 863.712 -1.51081 0.318407 0
M  V30 9222 H 865.67 -3.56792 -2.03002 0
M  V30 9223 H 864.331 -2.39976 -2.02658 0
M  V30 9224 H 863.524 -4.75435 -1.67264 0
M  V30 9225 H 863.126 -3.72996 -0.27385 0
M  V30 9226 H 865.418 -6.55371 -1.7174 0
M  V30 9227 H 866.361 -7.07525 -0.285199 0
M  V30 9228 H 866.769 -5.5366 -1.10094 0
M  V30 9229 N 866.167 -0.267825 -1.55308 0
M  V30 9230 C 867.114 0.6228 -2.22238 0
M  V30 9231 C 868.084 1.15536 -1.19334 0
M  V30 9232 O 869.269 1.206 -1.47852 0
M  V30 9233 C 866.409 1.80447 -2.94164 0
M  V30 9234 C 865.522 1.30646 -4.11771 0
M  V30 9235 C 864.657 2.44935 -4.7136 0
M  V30 9236 C 863.696 1.92099 -5.81175 0
M  V30 9237 N 862.833 2.99834 -6.34857 0
M  V30 9238 H 867.673 0.0453874 -2.97965 0
M  V30 9239 H 865.21 0.0106371 -1.47096 0
M  V30 9240 H 867.168 2.49896 -3.34078 0
M  V30 9241 H 865.798 2.35403 -2.20874 0
M  V30 9242 H 864.85 0.505314 -3.77029 0
M  V30 9243 H 866.162 0.879409 -4.90987 0
M  V30 9244 H 865.316 3.2239 -5.13955 0
M  V30 9245 H 864.055 2.90951 -3.91406 0
M  V30 9246 H 863.06 1.13122 -5.38037 0
M  V30 9247 H 864.285 1.47027 -6.62993 0
M  V30 9248 H 862.231 3.45246 -5.578 0
M  V30 9249 H 862.148 2.61524 -7.09324 0
M  V30 9250 H 863.416 3.77286 -6.82111 0
M  V30 9251 N 867.645 1.57599 0.00500368 0
M  V30 9252 C 868.592 2.08106 0.998025 0
M  V30 9253 C 869.562 0.975374 1.34446 0
M  V30 9254 O 870.747 1.24749 1.44369 0
M  V30 9255 C 867.887 2.58496 2.28635 0
M  V30 9256 C 867 3.82947 1.99939 0
M  V30 9257 C 866.135 4.21857 3.22816 0
M  V30 9258 C 865.174 5.39159 2.89783 0
M  V30 9259 N 864.311 5.73386 4.05183 0
M  V30 9260 H 869.151 2.92684 0.560385 0
M  V30 9261 H 866.688 1.44692 0.265053 0
M  V30 9262 H 868.646 2.85787 3.03943 0
M  V30 9263 H 867.276 1.768 2.70077 0
M  V30 9264 H 866.328 3.62594 1.1502 0
M  V30 9265 H 867.64 4.68358 1.71588 0
M  V30 9266 H 866.794 4.50404 4.06474 0
M  V30 9267 H 865.533 3.35145 3.54301 0
M  V30 9268 H 864.538 5.1034 2.04532 0
M  V30 9269 H 865.763 6.27543 2.59551 0
M  V30 9270 H 863.709 4.89632 4.36574 0
M  V30 9271 H 863.626 6.53359 3.80339 0
M  V30 9272 H 864.894 6.06522 4.89644 0
M  V30 9273 N 869.123 -0.277682 1.55134 0
M  V30 9274 C 870.372 -1.00766 1.74726 0
M  V30 9275 C 870.685 -1.87617 0.553092 0
M  V30 9276 O 871.891 -2.64058 0.631318 0
M  V30 9277 C 870.347 -1.84147 3.09221 0
M  V30 9278 C 869.955 -1.02186 4.3619 0
M  V30 9279 C 871.699 -2.56604 3.38164 0
M  V30 9280 C 869.606 -1.84978 5.61727 0
M  V30 9281 H 868.536 -0.379948 0.651273 0
M  V30 9282 H 871.187 -0.263543 1.81598 0
M  V30 9283 H 869.569 -2.62637 2.96375 0
M  V30 9284 H 870.743 -0.281459 4.5994 0
M  V30 9285 H 869.058 -0.412054 4.14356 0
M  V30 9286 H 871.655 -3.18942 4.29162 0
M  V30 9287 H 871.998 -3.26647 2.58085 0
M  V30 9288 H 872.531 -1.85147 3.52087 0
M  V30 9289 H 869.27 -1.19365 6.4454 0
M  V30 9290 H 868.79 -2.56628 5.42128 0
M  V30 9291 H 870.469 -2.42458 5.99853 0
M  V30 9292 N 870.601 -1.47988 -0.541979 0
M  V30 9293 C 871.533 -1.5769 -1.66332 0
M  V30 9294 C 872.546 -0.461994 -1.56107 0
M  V30 9295 O 873.735 -0.732306 -1.62787 0
M  V30 9296 C 870.835 -1.47939 -3.04905 0
M  V30 9297 C 870.008 -2.74263 -3.40733 0
M  V30 9298 C 869.067 -2.58133 -4.58534 0
M  V30 9299 O 868.093 -3.31991 -4.62354 0
M  V30 9300 N 869.295 -1.6696 -5.55972 0
M  V30 9301 H 872.06 -2.54389 -1.5845 0
M  V30 9302 H 869.621 -1.4456 -0.728979 0
M  V30 9303 H 871.613 -1.34861 -3.81569 0
M  V30 9304 H 870.183 -0.592626 -3.06931 0
M  V30 9305 H 869.403 -3.01992 -2.53366 0
M  V30 9306 H 870.691 -3.58094 -3.6145 0
M  V30 9307 H 870.089 -1.06134 -5.55655 0
M  V30 9308 H 868.646 -1.59826 -6.31901 0
M  V30 9309 N 872.079 0.78992 -1.36375 0
M  V30 9310 C 873.026 1.90254 -1.3066 0
M  V30 9311 C 873.996 1.65171 -0.17539 0
M  V30 9312 O 875.181 1.87338 -0.361824 0
M  V30 9313 C 872.321 3.27057 -1.10125 0
M  V30 9314 C 871.434 3.64215 -2.32317 0
M  V30 9315 C 870.569 4.90134 -2.04798 0
M  V30 9316 C 869.608 5.19969 -3.22953 0
M  V30 9317 N 868.745 6.37071 -2.95102 0
M  V30 9318 H 873.585 1.94474 -2.25796 0
M  V30 9319 H 871.122 0.951022 -1.12223 0
M  V30 9320 H 873.08 4.05947 -0.962453 0
M  V30 9321 H 871.71 3.22261 -0.186444 0
M  V30 9322 H 870.762 2.80454 -2.57002 0
M  V30 9323 H 872.074 3.82212 -3.20492 0
M  V30 9324 H 871.228 5.76888 -1.87845 0
M  V30 9325 H 869.967 4.74205 -1.13932 0
M  V30 9326 H 868.972 4.31699 -3.40465 0
M  V30 9327 H 870.197 5.37817 -4.14644 0
M  V30 9328 H 868.143 6.22535 -2.06848 0
M  V30 9329 H 868.06 6.55398 -3.76815 0
M  V30 9330 H 869.328 7.26808 -2.81727 0
M  V30 9331 N 873.557 1.20646 1.01402 0
M  V30 9332 C 874.487 0.98155 2.11867 0
M  V30 9333 C 875.468 -0.0903712 1.6986 0
M  V30 9334 O 876.653 0.0676586 1.94082 0
M  V30 9335 C 873.783 0.535636 3.43145 0
M  V30 9336 C 872.737 1.55109 3.98905 0
M  V30 9337 C 872.063 0.961725 5.2598 0
M  V30 9338 C 873.363 2.93552 4.32001 0
M  V30 9339 H 875.057 1.90544 2.3094 0
M  V30 9340 H 872.603 0.917554 1.10982 0
M  V30 9341 H 874.556 0.365512 4.19812 0
M  V30 9342 H 873.28 -0.423882 3.23838 0
M  V30 9343 H 871.939 1.70862 3.24348 0
M  V30 9344 H 871.587 -0.00580108 5.03 0
M  V30 9345 H 871.287 1.63993 5.64252 0
M  V30 9346 H 872.811 0.802726 6.053 0
M  V30 9347 H 874.225 2.81295 4.99546 0
M  V30 9348 H 872.622 3.58303 4.81393 0
M  V30 9349 H 873.692 3.4508 3.40658 0
M  V30 9350 N 875.035 -1.20752 1.01276 0
M  V30 9351 C 875.985 -2.21252 0.550602 0
M  V30 9352 C 876.969 -1.56052 -0.391985 0
M  V30 9353 O 878.161 -1.75682 -0.215575 0
M  V30 9354 C 875.29 -3.43112 -0.113601 0
M  V30 9355 C 874.376 -4.15485 0.850465 0
M  V30 9356 N 874.767 -4.64301 2.00643 0
M  V30 9357 C 873.065 -4.40932 0.670476 0
M  V30 9358 C 873.766 -5.197 2.61317 0
M  V30 9359 N 872.742 -5.09534 1.8941 0
M  V30 9360 H 876.544 -2.56657 1.43194 0
M  V30 9361 H 874.058 -1.36646 0.877597 0
M  V30 9362 H 876.055 -4.1433 -0.462211 0
M  V30 9363 H 874.715 -3.09213 -0.990825 0
M  V30 9364 H 875.726 -4.59637 2.38651 0
M  V30 9365 H 872.403 -4.17197 -0.159016 0
M  V30 9366 H 873.793 -5.67873 3.59123 0
M  V30 9367 N 876.513 -0.788492 -1.36457 0
M  V30 9368 C 877.741 -0.372365 -2.03522 0
M  V30 9369 C 878.156 1.01093 -1.59454 0
M  V30 9370 O 877.513 1.64824 -0.783535 0
M  V30 9371 C 877.564 -0.425435 -3.58988 0
M  V30 9372 O 877.285 -1.75418 -4.01448 0
M  V30 9373 C 878.786 0.000180167 -4.433 0
M  V30 9374 H 876.006 -0.1536 -0.653183 0
M  V30 9375 H 878.55 -1.06708 -1.74452 0
M  V30 9376 H 876.705 0.220856 -3.8677 0
M  V30 9377 H 877.119 -1.70437 -4.96036 0
M  V30 9378 H 878.593 -0.0880919 -5.5193 0
M  V30 9379 H 879.07 1.05269 -4.26398 0
M  V30 9380 H 879.676 -0.618563 -4.20778 0
M  V30 9381 N 877.991 1.48044 -0.54043 0
M  V30 9382 C 879.221 2.06595 -0.0144943 0
M  V30 9383 C 879.629 1.39593 1.27713 0
M  V30 9384 O 878.972 0.480794 1.77297 0
M  V30 9385 C 879.034 3.5849 0.269316 0
M  V30 9386 C 878.698 4.47429 -0.930372 0
M  V30 9387 C 879.695 4.8657 -1.83155 0
M  V30 9388 C 877.38 4.89185 -1.14032 0
M  V30 9389 C 879.374 5.66246 -2.92649 0
M  V30 9390 C 877.061 5.6863 -2.23838 0
M  V30 9391 C 878.059 6.07069 -3.12979 0
M  V30 9392 O 877.747 6.84917 -4.20884 0
M  V30 9393 H 877.479 0.675086 -0.0351467 0
M  V30 9394 H 880.033 1.91275 -0.74853 0
M  V30 9395 H 878.263 3.71961 1.05745 0
M  V30 9396 H 879.952 3.99124 0.738595 0
M  V30 9397 H 880.718 4.54924 -1.68134 0
M  V30 9398 H 876.597 4.58742 -0.455717 0
M  V30 9399 H 880.141 5.96169 -3.62254 0
M  V30 9400 H 876.038 5.99688 -2.38839 0
M  V30 9401 H 876.806 7.03287 -4.18723 0
M  V30 9402 N 879.47 0.276058 1.55163 0
M  V30 9403 C 880.886 -0.0780579 1.59409 0
M  V30 9404 C 881.086 -1.54521 1.29327 0
M  V30 9405 O 880.142 -2.29422 1.05459 0
M  V30 9406 C 881.455 0.297422 2.99225 0
M  V30 9407 C 883.003 0.244117 3.12047 0
M  V30 9408 C 883.478 0.594051 4.54131 0
M  V30 9409 N 884.969 0.54564 4.59975 0
M  V30 9410 C 885.704 0.789192 5.67943 0
M  V30 9411 N 885.2 1.09741 6.84053 0
M  V30 9412 N 886.993 0.717926 5.57496 0
M  V30 9413 H 879.144 1.23251 1.72982 0
M  V30 9414 H 881.407 0.497988 0.806667 0
M  V30 9415 H 881.113 1.31782 3.26077 0
M  V30 9416 H 880.987 -0.361286 3.75466 0
M  V30 9417 H 883.374 -0.766992 2.84958 0
M  V30 9418 H 883.455 0.937097 2.38017 0
M  V30 9419 H 883.099 1.60285 4.81945 0
M  V30 9420 H 883.029 -0.120728 5.26462 0
M  V30 9421 H 885.52 0.317334 3.76565 0
M  V30 9422 H 885.833 1.26989 7.62295 0
M  V30 9423 H 884.178 1.13519 6.85666 0
M  V30 9424 H 887.369 0.47697 4.65664 0
M  V30 9425 H 887.542 0.911118 6.41563 0
M  V30 9426 N 880.948 -1.576 0.00335426 0
M  V30 9427 C 882.225 -1.81945 -0.718015 0
M  V30 9428 C 882.605 -0.881788 -1.91801 0
M  V30 9429 O 881.953 0.0687118 -2.28397 0
M  V30 9430 C 882.163 -3.30521 -1.12058 0
M  V30 9431 C 883.511 -3.96345 -1.52303 0
M  V30 9432 O 884.535 -3.34864 -1.21428 0
M  V30 9433 O 883.394 -5.04655 -2.09728 0
M  V30 9434 H 880.488 -0.749328 -0.34991 0
M  V30 9435 H 883.034 -1.69675 0.0290654 0
M  V30 9436 H 881.806 -3.90399 -0.265378 0
M  V30 9437 H 881.429 -3.47802 -1.92665 0
M  V30 9438 N 882.426 0.269451 -1.5528 0
M  V30 9439 C 883.389 1.31642 -1.87625 0
M  V30 9440 C 884.389 1.42182 -0.751058 0
M  V30 9441 O 885.579 1.41272 -1.01921 0
M  V30 9442 C 882.711 2.6973 -2.08467 0
M  V30 9443 H 883.904 1.0419 -2.81219 0
M  V30 9444 H 881.457 0.507685 -1.47825 0
M  V30 9445 H 882.192 3.02356 -1.17266 0
M  V30 9446 H 881.977 2.63465 -2.90394 0
M  V30 9447 H 883.467 3.4537 -2.34753 0
M  V30 9448 N 883.904 1.48273 0.534124 0
M  V30 9449 C 885.153 1.55334 1.28663 0
M  V30 9450 C 885.466 0.230345 1.94239 0
M  V30 9451 O 886.672 0.179161 2.70908 0
M  V30 9452 C 885.128 2.73927 2.33435 0
M  V30 9453 C 884.736 4.12852 1.73947 0
M  V30 9454 C 886.48 2.90298 3.09722 0
M  V30 9455 C 884.387 5.22711 2.76636 0
M  V30 9456 H 883.317 0.578262 0.483869 0
M  V30 9457 H 885.968 1.74598 0.564602 0
M  V30 9458 H 884.35 2.48089 3.08655 0
M  V30 9459 H 885.524 4.48691 1.04944 0
M  V30 9460 H 883.839 4.01562 1.10167 0
M  V30 9461 H 886.436 3.69542 3.86449 0
M  V30 9462 H 886.779 1.99598 3.6533 0
M  V30 9463 H 887.312 3.16017 2.41616 0
M  V30 9464 H 884.051 6.15362 2.25852 0
M  V30 9465 H 883.571 4.91364 3.43979 0
M  V30 9466 H 885.25 5.50648 3.39699 0
M  V30 9467 N 885.382 -0.782676 1.36792 0
M  V30 9468 C 886.793 -1.35828 1.28092 0
M  V30 9469 C 887.144 -1.96052 -0.076315 0
M  V30 9470 O 886.269 -1.93042 -0.977935 0
M  V30 9471 C 886.864 -2.46949 2.31952 0
M  V30 9472 C 885.423 -3.00307 2.2692 0
M  V30 9473 C 884.57 -1.73436 2.16368 0
M  V30 9474 H 887.521 -0.583788 1.47572 0
M  V30 9475 H 887.542 -3.26144 1.95986 0
M  V30 9476 H 887.054 -2.03087 3.30722 0
M  V30 9477 H 885.155 -3.48571 1.31639 0
M  V30 9478 H 885.268 -3.56663 3.19887 0
M  V30 9479 H 883.632 -1.95934 1.62733 0
M  V30 9480 H 884.415 -1.31693 3.17036 0
M  V30 9481 N 886.86 -1.21182 -1.00761 0
M  V30 9482 C 888.088 -1.05335 -1.78079 0
M  V30 9483 C 888.503 0.396988 -1.84579 0
M  V30 9484 O 887.86 1.27548 -1.30529 0
M  V30 9485 C 887.911 -1.64089 -3.22113 0
M  V30 9486 O 887.632 -3.03448 -3.15992 0
M  V30 9487 C 889.133 -1.53318 -4.15943 0
M  V30 9488 H 886.353 -0.37005 -0.559736 0
M  V30 9489 H 888.897 -1.60463 -1.26775 0
M  V30 9490 H 887.052 -1.13059 -3.70535 0
M  V30 9491 H 887.466 -3.31492 -4.06465 0
M  V30 9492 H 888.94 -1.99174 -5.14814 0
M  V30 9493 H 889.417 -0.487166 -4.3649 0
M  V30 9494 H 890.023 -2.03582 -3.73409 0
M  V30 9495 N 888.338 1.20213 -1.01915 0
M  V30 9496 C 889.27 2.2251 -0.549725 0
M  V30 9497 C 890.283 1.58558 0.369235 0
M  V30 9498 O 891.472 1.77715 0.167176 0
M  V30 9499 C 888.572 3.38189 0.219432 0
M  V30 9500 C 887.745 4.31729 -0.702066 0
M  V30 9501 C 886.804 5.26196 0.0199624 0
M  V30 9502 O 885.83 5.65993 -0.60339 0
M  V30 9503 N 887.032 5.65895 1.29397 0
M  V30 9504 H 889.797 2.63412 -1.42948 0
M  V30 9505 H 887.358 1.3478 -0.896987 0
M  V30 9506 H 889.35 3.98392 0.711763 0
M  V30 9507 H 887.92 2.96156 1.00051 0
M  V30 9508 H 887.14 3.69455 -1.37466 0
M  V30 9509 H 888.428 4.91145 -1.3287 0
M  V30 9510 H 887.826 5.35579 1.8213 0
M  V30 9511 H 886.383 6.28395 1.73098 0
M  V30 9512 N 889.816 0.795718 1.36037 0
M  V30 9513 C 891.041 0.38204 2.03851 0
M  V30 9514 C 891.466 -0.995553 1.59594 0
M  V30 9515 O 890.824 -1.64258 0.767401 0
M  V30 9516 C 890.872 0.461248 3.57638 0
M  V30 9517 O 889.976 -0.529448 4.08987 0
M  V30 9518 H 889.317 0.161227 0.644129 0
M  V30 9519 H 891.847 1.07858 1.73861 0
M  V30 9520 H 891.857 0.32712 4.06687 0
M  V30 9521 H 890.532 1.46613 3.89201 0
M  V30 9522 H 889.109 -0.35646 3.71192 0
M  V30 9523 N 891.294 -1.47756 0.548274 0
M  V30 9524 C 892.54 -2.02789 0.0209265 0
M  V30 9525 C 892.873 -1.42268 -1.32187 0
M  V30 9526 O 892.148 -0.575001 -1.85806 0
M  V30 9527 C 892.431 -3.60007 -0.0816674 0
M  V30 9528 C 892.284 -4.30977 1.28759 0
M  V30 9529 C 893.603 -4.32777 -0.799515 0
M  V30 9530 H 890.722 -0.736944 0.00907884 0
M  V30 9531 H 893.364 -1.76282 0.708839 0
M  V30 9532 H 891.514 -3.82722 -0.667537 0
M  V30 9533 H 893.186 -4.19629 1.91597 0
M  V30 9534 H 891.429 -3.9168 1.86466 0
M  V30 9535 H 892.1 -5.39488 1.16861 0
M  V30 9536 H 894.576 -4.15001 -0.30216 0
M  V30 9537 H 893.452 -5.42431 -0.840239 0
M  V30 9538 H 893.713 -4.01358 -1.85375 0
M  V30 9539 N 892.772 -0.284283 -1.55015 0
M  V30 9540 C 893.702 0.592663 -2.25853 0
M  V30 9541 C 894.683 1.15151 -1.25197 0
M  V30 9542 O 895.868 1.18395 -1.53936 0
M  V30 9543 C 892.998 1.77254 -2.98661 0
M  V30 9544 C 891.952 1.34482 -4.06323 0
M  V30 9545 C 891.278 2.60853 -4.66754 0
M  V30 9546 C 892.578 0.488288 -5.20013 0
M  V30 9547 H 894.272 0.00187041 -2.994 0
M  V30 9548 H 891.818 -0.000540402 -1.44 0
M  V30 9549 H 893.771 2.39199 -3.46932 0
M  V30 9550 H 892.495 2.38931 -2.22664 0
M  V30 9551 H 891.154 0.748519 -3.58877 0
M  V30 9552 H 890.802 3.20808 -3.87416 0
M  V30 9553 H 890.502 2.32942 -5.39455 0
M  V30 9554 H 892.026 3.23631 -5.1778 0
M  V30 9555 H 893.44 1.01298 -5.6428 0
M  V30 9556 H 891.837 0.303669 -5.99331 0
M  V30 9557 H 892.907 -0.490727 -4.8241 0
M  V30 9558 N 894.251 1.57596 -0.0117121 0
M  V30 9559 C 895.479 1.9536 0.681334 0
M  V30 9560 C 895.894 0.887255 1.66653 0
M  V30 9561 O 895.251 -0.132692 1.82017 0
M  V30 9562 C 895.302 3.33165 1.40298 0
M  V30 9563 O 895.023 4.35707 0.45728 0
M  V30 9564 C 896.524 3.85458 2.18946 0
M  V30 9565 H 893.744 0.643826 0.189023 0
M  V30 9566 H 896.288 2.04392 -0.066311 0
M  V30 9567 H 894.443 3.25404 2.10216 0
M  V30 9568 H 894.857 5.15495 0.96773 0
M  V30 9569 H 896.331 4.84275 2.64918 0
M  V30 9570 H 896.808 3.18781 3.02118 0
M  V30 9571 H 897.414 3.96431 1.5402 0
M  V30 9572 N 895.729 -0.261212 1.5542 0
M  V30 9573 C 896.978 -0.989072 1.75785 0
M  V30 9574 C 897.291 -1.8702 0.572961 0
M  V30 9575 O 898.497 -2.63374 0.659289 0
M  V30 9576 C 896.953 -1.80857 3.11157 0
M  V30 9577 C 896.561 -0.975535 4.3725 0
M  V30 9578 C 898.305 -2.53003 3.40866 0
M  V30 9579 C 896.212 -1.7901 5.63657 0
M  V30 9580 H 895.142 -0.373019 0.655266 0
M  V30 9581 H 897.793 -0.244267 1.81867 0
M  V30 9582 H 896.175 -2.59479 2.99144 0
M  V30 9583 H 897.349 -0.232661 4.60212 0
M  V30 9584 H 895.664 -0.368083 4.1477 0
M  V30 9585 H 898.261 -3.14372 4.32521 0
M  V30 9586 H 898.604 -3.23891 2.61535 0
M  V30 9587 H 899.137 -1.81403 3.54031 0
M  V30 9588 H 895.876 -1.12522 6.4577 0
M  V30 9589 H 895.396 -2.50863 5.44819 0
M  V30 9590 H 897.075 -2.36082 6.0239 0
M  V30 9591 N 897.207 -1.48554 -0.526253 0
M  V30 9592 C 898.435 -1.60429 -1.30652 0
M  V30 9593 C 898.85 -0.265963 -1.86917 0
M  V30 9594 O 898.207 0.745262 -1.6659 0
M  V30 9595 C 898.258 -2.65377 -2.45473 0
M  V30 9596 O 897.979 -3.94017 -1.91527 0
M  V30 9597 C 899.48 -2.87726 -3.37237 0
M  V30 9598 H 896.7 -0.540817 -0.397187 0
M  V30 9599 H 899.244 -1.94409 -0.634461 0
M  V30 9600 H 897.399 -2.34246 -3.08557 0
M  V30 9601 H 897.813 -4.51623 -2.66715 0
M  V30 9602 H 899.287 -3.64951 -4.14144 0
M  V30 9603 H 899.764 -1.96688 -3.92696 0
M  V30 9604 H 900.37 -3.20176 -2.79942 0
M  V30 9605 N 898.685 0.775411 -1.37205 0
M  V30 9606 C 899.91 1.5696 -1.35567 0
M  V30 9607 C 900.335 1.88012 0.0575554 0
M  V30 9608 O 899.693 1.48954 1.03355 0
M  V30 9609 C 899.741 2.85886 -2.19776 0
M  V30 9610 O 898.845 3.80103 -1.59987 0
M  V30 9611 H 898.186 0.475583 -0.463375 0
M  V30 9612 H 900.716 0.96001 -1.80679 0
M  V30 9613 H 900.726 3.35024 -2.32859 0
M  V30 9614 H 899.401 2.62613 -3.22502 0
M  V30 9615 H 897.978 3.38736 -1.55924 0
M  V30 9616 N 900.163 1.21714 1.00117 0
M  V30 9617 C 901.111 0.976937 2.11089 0
M  V30 9618 C 902.105 -0.0771295 1.69224 0
M  V30 9619 O 903.311 0.0745945 1.79845 0
M  V30 9620 H 899.686 0.298687 0.690138 0
M  V30 9621 H 901.657 1.91881 2.28526 0
M  V30 9622 C 900.406 0.562369 3.43122 0
M  V30 9623 H 899.729 1.36509 3.75773 0
M  V30 9624 H 901.169 0.433642 4.21777 0
M  V30 9625 C 899.628 -0.727148 3.28959 0
M  V30 9626 O 900.158 -1.78171 3.60025 0
M  V30 9627 N 898.364 -0.695129 2.82164 0
M  V30 9628 H 897.911 0.163346 2.57082 0
M  V30 9629 H 897.869 -1.55822 2.73069 0
M  V30 9630 N 901.641 -1.19671 1.02551 0
M  V30 9631 C 902.887 -1.89548 0.721069 0
M  V30 9632 C 903.22 -1.79209 -0.748176 0
M  V30 9633 O 902.495 -1.1822 -1.54448 0
M  V30 9634 C 902.778 -3.4061 1.16861 0
M  V30 9635 C 902.631 -3.59838 2.69883 0
M  V30 9636 C 903.95 -4.33718 0.746782 0
M  V30 9637 H 901.069 -0.688315 0.263422 0
M  V30 9638 H 903.711 -1.40883 1.27483 0
M  V30 9639 H 901.861 -3.82188 0.697477 0
M  V30 9640 H 903.533 -3.27454 3.24917 0
M  V30 9641 H 901.776 -3.03005 3.10435 0
M  V30 9642 H 902.447 -4.65766 2.96253 0
M  V30 9643 H 904.923 -3.99837 1.15195 0
M  V30 9644 H 903.799 -5.38012 1.08786 0
M  V30 9645 H 904.06 -4.40704 -0.351057 0
M  V30 9646 N 903.119 -0.802921 -1.35613 0
M  V30 9647 C 904.365 -0.382141 -1.99167 0
M  V30 9648 C 904.698 1.04704 -1.63556 0
M  V30 9649 O 903.973 1.72578 -0.89706 0
M  V30 9650 C 904.256 -0.561493 -3.55695 0
M  V30 9651 C 904.109 -2.03534 -4.01116 0
M  V30 9652 C 905.428 0.0151135 -4.40097 0
M  V30 9653 H 902.547 -0.140322 -0.723518 0
M  V30 9654 H 905.189 -1.01177 -1.6082 0
M  V30 9655 H 903.339 -0.0255083 -3.88492 0
M  V30 9656 H 905.011 -2.63343 -3.78746 0
M  V30 9657 H 903.254 -2.5331 -3.52159 0
M  V30 9658 H 903.925 -2.11173 -5.1001 0
M  V30 9659 H 906.401 -0.442582 -4.1374 0
M  V30 9660 H 905.277 -0.140316 -5.48721 0
M  V30 9661 H 905.538 1.10848 -4.27978 0
M  V30 9662 N 904.597 1.47463 -0.556102 0
M  V30 9663 C 905.827 2.06568 -0.0364056 0
M  V30 9664 C 906.235 1.40939 1.26225 0
M  V30 9665 O 905.578 0.499572 1.76777 0
M  V30 9666 C 905.64 3.58755 0.231278 0
M  V30 9667 C 905.304 4.46417 -0.977776 0
M  V30 9668 C 906.301 4.846 -1.88305 0
M  V30 9669 C 903.986 4.87948 -1.19214 0
M  V30 9670 C 905.98 5.63111 -2.98639 0
M  V30 9671 C 903.667 5.66224 -2.29857 0
M  V30 9672 C 904.665 6.03716 -3.194 0
M  V30 9673 O 904.353 6.80415 -4.28125 0
M  V30 9674 H 904.085 0.674675 -0.042305 0
M  V30 9675 H 906.639 1.9047 -0.768775 0
M  V30 9676 H 904.869 3.73061 1.01794 0
M  V30 9677 H 906.558 3.99884 0.696221 0
M  V30 9678 H 907.324 4.53115 -1.72949 0
M  V30 9679 H 903.203 4.58233 -0.504347 0
M  V30 9680 H 906.747 5.92293 -3.68557 0
M  V30 9681 H 902.644 5.97121 -2.45186 0
M  V30 9682 H 903.412 6.98807 -4.26159 0
M  V30 9683 N 906.075 0.2925 1.54862 0
M  V30 9684 C 907.323 -0.318633 1.99572 0
M  V30 9685 C 907.644 -1.55062 1.1824 0
M  V30 9686 O 906.914 -1.93943 0.276226 0
M  V30 9687 H 905.494 -0.120722 0.737181 0
M  V30 9688 H 908.156 0.401862 1.90712 0
M  V30 9689 H 907.252 -0.596542 3.06346 0
M  V30 9690 N 907.553 -1.57587 0.0200696 0
M  V30 9691 C 908.5 -2.09667 -0.964791 0
M  V30 9692 C 909.47 -0.99664 -1.32877 0
M  V30 9693 O 910.655 -1.2703 -1.42366 0
M  V30 9694 C 907.795 -2.62101 -2.24493 0
M  V30 9695 C 906.908 -3.8608 -1.93821 0
M  V30 9696 C 906.043 -4.26939 -3.16064 0
M  V30 9697 C 905.082 -5.43701 -2.81169 0
M  V30 9698 N 904.219 -5.79759 -3.9601 0
M  V30 9699 H 909.059 -2.93538 -0.513751 0
M  V30 9700 H 906.596 -1.45096 -0.242 0
M  V30 9701 H 908.554 -2.90587 -2.99358 0
M  V30 9702 H 907.184 -1.81074 -2.6723 0
M  V30 9703 H 906.236 -3.64378 -1.09237 0
M  V30 9704 H 907.548 -4.71028 -1.64115 0
M  V30 9705 H 906.702 -4.56814 -3.99257 0
M  V30 9706 H 905.441 -3.40739 -3.48924 0
M  V30 9707 H 904.446 -5.13529 -1.96387 0
M  V30 9708 H 905.671 -6.31593 -2.49535 0
M  V30 9709 H 903.617 -4.96516 -4.28729 0
M  V30 9710 H 903.534 -6.59327 -3.69896 0
M  V30 9711 H 904.802 -6.14235 -4.79933 0
M  V30 9712 N 909.032 0.252966 -1.55557 0
M  V30 9713 C 909.979 1.3131 -1.89806 0
M  V30 9714 C 910.949 1.48121 -0.751633 0
M  V30 9715 O 912.134 1.62202 -1.00474 0
M  V30 9716 C 909.274 2.66467 -2.19293 0
M  V30 9717 C 908.387 2.57714 -3.46709 0
M  V30 9718 C 907.522 3.85184 -3.65796 0
M  V30 9719 C 906.561 3.71023 -4.86835 0
M  V30 9720 N 905.698 4.90371 -5.02474 0
M  V30 9721 H 910.538 1.01402 -2.80217 0
M  V30 9722 H 908.075 0.489462 -1.38718 0
M  V30 9723 H 910.033 3.45132 -2.34392 0
M  V30 9724 H 908.663 2.94536 -1.32093 0
M  V30 9725 H 907.715 1.70651 -3.39974 0
M  V30 9726 H 909.027 2.43158 -4.35517 0
M  V30 9727 H 908.181 4.72292 -3.80822 0
M  V30 9728 H 906.92 4.0263 -2.7521 0
M  V30 9729 H 905.925 2.82299 -4.71792 0
M  V30 9730 H 907.15 3.55078 -5.78875 0
M  V30 9731 H 905.096 5.0819 -4.14824 0
M  V30 9732 H 905.013 4.78423 -5.85361 0
M  V30 9733 H 906.281 5.78995 -5.21905 0
M  V30 9734 N 910.51 1.48831 0.518367 0
M  V30 9735 C 911.738 1.6112 1.298 0
M  V30 9736 C 912.153 0.275872 1.86774 0
M  V30 9737 O 911.51 -0.736416 1.66983 0
M  V30 9738 C 911.561 2.66675 2.44063 0
M  V30 9739 O 911.282 3.95027 1.89434 0
M  V30 9740 C 912.783 2.8951 3.35706 0
M  V30 9741 H 910.003 0.542916 0.394314 0
M  V30 9742 H 912.547 1.94743 0.624142 0
M  V30 9743 H 910.702 2.35879 3.07311 0
M  V30 9744 H 911.116 4.53031 2.64316 0
M  V30 9745 H 912.59 3.67142 4.12202 0
M  V30 9746 H 913.067 1.98768 3.91648 0
M  V30 9747 H 913.673 3.21656 2.7824 0
M  V30 9748 N 911.988 -0.768124 1.37614 0
M  V30 9749 C 913.236 -1.52379 1.3276 0
M  V30 9750 C 913.557 -1.94809 -0.0863564 0
M  V30 9751 O 912.827 -1.66568 -1.03112 0
M  V30 9752 H 911.407 -0.565179 0.488448 0
M  V30 9753 H 914.069 -0.913974 1.72141 0
M  V30 9754 H 913.165 -2.4215 1.96901 0
M  V30 9755 N 913.466 -1.22244 -0.994698 0
M  V30 9756 C 914.414 -0.988118 -2.10568 0
M  V30 9757 C 915.408 0.0681541 -1.69263 0
M  V30 9758 O 916.614 -0.0841311 -1.79803 0
M  V30 9759 H 912.989 -0.302343 -0.688544 0
M  V30 9760 H 914.96 -1.93091 -2.27505 0
M  V30 9761 C 913.709 -0.580557 -3.42819 0
M  V30 9762 H 913.032 -1.385 -3.75044 0
M  V30 9763 H 914.472 -0.456004 -4.21541 0
M  V30 9764 C 912.931 0.709692 -3.2934 0
M  V30 9765 O 913.461 1.76259 -3.60965 0
M  V30 9766 N 911.667 0.680155 -2.82528 0
M  V30 9767 H 911.214 -0.176977 -2.56991 0
M  V30 9768 H 911.172 1.54372 -2.73892 0
M  V30 9769 N 914.944 1.19125 -1.03184 0
M  V30 9770 C 916.172 1.92838 -0.74975 0
M  V30 9771 C 916.587 1.75667 0.691851 0
M  V30 9772 O 915.944 1.0805 1.47076 0
M  V30 9773 C 915.995 3.44509 -1.09525 0
M  V30 9774 O 915.716 3.6113 -2.48025 0
M  V30 9775 C 917.217 4.35338 -0.836397 0
M  V30 9776 H 914.437 0.61246 -0.274105 0
M  V30 9777 H 916.981 1.5118 -1.37712 0
M  V30 9778 H 915.136 3.83988 -0.513006 0
M  V30 9779 H 915.55 4.54959 -2.60984 0
M  V30 9780 H 917.024 5.4035 -1.12808 0
M  V30 9781 H 917.501 4.38602 0.229102 0
M  V30 9782 H 918.107 4.01544 -1.40152 0
M  V30 9783 N 916.422 0.810101 1.35185 0
M  V30 9784 C 917.833 0.452616 1.81131 0
M  V30 9785 C 918.184 -1.02573 1.67252 0
M  V30 9786 O 917.309 -1.79735 1.20516 0
M  V30 9787 C 917.904 0.814775 3.28857 0
M  V30 9788 C 916.463 0.509839 3.72931 0
M  V30 9789 C 915.61 1.03852 2.57119 0
M  V30 9790 H 918.561 1.00143 1.23114 0
M  V30 9791 H 918.582 0.113635 3.8033 0
M  V30 9792 H 918.094 1.89078 3.38926 0
M  V30 9793 H 916.195 -0.557289 3.68409 0
M  V30 9794 H 916.308 1.04493 4.67566 0
M  V30 9795 H 914.672 0.460671 2.50499 0
M  V30 9796 H 915.455 2.12071 2.69964 0
M  V30 9797 N 917.9 -1.47166 0.563914 0
M  V30 9798 C 919.177 -1.95586 -0.0236172 0
M  V30 9799 C 919.557 -1.50655 -1.47872 0
M  V30 9800 O 918.905 -0.748479 -2.15894 0
M  V30 9801 C 919.115 -3.48762 0.128841 0
M  V30 9802 C 920.463 -4.24598 -0.0130544 0
M  V30 9803 O 921.487 -3.56155 0.0567242 0
M  V30 9804 O 920.346 -5.46253 -0.164332 0
M  V30 9805 H 917.44 -0.824793 -0.0603789 0
M  V30 9806 H 919.986 -1.57536 0.63091 0
M  V30 9807 H 918.758 -3.74291 1.14113 0
M  V30 9808 H 918.381 -3.93594 -0.56299 0
M  V30 9809 N 919.378 -0.300708 -1.54705 0
M  V30 9810 C 920.626 0.308044 -1.99739 0
M  V30 9811 C 920.947 1.54433 -1.19061 0
M  V30 9812 O 920.217 1.93794 -0.286507 0
M  V30 9813 H 918.797 0.116811 -0.73781 0
M  V30 9814 H 921.459 -0.41197 -1.90496 0
M  V30 9815 H 920.555 0.580287 -3.06658 0
M  V30 9816 N 920.856 1.57574 -0.0284266 0
M  V30 9817 C 922.272 1.56194 0.327958 0
M  V30 9818 C 922.472 1.03397 1.72949 0
M  V30 9819 O 921.528 0.680392 2.4316 0
M  V30 9820 C 922.841 3.00177 0.177196 0
M  V30 9821 C 924.389 3.12 0.250014 0
M  V30 9822 C 924.864 4.57821 0.128049 0
M  V30 9823 N 926.355 4.6283 0.185054 0
M  V30 9824 C 927.09 5.73286 0.114454 0
M  V30 9825 N 926.586 6.928 -0.00719225 0
M  V30 9826 N 928.379 5.61848 0.16839 0
M  V30 9827 H 920.53 1.90224 -0.944921 0
M  V30 9828 H 922.793 0.874987 -0.364832 0
M  V30 9829 H 922.499 3.42753 -0.788224 0
M  V30 9830 H 922.373 3.65101 0.94768 0
M  V30 9831 H 924.76 2.69337 1.20589 0
M  V30 9832 H 924.841 2.49799 -0.550835 0
M  V30 9833 H 924.485 5.01165 -0.824407 0
M  V30 9834 H 924.415 5.18001 0.947753 0
M  V30 9835 H 926.906 3.76867 0.279247 0
M  V30 9836 H 927.219 7.72781 -0.0543903 0
M  V30 9837 H 925.564 6.94987 -0.0419648 0
M  V30 9838 H 928.755 4.67367 0.261821 0
M  V30 9839 H 928.928 6.47907 0.109908 0
M  V30 9840 N 922.334 -0.244713 1.55689 0
M  V30 9841 C 923.75 -0.593331 1.48161 0
M  V30 9842 C 923.95 -1.88234 0.719047 0
M  V30 9843 O 923.006 -2.51266 0.249292 0
M  V30 9844 C 924.319 -0.694032 2.92581 0
M  V30 9845 C 925.867 -0.786213 3.02965 0
M  V30 9846 C 926.342 -0.918457 4.48696 0
M  V30 9847 N 927.833 -0.983272 4.52643 0
M  V30 9848 C 928.568 -1.1049 5.62654 0
M  V30 9849 N 928.064 -1.19193 6.8247 0
M  V30 9850 N 929.857 -1.13823 5.50455 0
M  V30 9851 H 922.008 0.601446 2.03707 0
M  V30 9852 H 924.271 0.207894 0.924924 0
M  V30 9853 H 923.977 0.183133 3.51223 0
M  V30 9854 H 923.851 -1.56525 3.4319 0
M  V30 9855 H 926.238 -1.65383 2.44402 0
M  V30 9856 H 926.319 0.110202 2.55563 0
M  V30 9857 H 925.963 -0.0553881 5.0787 0
M  V30 9858 H 925.893 -1.82994 4.93782 0
M  V30 9859 H 928.384 -0.927269 3.66347 0
M  V30 9860 H 928.697 -1.28387 7.62061 0
M  V30 9861 H 927.042 -1.16147 6.85226 0
M  V30 9862 H 930.233 -1.06673 4.55783 0
M  V30 9863 H 930.406 -1.22957 6.36228 0
M  V30 9864 N 923.813 -1.49104 -0.510467 0
M  V30 9865 C 924.776 -1.64569 -1.59529 0
M  V30 9866 C 925.776 -0.517937 -1.5223 0
M  V30 9867 O 926.966 -0.784183 -1.55551 0
M  V30 9868 C 924.098 -1.6342 -2.99177 0
M  V30 9869 H 925.291 -2.61318 -1.4715 0
M  V30 9870 H 922.844 -1.37993 -0.734001 0
M  V30 9871 H 923.579 -0.68221 -3.17043 0
M  V30 9872 H 923.364 -2.45312 -3.05883 0
M  V30 9873 H 924.854 -1.77474 -3.78011 0
M  V30 9874 N 925.291 0.760815 -1.38019 0
M  V30 9875 C 926.539 1.51673 -1.33566 0
M  V30 9876 C 926.86 1.94852 0.076024 0
M  V30 9877 O 926.13 1.67112 1.02227 0
M  V30 9878 H 924.71 0.562581 -0.491438 0
M  V30 9879 H 927.372 0.904832 -1.72623 0
M  V30 9880 H 926.468 2.41102 -1.98182 0
M  V30 9881 N 926.769 1.22769 0.988202 0
M  V30 9882 C 927.732 1.00325 2.06076 0
M  V30 9883 C 928.732 -0.0320618 1.60768 0
M  V30 9884 O 929.922 0.206912 1.72967 0
M  V30 9885 C 927.054 0.516376 3.36966 0
M  V30 9886 H 928.247 1.95499 2.27421 0
M  V30 9887 H 925.8 1.04704 1.16047 0
M  V30 9888 H 926.535 -0.439498 3.21308 0
M  V30 9889 H 926.32 1.26337 3.71189 0
M  V30 9890 H 927.81 0.37974 4.1587 0
M  V30 9891 N 928.247 -1.18576 1.03814 0
M  V30 9892 C 929.658 -1.70159 0.768299 0
M  V30 9893 C 930.009 -1.8286 -0.711106 0
M  V30 9894 O 929.134 -1.5063 -1.55369 0
M  V30 9895 C 929.729 -3.09062 1.38804 0
M  V30 9896 C 928.288 -3.57866 1.16656 0
M  V30 9897 C 927.435 -2.34484 1.48029 0
M  V30 9898 H 930.386 -1.03287 1.20488 0
M  V30 9899 H 930.407 -3.72211 0.7899 0
M  V30 9900 H 929.919 -2.99785 2.46476 0
M  V30 9901 H 928.02 -3.72442 0.108471 0
M  V30 9902 H 928.133 -4.41445 1.8618 0
M  V30 9903 H 926.497 -2.38273 0.899902 0
M  V30 9904 H 927.28 -2.27829 2.56805 0
M  V30 9905 N 929.725 -0.817259 -1.34754 0
M  V30 9906 C 930.972 -0.402648 -1.98457 0
M  V30 9907 C 931.3 1.03287 -1.64809 0
M  V30 9908 O 930.555 1.73316 -0.908851 0
M  V30 9909 C 930.854 -0.5453 -3.53216 0
M  V30 9910 C 930.52 -1.9457 -4.06759 0
M  V30 9911 C 929.182 -2.32881 -4.21094 0
M  V30 9912 C 931.534 -2.86141 -4.35629 0
M  V30 9913 C 928.862 -3.62108 -4.61622 0
M  V30 9914 C 931.214 -4.14826 -4.776 0
M  V30 9915 C 929.878 -4.53121 -4.9014 0
M  V30 9916 H 929.148 -0.147339 -0.726204 0
M  V30 9917 H 931.795 -1.04011 -1.60791 0
M  V30 9918 H 930.1 0.175576 -3.91406 0
M  V30 9919 H 931.797 -0.205112 -4.00475 0
M  V30 9920 H 928.387 -1.6381 -3.96061 0
M  V30 9921 H 932.571 -2.57788 -4.24098 0
M  V30 9922 H 927.827 -3.91613 -4.69521 0
M  V30 9923 H 932.001 -4.85874 -4.98899 0
M  V30 9924 H 929.628 -5.53307 -5.21302 0
M  V30 9925 N 931.203 1.46865 -0.571711 0
M  V30 9926 C 932.451 2.0203 -0.0530022 0
M  V30 9927 C 932.772 1.44687 1.30731 0
M  V30 9928 O 932.042 0.627429 1.85581 0
M  V30 9929 H 930.622 0.746815 -0.0166035 0
M  V30 9930 H 933.284 1.80099 -0.745003 0
M  V30 9931 H 932.38 3.12091 0.0242538 0
M  V30 9932 N 932.681 0.308908 1.54543 0
M  V30 9933 C 934.092 -0.182144 1.85809 0
M  V30 9934 C 934.443 -1.52796 1.23076 0
M  V30 9935 O 933.568 -2.09775 0.531358 0
M  V30 9936 C 934.163 -0.337275 3.37117 0
M  V30 9937 C 932.722 -0.772545 3.68387 0
M  V30 9938 C 931.869 0.114451 2.77064 0
M  V30 9939 H 934.82 0.529671 1.496 0
M  V30 9940 H 934.841 -1.17058 3.62046 0
M  V30 9941 H 934.353 0.642382 3.82747 0
M  V30 9942 H 932.454 -1.76247 3.2828 0
M  V30 9943 H 932.567 -0.586453 4.75497 0
M  V30 9944 H 930.931 -0.407581 2.51418 0
M  V30 9945 H 931.714 1.09061 3.25516 0
M  V30 9946 N 934.159 -1.57557 0.0367827 0
M  V30 9947 C 935.407 -1.91735 -0.63892 0
M  V30 9948 C 935.728 -0.914515 -1.72226 0
M  V30 9949 O 934.998 0.0428248 -1.95853 0
M  V30 9950 H 933.578 -0.707738 -0.23899 0
M  V30 9951 H 936.24 -1.94708 0.0863931 0
M  V30 9952 H 935.336 -2.92568 -1.08676 0
M  V30 9953 N 935.637 0.236453 -1.55816 0
M  V30 9954 C 936.6 1.27633 -1.90375 0
M  V30 9955 C 937.6 1.40557 -0.781048 0
M  V30 9956 O 938.79 1.39078 -1.04895 0
M  V30 9957 C 935.922 2.65247 -2.14142 0
M  V30 9958 H 937.115 0.982019 -2.83366 0
M  V30 9959 H 934.668 0.476215 -1.48869 0
M  V30 9960 H 935.403 2.99801 -1.23653 0
M  V30 9961 H 935.188 2.57246 -2.95917 0
M  V30 9962 H 936.678 3.40313 -2.42026 0
M  V30 9963 N 937.115 1.49373 0.502552 0
M  V30 9964 C 938.063 1.66411 1.62512 0
M  V30 9965 C 939.057 0.530062 1.60893 0
M  V30 9966 O 940.263 0.709648 1.65421 0
M  V30 9967 H 936.638 0.524707 0.538689 0
M  V30 9968 H 938.609 2.60639 1.45293 0
M  V30 9969 C 937.358 1.74648 3.00655 0
M  V30 9970 H 936.681 2.61285 3.02606 0
M  V30 9971 H 938.121 1.90605 3.78742 0
M  V30 9972 C 936.58 0.490963 3.33303 0
M  V30 9973 O 937.11 -0.384039 3.9986 0
M  V30 9974 N 935.316 0.354375 2.88431 0
M  V30 9975 H 934.863 1.06742 2.34444 0
M  V30 9976 H 934.821 -0.484593 3.10643 0
M  V30 9977 N 938.594 -0.753485 1.38421 0
M  V30 9978 C 940.005 -1.33081 1.30944 0
M  V30 9979 C 940.356 -1.96169 -0.0347124 0
M  V30 9980 O 939.481 -1.95073 -0.936768 0
M  V30 9981 C 940.076 -2.41973 2.37138 0
M  V30 9982 C 938.635 -2.95426 2.33239 0
M  V30 9983 C 937.782 -1.68808 2.19998 0
M  V30 9984 H 940.733 -0.552354 1.48777 0
M  V30 9985 H 940.754 -3.21913 2.02859 0
M  V30 9986 H 940.266 -1.96027 3.34956 0
M  V30 9987 H 938.367 -3.45701 1.39003 0
M  V30 9988 H 938.48 -3.49798 3.27381 0
M  V30 9989 H 936.844 -1.92438 1.66852 0
M  V30 9990 H 937.627 -1.24939 3.19758 0
M  V30 9991 N 940.072 -1.23292 -0.981677 0
M  V30 9992 C 941.005 -0.956198 -2.07201 0
M  V30 9993 C 941.983 0.105027 -1.6226 0
M  V30 9994 O 943.167 -0.0289582 -1.88478 0
M  V30 9995 C 940.294 -0.44029 -3.35826 0
M  V30 9996 C 939.34 -1.48792 -3.99704 0
M  V30 9997 S 940.173 -3.06491 -4.39117 0
M  V30 9998 C 941.329 -2.56567 -5.70898 0
M  V30 9999 H 941.562 -1.87947 -2.30355 0
M  V30 10000 H 939.095 -1.06522 -1.1177 0
M  V30 10001 H 941.053 -0.149237 -4.10229 0
M  V30 10002 H 939.714 0.462045 -3.10683 0
M  V30 10003 H 938.907 -1.07706 -4.92357 0
M  V30 10004 H 938.509 -1.72826 -3.31673 0
M  V30 10005 H 940.801 -1.98508 -6.47766 0
M  V30 10006 H 941.744 -3.47755 -6.16824 0
M  V30 10007 H 942.152 -1.97465 -5.28836 0
M  V30 10008 N 941.55 1.18024 -1.04442 0
M  V30 10009 C 942.5 2.19714 -0.609069 0
M  V30 10010 C 943.484 1.57037 0.350473 0
M  V30 10011 O 944.676 1.76192 0.16892 0
M  V30 10012 C 941.805 3.43293 0.0225911 0
M  V30 10013 C 940.891 4.13084 -0.960325 0
M  V30 10014 N 941.282 4.58819 -2.12883 0
M  V30 10015 C 939.58 4.38999 -0.787146 0
M  V30 10016 C 940.281 5.12589 -2.75004 0
M  V30 10017 N 939.257 5.04333 -2.02853 0
M  V30 10018 H 943.059 2.5277 -1.49948 0
M  V30 10019 H 940.573 1.34271 -0.913517 0
M  V30 10020 H 942.57 4.1541 0.352196 0
M  V30 10021 H 941.23 3.11731 0.908495 0
M  V30 10022 H 942.241 4.53148 -2.50754 0
M  V30 10023 H 938.918 4.17472 0.048348 0
M  V30 10024 H 940.308 5.58152 -3.74053 0
M  V30 10025 N 943.028 0.824394 1.34319 0
M  V30 10026 C 944.276 0.41235 1.97849 0
M  V30 10027 C 944.597 -1.02841 1.65677 0
M  V30 10028 O 943.867 -1.71421 0.948245 0
M  V30 10029 H 942.447 0.149486 0.73189 0
M  V30 10030 H 945.109 1.05416 1.63931 0
M  V30 10031 H 944.205 0.532557 3.07523 0
M  V30 10032 N 944.506 -1.46559 0.579492 0
M  V30 10033 C 945.922 -1.57771 0.240921 0
M  V30 10034 C 946.122 -1.57505 -1.25676 0
M  V30 10035 O 945.178 -1.4903 -2.03829 0
M  V30 10036 C 946.491 -2.87311 0.887285 0
M  V30 10037 C 948.039 -3.00937 0.860576 0
M  V30 10038 C 948.514 -4.33208 1.48642 0
M  V30 10039 N 950.005 -4.39899 1.45062 0
M  V30 10040 C 950.74 -5.40856 1.90428 0
M  V30 10041 N 950.236 -6.48503 2.43752 0
M  V30 10042 N 952.029 -5.32037 1.81364 0
M  V30 10043 H 944.18 -1.44976 1.55228 0
M  V30 10044 H 946.443 -0.691354 0.648639 0
M  V30 10045 H 946.149 -2.93307 1.94071 0
M  V30 10046 H 946.023 -3.75141 0.393577 0
M  V30 10047 H 948.41 -2.94524 -0.184223 0
M  V30 10048 H 948.491 -2.14591 1.39227 0
M  V30 10049 H 948.135 -4.40378 2.5304 0
M  V30 10050 H 948.065 -5.18323 0.92998 0
M  V30 10051 H 950.556 -3.62706 1.0608 0
M  V30 10052 H 950.869 -7.21744 2.76234 0
M  V30 10053 H 949.214 -6.49332 2.47776 0
M  V30 10054 H 952.405 -4.46841 1.39465 0
M  V30 10055 H 952.578 -6.10573 2.17035 0
M  V30 10056 N 945.984 -0.3171 -1.54377 0
M  V30 10057 C 947.261 0.341348 -1.92598 0
M  V30 10058 C 947.641 1.70402 -1.24605 0
M  V30 10059 O 946.989 2.25191 -0.387448 0
M  V30 10060 C 947.199 0.440003 -3.46215 0
M  V30 10061 C 948.547 0.703327 -4.18734 0
M  V30 10062 O 949.571 0.523181 -3.52337 0
M  V30 10063 O 948.43 1.05042 -5.3631 0
M  V30 10064 H 945.524 0.193696 -0.803997 0
M  V30 10065 H 948.07 -0.366341 -1.65699 0
M  V30 10066 H 946.842 -0.517299 -3.87866 0
M  V30 10067 H 946.465 1.19553 -3.792 0
M  V30 10068 N 947.462 1.57535 -0.0451378 0
M  V30 10069 C 948.394 2.08109 0.960372 0
M  V30 10070 C 949.407 1.0077 1.27864 0
M  V30 10071 O 950.596 1.28351 1.24049 0
M  V30 10072 C 947.696 2.50414 2.28355 0
M  V30 10073 C 946.869 3.8102 2.14808 0
M  V30 10074 C 945.928 4.09702 3.30198 0
M  V30 10075 O 944.954 4.79715 3.0637 0
M  V30 10076 N 946.156 3.61138 4.54489 0
M  V30 10077 H 948.921 2.94999 0.528752 0
M  V30 10078 H 946.482 1.61283 0.141248 0
M  V30 10079 H 948.474 2.66683 3.04405 0
M  V30 10080 H 947.044 1.68805 2.63104 0
M  V30 10081 H 946.264 3.74392 1.23387 0
M  V30 10082 H 947.552 4.66559 2.02978 0
M  V30 10083 H 946.95 3.04527 4.76739 0
M  V30 10084 H 945.507 3.82656 5.27653 0
M  V30 10085 N 948.94 -0.228186 1.55939 0
M  V30 10086 C 949.887 -1.28274 1.91871 0
M  V30 10087 C 950.857 -1.46906 0.775103 0
M  V30 10088 O 952.042 -1.60583 1.03042 0
M  V30 10089 C 949.182 -2.62945 2.23504 0
M  V30 10090 C 948.295 -2.52166 3.50766 0
M  V30 10091 C 947.43 -3.79316 3.71878 0
M  V30 10092 C 946.469 -3.63231 4.92676 0
M  V30 10093 N 945.606 -4.82315 5.10212 0
M  V30 10094 H 950.446 -0.96931 2.81795 0
M  V30 10095 H 947.983 -0.467331 1.39479 0
M  V30 10096 H 949.941 -3.41359 2.39854 0
M  V30 10097 H 948.571 -2.92397 1.36762 0
M  V30 10098 H 947.623 -1.65221 3.42646 0
M  V30 10099 H 948.935 -2.36199 4.39331 0
M  V30 10100 H 948.089 -4.66173 3.88288 0
M  V30 10101 H 946.828 -3.982 2.81581 0
M  V30 10102 H 945.833 -2.74757 4.76223 0
M  V30 10103 H 947.058 -3.45823 5.84451 0
M  V30 10104 H 945.004 -5.01526 4.22856 0
M  V30 10105 H 944.921 -4.6905 5.92898 0
M  V30 10106 H 946.189 -5.70618 5.31051 0
M  V30 10107 N 950.418 -1.49637 -0.494624 0
M  V30 10108 C 951.666 -1.5913 -1.24587 0
M  V30 10109 C 951.987 -0.282828 -1.92938 0
M  V30 10110 O 951.257 0.69825 -1.83034 0
M  V30 10111 H 949.837 -0.586329 -0.462847 0
M  V30 10112 H 952.499 -1.86296 -0.572696 0
M  V30 10113 H 951.595 -2.3906 -2.00641 0
M  V30 10114 N 951.896 0.746133 -1.38819 0
M  V30 10115 C 952.859 1.84167 -1.36437 0
M  V30 10116 C 953.859 1.58626 -0.263499 0
M  V30 10117 O 955.049 1.66233 -0.520801 0
M  V30 10118 C 952.181 3.21769 -1.12596 0
M  V30 10119 H 953.374 1.87684 -2.33912 0
M  V30 10120 H 950.927 0.948625 -1.24221 0
M  V30 10121 H 951.662 3.23917 -0.15758 0
M  V30 10122 H 951.447 3.41702 -1.92307 0
M  V30 10123 H 952.937 4.0184 -1.13643 0
M  V30 10124 N 953.375 1.23811 0.975125 0
M  V30 10125 C 954.621 1.07495 1.71967 0
M  V30 10126 C 954.954 -0.386451 1.90316 0
M  V30 10127 O 954.229 -1.28591 1.45927 0
M  V30 10128 C 954.512 1.80694 3.11483 0
M  V30 10129 C 954.365 3.3454 3.00671 0
M  V30 10130 C 955.684 1.57367 4.11003 0
M  V30 10131 H 952.803 0.3919 0.624166 0
M  V30 10132 H 955.445 1.52383 1.13487 0
M  V30 10133 H 953.595 1.42538 3.61407 0
M  V30 10134 H 955.267 3.8225 2.5823 0
M  V30 10135 H 953.51 3.63301 2.37054 0
M  V30 10136 H 954.181 3.80951 3.99475 0
M  V30 10137 H 956.657 1.90545 3.69908 0
M  V30 10138 H 955.533 2.11052 5.06703 0
M  V30 10139 H 955.794 0.510221 4.39146 0
M  V30 10140 N 954.853 -1.17469 1.05066 0
M  V30 10141 C 955.816 -2.19648 0.654793 0
M  V30 10142 C 956.816 -1.58107 -0.293063 0
M  V30 10143 O 958.006 -1.74029 -0.077106 0
M  V30 10144 C 955.138 -3.40878 -0.0384437 0
M  V30 10145 H 956.331 -2.56184 1.55915 0
M  V30 10146 H 953.884 -1.31528 0.844396 0
M  V30 10147 H 954.619 -3.09885 -0.956133 0
M  V30 10148 H 954.404 -3.86792 0.642961 0
M  V30 10149 H 955.894 -4.1651 -0.301568 0
M  V30 10150 N 956.331 -0.831506 -1.3388 0
M  V30 10151 C 957.556 -0.435954 -2.02766 0
M  V30 10152 C 957.981 0.952889 -1.62178 0
M  V30 10153 O 957.339 1.62166 -0.810681 0
M  V30 10154 C 957.387 -0.555907 -3.56289 0
M  V30 10155 O 956.491 0.420826 -4.10247 0
M  V30 10156 H 955.832 -0.178248 -0.639628 0
M  V30 10157 H 958.362 -1.1243 -1.70941 0
M  V30 10158 H 958.372 -0.434831 -4.05676 0
M  V30 10159 H 957.047 -1.56881 -3.85177 0
M  V30 10160 H 955.624 0.257919 -3.72007 0
M  V30 10161 N 957.809 1.4625 -0.587256 0
M  V30 10162 C 958.739 2.33132 0.131076 0
M  V30 10163 C 959.72 1.45619 0.879158 0
M  V30 10164 O 960.905 1.74428 0.853723 0
M  V30 10165 C 958.035 3.27975 1.14236 0
M  V30 10166 C 956.989 4.24965 0.508819 0
M  V30 10167 C 956.315 5.09349 1.62689 0
M  V30 10168 C 957.615 5.19322 -0.55694 0
M  V30 10169 H 959.309 2.93442 -0.594333 0
M  V30 10170 H 956.855 1.41106 -0.287263 0
M  V30 10171 H 958.808 3.87614 1.65328 0
M  V30 10172 H 957.532 2.65781 1.8981 0
M  V30 10173 H 956.191 3.66595 0.0189337 0
M  V30 10174 H 955.839 4.43537 2.37242 0
M  V30 10175 H 955.539 5.75036 1.20861 0
M  V30 10176 H 957.063 5.71852 2.14049 0
M  V30 10177 H 958.477 5.73151 -0.130903 0
M  V30 10178 H 956.874 5.93376 -0.895801 0
M  V30 10179 H 957.944 4.62979 -1.44148 0
M  V30 10180 N 959.287 0.325282 1.54207 0
M  V30 10181 C 960.515 -0.27869 2.05014 0
M  V30 10182 C 960.93 -1.45649 1.20133 0
M  V30 10183 O 960.287 -1.81014 0.232398 0
M  V30 10184 C 960.338 -0.711486 3.54429 0
M  V30 10185 O 960.059 0.419458 4.36087 0
M  V30 10186 C 961.56 -1.37809 4.21336 0
M  V30 10187 H 958.78 -0.0570388 0.668571 0
M  V30 10188 H 961.324 0.47197 1.98979 0
M  V30 10189 H 959.479 -1.41212 3.60746 0
M  V30 10190 H 959.893 0.0781037 5.24442 0
M  V30 10191 H 961.367 -1.63184 5.27328 0
M  V30 10192 H 961.844 -2.32593 3.72555 0
M  V30 10193 H 962.45 -0.719987 4.19161 0
M  V30 10194 N 960.765 -1.57509 0.0534917 0
M  V30 10195 C 961.99 -1.97511 -0.632794 0
M  V30 10196 C 962.415 -0.930947 -1.63447 0
M  V30 10197 O 961.773 0.105558 -1.80992 0
M  V30 10198 C 961.821 -3.3658 -1.29407 0
M  V30 10199 O 960.925 -3.3467 -2.40977 0
M  V30 10200 H 960.266 -0.643349 -0.16431 0
M  V30 10201 H 962.796 -2.04232 0.12258 0
M  V30 10202 H 962.806 -3.73359 -1.64521 0
M  V30 10203 H 961.481 -4.12113 -0.559976 0
M  V30 10204 H 960.058 -3.09639 -2.07793 0
M  V30 10205 N 962.243 0.219913 -1.56058 0
M  V30 10206 C 963.489 0.945463 -1.79412 0
M  V30 10207 C 963.822 1.83922 -0.62341 0
M  V30 10208 O 963.097 1.90806 0.377256 0
M  V30 10209 C 963.38 1.783 -3.1286 0
M  V30 10210 C 963.233 0.915626 -4.40382 0
M  V30 10211 C 964.552 2.76045 -3.42764 0
M  V30 10212 H 961.671 0.342288 -0.652693 0
M  V30 10213 H 964.313 0.214235 -1.88788 0
M  V30 10214 H 962.463 2.40642 -3.04998 0
M  V30 10215 H 964.135 0.30882 -4.60265 0
M  V30 10216 H 962.378 0.221124 -4.33236 0
M  V30 10217 H 963.049 1.53607 -5.30197 0
M  V30 10218 H 965.525 2.23838 -3.50764 0
M  V30 10219 H 964.401 3.31748 -4.37304 0
M  V30 10220 H 964.662 3.53866 -2.65012 0
M  V30 10221 N 963.721 1.49897 0.486681 0
M  V30 10222 C 964.684 1.67086 1.56891 0
M  V30 10223 C 965.684 0.54209 1.51387 0
M  V30 10224 O 966.874 0.80883 1.54284 0
M  V30 10225 C 964.006 1.68159 2.96539 0
M  V30 10226 H 965.199 2.63626 1.42974 0
M  V30 10227 H 962.752 1.39143 0.711954 0
M  V30 10228 H 963.487 0.732562 3.15918 0
M  V30 10229 H 963.272 2.50147 3.01942 0
M  V30 10230 H 964.762 1.83466 3.7514 0
M  V30 10231 N 965.199 -0.738761 1.39212 0
M  V30 10232 C 966.146 -1.85273 1.37631 0
M  V30 10233 C 967.116 -1.64407 0.236572 0
M  V30 10234 O 968.301 -1.85866 0.431104 0
M  V30 10235 C 965.441 -3.22745 1.22188 0
M  V30 10236 C 964.554 -3.55342 2.45674 0
M  V30 10237 C 963.689 -4.82195 2.22847 0
M  V30 10238 C 962.728 -5.07625 3.42029 0
M  V30 10239 N 961.865 -6.25679 3.18543 0
M  V30 10240 H 966.705 -1.85959 2.32859 0
M  V30 10241 H 964.242 -0.908716 1.15675 0
M  V30 10242 H 966.2 -4.02095 1.11245 0
M  V30 10243 H 964.83 -3.21347 0.30592 0
M  V30 10244 H 963.882 -2.70722 2.67233 0
M  V30 10245 H 965.194 -3.70054 3.34457 0
M  V30 10246 H 964.348 -5.69518 2.09126 0
M  V30 10247 H 963.087 -4.6965 1.31454 0
M  V30 10248 H 962.092 -4.18765 3.56253 0
M  V30 10249 H 963.317 -5.22058 4.34319 0
M  V30 10250 H 961.263 -6.14429 2.2981 0
M  V30 10251 H 961.18 -6.40961 4.0088 0
M  V30 10252 H 962.448 -7.15851 3.08508 0
M  V30 10253 N 966.677 -1.24326 -0.968545 0
M  V30 10254 C 967.607 -1.05951 -2.08079 0
M  V30 10255 C 968.588 0.0272666 -1.70078 0
M  V30 10256 O 969.773 -0.139644 -1.93697 0
M  V30 10257 C 966.903 -0.662623 -3.4092 0
M  V30 10258 C 965.857 -1.69807 -3.92873 0
M  V30 10259 C 965.183 -1.15628 -5.22048 0
M  V30 10260 C 966.483 -3.09383 -4.20808 0
M  V30 10261 H 968.177 -1.98984 -2.23709 0
M  V30 10262 H 965.723 -0.958112 -1.075 0
M  V30 10263 H 967.676 -0.521071 -4.18166 0
M  V30 10264 H 966.4 0.303399 -3.25188 0
M  V30 10265 H 965.059 -1.82783 -3.17783 0
M  V30 10266 H 964.707 -0.180888 -5.02675 0
M  V30 10267 H 964.407 -1.84822 -5.57776 0
M  V30 10268 H 965.931 -1.02683 -6.01904 0
M  V30 10269 H 967.345 -2.99642 -4.88761 0
M  V30 10270 H 965.742 -3.75923 -4.67763 0
M  V30 10271 H 966.812 -3.57486 -3.27616 0
M  V30 10272 N 968.156 1.1691 -1.05688 0
M  V30 10273 C 969.567 1.68915 -0.795273 0
M  V30 10274 C 969.918 1.83968 0.681925 0
M  V30 10275 O 969.043 1.53083 1.52953 0
M  V30 10276 C 969.638 3.06814 -1.43703 0
M  V30 10277 C 968.197 3.55965 -1.22335 0
M  V30 10278 C 967.344 2.32099 -1.51741 0
M  V30 10279 H 970.295 1.01357 -1.22116 0
M  V30 10280 H 970.316 3.70907 -0.849016 0
M  V30 10281 H 969.828 2.95826 -2.51214 0
M  V30 10282 H 967.929 3.72222 -0.16771 0
M  V30 10283 H 968.042 4.38427 -1.9318 0
M  V30 10284 H 966.406 2.36811 -0.937696 0
M  V30 10285 H 967.189 2.23715 -2.60397 0
M  V30 10286 N 969.634 0.838594 1.33437 0
M  V30 10287 C 970.881 0.434169 1.97791 0
M  V30 10288 C 971.209 -1.00652 1.66431 0
M  V30 10289 O 970.464 -1.71848 0.936309 0
M  V30 10290 C 970.763 0.601425 3.52303 0
M  V30 10291 C 970.429 2.01017 4.03612 0
M  V30 10292 C 969.091 2.39551 4.17336 0
M  V30 10293 C 971.443 2.93035 4.31022 0
M  V30 10294 C 968.771 3.69406 4.55802 0
M  V30 10295 C 971.123 4.22372 4.7094 0
M  V30 10296 C 969.787 4.60862 4.82869 0
M  V30 10297 H 969.057 0.158874 0.723768 0
M  V30 10298 H 971.704 1.06556 1.59116 0
M  V30 10299 H 970.009 -0.113284 3.91636 0
M  V30 10300 H 971.706 0.268798 4.00098 0
M  V30 10301 H 968.296 1.7009 3.93405 0
M  V30 10302 H 972.48 2.64503 4.19943 0
M  V30 10303 H 967.736 3.99033 4.63231 0
M  V30 10304 H 971.91 4.93749 4.91106 0
M  V30 10305 H 969.537 5.6153 5.12433 0
M  V30 10306 N 971.112 -1.45937 0.595003 0
M  V30 10307 C 972.075 -2.2888 -0.121102 0
M  V30 10308 C 973.075 -1.39075 -0.807149 0
M  V30 10309 O 974.265 -1.61326 -0.657228 0
M  V30 10310 C 971.397 -3.19778 -1.1813 0
M  V30 10311 H 972.59 -2.93673 0.607968 0
M  V30 10312 H 970.143 -1.5225 0.353495 0
M  V30 10313 H 970.878 -2.59759 -1.94154 0
M  V30 10314 H 970.663 -3.85914 -0.693724 0
M  V30 10315 H 972.153 -3.82176 -1.68319 0
M  V30 10316 N 972.59 -0.333456 -1.54032 0
M  V30 10317 C 973.82 0.267425 -2.04862 0
M  V30 10318 C 974.228 1.45559 -1.20869 0
M  V30 10319 O 973.571 1.82197 -0.234478 0
M  V30 10320 C 973.633 0.755759 -3.51466 0
M  V30 10321 C 973.297 -0.311409 -4.55938 0
M  V30 10322 C 974.294 -1.15078 -5.07004 0
M  V30 10323 C 971.979 -0.462439 -5.00167 0
M  V30 10324 C 973.973 -2.12682 -6.0087 0
M  V30 10325 C 971.66 -1.44188 -5.93846 0
M  V30 10326 C 972.658 -2.27253 -6.44085 0
M  V30 10327 O 972.346 -3.23532 -7.35923 0
M  V30 10328 H 972.078 0.0572596 -0.673571 0
M  V30 10329 H 974.632 -0.480646 -1.99697 0
M  V30 10330 H 972.862 1.55491 -3.54062 0
M  V30 10331 H 974.551 1.27607 -3.8532 0
M  V30 10332 H 975.317 -1.04513 -4.73605 0
M  V30 10333 H 971.196 0.17424 -4.60671 0
M  V30 10334 H 974.74 -2.77555 -6.40007 0
M  V30 10335 H 970.637 -1.54813 -6.2666 0
M  V30 10336 H 971.405 -3.18886 -7.53826 0
M  V30 10337 N 974.068 1.57479 -0.061844 0
M  V30 10338 C 975.031 2.1104 0.894127 0
M  V30 10339 C 976.031 1.03227 1.23292 0
M  V30 10340 O 977.221 1.29256 1.16784 0
M  V30 10341 C 974.353 2.6035 2.20069 0
M  V30 10342 H 975.546 2.96807 0.429619 0
M  V30 10343 H 973.099 1.55181 0.18672 0
M  V30 10344 H 973.834 1.78008 2.71079 0
M  V30 10345 H 973.619 3.39146 1.9678 0
M  V30 10346 H 975.109 3.019 2.88525 0
M  V30 10347 N 975.546 -0.211634 1.56173 0
M  V30 10348 C 976.493 -1.26231 1.93221 0
M  V30 10349 C 977.463 -1.46076 0.790641 0
M  V30 10350 O 978.648 -1.59482 1.04739 0
M  V30 10351 C 975.788 -2.60559 2.26281 0
M  V30 10352 C 974.901 -2.48431 3.5342 0
M  V30 10353 C 974.036 -3.7535 3.7588 0
M  V30 10354 C 973.075 -3.57985 4.96501 0
M  V30 10355 N 972.212 -4.76877 5.15299 0
M  V30 10356 H 977.052 -0.939367 2.82807 0
M  V30 10357 H 974.589 -0.452511 1.39967 0
M  V30 10358 H 976.547 -3.38796 2.43461 0
M  V30 10359 H 975.177 -2.9093 1.39855 0
M  V30 10360 H 974.229 -1.61577 3.44379 0
M  V30 10361 H 975.541 -2.31526 4.41811 0
M  V30 10362 H 974.695 -4.62029 3.9321 0
M  V30 10363 H 973.434 -3.95191 2.85788 0
M  V30 10364 H 972.439 -2.69691 4.79111 0
M  V30 10365 H 973.664 -3.39605 5.88086 0
M  V30 10366 H 971.61 -4.97013 4.28152 0
M  V30 10367 H 971.527 -4.62735 5.9784 0
M  V30 10368 H 972.795 -5.64954 5.37073 0
M  V30 10369 N 977.024 -1.50153 -0.478725 0
M  V30 10370 C 978.301 -1.51274 -1.23999 0
M  V30 10371 C 978.681 -0.253048 -2.09578 0
M  V30 10372 O 978.029 0.763827 -2.15355 0
M  V30 10373 C 978.239 -2.80423 -2.07759 0
M  V30 10374 C 979.587 -3.30788 -2.66204 0
M  V30 10375 O 980.611 -2.81693 -2.18008 0
M  V30 10376 O 979.47 -4.1635 -3.53999 0
M  V30 10377 H 976.564 -0.606438 -0.562283 0
M  V30 10378 H 979.11 -1.62436 -0.491171 0
M  V30 10379 H 977.882 -3.63584 -1.44645 0
M  V30 10380 H 977.505 -2.72228 -2.89789 0
M  V30 10381 N 978.502 0.731368 -1.39602 0
M  V30 10382 C 979.75 1.48805 -1.36753 0
M  V30 10383 C 980.071 1.94969 0.034676 0
M  V30 10384 O 979.341 1.69243 0.986591 0
M  V30 10385 H 977.921 0.55203 -0.503261 0
M  V30 10386 H 980.583 0.868013 -1.74504 0
M  V30 10387 H 979.679 2.36844 -2.03252 0
M  V30 10388 N 979.98 1.24838 0.961938 0
M  V30 10389 C 981.229 1.0855 1.69999 0
M  V30 10390 C 981.542 -0.374645 1.91979 0
M  V30 10391 O 982.748 -0.657822 2.6341 0
M  V30 10392 C 981.204 1.89424 3.06017 0
M  V30 10393 C 980.812 3.39885 2.9186 0
M  V30 10394 C 982.556 1.81684 3.83655 0
M  V30 10395 C 980.463 4.13082 4.23223 0
M  V30 10396 H 979.393 0.402603 0.637516 0
M  V30 10397 H 982.044 1.4897 1.07146 0
M  V30 10398 H 980.426 1.41823 3.69733 0
M  V30 10399 H 981.6 3.95108 2.37121 0
M  V30 10400 H 979.915 3.4864 2.27683 0
M  V30 10401 H 982.512 2.3367 4.80939 0
M  V30 10402 H 982.855 0.783247 4.08865 0
M  V30 10403 H 983.388 2.26997 3.26676 0
M  V30 10404 H 980.127 5.16824 4.03204 0
M  V30 10405 H 979.647 3.62644 4.77755 0
M  V30 10406 H 981.326 4.20397 4.91808 0
M  V30 10407 N 981.458 -1.16348 1.06306 0
M  V30 10408 C 982.683 -1.91323 0.800636 0
M  V30 10409 C 983.108 -1.7691 -0.639105 0
M  V30 10410 O 982.466 -1.0945 -1.44535 0
M  V30 10411 C 982.514 -3.40038 1.20027 0
M  V30 10412 O 981.618 -4.11003 0.339142 0
M  V30 10413 H 980.959 -0.596057 0.292595 0
M  V30 10414 H 983.489 -1.47406 1.41889 0
M  V30 10415 H 983.499 -3.90808 1.17188 0
M  V30 10416 H 982.174 -3.49848 2.24898 0
M  V30 10417 H 980.751 -3.70423 0.42911 0
M  V30 10418 N 982.937 -0.845659 -1.3299 0
M  V30 10419 C 984.167 -0.457686 -2.01467 0
M  V30 10420 C 984.575 0.947664 -1.63756 0
M  V30 10421 O 983.918 1.62841 -0.850213 0
M  V30 10422 C 983.98 -0.506589 -3.55913 0
M  V30 10423 C 983.644 -1.86924 -4.17023 0
M  V30 10424 C 984.641 -2.83344 -4.35904 0
M  V30 10425 C 982.326 -2.16394 -4.53298 0
M  V30 10426 C 984.32 -4.07391 -4.90216 0
M  V30 10427 C 982.007 -3.40695 -5.07316 0
M  V30 10428 C 983.005 -4.3601 -5.25722 0
M  V30 10429 O 982.693 -5.58112 -5.7859 0
M  V30 10430 H 982.425 -0.179258 -0.651799 0
M  V30 10431 H 984.979 -1.14172 -1.70745 0
M  V30 10432 H 983.209 0.234253 -3.8599 0
M  V30 10433 H 984.898 -0.135487 -4.05674 0
M  V30 10434 H 985.664 -2.61879 -4.08221 0
M  V30 10435 H 981.543 -1.42994 -4.38262 0
M  V30 10436 H 985.087 -4.81796 -5.04498 0
M  V30 10437 H 980.984 -3.62014 -5.3443 0
M  V30 10438 H 981.752 -5.59946 -5.96995 0
M  V30 10439 N 984.415 1.45619 -0.602734 0
M  V30 10440 C 985.643 2.06647 -0.102253 0
M  V30 10441 C 986.058 1.4482 1.21131 0
M  V30 10442 O 985.415 0.560621 1.73676 0
M  V30 10443 C 985.466 3.61467 0.0490113 0
M  V30 10444 O 985.187 4.20985 -1.21257 0
M  V30 10445 C 986.688 4.39469 0.581517 0
M  V30 10446 H 983.908 0.667685 -0.0666155 0
M  V30 10447 H 986.452 1.86939 -0.829091 0
M  V30 10448 H 984.607 3.80534 0.726153 0
M  V30 10449 H 985.021 5.14103 -1.03915 0
M  V30 10450 H 986.495 5.48318 0.636462 0
M  V30 10451 H 986.972 4.0891 1.60277 0
M  V30 10452 H 987.578 4.25256 -0.061419 0
M  V30 10453 N 985.893 0.34162 1.53853 0
M  V30 10454 C 987.14 -0.255484 2.00882 0
M  V30 10455 C 987.468 -1.50711 1.22949 0
M  V30 10456 O 986.723 -1.93315 0.304625 0
M  V30 10457 C 987.022 -0.616989 3.52034 0
M  V30 10458 C 986.688 0.537536 4.47684 0
M  V30 10459 C 985.35 0.854379 4.73554 0
M  V30 10460 C 987.702 1.31217 5.04412 0
M  V30 10461 C 985.03 1.94826 5.53407 0
M  V30 10462 C 987.382 2.39628 5.85458 0
M  V30 10463 C 986.046 2.71874 6.09623 0
M  V30 10464 H 985.316 -0.0934881 0.735079 0
M  V30 10465 H 987.963 0.469135 1.85665 0
M  V30 10466 H 986.268 -1.42229 3.65073 0
M  V30 10467 H 987.965 -1.09084 3.85878 0
M  V30 10468 H 984.555 0.280524 4.27681 0
M  V30 10469 H 988.739 1.08064 4.84392 0
M  V30 10470 H 983.995 2.20235 5.70356 0
M  V30 10471 H 988.169 3.00084 6.28429 0
M  V30 10472 H 985.796 3.56762 6.71286 0
M  V30 10473 N 987.371 -1.57444 0.0701946 0
M  V30 10474 C 988.596 -1.98171 -0.61181 0
M  V30 10475 C 989.021 -0.94823 -1.62451 0
M  V30 10476 O 988.379 0.0863553 -1.81094 0
M  V30 10477 C 988.427 -3.37934 -1.2583 0
M  V30 10478 O 987.531 -3.37207 -2.37414 0
M  V30 10479 H 986.872 -0.645056 -0.157477 0
M  V30 10480 H 989.402 -2.04091 0.144235 0
M  V30 10481 H 989.412 -3.75083 -1.60552 0
M  V30 10482 H 988.087 -4.12684 -0.516234 0
M  V30 10483 H 986.664 -3.11826 -2.04497 0
M  V30 10484 N 988.849 0.203349 -1.56283 0
M  V30 10485 C 990.098 0.92315 -1.79334 0
M  V30 10486 C 990.411 1.84765 -0.641977 0
M  V30 10487 O 991.617 2.60745 -0.756584 0
M  V30 10488 C 990.073 1.69184 -3.17655 0
M  V30 10489 C 989.681 0.812581 -4.40569 0
M  V30 10490 C 991.425 2.40177 -3.50022 0
M  V30 10491 C 989.332 1.57967 -5.69913 0
M  V30 10492 H 988.262 0.348442 -0.668659 0
M  V30 10493 H 990.913 0.1766 -1.82648 0
M  V30 10494 H 989.295 2.48197 -3.08568 0
M  V30 10495 H 990.469 0.0616956 -4.60759 0
M  V30 10496 H 988.784 0.21389 -4.1585 0
M  V30 10497 H 991.381 2.98103 -4.4389 0
M  V30 10498 H 991.724 3.13961 -2.73376 0
M  V30 10499 H 992.257 1.68138 -3.6052 0
M  V30 10500 H 988.996 0.884767 -6.49501 0
M  V30 10501 H 988.516 2.3047 -5.53754 0
M  V30 10502 H 990.195 2.13562 -6.10737 0
M  V30 10503 N 990.327 1.50405 0.470755 0
M  V30 10504 C 991.573 1.6165 1.22462 0
M  V30 10505 C 991.906 0.316034 1.91611 0
M  V30 10506 O 991.181 -0.682509 1.82132 0
M  V30 10507 C 991.464 2.79702 2.26801 0
M  V30 10508 C 991.317 4.19631 1.61955 0
M  V30 10509 C 992.636 2.93313 3.28109 0
M  V30 10510 H 989.755 0.588345 0.443868 0
M  V30 10511 H 992.397 1.82792 0.518376 0
M  V30 10512 H 990.547 2.61807 2.87036 0
M  V30 10513 H 992.219 4.49117 1.05316 0
M  V30 10514 H 990.462 4.23874 0.922674 0
M  V30 10515 H 991.133 4.98162 2.37779 0
M  V30 10516 H 993.609 3.09697 2.77897 0
M  V30 10517 H 992.485 3.77537 3.98443 0
M  V30 10518 H 992.746 2.03942 3.9225 0
M  V30 10519 N 991.805 -0.723954 1.39988 0
M  V30 10520 C 993.216 -1.30273 1.33738 0
M  V30 10521 C 993.567 -1.96199 0.00690581 0
M  V30 10522 O 992.692 -1.97016 -0.895179 0
M  V30 10523 C 993.287 -2.36889 2.42217 0
M  V30 10524 C 991.846 -2.90412 2.39453 0
M  V30 10525 C 990.993 -1.64103 2.2353 0
M  V30 10526 H 993.944 -0.520672 1.49916 0
M  V30 10527 H 993.965 -3.17538 2.09642 0
M  V30 10528 H 993.477 -1.88878 3.39038 0
M  V30 10529 H 991.578 -3.42674 1.46304 0
M  V30 10530 H 991.691 -3.42775 3.34727 0
M  V30 10531 H 990.055 -1.88855 1.70897 0
M  V30 10532 H 990.838 -1.18128 3.22336 0
M  V30 10533 N 993.283 -1.25346 -0.955304 0
M  V30 10534 C 994.231 -1.05461 -2.07318 0
M  V30 10535 C 995.225 0.0142699 -1.69394 0
M  V30 10536 O 996.431 -0.141292 -1.79445 0
M  V30 10537 H 992.806 -0.324095 -0.678577 0
M  V30 10538 H 994.777 -2.00231 -2.21247 0
M  V30 10539 C 993.526 -0.689329 -3.40798 0
M  V30 10540 H 992.849 -1.50362 -3.70447 0
M  V30 10541 H 994.289 -0.589883 -4.19877 0
M  V30 10542 C 992.748 0.604556 -3.31431 0
M  V30 10543 O 993.278 1.64686 -3.6639 0
M  V30 10544 N 991.484 0.589927 -2.84549 0
M  V30 10545 H 991.031 -0.258647 -2.56298 0
M  V30 10546 H 990.989 1.4558 -2.78664 0
M  V30 10547 N 994.761 1.15782 -1.06922 0
M  V30 10548 C 995.724 2.18578 -0.689654 0
M  V30 10549 C 996.724 1.58553 0.267872 0
M  V30 10550 O 997.914 1.7413 0.0494097 0
M  V30 10551 C 995.046 3.40896 -0.0157919 0
M  V30 10552 H 996.239 2.53672 -1.59971 0
M  V30 10553 H 993.792 1.30168 -0.865214 0
M  V30 10554 H 994.527 3.11367 0.906712 0
M  V30 10555 H 994.312 3.85721 -0.704415 0
M  V30 10556 H 995.802 4.16937 0.235266 0
M  V30 10557 N 996.239 0.8527 1.3254 0
M  V30 10558 C 997.169 0.311234 2.31416 0
M  V30 10559 C 998.15 -0.588557 1.59593 0
M  V30 10560 O 999.335 -0.509211 1.87405 0
M  V30 10561 C 996.465 -0.502892 3.4364 0
M  V30 10562 C 995.419 0.302296 4.26931 0
M  V30 10563 C 994.745 -0.636445 5.30899 0
M  V30 10564 C 996.045 1.52697 4.99481 0
M  V30 10565 H 997.739 1.13742 2.76953 0
M  V30 10566 H 995.285 0.548389 1.33149 0
M  V30 10567 H 997.238 -0.892092 4.11849 0
M  V30 10568 H 995.962 -1.36242 2.96826 0
M  V30 10569 H 994.621 0.673226 3.60365 0
M  V30 10570 H 994.269 -1.49277 4.80339 0
M  V30 10571 H 993.969 -0.101716 5.87512 0
M  V30 10572 H 995.493 -1.02286 6.01972 0
M  V30 10573 H 996.907 1.21017 5.60382 0
M  V30 10574 H 995.304 1.9995 5.65809 0
M  V30 10575 H 996.374 2.28929 4.27457 0
M  V30 10576 N 997.718 -1.45297 0.610449 0
M  V30 10577 C 998.966 -2.01819 0.106548 0
M  V30 10578 C 999.287 -1.48102 -1.26849 0
M  V30 10579 O 998.557 -0.676411 -1.83852 0
M  V30 10580 H 997.137 -0.746113 0.0363982 0
M  V30 10581 H 999.799 -1.78061 0.792491 0
M  V30 10582 H 998.895 -3.12045 0.0585 0
M  V30 10583 N 999.196 -0.349774 -1.5367 0
M  V30 10584 C 1000.14 0.504121 -2.25227 0
M  V30 10585 C 1001.11 1.09048 -1.2529 0
M  V30 10586 O 1002.3 1.12594 -1.54037 0
M  V30 10587 C 999.438 1.64601 -3.03316 0
M  V30 10588 C 998.551 1.08635 -4.18118 0
M  V30 10589 C 997.686 2.19605 -4.83681 0
M  V30 10590 C 996.725 1.61023 -5.90541 0
M  V30 10591 N 995.862 2.6576 -6.49858 0
M  V30 10592 H 1000.7 -0.112621 -2.97787 0
M  V30 10593 H 998.239 -0.0673503 -1.46946 0
M  V30 10594 H 1000.2 2.31836 -3.46854 0
M  V30 10595 H 998.827 2.23364 -2.33041 0
M  V30 10596 H 997.879 0.304748 -3.79177 0
M  V30 10597 H 999.191 0.617911 -4.94958 0
M  V30 10598 H 998.345 2.94693 -5.30322 0
M  V30 10599 H 997.084 2.69795 -4.06278 0
M  V30 10600 H 996.089 0.844428 -5.43277 0
M  V30 10601 H 997.314 1.11677 -6.69855 0
M  V30 10602 H 995.26 3.15193 -5.75317 0
M  V30 10603 H 995.177 2.23557 -7.2219 0
M  V30 10604 H 996.445 3.40598 -7.01151 0
M  V30 10605 N 1000.67 1.57404 -0.0785433 0
M  V30 10606 C 1001.95 1.85163 0.630389 0
M  V30 10607 C 1002.33 0.972295 1.87376 0
M  V30 10608 O 1001.68 0.0403375 2.28464 0
M  V30 10609 C 1001.89 3.35491 0.961604 0
M  V30 10610 C 1003.24 4.0316 1.33219 0
M  V30 10611 O 1004.26 3.40276 1.05313 0
M  V30 10612 O 1003.12 5.14086 1.85412 0
M  V30 10613 H 1000.21 0.765169 0.31376 0
M  V30 10614 H 1002.76 1.69343 -0.109986 0
M  V30 10615 H 1001.53 3.91221 0.0788113 0
M  V30 10616 H 1001.15 3.56598 1.75852 0
M  V30 10617 N 1002.15 -0.195058 1.56388 0
M  V30 10618 C 1003.43 -0.941335 1.71459 0
M  V30 10619 C 1003.81 -2.01375 0.633336 0
M  V30 10620 O 1003.16 -2.25715 -0.35567 0
M  V30 10621 C 1003.37 -1.52772 3.13786 0
M  V30 10622 C 1004.71 -2.00983 3.7402 0
M  V30 10623 O 1005.74 -1.62614 3.16915 0
M  V30 10624 O 1004.6 -2.71586 4.7424 0
M  V30 10625 H 1001.69 -0.441451 0.699321 0
M  V30 10626 H 1004.24 -0.184752 1.68691 0
M  V30 10627 H 1003.01 -0.754699 3.83953 0
M  V30 10628 H 1002.63 -2.34914 3.20782 0
M  V30 10629 N 1003.63 -1.50653 -0.462772 0
M  V30 10630 C 1004.54 -1.72923 -1.58539 0
M  V30 10631 C 1005.56 -0.612577 -1.6286 0
M  V30 10632 O 1006.73 -0.891885 -1.80575 0
M  V30 10633 C 1003.8 -1.82623 -2.94703 0
M  V30 10634 C 1002.86 -3.06392 -3.00704 0
M  V30 10635 C 1002.09 -3.15618 -4.30373 0
M  V30 10636 O 1002.31 -2.31423 -5.21344 0
M  V30 10637 O 1001.25 -4.0841 -4.42136 0
M  V30 10638 H 1005.07 -2.68103 -1.42669 0
M  V30 10639 H 1002.66 -1.34848 -0.643144 0
M  V30 10640 H 1004.54 -1.91134 -3.7556 0
M  V30 10641 H 1003.22 -0.906275 -3.10754 0
M  V30 10642 H 1002.12 -3.03375 -2.18894 0
M  V30 10643 H 1003.46 -3.97992 -2.89591 0
M  V30 10644 N 1005.11 0.71652 -1.4037 0
M  V30 10645 C 1006.35 1.47857 -1.38803 0
M  V30 10646 C 1006.69 1.94197 0.0100536 0
M  V30 10647 O 1005.96 1.68093 0.978521 0
M  V30 10648 C 1006.25 2.7053 -2.37667 0
M  V30 10649 C 1006.1 2.3009 -3.86496 0
M  V30 10650 C 1007.42 3.72684 -2.34082 0
M  V30 10651 H 1004.54 0.53632 -0.505499 0
M  V30 10652 H 1007.18 0.817824 -1.71498 0
M  V30 10653 H 1005.33 3.26906 -2.09916 0
M  V30 10654 H 1007 1.79202 -4.2507 0
M  V30 10655 H 1005.24 1.62102 -4.02375 0
M  V30 10656 H 1005.91 3.18018 -4.51186 0
M  V30 10657 H 1008.39 3.25935 -2.58661 0
M  V30 10658 H 1007.27 4.56157 -3.05306 0
M  V30 10659 H 1007.53 4.20916 -1.35213 0
M  V30 10660 N 1006.59 1.25851 0.948643 0
M  V30 10661 C 1008 1.02802 1.22081 0
M  V30 10662 C 1008.2 -0.251461 1.99925 0
M  V30 10663 O 1007.26 -0.962592 2.33432 0
M  V30 10664 C 1008.57 2.25489 1.98936 0
M  V30 10665 C 1010.12 2.30312 2.11956 0
M  V30 10666 C 1010.59 3.52671 2.92211 0
M  V30 10667 N 1012.09 3.53103 2.99787 0
M  V30 10668 C 1012.82 4.44445 3.62294 0
M  V30 10669 N 1012.32 5.46065 4.26362 0
M  V30 10670 N 1014.11 4.32113 3.59493 0
M  V30 10671 H 1006.26 2.08042 0.428044 0
M  V30 10672 H 1008.52 0.913928 0.251872 0
M  V30 10673 H 1008.23 3.18513 1.4914 0
M  V30 10674 H 1008.1 2.2914 2.99624 0
M  V30 10675 H 1010.49 1.37808 2.60946 0
M  V30 10676 H 1010.57 2.30676 1.10554 0
M  V30 10677 H 1010.22 4.45501 2.43909 0
M  V30 10678 H 1010.15 3.49554 3.93853 0
M  V30 10679 H 1012.64 2.79597 2.54232 0
M  V30 10680 H 1012.95 6.11964 4.71932 0
M  V30 10681 H 1011.29 5.49931 4.24972 0
M  V30 10682 H 1014.49 3.51946 3.08629 0
M  V30 10683 H 1014.66 5.03493 4.0792 0
M  V30 10684 N 1008.06 -1.15214 1.07534 0
M  V30 10685 C 1009.01 -2.20013 0.697337 0
M  V30 10686 C 1009.98 -1.6314 -0.312168 0
M  V30 10687 O 1011.17 -1.89768 -0.198196 0
M  V30 10688 C 1008.31 -3.44945 0.103293 0
M  V30 10689 C 1007.42 -4.16009 1.1645 0
M  V30 10690 C 1006.55 -5.28496 0.535261 0
M  V30 10691 C 1005.59 -5.9138 1.57912 0
M  V30 10692 N 1004.73 -6.95335 0.972332 0
M  V30 10693 H 1009.57 -2.51698 1.59538 0
M  V30 10694 H 1007.11 -1.2361 0.797431 0
M  V30 10695 H 1009.07 -4.16397 -0.258766 0
M  V30 10696 H 1007.7 -3.13772 -0.758096 0
M  V30 10697 H 1006.75 -3.43035 1.64411 0
M  V30 10698 H 1008.06 -4.58853 1.9559 0
M  V30 10699 H 1007.21 -6.06579 0.120942 0
M  V30 10700 H 1005.95 -4.8685 -0.287889 0
M  V30 10701 H 1004.96 -5.12008 2.0032 0
M  V30 10702 H 1006.18 -6.35103 2.40459 0
M  V30 10703 H 1004.13 -6.55779 0.170119 0
M  V30 10704 H 1004.05 -7.36616 1.70095 0
M  V30 10705 H 1005.31 -7.77312 0.583577 0
M  V30 10706 N 1009.54 -0.859717 -1.32086 0
M  V30 10707 C 1010.77 -0.479724 -2.01262 0
M  V30 10708 C 1011.19 0.924985 -1.64589 0
M  V30 10709 O 1010.54 1.60439 -0.869803 0
M  V30 10710 C 1010.59 -0.615128 -3.56228 0
M  V30 10711 O 1010.31 -1.96451 -3.91585 0
M  V30 10712 C 1011.82 -0.234804 -4.42678 0
M  V30 10713 H 1009.04 -0.188007 -0.644123 0
M  V30 10714 H 1011.58 -1.15805 -1.68551 0
M  V30 10715 H 1009.73 0.0155268 -3.87397 0
M  V30 10716 H 1010.15 -1.96491 -4.86304 0
M  V30 10717 H 1011.62 -0.380534 -5.50687 0
M  V30 10718 H 1012.1 0.825189 -4.31378 0
M  V30 10719 H 1012.71 -0.840739 -4.16907 0
M  V30 10720 N 1011.02 1.44971 -0.618145 0
M  V30 10721 C 1011.97 2.32354 0.106846 0
M  V30 10722 C 1012.96 1.4659 0.848984 0
M  V30 10723 O 1014.17 1.63012 0.763354 0
M  V30 10724 H 1010.54 0.750108 0.0533109 0
M  V30 10725 H 1012.51 2.9127 -0.648426 0
M  V30 10726 C 1011.26 3.30381 1.08368 0
M  V30 10727 H 1010.59 3.96377 0.52205 0
M  V30 10728 H 1012.03 3.94231 1.56069 0
M  V30 10729 C 1010.49 2.58336 2.1625 0
M  V30 10730 O 1011.02 2.37258 3.24148 0
M  V30 10731 N 1009.22 2.18292 1.91825 0
M  V30 10732 H 1008.77 2.35635 1.04086 0
M  V30 10733 H 1008.73 1.70413 2.6421 0
M  V30 10734 N 1012.5 0.357919 1.53482 0
M  V30 10735 C 1013.43 -0.484231 2.28424 0
M  V30 10736 C 1014.41 -1.09046 1.30548 0
M  V30 10737 O 1015.59 -1.10916 1.59409 0
M  V30 10738 C 1012.72 -1.62803 3.06778 0
M  V30 10739 C 1011.68 -1.14943 4.12277 0
M  V30 10740 C 1011 -2.38287 4.78669 0
M  V30 10741 C 1012.3 -0.239627 5.2175 0
M  V30 10742 H 1014 0.140979 2.99068 0
M  V30 10743 H 1011.54 0.069244 1.43833 0
M  V30 10744 H 1013.5 -2.22374 3.57949 0
M  V30 10745 H 1012.22 -2.28036 2.3381 0
M  V30 10746 H 1010.88 -0.576442 3.6204 0
M  V30 10747 H 1010.53 -3.01959 4.02281 0
M  V30 10748 H 1010.23 -2.06939 5.49955 0
M  V30 10749 H 1011.75 -2.98558 5.32631 0
M  V30 10750 H 1013.17 -0.742597 5.6847 0
M  V30 10751 H 1011.56 -0.0173747 6.00097 0
M  V30 10752 H 1012.63 0.720333 4.7952 0
M  V30 10753 N 1013.98 -1.5736 0.0868897 0
M  V30 10754 C 1014.94 -2.12436 -0.860439 0
M  V30 10755 C 1015.94 -1.05175 -1.21634 0
M  V30 10756 O 1017.13 -1.31098 -1.14713 0
M  V30 10757 C 1014.26 -2.63818 -2.159 0
M  V30 10758 H 1015.45 -2.97453 -0.382346 0
M  V30 10759 H 1013.01 -1.55458 -0.162009 0
M  V30 10760 H 1013.74 -1.82298 -2.68212 0
M  V30 10761 H 1013.53 -3.42234 -1.91359 0
M  V30 10762 H 1015.02 -3.06452 -2.83685 0
M  V30 10763 N 1015.45 0.186762 -1.56489 0
M  V30 10764 C 1016.7 0.904063 -1.80752 0
M  V30 10765 C 1017.02 1.83443 -0.661343 0
M  V30 10766 O 1016.29 1.93272 0.319811 0
M  V30 10767 H 1014.87 0.336828 -0.66675 0
M  V30 10768 H 1017.54 0.190275 -1.93969 0
M  V30 10769 H 1016.63 1.49021 -2.74225 0
M  V30 10770 N 1016.93 1.50896 0.454776 0
M  V30 10771 C 1017.86 1.73885 1.5584 0
M  V30 10772 C 1018.84 0.588172 1.59607 0
M  V30 10773 O 1020.03 0.829054 1.75614 0
M  V30 10774 C 1017.16 1.84796 2.94054 0
M  V30 10775 C 1016.11 3.00111 3.05152 0
M  V30 10776 C 1015.44 2.96183 4.45174 0
M  V30 10777 C 1016.74 4.40365 2.80849 0
M  V30 10778 H 1018.43 2.66292 1.36854 0
M  V30 10779 H 1015.98 1.28142 0.656936 0
M  V30 10780 H 1017.93 1.99462 3.71204 0
M  V30 10781 H 1016.66 0.890235 3.14233 0
M  V30 10782 H 1015.31 2.85121 2.30438 0
M  V30 10783 H 1014.96 1.98224 4.62295 0
M  V30 10784 H 1014.66 3.73608 4.53532 0
M  V30 10785 H 1016.19 3.1292 5.24322 0
M  V30 10786 H 1017.6 4.55795 3.47741 0
M  V30 10787 H 1016 5.19363 3.00636 0
M  V30 10788 H 1017.07 4.51606 1.76579 0
M  V30 10789 N 1018.41 -0.709066 1.40748 0
M  V30 10790 C 1019.34 -1.83293 1.35937 0
M  V30 10791 C 1020.32 -1.60983 0.22871 0
M  V30 10792 O 1021.51 -1.8391 0.413435 0
M  V30 10793 C 1018.63 -3.19746 1.11714 0
M  V30 10794 C 1017.68 -3.60872 2.27319 0
M  V30 10795 S 1018.51 -3.67233 3.89743 0
M  V30 10796 C 1019.67 -5.06434 3.67797 0
M  V30 10797 H 1019.9 -1.87095 2.31047 0
M  V30 10798 H 1017.43 -0.876479 1.27111 0
M  V30 10799 H 1019.39 -3.98526 0.984245 0
M  V30 10800 H 1018.05 -3.1357 0.182472 0
M  V30 10801 H 1017.25 -4.59965 2.06029 0
M  V30 10802 H 1016.85 -2.89366 2.36946 0
M  V30 10803 H 1019.14 -5.93544 3.26668 0
M  V30 10804 H 1020.08 -5.32761 4.66445 0
M  V30 10805 H 1020.49 -4.77336 3.01348 0
M  V30 10806 N 1019.89 -1.26353 -0.941956 0
M  V30 10807 C 1021.17 -1.02601 -1.6653 0
M  V30 10808 C 1021.55 0.44381 -2.06382 0
M  V30 10809 O 1020.89 1.42399 -1.78703 0
M  V30 10810 C 1021.1 -1.97401 -2.87809 0
M  V30 10811 C 1022.45 -2.25967 -3.59478 0
M  V30 10812 O 1023.48 -1.95261 -2.97912 0
M  V30 10813 O 1022.34 -2.78244 -4.70364 0
M  V30 10814 H 1019.43 -0.39007 -0.729228 0
M  V30 10815 H 1021.98 -1.37559 -0.993754 0
M  V30 10816 H 1020.75 -2.9659 -2.55245 0
M  V30 10817 H 1020.37 -1.62918 -3.62689 0
M  V30 10818 N 1021.37 1.14642 -1.08144 0
M  V30 10819 C 1022.62 1.8525 -0.807885 0
M  V30 10820 C 1022.94 1.83194 0.668213 0
M  V30 10821 O 1022.21 1.27848 1.48431 0
M  V30 10822 H 1020.79 0.685909 -0.295868 0
M  V30 10823 H 1023.45 1.38935 -1.36686 0
M  V30 10824 H 1022.54 2.90155 -1.14964 0
M  V30 10825 N 1022.85 0.866709 1.31628 0
M  V30 10826 C 1024.08 0.489679 2.00713 0
M  V30 10827 C 1024.48 -0.921492 1.65243 0
M  V30 10828 O 1023.83 -1.61467 0.876012 0
M  V30 10829 C 1023.89 0.563148 3.55062 0
M  V30 10830 C 1023.55 1.93535 4.13996 0
M  V30 10831 C 1024.55 2.90243 4.31341 0
M  V30 10832 C 1022.23 2.23578 4.49798 0
M  V30 10833 C 1024.23 4.15138 4.83673 0
M  V30 10834 C 1021.92 3.48723 5.01832 0
M  V30 10835 C 1022.91 4.44319 5.18719 0
M  V30 10836 O 1022.6 5.67247 5.69637 0
M  V30 10837 H 1022.33 0.189605 0.648865 0
M  V30 10838 H 1024.89 1.16874 1.68907 0
M  V30 10839 H 1023.12 -0.172815 3.86314 0
M  V30 10840 H 1024.81 0.200009 4.05407 0
M  V30 10841 H 1025.57 2.6834 4.04003 0
M  V30 10842 H 1021.45 1.49949 4.35932 0
M  V30 10843 H 1025 4.89762 4.96769 0
M  V30 10844 H 1020.89 3.70471 5.28603 0
M  V30 10845 H 1021.66 5.69372 5.88011 0
M  V30 10846 N 1024.32 -1.44642 0.625825 0
M  V30 10847 C 1025.57 -2.02094 0.128201 0
M  V30 10848 C 1025.9 -1.49181 -1.24801 0
M  V30 10849 O 1025.15 -0.663965 -1.84092 0
M  V30 10850 C 1025.45 -3.57352 0.0584381 0
M  V30 10851 C 1025.12 -4.29496 1.37272 0
M  V30 10852 C 1023.78 -4.48922 1.7327 0
M  V30 10853 C 1026.13 -4.70586 2.2405 0
M  V30 10854 C 1023.46 -5.06697 2.95762 0
M  V30 10855 C 1025.81 -5.29717 3.45807 0
M  V30 10856 C 1024.48 -5.47363 3.82034 0
M  V30 10857 H 1023.75 -0.739514 0.0469122 0
M  V30 10858 H 1026.39 -1.73475 0.811083 0
M  V30 10859 H 1024.7 -3.85354 -0.707791 0
M  V30 10860 H 1026.4 -3.9953 -0.34303 0
M  V30 10861 H 1022.99 -4.14702 1.08258 0
M  V30 10862 H 1027.17 -4.55295 1.97535 0
M  V30 10863 H 1022.43 -5.18546 3.23913 0
M  V30 10864 H 1026.6 -5.60507 4.13286 0
M  V30 10865 H 1024.23 -5.91898 4.77033 0
M  V30 10866 N 1025.8 -0.366053 -1.5329 0
M  V30 10867 C 1026.75 0.496656 -2.22525 0
M  V30 10868 C 1027.74 1.0483 -1.22063 0
M  V30 10869 O 1028.93 0.978266 -1.47509 0
M  V30 10870 C 1026.06 1.63559 -3.01833 0
M  V30 10871 C 1025.14 1.0968 -4.09672 0
M  V30 10872 N 1025.53 0.28104 -5.05019 0
M  V30 10873 C 1023.83 1.37157 -4.24387 0
M  V30 10874 C 1024.53 -0.0140071 -5.81698 0
M  V30 10875 N 1023.51 0.583743 -5.40457 0
M  V30 10876 H 1027.31 -0.133408 -2.93597 0
M  V30 10877 H 1024.82 -0.174095 -1.61464 0
M  V30 10878 H 1026.82 2.26582 -3.49952 0
M  V30 10879 H 1025.48 2.26871 -2.32292 0
M  V30 10880 H 1026.49 -0.0797947 -5.17839 0
M  V30 10881 H 1023.17 2.00743 -3.66072 0
M  V30 10882 H 1024.56 -0.673508 -6.68516 0
M  V30 10883 N 1027.28 1.57312 -0.0952337 0
M  V30 10884 C 1028.23 2.10571 0.87428 0
M  V30 10885 C 1029.21 1.02079 1.24374 0
M  V30 10886 O 1030.41 1.28353 1.2188 0
M  V30 10887 C 1027.53 2.68972 2.13329 0
M  V30 10888 C 1026.62 3.84508 1.78926 0
M  V30 10889 N 1027.01 4.92534 1.15082 0
M  V30 10890 C 1025.31 3.94245 2.08535 0
M  V30 10891 C 1026.01 5.73163 0.992937 0
M  V30 10892 N 1024.99 5.22198 1.51029 0
M  V30 10893 H 1028.79 2.91476 0.376727 0
M  V30 10894 H 1026.3 1.62041 0.107974 0
M  V30 10895 H 1028.3 3.05457 2.83728 0
M  V30 10896 H 1026.96 1.89523 2.6365 0
M  V30 10897 H 1027.97 5.11405 0.817621 0
M  V30 10898 H 1024.65 3.25805 2.61069 0
M  V30 10899 H 1026.04 6.70084 0.493641 0
M  V30 10900 N 1028.76 -0.17846 1.56586 0
M  V30 10901 C 1029.67 -1.24115 1.9908 0
M  V30 10902 C 1030.68 -1.48854 0.901031 0
M  V30 10903 O 1031.86 -1.61142 1.2081 0
M  V30 10904 C 1028.92 -2.56187 2.33601 0
M  V30 10905 C 1027.99 -2.39373 3.56369 0
M  V30 10906 C 1027.22 -3.65147 3.89234 0
M  V30 10907 O 1027.44 -4.70024 3.23162 0
M  V30 10908 O 1026.38 -3.59683 4.82609 0
M  V30 10909 H 1030.2 -0.910482 2.89731 0
M  V30 10910 H 1027.79 -0.38477 1.4436 0
M  V30 10911 H 1029.67 -3.34109 2.56806 0
M  V30 10912 H 1028.34 -2.88847 1.46113 0
M  V30 10913 H 1027.25 -1.59506 3.38391 0
M  V30 10914 H 1028.58 -2.1164 4.44375 0
M  V30 10915 N 1030.24 -1.51135 -0.446768 0
M  V30 10916 C 1031.2 -1.71187 -1.52406 0
M  V30 10917 C 1032.2 -0.582037 -1.49897 0
M  V30 10918 O 1033.39 -0.849452 -1.52085 0
M  V30 10919 C 1030.52 -1.75962 -2.91976 0
M  V30 10920 H 1031.71 -2.67324 -1.35934 0
M  V30 10921 H 1029.27 -1.40982 -0.674813 0
M  V30 10922 H 1030 -0.816065 -3.13864 0
M  V30 10923 H 1029.79 -2.58065 -2.95203 0
M  V30 10924 H 1031.28 -1.93347 -3.70144 0
M  V30 10925 N 1031.71 0.701592 -1.41122 0
M  V30 10926 C 1032.94 1.49553 -1.43696 0
M  V30 10927 C 1033.36 1.88053 -0.0421865 0
M  V30 10928 O 1032.72 1.54223 0.953144 0
M  V30 10929 C 1032.77 2.73834 -2.34622 0
M  V30 10930 O 1031.87 3.71088 -1.7991 0
M  V30 10931 H 1031.21 0.450352 -0.487933 0
M  V30 10932 H 1033.74 0.862886 -1.85514 0
M  V30 10933 H 1033.75 3.22209 -2.5029 0
M  V30 10934 H 1032.43 2.45149 -3.35969 0
M  V30 10935 H 1031.01 3.29994 -1.73661 0
M  V30 10936 N 1033.19 1.2685 0.935242 0
M  V30 10937 C 1034.44 1.12132 1.67658 0
M  V30 10938 C 1034.75 -0.333839 1.9273 0
M  V30 10939 O 1035.96 -0.601801 2.64746 0
M  V30 10940 C 1034.42 1.95873 3.0193 0
M  V30 10941 C 1034.02 3.46 2.84584 0
M  V30 10942 C 1035.77 1.89781 3.79715 0
M  V30 10943 C 1033.67 4.21966 4.14365 0
M  V30 10944 H 1032.6 0.416035 0.628833 0
M  V30 10945 H 1035.26 1.51209 1.03962 0
M  V30 10946 H 1033.64 1.49633 3.66641 0
M  V30 10947 H 1034.81 4.00049 2.28687 0
M  V30 10948 H 1033.13 3.53391 2.20236 0
M  V30 10949 H 1035.72 2.43819 4.75875 0
M  V30 10950 H 1036.07 0.869797 4.07112 0
M  V30 10951 H 1036.6 2.33875 3.21788 0
M  V30 10952 H 1033.34 5.2526 3.9215 0
M  V30 10953 H 1032.86 3.72696 4.69955 0
M  V30 10954 H 1034.54 4.30734 4.82781 0
M  V30 10955 N 1034.67 -1.14067 1.0875 0
M  V30 10956 C 1035.58 -2.22871 0.732498 0
M  V30 10957 C 1036.6 -1.72008 -0.26253 0
M  V30 10958 O 1037.77 -2.01123 -0.105601 0
M  V30 10959 C 1034.84 -3.46371 0.150913 0
M  V30 10960 C 1033.9 -4.12158 1.201 0
M  V30 10961 C 1033.13 -5.29763 0.647075 0
M  V30 10962 O 1033.35 -5.67911 -0.532307 0
M  V30 10963 O 1032.29 -5.8542 1.3988 0
M  V30 10964 H 1036.11 -2.55596 1.64025 0
M  V30 10965 H 1033.7 -1.22065 0.861417 0
M  V30 10966 H 1035.58 -4.21055 -0.170442 0
M  V30 10967 H 1034.26 -3.15362 -0.729948 0
M  V30 10968 H 1033.16 -3.39332 1.57494 0
M  V30 10969 H 1034.5 -4.47282 2.05426 0
M  V30 10970 N 1036.15 -0.873678 -1.31166 0
M  V30 10971 C 1037.4 -0.485497 -1.96182 0
M  V30 10972 C 1037.72 0.96621 -1.69379 0
M  V30 10973 O 1036.99 1.67783 -1.01121 0
M  V30 10974 H 1035.57 -0.176547 -0.725838 0
M  V30 10975 H 1038.23 -1.11428 -1.59906 0
M  V30 10976 H 1037.33 -0.646325 -3.05334 0
M  V30 10977 N 1037.63 1.44308 -0.633487 0
M  V30 10978 C 1038.87 2.01624 -0.138643 0
M  V30 10979 C 1039.2 1.50101 1.24477 0
M  V30 10980 O 1038.47 0.705575 1.82752 0
M  V30 10981 H 1037.05 0.745439 -0.0482636 0
M  V30 10982 H 1039.71 1.76777 -0.820719 0
M  V30 10983 H 1038.8 3.11913 -0.108136 0
M  V30 10984 N 1039.1 0.374177 1.53094 0
M  V30 10985 C 1040.04 -0.503065 2.23611 0
M  V30 10986 C 1041.05 -1.03915 1.25321 0
M  V30 10987 O 1042.24 -0.944064 1.51492 0
M  V30 10988 C 1039.34 -1.70825 2.92698 0
M  V30 10989 C 1038.51 -1.30217 4.17567 0
M  V30 10990 C 1037.57 -2.37036 4.69788 0
M  V30 10991 O 1036.6 -1.99069 5.33254 0
M  V30 10992 N 1037.8 -3.68743 4.4834 0
M  V30 10993 H 1040.56 0.101013 2.9953 0
M  V30 10994 H 1038.12 0.199778 1.60663 0
M  V30 10995 H 1040.12 -2.41779 3.24538 0
M  V30 10996 H 1038.69 -2.219 2.2018 0
M  V30 10997 H 1037.91 -0.422121 3.91933 0
M  V30 10998 H 1039.19 -1.00728 4.9873 0
M  V30 10999 H 1038.59 -4.0236 3.97647 0
M  V30 11000 H 1037.15 -4.35776 4.84709 0
M  V30 11001 N 1040.58 -1.57259 0.103575 0
M  V30 11002 C 1041.53 -2.11032 -0.863101 0
M  V30 11003 C 1042.52 -1.02737 -1.2383 0
M  V30 11004 O 1043.71 -1.28997 -1.21197 0
M  V30 11005 C 1040.84 -2.70099 -2.11899 0
M  V30 11006 C 1039.92 -3.85451 -1.76885 0
M  V30 11007 N 1040.31 -4.93137 -1.12469 0
M  V30 11008 C 1038.61 -3.95346 -2.06441 0
M  V30 11009 C 1039.31 -5.73681 -0.962527 0
M  V30 11010 N 1038.29 -5.22992 -1.48258 0
M  V30 11011 H 1042.09 -2.91671 -0.361264 0
M  V30 11012 H 1039.61 -1.62096 -0.0993794 0
M  V30 11013 H 1041.6 -3.06957 -2.82104 0
M  V30 11014 H 1040.26 -1.90918 -2.62641 0
M  V30 11015 H 1041.27 -5.11832 -0.790489 0
M  V30 11016 H 1037.95 -3.27185 -2.59338 0
M  V30 11017 H 1039.34 -6.70337 -0.458098 0
M  V30 11018 N 1042.06 0.170153 -1.56679 0
M  V30 11019 C 1042.99 1.21285 -1.9953 0
M  V30 11020 C 1043.97 1.46104 -0.871071 0
M  V30 11021 O 1045.16 1.57419 -1.13724 0
M  V30 11022 C 1042.29 2.5515 -2.35618 0
M  V30 11023 C 1041.24 2.44898 -3.51011 0
M  V30 11024 C 1040.57 3.83263 -3.72845 0
M  V30 11025 C 1041.87 1.95271 -4.84424 0
M  V30 11026 H 1043.56 0.856646 -2.86883 0
M  V30 11027 H 1041.11 0.410634 -1.38021 0
M  V30 11028 H 1043.06 3.28299 -2.64193 0
M  V30 11029 H 1041.78 2.92561 -1.45175 0
M  V30 11030 H 1040.44 1.74203 -3.22566 0
M  V30 11031 H 1040.09 4.18069 -2.79691 0
M  V30 11032 H 1039.79 3.77272 -4.50488 0
M  V30 11033 H 1041.31 4.57996 -4.03822 0
M  V30 11034 H 1042.73 2.58195 -5.11867 0
M  V30 11035 H 1041.13 2.00225 -5.65712 0
M  V30 11036 H 1042.2 0.90709 -4.7634 0
M  V30 11037 N 1043.54 1.5137 0.438746 0
M  V30 11038 C 1044.49 1.73154 1.55308 0
M  V30 11039 C 1045.48 0.597825 1.58501 0
M  V30 11040 O 1046.69 0.77917 1.62262 0
M  V30 11041 H 1043.06 0.547083 0.51595 0
M  V30 11042 H 1045.03 2.66566 1.34108 0
M  V30 11043 C 1043.78 1.87242 2.92977 0
M  V30 11044 H 1043.1 2.73884 2.91252 0
M  V30 11045 H 1044.54 2.06497 3.70317 0
M  V30 11046 C 1043 0.631887 3.30921 0
M  V30 11047 O 1043.53 -0.214099 4.01129 0
M  V30 11048 N 1041.74 0.47639 2.86669 0
M  V30 11049 H 1041.29 1.16589 2.29706 0
M  V30 11050 H 1041.24 -0.352403 3.12419 0
M  V30 11051 N 1045.02 -0.694098 1.41492 0
M  V30 11052 C 1046.26 -1.4563 1.41137 0
M  V30 11053 C 1046.6 -1.94189 0.0208428 0
M  V30 11054 O 1045.87 -1.69628 -0.951655 0
M  V30 11055 C 1046.15 -2.66714 2.41941 0
M  V30 11056 C 1046.01 -2.23912 3.90107 0
M  V30 11057 C 1047.33 -3.68913 2.39981 0
M  V30 11058 H 1044.44 -0.52821 0.513968 0
M  V30 11059 H 1047.09 -0.790437 1.72778 0
M  V30 11060 H 1045.24 -3.23525 2.1509 0
M  V30 11061 H 1046.91 -1.72417 4.27867 0
M  V30 11062 H 1045.15 -1.5568 4.04903 0
M  V30 11063 H 1045.82 -3.108 4.56188 0
M  V30 11064 H 1048.3 -3.21779 2.63813 0
M  V30 11065 H 1047.17 -4.51242 3.12524 0
M  V30 11066 H 1047.44 -4.18711 1.41892 0
M  V30 11067 N 1046.49 -1.27344 -0.928501 0
M  V30 11068 C 1047.44 -1.09835 -2.05034 0
M  V30 11069 C 1048.44 -0.0216643 -1.69386 0
M  V30 11070 O 1049.64 -0.179323 -1.79105 0
M  V30 11071 H 1046.02 -0.338416 -0.671549 0
M  V30 11072 H 1047.99 -2.04879 -2.1695 0
M  V30 11073 C 1046.74 -0.761462 -3.3926 0
M  V30 11074 H 1046.06 -1.58186 -3.67175 0
M  V30 11075 H 1047.5 -0.678812 -4.18531 0
M  V30 11076 C 1045.96 0.534118 -3.32639 0
M  V30 11077 O 1046.49 1.56877 -3.69801 0
M  V30 11078 N 1044.7 0.529437 -2.85736 0
M  V30 11079 H 1044.24 -0.312954 -2.55692 0
M  V30 11080 H 1044.2 1.39637 -2.81689 0
M  V30 11081 N 1047.97 1.13488 -1.09353 0
M  V30 11082 C 1049.22 1.85022 -0.830354 0
M  V30 11083 C 1049.55 1.83266 0.64242 0
M  V30 11084 O 1048.83 1.27024 1.47293 0
M  V30 11085 C 1049.11 3.33218 -1.36521 0
M  V30 11086 C 1048.96 3.43491 -2.90404 0
M  V30 11087 C 1050.28 4.28626 -0.998381 0
M  V30 11088 H 1047.4 0.671786 -0.303105 0
M  V30 11089 H 1050.04 1.33211 -1.3548 0
M  V30 11090 H 1048.19 3.77471 -0.919117 0
M  V30 11091 H 1049.86 3.07954 -3.43456 0
M  V30 11092 H 1048.11 2.84391 -3.27573 0
M  V30 11093 H 1048.78 4.47702 -3.22905 0
M  V30 11094 H 1051.25 3.9244 -1.38311 0
M  V30 11095 H 1050.13 5.30754 -1.39968 0
M  V30 11096 H 1050.39 4.42001 0.093517 0
M  V30 11097 N 1049.45 0.880621 1.30701 0
M  V30 11098 C 1050.38 0.288813 2.26365 0
M  V30 11099 C 1051.36 -0.588135 1.51591 0
M  V30 11100 O 1052.55 -0.539197 1.80624 0
M  V30 11101 C 1049.67 -0.590032 3.33521 0
M  V30 11102 C 1048.72 0.217003 4.25948 0
M  V30 11103 S 1049.55 1.60246 5.10961 0
M  V30 11104 C 1050.71 0.730023 6.21628 0
M  V30 11105 H 1050.94 1.09971 2.76213 0
M  V30 11106 H 1048.47 0.67978 1.3863 0
M  V30 11107 H 1050.43 -1.09136 3.95727 0
M  V30 11108 H 1049.09 -1.37498 2.82406 0
M  V30 11109 H 1048.29 -0.453481 5.01956 0
M  V30 11110 H 1047.89 0.650803 3.68294 0
M  V30 11111 H 1050.18 -0.0548644 6.77478 0
M  V30 11112 H 1051.12 1.46157 6.92852 0
M  V30 11113 H 1051.53 0.292854 5.6374 0
M  V30 11114 N 1050.93 -1.4397 0.641131 0
M  V30 11115 C 1051.88 -2.32495 -0.0698668 0
M  V30 11116 C 1052.87 -1.47922 -0.825555 0
M  V30 11117 O 1054.08 -1.64206 -0.737323 0
M  V30 11118 H 1050.45 -0.750861 -0.0413706 0
M  V30 11119 H 1052.42 -2.90201 0.694682 0
M  V30 11120 C 1051.17 -3.32063 -1.03098 0
M  V30 11121 H 1050.5 -3.97157 -0.458923 0
M  V30 11122 H 1051.94 -3.96664 -1.49778 0
M  V30 11123 C 1050.39 -2.61743 -2.12113 0
M  V30 11124 O 1050.92 -2.42385 -3.20332 0
M  V30 11125 N 1049.13 -2.21316 -1.88328 0
M  V30 11126 H 1048.68 -2.37261 -1.00324 0
M  V30 11127 H 1048.64 -1.74594 -2.61465 0
M  V30 11128 N 1052.41 -0.382291 -1.52893 0
M  V30 11129 C 1053.82 -0.031941 -1.59568 0
M  V30 11130 C 1054.02 1.45245 -1.39664 0
M  V30 11131 O 1053.08 2.21612 -1.21013 0
M  V30 11132 C 1054.39 -0.502846 -2.96466 0
M  V30 11133 C 1055.94 -0.4585 -3.09624 0
M  V30 11134 C 1056.42 -0.905481 -4.4896 0
M  V30 11135 N 1057.91 -0.861211 -4.55124 0
M  V30 11136 C 1058.64 -1.17856 -5.61157 0
M  V30 11137 N 1058.14 -1.56603 -6.74868 0
M  V30 11138 N 1059.93 -1.10027 -5.51226 0
M  V30 11139 H 1052.08 -1.34875 -1.64081 0
M  V30 11140 H 1054.34 -0.552375 -0.770446 0
M  V30 11141 H 1054.05 -1.53931 -3.16225 0
M  V30 11142 H 1053.92 0.101777 -3.77063 0
M  V30 11143 H 1056.31 0.568868 -2.89565 0
M  V30 11144 H 1056.39 -1.09884 -2.30996 0
M  V30 11145 H 1056.04 -1.93105 -4.69759 0
M  V30 11146 H 1055.97 -0.242227 -5.26043 0
M  V30 11147 H 1058.46 -0.575988 -3.73485 0
M  V30 11148 H 1058.77 -1.792 -7.51736 0
M  V30 11149 H 1057.12 -1.60484 -6.76217 0
M  V30 11150 H 1060.31 -0.796623 -4.61272 0
M  V30 11151 H 1060.48 -1.35091 -6.33762 0
M  V30 11152 N 1053.89 1.57202 -0.111913 0
M  V30 11153 C 1054.8 2.18475 0.854753 0
M  V30 11154 C 1055.81 1.15888 1.29792 0
M  V30 11155 O 1056.99 1.48329 1.36237 0
M  V30 11156 C 1054.05 2.76645 2.0897 0
M  V30 11157 C 1053.11 3.94244 1.69913 0
M  V30 11158 C 1052.35 4.49631 2.8752 0
M  V30 11159 O 1052.57 4.03926 4.02741 0
M  V30 11160 O 1051.5 5.40417 2.65015 0
M  V30 11161 H 1055.33 3.01519 0.363352 0
M  V30 11162 H 1052.91 1.4897 0.113329 0
M  V30 11163 H 1054.8 3.13755 2.81311 0
M  V30 11164 H 1053.47 1.96637 2.5713 0
M  V30 11165 H 1052.38 3.61915 0.947013 0
M  V30 11166 H 1053.71 4.75666 1.26501 0
M  V30 11167 N 1055.36 -0.161842 1.56767 0
M  V30 11168 C 1056.3 -1.22927 1.9226 0
M  V30 11169 C 1057.27 -1.42309 0.786562 0
M  V30 11170 O 1058.46 -1.57163 1.04078 0
M  V30 11171 C 1055.59 -2.59069 2.18177 0
M  V30 11172 C 1054.63 -2.56368 3.40849 0
M  V30 11173 S 1055.46 -2.04518 4.94907 0
M  V30 11174 C 1056.62 -3.42418 5.23928 0
M  V30 11175 H 1056.85 -0.926377 2.82499 0
M  V30 11176 H 1054.39 -0.366822 1.49979 0
M  V30 11177 H 1056.34 -3.37421 2.33789 0
M  V30 11178 H 1055.01 -2.86554 1.28629 0
M  V30 11179 H 1054.2 -3.56551 3.56213 0
M  V30 11180 H 1053.8 -1.86116 3.24402 0
M  V30 11181 H 1056.09 -4.38461 5.16486 0
M  V30 11182 H 1057.04 -3.3192 6.25487 0
M  V30 11183 H 1057.44 -3.38868 4.51474 0
M  V30 11184 N 1056.84 -1.516 -0.430713 0
M  V30 11185 C 1057.77 -1.76342 -1.53054 0
M  V30 11186 C 1058.75 -0.61349 -1.58652 0
M  V30 11187 O 1059.94 -0.856888 -1.74273 0
M  V30 11188 C 1057.07 -1.8945 -2.91077 0
M  V30 11189 C 1056.02 -3.04928 -3.00339 0
M  V30 11190 C 1055.35 -3.03228 -4.40405 0
M  V30 11191 C 1056.65 -4.44777 -2.73808 0
M  V30 11192 H 1058.34 -2.68435 -1.326 0
M  V30 11193 H 1055.89 -1.29171 -0.636466 0
M  V30 11194 H 1057.84 -2.05343 -3.67984 0
M  V30 11195 H 1056.56 -0.940114 -3.12777 0
M  V30 11196 H 1055.22 -2.88751 -2.25872 0
M  V30 11197 H 1054.87 -2.05553 -4.59083 0
M  V30 11198 H 1054.57 -3.80776 -4.47531 0
M  V30 11199 H 1056.1 -3.21222 -5.19277 0
M  V30 11200 H 1057.51 -4.6127 -3.40445 0
M  V30 11201 H 1055.91 -5.2408 -2.92335 0
M  V30 11202 H 1056.98 -4.54358 -1.69372 0
M  V30 11203 N 1058.32 0.686584 -1.41858 0
M  V30 11204 C 1059.25 1.81264 -1.47193 0
M  V30 11205 C 1060.23 1.66875 -0.329657 0
M  V30 11206 O 1061.42 1.86473 -0.542347 0
M  V30 11207 C 1058.55 3.19472 -1.36216 0
M  V30 11208 C 1057.5 3.4858 -2.48347 0
M  V30 11209 C 1056.83 4.86239 -2.22432 0
M  V30 11210 C 1058.13 3.46653 -3.90678 0
M  V30 11211 H 1059.82 1.77057 -2.41436 0
M  V30 11212 H 1057.37 0.850415 -1.16206 0
M  V30 11213 H 1059.32 3.97969 -1.38558 0
M  V30 11214 H 1058.04 3.24327 -0.384611 0
M  V30 11215 H 1056.7 2.72437 -2.45303 0
M  V30 11216 H 1056.35 4.8773 -1.22999 0
M  V30 11217 H 1056.05 5.06677 -2.97577 0
M  V30 11218 H 1057.57 5.67034 -2.26505 0
M  V30 11219 H 1058.99 4.15139 -3.95389 0
M  V30 11220 H 1057.38 3.78625 -4.65578 0
M  V30 11221 H 1058.45 2.45451 -4.18189 0
M  V30 11222 N 1059.8 1.27835 0.921735 0
M  V30 11223 C 1061.07 1.05238 1.64877 0
M  V30 11224 C 1061.45 -0.410921 2.07062 0
M  V30 11225 O 1060.8 -1.39538 1.80946 0
M  V30 11226 C 1061.01 2.01955 2.84632 0
M  V30 11227 C 1062.36 2.31657 3.55837 0
M  V30 11228 O 1063.38 1.99975 2.94768 0
M  V30 11229 O 1062.24 2.85692 4.65878 0
M  V30 11230 H 1059.34 0.401622 0.72293 0
M  V30 11231 H 1061.88 1.39123 0.971744 0
M  V30 11232 H 1060.66 3.00614 2.50494 0
M  V30 11233 H 1060.28 1.68667 3.60052 0
M  V30 11234 N 1061.28 -1.12907 1.09954 0
M  V30 11235 C 1062.24 -2.16673 0.747364 0
M  V30 11236 C 1063.24 -1.59208 -0.225741 0
M  V30 11237 O 1064.43 -1.742 -0.00322482 0
M  V30 11238 C 1061.56 -3.40735 0.106169 0
M  V30 11239 H 1062.75 -2.49341 1.6664 0
M  V30 11240 H 1060.31 -1.27828 0.899421 0
M  V30 11241 H 1061.04 -3.13661 -0.82384 0
M  V30 11242 H 1060.83 -3.83717 0.806434 0
M  V30 11243 H 1062.32 -4.17414 -0.12464 0
M  V30 11244 N 1062.75 -0.88754 -1.30232 0
M  V30 11245 C 1063.69 -0.300814 -2.26209 0
M  V30 11246 C 1064.66 0.580088 -1.519 0
M  V30 11247 O 1065.85 0.529611 -1.80907 0
M  V30 11248 C 1062.98 0.572336 -3.33829 0
M  V30 11249 C 1062.02 -0.239589 -4.25827 0
M  V30 11250 S 1062.85 -1.62953 -5.10104 0
M  V30 11251 C 1064.01 -0.762979 -6.21232 0
M  V30 11252 H 1064.24 -1.11435 -2.75626 0
M  V30 11253 H 1061.78 -0.687123 -1.38268 0
M  V30 11254 H 1063.73 1.07036 -3.963 0
M  V30 11255 H 1062.4 1.35999 -2.83131 0
M  V30 11256 H 1061.59 0.426854 -5.02189 0
M  V30 11257 H 1061.19 -0.670325 -3.67944 0
M  V30 11258 H 1063.48 0.0189354 -6.77497 0
M  V30 11259 H 1064.43 -1.49829 -6.92067 0
M  V30 11260 H 1064.83 -0.322747 -5.63577 0
M  V30 11261 N 1064.23 1.43628 -0.648757 0
M  V30 11262 C 1065.14 2.34554 0.0463037 0
M  V30 11263 C 1066.16 1.53629 0.816952 0
M  V30 11264 O 1067.33 1.86297 0.765212 0
M  V30 11265 C 1064.4 3.3185 1.00381 0
M  V30 11266 C 1063.46 4.2868 0.230589 0
M  V30 11267 C 1062.69 5.21328 1.14249 0
M  V30 11268 O 1062.92 5.18298 2.38166 0
M  V30 11269 O 1061.85 5.98726 0.617296 0
M  V30 11270 H 1065.68 2.95475 -0.702008 0
M  V30 11271 H 1063.26 1.43694 -0.408942 0
M  V30 11272 H 1065.14 3.91692 1.5542 0
M  V30 11273 H 1063.82 2.73439 1.73243 0
M  V30 11274 H 1062.73 3.72332 -0.363282 0
M  V30 11275 H 1064.06 4.90061 -0.458368 0
M  V30 11276 N 1065.71 0.390394 1.52688 0
M  V30 11277 C 1066.66 -0.4591 2.28024 0
M  V30 11278 C 1067.65 -1.06212 1.31967 0
M  V30 11279 O 1068.86 -1.00247 1.49501 0
M  V30 11280 H 1065.23 -0.16681 0.733266 0
M  V30 11281 H 1067.2 0.197747 2.97744 0
M  V30 11282 C 1065.95 -1.5737 3.10048 0
M  V30 11283 H 1065.28 -1.11901 3.83821 0
M  V30 11284 H 1066.72 -2.1423 3.65898 0
M  V30 11285 C 1065.18 -2.53036 2.22429 0
M  V30 11286 O 1065.71 -3.5647 1.85181 0
M  V30 11287 N 1063.91 -2.22802 1.86567 0
M  V30 11288 H 1063.46 -1.38723 2.17057 0
M  V30 11289 H 1063.42 -2.87061 1.28233 0
M  V30 11290 N 1067.19 -1.57141 0.120249 0
M  V30 11291 C 1068.6 -1.82256 -0.404931 0
M  V30 11292 C 1068.95 -1.03748 -1.66526 0
M  V30 11293 O 1068.08 -0.274456 -2.14653 0
M  V30 11294 C 1068.67 -3.30588 -0.741431 0
M  V30 11295 C 1067.23 -3.56379 -1.21124 0
M  V30 11296 C 1066.38 -2.76421 -0.220569 0
M  V30 11297 H 1069.33 -1.54897 0.345361 0
M  V30 11298 H 1069.35 -3.45284 -1.59872 0
M  V30 11299 H 1068.86 -3.87701 0.176036 0
M  V30 11300 H 1066.96 -3.04625 -2.14556 0
M  V30 11301 H 1067.07 -4.64952 -1.1557 0
M  V30 11302 H 1065.44 -2.44666 -0.707857 0
M  V30 11303 H 1066.22 -3.36294 0.690018 0
M  V30 11304 N 1068.67 0.153526 -1.5685 0
M  V30 11305 C 1069.58 1.20932 -2.01029 0
M  V30 11306 C 1070.59 1.47401 -0.924598 0
M  V30 11307 O 1071.77 1.592 -1.23359 0
M  V30 11308 C 1068.83 2.52438 -2.37647 0
M  V30 11309 C 1067.89 2.33673 -3.60132 0
M  V30 11310 C 1067.13 3.58909 -3.94994 0
M  V30 11311 O 1067.35 4.64823 -3.30599 0
M  V30 11312 O 1066.28 3.5196 -4.8827 0
M  V30 11313 H 1070.11 0.864273 -2.91143 0
M  V30 11314 H 1067.7 0.361755 -1.44954 0
M  V30 11315 H 1069.58 3.29981 -2.62088 0
M  V30 11316 H 1068.25 2.86486 -1.5069 0
M  V30 11317 H 1067.16 1.54102 -3.40886 0
M  V30 11318 H 1068.49 2.04544 -4.47686 0
M  V30 11319 N 1070.14 1.51827 0.422667 0
M  V30 11320 C 1071.09 1.74198 1.51406 0
M  V30 11321 C 1072.06 0.584013 1.55494 0
M  V30 11322 O 1073.25 0.820079 1.72277 0
M  V30 11323 C 1070.39 1.88627 2.88988 0
M  V30 11324 C 1069.5 3.16233 2.94314 0
M  V30 11325 C 1068.63 3.21172 4.2311 0
M  V30 11326 C 1067.67 4.43033 4.2236 0
M  V30 11327 N 1066.81 4.4544 5.42704 0
M  V30 11328 H 1071.65 2.67352 1.31632 0
M  V30 11329 H 1069.19 1.32487 0.63919 0
M  V30 11330 H 1071.15 1.94976 3.68837 0
M  V30 11331 H 1069.78 0.988673 3.07287 0
M  V30 11332 H 1068.83 3.19123 2.07039 0
M  V30 11333 H 1070.14 4.06104 2.89623 0
M  V30 11334 H 1069.29 3.26517 5.11343 0
M  V30 11335 H 1068.03 2.29216 4.30478 0
M  V30 11336 H 1067.04 4.37849 3.32518 0
M  V30 11337 H 1068.26 5.3627 4.16643 0
M  V30 11338 H 1066.21 3.56361 5.50766 0
M  V30 11339 H 1066.13 5.29138 5.39953 0
M  V30 11340 H 1067.39 4.54997 6.32928 0
M  V30 11341 N 1071.62 -0.679052 1.4222 0
M  V30 11342 C 1072.85 -1.46534 1.45641 0
M  V30 11343 C 1073.26 -1.89088 0.0649574 0
M  V30 11344 O 1072.6 -1.58436 -0.929712 0
M  V30 11345 C 1072.67 -2.74882 2.3169 0
M  V30 11346 C 1072.33 -2.5443 3.79624 0
M  V30 11347 C 1073.33 -2.19307 4.71382 0
M  V30 11348 C 1071.01 -2.69557 4.23845 0
M  V30 11349 C 1073.01 -1.99571 6.05351 0
M  V30 11350 C 1070.69 -2.49437 5.57875 0
M  V30 11351 C 1071.69 -2.14497 6.48444 0
M  V30 11352 O 1071.38 -1.94567 7.79999 0
M  V30 11353 H 1071.11 -0.457542 0.497626 0
M  V30 11354 H 1073.66 -0.842145 1.87342 0
M  V30 11355 H 1071.89 -3.39669 1.8483 0
M  V30 11356 H 1073.58 -3.3675 2.26615 0
M  V30 11357 H 1074.35 -2.0722 4.38503 0
M  V30 11358 H 1070.23 -2.95733 3.53642 0
M  V30 11359 H 1073.77 -1.72222 6.76007 0
M  V30 11360 H 1069.67 -2.61119 5.90328 0
M  V30 11361 H 1070.44 -2.092 7.91314 0
M  V30 11362 N 1073.1 -1.28322 -0.914942 0
M  V30 11363 C 1074.51 -1.13937 -1.47903 0
M  V30 11364 C 1074.86 0.271072 -1.94318 0
M  V30 11365 O 1073.99 1.16522 -1.8235 0
M  V30 11366 C 1074.58 -2.06221 -2.68809 0
M  V30 11367 C 1073.14 -1.95903 -3.21402 0
M  V30 11368 C 1072.29 -1.98031 -1.94111 0
M  V30 11369 H 1075.24 -1.41029 -0.727772 0
M  V30 11370 H 1075.26 -1.6255 -3.44031 0
M  V30 11371 H 1074.77 -3.08866 -2.34997 0
M  V30 11372 H 1072.87 -0.962907 -3.59943 0
M  V30 11373 H 1072.99 -2.82799 -3.86732 0
M  V30 11374 H 1071.35 -1.42423 -2.11158 0
M  V30 11375 H 1072.13 -3.02354 -1.62595 0
M  V30 11376 N 1074.58 1.12322 -1.10551 0
M  V30 11377 C 1075.51 2.17819 -0.713263 0
M  V30 11378 C 1076.52 1.6086 0.250604 0
M  V30 11379 O 1077.71 1.78466 0.0348909 0
M  V30 11380 C 1074.81 3.38885 -0.0320325 0
M  V30 11381 C 1073.99 4.25332 -1.02038 0
M  V30 11382 C 1073.04 5.24895 -0.370412 0
M  V30 11383 O 1072.07 5.59958 -1.02157 0
M  V30 11384 N 1073.27 5.73934 0.870633 0
M  V30 11385 H 1076.04 2.52083 -1.62094 0
M  V30 11386 H 1073.6 1.27755 -0.994492 0
M  V30 11387 H 1075.59 4.02574 0.414285 0
M  V30 11388 H 1074.16 3.02762 0.778072 0
M  V30 11389 H 1073.38 3.5824 -1.64492 0
M  V30 11390 H 1074.67 4.79936 -1.68936 0
M  V30 11391 H 1074.07 5.47614 1.419 0
M  V30 11392 H 1072.62 6.39504 1.26008 0
M  V30 11393 N 1076.06 0.894434 1.2976 0
M  V30 11394 C 1076.99 0.3847 2.30309 0
M  V30 11395 C 1077.97 -0.537486 1.61385 0
M  V30 11396 O 1079.15 -0.449332 1.8893 0
M  V30 11397 C 1076.28 -0.393311 3.45066 0
M  V30 11398 C 1075.24 0.437968 4.25753 0
M  V30 11399 C 1074.56 -0.467221 5.32655 0
M  V30 11400 C 1075.86 1.6851 4.9437 0
M  V30 11401 H 1077.56 1.22496 2.73194 0
M  V30 11402 H 1075.1 0.590471 1.31337 0
M  V30 11403 H 1077.06 -0.760614 4.14479 0
M  V30 11404 H 1075.78 -1.2673 3.0101 0
M  V30 11405 H 1074.44 0.787533 3.58041 0
M  V30 11406 H 1074.09 -1.33919 4.84845 0
M  V30 11407 H 1073.79 0.0852482 5.87538 0
M  V30 11408 H 1075.31 -0.830833 6.04921 0
M  V30 11409 H 1076.72 1.38784 5.56248 0
M  V30 11410 H 1075.12 2.17849 5.59162 0
M  V30 11411 H 1076.19 2.42412 4.19958 0
M  V30 11412 N 1077.53 -1.43282 0.656365 0
M  V30 11413 C 1078.76 -2.06125 0.178879 0
M  V30 11414 C 1079.18 -1.49216 -1.15672 0
M  V30 11415 O 1078.53 -0.624693 -1.71475 0
M  V30 11416 C 1078.59 -3.614 0.0851785 0
M  V30 11417 O 1078.31 -4.16194 1.36798 0
M  V30 11418 C 1079.81 -4.41325 -0.41801 0
M  V30 11419 H 1077.03 -0.664753 0.0913504 0
M  V30 11420 H 1079.57 -1.83733 0.897901 0
M  V30 11421 H 1077.73 -3.82966 -0.584421 0
M  V30 11422 H 1078.14 -5.09892 1.22924 0
M  V30 11423 H 1079.61 -5.50303 -0.432519 0
M  V30 11424 H 1080.09 -4.14577 -1.44991 0
M  V30 11425 H 1080.7 -4.24735 0.219208 0
M  V30 11426 N 1079.01 -0.398486 -1.52479 0
M  V30 11427 C 1080.26 0.182046 -2.00877 0
M  V30 11428 C 1080.58 1.47128 -1.2889 0
M  V30 11429 O 1081.78 2.13242 -1.68048 0
M  V30 11430 C 1080.24 0.374978 -3.57941 0
M  V30 11431 C 1079.85 -0.901544 -4.38835 0
M  V30 11432 C 1081.59 0.911378 -4.14601 0
M  V30 11433 C 1079.5 -0.676385 -5.87519 0
M  V30 11434 H 1078.43 0.0718068 -0.750573 0
M  V30 11435 H 1081.08 -0.522297 -1.7591 0
M  V30 11436 H 1079.46 1.14139 -3.79194 0
M  V30 11437 H 1080.63 -1.67329 -4.29346 0
M  V30 11438 H 1078.95 -1.36357 -3.93441 0
M  V30 11439 H 1081.55 1.09569 -5.23353 0
M  V30 11440 H 1081.89 1.88306 -3.71277 0
M  V30 11441 H 1082.42 0.204296 -3.97275 0
M  V30 11442 H 1079.16 -1.61933 -6.35184 0
M  V30 11443 H 1078.68 0.0562542 -5.99774 0
M  V30 11444 H 1080.36 -0.314454 -6.46235 0
M  V30 11445 N 1080.49 1.57075 -0.12858 0
M  V30 11446 C 1081.91 1.57964 0.227961 0
M  V30 11447 C 1082.11 1.14186 1.66023 0
M  V30 11448 O 1081.16 0.833655 2.38341 0
M  V30 11449 C 1082.48 3.00697 -0.0140648 0
M  V30 11450 C 1084.02 3.12958 0.0510876 0
M  V30 11451 C 1084.5 4.57709 -0.163368 0
M  V30 11452 N 1085.99 4.6307 -0.109663 0
M  V30 11453 C 1086.73 5.72853 -0.250366 0
M  V30 11454 N 1086.22 6.91351 -0.447772 0
M  V30 11455 N 1088.01 5.61781 -0.189265 0
M  V30 11456 H 1080.17 1.83829 -1.06398 0
M  V30 11457 H 1082.43 0.850014 -0.419739 0
M  V30 11458 H 1082.13 3.37047 -1.00461 0
M  V30 11459 H 1082.01 3.70389 0.713571 0
M  V30 11460 H 1084.4 2.7646 1.03216 0
M  V30 11461 H 1084.48 2.4579 -0.708583 0
M  V30 11462 H 1084.12 4.94907 -1.14146 0
M  V30 11463 H 1084.05 5.2298 0.616405 0
M  V30 11464 H 1086.54 3.7788 0.0390086 0
M  V30 11465 H 1086.85 7.70871 -0.54574 0
M  V30 11466 H 1085.2 6.93314 -0.483866 0
M  V30 11467 H 1088.39 4.68086 -0.0359374 0
M  V30 11468 H 1088.56 6.47294 -0.302359 0
M  V30 11469 N 1081.97 -0.145205 1.5693 0
M  V30 11470 C 1083.22 -0.858786 1.83719 0
M  V30 11471 C 1083.55 -1.80738 0.710452 0
M  V30 11472 O 1082.82 -1.92389 -0.285791 0
M  V30 11473 C 1083.11 -1.6317 3.2101 0
M  V30 11474 C 1082.96 -0.704472 4.44249 0
M  V30 11475 C 1084.28 -2.59377 3.55544 0
M  V30 11476 H 1081.4 -0.310757 0.66828 0
M  V30 11477 H 1084.04 -0.123918 1.89595 0
M  V30 11478 H 1082.19 -2.25816 3.16132 0
M  V30 11479 H 1083.86 -0.08887 4.61214 0
M  V30 11480 H 1082.1 -0.0141693 4.33798 0
M  V30 11481 H 1082.78 -1.28135 5.36922 0
M  V30 11482 H 1085.25 -2.06848 3.61044 0
M  V30 11483 H 1084.13 -3.10506 4.52634 0
M  V30 11484 H 1084.39 -3.40819 2.81594 0
M  V30 11485 N 1083.45 -1.52049 -0.414609 0
M  V30 11486 C 1084.67 -1.6997 -1.18848 0
M  V30 11487 C 1085.1 -0.406058 -1.83665 0
M  V30 11488 O 1084.46 0.635981 -1.69779 0
M  V30 11489 C 1084.5 -2.8327 -2.23138 0
M  V30 11490 O 1083.61 -2.48457 -3.29155 0
M  V30 11491 H 1082.95 -0.566003 -0.347183 0
M  V30 11492 H 1085.48 -1.98726 -0.486757 0
M  V30 11493 H 1085.49 -3.08022 -2.67557 0
M  V30 11494 H 1084.16 -3.7713 -1.75344 0
M  V30 11495 H 1082.74 -2.34357 -2.90054 0
M  V30 11496 N 1084.93 0.6715 -1.42579 0
M  V30 11497 C 1086.17 1.42871 -1.42941 0
M  V30 11498 C 1086.49 1.94941 -0.0480483 0
M  V30 11499 O 1085.76 1.73275 0.913921 0
M  V30 11500 H 1084.34 0.530189 -0.526221 0
M  V30 11501 H 1087.01 0.793219 -1.78028 0
M  V30 11502 H 1086.1 2.2801 -2.13114 0
M  V30 11503 N 1086.4 1.28806 0.908124 0
M  V30 11504 C 1087.63 1.1898 1.689 0
M  V30 11505 C 1088.04 -0.253334 1.87496 0
M  V30 11506 O 1087.38 -1.18245 1.40584 0
M  V30 11507 C 1087.45 1.82266 3.0987 0
M  V30 11508 C 1087.11 3.31534 3.14538 0
M  V30 11509 C 1088.11 4.27886 2.95313 0
M  V30 11510 C 1085.79 3.72589 3.36872 0
M  V30 11511 C 1087.79 5.63267 2.98343 0
M  V30 11512 C 1085.47 5.08095 3.39534 0
M  V30 11513 C 1086.47 6.03244 3.2029 0
M  V30 11514 O 1086.16 7.36277 3.22724 0
M  V30 11515 H 1085.89 0.413772 0.534574 0
M  V30 11516 H 1088.45 1.7055 1.14464 0
M  V30 11517 H 1086.68 1.25197 3.65872 0
M  V30 11518 H 1088.36 1.6688 3.70008 0
M  V30 11519 H 1089.13 3.97502 2.77879 0
M  V30 11520 H 1085.01 2.98989 3.50894 0
M  V30 11521 H 1088.55 6.37511 2.83241 0
M  V30 11522 H 1084.45 5.38126 3.56497 0
M  V30 11523 H 1085.22 7.44976 3.39048 0
M  V30 11524 N 1087.88 -1.11734 1.11145 0
M  V30 11525 C 1088.84 -2.15868 0.770303 0
M  V30 11526 C 1089.84 -1.59438 -0.208842 0
M  V30 11527 O 1091.03 -1.74193 0.0152516 0
M  V30 11528 C 1088.17 -3.40603 0.142303 0
M  V30 11529 H 1089.36 -2.4756 1.69276 0
M  V30 11530 H 1086.91 -1.26867 0.912929 0
M  V30 11531 H 1087.65 -3.14517 -0.790526 0
M  V30 11532 H 1087.43 -3.8284 0.847087 0
M  V30 11533 H 1088.92 -4.17523 -0.0803608 0
M  V30 11534 N 1089.36 -0.901303 -1.29284 0
M  V30 11535 C 1090.61 -0.528826 -1.95784 0
M  V30 11536 C 1090.94 0.922833 -1.70873 0
M  V30 11537 O 1090.21 1.65448 -1.0226 0
M  V30 11538 C 1090.5 -0.823793 -3.50551 0
M  V30 11539 C 1090.35 -2.32727 -3.84913 0
M  V30 11540 C 1091.67 -0.311382 -4.38997 0
M  V30 11541 H 1088.79 -0.193604 -0.711116 0
M  V30 11542 H 1091.43 -1.12828 -1.52872 0
M  V30 11543 H 1089.58 -0.313612 -3.87232 0
M  V30 11544 H 1091.25 -2.90712 -3.58168 0
M  V30 11545 H 1089.49 -2.78735 -3.32399 0
M  V30 11546 H 1090.17 -2.48423 -4.9294 0
M  V30 11547 H 1092.64 -0.748265 -4.09317 0
M  V30 11548 H 1091.52 -0.546957 -5.46168 0
M  V30 11549 H 1091.78 0.787959 -4.35021 0
M  V30 11550 N 1090.84 1.42931 -0.663954 0
M  V30 11551 C 1092.25 1.56098 -0.332496 0
M  V30 11552 C 1092.45 1.64564 1.16279 0
M  V30 11553 O 1091.51 1.6066 1.94794 0
M  V30 11554 C 1092.82 2.81649 -1.05329 0
M  V30 11555 C 1094.37 2.95408 -1.03457 0
M  V30 11556 C 1094.85 4.23805 -1.73647 0
M  V30 11557 N 1096.34 4.30693 -1.70462 0
M  V30 11558 C 1097.07 5.28833 -2.21637 0
M  V30 11559 N 1096.57 6.33189 -2.81147 0
M  V30 11560 N 1098.36 5.20558 -2.12075 0
M  V30 11561 H 1090.51 1.3568 -1.63416 0
M  V30 11562 H 1092.77 0.652361 -0.687844 0
M  V30 11563 H 1092.48 2.81494 -2.10842 0
M  V30 11564 H 1092.35 3.72208 -0.611626 0
M  V30 11565 H 1094.74 2.95097 0.0121936 0
M  V30 11566 H 1094.82 2.06109 -1.51502 0
M  V30 11567 H 1094.47 4.24876 -2.78285 0
M  V30 11568 H 1094.4 5.12019 -1.2306 0
M  V30 11569 H 1096.89 3.55904 -1.27046 0
M  V30 11570 H 1097.2 7.04411 -3.17844 0
M  V30 11571 H 1095.55 6.33781 -2.85212 0
M  V30 11572 H 1098.74 4.3795 -1.6528 0
M  V30 11573 H 1098.91 5.96881 -2.52264 0
M  V30 11574 N 1092.32 0.406567 1.52266 0
M  V30 11575 C 1093.56 -0.170053 2.01785 0
M  V30 11576 C 1093.89 -1.45361 1.2923 0
M  V30 11577 O 1093.15 -1.91849 0.386342 0
M  V30 11578 C 1093.44 -0.467124 3.54334 0
M  V30 11579 C 1093.11 0.72693 4.45002 0
M  V30 11580 C 1091.77 1.05446 4.69505 0
M  V30 11581 C 1094.12 1.52493 4.98393 0
M  V30 11582 C 1091.45 2.18123 5.44646 0
M  V30 11583 C 1093.8 2.64244 5.74768 0
M  V30 11584 C 1092.47 2.97486 5.97544 0
M  V30 11585 H 1091.74 -0.0622267 0.738383 0
M  V30 11586 H 1094.39 0.54746 1.83508 0
M  V30 11587 H 1092.69 -1.26617 3.70777 0
M  V30 11588 H 1094.39 -0.926194 3.90157 0
M  V30 11589 H 1090.98 0.461666 4.26106 0
M  V30 11590 H 1095.16 1.28512 4.79373 0
M  V30 11591 H 1090.42 2.44228 5.60502 0
M  V30 11592 H 1094.59 3.26468 6.15136 0
M  V30 11593 H 1092.22 3.84913 6.5555 0
M  V30 11594 N 1093.79 -1.57004 0.136909 0
M  V30 11595 C 1094.74 -2.17524 -0.823784 0
M  V30 11596 C 1095.74 -1.1294 -1.26258 0
M  V30 11597 O 1096.94 -1.3121 -1.23223 0
M  V30 11598 H 1093.32 -0.696381 -0.283827 0
M  V30 11599 H 1095.29 -2.96997 -0.289052 0
M  V30 11600 C 1094.04 -2.80331 -2.05693 0
M  V30 11601 H 1093.36 -3.60515 -1.72825 0
M  V30 11602 H 1094.8 -3.26192 -2.70878 0
M  V30 11603 C 1093.26 -1.78322 -2.85837 0
M  V30 11604 O 1093.79 -1.2475 -3.81838 0
M  V30 11605 N 1092 -1.47854 -2.50175 0
M  V30 11606 H 1091.54 -1.9161 -1.72173 0
M  V30 11607 H 1091.5 -0.798464 -3.04092 0
M  V30 11608 N 1095.27 0.136881 -1.57004 0
M  V30 11609 C 1096.5 0.866405 -1.88436 0
M  V30 11610 C 1096.92 1.73483 -0.727006 0
M  V30 11611 O 1096.28 1.78398 0.323094 0
M  V30 11612 C 1096.33 1.69059 -3.18514 0
M  V30 11613 O 1095.43 2.79584 -3.03161 0
M  V30 11614 H 1094.77 0.240709 -0.618834 0
M  V30 11615 H 1097.3 0.124653 -2.0422 0
M  V30 11616 H 1097.31 2.08353 -3.50789 0
M  V30 11617 H 1095.99 1.05296 -4.0235 0
M  V30 11618 H 1094.57 2.43623 -2.82315 0
M  V30 11619 N 1096.75 1.52266 0.40654 0
M  V30 11620 C 1097.68 1.78755 1.50229 0
M  V30 11621 C 1098.66 0.638652 1.57655 0
M  V30 11622 O 1099.85 0.884505 1.72888 0
M  V30 11623 C 1096.98 1.94057 2.88026 0
M  V30 11624 C 1095.93 3.09667 2.95449 0
M  V30 11625 C 1095.26 3.10196 4.35526 0
M  V30 11626 C 1096.56 4.49077 2.66697 0
M  V30 11627 H 1098.25 2.70511 1.28313 0
M  V30 11628 H 1095.8 1.30167 0.615836 0
M  V30 11629 H 1097.75 2.11171 3.64671 0
M  V30 11630 H 1096.47 0.989755 3.11242 0
M  V30 11631 H 1095.13 2.92308 2.2125 0
M  V30 11632 H 1094.78 2.12831 4.55754 0
M  V30 11633 H 1094.48 3.87847 4.41416 0
M  V30 11634 H 1096 3.29443 5.14101 0
M  V30 11635 H 1097.42 4.66628 3.33064 0
M  V30 11636 H 1095.82 5.28665 2.8396 0
M  V30 11637 H 1096.89 4.56995 1.62122 0
M  V30 11638 N 1098.23 -0.663929 1.42933 0
M  V30 11639 C 1099.46 -1.45192 1.474 0
M  V30 11640 C 1099.87 -1.88592 0.0886014 0
M  V30 11641 O 1099.23 -1.58824 -0.898962 0
M  V30 11642 C 1099.28 -2.69394 2.41059 0
M  V30 11643 O 1099 -2.27812 3.7421 0
M  V30 11644 C 1100.5 -3.62855 2.54659 0
M  V30 11645 H 1097.72 -0.446394 0.500973 0
M  V30 11646 H 1100.27 -0.814875 1.87563 0
M  V30 11647 H 1098.42 -3.29262 2.0412 0
M  V30 11648 H 1098.83 -3.08095 4.24474 0
M  V30 11649 H 1100.31 -4.46698 3.24291 0
M  V30 11650 H 1100.79 -4.09487 1.58799 0
M  V30 11651 H 1101.39 -3.08874 2.92364 0
M  V30 11652 N 1099.71 -1.29285 -0.901281 0
M  V30 11653 C 1100.65 -1.1428 -2.00521 0
M  V30 11654 C 1101.62 -0.0365428 -1.6606 0
M  V30 11655 O 1102.81 -0.203771 -1.89709 0
M  V30 11656 C 1099.95 -0.823671 -3.35126 0
M  V30 11657 C 1099.06 -2.01021 -3.8238 0
M  V30 11658 C 1098.2 -1.6306 -5.05554 0
M  V30 11659 C 1097.24 -2.78304 -5.45173 0
M  V30 11660 N 1096.37 -2.4075 -6.59533 0
M  V30 11661 H 1101.21 -2.08729 -2.12688 0
M  V30 11662 H 1098.75 -1.0387 -1.04161 0
M  V30 11663 H 1100.71 -0.61934 -4.12577 0
M  V30 11664 H 1099.34 0.0839113 -3.22691 0
M  V30 11665 H 1098.39 -2.32629 -3.00978 0
M  V30 11666 H 1099.7 -2.8738 -4.07694 0
M  V30 11667 H 1098.86 -1.38906 -5.90584 0
M  V30 11668 H 1097.59 -0.738464 -4.82077 0
M  V30 11669 H 1096.6 -3.03142 -4.58678 0
M  V30 11670 H 1097.82 -3.68179 -5.70632 0
M  V30 11671 H 1095.77 -1.54022 -6.37662 0
M  V30 11672 H 1095.69 -3.20643 -6.84634 0
M  V30 11673 H 1096.96 -2.19912 -7.47836 0
M  V30 11674 N 1101.18 1.11143 -1.11736 0
M  V30 11675 C 1102.09 2.20851 -0.791331 0
M  V30 11676 C 1103.11 1.72644 0.216833 0
M  V30 11677 O 1104.29 2.01332 0.0522401 0
M  V30 11678 C 1101.35 3.4585 -0.242694 0
M  V30 11679 C 1100.41 4.08829 -1.30986 0
M  V30 11680 C 1099.65 5.27861 -0.787305 0
M  V30 11681 O 1099.87 5.69122 0.381549 0
M  V30 11682 O 1098.8 5.81506 -1.55352 0
M  V30 11683 H 1102.63 2.51158 -1.70744 0
M  V30 11684 H 1100.21 1.19739 -0.893478 0
M  V30 11685 H 1102.1 4.21359 0.0587472 0
M  V30 11686 H 1100.77 3.17187 0.646079 0
M  V30 11687 H 1099.68 3.35037 -1.66436 0
M  V30 11688 H 1101.01 4.41678 -2.17213 0
M  V30 11689 N 1102.66 0.908147 1.28804 0
M  V30 11690 C 1103.59 0.34957 2.26519 0
M  V30 11691 C 1104.61 -0.508845 1.54643 0
M  V30 11692 O 1105.8 -0.324633 1.75523 0
M  V30 11693 C 1102.9 -0.519461 3.34895 0
M  V30 11694 C 1102.07 0.315157 4.36263 0
M  V30 11695 C 1101.13 -0.488059 5.23932 0
M  V30 11696 O 1100.15 0.0974133 5.69117 0
M  V30 11697 N 1101.36 -1.79233 5.52137 0
M  V30 11698 H 1104.12 1.18945 2.75086 0
M  V30 11699 H 1101.68 0.77351 1.42227 0
M  V30 11700 H 1103.67 -1.0634 3.90479 0
M  V30 11701 H 1102.24 -1.26004 2.8608 0
M  V30 11702 H 1101.46 1.04049 3.8022 0
M  V30 11703 H 1102.75 0.886438 5.01019 0
M  V30 11704 H 1102.15 -2.2906 5.1725 0
M  V30 11705 H 1100.71 -2.28322 6.10502 0
M  V30 11706 N 1104.14 -1.42577 0.671525 0
M  V30 11707 C 1105.07 -2.2915 -0.0477361 0
M  V30 11708 C 1106.09 -1.43503 -0.768805 0
M  V30 11709 O 1107.27 -1.67256 -0.623509 0
M  V30 11710 C 1104.37 -3.20851 -1.09122 0
M  V30 11711 C 1103.55 -4.35134 -0.44463 0
M  V30 11712 C 1102.61 -5.07579 -1.38745 0
M  V30 11713 O 1101.63 -5.62215 -0.889015 0
M  V30 11714 N 1102.83 -5.12786 -2.72086 0
M  V30 11715 H 1105.6 -2.9152 0.695415 0
M  V30 11716 H 1103.16 -1.53467 0.515689 0
M  V30 11717 H 1105.15 -3.66183 -1.72315 0
M  V30 11718 H 1103.72 -2.59956 -1.73614 0
M  V30 11719 H 1102.94 -3.9249 0.36675 0
M  V30 11720 H 1104.23 -5.088 0.00595927 0
M  V30 11721 H 1103.63 -4.69802 -3.15123 0
M  V30 11722 H 1102.19 -5.61774 -3.30535 0
M  V30 11723 N 1105.62 -0.414636 -1.52048 0
M  V30 11724 C 1106.55 0.443601 -2.24866 0
M  V30 11725 C 1107.56 1.00556 -1.28032 0
M  V30 11726 O 1108.75 0.903566 -1.53941 0
M  V30 11727 C 1105.85 1.63004 -2.97124 0
M  V30 11728 C 1105.03 1.191 -4.20873 0
M  V30 11729 C 1104.08 2.24497 -4.75907 0
M  V30 11730 O 1103.11 1.84861 -5.38345 0
M  V30 11731 N 1104.31 3.56727 -4.57959 0
M  V30 11732 H 1107.08 -0.180393 -2.99157 0
M  V30 11733 H 1104.64 -0.242305 -1.60077 0
M  V30 11734 H 1106.63 2.33089 -3.30835 0
M  V30 11735 H 1105.2 2.15984 -2.25986 0
M  V30 11736 H 1104.42 0.318059 -3.92915 0
M  V30 11737 H 1105.71 0.874699 -5.01225 0
M  V30 11738 H 1105.11 3.91675 -4.08175 0
M  V30 11739 H 1103.66 4.22772 -4.96092 0
M  V30 11740 N 1107.1 1.56929 -0.145233 0
M  V30 11741 C 1108.37 1.8767 0.551288 0
M  V30 11742 C 1108.75 1.05089 1.83083 0
M  V30 11743 O 1108.1 0.137201 2.28088 0
M  V30 11744 C 1108.31 3.39268 0.818445 0
M  V30 11745 C 1109.66 4.08447 1.16 0
M  V30 11746 O 1110.68 3.44436 0.907857 0
M  V30 11747 O 1109.54 5.21488 1.63441 0
M  V30 11748 H 1106.64 0.777788 0.281024 0
M  V30 11749 H 1109.18 1.68724 -0.181712 0
M  V30 11750 H 1107.95 3.91203 -0.0871897 0
M  V30 11751 H 1107.58 3.63735 1.60569 0
M  V30 11752 N 1108.58 -0.128553 1.57075 0
M  V30 11753 C 1109.82 -0.839252 1.8462 0
M  V30 11754 C 1110.15 -1.79974 0.729582 0
M  V30 11755 O 1109.43 -1.92681 -0.265369 0
M  V30 11756 C 1109.71 -1.59756 3.22723 0
M  V30 11757 C 1109.57 -0.657313 4.44971 0
M  V30 11758 C 1110.88 -2.55592 3.58275 0
M  V30 11759 H 1108 -0.303652 0.671539 0
M  V30 11760 H 1110.65 -0.103802 1.89716 0
M  V30 11761 H 1108.8 -2.22451 3.18509 0
M  V30 11762 H 1110.47 -0.0399471 4.61283 0
M  V30 11763 H 1108.71 0.0318416 4.33788 0
M  V30 11764 H 1109.38 -1.22433 5.38251 0
M  V30 11765 H 1111.86 -2.03007 3.63218 0
M  V30 11766 H 1110.73 -3.05687 4.55902 0
M  V30 11767 H 1110.99 -3.37813 2.85193 0
M  V30 11768 N 1110.05 -1.5248 -0.398459 0
M  V30 11769 C 1111.3 -1.66287 -1.14155 0
M  V30 11770 C 1111.62 -0.40429 -1.91376 0
M  V30 11771 O 1112.82 -0.422341 -2.68195 0
M  V30 11772 C 1111.28 -2.93831 -2.07825 0
M  V30 11773 C 1110.89 -4.26836 -1.3607 0
M  V30 11774 C 1112.63 -3.17004 -2.82327 0
M  V30 11775 C 1110.54 -5.45495 -2.28451 0
M  V30 11776 H 1109.47 -0.619478 -0.42984 0
M  V30 11777 H 1112.12 -1.78972 -0.405112 0
M  V30 11778 H 1110.5 -2.7487 -2.85065 0
M  V30 11779 H 1111.67 -4.56317 -0.641205 0
M  V30 11780 H 1109.99 -4.0985 -0.735659 0
M  V30 11781 H 1112.59 -4.02834 -3.51609 0
M  V30 11782 H 1112.93 -2.3168 -3.45876 0
M  V30 11783 H 1113.46 -3.36487 -2.12183 0
M  V30 11784 H 1110.2 -6.33198 -1.69532 0
M  V30 11785 H 1109.72 -5.20338 -2.98343 0
M  V30 11786 H 1111.4 -5.78996 -2.88743 0
M  V30 11787 N 1111.53 0.65634 -1.43283 0
M  V30 11788 C 1112.76 1.44408 -1.48168 0
M  V30 11789 C 1113.17 1.88542 -0.0986016 0
M  V30 11790 O 1112.53 1.59298 0.890527 0
M  V30 11791 C 1112.58 2.68111 -2.42484 0
M  V30 11792 O 1112.3 2.25824 -3.75413 0
M  V30 11793 C 1113.8 3.61499 -2.56579 0
M  V30 11794 H 1111.02 0.443731 -0.503333 0
M  V30 11795 H 1113.57 0.804917 -1.87993 0
M  V30 11796 H 1111.72 3.28175 -2.05863 0
M  V30 11797 H 1112.14 3.05839 -4.26102 0
M  V30 11798 H 1113.61 4.44972 -3.26655 0
M  V30 11799 H 1114.09 4.08639 -1.60969 0
M  V30 11800 H 1114.69 3.07319 -2.93998 0
M  V30 11801 N 1113.01 1.29761 0.894412 0
M  V30 11802 C 1114.43 1.07888 1.17611 0
M  V30 11803 C 1114.63 -0.16644 2.00811 0
M  V30 11804 O 1113.68 -0.86272 2.37304 0
M  V30 11805 C 1114.99 2.33723 1.89193 0
M  V30 11806 C 1116.54 2.39095 2.01997 0
M  V30 11807 C 1117.02 3.64747 2.7699 0
M  V30 11808 N 1118.51 3.65501 2.84541 0
M  V30 11809 C 1119.24 4.59411 3.43117 0
M  V30 11810 N 1118.74 5.63657 4.02818 0
M  V30 11811 N 1120.53 4.46971 3.40842 0
M  V30 11812 H 1112.68 2.0967 0.339421 0
M  V30 11813 H 1114.95 0.923788 0.212882 0
M  V30 11814 H 1114.65 3.24551 1.35496 0
M  V30 11815 H 1114.53 2.41642 2.89636 0
M  V30 11816 H 1116.91 1.48751 2.54867 0
M  V30 11817 H 1116.99 2.35158 1.0067 0
M  V30 11818 H 1116.64 4.55445 2.24794 0
M  V30 11819 H 1116.57 3.65944 3.78672 0
M  V30 11820 H 1119.06 2.90129 2.42144 0
M  V30 11821 H 1119.37 6.31429 4.45552 0
M  V30 11822 H 1117.72 5.67461 4.01265 0
M  V30 11823 H 1120.91 3.64719 2.93424 0
M  V30 11824 H 1121.08 5.20341 3.86198 0
M  V30 11825 N 1114.49 -1.10549 1.12324 0
M  V30 11826 C 1115.72 -1.8627 0.900618 0
M  V30 11827 C 1116.13 -1.80609 -0.550069 0
M  V30 11828 O 1115.49 -1.19396 -1.38025 0
M  V30 11829 C 1115.54 -3.34716 1.36556 0
M  V30 11830 O 1115.26 -3.40279 2.75938 0
M  V30 11831 C 1116.76 -4.27315 1.17969 0
M  V30 11832 H 1113.98 -0.588741 0.321908 0
M  V30 11833 H 1116.52 -1.39759 1.49291 0
M  V30 11834 H 1114.68 -3.78697 0.81652 0
M  V30 11835 H 1115.09 -4.32781 2.96312 0
M  V30 11836 H 1116.57 -5.29677 1.55391 0
M  V30 11837 H 1117.04 -4.39036 0.120158 0
M  V30 11838 H 1117.65 -3.89137 1.71617 0
M  V30 11839 N 1115.97 -0.914965 -1.28321 0
M  V30 11840 C 1117.21 -0.548749 -1.94923 0
M  V30 11841 C 1117.54 0.907776 -1.72016 0
M  V30 11842 O 1116.8 1.66097 -1.03491 0
M  V30 11843 C 1117.09 -0.805805 -3.48198 0
M  V30 11844 C 1116.76 -2.24207 -3.91206 0
M  V30 11845 C 1115.42 -2.63475 -4.02659 0
M  V30 11846 C 1117.77 -3.17667 -4.13204 0
M  V30 11847 C 1115.1 -3.95353 -4.3349 0
M  V30 11848 C 1117.45 -4.4911 -4.45514 0
M  V30 11849 C 1116.12 -4.8823 -4.55179 0
M  V30 11850 H 1115.39 -0.200801 -0.713274 0
M  V30 11851 H 1118.04 -1.15652 -1.52633 0
M  V30 11852 H 1116.34 -0.115244 -3.9163 0
M  V30 11853 H 1118.04 -0.501609 -3.9785 0
M  V30 11854 H 1114.63 -1.92737 -3.82819 0
M  V30 11855 H 1118.81 -2.88537 -4.03807 0
M  V30 11856 H 1114.07 -4.25362 -4.39178 0
M  V30 11857 H 1118.24 -5.21542 -4.61483 0
M  V30 11858 H 1115.87 -5.90451 -4.78823 0
M  V30 11859 N 1117.44 1.42219 -0.679077 0
M  V30 11860 C 1118.67 2.05815 -0.211649 0
M  V30 11861 C 1119.09 1.51037 1.13284 0
M  V30 11862 O 1118.44 0.651894 1.7046 0
M  V30 11863 C 1118.49 3.61218 -0.142663 0
M  V30 11864 O 1118.22 4.13965 -1.43402 0
M  V30 11865 C 1119.72 4.41934 0.347746 0
M  V30 11866 H 1116.94 0.663215 -0.101914 0
M  V30 11867 H 1119.48 1.82282 -0.927017 0
M  V30 11868 H 1117.64 3.83848 0.52342 0
M  V30 11869 H 1118.05 5.07872 -1.31021 0
M  V30 11870 H 1119.52 5.50921 0.344916 0
M  V30 11871 H 1120 4.16832 1.38377 0
M  V30 11872 H 1120.61 4.24332 -0.286751 0
M  V30 11873 N 1118.92 0.422693 1.51826 0
M  V30 11874 C 1119.85 -0.43167 2.25098 0
M  V30 11875 C 1120.87 -0.998758 1.28564 0
M  V30 11876 O 1122.06 -0.89539 1.54418 0
M  V30 11877 C 1119.16 -1.61426 2.97985 0
M  V30 11878 C 1118.33 -1.16866 4.21499 0
M  V30 11879 C 1117.39 -2.2197 4.77091 0
M  V30 11880 O 1116.41 -1.82004 5.39317 0
M  V30 11881 N 1117.62 -3.54293 4.59844 0
M  V30 11882 H 1120.38 0.196255 2.99057 0
M  V30 11883 H 1117.94 0.25079 1.59946 0
M  V30 11884 H 1119.93 -2.31331 3.32066 0
M  V30 11885 H 1118.5 -2.14783 2.27128 0
M  V30 11886 H 1117.72 -0.297217 3.93078 0
M  V30 11887 H 1119.01 -0.848106 5.01682 0
M  V30 11888 H 1118.41 -3.89505 4.10247 0
M  V30 11889 H 1116.97 -4.20135 4.98327 0
M  V30 11890 N 1120.4 -1.5685 0.153553 0
M  V30 11891 C 1121.62 -2.01135 -0.505904 0
M  V30 11892 C 1122.05 -1.03301 -1.57196 0
M  V30 11893 O 1121.41 -0.00976022 -1.81297 0
M  V30 11894 C 1121.46 -3.44129 -1.0774 0
M  V30 11895 O 1120.56 -3.49318 -2.19205 0
M  V30 11896 H 1119.9 -0.652496 -0.123062 0
M  V30 11897 H 1122.43 -2.03039 0.252216 0
M  V30 11898 H 1122.44 -3.83066 -1.40444 0
M  V30 11899 H 1121.12 -4.1484 -0.296754 0
M  V30 11900 H 1119.69 -3.22227 -1.8768 0
M  V30 11901 N 1121.88 0.120221 -1.57141 0
M  V30 11902 C 1122.81 1.17787 -1.95452 0
M  V30 11903 C 1123.79 1.40174 -0.824016 0
M  V30 11904 O 1124.97 1.54348 -1.08208 0
M  V30 11905 C 1122.1 2.53193 -2.24969 0
M  V30 11906 C 1121.15 2.47241 -3.47526 0
M  V30 11907 S 1121.98 1.91325 -5.00155 0
M  V30 11908 C 1123.13 3.28406 -5.32823 0
M  V30 11909 H 1123.37 0.851152 -2.84856 0
M  V30 11910 H 1120.9 0.326929 -1.50899 0
M  V30 11911 H 1122.86 3.31104 -2.42652 0
M  V30 11912 H 1121.52 2.83043 -1.36181 0
M  V30 11913 H 1120.71 3.46981 -3.65541 0
M  V30 11914 H 1120.31 1.7745 -3.29223 0
M  V30 11915 H 1122.61 4.24613 -5.2793 0
M  V30 11916 H 1123.55 3.1522 -6.34068 0
M  V30 11917 H 1123.96 3.26779 -4.603 0
M  V30 11918 O 1123.39 1.59318 0.264567 0
M  V30 11919 H 1124.09 1.71039 0.909141 0
M  V30 END ATOM
M  V30 BEGIN BOND
M  V30 END BOND
M  V30 END CTAB
M  END
$$$$
