drugbank_target|Q70AC7 Methylmalonyl-CoA carboxyltransferase 5S subunit (DB02637; DB03801; DB04553)
 OpenBabel12092119573D

  0  0  0     0  0            999 V3000
M  V30 BEGIN CTAB
M  V30 COUNTS 7759 7835 0 0 0
M  V30 BEGIN ATOM
M  V30 1 H -0.908 1.98254 -0.117106 0
M  V30 2 N 0 1.576 0 0
M  V30 3 C 0.933 2.03868 1.02534 0
M  V30 4 C 1.911 0.928543 1.3348 0
M  V30 5 O 3.095 1.19667 1.45644 0
M  V30 6 C 0.222 2.43627 2.35294 0
M  V30 7 C -0.732 3.65373 2.2001 0
M  V30 8 S 0.101 5.13292 1.52614 0
M  V30 9 C 1.257 5.56322 2.86805 0
M  V30 10 H 1.49 2.90518 0.631377 0
M  V30 11 H -0.977 1.52953 0.210867 0
M  V30 12 H 0.981 2.67203 3.11629 0
M  V30 13 H -0.358 1.57376 2.7183 0
M  V30 14 H -1.165 3.90944 3.18086 0
M  V30 15 H -1.563 3.418 1.51819 0
M  V30 16 H 0.729 5.58782 3.83104 0
M  V30 17 H 1.672 6.56266 2.65933 0
M  V30 18 H 2.08 4.83886 2.90714 0
M  V30 19 N 1.4781 -0.272755 1.55222 0
M  V30 20 C 2.7031 -1.02683 1.80197 0
M  V30 21 C 3.1281 -1.79142 0.573551 0
M  V30 22 O 2.4861 -1.74917 -0.476849 0
M  V30 23 C 2.5341 -1.9609 3.02624 0
M  V30 24 O 1.6381 -3.04863 2.77727 0
M  V30 25 H 0.9791 -0.293557 0.595584 0
M  V30 26 H 3.5091 -0.30159 2.02365 0
M  V30 27 H 3.5191 -2.38039 3.31363 0
M  V30 28 H 2.1941 -1.39851 3.91682 0
M  V30 29 H 0.7711 -2.67228 2.60084 0
M  V30 30 N 2.9562 -1.48159 -0.537278 0
M  V30 31 C 4.3672 -1.49429 -1.11928 0
M  V30 32 C 4.7182 -0.26 -1.9447 0
M  V30 33 O 3.8432 0.633489 -2.0692 0
M  V30 34 C 4.4382 -2.70758 -2.03656 0
M  V30 35 C 2.9972 -2.74923 -2.57088 0
M  V30 36 C 2.1442 -2.42835 -1.3389 0
M  V30 37 H 5.0952 -1.55381 -0.322886 0
M  V30 38 H 5.1162 -2.48861 -2.87834 0
M  V30 39 H 4.6282 -3.60575 -1.43553 0
M  V30 40 H 2.7292 -1.89296 -3.20933 0
M  V30 41 H 2.8422 -3.76157 -2.9672 0
M  V30 42 H 1.2062 -1.93836 -1.65226 0
M  V30 43 H 1.9892 -3.34884 -0.755504 0
M  V30 44 N 4.4343 0.785586 -1.36625 0
M  V30 45 C 5.8503 1.08419 -1.17122 0
M  V30 46 C 6.0503 2.015 0.00208491 0
M  V30 47 O 5.1063 2.43551 0.666278 0
M  V30 48 C 6.4193 1.69498 -2.48377 0
M  V30 49 C 7.9673 1.81821 -2.54775 0
M  V30 50 C 8.4423 2.46315 -3.86126 0
M  V30 51 N 9.9333 2.53779 -3.87492 0
M  V30 52 C 10.6683 3.045 -4.85868 0
M  V30 53 N 10.1643 3.55499 -5.94637 0
M  V30 54 N 11.9573 3.03247 -4.73284 0
M  V30 55 H 4.1083 0.167264 -2.1174 0
M  V30 56 H 6.3713 0.13682 -0.938075 0
M  V30 57 H 6.0773 1.08571 -3.34522 0
M  V30 58 H 5.9513 2.6896 -2.64462 0
M  V30 59 H 8.3383 2.41884 -1.69045 0
M  V30 60 H 8.4193 0.811532 -2.42586 0
M  V30 61 H 8.0633 1.86895 -4.72263 0
M  V30 62 H 7.9933 3.47561 -3.95612 0
M  V30 63 H 10.4843 2.17672 -3.08913 0
M  V30 64 H 10.7973 3.92562 -6.65669 0
M  V30 65 H 9.1423 3.5364 -5.98301 0
M  V30 66 H 12.3333 2.62696 -3.87438 0
M  V30 67 H 12.5063 3.42467 -5.50109 0
M  V30 68 N 5.9124 1.20967 1.01018 0
M  V30 69 C 6.8224 0.980157 2.13143 0
M  V30 70 C 7.8384 -0.0660665 1.73875 0
M  V30 71 O 9.0144 0.122821 2.01025 0
M  V30 72 C 6.0794 0.54216 3.42435 0
M  V30 73 C 5.1404 1.65999 3.95908 0
M  V30 74 C 4.3734 1.2428 5.19028 0
M  V30 75 O 4.5964 0.114196 5.70286 0
M  V30 76 O 3.5304 2.05271 5.65816 0
M  V30 77 H 7.3564 1.91913 2.35379 0
M  V30 78 H 4.9414 0.994099 1.11526 0
M  V30 79 H 6.8234 0.30744 4.20277 0
M  V30 80 H 5.4984 -0.36815 3.216 0
M  V30 81 H 4.4054 1.94906 3.19316 0
M  V30 82 H 5.7384 2.54753 4.21143 0
M  V30 83 N 7.3905 -1.2043 1.01659 0
M  V30 84 C 8.6395 -1.89118 0.701237 0
M  V30 85 C 8.9525 -1.79705 -0.772358 0
M  V30 86 O 10.1585 -2.43528 -1.20026 0
M  V30 87 C 8.6145 -3.39168 1.20388 0
M  V30 88 C 8.2225 -3.57166 2.70438 0
M  V30 89 C 9.9665 -4.1341 0.963953 0
M  V30 90 C 7.8735 -5.01042 3.14183 0
M  V30 91 H 6.8035 -0.708267 0.2586 0
M  V30 92 H 9.4545 -1.36239 1.22927 0
M  V30 93 H 7.8365 -3.91369 0.603824 0
M  V30 94 H 9.0105 -3.15351 3.35992 0
M  V30 95 H 7.3255 -2.96294 2.92572 0
M  V30 96 H 9.9225 -5.19491 1.26621 0
M  V30 97 H 10.2655 -4.16181 -0.099578 0
M  V30 98 H 10.7985 -3.67309 1.52738 0
M  V30 99 H 7.5375 -5.03426 4.19812 0
M  V30 100 H 7.0575 -5.43668 2.53348 0
M  V30 101 H 8.7365 -5.69623 3.0682 0
M  V30 102 N 8.8686 -0.792821 -1.36206 0
M  V30 103 C 9.7786 -0.194808 -2.3379 0
M  V30 104 C 10.7946 0.654869 -1.61206 0
M  V30 105 O 11.9706 0.569856 -1.9317 0
M  V30 106 C 9.0356 0.657721 -3.40404 0
M  V30 107 C 8.0966 -0.210849 -4.28782 0
M  V30 108 C 7.3296 0.601086 -5.30304 0
M  V30 109 O 7.5526 1.83682 -5.40016 0
M  V30 110 O 6.4866 -0.000808277 -6.019 0
M  V30 111 H 10.3126 -1.00172 -2.86704 0
M  V30 112 H 7.8976 -0.554341 -1.38735 0
M  V30 113 H 9.7796 1.14375 -4.05581 0
M  V30 114 H 8.4546 1.44247 -2.89784 0
M  V30 115 H 7.3616 -0.743714 -3.66633 0
M  V30 116 H 8.6946 -0.959195 -4.82763 0
M  V30 117 N 10.3467 1.47872 -0.545128 0
M  V30 118 C 11.5927 2.02793 -0.0166104 0
M  V30 119 C 11.9257 1.41987 1.32489 0
M  V30 120 O 11.2007 0.571045 1.85928 0
M  V30 121 C 11.4837 3.59989 0.0893294 0
M  V30 122 C 11.3367 4.3125 -1.27841 0
M  V30 123 C 12.6557 4.32606 0.808724 0
M  V30 124 H 9.7747 0.736962 -0.00751035 0
M  V30 125 H 12.4167 1.76433 -0.705085 0
M  V30 126 H 10.5667 3.82579 0.675681 0
M  V30 127 H 12.2387 4.20035 -1.90704 0
M  V30 128 H 10.4817 3.92076 -1.85632 0
M  V30 129 H 11.1527 5.39736 -1.15713 0
M  V30 130 H 13.6287 4.14936 0.310992 0
M  V30 131 H 12.5047 5.42251 0.851782 0
M  V30 132 H 12.7657 4.00963 1.86229 0
M  V30 133 N 11.8248 0.280983 1.55075 0
M  V30 134 C 13.0498 -0.340154 2.04592 0
M  V30 135 C 13.4748 -1.48246 1.15779 0
M  V30 136 O 12.8328 -1.80614 0.15761 0
M  V30 137 C 12.8808 -0.793104 3.5177 0
M  V30 138 O 11.9848 -1.89981 3.66034 0
M  V30 139 H 11.3258 -0.0694289 0.66036 0
M  V30 140 H 13.8558 0.416993 2.00306 0
M  V30 141 H 13.8658 -1.08729 3.93245 0
M  V30 142 H 12.5408 0.0426163 4.15878 0
M  V30 143 H 11.1178 -1.60771 3.36463 0
M  V30 144 N 13.3029 -1.57598 0.00835791 0
M  V30 145 C 14.2129 -2.12385 -0.996487 0
M  V30 146 C 15.2289 -1.07108 -1.37127 0
M  V30 147 O 16.4049 -1.39055 -1.4569 0
M  V30 148 C 13.4699 -2.62314 -2.26699 0
M  V30 149 C 12.5309 -3.82225 -1.95456 0
M  V30 150 C 11.7639 -4.29763 -3.16449 0
M  V30 151 O 11.9869 -3.76584 -4.28416 0
M  V30 152 O 10.9209 -5.21832 -2.99958 0
M  V30 153 H 14.7469 -2.98479 -0.560725 0
M  V30 154 H 12.3319 -1.47903 -0.210987 0
M  V30 155 H 14.2139 -2.94589 -3.01322 0
M  V30 156 H 12.8889 -1.79313 -2.69497 0
M  V30 157 H 11.7959 -3.54909 -1.18282 0
M  V30 158 H 13.1289 -4.66324 -1.57489 0
M  V30 159 N 14.781 0.264519 -1.55364 0
M  V30 160 C 16.192 0.834936 -1.6699 0
M  V30 161 C 16.543 1.86718 -0.602552 0
M  V30 162 O 15.668 2.14899 0.254425 0
M  V30 163 C 16.263 1.5212 -3.02729 0
M  V30 164 C 14.822 2.03954 -3.16354 0
M  V30 165 C 13.969 0.884498 -2.62815 0
M  V30 166 H 16.92 0.0406869 -1.58648 0
M  V30 167 H 16.941 2.38853 -2.96191 0
M  V30 168 H 16.453 0.769668 -3.80392 0
M  V30 169 H 14.554 2.82041 -2.43482 0
M  V30 170 H 14.667 2.24902 -4.23032 0
M  V30 171 H 13.031 1.2802 -2.20188 0
M  V30 172 H 13.814 0.14634 -3.42988 0
M  V30 173 N 16.2591 1.48442 0.529413 0
M  V30 174 C 17.6751 1.34575 0.858004 0
M  V30 175 C 17.8751 0.3572 1.98309 0
M  V30 176 O 16.9311 -0.221379 2.51528 0
M  V30 177 C 18.2441 2.74617 1.22499 0
M  V30 178 C 19.7921 2.83109 1.33484 0
M  V30 179 C 20.2671 4.23854 1.73526 0
M  V30 180 N 21.7581 4.2653 1.80628 0
M  V30 181 C 22.4931 5.32372 2.12997 0
M  V30 182 N 21.9891 6.48491 2.43786 0
M  V30 183 N 23.7821 5.19766 2.14008 0
M  V30 184 H 15.9331 2.1133 -0.212925 0
M  V30 185 H 18.1961 0.947439 -0.0326199 0
M  V30 186 H 17.9021 3.4852 0.471905 0
M  V30 187 H 17.7761 3.08177 2.17501 0
M  V30 188 H 20.1631 2.09462 2.0787 0
M  V30 189 H 20.2441 2.53168 0.366027 0
M  V30 190 H 19.8881 4.98018 0.997013 0
M  V30 191 H 19.8181 4.5124 2.71459 0
M  V30 192 H 22.3091 3.42772 1.59108 0
M  V30 193 H 22.6221 7.24993 2.67592 0
M  V30 194 H 20.9671 6.51765 2.41304 0
M  V30 195 H 24.1581 4.28066 1.89412 0
M  V30 196 H 24.3311 6.02354 2.38902 0
M  V30 197 N 17.7372 -0.778329 1.37039 0
M  V30 198 C 18.6472 -1.92253 1.34446 0
M  V30 199 C 19.6632 -1.72267 0.244991 0
M  V30 200 O 20.8392 -1.95615 0.479258 0
M  V30 201 C 17.9042 -3.27282 1.144 0
M  V30 202 C 16.9652 -3.59969 2.33925 0
M  V30 203 C 16.1982 -4.88555 2.14825 0
M  V30 204 O 16.4212 -5.59113 1.12912 0
M  V30 205 O 15.3552 -5.20153 3.02861 0
M  V30 206 H 19.1812 -1.97392 2.30803 0
M  V30 207 H 16.7662 -0.920154 1.17701 0
M  V30 208 H 18.6482 -4.08062 1.05182 0
M  V30 209 H 17.3232 -3.23011 0.211124 0
M  V30 210 H 16.2302 -2.7945 2.48714 0
M  V30 211 H 17.5632 -3.68976 3.25757 0
M  V30 212 N 19.2153 -1.21501 -1.00376 0
M  V30 213 C 20.4613 -1.03452 -1.74429 0
M  V30 214 C 20.7943 0.430764 -1.89362 0
M  V30 215 O 20.0693 1.31962 -1.42886 0
M  V30 216 C 20.3523 -1.73375 -3.15615 0
M  V30 217 C 20.2053 -3.27431 -3.08397 0
M  V30 218 C 21.5243 -1.47732 -4.14564 0
M  V30 219 H 18.6433 -0.377226 -0.633143 0
M  V30 220 H 21.2853 -1.49693 -1.17013 0
M  V30 221 H 19.4353 -1.34064 -3.64636 0
M  V30 222 H 21.1073 -3.76119 -2.67081 0
M  V30 223 H 19.3503 -3.5767 -2.45468 0
M  V30 224 H 20.0213 -3.71524 -4.08258 0
M  V30 225 H 22.4973 -1.8186 -3.74254 0
M  V30 226 H 21.3733 -1.99169 -5.11491 0
M  V30 227 H 21.6343 -0.407589 -4.40217 0
M  V30 228 N 20.6934 1.19889 -1.02296 0
M  V30 229 C 21.9414 1.89046 -0.714558 0
M  V30 230 C 22.2624 1.79636 0.758681 0
M  V30 231 O 21.5324 1.20292 1.54618 0
M  V30 232 H 20.1124 0.699802 -0.261317 0
M  V30 233 H 22.7744 1.45574 -1.29592 0
M  V30 234 H 21.8704 2.95524 -1.0036 0
M  V30 235 N 22.1715 0.800033 1.35784 0
M  V30 236 C 23.4205 0.37387 1.98205 0
M  V30 237 C 23.7335 -1.06302 1.64193 0
M  V30 238 O 24.9395 -1.59198 2.19928 0
M  V30 239 C 23.3955 0.617532 3.54562 0
M  V30 240 C 23.0035 2.06654 3.9749 0
M  V30 241 C 24.7475 0.256401 4.23725 0
M  V30 242 C 22.6545 2.2563 5.46667 0
M  V30 243 H 21.5845 0.136055 0.741623 0
M  V30 244 H 24.2355 0.983166 1.54939 0
M  V30 245 H 22.6175 -0.0616248 3.95952 0
M  V30 246 H 23.7915 2.78296 3.67271 0
M  V30 247 H 22.1065 2.38691 3.41197 0
M  V30 248 H 24.7035 0.376318 5.33374 0
M  V30 249 H 25.0465 -0.796692 4.08606 0
M  V30 250 H 25.5795 0.889214 3.87734 0
M  V30 251 H 22.3185 3.2936 5.66747 0
M  V30 252 H 21.8385 1.58504 5.78478 0
M  V30 253 H 23.5175 2.06861 6.1304 0
M  V30 254 N 23.6496 -1.47581 0.552962 0
M  V30 255 C 24.8776 -2.06875 0.0320556 0
M  V30 256 C 25.2926 -1.40625 -1.25976 0
M  V30 257 O 24.6496 -0.501349 -1.75479 0
M  V30 258 C 24.7006 -3.61092 -0.17167 0
M  V30 259 O 24.4216 -4.24858 1.06899 0
M  V30 260 C 25.9226 -4.37242 -0.730344 0
M  V30 261 H 23.1426 -0.669561 0.043915 0
M  V30 262 H 25.6866 -1.89646 0.765163 0
M  V30 263 H 23.8416 -3.7785 -0.854894 0
M  V30 264 H 24.2556 -5.17334 0.864059 0
M  V30 265 H 25.7296 -5.45842 -0.822203 0
M  V30 266 H 26.2066 -4.03235 -1.74064 0
M  V30 267 H 26.8126 -4.25219 -0.0829543 0
M  V30 268 N 25.1277 -0.289203 -1.54924 0
M  V30 269 C 26.0377 0.601863 -2.26748 0
M  V30 270 C 27.0537 1.15834 -1.2984 0
M  V30 271 O 28.2297 1.18564 -1.62802 0
M  V30 272 C 25.2947 1.76299 -2.98529 0
M  V30 273 C 24.3557 1.24178 -4.10948 0
M  V30 274 C 23.5887 2.34757 -4.79296 0
M  V30 275 O 23.8117 3.54411 -4.46933 0
M  V30 276 O 22.7457 2.02115 -5.66951 0
M  V30 277 H 26.5717 0.0195879 -3.03694 0
M  V30 278 H 24.1567 -0.0560868 -1.49295 0
M  V30 279 H 26.0387 2.43973 -3.43592 0
M  V30 280 H 24.7137 2.33209 -2.24488 0
M  V30 281 H 23.6207 0.531104 -3.70311 0
M  V30 282 H 24.9537 0.718252 -4.86931 0
M  V30 283 N 26.6058 1.57591 -0.0167156 0
M  V30 284 C 27.5358 2.12496 0.967858 0
M  V30 285 C 28.5168 1.03807 1.34752 0
M  V30 286 O 29.7018 1.31577 1.42833 0
M  V30 287 C 26.8318 2.64194 2.25431 0
M  V30 288 C 25.7858 3.77559 2.01576 0
M  V30 289 C 25.1118 4.15636 3.36379 0
M  V30 290 C 26.4118 5.04151 1.36489 0
M  V30 291 H 28.1058 2.95013 0.510643 0
M  V30 292 H 25.6518 1.41915 0.244181 0
M  V30 293 H 27.6048 3.01236 2.94678 0
M  V30 294 H 26.3288 1.78821 2.73296 0
M  V30 295 H 24.9878 3.40937 1.34751 0
M  V30 296 H 24.6358 3.27263 3.81979 0
M  V30 297 H 24.3358 4.92022 3.21229 0
M  V30 298 H 25.8598 4.5525 4.06915 0
M  V30 299 H 27.2738 5.38857 1.95718 0
M  V30 300 H 25.6708 5.85453 1.31776 0
M  V30 301 H 26.7408 4.83733 0.336219 0
M  V30 302 N 28.0839 -0.256276 1.55502 0
M  V30 303 C 29.3299 -0.987079 1.77157 0
M  V30 304 C 29.6629 -1.85327 0.580315 0
M  V30 305 O 28.9379 -1.89874 -0.421686 0
M  V30 306 C 29.2209 -1.85553 3.08613 0
M  V30 307 C 29.0739 -1.01816 4.38125 0
M  V30 308 C 30.3929 -2.8397 3.36228 0
M  V30 309 H 27.5119 -0.357428 0.644526 0
M  V30 310 H 30.1539 -0.258239 1.88237 0
M  V30 311 H 28.3039 -2.47695 2.99298 0
M  V30 312 H 29.9759 -0.416159 4.59419 0
M  V30 313 H 28.2189 -0.322178 4.32602 0
M  V30 314 H 28.8899 -1.65939 5.26468 0
M  V30 315 H 31.3659 -2.31964 3.45445 0
M  V30 316 H 30.2419 -3.41864 4.29442 0
M  V30 317 H 30.5029 -3.59955 2.56681 0
M  V30 318 N 29.562 -1.4872 -0.521534 0
M  V30 319 C 30.492 -1.66771 -1.63431 0
M  V30 320 C 31.473 -0.516499 -1.62069 0
M  V30 321 O 32.658 -0.750013 -1.79132 0
M  V30 322 C 29.788 -1.71515 -3.01993 0
M  V30 323 C 28.742 -2.86222 -3.18216 0
M  V30 324 C 28.068 -2.76061 -4.57924 0
M  V30 325 C 29.368 -4.27419 -3.00184 0
M  V30 326 H 31.062 -2.59932 -1.48579 0
M  V30 327 H 28.608 -1.25089 -0.713358 0
M  V30 328 H 30.561 -1.82731 -3.7972 0
M  V30 329 H 29.285 -0.749393 -3.17886 0
M  V30 330 H 27.944 -2.74575 -2.42908 0
M  V30 331 H 27.592 -1.77437 -4.70665 0
M  V30 332 H 27.292 -3.53037 -4.69722 0
M  V30 333 H 28.816 -2.89256 -5.37739 0
M  V30 334 H 30.23 -4.39855 -3.67697 0
M  V30 335 H 28.627 -5.05458 -3.2347 0
M  V30 336 H 29.697 -4.43293 -1.96518 0
M  V30 337 N 31.0401 0.771051 -1.3745 0
M  V30 338 C 32.4561 1.07171 -1.18265 0
M  V30 339 C 32.6561 2.01491 -0.019287 0
M  V30 340 O 31.7121 2.44244 0.640408 0
M  V30 341 C 33.0251 1.66854 -2.50161 0
M  V30 342 C 34.5731 1.79109 -2.56689 0
M  V30 343 C 35.0481 2.42205 -3.88717 0
M  V30 344 N 36.5391 2.49655 -3.90162 0
M  V30 345 C 37.2741 2.9933 -4.8907 0
M  V30 346 N 36.7701 3.49172 -5.98374 0
M  V30 347 N 38.5631 2.9821 -4.76474 0
M  V30 348 H 30.7141 0.144796 -2.11906 0
M  V30 349 H 32.9771 0.126863 -0.939473 0
M  V30 350 H 32.6831 1.05017 -3.35655 0
M  V30 351 H 32.5571 2.6614 -2.673 0
M  V30 352 H 34.9441 2.40077 -1.71601 0
M  V30 353 H 35.0251 0.785757 -2.43433 0
M  V30 354 H 34.6691 1.81875 -4.74219 0
M  V30 355 H 34.5991 3.43345 -3.99276 0
M  V30 356 H 37.0901 2.14383 -3.11205 0
M  V30 357 H 37.4031 3.8548 -6.69795 0
M  V30 358 H 35.7481 3.47275 -6.02018 0
M  V30 359 H 38.9391 2.58572 -3.90203 0
M  V30 360 H 39.1121 3.36613 -5.53711 0
M  V30 361 N 32.5182 1.22032 0.997298 0
M  V30 362 C 33.7952 0.950823 1.70935 0
M  V30 363 C 34.1752 -0.535292 2.042 0
M  V30 364 O 33.5232 -1.50217 1.72183 0
M  V30 365 C 33.7332 1.84386 2.96315 0
M  V30 366 C 35.0812 2.09732 3.69185 0
M  V30 367 O 36.1052 1.81798 3.06314 0
M  V30 368 O 34.9642 2.57018 4.82291 0
M  V30 369 H 32.0582 0.357204 0.745878 0
M  V30 370 H 34.6042 1.32997 1.05404 0
M  V30 371 H 33.3762 2.84928 2.68201 0
M  V30 372 H 32.9992 1.46602 3.69586 0
M  V30 373 N 33.9963 -1.19345 1.0293 0
M  V30 374 C 34.9593 -2.20793 0.615069 0
M  V30 375 C 35.9593 -1.57553 -0.321533 0
M  V30 376 O 37.1493 -1.73862 -0.108483 0
M  V30 377 C 34.2813 -3.40754 -0.0999222 0
M  V30 378 H 35.4743 -2.58955 1.51269 0
M  V30 379 H 33.0273 -1.3303 0.820534 0
M  V30 380 H 33.7623 -3.0811 -1.01187 0
M  V30 381 H 33.5473 -3.87889 0.57309 0
M  V30 382 H 35.0373 -4.15898 -0.376645 0
M  V30 383 N 35.4744 -0.807222 -1.35358 0
M  V30 384 C 36.4244 -0.190706 -2.27201 0
M  V30 385 C 37.4084 0.635838 -1.47804 0
M  V30 386 O 38.6004 0.492991 -1.69996 0
M  V30 387 C 35.7294 0.659337 -3.36909 0
M  V30 388 C 34.8154 -0.176971 -4.23731 0
M  V30 389 N 35.2064 -1.24029 -4.90357 0
M  V30 390 C 33.5044 0.0412953 -4.45981 0
M  V30 391 C 34.2054 -1.75092 -5.54723 0
M  V30 392 N 33.1814 -1.05727 -5.33219 0
M  V30 393 H 36.9834 -1.0043 -2.76208 0
M  V30 394 H 34.4974 -0.648445 -1.48892 0
M  V30 395 H 36.4944 1.11706 -4.01656 0
M  V30 396 H 35.1544 1.47127 -2.89454 0
M  V30 397 H 36.1654 -1.62295 -4.91814 0
M  V30 398 H 32.8424 0.82232 -4.09322 0
M  V30 399 H 34.2324 -2.63963 -6.17878 0
M  V30 400 N 36.9525 1.47285 -0.560781 0
M  V30 401 C 37.8845 2.28118 0.222438 0
M  V30 402 C 38.8975 1.37219 0.876056 0
M  V30 403 O 40.0865 1.62011 0.749307 0
M  V30 404 C 37.1865 3.1159 1.33285 0
M  V30 405 C 36.3595 4.30473 0.77534 0
M  V30 406 C 35.4185 4.95513 1.77069 0
M  V30 407 O 34.4445 5.53792 1.31539 0
M  V30 408 N 35.6465 4.90531 3.10418 0
M  V30 409 H 38.4115 2.95976 -0.470958 0
M  V30 410 H 35.9725 1.56955 -0.39709 0
M  V30 411 H 37.9645 3.51967 1.99752 0
M  V30 412 H 36.5345 2.45951 1.92943 0
M  V30 413 H 35.7545 3.94144 -0.0662113 0
M  V30 414 H 37.0425 5.07362 0.382272 0
M  V30 415 H 36.4405 4.44389 3.5005 0
M  V30 416 H 34.9975 5.34917 3.72434 0
M  V30 417 N 38.4306 0.297415 1.54768 0
M  V30 418 C 39.6556 -0.318435 2.04941 0
M  V30 419 C 40.0806 -1.4701 1.17345 0
M  V30 420 O 39.4386 -1.80436 0.176758 0
M  V30 421 C 39.4866 -0.755749 3.52592 0
M  V30 422 O 38.5906 -1.86088 3.68028 0
M  V30 423 H 37.9316 -0.062421 0.661059 0
M  V30 424 H 40.4616 0.438215 1.99852 0
M  V30 425 H 40.4716 -1.04552 3.94376 0
M  V30 426 H 39.1466 0.0867233 4.1581 0
M  V30 427 H 37.7236 -1.57193 3.38149 0
M  V30 428 N 39.9087 -1.5758 0.0250728 0
M  V30 429 C 40.8387 -2.13007 -0.956575 0
M  V30 430 C 41.8197 -1.0452 -1.342 0
M  V30 431 O 43.0047 -1.32332 -1.42133 0
M  V30 432 C 40.1347 -2.65386 -2.24026 0
M  V30 433 C 39.0887 -3.78623 -1.99571 0
M  V30 434 C 38.4147 -4.17414 -3.3417 0
M  V30 435 C 39.7147 -5.04867 -1.33814 0
M  V30 436 H 41.4087 -2.9528 -0.494991 0
M  V30 437 H 38.9547 -1.42042 -0.236651 0
M  V30 438 H 40.9077 -3.02794 -2.93076 0
M  V30 439 H 39.6317 -1.80268 -2.72343 0
M  V30 440 H 38.2907 -3.41646 -1.32941 0
M  V30 441 H 37.9387 -3.29284 -3.80238 0
M  V30 442 H 37.6387 -4.93719 -3.18615 0
M  V30 443 H 39.1627 -4.57402 -4.04495 0
M  V30 444 H 40.5767 -5.39888 -1.92857 0
M  V30 445 H 38.9737 -5.86144 -1.28669 0
M  V30 446 H 40.0437 -4.83904 -0.310561 0
M  V30 447 N 41.3868 0.248026 -1.55636 0
M  V30 448 C 42.3198 1.3334 -1.85191 0
M  V30 449 C 43.2978 1.46429 -0.706906 0
M  V30 450 O 44.4818 1.62662 -0.952544 0
M  V30 451 C 41.6088 2.70703 -2.03562 0
M  V30 452 C 40.6548 2.7477 -3.26196 0
M  V30 453 S 41.4878 2.31493 -4.82878 0
M  V30 454 C 42.6438 3.70783 -5.04253 0
M  V30 455 H 42.8768 1.08072 -2.76962 0
M  V30 456 H 40.4098 0.448952 -1.47729 0
M  V30 457 H 42.3678 3.49798 -2.1483 0
M  V30 458 H 41.0288 2.9321 -1.12635 0
M  V30 459 H 40.2218 3.75648 -3.36013 0
M  V30 460 H 39.8238 2.03719 -3.13647 0
M  V30 461 H 42.1158 4.6627 -4.91527 0
M  V30 462 H 43.0588 3.65901 -6.06236 0
M  V30 463 H 43.4668 3.63244 -4.32105 0
M  V30 464 N 42.8649 1.48995 0.513639 0
M  V30 465 C 43.8279 1.64229 1.59879 0
M  V30 466 C 44.8279 0.514696 1.5234 0
M  V30 467 O 46.0179 0.78087 1.55718 0
M  V30 468 C 43.1499 1.62783 2.99524 0
M  V30 469 H 44.3429 2.61004 1.47705 0
M  V30 470 H 41.8959 1.37837 0.736936 0
M  V30 471 H 42.6309 0.675461 3.17188 0
M  V30 472 H 42.4159 2.4466 3.06404 0
M  V30 473 H 43.9059 1.76669 3.78388 0
M  V30 474 N 44.343 -0.763751 1.37857 0
M  V30 475 C 45.571 -1.55293 1.36718 0
M  V30 476 C 45.986 -1.88745 -0.0455434 0
M  V30 477 O 45.343 -1.52039 -1.00947 0
M  V30 478 C 45.394 -2.85831 2.2132 0
M  V30 479 O 45.115 -2.5381 3.57089 0
M  V30 480 C 46.616 -3.80023 2.28249 0
M  V30 481 H 43.836 -0.480841 0.468009 0
M  V30 482 H 46.38 -0.946009 1.81303 0
M  V30 483 H 44.535 -3.42926 1.80223 0
M  V30 484 H 44.949 -3.37459 4.01524 0
M  V30 485 H 46.423 -4.68599 2.91752 0
M  V30 486 H 46.9 -4.1973 1.2932 0
M  V30 487 H 47.506 -3.28855 2.69693 0
M  V30 488 N 45.8211 -1.22559 -0.990812 0
M  V30 489 C 47.2371 -0.985996 -1.255 0
M  V30 490 C 47.4371 0.319173 -1.98956 0
M  V30 491 O 46.4931 1.04127 -2.3003 0
M  V30 492 C 47.8061 -2.18607 -2.06474 0
M  V30 493 C 49.3541 -2.22985 -2.19651 0
M  V30 494 C 49.8291 -3.4255 -3.04012 0
M  V30 495 N 51.3201 -3.42725 -3.11599 0
M  V30 496 C 52.0551 -4.31892 -3.7717 0
M  V30 497 N 51.5511 -5.31279 -4.44651 0
M  V30 498 N 53.3441 -4.19662 -3.73952 0
M  V30 499 H 45.4951 -2.06469 -0.49841 0
M  V30 500 H 47.7581 -0.904853 -0.282747 0
M  V30 501 H 47.4641 -3.13267 -1.59865 0
M  V30 502 H 47.3381 -2.18838 -3.07229 0
M  V30 503 H 49.7251 -1.28871 -2.65474 0
M  V30 504 H 49.8061 -2.26791 -1.18319 0
M  V30 505 H 49.4501 -4.36965 -2.58889 0
M  V30 506 H 49.3801 -3.35984 -4.0549 0
M  V30 507 H 51.8711 -2.70807 -2.63575 0
M  V30 508 H 52.1841 -5.95593 -4.92431 0
M  V30 509 H 50.5291 -5.3519 -4.43392 0
M  V30 510 H 53.7201 -3.41268 -3.20396 0
M  V30 511 H 53.8931 -4.89358 -4.24774 0
M  V30 512 N 47.2992 1.18797 -1.03562 0
M  V30 513 C 48.2322 2.2105 -0.56676 0
M  V30 514 C 49.2102 1.57704 0.395993 0
M  V30 515 O 50.3942 1.85908 0.311498 0
M  V30 516 C 47.5212 3.38259 0.172704 0
M  V30 517 C 46.5672 4.19987 -0.74252 0
M  V30 518 S 47.4002 4.87199 -2.22254 0
M  V30 519 C 48.5562 6.07813 -1.49379 0
M  V30 520 H 48.7892 2.60478 -1.43312 0
M  V30 521 H 46.3222 1.29151 -0.846133 0
M  V30 522 H 48.2802 4.06191 0.593191 0
M  V30 523 H 46.9412 2.97252 1.01488 0
M  V30 524 H 46.1342 5.03709 -0.171265 0
M  V30 525 H 45.7362 3.57408 -1.10163 0
M  V30 526 H 48.0282 6.72948 -0.784056 0
M  V30 527 H 48.9712 6.69435 -2.30786 0
M  V30 528 H 49.3792 5.55781 -0.988331 0
M  V30 529 N 48.7773 0.814389 1.34928 0
M  V30 530 C 49.7403 0.235759 2.27984 0
M  V30 531 C 50.7403 -0.581412 1.49921 0
M  V30 532 O 51.9303 -0.398758 1.69575 0
M  V30 533 C 49.0623 -0.670433 3.34242 0
M  V30 534 H 50.2553 1.05659 2.80671 0
M  V30 535 H 47.8083 0.585614 1.44915 0
M  V30 536 H 48.5433 -1.51466 2.86755 0
M  V30 537 H 48.3283 -0.0860822 3.92005 0
M  V30 538 H 49.8183 -1.06935 4.03676 0
M  V30 539 N 50.2554 -1.46986 0.568584 0
M  V30 540 C 51.1884 -2.27129 -0.220779 0
M  V30 541 C 52.1664 -1.34757 -0.909905 0
M  V30 542 O 53.3504 -1.64152 -0.926622 0
M  V30 543 C 50.4774 -3.12108 -1.31553 0
M  V30 544 C 49.5234 -4.20141 -0.733748 0
M  V30 545 S 50.3564 -5.33783 0.428479 0
M  V30 546 C 51.5124 -6.22327 -0.667811 0
M  V30 547 H 51.7454 -2.93731 0.459267 0
M  V30 548 H 49.2784 -1.5026 0.355154 0
M  V30 549 H 51.2364 -3.61636 -1.94241 0
M  V30 550 H 49.8974 -2.44847 -1.96746 0
M  V30 551 H 49.0904 -4.79373 -1.5562 0
M  V30 552 H 48.6924 -3.73553 -0.182812 0
M  V30 553 H 50.9844 -6.59364 -1.55708 0
M  V30 554 H 51.9274 -7.0801 -0.11258 0
M  V30 555 H 52.3354 -5.5618 -0.965601 0
M  V30 556 N 51.7335 -0.305618 -1.54608 0
M  V30 557 C 52.6435 0.57778 -2.27374 0
M  V30 558 C 53.6595 1.14451 -1.31061 0
M  V30 559 O 54.8355 1.16831 -1.6405 0
M  V30 560 C 51.9005 1.73123 -3.00382 0
M  V30 561 C 50.9615 1.19812 -4.12242 0
M  V30 562 C 50.1945 2.2966 -4.81759 0
M  V30 563 O 50.4175 3.49651 -4.50666 0
M  V30 564 O 49.3515 1.96091 -5.69062 0
M  V30 565 H 53.1775 -0.012624 -3.03697 0
M  V30 566 H 50.7625 -0.0719184 -1.49227 0
M  V30 567 H 52.6445 2.40315 -3.4616 0
M  V30 568 H 51.3195 2.30815 -2.26949 0
M  V30 569 H 50.2265 0.491798 -3.70853 0
M  V30 570 H 51.5595 0.666566 -4.87666 0
M  V30 571 N 53.2116 1.57565 -0.0334293 0
M  V30 572 C 54.4886 1.83282 0.683163 0
M  V30 573 C 54.8686 0.91823 1.90084 0
M  V30 574 O 54.2166 -0.025113 2.28486 0
M  V30 575 C 54.4266 3.32599 1.0573 0
M  V30 576 C 55.7746 3.99179 1.44711 0
M  V30 577 O 56.7986 3.3712 1.15015 0
M  V30 578 O 55.6576 5.08565 2.0006 0
M  V30 579 H 52.7516 0.755869 0.335546 0
M  V30 580 H 55.2976 1.69589 -0.0614402 0
M  V30 581 H 54.0696 3.90834 0.190828 0
M  V30 582 H 53.6926 3.51415 1.85993 0
M  V30 583 N 54.6897 -0.239769 1.55765 0
M  V30 584 C 55.6227 -1.32356 1.85895 0
M  V30 585 C 56.6007 -1.46053 0.714662 0
M  V30 586 O 57.7847 -1.62154 0.961157 0
M  V30 587 C 54.9117 -2.6962 2.04994 0
M  V30 588 C 53.9577 -2.73036 3.27648 0
M  V30 589 S 54.7907 -2.28929 4.84099 0
M  V30 590 C 55.9467 -3.68103 5.06212 0
M  V30 591 H 56.1797 -1.06601 2.77531 0
M  V30 592 H 53.7127 -0.441112 1.47965 0
M  V30 593 H 55.6707 -3.48653 2.16682 0
M  V30 594 H 54.3317 -2.92609 1.14188 0
M  V30 595 H 53.5247 -3.7386 3.38 0
M  V30 596 H 53.1267 -2.02052 3.14723 0
M  V30 597 H 55.4187 -4.63656 4.93993 0
M  V30 598 H 56.3617 -3.6268 6.08168 0
M  V30 599 H 56.7697 -3.60947 4.34025 0
M  V30 600 N 56.1678 -1.49265 -0.50573 0
M  V30 601 C 57.4138 -1.58748 -1.26202 0
M  V30 602 C 57.7468 -0.271227 -1.92297 0
M  V30 603 O 57.0218 0.724831 -1.80489 0
M  V30 604 C 57.3048 -2.74332 -2.33268 0
M  V30 605 C 57.1578 -4.15737 -1.71705 0
M  V30 606 C 58.4768 -2.85576 -3.34865 0
M  V30 607 H 55.5958 -0.577826 -0.457478 0
M  V30 608 H 58.2378 -1.81532 -0.560897 0
M  V30 609 H 56.3878 -2.55036 -2.93068 0
M  V30 610 H 58.0598 -4.46537 -1.15769 0
M  V30 611 H 56.3028 -4.21605 -1.02135 0
M  V30 612 H 56.9738 -4.92477 -2.49341 0
M  V30 613 H 59.4498 -3.03127 -2.8505 0
M  V30 614 H 58.3258 -3.68135 -4.07146 0
M  V30 615 H 58.5868 -1.94732 -3.96903 0
M  V30 616 N 57.6459 0.756429 -1.3826 0
M  V30 617 C 58.8939 1.51248 -1.34047 0
M  V30 618 C 59.2149 1.94875 0.0698372 0
M  V30 619 O 58.4849 1.67436 1.01696 0
M  V30 620 H 57.0649 0.561018 -0.493222 0
M  V30 621 H 59.7269 0.899347 -1.7291 0
M  V30 622 H 58.8229 2.40472 -1.98947 0
M  V30 623 N 59.124 1.23083 0.984299 0
M  V30 624 C 60.087 1.00979 2.05757 0
M  V30 625 C 61.087 -0.0269573 1.60777 0
M  V30 626 O 62.277 0.212403 1.729 0
M  V30 627 C 59.409 0.527072 3.36801 0
M  V30 628 H 60.602 1.9622 2.26799 0
M  V30 629 H 58.155 1.05072 1.15714 0
M  V30 630 H 58.89 -0.429294 3.21446 0
M  V30 631 H 58.675 1.27515 3.70786 0
M  V30 632 H 60.165 0.392942 4.15747 0
M  V30 633 N 60.6021 -1.18246 1.0419 0
M  V30 634 C 61.8421 -1.89948 0.754916 0
M  V30 635 C 62.2061 -1.78608 -0.70451 0
M  V30 636 O 63.4071 -2.4503 -1.10516 0
M  V30 637 C 61.6781 -3.36305 1.20969 0
M  V30 638 S 63.2371 -4.26088 1.04854 0
M  V30 639 H 60.0551 -0.655897 0.274446 0
M  V30 640 H 62.6571 -1.42873 1.33445 0
M  V30 641 H 61.3611 -3.42089 2.26722 0
M  V30 642 H 60.8921 -3.8842 0.624004 0
M  V30 643 H 62.9071 -4.96189 -0.0332896 0
M  V30 644 N 62.0802 -0.821533 -1.34494 0
M  V30 645 C 63.0432 -0.247847 -2.27856 0
M  V30 646 C 64.0432 0.573453 -1.50227 0
M  V30 647 O 65.2332 0.389759 -1.69784 0
M  V30 648 C 62.3652 0.652698 -3.34593 0
M  V30 649 H 63.5582 -1.07146 -2.80107 0
M  V30 650 H 61.1112 -0.593291 -1.44602 0
M  V30 651 H 61.8462 1.49943 -2.87555 0
M  V30 652 H 61.6312 0.065292 -3.92046 0
M  V30 653 H 63.1212 1.04793 -4.04238 0
M  V30 654 N 63.5583 1.46682 -0.576371 0
M  V30 655 C 64.8353 1.95599 0.00703437 0
M  V30 656 C 65.2153 1.51904 1.46589 0
M  V30 657 O 64.5633 0.766755 2.15251 0
M  V30 658 C 64.7733 3.4864 -0.158404 0
M  V30 659 C 66.1213 4.24594 -0.0229439 0
M  V30 660 O 67.1453 3.56094 -0.0869173 0
M  V30 661 O 66.0043 5.46373 0.118015 0
M  V30 662 H 63.0983 0.825275 0.053384 0
M  V30 663 H 65.6443 1.56996 -0.644244 0
M  V30 664 H 64.4163 3.7331 -1.17282 0
M  V30 665 H 64.0393 3.94057 0.5296 0
M  V30 666 N 65.0364 0.313813 1.54444 0
M  V30 667 C 66.2854 -0.292519 1.99568 0
M  V30 668 C 66.5984 -1.54011 1.20582 0
M  V30 669 O 67.8044 -2.22183 1.56035 0
M  V30 670 C 66.2604 -0.571752 3.55329 0
M  V30 671 C 65.8684 0.658229 4.43138 0
M  V30 672 C 67.6124 -1.13857 4.08946 0
M  V30 673 C 65.5194 0.351439 5.90355 0
M  V30 674 H 64.4494 -0.113079 0.745472 0
M  V30 675 H 67.1004 0.424518 1.78522 0
M  V30 676 H 65.4824 -1.34872 3.72325 0
M  V30 677 H 66.6564 1.43403 4.37918 0
M  V30 678 H 64.9714 1.14458 4.0036 0
M  V30 679 H 67.5684 -1.38257 5.16516 0
M  V30 680 H 67.9114 -2.08489 3.6033 0
M  V30 681 H 68.4444 -0.423015 3.95544 0
M  V30 682 H 65.1834 1.26667 6.43145 0
M  V30 683 H 64.7034 -0.386842 5.98551 0
M  V30 684 H 66.3824 -0.0423134 6.46986 0
M  V30 685 N 66.5145 -1.57545 0.0417849 0
M  V30 686 C 67.7915 -1.83642 -0.673433 0
M  V30 687 C 68.1715 -0.928298 -1.89594 0
M  V30 688 O 67.5195 0.0129955 -2.28496 0
M  V30 689 C 67.7295 -3.33155 -1.03964 0
M  V30 690 C 69.0775 -3.99941 -1.42592 0
M  V30 691 O 70.1015 -3.37725 -1.13226 0
M  V30 692 O 68.9605 -5.09619 -1.9736 0
M  V30 693 H 66.0545 -0.757638 -0.331533 0
M  V30 694 H 68.6005 -1.69554 0.070433 0
M  V30 695 H 67.3725 -3.9093 -0.170098 0
M  V30 696 H 66.9955 -3.52396 -1.84126 0
M  V30 697 N 67.9926 0.231505 -1.5589 0
M  V30 698 C 68.9556 1.27028 -1.90779 0
M  V30 699 C 69.9556 1.40308 -0.785507 0
M  V30 700 O 71.1456 1.38744 -1.05336 0
M  V30 701 C 68.2776 2.64566 -2.14983 0
M  V30 702 H 69.4706 0.973017 -2.83677 0
M  V30 703 H 67.0236 0.471486 -1.49019 0
M  V30 704 H 67.7586 2.99406 -1.24604 0
M  V30 705 H 67.5436 2.56305 -2.96732 0
M  V30 706 H 69.0336 3.39543 -2.43105 0
M  V30 707 N 69.4707 1.49531 0.497807 0
M  V30 708 C 70.4337 1.65916 1.58128 0
M  V30 709 C 71.4337 0.530825 1.51786 0
M  V30 710 O 72.6237 0.797342 1.54881 0
M  V30 711 C 69.7557 1.65951 2.9778 0
M  V30 712 H 70.9487 2.62556 1.44929 0
M  V30 713 H 68.5017 1.38611 0.722275 0
M  V30 714 H 69.2367 0.709065 3.16453 0
M  V30 715 H 69.0217 2.47897 3.03792 0
M  V30 716 H 70.5117 1.80673 3.76493 0
M  V30 717 N 70.9488 -0.749086 1.3866 0
M  V30 718 C 72.1968 -1.50535 1.34847 0
M  V30 719 C 72.5178 -1.94909 -0.0595016 0
M  V30 720 O 71.7878 -1.67973 -1.00806 0
M  V30 721 H 70.3678 -0.558395 0.49619 0
M  V30 722 H 73.0298 -0.890165 1.73384 0
M  V30 723 H 72.1258 -2.39413 2.00219 0
M  V30 724 N 72.4269 -1.23603 -0.977757 0
M  V30 725 C 73.6569 -1.09487 -1.75203 0
M  V30 726 C 74.0649 0.356321 -1.85814 0
M  V30 727 O 73.4079 1.25816 -1.33851 0
M  V30 728 C 73.4699 -1.64905 -3.19447 0
M  V30 729 C 73.1339 -3.13688 -3.32338 0
M  V30 730 C 74.1309 -4.10953 -3.18455 0
M  V30 731 C 71.8159 -3.53449 -3.56902 0
M  V30 732 C 73.8099 -5.45962 -3.28944 0
M  V30 733 C 71.4969 -4.88602 -3.6703 0
M  V30 734 C 72.4949 -5.84668 -3.53062 0
M  V30 735 O 72.1829 -7.17365 -3.62826 0
M  V30 736 H 71.9149 -0.38367 -0.556573 0
M  V30 737 H 74.4689 -1.6398 -1.23693 0
M  V30 738 H 72.6989 -1.04835 -3.72218 0
M  V30 739 H 74.3879 -1.46226 -3.78646 0
M  V30 740 H 75.1539 -3.81577 -2.99372 0
M  V30 741 H 71.0329 -2.79188 -3.66844 0
M  V30 742 H 74.5769 -6.20925 -3.17958 0
M  V30 743 H 70.4739 -5.17653 -3.85623 0
M  V30 744 H 71.2419 -7.2515 -3.79605 0
M  V30 745 N 73.905 1.17692 -1.04816 0
M  V30 746 C 75.151 1.88389 -0.766892 0
M  V30 747 C 75.506 1.79282 0.698269 0
M  V30 748 O 74.799 1.18739 1.50372 0
M  V30 749 C 74.993 3.37462 -1.17703 0
M  V30 750 C 74.822 3.6108 -2.68051 0
M  V30 751 C 73.592 3.78018 -3.35307 0
M  V30 752 C 75.79 3.61039 -3.66273 0
M  V30 753 N 73.772 3.89444 -4.74559 0
M  V30 754 C 75.143 3.78269 -4.91235 0
M  V30 755 C 77.198 3.44168 -3.59796 0
M  V30 756 C 75.901 3.80376 -6.10497 0
M  V30 757 C 77.927 3.4756 -4.78493 0
M  V30 758 C 77.289 3.65295 -6.02278 0
M  V30 759 H 73.388 0.707651 -0.332798 0
M  V30 760 H 75.972 1.41314 -1.33934 0
M  V30 761 H 74.143 3.83214 -0.63257 0
M  V30 762 H 75.875 3.95759 -0.845989 0
M  V30 763 H 72.63 3.77714 -2.85708 0
M  V30 764 H 73.054 3.98962 -5.46954 0
M  V30 765 H 77.696 3.29396 -2.65062 0
M  V30 766 H 75.414 3.93933 -7.05579 0
M  V30 767 H 79 3.3577 -4.75131 0
M  V30 768 H 77.88 3.6782 -6.92588 0
M  V30 769 N 75.3831 0.828654 1.34056 0
M  V30 770 C 76.6081 0.431637 2.02859 0
M  V30 771 C 77.0331 -0.956339 1.61975 0
M  V30 772 O 76.3911 -1.62338 0.807228 0
M  V30 773 C 76.4391 0.548323 3.56407 0
M  V30 774 O 75.5431 -0.429556 4.10157 0
M  V30 775 H 74.8841 0.176886 0.640006 0
M  V30 776 H 77.4141 1.12066 1.71179 0
M  V30 777 H 77.4241 0.426196 4.05768 0
M  V30 778 H 76.0991 1.5606 3.8551 0
M  V30 779 H 74.6761 -0.265836 3.71951 0
M  V30 780 N 76.8612 -1.46375 0.584142 0
M  V30 781 C 78.1072 -2.02678 0.0703716 0
M  V30 782 C 78.4402 -1.4545 -1.28678 0
M  V30 783 O 77.7152 -0.62014 -1.84349 0
M  V30 784 C 77.9982 -3.60099 0.00614674 0
M  V30 785 C 77.8512 -4.27709 1.3923 0
M  V30 786 C 79.1702 -4.34598 -0.693742 0
M  V30 787 H 76.2892 -0.736504 0.027047 0
M  V30 788 H 78.9312 -1.74501 0.751615 0
M  V30 789 H 77.0812 -3.84236 -0.574009 0
M  V30 790 H 78.7532 -4.14832 2.01773 0
M  V30 791 H 76.9962 -3.87016 1.95962 0
M  V30 792 H 77.6672 -5.36478 1.29982 0
M  V30 793 H 80.1432 -4.15615 -0.200869 0
M  V30 794 H 79.0192 -5.44318 -0.707714 0
M  V30 795 H 79.2802 -4.05759 -1.75533 0
M  V30 796 N 78.3393 -0.321999 -1.54275 0
M  V30 797 C 79.2493 0.553631 -2.27974 0
M  V30 798 C 80.2653 1.13054 -1.32268 0
M  V30 799 O 81.4413 1.15084 -1.6528 0
M  V30 800 C 78.5063 1.69927 -3.02201 0
M  V30 801 C 77.5673 1.15433 -4.1349 0
M  V30 802 C 76.8003 2.24537 -4.84168 0
M  V30 803 O 77.0233 3.44852 -4.5435 0
M  V30 804 O 75.9573 1.90044 -5.7111 0
M  V30 805 H 79.7833 -0.0448345 -3.03667 0
M  V30 806 H 77.3683 -0.0877418 -1.49142 0
M  V30 807 H 79.2503 2.3663 -3.48689 0
M  V30 808 H 77.9253 2.28395 -2.29385 0
M  V30 809 H 76.8323 0.452436 -3.71354 0
M  V30 810 H 78.1653 0.614805 -4.88345 0
M  V30 811 N 79.8174 1.5752 -0.0501392 0
M  V30 812 C 81.0574 1.94521 0.627783 0
M  V30 813 C 81.4214 0.928265 1.68069 0
M  V30 814 O 82.6224 1.18517 2.41261 0
M  V30 815 C 80.8934 3.36319 1.20932 0
M  V30 816 S 82.4524 3.95272 1.90539 0
M  V30 817 H 79.2704 0.680456 0.206158 0
M  V30 818 H 81.8724 1.95139 -0.118829 0
M  V30 819 H 80.5764 4.08132 0.430865 0
M  V30 820 H 80.1074 3.39193 1.99277 0
M  V30 821 H 82.1224 3.80415 3.18589 0
M  V30 822 N 81.2955 -0.223234 1.56011 0
M  V30 823 C 82.5415 -0.944891 1.8012 0
M  V30 824 C 82.8965 -1.82039 0.622862 0
M  V30 825 O 82.1895 -1.8773 -0.383143 0
M  V30 826 C 82.3835 -1.81948 3.0762 0
M  V30 827 C 82.2125 -1.03014 4.37742 0
M  V30 828 C 80.9825 -0.72574 5.00061 0
M  V30 829 C 83.1805 -0.396256 5.12771 0
M  V30 830 N 81.1625 0.0851816 6.13841 0
M  V30 831 C 82.5335 0.278137 6.19376 0
M  V30 832 C 84.5885 -0.309117 4.9694 0
M  V30 833 C 83.2915 1.03133 7.11868 0
M  V30 834 C 85.3175 0.430607 5.8983 0
M  V30 835 C 84.6795 1.09355 6.9586 0
M  V30 836 H 80.7785 -0.326081 0.710771 0
M  V30 837 H 83.3625 -0.215914 1.93499 0
M  V30 838 H 81.5335 -2.52029 2.95527 0
M  V30 839 H 83.2655 -2.47848 3.19927 0
M  V30 840 H 80.0205 -1.04335 4.61964 0
M  V30 841 H 80.4445 0.479428 6.753 0
M  V30 842 H 85.0865 -0.807313 4.15021 0
M  V30 843 H 82.8045 1.54105 7.9327 0
M  V30 844 H 86.3905 0.499012 5.79656 0
M  V30 845 H 85.2705 1.65679 7.66499 0
M  V30 846 N 82.7736 -1.49793 -0.48987 0
M  V30 847 C 84.0216 -1.59525 -1.24081 0
M  V30 848 C 84.3426 -0.288953 -1.92847 0
M  V30 849 O 83.6126 0.692436 -1.83254 0
M  V30 850 H 82.1926 -0.587796 -0.460983 0
M  V30 851 H 84.8546 -1.86477 -0.566778 0
M  V30 852 H 83.9506 -2.39696 -1.99881 0
M  V30 853 N 84.2517 0.741722 -1.39055 0
M  V30 854 C 85.4997 1.49818 -1.35643 0
M  V30 855 C 85.8207 1.94938 0.0491642 0
M  V30 856 O 85.0907 1.68505 0.999141 0
M  V30 857 H 83.6707 0.555755 -0.499144 0
M  V30 858 H 86.3327 0.880957 -1.73854 0
M  V30 859 H 85.4287 2.38348 -2.01486 0
M  V30 860 N 85.7298 1.2412 0.971189 0
M  V30 861 C 86.6928 1.03156 2.04674 0
M  V30 862 C 87.6928 -0.00990322 1.60797 0
M  V30 863 O 88.8828 0.230729 1.72665 0
M  V30 864 C 86.0148 0.562765 3.36223 0
M  V30 865 H 87.2078 1.98614 2.24705 0
M  V30 866 H 84.7608 1.06293 1.14593 0
M  V30 867 H 85.4958 -0.395176 3.21883 0
M  V30 868 H 85.2808 1.31441 3.69413 0
M  V30 869 H 86.7708 0.437015 4.15307 0
M  V30 870 N 87.2079 -1.17134 1.05439 0
M  V30 871 C 88.4359 -1.91372 0.786414 0
M  V30 872 C 88.8509 -1.76955 -0.658202 0
M  V30 873 O 88.2079 -1.10838 -1.44987 0
M  V30 874 C 88.2589 -3.42356 1.1608 0
M  V30 875 O 87.9799 -3.56332 2.54871 0
M  V30 876 C 89.4809 -4.33663 0.919322 0
M  V30 877 H 86.7009 -0.607118 0.285743 0
M  V30 878 H 89.2449 -1.48525 1.40572 0
M  V30 879 H 87.3999 -3.82939 0.586191 0
M  V30 880 H 87.8139 -4.49896 2.69618 0
M  V30 881 H 89.2879 -5.38099 1.231 0
M  V30 882 H 89.7649 -4.38959 -0.145359 0
M  V30 883 H 90.3709 -3.98796 1.47789 0
M  V30 884 N 88.686 -0.835752 -1.33615 0
M  V30 885 C 89.916 -0.442701 -2.01801 0
M  V30 886 C 90.324 0.959807 -1.63047 0
M  V30 887 O 89.667 1.63468 -0.838088 0
M  V30 888 C 89.729 -0.480125 -3.56279 0
M  V30 889 C 89.393 -1.8382 -4.18401 0
M  V30 890 C 90.39 -2.80097 -4.37998 0
M  V30 891 C 88.075 -2.13019 -4.54894 0
M  V30 892 C 90.069 -4.03736 -4.9323 0
M  V30 893 C 87.756 -3.36916 -5.09834 0
M  V30 894 C 88.754 -4.32091 -5.28948 0
M  V30 895 O 88.442 -5.53797 -5.82721 0
M  V30 896 H 88.174 -0.17441 -0.653114 0
M  V30 897 H 90.728 -1.129 -1.71589 0
M  V30 898 H 88.958 0.262931 -3.85805 0
M  V30 899 H 90.647 -0.105335 -4.05763 0
M  V30 900 H 91.413 -2.58838 -4.10156 0
M  V30 901 H 87.292 -1.39733 -4.39313 0
M  V30 902 H 90.836 -4.78034 -5.08064 0
M  V30 903 H 86.733 -3.58033 -5.37106 0
M  V30 904 H 87.501 -5.55494 -6.0114 0
M  V30 905 N 90.1641 1.46063 -0.591896 0
M  V30 906 C 91.4411 1.95595 -0.0137119 0
M  V30 907 C 91.8211 1.5345 1.4497 0
M  V30 908 O 91.1691 0.789543 2.14426 0
M  V30 909 C 91.3791 3.48453 -0.195373 0
M  V30 910 C 92.7271 4.24546 -0.0679765 0
M  V30 911 O 93.7511 3.55982 -0.124681 0
M  V30 912 O 92.6101 5.46467 0.0600579 0
M  V30 913 H 89.7041 0.825795 0.0446279 0
M  V30 914 H 92.2501 1.56303 -0.660859 0
M  V30 915 H 91.0221 3.72045 -1.21235 0
M  V30 916 H 90.6451 3.94597 0.487775 0
M  V30 917 N 91.6422 0.330177 1.54103 0
M  V30 918 C 92.8672 -0.274893 2.0557 0
M  V30 919 C 93.2922 -1.44487 1.20437 0
M  V30 920 O 92.6502 -1.80021 0.214991 0
M  V30 921 C 92.6982 -0.68079 3.54115 0
M  V30 922 O 91.8022 -1.7824 3.71893 0
M  V30 923 H 91.1432 -0.0483849 0.662235 0
M  V30 924 H 93.6732 0.480508 1.98878 0
M  V30 925 H 93.6832 -0.961635 3.96505 0
M  V30 926 H 92.3582 0.174903 4.15532 0
M  V30 927 H 90.9352 -1.49985 3.41407 0
M  V30 928 N 93.1203 -1.57491 0.0584922 0
M  V30 929 C 94.3603 -1.94851 -0.617458 0
M  V30 930 C 94.7243 -0.937165 -1.67575 0
M  V30 931 O 95.9253 -1.19795 -2.40629 0
M  V30 932 C 94.1963 -3.36955 -1.19147 0
M  V30 933 S 95.7553 -3.96277 -1.8844 0
M  V30 934 H 92.5733 -0.681539 -0.202547 0
M  V30 935 H 95.1753 -1.95073 0.129176 0
M  V30 936 H 93.8793 -4.08355 -0.409215 0
M  V30 937 H 93.4103 -3.40245 -1.97476 0
M  V30 938 H 95.4253 -3.82099 -3.16568 0
M  V30 939 N 94.5984 0.214957 -1.56127 0
M  V30 940 C 95.8474 0.936451 -1.78643 0
M  V30 941 C 96.1604 1.85237 -0.628229 0
M  V30 942 O 97.3664 2.613 -0.737186 0
M  V30 943 C 95.8224 1.7154 -3.16389 0
M  V30 944 C 95.4304 0.845299 -4.39953 0
M  V30 945 C 97.1744 2.42772 -3.48227 0
M  V30 946 C 95.0814 1.62198 -5.68723 0
M  V30 947 H 94.0114 0.353401 -0.666051 0
M  V30 948 H 96.6624 0.190169 -1.82512 0
M  V30 949 H 95.0444 2.50484 -3.06715 0
M  V30 950 H 96.2184 0.0959353 -4.607 0
M  V30 951 H 94.5334 0.244789 -4.1568 0
M  V30 952 H 97.1304 3.01394 -4.41663 0
M  V30 953 H 97.4734 3.15984 -2.71035 0
M  V30 954 H 98.0064 1.70813 -3.5926 0
M  V30 955 H 94.7454 0.933011 -6.48826 0
M  V30 956 H 94.2654 2.34579 -5.52026 0
M  V30 957 H 95.9444 2.18095 -6.09133 0
M  V30 958 N 96.0765 1.50051 0.48192 0
M  V30 959 C 97.4925 1.37237 0.814756 0
M  V30 960 C 97.6925 0.420109 1.97072 0
M  V30 961 O 96.7485 -0.141246 2.52105 0
M  V30 962 C 98.0615 2.78375 1.13701 0
M  V30 963 C 99.6095 2.87213 1.2441 0
M  V30 964 C 100.084 4.29161 1.59954 0
M  V30 965 N 101.575 4.32061 1.66967 0
M  V30 966 C 102.31 5.38879 1.95952 0
M  V30 967 N 101.806 6.55918 2.23031 0
M  V30 968 N 103.599 5.26312 1.97363 0
M  V30 969 H 95.7505 2.10546 -0.28005 0
M  V30 970 H 98.0135 0.945921 -0.0627454 0
M  V30 971 H 97.7195 3.49845 0.360787 0
M  V30 972 H 97.5935 3.14941 2.07586 0
M  V30 973 H 99.9805 2.15969 2.01101 0
M  V30 974 H 100.061 2.54204 0.285299 0
M  V30 975 H 99.7055 5.00938 0.838067 0
M  V30 976 H 99.6355 4.59648 2.56966 0
M  V30 977 H 102.126 3.47661 1.48123 0
M  V30 978 H 102.439 7.33139 2.44391 0
M  V30 979 H 100.784 6.59112 2.20447 0
M  V30 980 H 103.975 4.33876 1.75697 0
M  V30 981 H 104.148 6.09649 2.19618 0
M  V30 982 N 97.5546 -0.734337 1.39446 0
M  V30 983 C 98.8016 -1.49391 1.36706 0
M  V30 984 C 99.1296 -1.94465 -0.0367813 0
M  V30 985 O 98.3846 -1.67154 -1.01774 0
M  V30 986 C 98.6836 -2.74711 2.28623 0
M  V30 987 C 98.3496 -2.48501 3.76242 0
M  V30 988 C 97.0116 -2.41062 4.16464 0
M  V30 989 C 99.3636 -2.26098 4.69606 0
M  V30 990 C 96.6916 -2.09262 5.48112 0
M  V30 991 C 99.0436 -1.95814 6.01531 0
M  V30 992 C 97.7076 -1.86845 6.40816 0
M  V30 993 H 96.9776 -0.546661 0.500243 0
M  V30 994 H 99.6246 -0.842788 1.71957 0
M  V30 995 H 97.9296 -3.44569 1.86492 0
M  V30 996 H 99.6266 -3.32741 2.23796 0
M  V30 997 H 96.2166 -2.55169 3.44364 0
M  V30 998 H 100.401 -2.30812 4.39363 0
M  V30 999 H 95.6566 -2.00841 5.77471 0
M  V30 1000 H 99.8306 -1.77488 6.73403 0
M  V30 1001 H 97.4576 -1.6197 7.42745 0
M  V30 1002 N 99.0327 -1.24633 -0.964593 0
M  V30 1003 C 99.9627 -1.06611 -2.07741 0
M  V30 1004 C 100.944 0.0218666 -1.70086 0
M  V30 1005 O 102.129 -0.145793 -1.93652 0
M  V30 1006 C 99.2587 -0.673444 -3.40708 0
M  V30 1007 C 98.2127 -1.71054 -3.92332 0
M  V30 1008 C 97.5387 -1.17285 -5.21678 0
M  V30 1009 C 98.8387 -3.10718 -4.19824 0
M  V30 1010 H 100.533 -1.99693 -2.23076 0
M  V30 1011 H 98.0787 -0.96152 -1.07195 0
M  V30 1012 H 100.032 -0.534345 -4.17998 0
M  V30 1013 H 98.7557 0.293073 -3.25282 0
M  V30 1014 H 97.4147 -1.83791 -3.17201 0
M  V30 1015 H 97.0627 -0.196847 -5.02615 0
M  V30 1016 H 96.7627 -1.86592 -5.57187 0
M  V30 1017 H 98.2867 -1.04593 -6.01575 0
M  V30 1018 H 99.7007 -3.01192 -4.87808 0
M  V30 1019 H 98.0977 -3.77406 -4.66567 0
M  V30 1020 H 99.1677 -3.58524 -3.26479 0
M  V30 1021 N 100.511 1.16574 -1.06058 0
M  V30 1022 C 101.459 2.22941 -0.663343 0
M  V30 1023 C 102.453 1.66358 0.319593 0
M  V30 1024 O 103.659 1.7905 0.184713 0
M  V30 1025 H 100.034 0.725907 -0.196376 0
M  V30 1026 H 102.005 2.53736 -1.57037 0
M  V30 1027 C 100.754 3.47642 -0.0632808 0
M  V30 1028 H 100.077 3.91493 -0.810733 0
M  V30 1029 H 101.517 4.2363 0.177177 0
M  V30 1030 C 99.9758 3.1509 1.19248 0
M  V30 1031 O 100.506 3.30673 2.28075 0
M  V30 1032 N 98.7118 2.6924 1.09353 0
M  V30 1033 H 98.2588 2.5676 0.207912 0
M  V30 1034 H 98.2168 2.47833 1.93458 0
M  V30 1035 N 101.989 0.842826 1.3317 0
M  V30 1036 C 102.899 0.281444 2.32906 0
M  V30 1037 C 103.915 -0.594587 1.63526 0
M  V30 1038 O 105.091 -0.49777 1.95152 0
M  V30 1039 C 102.156 -0.530929 3.42611 0
M  V30 1040 C 101.217 0.369843 4.27704 0
M  V30 1041 C 100.45 -0.403853 5.3217 0
M  V30 1042 O 100.673 -1.63513 5.46461 0
M  V30 1043 O 99.6069 0.224199 6.01482 0
M  V30 1044 H 103.433 1.10744 2.82789 0
M  V30 1045 H 101.018 0.60545 1.36582 0
M  V30 1046 H 102.9 -0.992437 4.09547 0
M  V30 1047 H 101.575 -1.33392 2.94938 0
M  V30 1048 H 100.482 0.879275 3.6362 0
M  V30 1049 H 101.815 1.13771 4.78871 0
M  V30 1050 N 103.467 -1.45747 0.599634 0
M  V30 1051 C 104.744 -1.95585 0.0240846 0
M  V30 1052 C 105.124 -1.54217 -1.44154 0
M  V30 1053 O 104.472 -0.800903 -2.14004 0
M  V30 1054 C 104.682 -3.48344 0.21385 0
M  V30 1055 C 106.03 -4.24504 0.0904902 0
M  V30 1056 O 107.054 -3.55911 0.143558 0
M  V30 1057 O 105.913 -5.46491 -0.0310766 0
M  V30 1058 H 103.007 -0.82602 -0.0402478 0
M  V30 1059 H 105.553 -1.55951 0.669139 0
M  V30 1060 H 104.325 -3.71397 1.23206 0
M  V30 1061 H 103.948 -3.9485 -0.466842 0
M  V30 1062 N 104.945 -0.338344 -1.53925 0
M  V30 1063 C 106.356 0.146651 -1.86123 0
M  V30 1064 C 106.707 1.5042 -1.2597 0
M  V30 1065 O 105.832 2.08723 -0.571294 0
M  V30 1066 C 106.427 0.272879 -3.37699 0
M  V30 1067 C 104.986 0.702103 -3.69794 0
M  V30 1068 C 104.133 -0.167304 -2.76795 0
M  V30 1069 H 107.084 -0.558123 -1.48562 0
M  V30 1070 H 107.105 1.10128 -3.64214 0
M  V30 1071 H 106.617 -0.715307 -3.81451 0
M  V30 1072 H 104.718 1.6995 -3.31584 0
M  V30 1073 H 104.831 0.495604 -4.7653 0
M  V30 1074 H 103.195 0.359527 -2.5215 0
M  V30 1075 H 103.978 -1.15253 -3.23375 0
M  V30 1076 N 106.423 1.57458 -0.0668435 0
M  V30 1077 C 107.669 1.94401 0.598316 0
M  V30 1078 C 108.024 0.946335 1.67518 0
M  V30 1079 O 107.317 -0.0321442 1.91573 0
M  V30 1080 C 107.511 3.35784 1.22409 0
M  V30 1081 C 107.34 4.49212 0.209367 0
M  V30 1082 C 106.11 5.04887 -0.204218 0
M  V30 1083 C 108.308 5.11335 -0.551431 0
M  V30 1084 N 106.29 6.01854 -1.21016 0
M  V30 1085 C 107.661 6.03754 -1.41 0
M  V30 1086 C 109.716 4.94173 -0.608038 0
M  V30 1087 C 108.419 6.80854 -2.32013 0
M  V30 1088 C 110.445 5.71912 -1.50566 0
M  V30 1089 C 109.807 6.63976 -2.35191 0
M  V30 1090 H 105.906 0.758538 0.190114 0
M  V30 1091 H 108.49 1.94175 -0.142832 0
M  V30 1092 H 106.661 3.36757 1.93518 0
M  V30 1093 H 108.393 3.59976 1.84931 0
M  V30 1094 H 105.148 4.73266 0.177908 0
M  V30 1095 H 105.572 6.55035 -1.71049 0
M  V30 1096 H 110.214 4.22788 0.032022 0
M  V30 1097 H 107.932 7.5152 -2.97057 0
M  V30 1098 H 111.518 5.60656 -1.55423 0
M  V30 1099 H 110.398 7.2308 -3.03522 0
M  V30 1100 N 107.901 -0.206675 1.56239 0
M  V30 1101 C 108.811 -1.27686 1.96808 0
M  V30 1102 C 109.827 -1.50455 0.874035 0
M  V30 1103 O 111.003 -1.63295 1.17884 0
M  V30 1104 C 108.068 -2.60358 2.28942 0
M  V30 1105 C 107.129 -2.45762 3.51994 0
M  V30 1106 C 106.362 -3.72108 3.82585 0
M  V30 1107 O 106.585 -4.75776 3.14631 0
M  V30 1108 O 105.519 -3.6833 4.76043 0
M  V30 1109 H 109.345 -0.962593 2.88041 0
M  V30 1110 H 106.93 -0.410746 1.43643 0
M  V30 1111 H 108.812 -3.38687 2.50737 0
M  V30 1112 H 107.487 -2.91435 1.4088 0
M  V30 1113 H 106.394 -1.65584 3.35459 0
M  V30 1114 H 107.727 -2.19621 4.40486 0
M  V30 1115 N 109.379 -1.50304 -0.473955 0
M  V30 1116 C 110.795 -1.37667 -0.807466 0
M  V30 1117 C 110.995 -0.430555 -1.96846 0
M  V30 1118 O 110.051 0.127874 -2.52176 0
M  V30 1119 C 111.364 -2.78974 -1.12223 0
M  V30 1120 C 112.912 -2.87868 -1.22885 0
M  V30 1121 C 113.387 -4.30003 -1.57676 0
M  V30 1122 N 114.878 -4.3294 -1.64673 0
M  V30 1123 C 115.613 -5.3991 -1.93091 0
M  V30 1124 N 115.109 -6.57092 -2.1955 0
M  V30 1125 N 116.902 -5.27351 -1.94569 0
M  V30 1126 H 109.053 -2.10394 0.291212 0
M  V30 1127 H 111.316 -0.945575 0.0677609 0
M  V30 1128 H 111.022 -3.50031 -0.342229 0
M  V30 1129 H 110.896 -3.16038 -2.05913 0
M  V30 1130 H 113.283 -2.17032 -1.99953 0
M  V30 1131 H 113.364 -2.54352 -0.271814 0
M  V30 1132 H 113.008 -5.01375 -0.81149 0
M  V30 1133 H 112.938 -4.61004 -2.54525 0
M  V30 1134 H 115.429 -3.48441 -1.46277 0
M  V30 1135 H 115.742 -7.34425 -2.405 0
M  V30 1136 H 114.087 -6.60272 -2.16948 0
M  V30 1137 H 117.278 -4.34801 -1.73394 0
M  V30 1138 H 117.451 -6.10805 -2.16381 0
M  V30 1139 N 110.857 0.726932 -1.39834 0
M  V30 1140 C 111.787 1.85405 -1.41941 0
M  V30 1141 C 112.768 1.67751 -0.281728 0
M  V30 1142 O 113.953 1.8795 -0.488717 0
M  V30 1143 C 111.083 3.23243 -1.2701 0
M  V30 1144 C 110.037 3.55549 -2.38262 0
M  V30 1145 C 109.363 4.9241 -2.08415 0
M  V30 1146 C 110.663 3.577 -3.80589 0
M  V30 1147 H 112.357 1.83899 -2.36266 0
M  V30 1148 H 109.903 0.883349 -1.13723 0
M  V30 1149 H 111.856 4.01775 -1.27103 0
M  V30 1150 H 110.58 3.25296 -0.291564 0
M  V30 1151 H 109.239 2.79351 -2.37399 0
M  V30 1152 H 108.887 4.91052 -1.0898 0
M  V30 1153 H 108.587 5.14992 -2.82943 0
M  V30 1154 H 110.111 5.73289 -2.10171 0
M  V30 1155 H 111.525 4.26293 -3.83337 0
M  V30 1156 H 109.922 3.91804 -4.54543 0
M  V30 1157 H 110.992 2.57328 -4.10987 0
M  V30 1158 N 112.336 1.25143 0.95797 0
M  V30 1159 C 113.752 1.01892 1.22842 0
M  V30 1160 C 113.952 -0.266311 1.99732 0
M  V30 1161 O 113.008 -0.979913 2.3271 0
M  V30 1162 C 114.321 2.24004 2.00606 0
M  V30 1163 C 115.869 2.28731 2.13662 0
M  V30 1164 C 116.344 3.5049 2.94823 0
M  V30 1165 N 117.835 3.50866 3.02403 0
M  V30 1166 C 118.57 4.4174 3.65586 0
M  V30 1167 N 118.066 5.42882 4.30408 0
M  V30 1168 N 119.859 4.29429 3.62694 0
M  V30 1169 H 112.01 2.07718 0.443493 0
M  V30 1170 H 114.273 0.912031 0.258657 0
M  V30 1171 H 113.979 3.17395 1.51503 0
M  V30 1172 H 113.853 2.26907 3.01319 0
M  V30 1173 H 116.24 1.35865 2.61963 0
M  V30 1174 H 116.321 2.29848 1.12265 0
M  V30 1175 H 115.965 4.43676 2.47213 0
M  V30 1176 H 115.895 3.46617 3.96439 0
M  V30 1177 H 118.386 2.777 2.56302 0
M  V30 1178 H 118.699 6.0844 4.76467 0
M  V30 1179 H 117.044 5.46758 4.29047 0
M  V30 1180 H 120.235 3.49643 3.11236 0
M  V30 1181 H 120.408 5.00448 4.1165 0
M  V30 1182 N 113.814 -1.1601 1.06675 0
M  V30 1183 C 115.042 -1.90527 0.806667 0
M  V30 1184 C 115.457 -1.77643 -0.639396 0
M  V30 1185 O 114.814 -1.12369 -1.43803 0
M  V30 1186 C 114.865 -3.41106 1.19705 0
M  V30 1187 O 114.586 -3.53608 2.58636 0
M  V30 1188 C 116.087 -4.32663 0.965266 0
M  V30 1189 H 113.307 -0.604053 0.292166 0
M  V30 1190 H 115.851 -1.47026 1.4214 0
M  V30 1191 H 114.006 -3.82296 0.626774 0
M  V30 1192 H 114.42 -4.47011 2.74375 0
M  V30 1193 H 115.894 -5.36763 1.288 0
M  V30 1194 H 116.371 -4.39089 -0.0987936 0
M  V30 1195 H 116.977 -3.97206 1.52011 0
M  V30 1196 N 115.292 -0.849877 -1.32721 0
M  V30 1197 C 116.539 -0.450923 -1.97416 0
M  V30 1198 C 116.867 0.992376 -1.67279 0
M  V30 1199 O 116.122 1.71048 -0.950845 0
M  V30 1200 C 116.421 -0.631272 -3.51781 0
M  V30 1201 C 116.087 -2.04432 -4.01894 0
M  V30 1202 C 114.749 -2.4308 -4.1529 0
M  V30 1203 C 117.101 -2.96679 -4.28522 0
M  V30 1204 C 114.429 -3.73257 -4.52654 0
M  V30 1205 C 116.781 -4.26349 -4.67343 0
M  V30 1206 C 115.445 -4.64939 -4.78945 0
M  V30 1207 H 114.715 -0.165004 -0.722395 0
M  V30 1208 H 117.362 -1.07901 -1.58207 0
M  V30 1209 H 115.667 0.0800767 -3.91718 0
M  V30 1210 H 117.364 -0.302709 -3.99856 0
M  V30 1211 H 113.954 -1.73419 -3.91949 0
M  V30 1212 H 118.138 -2.68054 -4.17685 0
M  V30 1213 H 113.394 -4.02946 -4.59831 0
M  V30 1214 H 117.568 -4.97895 -4.86902 0
M  V30 1215 H 115.195 -5.65855 -5.07654 0
M  V30 1216 N 116.77 1.45427 -0.607355 0
M  V30 1217 C 118.186 1.57283 -0.270985 0
M  V30 1218 C 118.386 1.59875 1.22647 0
M  V30 1219 O 117.442 1.52893 2.00948 0
M  V30 1220 C 118.755 2.85566 -0.941952 0
M  V30 1221 C 120.303 2.9924 -0.917849 0
M  V30 1222 C 120.778 4.30293 -1.56882 0
M  V30 1223 N 122.269 4.37051 -1.5343 0
M  V30 1224 C 123.004 5.37123 -2.00715 0
M  V30 1225 N 122.5 6.43734 -2.56084 0
M  V30 1226 N 124.293 5.28479 -1.91484 0
M  V30 1227 H 116.444 1.41988 -1.57966 0
M  V30 1228 H 118.707 0.67885 -0.661715 0
M  V30 1229 H 118.413 2.8955 -1.99633 0
M  V30 1230 H 118.287 3.74322 -0.465096 0
M  V30 1231 H 120.674 2.94822 0.127984 0
M  V30 1232 H 120.755 2.11895 -1.43297 0
M  V30 1233 H 120.399 4.35469 -2.61398 0
M  V30 1234 H 120.329 5.16454 -1.02873 0
M  V30 1235 H 122.82 3.60615 -1.12982 0
M  V30 1236 H 123.133 7.16341 -2.89958 0
M  V30 1237 H 121.478 6.44485 -2.60122 0
M  V30 1238 H 124.669 4.44098 -1.47967 0
M  V30 1239 H 124.842 6.0632 -2.28648 0
M  V30 1240 N 118.248 0.346503 1.53744 0
M  V30 1241 C 119.195 -0.508914 2.25119 0
M  V30 1242 C 120.165 -1.09315 1.25058 0
M  V30 1243 O 121.35 -1.12921 1.53797 0
M  V30 1244 C 118.49 -1.65246 3.02965 0
M  V30 1245 C 117.603 -1.09525 4.17886 0
M  V30 1246 C 116.738 -2.20634 4.83212 0
M  V30 1247 C 115.777 -1.62279 5.90196 0
M  V30 1248 N 114.914 -2.67143 6.49291 0
M  V30 1249 H 119.754 0.106283 2.9781 0
M  V30 1250 H 117.291 0.0642227 1.4696 0
M  V30 1251 H 119.249 -2.32574 3.4636 0
M  V30 1252 H 117.879 -2.2386 2.32565 0
M  V30 1253 H 116.931 -0.312818 3.79112 0
M  V30 1254 H 118.243 -0.628444 4.94825 0
M  V30 1255 H 117.397 -2.95821 5.29693 0
M  V30 1256 H 116.136 -2.70659 4.05703 0
M  V30 1257 H 115.141 -0.855989 5.43096 0
M  V30 1258 H 116.366 -1.13102 6.69615 0
M  V30 1259 H 114.312 -3.16417 5.74645 0
M  V30 1260 H 114.229 -2.25093 7.21713 0
M  V30 1261 H 115.497 -3.4209 7.00425 0
M  V30 1262 N 119.726 -1.57421 0.075193 0
M  V30 1263 C 120.656 -2.15942 -0.888324 0
M  V30 1264 C 121.637 -1.08737 -1.30806 0
M  V30 1265 O 122.822 -1.36787 -1.37851 0
M  V30 1266 C 119.952 -2.72379 -2.1547 0
M  V30 1267 C 118.906 -3.8478 -1.87425 0
M  V30 1268 C 118.232 -4.27834 -3.20721 0
M  V30 1269 C 119.532 -5.08869 -1.17684 0
M  V30 1270 H 121.226 -2.96705 -0.400799 0
M  V30 1271 H 118.772 -1.42723 -0.191342 0
M  V30 1272 H 120.725 -3.11965 -2.83295 0
M  V30 1273 H 119.449 -1.88841 -2.6647 0
M  V30 1274 H 118.108 -3.45703 -1.22004 0
M  V30 1275 H 117.756 -3.41214 -3.6957 0
M  V30 1276 H 117.456 -5.03605 -3.02746 0
M  V30 1277 H 118.98 -4.70039 -3.89738 0
M  V30 1278 H 120.394 -5.4575 -1.75584 0
M  V30 1279 H 118.791 -5.8994 -1.09956 0
M  V30 1280 H 119.861 -4.84648 -0.156453 0
M  V30 1281 N 121.204 0.198386 -1.56346 0
M  V30 1282 C 122.137 1.27381 -1.89339 0
M  V30 1283 C 123.115 1.44106 -0.753134 0
M  V30 1284 O 124.299 1.59549 -1.00381 0
M  V30 1285 C 121.426 2.6409 -2.12071 0
M  V30 1286 C 120.472 2.64253 -3.34772 0
M  V30 1287 S 121.305 2.16013 -4.89999 0
M  V30 1288 C 122.461 3.54553 -5.15794 0
M  V30 1289 H 122.694 0.992058 -2.8026 0
M  V30 1290 H 120.227 0.401726 -1.49082 0
M  V30 1291 H 122.185 3.42786 -2.2585 0
M  V30 1292 H 120.846 2.89478 -1.21906 0
M  V30 1293 H 120.039 3.64768 -3.47794 0
M  V30 1294 H 119.641 1.93637 -3.1997 0
M  V30 1295 H 121.933 4.50396 -5.06112 0
M  V30 1296 H 122.876 3.46428 -6.1757 0
M  V30 1297 H 123.284 3.49313 -4.43442 0
M  V30 1298 N 122.682 1.50554 0.465978 0
M  V30 1299 C 124.093 1.54599 1.04671 0
M  V30 1300 C 124.444 0.352488 1.93008 0
M  V30 1301 O 123.569 -0.534044 2.09707 0
M  V30 1302 C 124.164 2.80166 1.90505 0
M  V30 1303 C 122.723 2.86876 2.43678 0
M  V30 1304 C 121.87 2.48947 1.22151 0
M  V30 1305 H 124.821 1.56744 0.248384 0
M  V30 1306 H 124.842 2.62311 2.75633 0
M  V30 1307 H 124.354 3.67013 1.26186 0
M  V30 1308 H 122.455 2.04393 3.11536 0
M  V30 1309 H 122.568 3.89885 2.78436 0
M  V30 1310 H 120.932 2.01498 1.5579 0
M  V30 1311 H 121.715 3.38107 0.594866 0
M  V30 1312 N 124.16 -0.719506 1.40217 0
M  V30 1313 C 125.108 -1.85493 1.40339 0
M  V30 1314 C 126.102 -1.66995 0.284415 0
M  V30 1315 O 127.308 -1.74148 0.455252 0
M  V30 1316 H 123.683 -0.610857 0.438586 0
M  V30 1317 H 125.654 -1.82506 2.36081 0
M  V30 1318 C 124.403 -3.23321 1.27901 0
M  V30 1319 H 123.726 -3.38159 2.1328 0
M  V30 1320 H 125.166 -4.02914 1.32045 0
M  V30 1321 C 123.625 -3.36898 -0.0111355 0
M  V30 1322 O 124.155 -3.89674 -0.975538 0
M  V30 1323 N 122.361 -2.90492 -0.0793393 0
M  V30 1324 H 121.908 -2.47731 0.706183 0
M  V30 1325 H 121.866 -2.99955 -0.942038 0
M  V30 1326 N 125.638 -1.25649 -0.95132 0
M  V30 1327 C 126.863 -1.13443 -1.73624 0
M  V30 1328 C 127.288 0.307565 -1.85568 0
M  V30 1329 O 126.646 1.22282 -1.33854 0
M  V30 1330 C 126.694 -1.79723 -3.12621 0
M  V30 1331 O 125.798 -1.07912 -3.98031 0
M  V30 1332 H 125.139 -0.395872 -0.533086 0
M  V30 1333 H 127.669 -1.66276 -1.1922 0
M  V30 1334 H 127.679 -1.86141 -3.63064 0
M  V30 1335 H 126.354 -2.84633 -3.03244 0
M  V30 1336 H 124.931 -1.09398 -3.56492 0
M  V30 1337 N 127.117 1.15442 -1.07289 0
M  V30 1338 C 128.533 1.38201 -0.798288 0
M  V30 1339 C 128.733 1.92429 0.597769 0
M  V30 1340 O 127.789 2.12962 1.3566 0
M  V30 1341 C 129.102 2.35357 -1.87156 0
M  V30 1342 C 130.65 2.49021 -1.89624 0
M  V30 1343 C 131.125 3.49468 -2.96034 0
M  V30 1344 N 132.616 3.57003 -2.95132 0
M  V30 1345 C 133.351 4.34543 -3.74112 0
M  V30 1346 N 132.847 5.15421 -4.6294 0
M  V30 1347 N 134.64 4.29625 -3.62462 0
M  V30 1348 H 126.791 0.78584 -1.97328 0
M  V30 1349 H 129.054 0.408065 -0.855679 0
M  V30 1350 H 128.76 2.02626 -2.87464 0
M  V30 1351 H 128.634 3.35129 -1.73114 0
M  V30 1352 H 131.021 2.81051 -0.899687 0
M  V30 1353 H 131.102 1.4925 -2.07745 0
M  V30 1354 H 130.746 3.18173 -3.95889 0
M  V30 1355 H 130.676 4.48992 -2.75161 0
M  V30 1356 H 133.167 2.99276 -2.30743 0
M  V30 1357 H 133.48 5.7183 -5.19837 0
M  V30 1358 H 131.825 5.14729 -4.66989 0
M  V30 1359 H 135.016 3.65505 -2.92444 0
M  V30 1360 H 135.189 4.89807 -4.24256 0
M  V30 1361 N 128.595 0.856903 1.32268 0
M  V30 1362 C 129.525 0.31858 2.31316 0
M  V30 1363 C 130.506 -0.583487 1.59779 0
M  V30 1364 O 131.691 -0.503259 1.87566 0
M  V30 1365 C 128.821 -0.491979 3.43798 0
M  V30 1366 C 127.775 0.315849 4.26833 0
M  V30 1367 C 127.101 -0.619586 5.31098 0
M  V30 1368 C 128.401 1.54282 4.98993 0
M  V30 1369 H 130.095 1.14621 2.76591 0
M  V30 1370 H 127.641 0.552613 1.32974 0
M  V30 1371 H 129.594 -0.879012 4.1213 0
M  V30 1372 H 128.318 -1.35299 2.97257 0
M  V30 1373 H 126.977 0.684664 3.6015 0
M  V30 1374 H 126.625 -1.47751 4.8081 0
M  V30 1375 H 126.325 -0.0830621 5.87541 0
M  V30 1376 H 127.849 -1.00375 6.02293 0
M  V30 1377 H 129.263 1.22796 5.59995 0
M  V30 1378 H 127.66 2.01745 5.65172 0
M  V30 1379 H 128.73 2.30285 4.26728 0
M  V30 1380 N 130.073 -1.45103 0.615059 0
M  V30 1381 C 131.005 -2.28786 -0.13762 0
M  V30 1382 C 132.018 -1.40376 -0.824525 0
M  V30 1383 O 133.207 -1.64681 -0.688662 0
M  V30 1384 C 130.307 -3.16322 -1.21628 0
M  V30 1385 C 129.48 -4.33054 -0.615039 0
M  V30 1386 C 128.539 -5.01743 -1.58556 0
M  V30 1387 O 127.565 -5.58293 -1.10895 0
M  V30 1388 N 128.767 -5.01714 -2.91998 0
M  V30 1389 H 131.532 -2.94025 0.580483 0
M  V30 1390 H 129.093 -1.55373 0.45507 0
M  V30 1391 H 131.085 -3.59139 -1.86552 0
M  V30 1392 H 129.655 -2.52943 -1.83681 0
M  V30 1393 H 128.875 -3.93627 0.21245 0
M  V30 1394 H 130.163 -5.08431 -0.193704 0
M  V30 1395 H 129.561 -4.57075 -3.33316 0
M  V30 1396 H 128.118 -5.48371 -3.52325 0
M  V30 1397 N 131.551 -0.354651 -1.53558 0
M  V30 1398 C 132.484 0.540273 -2.21712 0
M  V30 1399 C 133.462 1.09161 -1.2051 0
M  V30 1400 O 134.646 1.14979 -1.49372 0
M  V30 1401 C 131.773 1.74435 -2.90328 0
M  V30 1402 C 130.819 1.32146 -4.05512 0
M  V30 1403 S 131.652 0.331924 -5.3447 0
M  V30 1404 C 132.808 1.54258 -6.06593 0
M  V30 1405 H 133.041 -0.0385776 -2.97275 0
M  V30 1406 H 130.574 -0.138736 -1.53775 0
M  V30 1407 H 132.532 2.43507 -3.30476 0
M  V30 1408 H 131.193 2.29444 -2.1451 0
M  V30 1409 H 130.386 2.21952 -4.52497 0
M  V30 1410 H 129.988 0.710091 -3.67197 0
M  V30 1411 H 132.28 2.47534 -6.30661 0
M  V30 1412 H 133.223 1.11431 -6.99277 0
M  V30 1413 H 133.631 1.74367 -5.36895 0
M  V30 1414 N 133.029 1.57378 -0.0835403 0
M  V30 1415 C 133.959 2.1641 0.87686 0
M  V30 1416 C 134.94 1.09429 1.30228 0
M  V30 1417 O 136.125 1.37516 1.37124 0
M  V30 1418 C 133.255 2.73517 2.14022 0
M  V30 1419 C 132.209 3.85769 1.85381 0
M  V30 1420 C 131.535 4.29529 3.18448 0
M  V30 1421 C 132.835 5.09486 1.14984 0
M  V30 1422 H 134.529 2.96914 0.385059 0
M  V30 1423 H 132.075 1.42823 0.18377 0
M  V30 1424 H 134.028 3.13463 2.81636 0
M  V30 1425 H 132.752 1.90252 2.65465 0
M  V30 1426 H 131.411 3.46345 1.20169 0
M  V30 1427 H 131.059 3.43169 3.67755 0
M  V30 1428 H 130.759 5.05204 3.00071 0
M  V30 1429 H 132.283 4.72099 3.8724 0
M  V30 1430 H 133.697 5.46674 1.72687 0
M  V30 1431 H 132.094 5.90515 1.06826 0
M  V30 1432 H 133.164 4.84724 0.130749 0
M  V30 1433 N 134.507 -0.190092 1.56449 0
M  V30 1434 C 135.437 -1.23816 1.97969 0
M  V30 1435 C 136.418 -1.47201 0.852395 0
M  V30 1436 O 137.603 -1.58854 1.1171 0
M  V30 1437 C 134.733 -2.5813 2.3235 0
M  V30 1438 C 133.687 -2.49348 3.47864 0
M  V30 1439 C 133.013 -3.8798 3.67934 0
M  V30 1440 C 134.313 -2.01424 4.81898 0
M  V30 1441 H 136.007 -0.89311 2.85769 0
M  V30 1442 H 133.553 -0.428177 1.37487 0
M  V30 1443 H 135.506 -3.31637 2.59991 0
M  V30 1444 H 134.23 -2.94386 1.41438 0
M  V30 1445 H 132.889 -1.78297 3.20321 0
M  V30 1446 H 132.537 -4.21597 2.74344 0
M  V30 1447 H 132.237 -3.82978 4.45648 0
M  V30 1448 H 133.761 -4.63101 3.97957 0
M  V30 1449 H 135.175 -2.64693 5.08538 0
M  V30 1450 H 133.572 -2.07413 5.63116 0
M  V30 1451 H 134.642 -0.967677 4.75146 0
M  V30 1452 N 135.985 -1.50799 -0.457987 0
M  V30 1453 C 137.401 -1.38515 -0.792819 0
M  V30 1454 C 137.601 -0.451409 -1.96379 0
M  V30 1455 O 136.657 0.10112 -2.52297 0
M  V30 1456 C 137.97 -2.80149 -1.09258 0
M  V30 1457 C 139.518 -2.89156 -1.19825 0
M  V30 1458 C 139.993 -4.31651 -1.53106 0
M  V30 1459 N 141.484 -4.34662 -1.60072 0
M  V30 1460 C 142.219 -5.41928 -1.87354 0
M  V30 1461 N 141.715 -6.59384 -2.12568 0
M  V30 1462 N 143.508 -5.29385 -1.88965 0
M  V30 1463 H 135.659 -2.10073 0.313511 0
M  V30 1464 H 137.922 -0.944803 0.0777862 0
M  V30 1465 H 137.628 -3.50374 -0.305084 0
M  V30 1466 H 137.502 -3.18204 -2.02549 0
M  V30 1467 H 139.889 -2.19141 -1.97639 0
M  V30 1468 H 139.97 -2.54626 -0.244821 0
M  V30 1469 H 139.614 -5.02208 -0.758266 0
M  V30 1470 H 139.544 -4.63678 -2.49621 0
M  V30 1471 H 142.035 -3.49973 -1.42573 0
M  V30 1472 H 142.348 -7.36934 -2.32696 0
M  V30 1473 H 140.693 -6.62535 -2.09933 0
M  V30 1474 H 143.884 -4.36616 -1.68772 0
M  V30 1475 H 144.057 -6.13066 -2.09891 0
M  V30 1476 N 137.463 0.71206 -1.40597 0
M  V30 1477 C 138.711 1.46907 -1.38791 0
M  V30 1478 C 139.032 1.94998 0.00780391 0
M  V30 1479 O 138.302 1.70587 0.963174 0
M  V30 1480 H 136.882 0.545043 -0.51082 0
M  V30 1481 H 139.544 0.843882 -1.75683 0
M  V30 1482 H 138.64 2.34021 -2.06496 0
M  V30 1483 N 138.941 1.26152 0.944643 0
M  V30 1484 C 139.873 1.03199 2.04652 0
M  V30 1485 C 140.886 -0.00642356 1.62799 0
M  V30 1486 O 142.075 0.233263 1.76969 0
M  V30 1487 C 139.175 0.540111 3.34568 0
M  V30 1488 C 138.348 1.64697 4.05208 0
M  V30 1489 C 137.407 1.15374 5.13396 0
M  V30 1490 O 136.433 1.85013 5.38293 0
M  V30 1491 N 137.635 0.00031529 5.805 0
M  V30 1492 H 140.4 1.9808 2.2491 0
M  V30 1493 H 137.961 1.17491 1.11389 0
M  V30 1494 H 139.953 0.194401 4.04233 0
M  V30 1495 H 138.523 -0.315021 3.11009 0
M  V30 1496 H 137.743 2.16379 3.29506 0
M  V30 1497 H 139.031 2.3903 4.49157 0
M  V30 1498 H 138.429 -0.581336 5.62705 0
M  V30 1499 H 136.986 -0.286346 6.51171 0
M  V30 1500 N 140.419 -1.14872 1.07899 0
M  V30 1501 C 141.367 -2.21857 0.698727 0
M  V30 1502 C 142.361 -1.66845 -0.293086 0
M  V30 1503 O 143.567 -1.79321 -0.156204 0
M  V30 1504 H 139.942 -0.722691 0.207899 0
M  V30 1505 H 141.913 -2.51205 1.61054 0
M  V30 1506 C 140.662 -3.47498 0.11858 0
M  V30 1507 H 139.985 -3.90154 0.872914 0
M  V30 1508 H 141.425 -4.23858 -0.109759 0
M  V30 1509 C 139.884 -3.16947 -1.1422 0
M  V30 1510 O 140.414 -3.3426 -2.22785 0
M  V30 1511 N 138.62 -2.70946 -1.05055 0
M  V30 1512 H 138.167 -2.57058 -0.167038 0
M  V30 1513 H 138.125 -2.50879 -1.89491 0
M  V30 1514 N 141.898 -0.863906 -1.31812 0
M  V30 1515 C 142.828 -0.330843 -2.31144 0
M  V30 1516 C 143.809 0.575005 -1.60087 0
M  V30 1517 O 144.994 0.493304 -1.8783 0
M  V30 1518 C 142.124 0.47374 -3.44054 0
M  V30 1519 C 141.078 -0.338481 -4.26659 0
M  V30 1520 C 140.404 0.591412 -5.31419 0
M  V30 1521 C 141.704 -1.56926 -4.98168 0
M  V30 1522 H 143.398 -1.16086 -2.75979 0
M  V30 1523 H 140.944 -0.559657 -1.32679 0
M  V30 1524 H 142.897 0.857143 -4.12591 0
M  V30 1525 H 141.621 1.33721 -2.9797 0
M  V30 1526 H 140.28 -0.703754 -3.59782 0
M  V30 1527 H 139.928 1.45199 -4.81587 0
M  V30 1528 H 139.628 0.0519022 -5.87577 0
M  V30 1529 H 141.152 0.97179 -6.02817 0
M  V30 1530 H 142.566 -1.25764 -5.59336 0
M  V30 1531 H 140.963 -2.04739 -5.64094 0
M  V30 1532 H 142.033 -2.32544 -4.25501 0
M  V30 1533 N 143.376 1.44774 -0.622745 0
M  V30 1534 C 144.306 2.33382 0.0741861 0
M  V30 1535 C 145.287 1.47719 0.843387 0
M  V30 1536 O 146.472 1.76458 0.810934 0
M  V30 1537 C 143.602 3.30663 1.06204 0
M  V30 1538 C 142.556 4.26079 0.405037 0
M  V30 1539 C 141.882 5.13165 1.5022 0
M  V30 1540 C 143.182 5.1781 -0.683414 0
M  V30 1541 H 144.876 2.91905 -0.665713 0
M  V30 1542 H 142.422 1.40363 -0.321587 0
M  V30 1543 H 144.375 3.9153 1.55827 0
M  V30 1544 H 143.099 2.70331 1.83272 0
M  V30 1545 H 141.758 3.66532 -0.0704683 0
M  V30 1546 H 141.406 4.49191 2.26355 0
M  V30 1547 H 141.106 5.77812 1.06803 0
M  V30 1548 H 142.63 5.76902 2.00041 0
M  V30 1549 H 144.044 5.72661 -0.270631 0
M  V30 1550 H 142.441 5.91015 -1.04023 0
M  V30 1551 H 143.511 4.59326 -1.55395 0
M  V30 1552 N 144.854 0.36279 1.53368 0
M  V30 1553 C 146.102 -0.227326 2.00817 0
M  V30 1554 C 146.423 -1.49511 1.25186 0
M  V30 1555 O 145.693 -1.92482 0.364348 0
M  V30 1556 H 144.273 -0.0869923 0.741917 0
M  V30 1557 H 146.935 0.488381 1.88682 0
M  V30 1558 H 146.031 -0.456273 3.08747 0
M  V30 1559 N 146.332 -1.57332 0.0918853 0
M  V30 1560 C 147.562 -1.98286 -0.580205 0
M  V30 1561 C 147.97 -0.969713 -1.6246 0
M  V30 1562 O 147.313 0.0493501 -1.83634 0
M  V30 1563 C 147.375 -3.35603 -1.28882 0
M  V30 1564 C 147.039 -4.55285 -0.395559 0
M  V30 1565 C 148.036 -5.18687 0.355002 0
M  V30 1566 C 145.721 -5.01314 -0.314556 0
M  V30 1567 C 147.715 -6.26484 1.17458 0
M  V30 1568 C 145.402 -6.08979 0.508677 0
M  V30 1569 C 146.4 -6.71429 1.2519 0
M  V30 1570 O 146.088 -7.77018 2.06151 0
M  V30 1571 H 145.82 -0.656678 -0.160466 0
M  V30 1572 H 148.374 -2.04721 0.16688 0
M  V30 1573 H 146.604 -3.25842 -2.08241 0
M  V30 1574 H 148.293 -3.61026 -1.85512 0
M  V30 1575 H 149.059 -4.84058 0.302134 0
M  V30 1576 H 144.938 -4.5247 -0.882697 0
M  V30 1577 H 148.482 -6.75159 1.75518 0
M  V30 1578 H 144.379 -6.4304 0.563037 0
M  V30 1579 H 145.147 -7.93991 1.98799 0
M  V30 1580 N 147.81 0.181792 -1.56548 0
M  V30 1581 C 149.226 0.53316 -1.50431 0
M  V30 1582 C 149.426 1.85184 -0.794297 0
M  V30 1583 O 148.482 2.50058 -0.350318 0
M  V30 1584 C 149.795 0.575597 -2.9514 0
M  V30 1585 C 151.343 0.663519 -3.05886 0
M  V30 1586 C 151.818 0.736946 -4.52032 0
M  V30 1587 N 153.309 0.800118 -4.56237 0
M  V30 1588 C 154.044 0.877327 -5.66649 0
M  V30 1589 N 153.54 0.916016 -6.86718 0
M  V30 1590 N 155.333 0.915542 -5.54594 0
M  V30 1591 H 147.484 -0.683025 -2.01118 0
M  V30 1592 H 149.747 -0.244988 -0.915797 0
M  V30 1593 H 149.453 -0.324482 -3.502 0
M  V30 1594 H 149.327 1.42572 -3.49218 0
M  V30 1595 H 151.714 1.55403 -2.50867 0
M  V30 1596 H 151.795 -0.21307 -2.54911 0
M  V30 1597 H 151.439 -0.149262 -5.07681 0
M  V30 1598 H 151.369 1.62953 -5.00753 0
M  V30 1599 H 153.86 0.778926 -3.69785 0
M  V30 1600 H 154.173 0.975813 -7.66614 0
M  V30 1601 H 152.518 0.884469 -6.89349 0
M  V30 1602 H 155.709 0.882245 -4.59711 0
M  V30 1603 H 155.882 0.972253 -6.40665 0
M  V30 1604 N 149.288 1.51039 0.449983 0
M  V30 1605 C 150.238 1.67824 1.54335 0
M  V30 1606 C 151.222 0.5324 1.51836 0
M  V30 1607 O 152.414 0.787762 1.58503 0
M  V30 1608 C 149.543 1.7951 2.92628 0
M  V30 1609 C 148.629 2.99838 2.9993 0
M  V30 1610 N 149.02 4.23207 2.77001 0
M  V30 1611 C 147.318 2.98832 3.31082 0
M  V30 1612 C 148.019 5.04361 2.89818 0
M  V30 1613 N 146.995 4.38746 3.2094 0
M  V30 1614 H 150.797 2.60884 1.35339 0
M  V30 1615 H 148.311 1.48513 0.657085 0
M  V30 1616 H 150.308 1.89642 3.7127 0
M  V30 1617 H 148.968 0.876227 3.12654 0
M  V30 1618 H 149.979 4.5236 2.52172 0
M  V30 1619 H 146.656 2.16527 3.56963 0
M  V30 1620 H 148.046 6.12528 2.76151 0
M  V30 1621 N 150.766 -0.704594 1.40972 0
M  V30 1622 C 151.996 -1.49138 1.42974 0
M  V30 1623 C 152.404 -1.89175 0.0308406 0
M  V30 1624 O 151.747 -1.56734 -0.958138 0
M  V30 1625 C 151.809 -2.79016 2.26694 0
M  V30 1626 C 151.473 -2.61236 3.74973 0
M  V30 1627 C 152.47 -2.27773 4.67349 0
M  V30 1628 C 150.155 -2.77158 4.18914 0
M  V30 1629 C 152.149 -2.10457 6.01653 0
M  V30 1630 C 149.836 -2.59459 5.53285 0
M  V30 1631 C 150.834 -2.26158 6.4447 0
M  V30 1632 O 150.522 -2.08605 7.76363 0
M  V30 1633 H 150.254 -0.466443 0.489292 0
M  V30 1634 H 152.808 -0.8758 1.85793 0
M  V30 1635 H 151.038 -3.42947 1.78673 0
M  V30 1636 H 152.727 -3.40782 2.20504 0
M  V30 1637 H 153.493 -2.15095 4.34694 0
M  V30 1638 H 149.372 -3.02064 3.48251 0
M  V30 1639 H 152.916 -1.84387 6.72791 0
M  V30 1640 H 148.813 -2.71725 5.85522 0
M  V30 1641 H 149.581 -2.23439 7.87412 0
M  V30 1642 N 152.244 -1.26651 -0.937939 0
M  V30 1643 C 153.192 -1.08308 -2.05845 0
M  V30 1644 C 154.186 -0.0090757 -1.69398 0
M  V30 1645 O 155.392 -0.166007 -1.79233 0
M  V30 1646 H 151.767 -0.333416 -0.674046 0
M  V30 1647 H 153.738 -2.03261 -2.18467 0
M  V30 1648 C 152.487 -0.736229 -3.39816 0
M  V30 1649 H 151.81 -1.55453 -3.6834 0
M  V30 1650 H 153.25 -0.64769 -4.19024 0
M  V30 1651 C 151.709 0.558824 -3.32233 0
M  V30 1652 O 152.239 1.59621 -3.68624 0
M  V30 1653 N 150.445 0.550657 -2.85335 0
M  V30 1654 H 149.992 -0.293943 -2.55917 0
M  V30 1655 H 149.95 1.41726 -2.80644 0
M  V30 1656 N 153.722 1.14298 -1.08507 0
M  V30 1657 C 154.999 1.81544 -0.728088 0
M  V30 1658 C 155.379 1.95838 0.78808 0
M  V30 1659 O 154.727 1.51904 1.70697 0
M  V30 1660 C 154.937 3.17169 -1.45619 0
M  V30 1661 C 156.285 3.9265 -1.61591 0
M  V30 1662 O 157.309 3.26762 -1.41793 0
M  V30 1663 O 156.168 5.10807 -1.94263 0
M  V30 1664 H 153.262 0.78491 -0.260471 0
M  V30 1665 H 155.808 1.21307 -1.18671 0
M  V30 1666 H 154.58 3.01934 -2.489 0
M  V30 1667 H 154.203 3.851 -0.989124 0
M  V30 1668 N 155.201 0.870884 1.31352 0
M  V30 1669 C 156.111 0.330783 2.32256 0
M  V30 1670 C 157.127 -0.559767 1.6475 0
M  V30 1671 O 158.303 -0.456263 1.96164 0
M  V30 1672 C 155.368 -0.458137 3.4366 0
M  V30 1673 C 154.429 0.460482 4.26823 0
M  V30 1674 C 153.662 -0.290881 5.32907 0
M  V30 1675 O 153.885 -1.51885 5.49806 0
M  V30 1676 O 152.819 0.351732 6.00871 0
M  V30 1677 H 156.645 1.16718 2.80376 0
M  V30 1678 H 154.23 0.634285 1.35267 0
M  V30 1679 H 156.112 -0.905343 4.1156 0
M  V30 1680 H 154.787 -1.27106 2.97701 0
M  V30 1681 H 153.694 0.956207 3.61673 0
M  V30 1682 H 155.027 1.23903 4.7635 0
M  V30 1683 N 156.679 -1.44442 0.630414 0
M  V30 1684 C 157.925 -2.02351 0.134816 0
M  V30 1685 C 158.258 -1.4947 -1.23986 0
M  V30 1686 O 157.533 -0.678475 -1.82283 0
M  V30 1687 C 157.816 -3.59898 0.120707 0
M  V30 1688 C 157.669 -4.23063 1.52767 0
M  V30 1689 C 158.988 -4.36585 -0.555127 0
M  V30 1690 H 156.107 -0.73527 0.0504646 0
M  V30 1691 H 158.749 -1.72022 0.806751 0
M  V30 1692 H 156.899 -3.85868 -0.451477 0
M  V30 1693 H 158.571 -4.08202 2.14869 0
M  V30 1694 H 156.814 -3.80586 2.08175 0
M  V30 1695 H 157.485 -5.32071 1.46984 0
M  V30 1696 H 159.961 -4.16044 -0.0685429 0
M  V30 1697 H 158.837 -5.46294 -0.534185 0
M  V30 1698 H 159.098 -4.11138 -1.62535 0
M  V30 1699 N 158.157 -0.370918 -1.53173 0
M  V30 1700 C 159.403 0.217423 -2.01631 0
M  V30 1701 C 159.736 1.47983 -1.25756 0
M  V30 1702 O 159.011 1.91274 -0.352764 0
M  V30 1703 C 159.294 0.503982 -3.56556 0
M  V30 1704 C 159.147 -0.77243 -4.43118 0
M  V30 1705 C 160.466 1.30234 -4.20389 0
M  V30 1706 H 157.585 0.0775486 -0.732909 0
M  V30 1707 H 160.227 -0.496863 -1.83388 0
M  V30 1708 H 158.377 1.11248 -3.72231 0
M  V30 1709 H 160.049 -1.4098 -4.39229 0
M  V30 1710 H 158.292 -1.39167 -4.10871 0
M  V30 1711 H 158.963 -0.526815 -5.4948 0
M  V30 1712 H 161.439 0.787546 -4.08579 0
M  V30 1713 H 160.315 1.47158 -5.28806 0
M  V30 1714 H 160.576 2.31237 -3.76805 0
M  V30 1715 N 159.635 1.57281 -0.100228 0
M  V30 1716 C 160.912 1.86014 0.604812 0
M  V30 1717 C 161.292 0.998025 1.86018 0
M  V30 1718 O 160.64 0.0718184 2.28387 0
M  V30 1719 C 160.85 3.36784 0.915278 0
M  V30 1720 C 162.198 4.04957 1.27651 0
M  V30 1721 O 163.222 3.41695 1.00613 0
M  V30 1722 O 162.081 5.16593 1.7831 0
M  V30 1723 H 159.175 0.76942 0.303185 0
M  V30 1724 H 161.721 1.69176 -0.133313 0
M  V30 1725 H 160.493 3.91292 0.0248896 0
M  V30 1726 H 160.116 3.58987 1.70921 0
M  V30 1727 N 161.113 -0.173488 1.56642 0
M  V30 1728 C 162.529 -0.525174 1.50712 0
M  V30 1729 C 162.729 -1.8476 0.804107 0
M  V30 1730 O 161.785 -2.49869 0.363574 0
M  V30 1731 C 163.098 -0.559937 2.95441 0
M  V30 1732 C 164.646 -0.647288 3.06234 0
M  V30 1733 C 165.121 -0.712963 4.52417 0
M  V30 1734 N 166.612 -0.775911 4.56655 0
M  V30 1735 C 167.347 -0.847264 5.67106 0
M  V30 1736 N 166.843 -0.879585 6.87194 0
M  V30 1737 N 168.636 -0.886117 5.55071 0
M  V30 1738 H 160.787 0.693681 2.00753 0
M  V30 1739 H 163.05 0.249841 0.914485 0
M  V30 1740 H 162.756 0.343049 3.50023 0
M  V30 1741 H 162.63 -1.40718 3.49969 0
M  V30 1742 H 165.017 -1.5407 2.51687 0
M  V30 1743 H 165.098 0.226586 2.54794 0
M  V30 1744 H 164.742 0.176183 5.07594 0
M  V30 1745 H 164.672 -1.60295 5.0161 0
M  V30 1746 H 167.163 -0.759304 3.70193 0
M  V30 1747 H 167.476 -0.935144 7.67121 0
M  V30 1748 H 165.821 -0.847898 6.89808 0
M  V30 1749 H 169.012 -0.857853 4.60172 0
M  V30 1750 H 169.185 -0.938263 6.41171 0
M  V30 1751 N 162.591 -1.51276 -0.441967 0
M  V30 1752 C 163.838 -1.63715 -1.19179 0
M  V30 1753 C 164.166 -0.351175 -1.91303 0
M  V30 1754 O 163.421 0.664524 -1.84072 0
M  V30 1755 C 163.72 -2.78746 -2.23686 0
M  V30 1756 C 163.386 -4.18189 -1.68607 0
M  V30 1757 C 162.048 -4.56125 -1.53308 0
M  V30 1758 C 164.4 -5.05222 -1.28062 0
M  V30 1759 C 161.728 -5.78804 -0.959317 0
M  V30 1760 C 164.08 -6.28476 -0.721162 0
M  V30 1761 C 162.744 -6.65188 -0.55504 0
M  V30 1762 H 162.014 -0.599076 -0.436106 0
M  V30 1763 H 164.661 -1.85296 -0.48351 0
M  V30 1764 H 162.966 -2.51369 -3.00535 0
M  V30 1765 H 164.663 -2.8557 -2.81515 0
M  V30 1766 H 161.253 -3.88277 -1.8149 0
M  V30 1767 H 165.437 -4.76524 -1.38704 0
M  V30 1768 H 160.693 -6.05899 -0.81833 0
M  V30 1769 H 164.867 -6.95259 -0.398458 0
M  V30 1770 H 162.494 -7.60123 -0.108311 0
M  V30 1771 N 164.069 0.697108 -1.41344 0
M  V30 1772 C 165.315 1.4593 -1.40827 0
M  V30 1773 C 165.648 1.94193 -0.0167098 0
M  V30 1774 O 164.923 1.69425 0.955263 0
M  V30 1775 C 165.206 2.67229 -2.41373 0
M  V30 1776 C 165.059 2.24741 -3.8963 0
M  V30 1777 C 166.378 3.69423 -2.39196 0
M  V30 1778 H 163.497 0.529303 -0.512842 0
M  V30 1779 H 166.139 0.794112 -1.72609 0
M  V30 1780 H 164.289 3.23982 -2.14401 0
M  V30 1781 H 165.961 1.73327 -4.27499 0
M  V30 1782 H 164.204 1.56542 -4.0457 0
M  V30 1783 H 164.875 3.1177 -4.55525 0
M  V30 1784 H 167.351 3.2234 -2.63128 0
M  V30 1785 H 166.227 4.51907 -3.11563 0
M  V30 1786 H 166.488 4.19012 -1.41001 0
M  V30 1787 N 165.547 1.27147 0.931209 0
M  V30 1788 C 166.824 1.0401 1.65654 0
M  V30 1789 C 167.204 -0.426297 2.06751 0
M  V30 1790 O 166.552 -1.40879 1.79904 0
M  V30 1791 C 166.762 1.99834 2.86125 0
M  V30 1792 C 168.11 2.29007 3.57549 0
M  V30 1793 O 169.134 1.97779 2.96246 0
M  V30 1794 O 167.993 2.82222 4.67989 0
M  V30 1795 H 165.087 0.396239 0.725895 0
M  V30 1796 H 167.633 1.38397 0.982056 0
M  V30 1797 H 166.405 2.98744 2.52721 0
M  V30 1798 H 166.028 1.65987 3.61295 0
M  V30 1799 N 167.025 -1.13721 1.09112 0
M  V30 1800 C 167.972 -2.19031 0.727591 0
M  V30 1801 C 168.942 -1.63555 -0.289656 0
M  V30 1802 O 170.127 -1.90023 -0.172026 0
M  V30 1803 C 167.267 -3.4477 0.15082 0
M  V30 1804 C 166.38 -4.14365 1.22172 0
M  V30 1805 C 165.515 -5.27709 0.608042 0
M  V30 1806 C 164.554 -5.89147 1.66047 0
M  V30 1807 N 163.691 -6.93929 1.06806 0
M  V30 1808 H 168.531 -2.49475 1.62991 0
M  V30 1809 H 166.068 -1.22499 0.81439 0
M  V30 1810 H 168.026 -4.16714 -0.201358 0
M  V30 1811 H 166.656 -3.14787 -0.714783 0
M  V30 1812 H 165.708 -3.40737 1.69122 0
M  V30 1813 H 167.02 -4.56114 2.01895 0
M  V30 1814 H 166.174 -6.06355 0.204523 0
M  V30 1815 H 164.913 -4.872 -0.220769 0
M  V30 1816 H 163.918 -5.09198 2.07357 0
M  V30 1817 H 165.143 -6.31729 2.49189 0
M  V30 1818 H 163.089 -6.55483 0.260476 0
M  V30 1819 H 163.006 -7.34202 1.8023 0
M  V30 1820 H 164.274 -7.76434 0.690644 0
M  V30 1821 N 168.503 -0.877838 -1.30888 0
M  V30 1822 C 169.728 -0.506629 -2.01117 0
M  V30 1823 C 170.153 0.895564 -1.65412 0
M  V30 1824 O 169.511 1.5923 -0.866922 0
M  V30 1825 C 169.559 -0.680223 -3.54126 0
M  V30 1826 O 168.663 0.277033 -4.11468 0
M  V30 1827 H 168.004 -0.200518 -0.633 0
M  V30 1828 H 170.534 -1.18342 -1.66902 0
M  V30 1829 H 170.544 -0.5765 -4.03907 0
M  V30 1830 H 169.219 -1.70261 -3.79452 0
M  V30 1831 H 167.796 0.127606 -3.72682 0
M  V30 1832 N 169.982 1.44106 -0.638065 0
M  V30 1833 C 170.945 2.29138 0.0531013 0
M  V30 1834 C 171.945 1.41409 0.765506 0
M  V30 1835 O 173.135 1.63206 0.609046 0
M  V30 1836 C 170.267 3.23144 1.08584 0
M  V30 1837 H 171.46 2.91739 -0.694883 0
M  V30 1838 H 169.013 1.51134 -0.398538 0
M  V30 1839 H 169.748 2.65408 1.86357 0
M  V30 1840 H 169.533 3.87804 0.578852 0
M  V30 1841 H 171.023 3.87004 1.56899 0
M  V30 1842 N 171.46 0.379036 1.52974 0
M  V30 1843 C 172.37 -0.468639 2.29872 0
M  V30 1844 C 173.386 -1.08067 1.36373 0
M  V30 1845 O 174.562 -1.08871 1.69438 0
M  V30 1846 C 171.627 -1.58594 3.083 0
M  V30 1847 C 170.688 -1.00007 4.17489 0
M  V30 1848 C 169.921 -2.06413 4.92168 0
M  V30 1849 O 170.144 -3.27751 4.66835 0
M  V30 1850 O 169.078 -1.68717 5.7777 0
M  V30 1851 H 172.904 0.157508 3.03291 0
M  V30 1852 H 170.489 0.143035 1.48714 0
M  V30 1853 H 172.371 -2.23525 3.57232 0
M  V30 1854 H 171.046 -2.19724 2.37703 0
M  V30 1855 H 169.953 -0.314299 3.72777 0
M  V30 1856 H 171.286 -0.433135 4.90291 0
M  V30 1857 N 172.938 -1.57226 0.108567 0
M  V30 1858 C 173.886 -2.16002 -0.862885 0
M  V30 1859 C 174.88 -1.10644 -1.28274 0
M  V30 1860 O 176.086 -1.28966 -1.2557 0
M  V30 1861 H 172.461 -0.691148 -0.296342 0
M  V30 1862 H 174.432 -2.96427 -0.342575 0
M  V30 1863 C 173.181 -2.76576 -2.10716 0
M  V30 1864 H 172.504 -3.5734 -1.793 0
M  V30 1865 H 173.944 -3.21253 -2.76717 0
M  V30 1866 C 172.403 -1.73137 -2.89007 0
M  V30 1867 O 172.933 -1.17842 -3.84026 0
M  V30 1868 N 171.139 -1.43317 -2.52801 0
M  V30 1869 H 170.686 -1.88473 -1.75601 0
M  V30 1870 H 170.644 -0.743485 -3.05483 0
M  V30 1871 N 174.416 0.165178 -1.56732 0
M  V30 1872 C 175.664 0.879068 -1.8198 0
M  V30 1873 C 175.985 1.82514 -0.686561 0
M  V30 1874 O 175.255 1.93694 0.293146 0
M  V30 1875 H 173.835 0.327608 -0.671329 0
M  V30 1876 H 176.497 0.163526 -1.94213 0
M  V30 1877 H 175.593 1.45228 -2.76252 0
M  V30 1878 N 175.894 1.51508 0.433938 0
M  V30 1879 C 176.827 1.67756 1.54704 0
M  V30 1880 C 177.805 0.525127 1.53887 0
M  V30 1881 O 178.989 0.749393 1.72963 0
M  V30 1882 C 176.116 1.69424 2.9328 0
M  V30 1883 C 175.162 2.90673 3.12108 0
M  V30 1884 S 175.995 4.51431 2.88046 0
M  V30 1885 C 177.151 4.55849 4.28897 0
M  V30 1886 H 177.384 2.61904 1.40689 0
M  V30 1887 H 174.917 1.41235 0.62386 0
M  V30 1888 H 176.875 1.7107 3.73156 0
M  V30 1889 H 175.536 0.764464 3.04655 0
M  V30 1890 H 174.729 2.88251 4.13434 0
M  V30 1891 H 174.331 2.86786 2.40062 0
M  V30 1892 H 176.623 4.31699 5.22152 0
M  V30 1893 H 177.566 5.57676 4.36351 0
M  V30 1894 H 177.974 3.85137 4.12711 0
M  V30 1895 N 177.372 -0.689602 1.41712 0
M  V30 1896 C 178.649 -1.44457 1.31877 0
M  V30 1897 C 179.029 -2.11039 -0.0508537 0
M  V30 1898 O 178.377 -2.02138 -1.06547 0
M  V30 1899 C 178.587 -2.45913 2.47645 0
M  V30 1900 C 179.935 -3.10991 2.89084 0
M  V30 1901 O 180.959 -2.56238 2.47428 0
M  V30 1902 O 179.818 -4.10174 3.61137 0
M  V30 1903 H 176.912 -0.64362 0.519309 0
M  V30 1904 H 179.458 -0.719576 1.53689 0
M  V30 1905 H 178.23 -1.95409 3.39015 0
M  V30 1906 H 177.853 -3.25913 2.27742 0
M  V30 1907 N 178.85 -1.27639 -0.924453 0
M  V30 1908 C 180.096 -1.14336 -1.67497 0
M  V30 1909 C 180.429 0.309465 -1.91718 0
M  V30 1910 O 179.704 1.22608 -1.50989 0
M  V30 1911 C 179.987 -1.93096 -3.0395 0
M  V30 1912 C 179.84 -3.46381 -2.8695 0
M  V30 1913 C 181.159 -1.73798 -4.0433 0
M  V30 1914 H 178.278 -0.416728 -0.607871 0
M  V30 1915 H 180.92 -1.56832 -1.07256 0
M  V30 1916 H 179.07 -1.56982 -3.55372 0
M  V30 1917 H 180.742 -3.92343 -2.42621 0
M  V30 1918 H 178.985 -3.72557 -2.22225 0
M  V30 1919 H 179.656 -3.96735 -3.83804 0
M  V30 1920 H 182.132 -2.05293 -3.61931 0
M  V30 1921 H 181.008 -2.31294 -4.97789 0
M  V30 1922 H 181.269 -0.686725 -4.36734 0
M  V30 1923 N 180.328 1.1314 -1.09713 0
M  V30 1924 C 181.575 1.84484 -0.834987 0
M  V30 1925 C 181.903 1.83689 0.639418 0
M  V30 1926 O 181.158 1.2724 1.4869 0
M  V30 1927 C 181.457 3.32167 -1.3191 0
M  V30 1928 C 181.123 3.53139 -2.80363 0
M  V30 1929 C 179.785 3.58571 -3.20905 0
M  V30 1930 C 182.137 3.60866 -3.76065 0
M  V30 1931 C 179.465 3.69267 -4.55916 0
M  V30 1932 C 181.817 3.73089 -5.10869 0
M  V30 1933 C 180.481 3.76775 -5.50996 0
M  V30 1934 H 179.751 0.675073 -0.305544 0
M  V30 1935 H 182.398 1.33554 -1.37243 0
M  V30 1936 H 180.703 3.85469 -0.701517 0
M  V30 1937 H 182.4 3.85821 -1.09284 0
M  V30 1938 H 178.99 3.49569 -2.47991 0
M  V30 1939 H 183.174 3.55946 -3.45855 0
M  V30 1940 H 178.43 3.70388 -4.86438 0
M  V30 1941 H 182.604 3.78011 -5.84877 0
M  V30 1942 H 180.231 3.84815 -6.55608 0
M  V30 1943 N 181.806 0.884767 1.30421 0
M  V30 1944 C 183.222 0.57874 1.48737 0
M  V30 1945 C 183.422 -0.883567 1.81095 0
M  V30 1946 O 182.478 -1.6648 1.89844 0
M  V30 1947 C 183.791 1.49171 2.61091 0
M  V30 1948 C 185.339 1.49532 2.74971 0
M  V30 1949 C 185.814 2.39421 3.90438 0
M  V30 1950 N 187.305 2.37383 3.97748 0
M  V30 1951 C 188.04 3.03647 4.86401 0
M  V30 1952 N 187.536 3.79136 5.79852 0
M  V30 1953 N 189.329 2.9288 4.79768 0
M  V30 1954 H 181.48 1.83075 1.0769 0
M  V30 1955 H 183.743 0.783637 0.533495 0
M  V30 1956 H 183.449 2.53291 2.44001 0
M  V30 1957 H 183.323 1.20113 3.57565 0
M  V30 1958 H 185.71 0.46163 2.91467 0
M  V30 1959 H 185.791 1.8262 1.79119 0
M  V30 1960 H 185.435 3.42874 3.74699 0
M  V30 1961 H 185.365 2.03649 4.85628 0
M  V30 1962 H 187.856 1.82525 3.30897 0
M  V30 1963 H 188.169 4.26789 6.4426 0
M  V30 1964 H 186.514 3.83243 5.79784 0
M  V30 1965 H 189.705 2.33433 4.05742 0
M  V30 1966 H 189.878 3.448 5.4865 0
M  V30 1967 N 183.284 -1.43765 0.645699 0
M  V30 1968 C 184.53 -2.02197 0.156271 0
M  V30 1969 C 184.863 -1.50776 -1.22393 0
M  V30 1970 O 184.138 -0.697771 -1.81553 0
M  V30 1971 C 184.421 -3.59749 0.158872 0
M  V30 1972 C 184.274 -4.21419 1.57245 0
M  V30 1973 C 185.593 -4.37149 -0.50879 0
M  V30 1974 H 182.712 -0.734694 0.0582602 0
M  V30 1975 H 185.354 -1.71157 0.824951 0
M  V30 1976 H 183.504 -3.86325 -0.410525 0
M  V30 1977 H 185.176 -4.059 2.19186 0
M  V30 1978 H 183.419 -3.78356 2.122 0
M  V30 1979 H 184.09 -5.30482 1.52619 0
M  V30 1980 H 186.566 -4.16093 -0.024412 0
M  V30 1981 H 185.442 -5.4683 -0.476213 0
M  V30 1982 H 185.703 -4.12839 -1.58165 0
M  V30 1983 N 184.763 -0.387143 -1.52771 0
M  V30 1984 C 186.01 0.195735 -2.01552 0
M  V30 1985 C 186.338 1.46995 -1.27369 0
M  V30 1986 O 185.593 1.92325 -0.361879 0
M  V30 1987 C 185.892 0.512209 -3.53711 0
M  V30 1988 C 185.558 -0.670202 -4.45891 0
M  V30 1989 C 184.22 -0.994586 -4.70809 0
M  V30 1990 C 186.572 -1.46134 -5.00294 0
M  V30 1991 C 183.9 -2.11169 -5.4738 0
M  V30 1992 C 186.252 -2.56903 -5.78086 0
M  V30 1993 C 184.916 -2.89852 -6.01284 0
M  V30 1994 H 184.186 0.0716246 -0.73753 0
M  V30 1995 H 186.833 -0.524046 -1.8419 0
M  V30 1996 H 185.138 1.31329 -3.69134 0
M  V30 1997 H 186.835 0.975804 -3.88946 0
M  V30 1998 H 183.425 -0.407366 -4.2666 0
M  V30 1999 H 187.609 -1.22397 -4.80971 0
M  V30 2000 H 182.865 -2.3707 -5.63567 0
M  V30 2001 H 187.039 -3.18608 -6.19243 0
M  V30 2002 H 184.666 -3.76533 -6.60399 0
M  V30 2003 N 186.241 1.57166 -0.116904 0
M  V30 2004 C 187.518 1.86645 0.585049 0
M  V30 2005 C 187.898 1.0177 1.84949 0
M  V30 2006 O 187.246 0.0960379 2.28298 0
M  V30 2007 C 187.456 3.37736 0.879507 0
M  V30 2008 C 188.804 4.06289 1.23348 0
M  V30 2009 O 189.828 3.42743 0.969836 0
M  V30 2010 O 188.687 5.18455 1.7282 0
M  V30 2011 H 185.781 0.772593 0.295007 0
M  V30 2012 H 188.327 1.69025 -0.151249 0
M  V30 2013 H 187.099 3.91296 -0.0166136 0
M  V30 2014 H 186.722 3.6078 1.67103 0
M  V30 2015 N 187.719 -0.156864 1.56817 0
M  V30 2016 C 188.682 -1.17781 1.96622 0
M  V30 2017 C 189.682 -1.36401 0.851555 0
M  V30 2018 O 190.872 -1.33561 1.11836 0
M  V30 2019 C 188.004 -2.54008 2.27361 0
M  V30 2020 H 189.197 -0.836564 2.87996 0
M  V30 2021 H 186.75 -0.39985 1.51099 0
M  V30 2022 H 187.485 -2.9312 1.38748 0
M  V30 2023 H 187.27 -2.41856 3.08623 0
M  V30 2024 H 188.76 -3.27558 2.59029 0
M  V30 2025 N 189.197 -1.51736 -0.425897 0
M  V30 2026 C 190.13 -1.68574 -1.53812 0
M  V30 2027 C 191.108 -0.53328 -1.53606 0
M  V30 2028 O 192.292 -0.758555 -1.72564 0
M  V30 2029 C 189.419 -1.70977 -2.92377 0
M  V30 2030 C 188.465 -2.92324 -3.10563 0
M  V30 2031 S 189.298 -4.52952 -2.85648 0
M  V30 2032 C 190.454 -4.58117 -4.26474 0
M  V30 2033 H 190.687 -2.62647 -1.39298 0
M  V30 2034 H 188.22 -1.41564 -0.616361 0
M  V30 2035 H 190.178 -1.73047 -3.72243 0
M  V30 2036 H 188.839 -0.78061 -3.04245 0
M  V30 2037 H 188.032 -2.90439 -4.11899 0
M  V30 2038 H 187.634 -2.88055 -2.38538 0
M  V30 2039 H 189.926 -4.34462 -5.19855 0
M  V30 2040 H 190.869 -5.59983 -4.33388 0
M  V30 2041 H 191.277 -3.8732 -4.10662 0
M  V30 2042 N 190.675 0.682077 -1.42076 0
M  V30 2043 C 191.623 1.81707 -1.45208 0
M  V30 2044 C 192.617 1.66183 -0.328591 0
M  V30 2045 O 193.823 1.7288 -0.501264 0
M  V30 2046 H 190.198 0.599014 -0.454628 0
M  V30 2047 H 192.169 1.76183 -2.40836 0
M  V30 2048 C 190.918 3.19816 -1.36428 0
M  V30 2049 H 190.241 3.32385 -2.22171 0
M  V30 2050 H 191.681 3.99272 -1.42681 0
M  V30 2051 C 190.14 3.36809 -0.078191 0
M  V30 2052 O 190.67 3.92124 0.87188 0
M  V30 2053 N 188.876 2.906 0.00229266 0
M  V30 2054 H 188.423 2.45772 -0.771616 0
M  V30 2055 H 188.381 3.02347 0.862179 0
M  V30 2056 N 192.153 1.28127 0.917671 0
M  V30 2057 C 193.43 1.05761 1.64542 0
M  V30 2058 C 193.81 -0.404344 2.07191 0
M  V30 2059 O 193.158 -1.38963 1.81388 0
M  V30 2060 C 193.368 2.02857 2.83989 0
M  V30 2061 C 194.716 2.32786 3.551 0
M  V30 2062 O 195.74 2.0091 2.94132 0
M  V30 2063 O 194.599 2.87169 4.64969 0
M  V30 2064 H 191.693 0.403916 0.721652 0
M  V30 2065 H 194.239 1.39431 0.967322 0
M  V30 2066 H 193.011 3.01407 2.49538 0
M  V30 2067 H 192.634 1.69809 3.59514 0
M  V30 2068 N 193.631 -1.12557 1.10312 0
M  V30 2069 C 195.042 -1.65574 0.862678 0
M  V30 2070 C 195.393 -1.86566 -0.607256 0
M  V30 2071 O 194.518 -1.59121 -1.46662 0
M  V30 2072 C 195.113 -3.00776 1.55947 0
M  V30 2073 C 193.672 -3.50748 1.36576 0
M  V30 2074 C 192.819 -2.25797 1.60968 0
M  V30 2075 H 195.77 -0.963552 1.26101 0
M  V30 2076 H 195.791 -3.67185 0.997753 0
M  V30 2077 H 195.303 -2.85465 2.62928 0
M  V30 2078 H 193.404 -3.71245 0.317531 0
M  V30 2079 H 193.517 -4.30289 2.10686 0
M  V30 2080 H 191.881 -2.32841 1.03234 0
M  V30 2081 H 192.664 -2.13043 2.69198 0
M  V30 2082 N 195.109 -0.891671 -1.2995 0
M  V30 2083 C 196.525 -0.58662 -1.48428 0
M  V30 2084 C 196.725 0.873951 -1.81561 0
M  V30 2085 O 195.781 1.65471 -1.90724 0
M  V30 2086 C 197.094 -1.50553 -2.60296 0
M  V30 2087 C 198.642 -1.50988 -2.74175 0
M  V30 2088 C 199.117 -2.41488 -3.89163 0
M  V30 2089 N 200.608 -2.39489 -3.96483 0
M  V30 2090 C 201.343 -3.06223 -4.84784 0
M  V30 2091 N 200.839 -3.82206 -5.77833 0
M  V30 2092 N 202.632 -2.95421 -4.78208 0
M  V30 2093 H 194.783 -1.83644 -1.06718 0
M  V30 2094 H 197.046 -0.786455 -0.529332 0
M  V30 2095 H 196.752 -2.54581 -2.42654 0
M  V30 2096 H 196.626 -1.22008 -3.56923 0
M  V30 2097 H 199.013 -0.47708 -2.91218 0
M  V30 2098 H 199.094 -1.83567 -1.78148 0
M  V30 2099 H 198.738 -3.44857 -3.72876 0
M  V30 2100 H 198.668 -2.06222 -4.84541 0
M  V30 2101 H 201.159 -1.84278 -3.29924 0
M  V30 2102 H 201.472 -4.302 -6.41988 0
M  V30 2103 H 199.817 -3.86313 -5.77743 0
M  V30 2104 H 203.008 -2.35581 -4.04499 0
M  V30 2105 H 203.181 -3.47704 -5.46814 0
M  V30 2106 N 196.587 1.43421 -0.653314 0
M  V30 2107 C 197.535 2.32546 0.0501531 0
M  V30 2108 C 198.529 1.48617 0.812985 0
M  V30 2109 O 199.735 1.64825 0.723375 0
M  V30 2110 H 196.11 0.751185 0.0350032 0
M  V30 2111 H 198.081 2.89602 -0.719261 0
M  V30 2112 C 196.83 3.32925 1.00279 0
M  V30 2113 H 196.153 3.97532 0.425236 0
M  V30 2114 H 197.593 3.9792 1.46409 0
M  V30 2115 C 196.052 2.63532 2.09886 0
M  V30 2116 O 196.582 2.45092 3.18265 0
M  V30 2117 N 194.788 2.22905 1.86445 0
M  V30 2118 H 194.335 2.38103 0.98309 0
M  V30 2119 H 194.293 1.76805 2.59976 0
M  V30 2120 N 198.065 0.39524 1.52563 0
M  V30 2121 C 198.998 -0.4813 2.23067 0
M  V30 2122 C 199.976 -1.05927 1.23362 0
M  V30 2123 O 201.16 -1.10979 1.52368 0
M  V30 2124 C 198.287 -1.66676 2.9485 0
M  V30 2125 C 197.333 -1.21348 4.08873 0
M  V30 2126 S 198.166 -0.190102 5.35162 0
M  V30 2127 C 199.322 -1.38121 6.1047 0
M  V30 2128 H 199.555 0.117381 2.97068 0
M  V30 2129 H 197.088 0.179458 1.53354 0
M  V30 2130 H 199.046 -2.3466 3.36816 0
M  V30 2131 H 197.707 -2.23676 2.20518 0
M  V30 2132 H 196.9 -2.09877 4.58222 0
M  V30 2133 H 196.502 -0.612486 3.68951 0
M  V30 2134 H 198.794 -2.30726 6.37002 0
M  V30 2135 H 199.737 -0.928521 7.01986 0
M  V30 2136 H 200.145 -1.60071 5.41329 0
M  V30 2137 N 199.544 -1.57102 0.125237 0
M  V30 2138 C 200.507 -2.14471 -0.80838 0
M  V30 2139 C 201.507 -1.0811 -1.19033 0
M  V30 2140 O 202.697 -1.33856 -1.11482 0
M  V30 2141 C 199.829 -2.69005 -2.09402 0
M  V30 2142 H 201.022 -2.98297 -0.309696 0
M  V30 2143 H 198.575 -1.55807 -0.124051 0
M  V30 2144 H 199.31 -1.88785 -2.63687 0
M  V30 2145 H 199.095 -3.46799 -1.82957 0
M  V30 2146 H 200.585 -3.13278 -2.76128 0
M  V30 2147 N 201.022 0.148545 -1.56898 0
M  V30 2148 C 201.972 1.1886 -1.94567 0
M  V30 2149 C 202.956 1.3863 -0.816735 0
M  V30 2150 O 204.148 1.40218 -1.08018 0
M  V30 2151 C 201.277 2.52262 -2.32849 0
M  V30 2152 C 200.363 2.36092 -3.52309 0
M  V30 2153 N 200.754 1.89674 -4.6889 0
M  V30 2154 C 199.052 2.66848 -3.57363 0
M  V30 2155 C 199.753 1.86511 -5.50989 0
M  V30 2156 N 198.729 2.29766 -4.92655 0
M  V30 2157 H 202.531 0.821793 -2.82177 0
M  V30 2158 H 200.045 0.356615 -1.58436 0
M  V30 2159 H 202.042 3.27447 -2.58039 0
M  V30 2160 H 200.702 2.89727 -1.46589 0
M  V30 2161 H 201.713 1.59663 -4.92674 0
M  V30 2162 H 198.39 3.08198 -2.81639 0
M  V30 2163 H 199.78 1.52128 -6.54452 0
M  V30 2164 N 202.5 1.5196 0.417844 0
M  V30 2165 C 203.463 1.74065 1.49111 0
M  V30 2166 C 204.463 0.610537 1.48758 0
M  V30 2167 O 205.653 0.87832 1.50437 0
M  V30 2168 C 202.785 1.81502 2.88565 0
M  V30 2169 H 203.978 2.69869 1.30807 0
M  V30 2170 H 201.531 1.42244 0.647785 0
M  V30 2171 H 202.266 0.875813 3.1225 0
M  V30 2172 H 202.051 2.63651 2.90225 0
M  V30 2173 H 203.541 2.00376 3.66387 0
M  V30 2174 N 203.978 -0.674533 1.42435 0
M  V30 2175 C 204.911 -1.79924 1.40366 0
M  V30 2176 C 205.889 -1.60378 0.267899 0
M  V30 2177 O 207.073 -1.82847 0.458159 0
M  V30 2178 C 204.2 -3.16927 1.19478 0
M  V30 2179 C 203.246 -3.55221 2.36051 0
M  V30 2180 S 204.079 -3.5762 3.98583 0
M  V30 2181 C 205.235 -4.97315 3.80038 0
M  V30 2182 H 205.468 -1.81405 2.35541 0
M  V30 2183 H 203.001 -0.845221 1.29211 0
M  V30 2184 H 204.959 -3.96007 1.08114 0
M  V30 2185 H 203.62 -3.13031 0.258883 0
M  V30 2186 H 202.813 -4.54804 2.17185 0
M  V30 2187 H 202.415 -2.83502 2.43932 0
M  V30 2188 H 204.707 -5.85401 3.41045 0
M  V30 2189 H 205.65 -5.21228 4.79298 0
M  V30 2190 H 206.058 -4.69845 3.12899 0
M  V30 2191 N 205.456 -1.28612 -0.910864 0
M  V30 2192 C 206.419 -1.12803 -1.9952 0
M  V30 2193 C 207.419 -0.0668264 -1.60661 0
M  V30 2194 O 208.609 -0.312847 -1.71368 0
M  V30 2195 C 205.741 -0.72254 -3.33155 0
M  V30 2196 H 206.934 -2.09109 -2.14973 0
M  V30 2197 H 204.487 -1.11639 -1.09391 0
M  V30 2198 H 205.222 0.241152 -3.23402 0
M  V30 2199 H 205.007 -1.48916 -3.62721 0
M  V30 2200 H 206.497 -0.634666 -4.12749 0
M  V30 2201 N 206.934 1.1197 -1.10907 0
M  V30 2202 C 207.897 2.16031 -0.765707 0
M  V30 2203 C 208.897 1.59393 0.212235 0
M  V30 2204 O 210.087 1.74196 -0.0115441 0
M  V30 2205 C 207.219 3.40632 -0.135053 0
M  V30 2206 H 208.412 2.47919 -1.68748 0
M  V30 2207 H 205.965 1.27061 -0.910226 0
M  V30 2208 H 206.7 3.14348 0.797218 0
M  V30 2209 H 206.485 3.8302 -0.838937 0
M  V30 2210 H 207.975 4.17505 0.0892469 0
M  V30 2211 N 208.412 0.89855 1.29475 0
M  V30 2212 C 209.658 0.524658 1.95896 0
M  V30 2213 C 209.991 -0.926468 1.70676 0
M  V30 2214 O 209.266 -1.65665 1.01908 0
M  V30 2215 C 209.549 0.81633 3.50725 0
M  V30 2216 C 209.402 2.31907 3.85408 0
M  V30 2217 C 210.721 0.302038 4.39062 0
M  V30 2218 H 207.84 0.19209 0.711527 0
M  V30 2219 H 210.482 1.12502 1.53112 0
M  V30 2220 H 208.632 0.305369 3.87298 0
M  V30 2221 H 210.304 2.89949 3.58786 0
M  V30 2222 H 208.547 2.78027 3.32992 0
M  V30 2223 H 209.218 2.47373 4.93468 0
M  V30 2224 H 211.694 0.739551 4.09475 0
M  V30 2225 H 210.57 0.535331 5.46283 0
M  V30 2226 H 210.831 -0.797216 4.34853 0
M  V30 2227 N 209.89 -1.43072 0.660911 0
M  V30 2228 C 210.837 -2.30785 -0.0259884 0
M  V30 2229 C 211.807 -1.45184 -0.806888 0
M  V30 2230 O 212.992 -1.74041 -0.781943 0
M  V30 2231 C 210.132 -3.30861 -0.981067 0
M  V30 2232 C 209.245 -4.31558 -0.195458 0
M  V30 2233 C 208.38 -5.18712 -1.14503 0
M  V30 2234 C 207.419 -6.11097 -0.350299 0
M  V30 2235 N 206.556 -6.90849 -1.25186 0
M  V30 2236 H 211.396 -2.88975 0.727846 0
M  V30 2237 H 208.933 -1.42353 0.370682 0
M  V30 2238 H 210.891 -3.87399 -1.54849 0
M  V30 2239 H 209.521 -2.74304 -1.70169 0
M  V30 2240 H 208.573 -3.77252 0.488374 0
M  V30 2241 H 209.885 -4.9701 0.422176 0
M  V30 2242 H 209.039 -5.79914 -1.78284 0
M  V30 2243 H 207.778 -4.53404 -1.79656 0
M  V30 2244 H 206.783 -5.48976 0.300808 0
M  V30 2245 H 208.008 -6.7845 0.296941 0
M  V30 2246 H 205.954 -6.28182 -1.89005 0
M  V30 2247 H 205.871 -7.52854 -0.688971 0
M  V30 2248 H 207.139 -7.5655 -1.87757 0
M  V30 2249 N 211.368 -0.403325 -1.52352 0
M  V30 2250 C 212.315 0.425011 -2.26853 0
M  V30 2251 C 213.285 1.04598 -1.29029 0
M  V30 2252 O 214.47 1.07135 -1.57882 0
M  V30 2253 C 211.61 1.53888 -3.08889 0
M  V30 2254 C 210.723 0.939396 -4.21663 0
M  V30 2255 C 209.858 2.02547 -4.91068 0
M  V30 2256 C 208.897 1.40263 -5.95813 0
M  V30 2257 N 208.034 2.4286 -6.58759 0
M  V30 2258 H 212.874 -0.21674 -2.97211 0
M  V30 2259 H 210.411 -0.118722 -1.4662 0
M  V30 2260 H 212.369 2.19558 -3.54753 0
M  V30 2261 H 210.999 2.15074 -2.40714 0
M  V30 2262 H 210.051 0.171898 -3.80011 0
M  V30 2263 H 211.363 0.44436 -4.96817 0
M  V30 2264 H 210.517 2.75958 -5.40308 0
M  V30 2265 H 209.256 2.55415 -4.15469 0
M  V30 2266 H 208.261 0.653833 -5.45898 0
M  V30 2267 H 209.486 0.881719 -6.73352 0
M  V30 2268 H 207.432 2.94871 -5.85992 0
M  V30 2269 H 207.349 1.98152 -7.2957 0
M  V30 2270 H 208.617 3.15858 -7.12639 0
M  V30 2271 N 212.846 1.57033 -0.133567 0
M  V30 2272 C 213.809 2.14897 0.796995 0
M  V30 2273 C 214.809 1.0874 1.18458 0
M  V30 2274 O 215.999 1.34446 1.1077 0
M  V30 2275 C 213.131 2.70112 2.07973 0
M  V30 2276 H 214.324 2.98457 0.293873 0
M  V30 2277 H 211.877 1.55871 0.115787 0
M  V30 2278 H 212.612 1.9018 2.62682 0
M  V30 2279 H 212.397 3.47764 1.81115 0
M  V30 2280 H 213.887 3.14738 2.74462 0
M  V30 2281 N 214.325 -0.140222 1.56975 0
M  V30 2282 C 215.573 -0.850005 1.83356 0
M  V30 2283 C 215.894 -1.81399 0.71551 0
M  V30 2284 O 215.164 -1.94136 -0.262294 0
M  V30 2285 H 213.744 -0.316886 0.676456 0
M  V30 2286 H 216.406 -0.132608 1.94448 0
M  V30 2287 H 215.502 -1.40814 2.78528 0
M  V30 2288 N 215.803 -1.52179 -0.40978 0
M  V30 2289 C 216.75 -1.75475 -1.49924 0
M  V30 2290 C 217.72 -0.597175 -1.54994 0
M  V30 2291 O 218.905 -0.834655 -1.71575 0
M  V30 2292 C 216.045 -1.9107 -2.87378 0
M  V30 2293 C 215.158 -3.18717 -2.91622 0
M  V30 2294 C 214.293 -3.24747 -4.20372 0
M  V30 2295 C 213.332 -4.46598 -4.18588 0
M  V30 2296 N 212.469 -4.50025 -5.38908 0
M  V30 2297 H 217.309 -2.68458 -1.29361 0
M  V30 2298 H 214.846 -1.33024 -0.627934 0
M  V30 2299 H 216.804 -1.98096 -3.6717 0
M  V30 2300 H 215.434 -1.01469 -3.06437 0
M  V30 2301 H 214.486 -3.20866 -2.04326 0
M  V30 2302 H 215.798 -4.08544 -2.86169 0
M  V30 2303 H 214.952 -3.30841 -5.08556 0
M  V30 2304 H 213.691 -2.32857 -4.28519 0
M  V30 2305 H 212.696 -4.40652 -3.28794 0
M  V30 2306 H 213.921 -5.39783 -4.12081 0
M  V30 2307 H 211.867 -3.61017 -5.47725 0
M  V30 2308 H 211.784 -5.33697 -5.35447 0
M  V30 2309 H 213.052 -4.60347 -6.29048 0
M  V30 2310 N 217.281 0.66697 -1.42791 0
M  V30 2311 C 218.231 1.77313 -1.43332 0
M  V30 2312 C 219.215 1.5801 -0.303586 0
M  V30 2313 O 220.407 1.68356 -0.546385 0
M  V30 2314 C 217.536 3.15822 -1.34578 0
M  V30 2315 C 216.622 3.40721 -2.52528 0
M  V30 2316 N 217.013 3.36162 -3.77927 0
M  V30 2317 C 215.311 3.71387 -2.46956 0
M  V30 2318 C 216.012 3.60762 -4.56318 0
M  V30 2319 N 214.988 3.81908 -3.86843 0
M  V30 2320 H 218.79 1.72193 -2.38174 0
M  V30 2321 H 216.304 0.868114 -1.3725 0
M  V30 2322 H 218.301 3.951 -1.33048 0
M  V30 2323 H 216.961 3.22133 -0.407453 0
M  V30 2324 H 217.972 3.15885 -4.10411 0
M  V30 2325 H 214.649 3.84897 -1.61743 0
M  V30 2326 H 216.039 3.63132 -5.65318 0
M  V30 2327 N 218.759 1.29093 0.90403 0
M  V30 2328 C 219.722 1.1386 1.98919 0
M  V30 2329 C 220.722 0.0753457 1.60623 0
M  V30 2330 O 221.912 0.321931 1.71199 0
M  V30 2331 C 219.044 0.740198 3.32767 0
M  V30 2332 H 220.237 2.10246 2.13861 0
M  V30 2333 H 217.79 1.12218 1.08797 0
M  V30 2334 H 218.525 -0.223997 3.23525 0
M  V30 2335 H 218.31 1.50838 3.61926 0
M  V30 2336 H 219.8 0.656546 4.12407 0
M  V30 2337 N 220.237 -1.11381 1.11499 0
M  V30 2338 C 221.169 -2.17207 0.731704 0
M  V30 2339 C 222.182 -1.61066 -0.236957 0
M  V30 2340 O 223.371 -1.78489 -0.0197591 0
M  V30 2341 C 220.471 -3.38846 0.0607624 0
M  V30 2342 C 219.644 -4.24451 1.0564 0
M  V30 2343 C 218.703 -5.24562 0.4149 0
M  V30 2344 O 217.729 -5.59071 1.069 0
M  V30 2345 N 218.931 -5.74651 -0.821943 0
M  V30 2346 H 221.696 -2.50699 1.64225 0
M  V30 2347 H 219.257 -1.26908 1.00529 0
M  V30 2348 H 221.249 -4.02911 -0.380139 0
M  V30 2349 H 219.819 -3.03411 -0.752376 0
M  V30 2350 H 219.039 -3.56833 1.67524 0
M  V30 2351 H 220.327 -4.78486 1.72998 0
M  V30 2352 H 219.725 -5.48797 -1.37252 0
M  V30 2353 H 218.282 -6.40549 -1.20582 0
M  V30 2354 N 221.715 -0.905404 -1.28997 0
M  V30 2355 C 222.963 -0.533192 -1.9494 0
M  V30 2356 C 223.284 0.924618 -1.71685 0
M  V30 2357 O 222.554 1.65268 -1.05183 0
M  V30 2358 H 221.134 -0.194194 -0.721317 0
M  V30 2359 H 223.796 -1.15294 -1.57141 0
M  V30 2360 H 222.892 -0.72059 -3.03667 0
M  V30 2361 N 223.193 1.4272 -0.668489 0
M  V30 2362 C 224.421 2.05966 -0.196348 0
M  V30 2363 C 224.836 1.50191 1.14403 0
M  V30 2364 O 224.193 0.639208 1.7094 0
M  V30 2365 C 224.244 3.61314 -0.115815 0
M  V30 2366 O 223.965 4.1502 -1.40322 0
M  V30 2367 C 225.466 4.41663 0.380579 0
M  V30 2368 H 222.686 0.663954 -0.0969829 0
M  V30 2369 H 225.23 1.82966 -0.913446 0
M  V30 2370 H 223.385 3.83448 0.551931 0
M  V30 2371 H 223.799 5.08832 -1.27243 0
M  V30 2372 H 225.273 5.5065 0.385848 0
M  V30 2373 H 225.75 4.15792 1.41471 0
M  V30 2374 H 226.356 4.24534 -0.255209 0
M  V30 2375 N 224.671 0.411399 1.52136 0
M  V30 2376 C 225.92 -0.165009 2.01024 0
M  V30 2377 C 226.233 -1.4603 1.30133 0
M  V30 2378 O 227.439 -2.1181 1.69849 0
M  V30 2379 C 225.895 -0.344618 3.58246 0
M  V30 2380 C 225.503 0.938716 4.38055 0
M  V30 2381 C 227.247 -0.876195 4.15359 0
M  V30 2382 C 225.154 0.726172 5.86925 0
M  V30 2383 H 224.084 -0.0654407 0.751155 0
M  V30 2384 H 226.735 0.537192 1.75461 0
M  V30 2385 H 225.117 -1.10921 3.80148 0
M  V30 2386 H 226.291 1.70963 4.27912 0
M  V30 2387 H 224.606 1.39688 3.92271 0
M  V30 2388 H 227.203 -1.05128 5.24263 0
M  V30 2389 H 227.546 -1.85152 3.7286 0
M  V30 2390 H 228.079 -0.170607 3.97434 0
M  V30 2391 H 224.818 1.67312 6.33788 0
M  V30 2392 H 224.338 -0.00540283 5.998 0
M  V30 2393 H 226.017 0.369231 6.45946 0
M  V30 2394 N 226.149 -1.5696 0.141893 0
M  V30 2395 C 227.389 -1.9785 -0.513304 0
M  V30 2396 C 227.753 -1.02467 -1.62371 0
M  V30 2397 O 228.954 -1.32382 -2.33941 0
M  V30 2398 C 227.225 -3.42797 -1.01118 0
M  V30 2399 S 228.784 -4.05709 -1.67169 0
M  V30 2400 H 225.602 -0.691318 -0.166135 0
M  V30 2401 H 228.204 -1.94114 0.232398 0
M  V30 2402 H 226.908 -4.0995 -0.192179 0
M  V30 2403 H 226.439 -3.50235 -1.79162 0
M  V30 2404 H 228.454 -3.98342 -2.95868 0
M  V30 2405 N 227.627 0.131896 -1.57047 0
M  V30 2406 C 228.857 0.855219 -1.88068 0
M  V30 2407 C 229.265 1.74557 -0.729817 0
M  V30 2408 O 228.608 1.81083 0.308962 0
M  V30 2409 C 228.67 1.75119 -3.13964 0
M  V30 2410 C 228.334 1.03646 -4.45091 0
M  V30 2411 C 229.331 0.383276 -5.18485 0
M  V30 2412 C 227.016 1.02148 -4.91804 0
M  V30 2413 C 229.01 -0.275347 -6.36805 0
M  V30 2414 C 226.697 0.359047 -6.10044 0
M  V30 2415 C 227.695 -0.288222 -6.82392 0
M  V30 2416 O 227.383 -0.94011 -7.98384 0
M  V30 2417 H 227.115 0.251864 -0.627328 0
M  V30 2418 H 229.669 0.124782 -2.05021 0
M  V30 2419 H 227.899 2.52295 -2.9306 0
M  V30 2420 H 229.588 2.3478 -3.31109 0
M  V30 2421 H 230.354 0.386562 -4.83457 0
M  V30 2422 H 226.233 1.5147 -4.35405 0
M  V30 2423 H 229.777 -0.781148 -6.93213 0
M  V30 2424 H 225.674 0.35348 -6.44531 0
M  V30 2425 H 226.442 -0.84329 -8.14144 0
M  V30 2426 N 229.106 1.52395 0.401703 0
M  V30 2427 C 230.334 1.70676 1.16949 0
M  V30 2428 C 230.749 0.419503 1.8408 0
M  V30 2429 O 230.106 -0.605061 1.72178 0
M  V30 2430 C 230.157 2.84753 2.22706 0
M  V30 2431 O 229.878 4.08495 1.58314 0
M  V30 2432 C 231.379 3.14608 3.12309 0
M  V30 2433 H 228.599 0.571787 0.351142 0
M  V30 2434 H 231.143 1.98987 0.471652 0
M  V30 2435 H 229.298 2.58941 2.88147 0
M  V30 2436 H 229.712 4.72117 2.28485 0
M  V30 2437 H 231.186 3.97923 3.82572 0
M  V30 2438 H 231.663 2.28464 3.75101 0
M  V30 2439 H 232.269 3.42212 2.52529 0
M  V30 2440 N 230.584 -0.659388 1.43143 0
M  V30 2441 C 231.833 -1.41518 1.43721 0
M  V30 2442 C 232.146 -1.95499 0.0628176 0
M  V30 2443 O 233.352 -2.71446 -0.0539683 0
M  V30 2444 C 231.808 -2.5608 2.52885 0
M  V30 2445 C 231.416 -2.08733 3.96402 0
M  V30 2446 C 233.16 -3.3349 2.62649 0
M  V30 2447 C 231.067 -3.20469 4.97045 0
M  V30 2448 H 229.997 -0.531705 0.534608 0
M  V30 2449 H 232.648 -0.712343 1.69109 0
M  V30 2450 H 231.03 -3.28805 2.20688 0
M  V30 2451 H 232.204 -1.43059 4.3803 0
M  V30 2452 H 230.519 -1.44219 3.90627 0
M  V30 2453 H 233.116 -4.16734 3.35017 0
M  V30 2454 H 233.459 -3.8111 1.67513 0
M  V30 2455 H 233.992 -2.67842 2.94118 0
M  V30 2456 H 230.731 -2.77824 5.93712 0
M  V30 2457 H 230.251 -3.84874 4.60034 0
M  V30 2458 H 231.93 -3.85698 5.19467 0
M  V30 2459 N 232.062 -1.29571 -0.897171 0
M  V30 2460 C 233.287 -1.20705 -1.68656 0
M  V30 2461 C 233.712 0.228582 -1.86706 0
M  V30 2462 O 233.07 1.16494 -1.3892 0
M  V30 2463 C 233.118 -1.9282 -3.04717 0
M  V30 2464 O 232.222 -1.24697 -3.93096 0
M  V30 2465 H 231.563 -0.418126 -0.515816 0
M  V30 2466 H 234.093 -1.71183 -1.12061 0
M  V30 2467 H 234.103 -2.01372 -3.54843 0
M  V30 2468 H 232.778 -2.97239 -2.90899 0
M  V30 2469 H 231.355 -1.2442 -3.51531 0
M  V30 2470 N 233.54 1.10788 -1.12088 0
M  V30 2471 C 234.951 1.64181 -0.88891 0
M  V30 2472 C 235.302 1.87508 0.577498 0
M  V30 2473 O 234.427 1.61434 1.44112 0
M  V30 2474 C 235.022 2.98257 -1.60712 0
M  V30 2475 C 233.581 3.4853 -1.42139 0
M  V30 2476 C 232.728 2.23208 -1.6454 0
M  V30 2477 H 235.679 0.943368 -1.27618 0
M  V30 2478 H 235.7 3.65552 -1.05604 0
M  V30 2479 H 235.212 2.81246 -2.67436 0
M  V30 2480 H 233.313 3.70692 -0.376552 0
M  V30 2481 H 233.426 4.26882 -2.17505 0
M  V30 2482 H 231.79 2.31169 -1.06925 0
M  V30 2483 H 232.573 2.08733 -2.72554 0
M  V30 2484 N 235.018 0.912232 1.28515 0
M  V30 2485 C 236.264 0.545405 1.95328 0
M  V30 2486 C 236.597 -0.908313 1.71649 0
M  V30 2487 O 235.872 -1.64575 1.03659 0
M  V30 2488 C 236.155 0.853483 3.4984 0
M  V30 2489 C 236.008 2.35982 3.82926 0
M  V30 2490 C 237.327 0.348589 4.38717 0
M  V30 2491 H 234.446 0.199626 0.709449 0
M  V30 2492 H 237.088 1.1412 1.5191 0
M  V30 2493 H 235.238 0.34643 3.86952 0
M  V30 2494 H 236.91 2.93738 3.55691 0
M  V30 2495 H 235.153 2.81543 3.30024 0
M  V30 2496 H 235.824 2.52593 4.90816 0
M  V30 2497 H 238.3 0.78294 4.08668 0
M  V30 2498 H 237.176 0.593242 5.45685 0
M  V30 2499 H 237.437 -0.751049 4.35674 0
M  V30 2500 N 236.496 -1.42363 0.676048 0
M  V30 2501 C 237.446 -2.27987 -0.0242903 0
M  V30 2502 C 238.43 -1.41153 -0.772319 0
M  V30 2503 O 239.622 -1.64592 -0.651025 0
M  V30 2504 C 236.751 -3.29195 -0.973953 0
M  V30 2505 C 235.837 -4.23512 -0.223202 0
M  V30 2506 N 236.228 -4.99865 0.772589 0
M  V30 2507 C 234.526 -4.43606 -0.461469 0
M  V30 2508 C 235.227 -5.68757 1.22027 0
M  V30 2509 N 234.203 -5.40811 0.549975 0
M  V30 2510 H 238.005 -2.84445 0.73949 0
M  V30 2511 H 235.519 -1.54341 0.50522 0
M  V30 2512 H 237.516 -3.89339 -1.49067 0
M  V30 2513 H 236.176 -2.74298 -1.73755 0
M  V30 2514 H 237.187 -5.04921 1.15217 0
M  V30 2515 H 233.864 -3.99749 -1.20446 0
M  V30 2516 H 235.254 -6.40007 2.0455 0
M  V30 2517 N 237.974 -0.419461 -1.51915 0
M  V30 2518 C 239.202 0.152136 -2.0634 0
M  V30 2519 C 239.617 1.37988 -1.28859 0
M  V30 2520 O 238.974 1.79243 -0.343232 0
M  V30 2521 C 239.025 0.492266 -3.58133 0
M  V30 2522 O 238.746 -0.686736 -4.32684 0
M  V30 2523 C 240.247 1.11648 -4.2901 0
M  V30 2524 H 237.467 0.0158325 -0.670813 0
M  V30 2525 H 240.011 -0.593394 -1.95702 0
M  V30 2526 H 238.166 1.18769 -3.68745 0
M  V30 2527 H 238.58 -0.400341 -5.2297 0
M  V30 2528 H 240.054 1.3046 -5.36362 0
M  V30 2529 H 240.531 2.09251 -3.86148 0
M  V30 2530 H 241.137 0.460958 -4.22795 0
M  V30 2531 N 239.452 1.56882 -0.150215 0
M  V30 2532 C 240.698 1.96518 0.500834 0
M  V30 2533 C 241.031 1.03527 1.64304 0
M  V30 2534 O 240.306 0.0782751 1.94342 0
M  V30 2535 C 240.589 3.45822 1.00395 0
M  V30 2536 C 240.442 4.49591 -0.136983 0
M  V30 2537 C 241.761 3.97704 1.88467 0
M  V30 2538 H 238.88 0.714535 0.18058 0
M  V30 2539 H 241.522 1.88577 -0.232091 0
M  V30 2540 H 239.672 3.5272 1.62851 0
M  V30 2541 H 241.344 4.5477 -0.77343 0
M  V30 2542 H 239.587 4.26441 -0.795652 0
M  V30 2543 H 240.258 5.51402 0.256815 0
M  V30 2544 H 242.734 3.93304 1.35834 0
M  V30 2545 H 241.61 5.0263 2.20578 0
M  V30 2546 H 241.871 3.40252 2.82279 0
M  V30 2547 N 240.93 -0.123565 1.57115 0
M  V30 2548 C 241.84 -1.17074 2.033 0
M  V30 2549 C 242.856 -1.4561 0.952559 0
M  V30 2550 O 244.032 -1.56817 1.26374 0
M  V30 2551 C 241.097 -2.47857 2.42421 0
M  V30 2552 C 240.158 -2.26758 3.64526 0
M  V30 2553 C 239.391 -3.51305 4.01771 0
M  V30 2554 O 239.614 -4.5843 3.39409 0
M  V30 2555 O 238.548 -3.42578 4.94898 0
M  V30 2556 H 242.374 -0.808555 2.92739 0
M  V30 2557 H 239.959 -0.334027 1.45618 0
M  V30 2558 H 241.841 -3.2492 2.68338 0
M  V30 2559 H 240.516 -2.83558 1.5613 0
M  V30 2560 H 239.423 -1.47569 3.43765 0
M  V30 2561 H 240.756 -1.95963 4.51508 0
M  V30 2562 N 242.408 -1.52605 -0.393616 0
M  V30 2563 C 243.656 -1.67093 -1.13685 0
M  V30 2564 C 243.977 -0.411011 -1.90619 0
M  V30 2565 O 243.247 0.574491 -1.87287 0
M  V30 2566 H 241.827 -0.615923 -0.422668 0
M  V30 2567 H 244.489 -1.89704 -0.447039 0
M  V30 2568 H 243.585 -2.51922 -1.84232 0
M  V30 2569 N 243.887 0.651787 -1.4349 0
M  V30 2570 C 245.117 1.43728 -1.48411 0
M  V30 2571 C 245.525 1.8893 -0.10103 0
M  V30 2572 O 244.868 1.60182 0.899307 0
M  V30 2573 C 244.93 2.70411 -2.36893 0
M  V30 2574 C 244.594 2.4714 -3.8441 0
M  V30 2575 C 245.591 2.10271 -4.75481 0
M  V30 2576 C 243.276 2.6142 -4.28912 0
M  V30 2577 C 245.27 1.87982 -6.0905 0
M  V30 2578 C 242.957 2.38746 -5.62533 0
M  V30 2579 C 243.955 2.02083 -6.5242 0
M  V30 2580 O 243.643 1.79647 -7.8357 0
M  V30 2581 H 243.375 0.447962 -0.506267 0
M  V30 2582 H 245.929 0.80624 -1.88915 0
M  V30 2583 H 244.159 3.36079 -1.91278 0
M  V30 2584 H 245.848 3.32364 -2.33 0
M  V30 2585 H 246.614 1.98814 -4.42378 0
M  V30 2586 H 242.493 2.88931 -3.59222 0
M  V30 2587 H 246.037 1.5929 -6.7917 0
M  V30 2588 H 241.934 2.49806 -5.95203 0
M  V30 2589 H 242.702 1.9406 -7.95162 0
M  V30 2590 N 245.365 1.30045 0.890287 0
M  V30 2591 C 246.611 1.18737 1.64406 0
M  V30 2592 C 246.944 -0.258525 1.92472 0
M  V30 2593 O 246.219 -1.18562 1.54186 0
M  V30 2594 C 246.502 2.01087 2.98724 0
M  V30 2595 C 246.355 3.53867 2.77665 0
M  V30 2596 C 247.674 1.84457 3.9958 0
M  V30 2597 H 244.793 0.432698 0.596608 0
M  V30 2598 H 247.435 1.5962 1.0306 0
M  V30 2599 H 245.585 1.66349 3.51084 0
M  V30 2600 H 247.257 3.98637 2.32133 0
M  V30 2601 H 245.5 3.78318 2.12269 0
M  V30 2602 H 246.171 4.06772 3.7315 0
M  V30 2603 H 248.647 2.14817 3.56361 0
M  V30 2604 H 247.523 2.44411 4.91482 0
M  V30 2605 H 247.784 0.802276 4.3476 0
M  V30 2606 N 246.843 -1.10192 1.12674 0
M  V30 2607 C 247.79 -2.16606 0.796906 0
M  V30 2608 C 248.76 -1.64394 -0.237476 0
M  V30 2609 O 249.945 -1.90474 -0.111484 0
M  V30 2610 C 247.085 -3.44116 0.26043 0
M  V30 2611 C 246.198 -4.10268 1.35293 0
M  V30 2612 C 245.333 -5.25507 0.775621 0
M  V30 2613 C 244.372 -5.83567 1.84706 0
M  V30 2614 N 243.509 -6.90179 1.28829 0
M  V30 2615 H 248.349 -2.44163 1.70846 0
M  V30 2616 H 245.886 -1.19846 0.85295 0
M  V30 2617 H 247.844 -4.17143 -0.0686814 0
M  V30 2618 H 246.474 -3.16901 -0.614274 0
M  V30 2619 H 245.526 -3.35184 1.79877 0
M  V30 2620 H 246.838 -4.4946 2.16303 0
M  V30 2621 H 245.992 -6.05398 0.397327 0
M  V30 2622 H 244.731 -4.87656 -0.0656581 0
M  V30 2623 H 243.736 -5.02344 2.23452 0
M  V30 2624 H 244.961 -6.23482 2.69161 0
M  V30 2625 H 242.907 -6.54322 0.468881 0
M  V30 2626 H 242.824 -7.28097 2.03497 0
M  V30 2627 H 244.092 -7.73844 0.937311 0
M  V30 2628 N 248.321 -0.919034 -1.28029 0
M  V30 2629 C 249.251 -0.428581 -2.29533 0
M  V30 2630 C 250.232 0.50659 -1.62381 0
M  V30 2631 O 251.417 0.413195 -1.89753 0
M  V30 2632 C 248.547 0.327388 -3.45753 0
M  V30 2633 C 247.501 -0.519137 -4.2484 0
M  V30 2634 C 246.827 0.365486 -5.33449 0
M  V30 2635 C 248.127 -1.77914 -4.91064 0
M  V30 2636 H 249.821 -1.27687 -2.70807 0
M  V30 2637 H 247.367 -0.615428 -1.30186 0
M  V30 2638 H 249.32 0.681378 -4.15855 0
M  V30 2639 H 248.044 1.20963 -3.03374 0
M  V30 2640 H 246.703 -0.855717 -3.56473 0
M  V30 2641 H 246.351 1.24642 -4.87312 0
M  V30 2642 H 246.051 -0.197356 -5.87268 0
M  V30 2643 H 247.575 0.715241 -6.06396 0
M  V30 2644 H 248.989 -1.49374 -5.53498 0
M  V30 2645 H 247.386 -2.2848 -5.54903 0
M  V30 2646 H 248.456 -2.50382 -4.15255 0
M  V30 2647 N 249.799 1.42003 -0.683588 0
M  V30 2648 C 250.762 2.29191 -0.0198243 0
M  V30 2649 C 251.762 1.43773 0.72013 0
M  V30 2650 O 252.952 1.65061 0.556815 0
M  V30 2651 C 250.084 3.26435 0.982487 0
M  V30 2652 H 251.277 2.8938 -0.787345 0
M  V30 2653 H 248.83 1.49789 -0.446418 0
M  V30 2654 H 249.565 2.71203 1.77819 0
M  V30 2655 H 249.35 3.89449 0.455182 0
M  V30 2656 H 250.84 3.918 1.44508 0
M  V30 2657 N 251.277 0.427512 1.51691 0
M  V30 2658 C 252.525 -0.141948 2.01601 0
M  V30 2659 C 252.846 -1.44067 1.31414 0
M  V30 2660 O 252.116 -1.90763 0.445658 0
M  V30 2661 H 250.696 -0.0554468 0.744939 0
M  V30 2662 H 253.358 0.567968 1.86441 0
M  V30 2663 H 252.454 -0.324913 3.10404 0
M  V30 2664 N 252.755 -1.56801 0.158532 0
M  V30 2665 C 253.687 -2.14488 -0.807923 0
M  V30 2666 C 254.7 -1.09721 -1.20271 0
M  V30 2667 O 255.889 -1.36956 -1.14478 0
M  V30 2668 C 252.989 -2.66217 -2.09718 0
M  V30 2669 C 252.162 -3.95507 -1.86796 0
M  V30 2670 C 251.221 -4.3243 -2.99818 0
M  V30 2671 O 250.247 -5.00543 -2.71008 0
M  V30 2672 N 251.449 -3.92947 -4.27285 0
M  V30 2673 H 254.214 -2.98042 -0.314816 0
M  V30 2674 H 251.775 -1.61881 -0.0246692 0
M  V30 2675 H 253.767 -2.87924 -2.84398 0
M  V30 2676 H 252.337 -1.87324 -2.50257 0
M  V30 2677 H 251.557 -3.82309 -0.96089 0
M  V30 2678 H 252.845 -4.79972 -1.68833 0
M  V30 2679 H 252.243 -3.38087 -4.53557 0
M  V30 2680 H 250.8 -4.19681 -4.9871 0
M  V30 2681 N 254.233 0.115231 -1.57178 0
M  V30 2682 C 255.163 1.1423 -2.03651 0
M  V30 2683 C 256.144 1.42967 -0.921655 0
M  V30 2684 O 257.329 1.53343 -1.19162 0
M  V30 2685 C 254.459 2.4675 -2.44401 0
M  V30 2686 C 253.413 2.32467 -3.59365 0
M  V30 2687 C 252.739 3.69984 -3.86026 0
M  V30 2688 C 254.039 1.78203 -4.90959 0
M  V30 2689 H 255.733 0.755749 -2.89705 0
M  V30 2690 H 253.279 0.362093 -1.39373 0
M  V30 2691 H 255.232 3.18854 -2.75517 0
M  V30 2692 H 253.956 2.87302 -1.55322 0
M  V30 2693 H 252.615 1.62811 -3.28463 0
M  V30 2694 H 252.263 4.08028 -2.94147 0
M  V30 2695 H 251.963 3.61279 -4.63412 0
M  V30 2696 H 253.487 4.43587 -4.19599 0
M  V30 2697 H 254.901 2.40128 -5.20587 0
M  V30 2698 H 253.298 1.8031 -5.72371 0
M  V30 2699 H 254.368 0.739876 -4.79222 0
M  V30 2700 N 255.711 1.52812 0.385517 0
M  V30 2701 C 256.641 1.80808 1.47752 0
M  V30 2702 C 257.622 0.660318 1.5676 0
M  V30 2703 O 258.807 0.908246 1.71652 0
M  V30 2704 C 255.937 1.98008 2.85324 0
M  V30 2705 C 254.891 3.13709 2.91154 0
M  V30 2706 C 254.217 3.16169 4.31209 0
M  V30 2707 C 255.517 4.52709 2.60483 0
M  V30 2708 H 257.211 2.72253 1.24573 0
M  V30 2709 H 254.757 1.31003 0.597839 0
M  V30 2710 H 256.71 2.16176 3.61726 0
M  V30 2711 H 255.434 1.03255 3.09848 0
M  V30 2712 H 254.093 2.95329 2.17201 0
M  V30 2713 H 253.741 2.19092 4.52778 0
M  V30 2714 H 253.441 3.93894 4.36029 0
M  V30 2715 H 254.965 3.36496 5.09512 0
M  V30 2716 H 256.379 4.71173 3.26602 0
M  V30 2717 H 254.776 5.32528 2.76648 0
M  V30 2718 H 255.846 4.59186 1.55809 0
M  V30 2719 N 257.189 -0.644168 1.43834 0
M  V30 2720 C 258.466 -1.40188 1.36406 0
M  V30 2721 C 258.846 -2.11094 0.0163124 0
M  V30 2722 O 258.194 -2.05426 -1.00062 0
M  V30 2723 C 258.404 -2.3791 2.55343 0
M  V30 2724 C 259.752 -3.01637 2.98832 0
M  V30 2725 O 260.776 -2.48237 2.55455 0
M  V30 2726 O 259.635 -3.98477 3.74003 0
M  V30 2727 H 256.729 -0.626773 0.539523 0
M  V30 2728 H 259.275 -0.670317 1.559 0
M  V30 2729 H 258.047 -1.84525 3.4506 0
M  V30 2730 H 257.67 -3.18503 2.37995 0
M  V30 2731 N 258.668 -1.30515 -0.883378 0
M  V30 2732 C 259.601 -1.11359 -1.99184 0
M  V30 2733 C 260.579 -0.0207858 -1.62587 0
M  V30 2734 O 261.763 -0.174646 -1.87689 0
M  V30 2735 C 258.89 -0.69871 -3.31415 0
M  V30 2736 C 257.936 -1.79261 -3.86998 0
M  V30 2737 S 258.769 -3.39536 -4.14096 0
M  V30 2738 C 259.925 -2.99954 -5.49344 0
M  V30 2739 H 260.158 -2.052 -2.15128 0
M  V30 2740 H 257.691 -1.14847 -1.03196 0
M  V30 2741 H 259.649 -0.466075 -4.07846 0
M  V30 2742 H 258.31 0.220368 -3.13326 0
M  V30 2743 H 257.503 -1.45464 -4.82552 0
M  V30 2744 H 257.105 -1.97961 -3.17313 0
M  V30 2745 H 259.397 -2.48013 -6.30473 0
M  V30 2746 H 260.34 -3.9442 -5.8808 0
M  V30 2747 H 260.748 -2.37775 -5.1198 0
M  V30 2748 N 260.146 1.09593 -1.13257 0
M  V30 2749 C 261.394 1.81375 -0.891492 0
M  V30 2750 C 261.715 1.86049 0.584009 0
M  V30 2751 O 260.985 1.34481 1.42449 0
M  V30 2752 H 259.565 0.671708 -0.326828 0
M  V30 2753 H 262.227 1.3256 -1.42877 0
M  V30 2754 H 261.323 2.84612 -1.28071 0
M  V30 2755 N 261.624 0.925811 1.2754 0
M  V30 2756 C 262.587 0.428129 2.25166 0
M  V30 2757 C 263.587 -0.452261 1.54309 0
M  V30 2758 O 264.777 -0.253608 1.72344 0
M  V30 2759 C 261.909 -0.384749 3.38722 0
M  V30 2760 H 263.102 1.29066 2.70706 0
M  V30 2761 H 260.655 0.706323 1.3943 0
M  V30 2762 H 261.39 -1.26618 2.98561 0
M  V30 2763 H 261.175 0.246454 3.91325 0
M  V30 2764 H 262.665 -0.723389 4.11287 0
M  V30 2765 N 263.102 -1.41638 0.69111 0
M  V30 2766 C 264.379 -1.95036 0.148421 0
M  V30 2767 C 264.759 -1.63072 -1.34055 0
M  V30 2768 O 264.107 -0.93538 -2.08478 0
M  V30 2769 C 264.317 -3.46279 0.434951 0
M  V30 2770 C 265.665 -4.23069 0.360275 0
M  V30 2771 O 266.689 -3.54277 0.369613 0
M  V30 2772 O 265.548 -5.45583 0.316534 0
M  V30 2773 H 262.642 -0.826908 0.0123654 0
M  V30 2774 H 265.188 -1.5138 0.766963 0
M  V30 2775 H 263.96 -3.6281 1.46576 0
M  V30 2776 H 263.583 -3.97019 -0.214787 0
M  V30 2777 N 264.58 -0.43555 -1.51462 0
M  V30 2778 C 265.805 0.132627 -2.06976 0
M  V30 2779 C 266.23 1.35848 -1.30104 0
M  V30 2780 O 265.588 1.78112 -0.338493 0
M  V30 2781 C 265.636 0.43523 -3.57964 0
M  V30 2782 O 264.74 1.52198 -3.83288 0
M  V30 2783 H 264.081 0.00265 -0.663995 0
M  V30 2784 H 266.611 -0.616369 -1.95095 0
M  V30 2785 H 266.621 0.686206 -4.02188 0
M  V30 2786 H 265.296 -0.460739 -4.1334 0
M  V30 2787 H 263.873 1.2611 -3.50928 0
M  V30 2788 N 266.058 1.56714 -0.166846 0
M  V30 2789 C 267.307 1.95922 0.479318 0
M  V30 2790 C 267.62 1.05529 1.6469 0
M  V30 2791 O 268.826 1.34399 2.35901 0
M  V30 2792 C 267.282 3.48359 0.90412 0
M  V30 2793 C 266.89 4.47369 -0.237621 0
M  V30 2794 C 268.634 3.96394 1.51896 0
M  V30 2795 C 266.541 5.91039 0.206561 0
M  V30 2796 H 265.471 0.731495 0.18284 0
M  V30 2797 H 268.122 1.81728 -0.254363 0
M  V30 2798 H 266.504 3.57955 1.69365 0
M  V30 2799 H 267.678 4.49485 -1.01489 0
M  V30 2800 H 265.993 4.09366 -0.762128 0
M  V30 2801 H 268.59 5.01186 1.86325 0
M  V30 2802 H 268.933 3.39075 2.41524 0
M  V30 2803 H 269.466 3.89796 0.79395 0
M  V30 2804 H 266.205 6.52221 -0.654834 0
M  V30 2805 H 265.725 5.9224 0.949282 0
M  V30 2806 H 267.404 6.43707 0.651939 0
M  V30 2807 N 267.536 -0.106894 1.57237 0
M  V30 2808 C 268.499 -1.11466 2.0027 0
M  V30 2809 C 269.499 -1.33623 0.894519 0
M  V30 2810 O 270.689 -1.29935 1.16028 0
M  V30 2811 C 267.821 -2.46646 2.35327 0
M  V30 2812 H 269.014 -0.744516 2.90512 0
M  V30 2813 H 266.567 -0.351576 1.52295 0
M  V30 2814 H 267.302 -2.88558 1.48003 0
M  V30 2815 H 267.087 -2.31915 3.16161 0
M  V30 2816 H 268.577 -3.19151 2.69318 0
M  V30 2817 N 269.014 -1.53014 -0.377408 0
M  V30 2818 C 269.944 -1.81589 -1.46791 0
M  V30 2819 C 270.925 -0.668622 -1.56408 0
M  V30 2820 O 272.11 -0.917337 -1.71168 0
M  V30 2821 C 269.24 -1.99519 -2.8427 0
M  V30 2822 C 268.194 -3.15249 -2.89486 0
M  V30 2823 C 267.52 -3.18451 -4.29527 0
M  V30 2824 C 268.82 -4.54084 -2.58079 0
M  V30 2825 H 270.514 -2.7291 -1.23127 0
M  V30 2826 H 268.06 -1.31319 -0.590883 0
M  V30 2827 H 270.013 -2.18092 -3.60575 0
M  V30 2828 H 268.737 -1.04897 -3.09296 0
M  V30 2829 H 267.396 -2.96477 -2.15631 0
M  V30 2830 H 267.044 -2.2149 -4.5161 0
M  V30 2831 H 266.744 -3.962 -4.33934 0
M  V30 2832 H 268.268 -3.39193 -5.07721 0
M  V30 2833 H 269.682 -4.72899 -3.24098 0
M  V30 2834 H 268.079 -5.33987 -2.7382 0
M  V30 2835 H 269.149 -4.60006 -1.53372 0
M  V30 2836 N 270.492 0.636531 -1.44174 0
M  V30 2837 C 271.439 1.74875 -1.50624 0
M  V30 2838 C 272.409 1.62275 -0.35442 0
M  V30 2839 O 273.594 1.82276 -0.563908 0
M  V30 2840 C 270.734 3.13102 -1.45125 0
M  V30 2841 C 269.847 3.36717 -2.7064 0
M  V30 2842 C 268.982 4.64885 -2.57013 0
M  V30 2843 C 268.021 4.8166 -3.77717 0
M  V30 2844 N 267.158 6.01101 -3.62798 0
M  V30 2845 H 271.998 1.68697 -2.45653 0
M  V30 2846 H 269.535 0.823004 -1.21922 0
M  V30 2847 H 271.493 3.93034 -1.39929 0
M  V30 2848 H 270.123 3.18308 -0.536671 0
M  V30 2849 H 269.175 2.50763 -2.86046 0
M  V30 2850 H 270.487 3.44993 -3.60252 0
M  V30 2851 H 269.641 5.52969 -2.49619 0
M  V30 2852 H 268.38 4.58957 -1.64953 0
M  V30 2853 H 267.385 3.92007 -3.85501 0
M  V30 2854 H 268.61 4.89406 -4.70807 0
M  V30 2855 H 266.556 5.96273 -2.73486 0
M  V30 2856 H 266.473 6.10409 -4.46023 0
M  V30 2857 H 267.741 6.91761 -3.59286 0
M  V30 2858 N 271.97 1.30982 0.876444 0
M  V30 2859 C 273.247 1.10942 1.61094 0
M  V30 2860 C 273.627 -0.338223 2.08373 0
M  V30 2861 O 272.975 -1.33122 1.85717 0
M  V30 2862 C 273.185 2.11789 2.77392 0
M  V30 2863 C 274.533 2.43965 3.47514 0
M  V30 2864 O 275.557 2.10166 2.87591 0
M  V30 2865 O 274.416 3.01817 4.55597 0
M  V30 2866 H 271.51 0.42667 0.708436 0
M  V30 2867 H 274.056 1.42438 0.922474 0
M  V30 2868 H 272.828 3.09194 2.39823 0
M  V30 2869 H 272.451 1.81161 3.5393 0
M  V30 2870 N 273.449 -1.08991 1.13837 0
M  V30 2871 C 274.382 -2.15049 0.763477 0
M  V30 2872 C 275.36 -1.60629 -0.252398 0
M  V30 2873 O 276.544 -1.87958 -0.142853 0
M  V30 2874 C 273.671 -3.38441 0.132545 0
M  V30 2875 C 272.717 -4.11596 1.11763 0
M  V30 2876 S 273.55 -4.6521 2.65216 0
M  V30 2877 C 274.706 -5.91896 2.03495 0
M  V30 2878 H 274.939 -2.46518 1.66182 0
M  V30 2879 H 272.472 -1.21008 0.958976 0
M  V30 2880 H 274.43 -4.09883 -0.225074 0
M  V30 2881 H 273.091 -3.05182 -0.743135 0
M  V30 2882 H 272.284 -5.00121 0.624076 0
M  V30 2883 H 271.886 -3.46038 1.41894 0
M  V30 2884 H 274.178 -6.63156 1.38675 0
M  V30 2885 H 275.121 -6.45938 2.9012 0
M  V30 2886 H 275.529 -5.44625 1.48471 0
M  V30 2887 N 274.927 -0.932562 -1.27047 0
M  V30 2888 C 275.89 -0.440064 -2.24936 0
M  V30 2889 C 276.89 0.444071 -1.54547 0
M  V30 2890 O 278.08 0.244465 -1.72476 0
M  V30 2891 C 275.212 0.36678 -3.38921 0
M  V30 2892 H 276.405 -1.305 -2.70018 0
M  V30 2893 H 273.958 -0.713707 -1.39054 0
M  V30 2894 H 274.693 1.25033 -2.99228 0
M  V30 2895 H 274.478 -0.267204 -3.91188 0
M  V30 2896 H 275.968 0.701567 -4.11665 0
M  V30 2897 N 276.405 1.4127 -0.698611 0
M  V30 2898 C 277.368 2.29158 -0.044132 0
M  V30 2899 C 278.368 1.44529 0.704841 0
M  V30 2900 O 279.558 1.65643 0.539276 0
M  V30 2901 C 276.69 3.27459 0.947809 0
M  V30 2902 H 277.883 2.88529 -0.817994 0
M  V30 2903 H 275.436 1.49307 -0.46228 0
M  V30 2904 H 276.171 2.73073 1.74933 0
M  V30 2905 H 275.956 3.8991 0.41385 0
M  V30 2906 H 277.446 3.93311 1.40344 0
M  V30 2907 N 277.883 0.443576 1.51229 0
M  V30 2908 C 278.813 -0.355142 2.30783 0
M  V30 2909 C 279.794 -1.0154 1.36468 0
M  V30 2910 O 280.979 -1.01785 1.65389 0
M  V30 2911 C 278.109 -1.45312 3.15439 0
M  V30 2912 C 277.063 -0.916002 4.18083 0
M  V30 2913 C 276.389 -2.1102 4.91299 0
M  V30 2914 C 277.689 0.0538602 5.22272 0
M  V30 2915 H 279.383 0.308767 2.97804 0
M  V30 2916 H 276.929 0.149937 1.43217 0
M  V30 2917 H 278.882 -2.01914 3.69876 0
M  V30 2918 H 277.606 -2.14541 2.46252 0
M  V30 2919 H 276.265 -0.372145 3.64706 0
M  V30 2920 H 275.913 -2.78882 4.18609 0
M  V30 2921 H 275.613 -1.75717 5.60712 0
M  V30 2922 H 277.137 -2.68164 5.48562 0
M  V30 2923 H 278.551 -0.422069 5.71744 0
M  V30 2924 H 276.948 0.319776 5.99247 0
M  V30 2925 H 278.018 0.98858 4.74716 0
M  V30 2926 N 279.361 -1.56624 0.175154 0
M  V30 2927 C 280.291 -2.21155 -0.749195 0
M  V30 2928 C 281.272 -1.16836 -1.23626 0
M  V30 2929 O 282.457 -1.45277 -1.28873 0
M  V30 2930 C 279.587 -2.8553 -1.97711 0
M  V30 2931 C 278.541 -3.95921 -1.62575 0
M  V30 2932 C 277.867 -4.47365 -2.92864 0
M  V30 2933 C 279.167 -5.15323 -0.850838 0
M  V30 2934 H 280.861 -2.98653 -0.211295 0
M  V30 2935 H 278.407 -1.43651 -0.100188 0
M  V30 2936 H 280.36 -3.2935 -2.62881 0
M  V30 2937 H 279.084 -2.05406 -2.53921 0
M  V30 2938 H 277.743 -3.52762 -0.997719 0
M  V30 2939 H 277.391 -3.64027 -3.47122 0
M  V30 2940 H 277.091 -5.21839 -2.70106 0
M  V30 2941 H 278.615 -4.93873 -3.59056 0
M  V30 2942 H 280.029 -5.55812 -1.40521 0
M  V30 2943 H 278.426 -5.95739 -0.722154 0
M  V30 2944 H 279.496 -4.84661 0.152082 0
M  V30 2945 N 280.839 0.0985539 -1.57292 0
M  V30 2946 C 281.786 1.11981 -2.01814 0
M  V30 2947 C 282.756 1.39999 -0.89384 0
M  V30 2948 O 283.941 1.5152 -1.15958 0
M  V30 2949 C 281.081 2.43577 -2.44467 0
M  V30 2950 C 280.194 2.2232 -3.70402 0
M  V30 2951 C 279.329 3.4729 -4.01949 0
M  V30 2952 C 278.368 3.2128 -5.21005 0
M  V30 2953 N 277.505 4.38507 -5.48321 0
M  V30 2954 H 282.345 0.733149 -2.88841 0
M  V30 2955 H 279.882 0.350482 -1.42864 0
M  V30 2956 H 281.84 3.20373 -2.6724 0
M  V30 2957 H 280.47 2.80097 -1.60455 0
M  V30 2958 H 279.522 1.36343 -3.55126 0
M  V30 2959 H 280.834 1.99089 -4.57345 0
M  V30 2960 H 279.988 4.32495 -4.25479 0
M  V30 2961 H 278.727 3.73572 -3.13521 0
M  V30 2962 H 277.732 2.34468 -4.97298 0
M  V30 2963 H 278.957 2.96348 -6.11028 0
M  V30 2964 H 276.903 4.64871 -4.62851 0
M  V30 2965 H 276.82 4.18455 -6.29628 0
M  V30 2966 H 278.088 5.24787 -5.76385 0
M  V30 2967 N 282.317 1.53212 0.369288 0
M  V30 2968 C 283.728 1.60943 0.946276 0
M  V30 2969 C 284.079 0.47452 1.90375 0
M  V30 2970 O 283.204 -0.399597 2.12679 0
M  V30 2971 C 283.799 2.91715 1.72302 0
M  V30 2972 C 282.358 3.01792 2.24941 0
M  V30 2973 C 281.505 2.56211 1.06072 0
M  V30 2974 H 284.456 1.58007 0.148198 0
M  V30 2975 H 284.477 2.79309 2.58393 0
M  V30 2976 H 283.989 3.74295 1.0259 0
M  V30 2977 H 282.09 2.23791 2.97906 0
M  V30 2978 H 282.203 4.06803 2.53077 0
M  V30 2979 H 280.567 2.10998 1.4266 0
M  V30 2980 H 281.35 3.41206 0.378639 0
M  V30 2981 N 283.795 -0.628877 1.44509 0
M  V30 2982 C 284.727 -1.754 1.47538 0
M  V30 2983 C 285.74 -1.58575 0.368506 0
M  V30 2984 O 286.929 -1.66847 0.634376 0
M  V30 2985 C 284.029 -3.1315 1.29577 0
M  V30 2986 C 283.202 -3.56413 2.53551 0
M  V30 2987 C 282.261 -4.7305 2.30457 0
M  V30 2988 O 281.287 -4.81247 3.03957 0
M  V30 2989 N 282.489 -5.64903 1.3366 0
M  V30 2990 H 285.254 -1.73272 2.44534 0
M  V30 2991 H 282.815 -0.813512 1.39977 0
M  V30 2992 H 284.807 -3.88902 1.11971 0
M  V30 2993 H 283.377 -3.09908 0.409371 0
M  V30 2994 H 282.597 -2.70847 2.86419 0
M  V30 2995 H 283.885 -3.82071 3.36005 0
M  V30 2996 H 283.283 -5.60975 0.729604 0
M  V30 2997 H 281.84 -6.40275 1.22032 0
M  V30 2998 N 285.273 -1.31445 -0.869486 0
M  V30 2999 C 286.684 -1.19042 -1.43826 0
M  V30 3000 C 287.035 0.202919 -1.95148 0
M  V30 3001 O 286.16 1.10071 -1.86315 0
M  V30 3002 C 286.755 -2.15499 -2.6143 0
M  V30 3003 C 285.314 -2.07028 -3.14351 0
M  V30 3004 C 284.461 -2.04701 -1.87063 0
M  V30 3005 H 287.412 -1.43489 -0.677984 0
M  V30 3006 H 287.433 -1.74488 -3.38134 0
M  V30 3007 H 286.945 -3.16899 -2.24046 0
M  V30 3008 H 285.046 -1.08825 -3.56354 0
M  V30 3009 H 285.159 -2.96157 -3.766 0
M  V30 3010 H 283.523 -1.49724 -2.06046 0
M  V30 3011 H 284.306 -3.07857 -1.51917 0
M  V30 3012 N 286.751 1.08385 -1.14413 0
M  V30 3013 C 287.714 2.13486 -0.834048 0
M  V30 3014 C 288.714 1.59988 0.161418 0
M  V30 3015 O 289.904 1.74071 -0.0669575 0
M  V30 3016 C 287.036 3.4003 -0.243354 0
M  V30 3017 H 288.229 2.42425 -1.7655 0
M  V30 3018 H 285.782 1.24101 -0.950189 0
M  V30 3019 H 286.517 3.16726 0.696807 0
M  V30 3020 H 286.302 3.80157 -0.960367 0
M  V30 3021 H 287.792 4.17577 -0.0436242 0
M  V30 3022 N 288.23 0.939286 1.26551 0
M  V30 3023 C 289.46 0.601663 1.97645 0
M  V30 3024 C 289.868 -0.827206 1.70159 0
M  V30 3025 O 289.211 -1.56291 0.965338 0
M  V30 3026 C 289.273 0.761725 3.51337 0
M  V30 3027 C 288.937 2.16487 4.0247 0
M  V30 3028 C 289.934 3.14016 4.14355 0
M  V30 3029 C 287.619 2.48494 4.36527 0
M  V30 3030 C 289.613 4.41654 4.59587 0
M  V30 3031 C 287.3 3.76364 4.81449 0
M  V30 3032 C 288.298 4.72758 4.92939 0
M  V30 3033 O 287.986 5.98352 5.36871 0
M  V30 3034 H 287.718 0.225758 0.637189 0
M  V30 3035 H 290.272 1.26178 1.62075 0
M  V30 3036 H 288.502 0.0444808 3.86674 0
M  V30 3037 H 290.191 0.427442 4.03643 0
M  V30 3038 H 290.957 2.90613 3.8829 0
M  V30 3039 H 286.836 1.74202 4.26819 0
M  V30 3040 H 290.38 5.16896 4.68471 0
M  V30 3041 H 286.277 3.99582 5.06956 0
M  V30 3042 H 287.045 6.01507 5.55096 0
M  V30 3043 N 289.708 -1.40897 0.706093 0
M  V30 3044 C 290.985 -1.94868 0.169099 0
M  V30 3045 C 291.365 -1.64485 -1.32318 0
M  V30 3046 O 290.713 -0.95744 -2.07474 0
M  V30 3047 C 290.923 -3.45798 0.471654 0
M  V30 3048 C 292.271 -4.22663 0.405127 0
M  V30 3049 O 293.295 -3.53865 0.407168 0
M  V30 3050 O 292.154 -5.45216 0.374383 0
M  V30 3051 H 289.248 -0.82673 0.0211352 0
M  V30 3052 H 291.794 -1.50558 0.782976 0
M  V30 3053 H 290.566 -3.61235 1.50416 0
M  V30 3054 H 290.189 -3.97225 -0.172666 0
M  V30 3055 N 291.186 -0.45159 -1.50991 0
M  V30 3056 C 292.435 0.111653 -2.01391 0
M  V30 3057 C 292.748 1.42529 -1.33959 0
M  V30 3058 O 293.954 2.07232 -1.75405 0
M  V30 3059 C 292.41 0.249514 -3.59034 0
M  V30 3060 C 292.018 -1.05453 -4.35412 0
M  V30 3061 C 293.762 0.765762 -4.17536 0
M  V30 3062 C 291.669 -0.881529 -5.84793 0
M  V30 3063 H 290.599 0.0455022 -0.752626 0
M  V30 3064 H 293.25 -0.583524 -1.73975 0
M  V30 3065 H 291.632 1.00803 -3.82955 0
M  V30 3066 H 292.806 -1.82248 -4.23229 0
M  V30 3067 H 291.121 -1.50039 -3.88429 0
M  V30 3068 H 293.718 0.911913 -5.26866 0
M  V30 3069 H 294.061 1.75201 -3.77638 0
M  V30 3070 H 294.594 0.0651744 -3.97747 0
M  V30 3071 H 291.333 -1.84057 -6.29129 0
M  V30 3072 H 290.853 -0.153625 -5.99603 0
M  V30 3073 H 292.532 -0.540363 -6.4474 0
M  V30 3074 N 292.664 1.56529 -0.183458 0
M  V30 3075 C 293.913 1.96419 0.458511 0
M  V30 3076 C 294.226 1.0727 1.63562 0
M  V30 3077 O 295.432 1.36893 2.34462 0
M  V30 3078 C 293.888 3.49298 0.867122 0
M  V30 3079 C 293.496 4.47092 -0.285057 0
M  V30 3080 C 295.24 3.97983 1.47683 0
M  V30 3081 C 293.147 5.91225 0.143862 0
M  V30 3082 H 292.077 0.733394 0.175071 0
M  V30 3083 H 294.728 1.81448 -0.273624 0
M  V30 3084 H 293.11 3.59731 1.65559 0
M  V30 3085 H 294.284 4.48383 -1.0625 0
M  V30 3086 H 292.599 4.08535 -0.805503 0
M  V30 3087 H 295.196 5.03134 1.80999 0
M  V30 3088 H 295.539 3.41618 2.37914 0
M  V30 3089 H 296.072 3.90617 0.752562 0
M  V30 3090 H 292.811 6.5149 -0.723974 0
M  V30 3091 H 292.331 5.93214 0.886413 0
M  V30 3092 H 294.01 6.44362 0.583628 0
M  V30 3093 N 294.142 -0.090211 1.57342 0
M  V30 3094 C 295.089 -1.10909 2.02405 0
M  V30 3095 C 296.059 -1.39523 0.901252 0
M  V30 3096 O 297.244 -1.50903 1.1676 0
M  V30 3097 C 294.384 -2.42277 2.45755 0
M  V30 3098 C 293.497 -2.20352 3.71576 0
M  V30 3099 C 292.632 -3.45154 4.03785 0
M  V30 3100 C 291.671 -3.18512 5.22701 0
M  V30 3101 N 290.808 -4.35593 5.50639 0
M  V30 3102 H 295.648 -0.71782 2.89225 0
M  V30 3103 H 293.185 -0.342901 1.43048 0
M  V30 3104 H 295.143 -3.18951 2.68935 0
M  V30 3105 H 293.773 -2.79242 1.61938 0
M  V30 3106 H 292.825 -1.34458 3.55844 0
M  V30 3107 H 294.137 -1.96661 4.58395 0
M  V30 3108 H 293.291 -4.30233 4.27767 0
M  V30 3109 H 292.03 -3.71904 3.15498 0
M  V30 3110 H 291.035 -2.31827 4.98534 0
M  V30 3111 H 292.26 -2.93103 6.12591 0
M  V30 3112 H 290.206 -4.6241 4.6531 0
M  V30 3113 H 290.123 -4.1511 6.31838 0
M  V30 3114 H 291.391 -5.21723 5.7916 0
M  V30 3115 N 295.62 -1.53406 -0.361157 0
M  V30 3116 C 296.583 -1.79479 -1.42548 0
M  V30 3117 C 297.583 -0.665327 -1.4639 0
M  V30 3118 O 298.773 -0.933549 -1.47073 0
M  V30 3119 C 295.905 -1.92087 -2.8163 0
M  V30 3120 H 297.098 -2.74538 -1.20701 0
M  V30 3121 H 294.651 -1.4455 -0.594546 0
M  V30 3122 H 295.386 -0.991099 -3.08784 0
M  V30 3123 H 295.171 -2.74241 -2.80239 0
M  V30 3124 H 296.661 -2.13836 -3.58697 0
M  V30 3125 N 297.098 0.621204 -1.44841 0
M  V30 3126 C 298.347 1.37658 -1.47422 0
M  V30 3127 C 298.66 1.95264 -0.114629 0
M  V30 3128 O 299.866 2.71494 -0.0180199 0
M  V30 3129 C 298.322 2.49285 -2.59586 0
M  V30 3130 C 297.93 1.98149 -4.01797 0
M  V30 3131 C 299.674 3.26409 -2.71399 0
M  V30 3132 C 297.581 3.07178 -5.05367 0
M  V30 3133 H 296.511 0.517344 -0.548517 0
M  V30 3134 H 299.162 0.667257 -1.70938 0
M  V30 3135 H 297.544 3.22839 -2.29328 0
M  V30 3136 H 298.718 1.31395 -4.41669 0
M  V30 3137 H 297.033 1.33812 -3.94314 0
M  V30 3138 H 299.63 4.07706 -3.45948 0
M  V30 3139 H 299.973 3.76535 -1.77559 0
M  V30 3140 H 300.506 2.5995 -3.01116 0
M  V30 3141 H 297.245 2.61985 -6.00869 0
M  V30 3142 H 296.765 3.72542 -4.70077 0
M  V30 3143 H 298.444 3.71789 -5.29511 0
M  V30 3144 N 298.576 1.31904 0.862503 0
M  V30 3145 C 299.523 1.20182 1.9704 0
M  V30 3146 C 300.493 0.0858247 1.65878 0
M  V30 3147 O 301.678 0.26 1.8902 0
M  V30 3148 C 298.818 0.922797 3.32533 0
M  V30 3149 C 297.931 2.12284 3.76244 0
M  V30 3150 C 297.066 1.77996 5.00491 0
M  V30 3151 C 296.105 2.94366 5.36671 0
M  V30 3152 N 295.242 2.60223 6.52095 0
M  V30 3153 H 300.082 2.14951 2.06398 0
M  V30 3154 H 297.619 1.06917 1.01031 0
M  V30 3155 H 299.577 0.741548 4.10557 0
M  V30 3156 H 298.207 0.0119227 3.22798 0
M  V30 3157 H 297.259 2.41461 2.9394 0
M  V30 3158 H 298.571 2.99357 3.98982 0
M  V30 3159 H 297.725 1.56377 5.862 0
M  V30 3160 H 296.464 0.881252 4.79672 0
M  V30 3161 H 295.469 3.16625 4.49476 0
M  V30 3162 H 296.694 3.84957 5.59451 0
M  V30 3163 H 294.64 1.72884 6.32809 0
M  V30 3164 H 294.557 3.40827 6.74814 0
M  V30 3165 H 295.825 2.42016 7.40978 0
M  V30 3166 N 300.054 -1.07777 1.14986 0
M  V30 3167 C 301.331 -1.7699 0.832695 0
M  V30 3168 C 301.711 -2.001 -0.672561 0
M  V30 3169 O 301.059 -1.61598 -1.6155 0
M  V30 3170 C 301.269 -3.08139 1.63863 0
M  V30 3171 C 302.617 -3.8256 1.84208 0
M  V30 3172 O 303.641 -3.17939 1.60603 0
M  V30 3173 O 302.5 -4.98612 2.23714 0
M  V30 3174 H 299.594 -0.768389 0.305791 0
M  V30 3175 H 302.14 -1.14182 1.25541 0
M  V30 3176 H 300.912 -2.86909 2.6608 0
M  V30 3177 H 300.535 -3.78678 1.21197 0
M  V30 3178 N 301.532 -0.945985 -1.26051 0
M  V30 3179 C 302.76 -0.613025 -1.9761 0
M  V30 3180 C 303.175 0.813035 -1.70397 0
M  V30 3181 O 302.532 1.54274 -0.974979 0
M  V30 3182 C 302.583 -0.85159 -3.51326 0
M  V30 3183 O 302.304 -2.22157 -3.77595 0
M  V30 3184 C 303.805 -0.529831 -4.40122 0
M  V30 3185 H 301.025 -0.230593 -0.630133 0
M  V30 3186 H 303.569 -1.268 -1.60443 0
M  V30 3187 H 301.724 -0.243151 -3.86636 0
M  V30 3188 H 302.138 -2.2852 -4.721 0
M  V30 3189 H 303.612 -0.747348 -5.46917 0
M  V30 3190 H 304.089 0.535341 -4.35925 0
M  V30 3191 H 304.695 -1.11721 -4.10364 0
M  V30 3192 N 303.011 1.40521 -0.713556 0
M  V30 3193 C 304.241 2.0494 -0.261395 0
M  V30 3194 C 304.649 1.53861 1.10107 0
M  V30 3195 O 303.992 0.689321 1.70276 0
M  V30 3196 C 304.054 3.59138 -0.161227 0
M  V30 3197 C 303.718 4.33096 -1.45865 0
M  V30 3198 C 304.715 4.61182 -2.40016 0
M  V30 3199 C 302.4 4.72043 -1.71701 0
M  V30 3200 C 304.394 5.27196 -3.58251 0
M  V30 3201 C 302.081 5.37789 -2.90218 0
M  V30 3202 C 303.079 5.65295 -3.83315 0
M  V30 3203 O 302.767 6.29683 -4.99754 0
M  V30 3204 H 302.499 0.666041 -0.115608 0
M  V30 3205 H 305.053 1.80954 -0.971849 0
M  V30 3206 H 303.283 3.81936 0.605153 0
M  V30 3207 H 304.972 4.05091 0.256105 0
M  V30 3208 H 305.738 4.31559 -2.21318 0
M  V30 3209 H 301.617 4.50003 -1.00092 0
M  V30 3210 H 305.161 5.48582 -4.30934 0
M  V30 3211 H 301.058 5.66831 -3.08825 0
M  V30 3212 H 301.826 6.4818 -4.99805 0
M  V30 3213 N 304.489 0.459591 1.5075 0
M  V30 3214 C 305.737 -0.0991532 2.01857 0
M  V30 3215 C 306.058 -1.41247 1.34441 0
M  V30 3216 O 305.328 -1.89775 0.486022 0
M  V30 3217 H 303.908 -0.039633 0.745948 0
M  V30 3218 H 306.57 0.607387 1.85194 0
M  V30 3219 H 305.666 -0.258998 3.11023 0
M  V30 3220 N 305.967 -1.56429 0.191757 0
M  V30 3221 C 306.899 -2.16154 -0.762245 0
M  V30 3222 C 307.912 -1.12247 -1.17917 0
M  V30 3223 O 309.101 -1.39353 -1.11548 0
M  V30 3224 C 306.201 -2.70606 -2.04024 0
M  V30 3225 C 305.374 -3.99381 -1.78364 0
M  V30 3226 C 304.433 -4.38692 -2.90578 0
M  V30 3227 O 303.459 -5.06179 -2.6033 0
M  V30 3228 N 304.661 -4.01922 -4.18854 0
M  V30 3229 H 307.426 -2.98643 -0.251526 0
M  V30 3230 H 304.987 -1.61897 0.00967373 0
M  V30 3231 H 306.979 -2.93891 -2.78227 0
M  V30 3232 H 305.549 -1.9259 -2.46227 0
M  V30 3233 H 304.769 -3.84262 -0.879581 0
M  V30 3234 H 306.057 -4.83445 -1.58614 0
M  V30 3235 H 305.455 -3.47631 -4.46283 0
M  V30 3236 H 304.012 -4.30165 -4.89695 0
M  V30 3237 N 307.445 0.0818655 -1.57387 0
M  V30 3238 C 308.392 1.09834 -2.0299 0
M  V30 3239 C 309.362 1.39043 -0.908639 0
M  V30 3240 O 310.547 1.50282 -1.17559 0
M  V30 3241 C 307.687 2.40971 -2.47037 0
M  V30 3242 C 306.8 2.18379 -3.7274 0
M  V30 3243 C 305.935 3.43008 -4.0561 0
M  V30 3244 C 304.974 3.15736 -5.24383 0
M  V30 3245 N 304.111 4.32667 -5.52941 0
M  V30 3246 H 308.951 0.702472 -2.89602 0
M  V30 3247 H 306.488 0.33531 -1.43227 0
M  V30 3248 H 308.446 3.1752 -2.70623 0
M  V30 3249 H 307.076 2.78379 -1.63417 0
M  V30 3250 H 306.128 1.32569 -3.56552 0
M  V30 3251 H 307.44 1.94227 -4.59431 0
M  V30 3252 H 306.594 4.27958 -4.30043 0
M  V30 3253 H 305.333 3.70225 -3.17466 0
M  V30 3254 H 304.338 2.2918 -4.99757 0
M  V30 3255 H 305.563 2.8985 -6.14136 0
M  V30 3256 H 303.509 4.59935 -4.67756 0
M  V30 3257 H 303.426 4.11753 -6.34031 0
M  V30 3258 H 304.694 5.18644 -5.81918 0
M  V30 3259 N 308.923 1.53595 0.353017 0
M  V30 3260 C 310.151 1.74311 1.1146 0
M  V30 3261 C 310.566 0.477854 1.82653 0
M  V30 3262 O 309.923 -0.549977 1.74016 0
M  V30 3263 C 309.974 2.91694 2.13534 0
M  V30 3264 O 309.695 4.13325 1.45238 0
M  V30 3265 C 311.196 3.24384 3.02142 0
M  V30 3266 H 308.416 0.582669 0.332773 0
M  V30 3267 H 310.96 2.00386 0.408107 0
M  V30 3268 H 309.115 2.67977 2.79763 0
M  V30 3269 H 309.529 4.79148 2.13349 0
M  V30 3270 H 311.003 4.09893 3.69718 0
M  V30 3271 H 311.48 2.40282 3.67643 0
M  V30 3272 H 312.086 3.50073 2.41514 0
M  V30 3273 N 310.401 -0.613514 1.45168 0
M  V30 3274 C 311.333 -1.73825 1.4939 0
M  V30 3275 C 312.346 -1.58175 0.385304 0
M  V30 3276 O 313.535 -1.66165 0.652036 0
M  V30 3277 C 310.635 -3.11758 1.32891 0
M  V30 3278 C 309.808 -3.53704 2.57317 0
M  V30 3279 C 308.867 -4.70579 2.35462 0
M  V30 3280 O 307.893 -4.77996 3.09044 0
M  V30 3281 N 309.095 -5.63454 1.39644 0
M  V30 3282 H 311.86 -1.70669 2.46358 0
M  V30 3283 H 309.421 -0.79862 1.40832 0
M  V30 3284 H 311.413 -3.87692 1.1609 0
M  V30 3285 H 309.983 -3.09456 0.442218 0
M  V30 3286 H 309.203 -2.67794 2.89275 0
M  V30 3287 H 310.491 -3.78486 3.40038 0
M  V30 3288 H 309.889 -5.6017 0.789062 0
M  V30 3289 H 308.446 -6.38944 1.28816 0
M  V30 3290 N 311.879 -1.3236 -0.855495 0
M  V30 3291 C 313.128 -1.22226 -1.60448 0
M  V30 3292 C 313.441 0.214733 -1.94418 0
M  V30 3293 O 314.647 0.437917 -2.67945 0
M  V30 3294 C 313.103 -2.14063 -2.89318 0
M  V30 3295 C 312.711 -3.62839 -2.62777 0
M  V30 3296 C 314.455 -2.12764 -3.67331 0
M  V30 3297 C 312.362 -4.4664 -3.87643 0
M  V30 3298 H 311.292 -0.453904 -0.602069 0
M  V30 3299 H 313.943 -1.57314 -0.944698 0
M  V30 3300 H 312.325 -1.71889 -3.5675 0
M  V30 3301 H 313.499 -4.1335 -2.03662 0
M  V30 3302 H 311.814 -3.66261 -1.98096 0
M  V30 3303 H 314.411 -2.72611 -4.59987 0
M  V30 3304 H 314.754 -1.11841 -4.00995 0
M  V30 3305 H 315.287 -2.53214 -3.06802 0
M  V30 3306 H 312.026 -5.48373 -3.5912 0
M  V30 3307 H 311.546 -4.0088 -4.46156 0
M  V30 3308 H 313.225 -4.59597 -4.55389 0
M  V30 3309 N 313.357 1.07166 -1.15556 0
M  V30 3310 C 314.305 2.16517 -0.8499 0
M  V30 3311 C 315.299 1.68468 0.177454 0
M  V30 3312 O 316.505 1.79971 0.0323026 0
M  V30 3313 H 312.88 0.706652 -0.25719 0
M  V30 3314 H 314.851 2.39514 -1.77976 0
M  V30 3315 C 313.6 3.45855 -0.357682 0
M  V30 3316 H 312.923 3.83214 -1.13961 0
M  V30 3317 H 314.363 4.23607 -0.182489 0
M  V30 3318 C 312.822 3.24062 0.921152 0
M  V30 3319 O 313.352 3.48813 1.9923 0
M  V30 3320 N 311.558 2.77539 0.86141 0
M  V30 3321 H 311.105 2.57598 -0.0104408 0
M  V30 3322 H 311.063 2.63337 1.71758 0
M  V30 3323 N 314.835 0.952656 1.25548 0
M  V30 3324 C 315.765 0.489287 2.28316 0
M  V30 3325 C 316.746 -0.463359 1.63667 0
M  V30 3326 O 317.931 -0.36274 1.90782 0
M  V30 3327 C 315.061 -0.235603 3.465 0
M  V30 3328 C 314.015 0.631593 4.23314 0
M  V30 3329 C 313.341 -0.223923 5.34231 0
M  V30 3330 C 314.641 1.90871 4.86174 0
M  V30 3331 H 316.335 1.34822 2.67326 0
M  V30 3332 H 313.881 0.649728 1.28509 0
M  V30 3333 H 315.834 -0.570882 4.17515 0
M  V30 3334 H 314.558 -1.12877 3.06474 0
M  V30 3335 H 313.217 0.949929 3.54079 0
M  V30 3336 H 312.865 -1.11678 4.90446 0
M  V30 3337 H 312.565 0.35299 5.86539 0
M  V30 3338 H 314.089 -0.554214 6.0808 0
M  V30 3339 H 315.503 1.63997 5.49343 0
M  V30 3340 H 313.9 2.43112 5.4865 0
M  V30 3341 H 314.97 2.61304 4.08471 0
M  V30 3342 N 316.313 -1.40141 0.720998 0
M  V30 3343 C 317.263 -2.27949 0.0482544 0
M  V30 3344 C 318.247 -1.43538 -0.727021 0
M  V30 3345 O 319.439 -1.6658 -0.598332 0
M  V30 3346 C 316.568 -3.32126 -0.868729 0
M  V30 3347 C 315.654 -4.24008 -0.0883515 0
M  V30 3348 N 316.045 -4.97154 0.931226 0
M  V30 3349 C 314.343 -4.4485 -0.320105 0
M  V30 3350 C 315.044 -5.64587 1.4006 0
M  V30 3351 N 314.02 -5.38787 0.721752 0
M  V30 3352 H 317.822 -2.81948 0.829609 0
M  V30 3353 H 315.336 -1.52656 0.554067 0
M  V30 3354 H 317.333 -3.93884 -1.36605 0
M  V30 3355 H 315.993 -2.79687 -1.6494 0
M  V30 3356 H 317.004 -5.01 1.31222 0
M  V30 3357 H 313.681 -4.03378 -1.07668 0
M  V30 3358 H 315.071 -6.33175 2.24808 0
M  V30 3359 N 317.792 -0.46758 -1.50504 0
M  V30 3360 C 319.032 0.0874114 -2.04213 0
M  V30 3361 C 319.396 1.37301 -1.34211 0
M  V30 3362 O 320.597 2.01015 -1.78456 0
M  V30 3363 C 318.868 0.270571 -3.56374 0
M  V30 3364 S 320.427 0.784623 -4.31728 0
M  V30 3365 H 317.245 0.0176153 -0.710782 0
M  V30 3366 H 319.847 -0.633915 -1.84937 0
M  V30 3367 H 318.551 -0.670942 -4.04878 0
M  V30 3368 H 318.082 1.01811 -3.79997 0
M  V30 3369 H 320.097 2.05849 -4.51487 0
M  V30 3370 N 319.27 1.56325 -0.20005 0
M  V30 3371 C 320.22 2.15939 0.731743 0
M  V30 3372 C 321.204 1.10154 1.17281 0
M  V30 3373 O 322.396 1.36203 1.13038 0
M  V30 3374 C 319.525 2.82614 1.94895 0
M  V30 3375 C 318.611 3.95596 1.52855 0
M  V30 3376 N 319.002 4.99118 0.819418 0
M  V30 3377 C 317.3 4.07288 1.81748 0
M  V30 3378 C 318.001 5.78513 0.608053 0
M  V30 3379 N 316.977 5.31117 1.15828 0
M  V30 3380 H 320.779 2.9334 0.181285 0
M  V30 3381 H 318.293 1.624 -0.000452172 0
M  V30 3382 H 320.29 3.23718 2.62702 0
M  V30 3383 H 318.95 2.06702 2.50408 0
M  V30 3384 H 319.961 5.15723 0.47436 0
M  V30 3385 H 316.638 3.42509 2.38734 0
M  V30 3386 H 318.028 6.71885 0.0451619 0
M  V30 3387 N 320.748 -0.0735177 1.57428 0
M  V30 3388 C 321.973 -0.789787 1.91774 0
M  V30 3389 C 322.398 -1.70413 0.796306 0
M  V30 3390 O 321.756 -1.79555 -0.250961 0
M  V30 3391 C 321.804 -1.5609 3.25067 0
M  V30 3392 O 320.908 -2.67144 3.14178 0
M  V30 3393 H 320.249 -0.215582 0.628029 0
M  V30 3394 H 322.779 -0.0422781 2.04556 0
M  V30 3395 H 322.789 -1.94052 3.58898 0
M  V30 3396 H 321.464 -0.890015 4.06265 0
M  V30 3397 H 320.041 -2.32052 2.91901 0
M  V30 3398 N 322.226 -1.5378 -0.344866 0
M  V30 3399 C 323.454 -1.74899 -1.10534 0
M  V30 3400 C 323.869 -0.487534 -1.82397 0
M  V30 3401 O 323.226 0.540741 -1.74305 0
M  V30 3402 C 323.277 -2.92822 -2.11984 0
M  V30 3403 O 322.998 -4.14089 -1.43044 0
M  V30 3404 C 324.499 -3.25982 -3.00417 0
M  V30 3405 H 321.719 -0.584426 -0.329678 0
M  V30 3406 H 324.263 -2.006 -0.397474 0
M  V30 3407 H 322.418 -2.69457 -2.78338 0
M  V30 3408 H 322.832 -4.80272 -2.10805 0
M  V30 3409 H 324.306 -4.11848 -3.67539 0
M  V30 3410 H 324.783 -2.42228 -3.66363 0
M  V30 3411 H 325.389 -3.51349 -2.39654 0
M  V30 3412 N 323.704 0.605807 -1.45491 0
M  V30 3413 C 324.932 1.39136 -1.5313 0
M  V30 3414 C 325.347 1.88082 -0.164507 0
M  V30 3415 O 324.704 1.62316 0.834247 0
M  V30 3416 C 324.755 2.59463 -2.51716 0
M  V30 3417 O 324.476 2.12551 -3.83084 0
M  V30 3418 C 325.977 3.52301 -2.6907 0
M  V30 3419 H 323.197 0.425849 -0.51855 0
M  V30 3420 H 325.741 0.73865 -1.90694 0
M  V30 3421 H 323.896 3.20772 -2.17219 0
M  V30 3422 H 324.31 2.90744 -4.36541 0
M  V30 3423 H 325.784 4.33271 -3.42024 0
M  V30 3424 H 326.261 4.02757 -1.75167 0
M  V30 3425 H 326.867 2.96845 -3.04571 0
M  V30 3426 N 325.182 1.32811 0.848464 0
M  V30 3427 C 326.43 1.23479 1.59991 0
M  V30 3428 C 326.751 -0.201853 1.93952 0
M  V30 3429 O 326.021 -1.12818 1.60153 0
M  V30 3430 H 324.601 0.454034 0.593179 0
M  V30 3431 H 327.263 1.66412 1.01455 0
M  V30 3432 H 326.359 1.82178 2.53412 0
M  V30 3433 N 326.66 -1.06551 1.16123 0
M  V30 3434 C 327.906 -1.79567 0.94252 0
M  V30 3435 C 328.239 -1.86869 -0.528547 0
M  V30 3436 O 327.514 -1.35838 -1.39206 0
M  V30 3437 C 327.797 -3.24195 1.56747 0
M  V30 3438 C 327.65 -3.24989 3.10969 0
M  V30 3439 C 328.969 -4.21678 1.25998 0
M  V30 3440 H 326.088 -0.651883 0.343828 0
M  V30 3441 H 328.73 -1.2463 1.43413 0
M  V30 3442 H 326.88 -3.71107 1.14942 0
M  V30 3443 H 328.552 -2.86258 3.61737 0
M  V30 3444 H 326.795 -2.63716 3.44436 0
M  V30 3445 H 327.466 -4.27005 3.49815 0
M  V30 3446 H 329.942 -3.83196 1.62174 0
M  V30 3447 H 328.818 -5.21146 1.7233 0
M  V30 3448 H 329.079 -4.4174 0.178367 0
M  V30 3449 N 328.138 -0.959301 -1.25041 0
M  V30 3450 C 329.366 -0.633949 -1.96948 0
M  V30 3451 C 329.781 0.794916 -1.7125 0
M  V30 3452 O 329.138 1.53231 -0.991287 0
M  V30 3453 C 329.189 -0.888805 -3.50403 0
M  V30 3454 O 328.91 -2.26149 -3.75218 0
M  V30 3455 C 330.411 -0.576482 -4.39536 0
M  V30 3456 H 327.631 -0.237263 -0.627652 0
M  V30 3457 H 330.175 -1.28495 -1.59089 0
M  V30 3458 H 328.33 -0.284145 -3.86357 0
M  V30 3459 H 328.744 -2.33514 -4.6965 0
M  V30 3460 H 330.218 -0.805314 -5.46094 0
M  V30 3461 H 330.695 0.489075 -4.36468 0
M  V30 3462 H 331.301 -1.16067 -4.09156 0
M  V30 3463 N 329.616 1.39756 -0.72842 0
M  V30 3464 C 330.526 2.34444 -0.0855374 0
M  V30 3465 C 331.542 1.57976 0.729356 0
M  V30 3466 O 332.718 1.90301 0.659346 0
M  V30 3467 C 329.783 3.36965 0.815798 0
M  V30 3468 C 328.844 4.29299 -0.0105996 0
M  V30 3469 C 328.077 5.26923 0.84781 0
M  V30 3470 O 328.3 5.30859 2.08673 0
M  V30 3471 O 327.234 6.01249 0.279969 0
M  V30 3472 H 331.06 2.91065 -0.866892 0
M  V30 3473 H 328.645 1.4117 -0.48902 0
M  V30 3474 H 330.527 3.99804 1.33171 0
M  V30 3475 H 329.202 2.82739 1.57608 0
M  V30 3476 H 328.109 3.69703 -0.571877 0
M  V30 3477 H 329.442 4.86712 -0.73295 0
M  V30 3478 N 331.094 0.475555 1.50254 0
M  V30 3479 C 332.34 -0.0780073 2.0265 0
M  V30 3480 C 332.673 -1.38968 1.35652 0
M  V30 3481 O 331.948 -1.8839 0.483691 0
M  V30 3482 C 332.231 -0.257161 3.59181 0
M  V30 3483 C 332.084 1.07585 4.36744 0
M  V30 3484 C 333.403 -1.00965 4.28362 0
M  V30 3485 H 330.522 -0.0268758 0.73651 0
M  V30 3486 H 333.164 0.622015 1.7953 0
M  V30 3487 H 331.314 -0.853412 3.79011 0
M  V30 3488 H 332.986 1.70902 4.28474 0
M  V30 3489 H 331.229 1.6714 4.00308 0
M  V30 3490 H 331.9 0.904088 5.44546 0
M  V30 3491 H 334.376 -0.504214 4.13034 0
M  V30 3492 H 333.252 -1.10381 5.37687 0
M  V30 3493 H 333.513 -2.04731 3.91839 0
M  V30 3494 N 332.573 -1.56217 0.208337 0
M  V30 3495 C 333.798 -2.02782 -0.435222 0
M  V30 3496 C 334.223 -1.08738 -1.53485 0
M  V30 3497 O 333.581 -0.0731855 -1.81152 0
M  V30 3498 C 333.629 -3.47687 -0.956335 0
M  V30 3499 O 332.733 -3.56773 -2.06849 0
M  V30 3500 H 332.074 -0.656403 -0.100158 0
M  V30 3501 H 334.604 -2.02033 0.3231 0
M  V30 3502 H 334.614 -3.87745 -1.26955 0
M  V30 3503 H 333.289 -4.15624 -0.15143 0
M  V30 3504 H 331.866 -3.28597 -1.76292 0
M  V30 3505 N 334.051 0.0651679 -1.57465 0
M  V30 3506 C 334.981 1.07693 -2.07182 0
M  V30 3507 C 335.962 1.39962 -0.966673 0
M  V30 3508 O 337.147 1.49475 -1.2398 0
M  V30 3509 C 334.277 2.3885 -2.52127 0
M  V30 3510 C 333.231 2.20917 -3.66579 0
M  V30 3511 C 332.557 3.57515 -3.97601 0
M  V30 3512 C 333.857 1.62493 -4.9638 0
M  V30 3513 H 335.551 0.663199 -2.91962 0
M  V30 3514 H 333.097 0.317569 -1.40455 0
M  V30 3515 H 335.05 3.09928 -2.85522 0
M  V30 3516 H 333.774 2.82215 -1.64384 0
M  V30 3517 H 332.433 1.52279 -3.33477 0
M  V30 3518 H 332.081 3.98463 -3.06979 0
M  V30 3519 H 331.781 3.46353 -4.74672 0
M  V30 3520 H 333.305 4.30013 -4.33499 0
M  V30 3521 H 334.719 2.23445 -5.27963 0
M  V30 3522 H 333.116 1.62009 -5.77818 0
M  V30 3523 H 334.186 0.587041 -4.81333 0
M  V30 3524 N 335.529 1.53961 0.336706 0
M  V30 3525 C 336.462 1.77255 1.43722 0
M  V30 3526 C 337.44 0.62193 1.50236 0
M  V30 3527 O 338.624 0.857874 1.67847 0
M  V30 3528 C 335.751 1.87733 2.81912 0
M  V30 3529 C 334.797 3.09933 2.92991 0
M  V30 3530 S 335.63 4.68836 2.58753 0
M  V30 3531 C 336.786 4.82202 3.99039 0
M  V30 3532 H 337.019 2.70322 1.23748 0
M  V30 3533 H 334.552 1.44917 0.532777 0
M  V30 3534 H 336.51 1.94455 3.61521 0
M  V30 3535 H 335.171 0.956666 2.99177 0
M  V30 3536 H 334.364 3.1396 3.94265 0
M  V30 3537 H 333.966 3.01472 2.21338 0
M  V30 3538 H 336.258 4.64032 4.9364 0
M  V30 3539 H 337.201 5.84298 4.00002 0
M  V30 3540 H 337.609 4.10604 3.87382 0
M  V30 3541 N 337.007 -0.598083 1.45811 0
M  V30 3542 C 337.954 -1.7082 1.55207 0
M  V30 3543 C 338.924 -1.61278 0.39732 0
M  V30 3544 O 340.109 -1.80717 0.612038 0
M  V30 3545 C 337.249 -3.09144 1.53376 0
M  V30 3546 C 336.362 -3.29423 2.79472 0
M  V30 3547 C 335.497 -4.57907 2.69248 0
M  V30 3548 C 334.536 -4.71476 3.90354 0
M  V30 3549 N 333.673 -5.9127 3.78608 0
M  V30 3550 H 338.513 -1.62125 2.50039 0
M  V30 3551 H 336.05 -0.790389 1.24062 0
M  V30 3552 H 338.008 -3.89186 1.50301 0
M  V30 3553 H 336.638 -3.16773 0.620876 0
M  V30 3554 H 335.69 -2.43091 2.92594 0
M  V30 3555 H 337.002 -3.3532 3.69272 0
M  V30 3556 H 336.156 -5.46157 2.64192 0
M  V30 3557 H 334.895 -4.54423 1.77063 0
M  V30 3558 H 333.9 -3.81648 3.95759 0
M  V30 3559 H 335.125 -4.76751 4.83617 0
M  V30 3560 H 333.071 -5.88813 2.89199 0
M  V30 3561 H 332.988 -5.98369 4.6205 0
M  V30 3562 H 334.256 -6.81992 3.77501 0
M  V30 3563 N 338.485 -1.33259 -0.841409 0
M  V30 3564 C 339.448 -1.23221 -1.9326 0
M  V30 3565 C 340.448 -0.151895 -1.60081 0
M  V30 3566 O 341.638 -0.403246 -1.69468 0
M  V30 3567 C 338.77 -0.898123 -3.28856 0
M  V30 3568 H 339.963 -2.2021 -2.03587 0
M  V30 3569 H 337.516 -1.17281 -1.03319 0
M  V30 3570 H 338.251 0.0693841 -3.24226 0
M  V30 3571 H 338.036 -1.67934 -3.54317 0
M  V30 3572 H 339.526 -0.852563 -4.08805 0
M  V30 3573 N 339.963 1.05934 -1.16686 0
M  V30 3574 C 341.212 1.78188 -0.945085 0
M  V30 3575 C 341.525 1.88338 0.528021 0
M  V30 3576 O 342.731 2.57258 0.867799 0
M  V30 3577 C 341.187 3.20277 -1.64167 0
M  V30 3578 C 340.795 3.18281 -3.15279 0
M  V30 3579 C 342.539 3.97039 -1.502 0
M  V30 3580 C 340.446 4.55112 -3.7766 0
M  V30 3581 H 339.376 0.667866 -0.349959 0
M  V30 3582 H 342.027 1.18794 -1.39858 0
M  V30 3583 H 340.409 3.79952 -1.11589 0
M  V30 3584 H 341.583 2.68167 -3.74731 0
M  V30 3585 H 339.898 2.55018 -3.29173 0
M  V30 3586 H 342.495 4.98194 -1.94183 0
M  V30 3587 H 342.838 4.13845 -0.451461 0
M  V30 3588 H 343.371 3.43894 -1.99954 0
M  V30 3589 H 340.11 4.43512 -4.82677 0
M  V30 3590 H 339.63 5.05406 -3.22994 0
M  V30 3591 H 341.309 5.24064 -3.79428 0
M  V30 3592 N 341.441 0.965919 1.2453 0
M  V30 3593 C 342.351 0.502154 2.29163 0
M  V30 3594 C 343.367 -0.436017 1.68448 0
M  V30 3595 O 344.543 -0.309497 1.99008 0
M  V30 3596 C 341.608 -0.201956 3.46111 0
M  V30 3597 C 340.669 0.775821 4.22232 0
M  V30 3598 C 339.902 0.105217 5.33596 0
M  V30 3599 O 340.125 -1.10683 5.59558 0
M  V30 3600 O 339.059 0.796475 5.96607 0
M  V30 3601 H 342.885 1.37194 2.70946 0
M  V30 3602 H 340.47 0.732875 1.30189 0
M  V30 3603 H 342.352 -0.597564 4.17142 0
M  V30 3604 H 341.027 -1.04673 3.06309 0
M  V30 3605 H 339.934 1.22185 3.53584 0
M  V30 3606 H 341.267 1.58896 4.65846 0
M  V30 3607 N 342.919 -1.39368 0.735821 0
M  V30 3608 C 343.882 -2.2896 0.104874 0
M  V30 3609 C 344.882 -1.46347 -0.666274 0
M  V30 3610 O 346.072 -1.67014 -0.49517 0
M  V30 3611 C 343.204 -3.29857 -0.860656 0
M  V30 3612 H 344.397 -2.86259 0.894205 0
M  V30 3613 H 341.95 -1.48029 0.501704 0
M  V30 3614 H 342.685 -2.77615 -1.67631 0
M  V30 3615 H 342.47 -3.9087 -0.310327 0
M  V30 3616 H 343.96 -3.96893 -1.29867 0
M  V30 3617 N 344.397 -0.483516 -1.5 0
M  V30 3618 C 345.645 0.067027 -2.01989 0
M  V30 3619 C 345.966 1.3909 -1.36671 0
M  V30 3620 O 345.236 1.88978 -0.516152 0
M  V30 3621 H 343.816 0.0277606 -0.746484 0
M  V30 3622 H 346.478 -0.636773 -1.84204 0
M  V30 3623 H 345.574 0.209484 -3.11396 0
M  V30 3624 N 345.875 1.56104 -0.216619 0
M  V30 3625 C 347.121 1.98466 0.417033 0
M  V30 3626 C 347.454 1.10403 1.59765 0
M  V30 3627 O 346.729 0.160632 1.93836 0
M  V30 3628 C 347.012 3.49769 0.85637 0
M  V30 3629 C 346.865 4.48606 -0.327546 0
M  V30 3630 C 348.184 4.05339 1.7143 0
M  V30 3631 H 345.303 0.721551 0.150112 0
M  V30 3632 H 347.945 1.87423 -0.311864 0
M  V30 3633 H 346.095 3.5931 1.47745 0
M  V30 3634 H 347.767 4.5108 -0.965618 0
M  V30 3635 H 346.01 4.22682 -0.975805 0
M  V30 3636 H 346.681 5.51995 0.0227149 0
M  V30 3637 H 349.157 3.98712 1.19031 0
M  V30 3638 H 348.033 5.11533 1.99061 0
M  V30 3639 H 348.294 3.51918 2.67593 0
M  V30 3640 N 347.353 -0.0568162 1.57498 0
M  V30 3641 C 348.63 -0.786954 1.79071 0
M  V30 3642 C 349.01 -1.95028 0.80792 0
M  V30 3643 O 348.358 -2.27968 -0.155858 0
M  V30 3644 C 348.568 -1.24594 3.26002 0
M  V30 3645 C 349.916 -1.67323 3.90241 0
M  V30 3646 O 350.94 -1.34124 3.29984 0
M  V30 3647 O 349.799 -2.28842 4.9628 0
M  V30 3648 H 346.893 -0.378262 0.735423 0
M  V30 3649 H 349.439 -0.035734 1.69662 0
M  V30 3650 H 348.211 -0.41423 3.89101 0
M  V30 3651 H 347.834 -2.05803 3.40192 0
M  V30 3652 N 348.832 -1.54138 -0.328536 0
M  V30 3653 C 350.078 -1.7236 -1.06865 0
M  V30 3654 C 350.411 -0.493231 -1.87832 0
M  V30 3655 O 349.686 0.5098 -1.877 0
M  V30 3656 C 349.969 -2.99621 -1.99747 0
M  V30 3657 C 349.822 -4.32899 -1.22143 0
M  V30 3658 C 351.141 -3.22615 -2.99345 0
M  V30 3659 H 348.26 -0.627151 -0.387105 0
M  V30 3660 H 350.902 -1.86827 -0.345767 0
M  V30 3661 H 349.052 -2.87418 -2.61387 0
M  V30 3662 H 350.724 -4.56978 -0.630017 0
M  V30 3663 H 348.967 -4.30628 -0.523628 0
M  V30 3664 H 349.638 -5.18154 -1.90318 0
M  V30 3665 H 352.114 -3.34248 -2.47826 0
M  V30 3666 H 350.99 -4.13027 -3.61524 0
M  V30 3667 H 351.251 -2.3961 -3.71536 0
M  V30 3668 N 350.31 0.590341 -1.46126 0
M  V30 3669 C 351.556 1.35082 -1.51264 0
M  V30 3670 C 351.889 1.93534 -0.160711 0
M  V30 3671 O 351.164 1.76045 0.826956 0
M  V30 3672 C 351.447 2.48588 -2.6053 0
M  V30 3673 C 351.3 1.95221 -4.05227 0
M  V30 3674 C 352.619 3.50662 -2.6594 0
M  V30 3675 H 349.738 0.489803 -0.550692 0
M  V30 3676 H 352.38 0.663887 -1.78024 0
M  V30 3677 H 350.53 3.07186 -2.37843 0
M  V30 3678 H 352.202 1.41139 -4.39178 0
M  V30 3679 H 350.445 1.26101 -4.15068 0
M  V30 3680 H 351.116 2.77121 -4.77397 0
M  V30 3681 H 353.592 3.01934 -2.86313 0
M  V30 3682 H 352.468 4.27551 -3.44226 0
M  V30 3683 H 352.729 4.07399 -1.71694 0
M  V30 3684 N 351.788 1.33704 0.83433 0
M  V30 3685 C 353.065 1.16011 1.57483 0
M  V30 3686 C 353.445 -0.27176 2.09343 0
M  V30 3687 O 352.793 -1.27146 1.89858 0
M  V30 3688 C 353.003 2.20507 2.70514 0
M  V30 3689 C 354.351 2.54898 3.39577 0
M  V30 3690 O 355.375 2.19209 2.80759 0
M  V30 3691 O 354.234 3.16158 4.45765 0
M  V30 3692 H 351.328 0.448992 0.694503 0
M  V30 3693 H 353.874 1.453 0.876691 0
M  V30 3694 H 352.646 3.16667 2.29865 0
M  V30 3695 H 352.269 1.92329 3.47987 0
M  V30 3696 N 353.266 -1.05314 1.17247 0
M  V30 3697 C 354.494 -1.81971 0.984593 0
M  V30 3698 C 354.909 -1.82929 -0.467166 0
M  V30 3699 O 354.266 -1.25564 -1.32438 0
M  V30 3700 C 354.317 -3.28143 1.51672 0
M  V30 3701 O 354.038 -3.27347 2.91163 0
M  V30 3702 C 355.539 -4.21493 1.37326 0
M  V30 3703 H 352.759 -0.573455 0.348411 0
M  V30 3704 H 355.303 -1.32808 1.55506 0
M  V30 3705 H 353.458 -3.74582 0.988302 0
M  V30 3706 H 353.872 -4.18824 3.15732 0
M  V30 3707 H 355.346 -5.22043 1.79375 0
M  V30 3708 H 355.823 -4.38031 0.320169 0
M  V30 3709 H 356.429 -3.80909 1.89178 0
M  V30 3710 N 354.744 -0.972509 -1.24016 0
M  V30 3711 C 355.707 -0.511403 -2.23422 0
M  V30 3712 C 356.707 0.394679 -1.55881 0
M  V30 3713 O 357.897 0.189469 -1.73167 0
M  V30 3714 C 355.029 0.258769 -3.39916 0
M  V30 3715 H 356.222 -1.39024 -2.6573 0
M  V30 3716 H 353.775 -0.757585 -1.36713 0
M  V30 3717 H 354.51 1.1545 -3.03054 0
M  V30 3718 H 354.295 -0.391522 -3.9014 0
M  V30 3719 H 355.785 0.570244 -4.13688 0
M  V30 3720 N 356.222 1.38976 -0.743202 0
M  V30 3721 C 357.471 1.99581 -0.291592 0
M  V30 3722 C 357.784 1.59656 1.13001 0
M  V30 3723 O 358.99 2.13157 1.68156 0
M  V30 3724 C 357.446 3.56813 -0.470391 0
M  V30 3725 C 357.054 4.05695 -1.90041 0
M  V30 3726 C 358.798 4.24423 -0.0809709 0
M  V30 3727 C 356.705 5.5553 -2.02832 0
M  V30 3728 H 355.635 0.746615 -0.105272 0
M  V30 3729 H 358.286 1.58872 -0.918258 0
M  V30 3730 H 356.668 3.95359 0.225299 0
M  V30 3731 H 357.842 3.78464 -2.62872 0
M  V30 3732 H 356.157 3.50775 -2.24379 0
M  V30 3733 H 358.754 5.34474 -0.155445 0
M  V30 3734 H 359.097 4.04962 0.96497 0
M  V30 3735 H 359.63 3.9108 -0.728124 0
M  V30 3736 H 356.369 5.79881 -3.05643 0
M  V30 3737 H 355.889 5.84537 -1.34448 0
M  V30 3738 H 357.568 6.21069 -1.81335 0
M  V30 3739 N 357.7 0.491464 1.49741 0
M  V30 3740 C 358.925 -0.0557177 2.07325 0
M  V30 3741 C 359.35 -1.30925 1.35056 0
M  V30 3742 O 358.708 -1.76733 0.404365 0
M  V30 3743 C 358.756 -0.302074 3.59333 0
M  V30 3744 O 357.86 -1.37868 3.88672 0
M  V30 3745 H 357.201 0.0219956 0.663636 0
M  V30 3746 H 359.731 0.688352 1.92673 0
M  V30 3747 H 359.741 -0.536464 4.04458 0
M  V30 3748 H 358.416 0.61383 4.11345 0
M  V30 3749 H 356.993 -1.12999 3.55367 0
M  V30 3750 N 359.178 -1.55987 0.224894 0
M  V30 3751 C 360.403 -2.03232 -0.41369 0
M  V30 3752 C 360.828 -1.10359 -1.52323 0
M  V30 3753 O 360.186 -0.092395 -1.81064 0
M  V30 3754 C 360.234 -3.48682 -0.919405 0
M  V30 3755 O 359.338 -3.58947 -2.03054 0
M  V30 3756 H 358.679 -0.657428 -0.0931903 0
M  V30 3757 H 361.209 -2.01679 0.34451 0
M  V30 3758 H 361.219 -3.8907 -1.22835 0
M  V30 3759 H 359.894 -4.15761 -0.107339 0
M  V30 3760 H 358.471 -3.30448 -1.72796 0
M  V30 3761 N 360.656 0.0484629 -1.57525 0
M  V30 3762 C 361.589 1.08755 -2.00618 0
M  V30 3763 C 362.567 1.36272 -0.887058 0
M  V30 3764 O 363.751 1.49255 -1.15131 0
M  V30 3765 C 360.878 2.42675 -2.36277 0
M  V30 3766 C 359.924 2.31142 -3.58435 0
M  V30 3767 S 360.757 1.68326 -5.08357 0
M  V30 3768 C 361.913 3.03776 -5.47239 0
M  V30 3769 H 362.146 0.720415 -2.88439 0
M  V30 3770 H 359.679 0.257801 -1.52233 0
M  V30 3771 H 361.637 3.19699 -2.57494 0
M  V30 3772 H 360.298 2.76541 -1.48942 0
M  V30 3773 H 359.491 3.29957 -3.80978 0
M  V30 3774 H 359.093 1.62258 -3.36969 0
M  V30 3775 H 361.385 4.00106 -5.46737 0
M  V30 3776 H 362.328 2.85988 -6.47778 0
M  V30 3777 H 362.736 3.05456 -4.74718 0
M  V30 3778 N 362.134 1.5431 0.320358 0
M  V30 3779 C 363.359 1.76954 1.08175 0
M  V30 3780 C 363.784 0.518193 1.80821 0
M  V30 3781 O 363.142 -0.530411 1.73368 0
M  V30 3782 C 363.19 2.96451 2.05303 0
M  V30 3783 O 362.294 2.68221 3.13259 0
M  V30 3784 H 361.635 0.586275 0.311733 0
M  V30 3785 H 364.165 2.01342 0.363676 0
M  V30 3786 H 364.175 3.23887 2.48116 0
M  V30 3787 H 362.85 3.87196 1.51829 0
M  V30 3788 H 361.427 2.51744 2.75099 0
M  V30 3789 N 363.613 -0.582584 1.46437 0
M  V30 3790 C 364.543 -1.70187 1.59871 0
M  V30 3791 C 365.524 -1.64066 0.449042 0
M  V30 3792 O 366.709 -1.82081 0.6753 0
M  V30 3793 C 363.839 -3.08827 1.58881 0
M  V30 3794 C 362.793 -3.29779 2.72819 0
M  V30 3795 C 362.119 -4.68947 2.5689 0
M  V30 3796 C 363.419 -3.17601 4.1464 0
M  V30 3797 H 365.113 -1.592 2.53566 0
M  V30 3798 H 362.659 -0.764472 1.22032 0
M  V30 3799 H 364.612 -3.86951 1.66873 0
M  V30 3800 H 363.336 -3.20713 0.617306 0
M  V30 3801 H 361.995 -2.54054 2.64296 0
M  V30 3802 H 361.643 -4.77599 1.57823 0
M  V30 3803 H 361.343 -4.83919 3.33312 0
M  V30 3804 H 362.867 -5.4924 2.66773 0
M  V30 3805 H 364.281 -3.8557 4.24274 0
M  V30 3806 H 362.678 -3.44094 4.9165 0
M  V30 3807 H 363.748 -2.14681 4.34788 0
M  V30 3808 N 365.091 -1.34144 -0.827227 0
M  V30 3809 C 366.339 -1.26009 -1.58007 0
M  V30 3810 C 366.66 0.170971 -1.94249 0
M  V30 3811 O 365.93 1.10256 -1.61927 0
M  V30 3812 H 364.51 -0.463414 -0.585881 0
M  V30 3813 H 367.172 -1.68005 -0.987951 0
M  V30 3814 H 366.268 -1.86187 -2.50481 0
M  V30 3815 N 366.569 1.04691 -1.17803 0
M  V30 3816 C 367.98 1.59238 -0.974689 0
M  V30 3817 C 368.331 1.90306 0.477292 0
M  V30 3818 O 367.456 1.68846 1.35352 0
M  V30 3819 C 368.051 2.89318 -1.76296 0
M  V30 3820 C 366.61 3.40506 -1.60414 0
M  V30 3821 C 365.757 2.14172 -1.76141 0
M  V30 3822 H 368.708 0.874395 -1.32439 0
M  V30 3823 H 368.729 3.5944 -1.24833 0
M  V30 3824 H 368.241 2.66675 -2.81968 0
M  V30 3825 H 366.342 3.68175 -0.572519 0
M  V30 3826 H 366.455 4.14753 -2.39827 0
M  V30 3827 H 364.819 2.25176 -1.19028 0
M  V30 3828 H 365.602 1.93992 -2.83235 0
M  V30 3829 N 368.047 0.979072 1.23499 0
M  V30 3830 C 369.295 0.645941 1.91499 0
M  V30 3831 C 369.616 -0.822948 1.76784 0
M  V30 3832 O 368.886 -1.58854 1.14639 0
M  V30 3833 H 367.466 0.235919 0.708767 0
M  V30 3834 H 370.128 1.2426 1.50152 0
M  V30 3835 H 369.224 0.896411 2.9895 0
M  V30 3836 N 369.525 -1.3858 0.750561 0
M  V30 3837 C 370.475 -2.27795 0.0965949 0
M  V30 3838 C 371.459 -1.45048 -0.696411 0
M  V30 3839 O 372.651 -1.67812 -0.562863 0
M  V30 3840 C 369.78 -3.33894 -0.798085 0
M  V30 3841 C 368.866 -4.241 0.0016067 0
M  V30 3842 N 369.257 -4.95067 1.03647 0
M  V30 3843 C 367.555 -4.45429 -0.225674 0
M  V30 3844 C 368.256 -5.61489 1.52004 0
M  V30 3845 N 367.232 -5.37135 0.835874 0
M  V30 3846 H 371.034 -2.80125 0.889228 0
M  V30 3847 H 368.548 -1.51446 0.586323 0
M  V30 3848 H 370.545 -3.96693 -1.28219 0
M  V30 3849 H 369.205 -2.83123 -1.5897 0
M  V30 3850 H 370.216 -4.98104 1.41819 0
M  V30 3851 H 366.893 -4.05571 -0.990872 0
M  V30 3852 H 368.283 -6.28264 2.38188 0
M  V30 3853 N 371.003 -0.499398 -1.49478 0
M  V30 3854 C 371.951 0.293604 -2.3074 0
M  V30 3855 C 372.945 0.96427 -1.39277 0
M  V30 3856 O 374.151 0.892141 -1.56336 0
M  V30 3857 H 370.526 0.113541 -0.743379 0
M  V30 3858 H 372.497 -0.411772 -2.95545 0
M  V30 3859 C 371.246 1.3462 -3.20582 0
M  V30 3860 H 370.569 0.83954 -3.90886 0
M  V30 3861 H 372.009 1.87308 -3.80384 0
M  V30 3862 C 370.468 2.36351 -2.40083 0
M  V30 3863 O 370.998 3.422 -2.10385 0
M  V30 3864 N 369.204 2.0878 -2.02137 0
M  V30 3865 H 368.751 1.22723 -2.26488 0
M  V30 3866 H 368.709 2.77075 -1.48583 0
M  V30 3867 N 372.481 1.55866 -0.233164 0
M  V30 3868 C 373.892 1.847 0.272554 0
M  V30 3869 C 374.243 1.15477 1.58617 0
M  V30 3870 O 373.368 0.42841 2.12117 0
M  V30 3871 C 373.963 3.35071 0.501299 0
M  V30 3872 C 372.522 3.6418 0.951304 0
M  V30 3873 C 371.669 2.77292 0.0208209 0
M  V30 3874 H 374.62 1.52005 -0.456074 0
M  V30 3875 H 374.641 3.55906 1.34577 0
M  V30 3876 H 374.153 3.85424 -0.454936 0
M  V30 3877 H 372.254 3.19293 1.92049 0
M  V30 3878 H 372.367 4.72071 0.817675 0
M  V30 3879 H 370.731 2.49131 0.529723 0
M  V30 3880 H 371.514 3.30448 -0.93054 0
M  V30 3881 N 373.959 -0.0401083 1.57549 0
M  V30 3882 C 375.187 -0.745196 1.93014 0
M  V30 3883 C 375.602 -1.6948 0.831984 0
M  V30 3884 O 374.959 -1.81482 -0.192463 0
M  V30 3885 C 375.01 -1.51176 3.28372 0
M  V30 3886 O 374.731 -0.600284 4.33968 0
M  V30 3887 C 376.232 -2.315 3.78051 0
M  V30 3888 H 373.452 -0.210088 0.637263 0
M  V30 3889 H 375.996 -0.000924689 2.045 0
M  V30 3890 H 374.151 -2.20801 3.18317 0
M  V30 3891 H 374.565 -1.13669 5.12035 0
M  V30 3892 H 376.039 -2.80697 4.75303 0
M  V30 3893 H 376.516 -3.12436 3.08675 0
M  V30 3894 H 377.122 -1.66971 3.91153 0
M  V30 3895 N 375.437 -1.54477 -0.31217 0
M  V30 3896 C 376.347 -1.87695 -1.4074 0
M  V30 3897 C 377.363 -0.769975 -1.56036 0
M  V30 3898 O 378.539 -1.06537 -1.70915 0
M  V30 3899 C 375.604 -2.10755 -2.75287 0
M  V30 3900 C 374.665 -3.34514 -2.69071 0
M  V30 3901 C 373.898 -3.56465 -3.97201 0
M  V30 3902 O 374.121 -2.81637 -4.96021 0
M  V30 3903 O 373.055 -4.49964 -3.9977 0
M  V30 3904 H 376.881 -2.80849 -1.15574 0
M  V30 3905 H 374.466 -1.40526 -0.507228 0
M  V30 3906 H 376.348 -2.27188 -3.54913 0
M  V30 3907 H 375.023 -1.20788 -3.0032 0
M  V30 3908 H 373.93 -3.23456 -1.87955 0
M  V30 3909 H 375.263 -4.24575 -2.48992 0
M  V30 3910 N 376.915 0.57481 -1.46744 0
M  V30 3911 C 378.14 1.36341 -1.56288 0
M  V30 3912 C 378.565 1.86954 -0.207347 0
M  V30 3913 O 377.923 1.62006 0.813871 0
M  V30 3914 C 377.971 2.52147 -2.57787 0
M  V30 3915 O 377.075 3.53834 -2.11838 0
M  V30 3916 H 376.416 0.405713 -0.525636 0
M  V30 3917 H 378.946 0.696453 -1.92382 0
M  V30 3918 H 378.956 2.98958 -2.77648 0
M  V30 3919 H 377.631 2.14663 -3.5622 0
M  V30 3920 H 376.208 3.1345 -2.01999 0
M  V30 3921 N 378.394 1.34581 0.820102 0
M  V30 3922 C 379.64 1.27285 1.57881 0
M  V30 3923 C 379.973 -0.156137 1.93571 0
M  V30 3924 O 379.248 -1.10222 1.60254 0
M  V30 3925 C 379.531 2.16639 2.87645 0
M  V30 3926 C 379.384 3.68088 2.58517 0
M  V30 3927 C 380.703 2.05378 3.8924 0
M  V30 3928 H 377.822 0.463714 0.572833 0
M  V30 3929 H 380.464 1.64859 0.944539 0
M  V30 3930 H 378.614 1.84725 3.41773 0
M  V30 3931 H 380.286 4.10382 2.10676 0
M  V30 3932 H 378.529 3.89038 1.91917 0
M  V30 3933 H 379.2 4.2598 3.51063 0
M  V30 3934 H 381.676 2.33404 3.44473 0
M  V30 3935 H 380.552 2.7012 4.77835 0
M  V30 3936 H 380.813 1.0316 4.29896 0
M  V30 3937 N 379.872 -1.04064 1.18357 0
M  V30 3938 C 380.835 -2.10243 0.912707 0
M  V30 3939 C 381.835 -1.60477 -0.101928 0
M  V30 3940 O 383.025 -1.73703 0.131517 0
M  V30 3941 C 380.157 -3.38893 0.369387 0
M  V30 3942 H 381.35 -2.35706 1.85426 0
M  V30 3943 H 378.903 -1.20489 0.995594 0
M  V30 3944 H 379.638 -3.19094 -0.578776 0
M  V30 3945 H 379.423 -3.76331 1.1008 0
M  V30 3946 H 380.913 -4.17128 0.198575 0
M  V30 3947 N 381.35 -0.985608 -1.22978 0
M  V30 3948 C 382.26 -0.538548 -2.28335 0
M  V30 3949 C 383.276 0.409163 -1.69121 0
M  V30 3950 O 384.452 0.277797 -1.99475 0
M  V30 3951 C 381.517 0.146867 -3.46389 0
M  V30 3952 C 380.578 -0.842896 -4.20944 0
M  V30 3953 C 379.811 -0.190095 -5.33361 0
M  V30 3954 O 380.034 1.01767 -5.61248 0
M  V30 3955 O 378.968 -0.891289 -5.95264 0
M  V30 3956 H 382.794 -1.41487 -2.68729 0
M  V30 3957 H 380.379 -0.753495 -1.29007 0
M  V30 3958 H 382.261 0.531125 -4.1804 0
M  V30 3959 H 380.936 0.997871 -3.07935 0
M  V30 3960 H 379.843 -1.27795 -3.51595 0
M  V30 3961 H 381.176 -1.66287 -4.6326 0
M  V30 3962 N 382.828 1.3818 -0.7579 0
M  V30 3963 C 383.761 2.28055 -0.0814093 0
M  V30 3964 C 384.739 1.45603 0.723779 0
M  V30 3965 O 385.923 1.74961 0.701491 0
M  V30 3966 C 383.05 3.2676 0.891394 0
M  V30 3967 C 382.096 4.26153 0.171909 0
M  V30 3968 S 382.929 5.23434 -1.13035 0
M  V30 3969 C 384.085 6.25694 -0.160727 0
M  V30 3970 H 384.318 2.85082 -0.84353 0
M  V30 3971 H 381.851 1.44246 -0.550671 0
M  V30 3972 H 383.809 3.8414 1.44731 0
M  V30 3973 H 382.47 2.68706 1.62652 0
M  V30 3974 H 381.663 4.95738 0.908843 0
M  V30 3975 H 381.265 3.72691 -0.312606 0
M  V30 3976 H 383.557 6.74161 0.671773 0
M  V30 3977 H 384.5 7.03285 -0.824353 0
M  V30 3978 H 384.908 5.64064 0.221892 0
M  V30 3979 N 384.306 0.507319 1.49211 0
M  V30 3980 C 385.236 -0.256939 2.32082 0
M  V30 3981 C 386.217 -0.956609 1.40652 0
M  V30 3982 O 387.402 -0.946788 1.69557 0
M  V30 3983 C 384.532 -1.31802 3.21318 0
M  V30 3984 C 383.486 -0.737855 4.21592 0
M  V30 3985 C 382.812 -1.89992 4.99807 0
M  V30 3986 C 384.112 0.275325 5.21574 0
M  V30 3987 H 385.806 0.434798 2.96226 0
M  V30 3988 H 383.352 0.210546 1.42452 0
M  V30 3989 H 385.305 -1.86045 3.78107 0
M  V30 3990 H 384.029 -2.03903 2.5513 0
M  V30 3991 H 382.688 -0.217126 3.65956 0
M  V30 3992 H 382.336 -2.60877 4.30061 0
M  V30 3993 H 382.036 -1.51777 5.6766 0
M  V30 3994 H 383.56 -2.44657 5.59442 0
M  V30 3995 H 384.974 -0.179193 5.7302 0
M  V30 3996 H 383.371 0.573649 5.97352 0
M  V30 3997 H 384.441 1.18903 4.70096 0
M  V30 3998 N 385.784 -1.5574 0.241426 0
M  V30 3999 C 386.694 -2.2479 -0.671305 0
M  V30 4000 C 387.71 -1.26217 -1.19772 0
M  V30 4001 O 388.886 -1.59079 -1.23514 0
M  V30 4002 C 385.951 -2.92966 -1.85396 0
M  V30 4003 C 385.012 -4.06935 -1.36756 0
M  V30 4004 C 384.245 -4.71851 -2.49384 0
M  V30 4005 O 384.468 -4.35823 -3.67987 0
M  V30 4006 O 383.402 -5.60467 -2.19454 0
M  V30 4007 H 387.228 -3.0349 -0.112966 0
M  V30 4008 H 384.813 -1.49397 0.0101513 0
M  V30 4009 H 386.695 -3.35927 -2.54423 0
M  V30 4010 H 385.37 -2.17211 -2.40002 0
M  V30 4011 H 384.277 -3.68503 -0.644726 0
M  V30 4012 H 385.61 -4.84492 -0.867647 0
M  V30 4013 N 387.262 0.0317525 -1.57568 0
M  V30 4014 C 388.51 0.721676 -1.88776 0
M  V30 4015 C 388.831 1.76039 -0.838772 0
M  V30 4016 O 388.101 1.95482 0.127935 0
M  V30 4017 H 386.681 0.269534 -0.696678 0
M  V30 4018 H 389.343 -0.00165879 -1.949 0
M  V30 4019 H 388.439 1.21293 -2.87566 0
M  V30 4020 N 388.74 1.54641 0.303973 0
M  V30 4021 C 389.968 1.77768 1.05858 0
M  V30 4022 C 390.383 0.535722 1.8104 0
M  V30 4023 O 389.74 -0.494337 1.75677 0
M  V30 4024 C 389.791 2.9834 2.04146 0
M  V30 4025 O 389.512 4.17736 1.32015 0
M  V30 4026 C 391.013 3.33832 2.91669 0
M  V30 4027 H 388.233 0.592961 0.314067 0
M  V30 4028 H 390.777 2.01583 0.344149 0
M  V30 4029 H 388.932 2.76742 2.71096 0
M  V30 4030 H 389.346 4.85693 1.97998 0
M  V30 4031 H 390.82 4.21448 3.56491 0
M  V30 4032 H 391.297 2.51857 3.59812 0
M  V30 4033 H 391.903 3.57579 2.30254 0
M  V30 4034 N 390.218 -0.567019 1.47046 0
M  V30 4035 C 391.466 -1.322 1.52864 0
M  V30 4036 C 391.787 -1.94088 0.188388 0
M  V30 4037 O 391.057 -1.7941 -0.786693 0
M  V30 4038 H 389.637 -0.490894 0.563056 0
M  V30 4039 H 392.299 -0.662879 1.83281 0
M  V30 4040 H 391.395 -2.12062 2.2899 0
M  V30 4041 N 391.696 -1.35014 -0.812953 0
M  V30 4042 C 392.926 -1.30841 -1.59888 0
M  V30 4043 C 393.334 0.117576 -1.88834 0
M  V30 4044 O 392.677 1.07807 -1.48739 0
M  V30 4045 C 392.739 -2.0412 -2.95931 0
M  V30 4046 C 392.403 -3.53336 -2.89832 0
M  V30 4047 C 393.4 -4.48052 -2.63714 0
M  V30 4048 C 391.085 -3.95894 -3.0915 0
M  V30 4049 C 393.079 -5.833 -2.56982 0
M  V30 4050 C 390.766 -5.31239 -3.0204 0
M  V30 4051 C 391.764 -6.24754 -2.75991 0
M  V30 4052 O 391.452 -7.57617 -2.68833 0
M  V30 4053 H 391.184 -0.451215 -0.50337 0
M  V30 4054 H 393.738 -1.78354 -1.01877 0
M  V30 4055 H 391.968 -1.51235 -3.559 0
M  V30 4056 H 393.657 -1.93107 -3.57022 0
M  V30 4057 H 394.423 -4.16492 -2.48515 0
M  V30 4058 H 390.302 -3.23495 -3.28438 0
M  V30 4059 H 393.846 -6.56263 -2.36569 0
M  V30 4060 H 389.743 -5.62415 -3.16796 0
M  V30 4061 H 390.511 -7.67469 -2.84487 0
M  V30 4062 N 393.175 1.03435 -1.18907 0
M  V30 4063 C 394.403 1.80381 -1.01342 0
M  V30 4064 C 394.818 1.83649 0.438005 0
M  V30 4065 O 394.175 1.27655 1.30424 0
M  V30 4066 C 394.226 3.25689 -1.56873 0
M  V30 4067 O 393.947 3.22673 -2.96334 0
M  V30 4068 C 395.448 4.19255 -1.44014 0
M  V30 4069 H 392.668 0.56784 -0.35749 0
M  V30 4070 H 395.212 1.30317 -1.576 0
M  V30 4071 H 393.367 3.72962 -1.04777 0
M  V30 4072 H 393.781 4.13748 -3.22355 0
M  V30 4073 H 395.255 5.19123 -1.87657 0
M  V30 4074 H 395.732 4.37467 -0.389815 0
M  V30 4075 H 396.338 3.77851 -1.95214 0
M  V30 4076 N 394.653 0.992116 1.22453 0
M  V30 4077 C 395.881 0.685944 1.95198 0
M  V30 4078 C 396.296 -0.749233 1.73297 0
M  V30 4079 O 395.653 -1.50549 1.03156 0
M  V30 4080 C 395.704 0.981395 3.47924 0
M  V30 4081 O 395.425 2.36018 3.6909 0
M  V30 4082 C 396.926 0.692815 4.37853 0
M  V30 4083 H 394.146 0.253821 0.621141 0
M  V30 4084 H 396.69 1.32668 1.55626 0
M  V30 4085 H 394.845 0.386481 3.85467 0
M  V30 4086 H 395.259 2.45884 4.63294 0
M  V30 4087 H 396.733 0.949818 5.43767 0
M  V30 4088 H 397.21 -0.373181 4.37612 0
M  V30 4089 H 397.816 1.26874 4.05935 0
M  V30 4090 N 396.131 -1.37776 0.765217 0
M  V30 4091 C 397.079 -2.32209 0.134798 0
M  V30 4092 C 398.073 -1.54607 -0.692315 0
M  V30 4093 O 399.279 -1.70052 -0.590109 0
M  V30 4094 H 395.654 -0.751591 0.0248005 0
M  V30 4095 H 397.625 -2.8297 0.947119 0
M  V30 4096 C 396.374 -3.39841 -0.735063 0
M  V30 4097 H 395.697 -3.99654 -0.107991 0
M  V30 4098 H 397.137 -4.08296 -1.14326 0
M  V30 4099 C 395.596 -2.79378 -1.88281 0
M  V30 4100 O 396.126 -2.69608 -2.97783 0
M  V30 4101 N 394.332 -2.37016 -1.68142 0
M  V30 4102 H 393.879 -2.45162 -0.790772 0
M  V30 4103 H 393.837 -1.96905 -2.45104 0
M  V30 4104 N 397.609 -0.515225 -1.4894 0
M  V30 4105 C 398.539 0.244628 -2.32215 0
M  V30 4106 C 399.52 0.949136 -1.41157 0
M  V30 4107 O 400.705 0.937783 -1.70057 0
M  V30 4108 C 397.835 1.30096 -3.22013 0
M  V30 4109 C 396.789 0.715486 -4.21977 0
M  V30 4110 C 396.115 1.87339 -5.00808 0
M  V30 4111 C 397.415 -0.302982 -5.2142 0
M  V30 4112 H 399.109 -0.450501 -2.95991 0
M  V30 4113 H 396.655 -0.218098 -1.42339 0
M  V30 4114 H 398.608 1.84037 -3.79089 0
M  V30 4115 H 397.332 2.02547 -2.56207 0
M  V30 4116 H 395.991 0.197715 -3.66066 0
M  V30 4117 H 395.639 2.58592 -4.31438 0
M  V30 4118 H 395.339 1.48764 -5.68457 0
M  V30 4119 H 396.863 2.41686 -5.60732 0
M  V30 4120 H 398.277 0.148802 -5.73107 0
M  V30 4121 H 396.674 -0.60532 -5.97039 0
M  V30 4122 H 397.744 -1.21395 -4.69459 0
M  V30 4123 N 399.087 1.5561 -0.249682 0
M  V30 4124 C 400.364 1.90932 0.424761 0
M  V30 4125 C 400.744 1.17078 1.75658 0
M  V30 4126 O 400.092 0.289176 2.26663 0
M  V30 4127 C 400.302 3.43975 0.590109 0
M  V30 4128 C 401.65 4.15281 0.884714 0
M  V30 4129 O 402.674 3.49729 0.67587 0
M  V30 4130 O 401.533 5.31236 1.28259 0
M  V30 4131 H 398.627 0.794815 0.228468 0
M  V30 4132 H 401.173 1.67135 -0.293954 0
M  V30 4133 H 399.945 3.89748 -0.34818 0
M  V30 4134 H 399.568 3.73644 1.35926 0
M  V30 4135 N 400.565 -0.0233959 1.57583 0
M  V30 4136 C 401.795 -0.723631 1.93513 0
M  V30 4137 C 402.203 -1.69115 0.848333 0
M  V30 4138 O 401.546 -1.82781 -0.183484 0
M  V30 4139 C 401.608 -1.53075 3.25282 0
M  V30 4140 C 401.272 -0.727388 4.51174 0
M  V30 4141 C 402.269 -0.0251924 5.19894 0
M  V30 4142 C 399.954 -0.680256 4.97672 0
M  V30 4143 C 401.948 0.713374 6.33395 0
M  V30 4144 C 399.635 0.0620523 6.11068 0
M  V30 4145 C 400.633 0.757622 6.78785 0
M  V30 4146 O 400.321 1.48787 7.90011 0
M  V30 4147 H 400.053 -0.208051 0.643188 0
M  V30 4148 H 402.607 0.0167489 2.05393 0
M  V30 4149 H 400.837 -2.31508 3.09744 0
M  V30 4150 H 402.526 -2.11413 3.46496 0
M  V30 4151 H 403.292 -0.0526003 4.84971 0
M  V30 4152 H 399.171 -1.21116 4.44805 0
M  V30 4153 H 402.715 1.25683 6.86185 0
M  V30 4154 H 398.612 0.0913634 6.45435 0
M  V30 4155 H 399.38 1.40213 8.06401 0
M  V30 4156 N 402.043 -1.548 -0.295768 0
M  V30 4157 C 403.32 -1.65014 -1.05023 0
M  V30 4158 C 403.7 -0.501805 -2.05049 0
M  V30 4159 O 403.048 0.500869 -2.22943 0
M  V30 4160 C 403.258 -3.03252 -1.72741 0
M  V30 4161 C 404.606 -3.60242 -2.24746 0
M  V30 4162 O 405.63 -3.05737 -1.82765 0
M  V30 4163 O 404.489 -4.55687 -3.01681 0
M  V30 4164 H 401.583 -0.669314 -0.485744 0
M  V30 4165 H 404.129 -1.67144 -0.293438 0
M  V30 4166 H 402.901 -3.7827 -1.00138 0
M  V30 4167 H 402.524 -3.04922 -2.55163 0
M  V30 4168 N 403.521 0.559213 -1.47345 0
M  V30 4169 C 404.937 0.884943 -1.32819 0
M  V30 4170 C 405.137 1.98988 -0.317173 0
M  V30 4171 O 404.193 2.51031 0.272011 0
M  V30 4172 C 405.506 1.28007 -2.72093 0
M  V30 4173 C 407.054 1.39161 -2.80363 0
M  V30 4174 C 407.529 1.82031 -4.20272 0
M  V30 4175 N 409.02 1.89185 -4.22804 0
M  V30 4176 C 409.755 2.2368 -5.27973 0
M  V30 4177 N 409.251 2.56802 -6.43447 0
M  V30 4178 N 411.044 2.24436 -5.15349 0
M  V30 4179 H 403.195 -0.170304 -2.11716 0
M  V30 4180 H 405.458 -0.0135247 -0.947904 0
M  V30 4181 H 405.164 0.542027 -3.47498 0
M  V30 4182 H 405.038 2.23665 -3.03733 0
M  V30 4183 H 407.425 2.12048 -2.05231 0
M  V30 4184 H 407.506 0.41696 -2.52379 0
M  V30 4185 H 407.15 1.09715 -4.95908 0
M  V30 4186 H 407.08 2.80495 -4.45679 0
M  V30 4187 H 409.571 1.65982 -3.39497 0
M  V30 4188 H 409.884 2.82144 -7.19454 0
M  V30 4189 H 408.229 2.54387 -6.46771 0
M  V30 4190 H 411.42 1.97998 -4.24163 0
M  V30 4191 H 411.593 2.50989 -5.97418 0
M  V30 4192 N 404.999 1.35443 0.805782 0
M  V30 4193 C 405.929 1.31095 1.93226 0
M  V30 4194 C 406.91 0.185244 1.69088 0
M  V30 4195 O 408.095 0.380332 1.90439 0
M  V30 4196 C 405.225 1.08299 3.29983 0
M  V30 4197 C 404.179 2.17519 3.68605 0
M  V30 4198 C 403.505 1.79887 5.03532 0
M  V30 4199 C 404.805 3.5949 3.78898 0
M  V30 4200 H 406.499 2.25352 1.97122 0
M  V30 4201 H 404.045 1.0848 0.946996 0
M  V30 4202 H 405.998 1.03897 4.08391 0
M  V30 4203 H 404.722 0.104885 3.26432 0
M  V30 4204 H 403.381 2.2102 2.92482 0
M  V30 4205 H 403.029 0.80693 4.96485 0
M  V30 4206 H 402.729 2.53001 5.30344 0
M  V30 4207 H 404.253 1.77011 5.84379 0
M  V30 4208 H 405.667 3.58307 4.47536 0
M  V30 4209 H 404.064 4.31371 4.1718 0
M  V30 4210 H 405.134 3.95584 2.80431 0
M  V30 4211 N 406.477 -1.02803 1.19454 0
M  V30 4212 C 407.427 -2.0945 0.900827 0
M  V30 4213 C 408.411 -1.60335 -0.134715 0
M  V30 4214 O 409.603 -1.76857 0.0710924 0
M  V30 4215 C 406.732 -3.4044 0.442229 0
M  V30 4216 C 405.818 -3.96286 1.51056 0
M  V30 4217 N 406.209 -4.25785 2.73021 0
M  V30 4218 C 404.507 -4.24307 1.37404 0
M  V30 4219 C 405.208 -4.70654 3.41848 0
M  V30 4220 N 404.184 -4.72238 2.69243 0
M  V30 4221 H 407.986 -2.3015 1.82779 0
M  V30 4222 H 405.5 -1.20672 1.08683 0
M  V30 4223 H 407.497 -4.16354 0.21326 0
M  V30 4224 H 406.157 -3.21159 -0.478238 0
M  V30 4225 H 407.168 -4.15041 3.09776 0
M  V30 4226 H 403.845 -4.14285 0.517103 0
M  V30 4227 H 405.235 -5.02392 4.46152 0
M  V30 4228 N 407.956 -0.998596 -1.21925 0
M  V30 4229 C 408.903 -0.553621 -2.24062 0
M  V30 4230 C 409.873 0.416999 -1.6078 0
M  V30 4231 O 411.058 0.320482 -1.88089 0
M  V30 4232 C 408.198 0.119959 -3.44891 0
M  V30 4233 C 407.311 -0.893077 -4.22668 0
M  V30 4234 C 406.446 -0.192424 -5.30851 0
M  V30 4235 C 405.485 -1.19344 -6.00353 0
M  V30 4236 N 404.622 -0.520707 -7.00166 0
M  V30 4237 H 409.462 -1.4293 -2.61486 0
M  V30 4238 H 406.999 -0.715838 -1.28507 0
M  V30 4239 H 408.957 0.527459 -4.13852 0
M  V30 4240 H 407.587 0.959389 -3.08214 0
M  V30 4241 H 406.639 -1.41886 -3.52948 0
M  V30 4242 H 407.951 -1.65512 -4.70539 0
M  V30 4243 H 407.105 0.271515 -6.06092 0
M  V30 4244 H 405.844 0.602075 -4.83969 0
M  V30 4245 H 404.849 -1.66795 -5.23889 0
M  V30 4246 H 406.074 -1.98891 -6.49322 0
M  V30 4247 H 404.02 0.254252 -6.55507 0
M  V30 4248 H 403.937 -1.2211 -7.46073 0
M  V30 4249 H 405.205 -0.0797596 -7.79459 0
M  V30 4250 N 409.434 1.37368 -0.772513 0
M  V30 4251 C 410.683 1.98918 -0.333861 0
M  V30 4252 C 410.996 1.62017 1.09589 0
M  V30 4253 O 412.202 2.16676 1.63596 0
M  V30 4254 C 410.658 3.55735 -0.545971 0
M  V30 4255 C 410.266 4.01573 -1.98603 0
M  V30 4256 C 412.01 4.24156 -0.170979 0
M  V30 4257 C 409.917 5.51102 -2.1457 0
M  V30 4258 H 408.847 0.744214 -0.121085 0
M  V30 4259 H 411.498 1.56888 -0.95175 0
M  V30 4260 H 409.88 3.95748 0.141387 0
M  V30 4261 H 411.054 3.72803 -2.7084 0
M  V30 4262 H 409.369 3.45937 -2.31769 0
M  V30 4263 H 411.966 5.34024 -0.26878 0
M  V30 4264 H 412.309 4.06917 0.878855 0
M  V30 4265 H 412.842 3.89447 -0.810914 0
M  V30 4266 H 409.581 5.73268 -3.17875 0
M  V30 4267 H 409.101 5.81554 -1.46817 0
M  V30 4268 H 410.78 6.17083 -1.94468 0
M  V30 4269 N 410.912 0.523116 1.48665 0
M  V30 4270 C 412.328 0.180511 1.58576 0
M  V30 4271 C 412.528 -1.31597 1.52592 0
M  V30 4272 O 411.584 -2.0937 1.4114 0
M  V30 4273 C 412.897 0.776949 2.90489 0
M  V30 4274 C 414.445 0.745058 3.04003 0
M  V30 4275 C 414.92 1.31995 4.38567 0
M  V30 4276 N 416.411 1.28162 4.45117 0
M  V30 4277 C 417.146 1.6964 5.47731 0
M  V30 4278 N 416.642 2.18816 6.57337 0
M  V30 4279 N 418.435 1.6092 5.38573 0
M  V30 4280 H 410.586 1.4958 1.50797 0
M  V30 4281 H 412.849 0.621772 0.715614 0
M  V30 4282 H 412.555 1.82732 3.00503 0
M  V30 4283 H 412.429 0.25007 3.7637 0
M  V30 4284 H 414.816 -0.296532 2.93606 0
M  V30 4285 H 414.897 1.30933 2.1975 0
M  V30 4286 H 414.541 2.36043 4.49718 0
M  V30 4287 H 414.471 0.731418 5.21496 0
M  V30 4288 H 416.962 0.92155 3.66491 0
M  V30 4289 H 417.275 2.48478 7.31764 0
M  V30 4290 H 415.62 2.22805 6.58318 0
M  V30 4291 H 418.811 1.22304 4.5184 0
M  V30 4292 H 418.984 1.93567 6.18414 0
M  V30 4293 N 412.39 -1.55475 0.257931 0
M  V30 4294 C 413.667 -1.91155 -0.414629 0
M  V30 4295 C 414.047 -1.18008 -1.75035 0
M  V30 4296 O 413.395 -0.301193 -2.26506 0
M  V30 4297 C 413.605 -3.44283 -0.571859 0
M  V30 4298 C 414.953 -4.15744 -0.862678 0
M  V30 4299 O 415.977 -3.50083 -0.657314 0
M  V30 4300 O 414.836 -5.31909 -1.2544 0
M  V30 4301 H 411.93 -0.796016 -0.22425 0
M  V30 4302 H 414.476 -1.66976 0.302814 0
M  V30 4303 H 413.248 -3.89558 0.368844 0
M  V30 4304 H 412.871 -3.7436 -1.33943 0
M  V30 4305 N 413.868 0.0150385 -1.57593 0
M  V30 4306 C 414.818 1.01943 -2.0394 0
M  V30 4307 C 415.802 1.31209 -0.931286 0
M  V30 4308 O 416.994 1.30559 -1.19513 0
M  V30 4309 C 414.123 2.31621 -2.53391 0
M  V30 4310 C 413.209 2.05384 -3.7105 0
M  V30 4311 N 413.6 1.49253 -4.83278 0
M  V30 4312 C 411.898 2.35601 -3.78693 0
M  V30 4313 C 412.599 1.39143 -5.64813 0
M  V30 4314 N 411.575 1.87187 -5.10355 0
M  V30 4315 H 415.377 0.57969 -2.88126 0
M  V30 4316 H 412.891 0.221056 -1.60888 0
M  V30 4317 H 414.888 3.044 -2.84862 0
M  V30 4318 H 413.548 2.76261 -1.70616 0
M  V30 4319 H 414.559 1.17334 -5.04433 0
M  V30 4320 H 411.236 2.8322 -3.06746 0
M  V30 4321 H 412.626 0.961153 -6.6499 0
M  V30 4322 N 415.346 1.54954 0.287554 0
M  V30 4323 C 416.593 1.74873 1.02106 0
M  V30 4324 C 416.921 0.541829 1.86801 0
M  V30 4325 O 416.176 -0.475992 1.89823 0
M  V30 4326 C 416.475 2.99833 1.94512 0
M  V30 4327 C 416.141 4.33029 1.25686 0
M  V30 4328 C 414.803 4.69233 1.06649 0
M  V30 4329 C 417.155 5.15542 0.765913 0
M  V30 4330 C 414.483 5.85518 0.372222 0
M  V30 4331 C 416.835 6.32542 0.0853101 0
M  V30 4332 C 415.499 6.67398 -0.1169 0
M  V30 4333 H 414.769 0.639906 0.373632 0
M  V30 4334 H 417.416 1.89219 0.294665 0
M  V30 4335 H 415.721 2.80325 2.73725 0
M  V30 4336 H 417.418 3.1244 2.51361 0
M  V30 4337 H 414.008 4.04564 1.41512 0
M  V30 4338 H 418.192 4.88059 0.90066 0
M  V30 4339 H 413.448 6.11057 0.204695 0
M  V30 4340 H 417.622 6.95741 -0.302936 0
M  V30 4341 H 415.249 7.57357 -0.656859 0
M  V30 4342 N 416.824 -0.551391 1.4764 0
M  V30 4343 C 417.771 -1.65796 1.60563 0
M  V30 4344 C 418.741 -1.59932 0.448428 0
M  V30 4345 O 419.926 -1.78679 0.669222 0
M  V30 4346 C 417.066 -3.04108 1.63133 0
M  V30 4347 C 416.179 -3.20365 2.89811 0
M  V30 4348 C 415.314 -4.49109 2.8368 0
M  V30 4349 C 414.353 -4.58819 4.05156 0
M  V30 4350 N 413.49 -5.78926 3.97227 0
M  V30 4351 H 418.33 -1.54088 2.5507 0
M  V30 4352 H 415.867 -0.75052 1.26513 0
M  V30 4353 H 417.825 -3.84207 1.62606 0
M  V30 4354 H 416.455 -3.14637 0.721341 0
M  V30 4355 H 415.507 -2.33659 3.00179 0
M  V30 4356 H 416.819 -3.23402 3.79753 0
M  V30 4357 H 415.973 -5.37475 2.81434 0
M  V30 4358 H 414.712 -4.4856 1.91431 0
M  V30 4359 H 413.717 -3.68864 4.077 0
M  V30 4360 H 414.942 -4.61124 4.98539 0
M  V30 4361 H 412.888 -5.79314 3.07785 0
M  V30 4362 H 412.805 -5.83367 4.80853 0
M  V30 4363 H 414.073 -6.69637 3.99007 0
M  V30 4364 N 418.302 -1.35869 -0.798587 0
M  V30 4365 C 419.265 -1.29307 -1.89242 0
M  V30 4366 C 420.265 -0.202747 -1.59517 0
M  V30 4367 O 421.455 -0.456957 -1.681 0
M  V30 4368 C 418.587 -1.00229 -3.25833 0
M  V30 4369 H 419.78 -2.26576 -1.96478 0
M  V30 4370 H 417.333 -1.20509 -0.995358 0
M  V30 4371 H 418.068 -0.033801 -3.24282 0
M  V30 4372 H 417.853 -1.79121 -3.48795 0
M  V30 4373 H 419.343 -0.98219 -4.05885 0
M  V30 4374 N 419.78 1.02168 -1.19998 0
M  V30 4375 C 421.029 1.75091 -1.0013 0
M  V30 4376 C 421.342 1.89923 0.467835 0
M  V30 4377 O 422.548 2.59888 0.785515 0
M  V30 4378 C 421.004 3.14892 -1.74273 0
M  V30 4379 C 420.612 3.0809 -3.25245 0
M  V30 4380 C 422.356 3.9206 -1.62755 0
M  V30 4381 C 420.263 4.42867 -3.91948 0
M  V30 4382 H 419.193 0.656394 -0.37103 0
M  V30 4383 H 421.844 1.14284 -1.43567 0
M  V30 4384 H 420.226 3.7621 -1.2362 0
M  V30 4385 H 421.4 2.5611 -3.83072 0
M  V30 4386 H 419.715 2.44416 -3.3712 0
M  V30 4387 H 422.312 4.91764 -2.09934 0
M  V30 4388 H 422.655 4.12199 -0.582894 0
M  V30 4389 H 423.188 3.37359 -2.10793 0
M  V30 4390 H 419.927 4.27931 -4.96543 0
M  V30 4391 H 419.447 4.94874 -3.3891 0
M  V30 4392 H 421.126 5.11728 -3.95909 0
M  V30 4393 N 421.258 1.00505 1.21394 0
M  V30 4394 C 422.674 0.717873 1.42544 0
M  V30 4395 C 422.874 -0.706936 1.88692 0
M  V30 4396 O 421.93 -1.47627 2.04847 0
M  V30 4397 C 423.243 1.73377 2.45684 0
M  V30 4398 C 424.791 1.75059 2.59467 0
M  V30 4399 C 425.266 2.75545 3.6584 0
M  V30 4400 N 426.757 2.74213 3.73311 0
M  V30 4401 C 427.492 3.48626 4.55245 0
M  V30 4402 N 426.988 4.32678 5.41075 0
M  V30 4403 N 428.781 3.37276 4.49668 0
M  V30 4404 H 420.932 1.92506 0.897503 0
M  V30 4405 H 423.195 0.830919 0.456375 0
M  V30 4406 H 422.901 2.75395 2.18748 0
M  V30 4407 H 422.775 1.53647 3.44489 0
M  V30 4408 H 425.162 0.737337 2.8574 0
M  V30 4409 H 425.243 1.98861 1.60897 0
M  V30 4410 H 424.887 3.77028 3.40313 0
M  V30 4411 H 424.817 2.49009 4.64007 0
M  V30 4412 H 427.308 2.13234 3.11993 0
M  V30 4413 H 427.621 4.86253 6.00648 0
M  V30 4414 H 425.966 4.3676 5.40616 0
M  V30 4415 H 429.157 2.71043 3.81646 0
M  V30 4416 H 429.33 3.95524 5.13288 0
M  V30 4417 N 422.737 -1.36956 0.779787 0
M  V30 4418 C 424.148 -1.82094 0.412156 0
M  V30 4419 C 424.499 -1.64926 -1.06273 0
M  V30 4420 O 423.624 -1.16483 -1.82375 0
M  V30 4421 C 424.219 -3.3059 0.741319 0
M  V30 4422 C 422.778 -3.73974 0.426641 0
M  V30 4423 C 421.925 -2.59368 0.980987 0
M  V30 4424 H 424.876 -1.25314 0.973758 0
M  V30 4425 H 424.897 -3.80489 0.028887 0
M  V30 4426 H 424.409 -3.43054 1.81482 0
M  V30 4427 H 422.51 -3.67076 -0.639215 0
M  V30 4428 H 422.623 -4.69778 0.940515 0
M  V30 4429 H 420.987 -2.51463 0.404757 0
M  V30 4430 H 421.77 -2.74621 2.06005 0
M  V30 4431 N 424.215 -0.530993 -1.48385 0
M  V30 4432 C 425.162 0.231223 -2.29639 0
M  V30 4433 C 426.132 0.932864 -1.37429 0
M  V30 4434 O 427.317 0.933692 -1.66394 0
M  V30 4435 C 424.457 1.27155 -3.2082 0
M  V30 4436 C 423.57 0.578655 -4.28107 0
M  V30 4437 C 422.705 1.602 -5.06467 0
M  V30 4438 C 421.744 0.892625 -6.05556 0
M  V30 4439 N 420.881 1.86157 -6.76971 0
M  V30 4440 H 425.721 -0.467848 -2.94305 0
M  V30 4441 H 423.258 -0.242556 -1.45086 0
M  V30 4442 H 425.216 1.88703 -3.72085 0
M  V30 4443 H 423.846 1.939 -2.58075 0
M  V30 4444 H 422.898 -0.150782 -3.80101 0
M  V30 4445 H 424.21 0.0217065 -4.98795 0
M  V30 4446 H 423.364 2.29173 -5.61751 0
M  V30 4447 H 422.103 2.19285 -4.35621 0
M  V30 4448 H 421.108 0.188829 -5.49476 0
M  V30 4449 H 422.333 0.307878 -6.78402 0
M  V30 4450 H 420.279 2.44147 -6.08875 0
M  V30 4451 H 420.196 1.35608 -7.43738 0
M  V30 4452 H 421.464 2.54325 -7.36844 0
M  V30 4453 N 425.693 1.55336 -0.266172 0
M  V30 4454 C 426.923 2.03506 0.356239 0
M  V30 4455 C 427.331 1.14426 1.50676 0
M  V30 4456 O 426.674 0.155043 1.83045 0
M  V30 4457 C 426.736 3.47848 0.90785 0
M  V30 4458 C 426.4 4.56861 -0.112888 0
M  V30 4459 C 427.397 5.11528 -0.929264 0
M  V30 4460 C 425.082 5.01704 -0.244546 0
M  V30 4461 C 427.076 6.09549 -1.86357 0
M  V30 4462 C 424.763 5.99553 -1.18234 0
M  V30 4463 C 425.761 6.53356 -1.99036 0
M  V30 4464 O 425.449 7.49293 -2.91231 0
M  V30 4465 H 425.181 0.670444 0.08649 0
M  V30 4466 H 427.735 2.01598 -0.39337 0
M  V30 4467 H 425.965 3.46967 1.70737 0
M  V30 4468 H 427.654 3.79407 1.44239 0
M  V30 4469 H 428.42 4.77701 -0.838237 0
M  V30 4470 H 424.299 4.59477 0.374359 0
M  V30 4471 H 427.843 6.51469 -2.49467 0
M  V30 4472 H 423.74 6.32799 -1.27421 0
M  V30 4473 H 424.508 7.66978 -2.8581 0
M  V30 4474 N 427.171 -0.0066808 1.57599 0
M  V30 4475 C 428.118 -1.00024 2.08 0
M  V30 4476 C 429.088 -1.34549 0.973943 0
M  V30 4477 O 430.273 -1.44502 1.24595 0
M  V30 4478 C 427.413 -2.2891 2.58252 0
M  V30 4479 C 426.526 -2.00346 3.82734 0
M  V30 4480 C 425.661 -3.23265 4.21513 0
M  V30 4481 C 424.7 -2.90357 5.3885 0
M  V30 4482 N 423.837 -4.05793 5.72954 0
M  V30 4483 H 428.677 -0.563499 2.92624 0
M  V30 4484 H 426.214 -0.266592 1.44664 0
M  V30 4485 H 428.172 -3.04247 2.85464 0
M  V30 4486 H 426.802 -2.70265 1.76512 0
M  V30 4487 H 425.854 -1.15406 3.62471 0
M  V30 4488 H 427.166 -1.72086 4.68175 0
M  V30 4489 H 426.32 -4.06953 4.49971 0
M  V30 4490 H 425.059 -3.54657 3.34768 0
M  V30 4491 H 424.064 -2.05075 5.10122 0
M  V30 4492 H 425.289 -2.60219 6.27266 0
M  V30 4493 H 423.235 -4.37094 4.89167 0
M  V30 4494 H 423.152 -3.81034 6.52954 0
M  V30 4495 H 424.42 -4.90289 6.06001 0
M  V30 4496 N 428.649 -1.55105 -0.279332 0
M  V30 4497 C 429.596 -1.8755 -1.34513 0
M  V30 4498 C 430.566 -0.726384 -1.49375 0
M  V30 4499 O 431.751 -0.977063 -1.63884 0
M  V30 4500 C 428.891 -2.14738 -2.70151 0
M  V30 4501 C 428.004 -3.42285 -2.63562 0
M  V30 4502 C 427.139 -3.59206 -3.91337 0
M  V30 4503 C 426.178 -4.80467 -3.79233 0
M  V30 4504 N 425.315 -4.94079 -4.98829 0
M  V30 4505 H 430.155 -2.78456 -1.06143 0
M  V30 4506 H 427.692 -1.37867 -0.512936 0
M  V30 4507 H 429.65 -2.28501 -3.49061 0
M  V30 4508 H 428.28 -1.27075 -2.96735 0
M  V30 4509 H 427.332 -3.37029 -1.76397 0
M  V30 4510 H 428.644 -4.31328 -2.50515 0
M  V30 4511 H 427.798 -3.72751 -4.78687 0
M  V30 4512 H 426.537 -2.68337 -4.07243 0
M  V30 4513 H 425.542 -4.66932 -2.90266 0
M  V30 4514 H 426.767 -5.72765 -3.64852 0
M  V30 4515 H 424.713 -4.06139 -5.15158 0
M  V30 4516 H 424.63 -5.77156 -4.8829 0
M  V30 4517 H 425.898 -5.12003 -5.8777 0
M  V30 4518 N 430.127 0.543554 -1.4793 0
M  V30 4519 C 431.374 1.30008 -1.55255 0
M  V30 4520 C 431.702 1.93245 -0.220612 0
M  V30 4521 O 430.957 1.79141 0.787843 0
M  V30 4522 C 431.256 2.42078 -2.62932 0
M  V30 4523 C 430.922 1.96583 -4.0579 0
M  V30 4524 C 429.584 1.83893 -4.44676 0
M  V30 4525 C 431.936 1.62034 -4.95373 0
M  V30 4526 C 429.264 1.34969 -5.70964 0
M  V30 4527 C 431.616 1.14577 -6.22137 0
M  V30 4528 C 430.28 1.00493 -6.59892 0
M  V30 4529 H 429.55 0.475735 -0.568117 0
M  V30 4530 H 432.197 0.608075 -1.81589 0
M  V30 4531 H 430.502 3.16892 -2.30406 0
M  V30 4532 H 432.199 3.00236 -2.65818 0
M  V30 4533 H 428.789 2.07407 -3.75074 0
M  V30 4534 H 432.973 1.70705 -4.66019 0
M  V30 4535 H 428.229 1.2274 -5.98953 0
M  V30 4536 H 432.403 0.869109 -6.90955 0
M  V30 4537 H 430.03 0.623624 -7.57638 0
M  V30 4538 N 431.605 1.3629 0.791371 0
M  V30 4539 C 432.515 1.32606 1.93527 0
M  V30 4540 C 433.531 0.228541 1.72493 0
M  V30 4541 O 434.707 0.460571 1.96063 0
M  V30 4542 C 431.772 1.11271 3.28359 0
M  V30 4543 C 430.833 2.3048 3.62185 0
M  V30 4544 C 430.066 2.10154 4.90583 0
M  V30 4545 O 430.289 1.07572 5.60165 0
M  V30 4546 O 429.223 2.97884 5.23019 0
M  V30 4547 H 433.049 2.28909 1.99585 0
M  V30 4548 H 430.634 1.16818 0.931344 0
M  V30 4549 H 432.516 1.01283 4.09047 0
M  V30 4550 H 431.191 0.180292 3.23198 0
M  V30 4551 H 430.098 2.46036 2.81811 0
M  V30 4552 H 431.431 3.22221 3.72068 0
M  V30 4553 N 433.083 -1.0153 1.20538 0
M  V30 4554 C 434.308 -1.79283 1.04271 0
M  V30 4555 C 434.733 -1.8372 -0.403544 0
M  V30 4556 O 434.091 -1.27321 -1.2907 0
M  V30 4557 C 434.139 -3.21535 1.63241 0
M  V30 4558 O 433.243 -4.03099 0.870908 0
M  V30 4559 H 432.584 -0.55293 0.367647 0
M  V30 4560 H 435.114 -1.27696 1.59859 0
M  V30 4561 H 435.124 -3.72243 1.6703 0
M  V30 4562 H 433.799 -3.1762 2.68497 0
M  V30 4563 H 432.376 -3.61693 0.907323 0
M  V30 4564 N 434.561 -1.01147 -1.20859 0
M  V30 4565 C 435.508 -0.577354 -2.23462 0
M  V30 4566 C 436.478 0.399922 -1.61214 0
M  V30 4567 O 437.663 0.300515 -1.88419 0
M  V30 4568 C 434.803 0.083372 -3.44999 0
M  V30 4569 C 433.916 -0.937856 -4.21697 0
M  V30 4570 C 433.051 -0.248717 -5.30617 0
M  V30 4571 C 432.09 -1.25705 -5.99053 0
M  V30 4572 N 431.227 -0.594939 -6.99575 0
M  V30 4573 H 436.067 -1.45695 -2.59956 0
M  V30 4574 H 433.604 -0.729428 -1.27741 0
M  V30 4575 H 435.562 0.483535 -4.14388 0
M  V30 4576 H 434.192 0.926645 -3.09214 0
M  V30 4577 H 433.244 -1.45622 -3.51423 0
M  V30 4578 H 434.556 -1.70493 -4.68757 0
M  V30 4579 H 433.71 0.207215 -6.06346 0
M  V30 4580 H 432.449 0.55071 -4.84581 0
M  V30 4581 H 431.454 -1.72343 -5.2209 0
M  V30 4582 H 432.679 -2.05767 -6.47176 0
M  V30 4583 H 430.625 0.184713 -6.5574 0
M  V30 4584 H 430.542 -1.30017 -7.44736 0
M  V30 4585 H 431.81 -0.162427 -7.79331 0
M  V30 4586 N 436.039 1.36541 -0.78704 0
M  V30 4587 C 437.267 2.03561 -0.370199 0
M  V30 4588 C 437.682 1.59347 1.01263 0
M  V30 4589 O 437.039 0.781781 1.64907 0
M  V30 4590 C 437.09 3.59033 -0.421614 0
M  V30 4591 O 436.811 4.01634 -1.7499 0
M  V30 4592 C 438.312 4.433 0.00489763 0
M  V30 4593 H 435.532 0.653346 -0.152904 0
M  V30 4594 H 438.076 1.74566 -1.06522 0
M  V30 4595 H 436.231 3.86746 0.224971 0
M  V30 4596 H 436.645 4.96217 -1.69909 0
M  V30 4597 H 438.119 5.51939 -0.0822184 0
M  V30 4598 H 438.596 4.26285 1.05723 0
M  V30 4599 H 439.202 4.20843 -0.614085 0
M  V30 4600 N 437.518 0.538854 1.48102 0
M  V30 4601 C 438.448 -0.207654 2.32575 0
M  V30 4602 C 439.429 -0.926559 1.4265 0
M  V30 4603 O 440.614 -0.91061 1.71527 0
M  V30 4604 C 437.744 -1.24957 3.24042 0
M  V30 4605 C 436.698 -0.648263 4.23062 0
M  V30 4606 C 436.024 -1.79348 5.03725 0
M  V30 4607 C 437.324 0.385897 5.20872 0
M  V30 4608 H 439.018 0.497534 2.95237 0
M  V30 4609 H 436.564 0.240715 1.41974 0
M  V30 4610 H 438.517 -1.77983 3.81969 0
M  V30 4611 H 437.241 -1.98446 2.59397 0
M  V30 4612 H 435.9 -0.139452 3.66335 0
M  V30 4613 H 435.548 -2.51696 4.35498 0
M  V30 4614 H 435.248 -1.39702 5.70751 0
M  V30 4615 H 436.772 -2.32735 5.64506 0
M  V30 4616 H 438.186 -0.057607 5.73271 0
M  V30 4617 H 436.583 0.700227 5.96001 0
M  V30 4618 H 437.653 1.28848 4.67468 0
M  V30 4619 N 438.996 -1.55193 0.274407 0
M  V30 4620 C 440.242 -1.99877 -0.343086 0
M  V30 4621 C 440.575 -1.16256 -1.55558 0
M  V30 4622 O 439.85 -0.232462 -1.93106 0
M  V30 4623 C 440.133 -3.52706 -0.725965 0
M  V30 4624 C 439.986 -4.47081 0.493818 0
M  V30 4625 C 441.305 -4.11422 -1.56268 0
M  V30 4626 H 438.424 -0.726625 -0.123229 0
M  V30 4627 H 441.066 -1.86136 0.38121 0
M  V30 4628 H 439.216 -3.64546 -1.34307 0
M  V30 4629 H 440.888 -4.47186 1.13237 0
M  V30 4630 H 439.131 -4.1877 1.13201 0
M  V30 4631 H 439.802 -5.51699 0.18217 0
M  V30 4632 H 442.278 -4.02855 -1.04151 0
M  V30 4633 H 441.154 -5.18568 -1.79939 0
M  V30 4634 H 441.415 -3.61607 -2.54348 0
M  V30 4635 N 440.474 -0.00167713 -1.576 0
M  V30 4636 C 441.751 0.719951 -1.81868 0
M  V30 4637 C 442.131 1.91895 -0.879747 0
M  V30 4638 O 441.479 2.28389 0.0711423 0
M  V30 4639 C 441.689 1.12409 -3.30402 0
M  V30 4640 C 443.037 1.52724 -3.96182 0
M  V30 4641 O 444.061 1.21784 -3.34734 0
M  V30 4642 O 442.92 2.10265 -5.04431 0
M  V30 4643 H 440.014 0.350707 -0.748955 0
M  V30 4644 H 442.56 -0.0272597 -1.69678 0
M  V30 4645 H 441.332 0.269532 -3.90371 0
M  V30 4646 H 440.955 1.93035 -3.47596 0
M  V30 4647 N 441.952 1.55251 0.271103 0
M  V30 4648 C 443.18 1.79974 1.02064 0
M  V30 4649 C 443.595 0.574003 1.79863 0
M  V30 4650 O 442.952 -0.456962 1.76686 0
M  V30 4651 C 443.003 3.02603 1.97772 0
M  V30 4652 O 442.724 4.20443 1.23124 0
M  V30 4653 C 444.225 3.39944 2.84522 0
M  V30 4654 H 441.445 0.599489 0.301419 0
M  V30 4655 H 443.989 2.02268 0.301313 0
M  V30 4656 H 442.144 2.8243 2.65165 0
M  V30 4657 H 442.558 4.89783 1.87651 0
M  V30 4658 H 444.032 4.28915 3.47471 0
M  V30 4659 H 444.509 2.59432 3.54389 0
M  V30 4660 H 445.115 3.62383 2.22618 0
M  V30 4661 N 443.43 -0.535701 1.48216 0
M  V30 4662 C 444.655 -1.32149 1.59848 0
M  V30 4663 C 445.08 -1.86338 0.256842 0
M  V30 4664 O 444.438 -1.64107 -0.770632 0
M  V30 4665 C 444.486 -2.45224 2.64381 0
M  V30 4666 O 443.59 -3.48093 2.21144 0
M  V30 4667 H 442.931 -0.391634 0.536208 0
M  V30 4668 H 445.461 -0.645202 1.94161 0
M  V30 4669 H 445.471 -2.91491 2.85476 0
M  V30 4670 H 444.146 -2.05143 3.61786 0
M  V30 4671 H 442.723 -3.07984 2.10239 0
M  V30 4672 N 444.908 -1.36708 -0.784132 0
M  V30 4673 C 446.157 -1.30559 -1.53744 0
M  V30 4674 C 446.47 0.111374 -1.95283 0
M  V30 4675 O 447.676 0.29527 -2.6989 0
M  V30 4676 C 446.132 -2.29098 -2.77565 0
M  V30 4677 C 445.74 -3.76258 -2.43174 0
M  V30 4678 C 447.484 -2.31936 -3.55536 0
M  V30 4679 C 445.391 -4.6656 -3.63422 0
M  V30 4680 H 444.321 -0.48518 -0.577162 0
M  V30 4681 H 446.972 -1.62101 -0.859981 0
M  V30 4682 H 445.354 -1.90557 -3.47137 0
M  V30 4683 H 446.528 -4.23565 -1.81465 0
M  V30 4684 H 444.843 -3.76246 -1.78403 0
M  V30 4685 H 447.44 -2.9661 -4.44889 0
M  V30 4686 H 447.783 -1.3294 -3.94503 0
M  V30 4687 H 448.316 -2.6912 -2.92949 0
M  V30 4688 H 445.055 -5.66638 -3.29547 0
M  V30 4689 H 444.575 -4.23966 -4.24279 0
M  V30 4690 H 446.254 -4.8309 -4.30387 0
M  V30 4691 N 446.386 1.0089 -1.21074 0
M  V30 4692 C 447.633 1.74607 -1.0256 0
M  V30 4693 C 447.961 1.89426 0.44136 0
M  V30 4694 O 447.216 1.42266 1.34384 0
M  V30 4695 C 447.515 3.16335 -1.66334 0
M  V30 4696 C 447.181 3.21474 -3.16173 0
M  V30 4697 C 445.843 3.22583 -3.57062 0
M  V30 4698 C 448.195 3.19025 -4.12156 0
M  V30 4699 C 445.523 3.18925 -4.92446 0
M  V30 4700 C 447.875 3.16909 -5.47496 0
M  V30 4701 C 446.539 3.16326 -5.87787 0
M  V30 4702 H 445.809 0.638933 -0.375294 0
M  V30 4703 H 448.456 1.18274 -1.50611 0
M  V30 4704 H 446.761 3.75876 -1.10566 0
M  V30 4705 H 448.458 3.72083 -1.49516 0
M  V30 4706 H 445.048 3.2135 -2.83605 0
M  V30 4707 H 449.232 3.17332 -3.81595 0
M  V30 4708 H 444.488 3.16809 -5.22917 0
M  V30 4709 H 448.662 3.13968 -6.21609 0
M  V30 4710 H 446.289 3.13246 -6.92662 0
M  V30 4711 N 447.864 1.01787 1.20321 0
M  V30 4712 C 448.811 0.589197 2.23153 0
M  V30 4713 C 449.781 -0.391367 1.61423 0
M  V30 4714 O 450.966 -0.290518 1.88575 0
M  V30 4715 C 448.106 -0.0650747 3.45039 0
M  V30 4716 C 447.219 0.960207 4.21194 0
M  V30 4717 C 446.354 0.276854 5.30478 0
M  V30 4718 C 445.393 1.2888 5.98378 0
M  V30 4719 N 444.53 0.632031 6.99249 0
M  V30 4720 H 449.37 1.47071 2.59179 0
M  V30 4721 H 446.907 0.736192 1.27352 0
M  V30 4722 H 448.865 -0.461552 4.14639 0
M  V30 4723 H 447.495 -0.910233 3.09701 0
M  V30 4724 H 446.547 1.47484 3.50646 0
M  V30 4725 H 447.859 1.72977 4.67847 0
M  V30 4726 H 447.013 -0.175056 6.06447 0
M  V30 4727 H 445.752 -0.525004 4.84866 0
M  V30 4728 H 444.757 1.75109 5.21169 0
M  V30 4729 H 445.982 2.09196 6.46076 0
M  V30 4730 H 443.928 -0.149935 6.55829 0
M  V30 4731 H 443.845 1.33964 7.44036 0
M  V30 4732 H 445.113 0.203755 7.79234 0
M  V30 4733 N 449.342 -1.36122 0.79427 0
M  V30 4734 C 450.567 -2.03891 0.379871 0
M  V30 4735 C 450.992 -1.59488 -0.997251 0
M  V30 4736 O 450.35 -0.765652 -1.64339 0
M  V30 4737 C 450.398 -3.57687 0.457442 0
M  V30 4738 O 449.502 -4.08931 -0.5338 0
M  V30 4739 H 448.843 -0.6443 0.160541 0
M  V30 4740 H 451.373 -1.73976 1.07673 0
M  V30 4741 H 451.383 -4.06721 0.322792 0
M  V30 4742 H 450.058 -3.89357 1.46199 0
M  V30 4743 H 448.635 -3.71154 -0.360409 0
M  V30 4744 N 450.82 -0.546701 -1.47814 0
M  V30 4745 C 451.752 0.244196 -2.27895 0
M  V30 4746 C 452.765 0.88911 -1.36377 0
M  V30 4747 O 453.954 0.764733 -1.61289 0
M  V30 4748 C 451.054 1.36252 -3.10304 0
M  V30 4749 C 450.227 0.816382 -4.29714 0
M  V30 4750 C 449.286 1.81789 -4.93801 0
M  V30 4751 O 448.312 1.36818 -5.52512 0
M  V30 4752 N 449.514 3.15085 -4.87547 0
M  V30 4753 H 452.279 -0.442694 -2.96412 0
M  V30 4754 H 449.84 -0.382095 -1.57327 0
M  V30 4755 H 451.832 2.03102 -3.50045 0
M  V30 4756 H 450.402 1.95281 -2.44099 0
M  V30 4757 H 449.622 -0.0285981 -3.9419 0
M  V30 4758 H 450.91 0.430668 -5.06974 0
M  V30 4759 H 450.308 3.54275 -4.41028 0
M  V30 4760 H 448.865 3.77522 -5.31339 0
M  V30 4761 N 452.299 1.55045 -0.282633 0
M  V30 4762 C 453.548 1.98938 0.332667 0
M  V30 4763 C 453.861 1.17455 1.56409 0
M  V30 4764 O 455.067 1.51527 2.25282 0
M  V30 4765 C 453.523 3.54105 0.643226 0
M  V30 4766 C 453.131 4.44374 -0.568814 0
M  V30 4767 C 454.875 4.06569 1.22074 0
M  V30 4768 C 452.782 5.90943 -0.232426 0
M  V30 4769 H 451.712 0.743043 0.128075 0
M  V30 4770 H 454.363 1.79341 -0.388464 0
M  V30 4771 H 452.745 3.69532 1.42346 0
M  V30 4772 H 453.919 4.40718 -1.34551 0
M  V30 4773 H 452.234 4.02585 -1.06369 0
M  V30 4774 H 454.831 5.13626 1.48635 0
M  V30 4775 H 455.174 3.56057 2.15707 0
M  V30 4776 H 455.707 3.94612 0.502621 0
M  V30 4777 H 452.446 6.45567 -1.13683 0
M  V30 4778 H 451.966 5.9765 0.507357 0
M  V30 4779 H 453.645 6.4677 0.172657 0
M  V30 4780 N 453.777 0.010035 1.57597 0
M  V30 4781 C 455.188 -0.531426 1.78977 0
M  V30 4782 C 455.539 -1.73375 0.918454 0
M  V30 4783 O 454.664 -2.16047 0.123635 0
M  V30 4784 C 455.259 -0.97086 3.24592 0
M  V30 4785 C 453.818 -1.45756 3.47033 0
M  V30 4786 C 452.965 -0.413384 2.74201 0
M  V30 4787 H 455.916 0.236166 1.56933 0
M  V30 4788 H 455.937 -1.83633 3.33255 0
M  V30 4789 H 455.449 -0.0955893 3.87982 0
M  V30 4790 H 453.55 -2.35339 2.88871 0
M  V30 4791 H 453.663 -1.4781 4.55729 0
M  V30 4792 H 452.027 -0.877266 2.39115 0
M  V30 4793 H 452.81 0.453092 3.40297 0
M  V30 4794 N 455.255 -1.55392 -0.262866 0
M  V30 4795 C 456.503 -1.76127 -0.991147 0
M  V30 4796 C 456.824 -0.571083 -1.8645 0
M  V30 4797 O 456.094 0.413698 -1.91482 0
M  V30 4798 H 454.674 -0.649528 -0.368948 0
M  V30 4799 H 457.336 -1.9281 -0.284655 0
M  V30 4800 H 456.432 -2.6663 -1.62219 0
M  V30 4801 N 456.733 0.527833 -1.48498 0
M  V30 4802 C 457.981 1.28101 -1.56316 0
M  V30 4803 C 458.302 1.9352 -0.239781 0
M  V30 4804 O 457.572 1.81433 0.738849 0
M  V30 4805 H 456.152 0.475793 -0.575873 0
M  V30 4806 H 458.814 0.614052 -1.84974 0
M  V30 4807 H 457.91 2.05916 -2.34532 0
M  V30 4808 N 458.211 1.37122 0.776871 0
M  V30 4809 C 459.144 1.26835 1.89705 0
M  V30 4810 C 460.122 0.14992 1.61907 0
M  V30 4811 O 461.306 0.323242 1.85708 0
M  V30 4812 C 458.433 0.95986 3.24814 0
M  V30 4813 C 457.479 2.09447 3.7153 0
M  V30 4814 S 458.312 3.71368 3.85806 0
M  V30 4815 C 459.468 3.42659 5.23771 0
M  V30 4816 H 459.701 2.21647 1.98141 0
M  V30 4817 H 457.234 1.22685 0.937433 0
M  V30 4818 H 459.192 0.788696 4.02852 0
M  V30 4819 H 457.853 0.0293137 3.14086 0
M  V30 4820 H 457.046 1.8335 4.69467 0
M  V30 4821 H 456.648 2.2255 3.00578 0
M  V30 4822 H 458.94 2.9733 6.0877 0
M  V30 4823 H 459.883 4.39905 5.54878 0
M  V30 4824 H 460.291 2.77708 4.91466 0
M  V30 4825 N 459.689 -1.00246 1.21608 0
M  V30 4826 C 460.619 -2.10921 1.00172 0
M  V30 4827 C 461.6 -1.69938 -0.0741587 0
M  V30 4828 O 462.785 -1.94009 0.0861753 0
M  V30 4829 C 459.915 -3.42618 0.568355 0
M  V30 4830 C 458.869 -3.97407 1.58909 0
M  V30 4831 C 458.195 -5.25038 1.01187 0
M  V30 4832 C 459.495 -4.2918 2.97661 0
M  V30 4833 H 461.189 -2.29112 1.92739 0
M  V30 4834 H 458.735 -1.10101 0.928102 0
M  V30 4835 H 460.688 -4.19444 0.405555 0
M  V30 4836 H 459.412 -3.24227 -0.392961 0
M  V30 4837 H 458.071 -3.22703 1.73949 0
M  V30 4838 H 457.719 -5.02982 0.0421965 0
M  V30 4839 H 457.419 -5.62661 1.6937 0
M  V30 4840 H 458.943 -6.04507 0.860448 0
M  V30 4841 H 460.357 -4.96839 2.86049 0
M  V30 4842 H 458.754 -4.77952 3.6288 0
M  V30 4843 H 459.824 -3.3735 3.48315 0
M  V30 4844 N 461.167 -1.02423 -1.1978 0
M  V30 4845 C 462.392 -0.7373 -1.93852 0
M  V30 4846 C 462.817 0.696923 -1.74713 0
M  V30 4847 O 462.175 1.48056 -1.04638 0
M  V30 4848 C 462.223 -1.08783 -3.438 0
M  V30 4849 O 461.327 -0.20383 -4.11896 0
M  V30 4850 H 460.668 -0.27284 -0.605355 0
M  V30 4851 H 463.198 -1.36966 -1.51992 0
M  V30 4852 H 463.208 -1.04276 -3.9445 0
M  V30 4853 H 461.883 -2.13274 -3.57053 0
M  V30 4854 H 460.46 -0.307091 -3.71633 0
M  V30 4855 N 462.645 1.35699 -0.801477 0
M  V30 4856 C 463.593 2.3177 -0.196317 0
M  V30 4857 C 464.587 1.56388 0.651081 0
M  V30 4858 O 465.793 1.71557 0.544815 0
M  V30 4859 H 462.168 0.750669 -0.0447189 0
M  V30 4860 H 464.139 2.8036 -1.02181 0
M  V30 4861 C 462.888 3.41671 0.644702 0
M  V30 4862 H 462.211 3.998 0.0019921 0
M  V30 4863 H 463.651 4.11184 1.0346 0
M  V30 4864 C 462.11 2.84271 1.80808 0
M  V30 4865 O 462.64 2.77408 2.9053 0
M  V30 4866 N 460.846 2.41391 1.61799 0
M  V30 4867 H 460.393 2.47173 0.725493 0
M  V30 4868 H 460.351 2.03334 2.39797 0
M  V30 4869 N 464.123 0.554532 1.47522 0
M  V30 4870 C 465.056 -0.242442 2.26908 0
M  V30 4871 C 466.034 -0.922722 1.33883 0
M  V30 4872 O 467.218 -0.942244 1.63261 0
M  V30 4873 C 464.345 -1.34525 3.10839 0
M  V30 4874 C 463.391 -0.773805 4.19422 0
M  V30 4875 S 464.224 0.377525 5.34168 0
M  V30 4876 C 465.38 -0.727164 6.21662 0
M  V30 4877 H 465.613 0.431218 2.94156 0
M  V30 4878 H 463.146 0.3408 1.50592 0
M  V30 4879 H 465.104 -1.97683 3.59766 0
M  V30 4880 H 463.765 -1.99073 2.42958 0
M  V30 4881 H 462.958 -1.60187 4.77866 0
M  V30 4882 H 462.56 -0.218448 3.73361 0
M  V30 4883 H 464.852 -1.61992 6.57849 0
M  V30 4884 H 465.795 -0.180135 7.07871 0
M  V30 4885 H 466.203 -1.01863 5.55233 0
M  V30 4886 N 465.601 -1.54893 0.290851 0
M  V30 4887 C 466.511 -2.26812 -0.59945 0
M  V30 4888 C 467.527 -1.29963 -1.15696 0
M  V30 4889 O 468.703 -1.62928 -1.18391 0
M  V30 4890 C 465.768 -2.98716 -1.75982 0
M  V30 4891 C 464.829 -4.1108 -1.2374 0
M  V30 4892 C 464.062 -4.79546 -2.34246 0
M  V30 4893 O 464.285 -4.47309 -3.53936 0
M  V30 4894 O 463.219 -5.67165 -2.01512 0
M  V30 4895 H 467.045 -3.03696 -0.0163561 0
M  V30 4896 H 464.63 -1.49289 0.0576755 0
M  V30 4897 H 466.512 -3.43851 -2.43607 0
M  V30 4898 H 465.187 -2.24737 -2.3297 0
M  V30 4899 H 464.094 -3.70367 -0.527163 0
M  V30 4900 H 465.427 -4.87007 -0.71307 0
M  V30 4901 N 467.08 -0.0183926 -1.57589 0
M  V30 4902 C 468.305 0.676634 -1.96052 0
M  V30 4903 C 468.73 1.6548 -0.894307 0
M  V30 4904 O 468.088 1.80712 0.145849 0
M  V30 4905 C 468.136 1.36872 -3.33614 0
M  V30 4906 O 467.24 2.48372 -3.29219 0
M  V30 4907 H 466.581 0.1786 -0.63953 0
M  V30 4908 H 469.111 -0.077056 -2.04455 0
M  V30 4909 H 469.121 1.72797 -3.69601 0
M  V30 4910 H 467.796 0.651636 -4.10763 0
M  V30 4911 H 466.373 2.14639 -3.04934 0
M  V30 4912 N 468.558 1.5553 0.254621 0
M  V30 4913 C 469.49 1.86104 1.33783 0
M  V30 4914 C 470.503 0.746752 1.44663 0
M  V30 4915 O 471.692 1.0248 1.46151 0
M  V30 4916 C 468.792 2.02532 2.71724 0
M  V30 4917 C 467.965 3.33335 2.83208 0
M  V30 4918 C 467.024 3.396 4.01943 0
M  V30 4919 O 466.05 4.12862 3.91834 0
M  V30 4920 N 467.252 2.68332 5.1476 0
M  V30 4921 H 470.017 2.79605 1.07893 0
M  V30 4922 H 467.578 1.55672 0.444732 0
M  V30 4923 H 469.57 2.04074 3.4948 0
M  V30 4924 H 468.14 1.15811 2.90356 0
M  V30 4925 H 467.36 3.44176 1.92189 0
M  V30 4926 H 468.648 4.19565 2.87824 0
M  V30 4927 H 468.046 2.08528 5.25864 0
M  V30 4928 H 466.603 2.75575 5.90679 0
M  V30 4929 N 470.036 -0.519951 1.48776 0
M  V30 4930 C 470.966 -1.63253 1.66945 0
M  V30 4931 C 471.947 -1.62014 0.518224 0
M  V30 4932 O 473.132 -1.79053 0.751919 0
M  V30 4933 C 470.262 -3.0181 1.71836 0
M  V30 4934 C 469.216 -3.17911 2.8656 0
M  V30 4935 C 468.542 -4.5763 2.76548 0
M  V30 4936 C 469.842 -2.99729 4.27738 0
M  V30 4937 H 471.536 -1.48302 2.6009 0
M  V30 4938 H 469.082 -0.712026 1.25165 0
M  V30 4939 H 471.035 -3.79525 1.83135 0
M  V30 4940 H 469.759 -3.17806 0.752775 0
M  V30 4941 H 468.418 -2.42616 2.74833 0
M  V30 4942 H 468.066 -4.70476 1.77937 0
M  V30 4943 H 467.766 -4.69346 3.53536 0
M  V30 4944 H 469.29 -5.37431 2.89828 0
M  V30 4945 H 470.704 -3.67228 4.40246 0
M  V30 4946 H 469.101 -3.22932 5.05801 0
M  V30 4947 H 470.171 -1.96047 4.43502 0
M  V30 4948 N 471.514 -1.37532 -0.769588 0
M  V30 4949 C 472.93 -1.18379 -1.07045 0
M  V30 4950 C 473.13 -0.0214312 -2.01489 0
M  V30 4951 O 472.186 0.637809 -2.44312 0
M  V30 4952 C 473.499 -2.50338 -1.66588 0
M  V30 4953 C 475.047 -2.56879 -1.78835 0
M  V30 4954 C 475.522 -3.88974 -2.41792 0
M  V30 4955 N 477.013 -3.90428 -2.4924 0
M  V30 4956 C 477.748 -4.89388 -2.98809 0
M  V30 4957 N 477.244 -5.98745 -3.48535 0
M  V30 4958 N 479.037 -4.76791 -2.97703 0
M  V30 4959 H 471.188 -2.11921 -0.142541 0
M  V30 4960 H 473.451 -0.939608 -0.125863 0
M  V30 4961 H 473.157 -3.35767 -1.0466 0
M  V30 4962 H 473.031 -2.67583 -2.65856 0
M  V30 4963 H 475.418 -1.71856 -2.39895 0
M  V30 4964 H 475.499 -2.43516 -0.783166 0
M  V30 4965 H 475.143 -4.74412 -1.81371 0
M  V30 4966 H 475.073 -3.99641 -3.4292 0
M  V30 4967 H 477.564 -3.11433 -2.14052 0
M  V30 4968 H 477.877 -6.70205 -3.84767 0
M  V30 4969 H 476.222 -6.02387 -3.46634 0
M  V30 4970 H 479.413 -3.90478 -2.58157 0
M  V30 4971 H 479.586 -5.54069 -3.36024 0
M  V30 4972 N 472.992 0.995999 -1.22138 0
M  V30 4973 C 473.955 2.06711 -0.990109 0
M  V30 4974 C 474.955 1.60744 0.0422978 0
M  V30 4975 O 476.145 1.73095 -0.195895 0
M  V30 4976 C 473.277 3.37288 -0.49491 0
M  V30 4977 H 474.47 2.28661 -1.94047 0
M  V30 4978 H 472.023 1.16711 -1.03963 0
M  V30 4979 H 472.758 3.21022 0.459948 0
M  V30 4980 H 472.543 3.71986 -1.23971 0
M  V30 4981 H 474.033 4.16103 -0.353253 0
M  V30 4982 N 474.47 1.03057 1.19235 0
M  V30 4983 C 475.402 0.570932 2.21975 0
M  V30 4984 C 476.415 -0.354088 1.58903 0
M  V30 4985 O 477.604 -0.150211 1.77867 0
M  V30 4986 C 474.704 -0.187152 3.38383 0
M  V30 4987 C 473.877 0.743231 4.31039 0
M  V30 4988 C 472.936 0.0302493 5.26191 0
M  V30 4989 O 471.962 0.657371 5.65391 0
M  V30 4990 N 473.164 -1.23991 5.67104 0
M  V30 4991 H 475.929 1.45456 2.62036 0
M  V30 4992 H 473.49 0.909807 1.33918 0
M  V30 4993 H 475.482 -0.673715 3.99053 0
M  V30 4994 H 474.052 -0.972205 2.97098 0
M  V30 4995 H 473.272 1.40985 3.68126 0
M  V30 4996 H 474.56 1.3755 4.89854 0
M  V30 4997 H 473.958 -1.77011 5.37293 0
M  V30 4998 H 472.515 -1.67093 6.30018 0
M  V30 4999 N 475.948 -1.35272 0.808662 0
M  V30 5000 C 477.196 -1.98316 0.389233 0
M  V30 5001 C 477.517 -1.64465 -1.04767 0
M  V30 5002 O 476.787 -0.928175 -1.72516 0
M  V30 5003 H 475.367 -0.733585 0.140935 0
M  V30 5004 H 478.029 -1.6515 1.03496 0
M  V30 5005 H 477.125 -3.08123 0.496631 0
M  V30 5006 N 477.426 -0.562348 -1.47226 0
M  V30 5007 C 478.389 0.172056 -2.28553 0
M  V30 5008 C 479.389 0.837928 -1.37242 0
M  V30 5009 O 480.579 0.693001 -1.59822 0
M  V30 5010 C 477.711 1.25223 -3.17068 0
M  V30 5011 H 478.904 -0.542401 -2.94954 0
M  V30 5012 H 476.457 -0.319493 -1.53 0
M  V30 5013 H 477.192 1.99892 -2.55369 0
M  V30 5014 H 476.977 0.779515 -3.84273 0
M  V30 5015 H 478.467 1.76791 -3.78332 0
M  V30 5016 N 478.904 1.54736 -0.299062 0
M  V30 5017 C 479.814 2.27127 0.587413 0
M  V30 5018 C 480.83 1.30575 1.15005 0
M  V30 5019 O 482.006 1.63554 1.17525 0
M  V30 5020 C 479.071 2.99645 1.74395 0
M  V30 5021 C 478.132 4.11731 1.21559 0
M  V30 5022 C 477.365 4.80781 2.317 0
M  V30 5023 O 477.588 4.4918 3.51558 0
M  V30 5024 O 476.522 5.68226 1.98501 0
M  V30 5025 H 480.348 3.037 0.000250109 0
M  V30 5026 H 477.933 1.49256 -0.0655919 0
M  V30 5027 H 479.815 3.45138 2.4178 0
M  V30 5028 H 478.49 2.25969 2.31775 0
M  V30 5029 H 477.397 3.70641 0.507514 0
M  V30 5030 H 478.73 4.87379 0.687233 0
M  V30 5031 N 480.382 0.0267497 1.57577 0
M  V30 5032 C 481.659 -0.690926 1.82991 0
M  V30 5033 C 482.039 -1.90471 0.910164 0
M  V30 5034 O 481.387 -2.28474 -0.0347985 0
M  V30 5035 C 481.597 -1.07139 3.32148 0
M  V30 5036 C 482.945 -1.46402 3.98562 0
M  V30 5037 O 483.969 -1.16443 3.36629 0
M  V30 5038 O 482.828 -2.02214 5.07712 0
M  V30 5039 H 479.922 -0.338747 0.75444 0
M  V30 5040 H 482.468 0.0542506 1.69613 0
M  V30 5041 H 481.24 -0.207394 3.9075 0
M  V30 5042 H 480.863 -1.87481 3.50623 0
M  V30 5043 N 481.861 -1.55662 -0.24637 0
M  V30 5044 C 482.808 -1.90361 -1.30504 0
M  V30 5045 C 483.778 -0.757905 -1.47801 0
M  V30 5046 O 484.963 -1.01161 -1.61775 0
M  V30 5047 C 482.103 -2.2042 -2.65535 0
M  V30 5048 C 481.216 -3.47799 -2.56242 0
M  V30 5049 C 480.351 -3.67426 -3.8363 0
M  V30 5050 C 479.39 -4.88403 -3.68956 0
M  V30 5051 N 478.527 -5.04548 -4.88237 0
M  V30 5052 H 483.367 -2.80645 -1.00213 0
M  V30 5053 H 480.904 -1.38924 -0.483577 0
M  V30 5054 H 482.862 -2.35853 -3.44135 0
M  V30 5055 H 481.492 -1.3334 -2.93973 0
M  V30 5056 H 480.544 -3.40694 -1.69208 0
M  V30 5057 H 481.856 -4.36544 -2.4131 0
M  V30 5058 H 481.01 -3.82821 -4.70673 0
M  V30 5059 H 479.749 -2.76914 -4.01459 0
M  V30 5060 H 478.754 -4.72984 -2.80296 0
M  V30 5061 H 479.979 -5.80375 -3.52621 0
M  V30 5062 H 477.925 -4.16974 -5.06427 0
M  V30 5063 H 477.842 -5.87384 -4.75937 0
M  V30 5064 H 479.11 -5.24355 -5.76777 0
M  V30 5065 N 483.339 0.512053 -1.4905 0
M  V30 5066 C 484.272 1.63209 -1.59493 0
M  V30 5067 C 485.25 1.56407 -0.444481 0
M  V30 5068 O 486.434 1.76623 -0.658535 0
M  V30 5069 C 483.561 3.01685 -1.53961 0
M  V30 5070 C 482.607 3.26786 -2.74068 0
M  V30 5071 S 483.44 3.11107 -4.35859 0
M  V30 5072 C 484.596 4.51997 -4.32954 0
M  V30 5073 H 484.829 1.54104 -2.54243 0
M  V30 5074 H 482.362 0.696382 -1.37804 0
M  V30 5075 H 484.32 3.81538 -1.51455 0
M  V30 5076 H 482.981 3.08215 -0.605178 0
M  V30 5077 H 482.174 4.27849 -2.66386 0
M  V30 5078 H 481.776 2.54635 -2.73928 0
M  V30 5079 H 484.068 5.43871 -4.03993 0
M  V30 5080 H 485.011 4.64731 -5.34257 0
M  V30 5081 H 485.419 4.32159 -3.63178 0
M  V30 5082 N 484.817 1.37938 0.762283 0
M  V30 5083 C 486.094 1.24196 1.51112 0
M  V30 5084 C 486.474 -0.160409 2.1049 0
M  V30 5085 O 485.822 -1.16904 1.96331 0
M  V30 5086 C 486.032 2.34537 2.58445 0
M  V30 5087 C 487.38 2.7254 3.25588 0
M  V30 5088 O 488.404 2.33783 2.68745 0
M  V30 5089 O 487.263 3.39343 4.28379 0
M  V30 5090 H 484.357 0.485175 0.669727 0
M  V30 5091 H 486.903 1.49743 0.798438 0
M  V30 5092 H 485.675 3.28406 2.12756 0
M  V30 5093 H 485.298 2.10505 3.37303 0
M  V30 5094 N 486.295 -0.989507 1.22664 0
M  V30 5095 C 487.205 -2.11449 1.01619 0
M  V30 5096 C 488.221 -1.73962 -0.036545 0
M  V30 5097 O 489.397 -2.00788 0.156924 0
M  V30 5098 C 486.462 -3.41465 0.600204 0
M  V30 5099 C 485.523 -3.93033 1.72695 0
M  V30 5100 C 484.756 -5.16844 1.33071 0
M  V30 5101 O 484.979 -5.7001 0.210975 0
M  V30 5102 O 483.913 -5.6225 2.14845 0
M  V30 5103 H 487.739 -2.32088 1.9588 0
M  V30 5104 H 485.324 -1.09823 1.01289 0
M  V30 5105 H 487.206 -4.19695 0.37873 0
M  V30 5106 H 485.881 -3.22178 -0.313511 0
M  V30 5107 H 484.788 -3.15961 2.00298 0
M  V30 5108 H 486.121 -4.16758 2.61865 0
M  V30 5109 N 487.773 -1.03688 -1.18687 0
M  V30 5110 C 489.019 -0.739123 -1.88851 0
M  V30 5111 C 489.352 0.731042 -1.79915 0
M  V30 5112 O 488.627 1.53313 -1.19688 0
M  V30 5113 C 488.91 -1.20106 -3.3948 0
M  V30 5114 C 488.763 -2.73304 -3.57246 0
M  V30 5115 C 490.082 -0.788134 -4.32986 0
M  V30 5116 H 487.201 -0.269978 -0.68577 0
M  V30 5117 H 489.843 -1.28822 -1.3966 0
M  V30 5118 H 487.993 -0.733915 -3.81505 0
M  V30 5119 H 489.665 -3.28027 -3.24339 0
M  V30 5120 H 487.908 -3.13313 -3.00029 0
M  V30 5121 H 488.579 -3.00684 -4.62918 0
M  V30 5122 H 491.055 -1.19005 -3.98719 0
M  V30 5123 H 489.931 -1.13915 -5.36949 0
M  V30 5124 H 490.192 0.308988 -4.41019 0
M  V30 5125 N 489.251 1.34841 -0.815825 0
M  V30 5126 C 490.184 2.27504 -0.178062 0
M  V30 5127 C 491.162 1.48542 0.661373 0
M  V30 5128 O 492.346 1.77779 0.626653 0
M  V30 5129 C 489.473 3.30246 0.752002 0
M  V30 5130 C 488.519 4.26499 -0.00899172 0
M  V30 5131 S 489.352 5.18169 -1.35134 0
M  V30 5132 C 490.508 6.24449 -0.42596 0
M  V30 5133 H 490.741 2.81248 -0.963684 0
M  V30 5134 H 488.274 1.41781 -0.611355 0
M  V30 5135 H 490.232 3.89933 1.28308 0
M  V30 5136 H 488.893 2.75363 1.51109 0
M  V30 5137 H 488.086 4.99146 0.697766 0
M  V30 5138 H 487.688 3.7103 -0.470396 0
M  V30 5139 H 489.98 6.76404 0.385234 0
M  V30 5140 H 490.923 6.99156 -1.1219 0
M  V30 5141 H 491.331 5.64497 -0.0175461 0
M  V30 5142 N 490.729 0.570148 1.46925 0
M  V30 5143 C 491.692 -0.159933 2.28641 0
M  V30 5144 C 492.692 -0.830638 1.37685 0
M  V30 5145 O 493.882 -0.684516 1.60187 0
M  V30 5146 C 491.014 -1.2354 3.17727 0
M  V30 5147 H 492.207 0.558035 2.94662 0
M  V30 5148 H 489.76 0.327603 1.52828 0
M  V30 5149 H 490.495 -1.98535 2.56426 0
M  V30 5150 H 490.28 -0.759125 3.84681 0
M  V30 5151 H 491.77 -1.74782 3.79264 0
M  V30 5152 N 492.207 -1.54576 0.307264 0
M  V30 5153 C 493.117 -2.27435 -0.57536 0
M  V30 5154 C 494.133 -1.31183 -1.14311 0
M  V30 5155 O 495.309 -1.64175 -1.16656 0
M  V30 5156 C 492.374 -3.00566 -1.72803 0
M  V30 5157 C 491.435 -4.12369 -1.19373 0
M  V30 5158 C 490.668 -4.82003 -2.29147 0
M  V30 5159 O 490.891 -4.51038 -3.49171 0
M  V30 5160 O 489.825 -5.69271 -1.95485 0
M  V30 5161 H 493.651 -3.03696 0.0158558 0
M  V30 5162 H 491.236 -1.49219 0.0735064 0
M  V30 5163 H 493.118 -3.46416 -2.39946 0
M  V30 5164 H 491.793 -2.27195 -2.30574 0
M  V30 5165 H 490.7 -3.70905 -0.487851 0
M  V30 5166 H 492.033 -4.87736 -0.661376 0
M  V30 5167 N 493.685 -0.035106 -1.57561 0
M  V30 5168 C 494.931 0.64318 -1.92331 0
M  V30 5169 C 495.264 1.71434 -0.912368 0
M  V30 5170 O 494.539 1.94395 0.0640303 0
M  V30 5171 C 494.822 1.25411 -3.37556 0
M  V30 5172 C 494.675 0.192109 -4.4939 0
M  V30 5173 C 495.994 2.17041 -3.82859 0
M  V30 5174 H 493.113 0.232341 -0.699419 0
M  V30 5175 H 495.755 -0.0935889 -1.89769 0
M  V30 5176 H 493.905 1.88205 -3.39869 0
M  V30 5177 H 495.577 -0.438849 -4.59208 0
M  V30 5178 H 493.82 -0.481725 -4.31117 0
M  V30 5179 H 494.491 0.659292 -5.48049 0
M  V30 5180 H 496.967 1.64228 -3.8232 0
M  V30 5181 H 495.843 2.56738 -4.85157 0
M  V30 5182 H 496.104 3.06401 -3.18702 0
M  V30 5183 N 495.163 1.55791 0.238111 0
M  V30 5184 C 496.574 1.68383 0.806472 0
M  V30 5185 C 496.925 0.634157 1.85669 0
M  V30 5186 O 496.05 -0.217913 2.153 0
M  V30 5187 C 496.645 3.05268 1.46959 0
M  V30 5188 C 495.204 3.1977 1.98555 0
M  V30 5189 C 494.351 2.64279 0.839763 0
M  V30 5190 H 497.302 1.58694 0.0137535 0
M  V30 5191 H 497.323 3.00203 2.33792 0
M  V30 5192 H 496.835 3.81643 0.704993 0
M  V30 5193 H 494.936 2.48234 2.77868 0
M  V30 5194 H 495.049 4.26788 2.17689 0
M  V30 5195 H 493.413 2.22329 1.24265 0
M  V30 5196 H 494.196 3.43187 0.0881032 0
M  V30 5197 N 496.642 -0.504142 1.49319 0
M  V30 5198 C 498.058 -0.835039 1.36012 0
M  V30 5199 C 498.258 -1.97674 0.390808 0
M  V30 5200 O 497.314 -2.51867 -0.178655 0
M  V30 5201 C 498.627 -1.17821 2.76656 0
M  V30 5202 C 500.175 -1.2866 2.85334 0
M  V30 5203 C 500.65 -1.66307 4.26739 0
M  V30 5204 N 502.141 -1.73362 4.29534 0
M  V30 5205 C 502.876 -2.0393 5.35911 0
M  V30 5206 N 502.372 -2.32744 6.52535 0
M  V30 5207 N 504.165 -2.05155 5.23324 0
M  V30 5208 H 496.316 0.248764 2.10938 0
M  V30 5209 H 498.579 0.0486962 0.946748 0
M  V30 5210 H 498.285 -0.412682 3.4927 0
M  V30 5211 H 498.159 -2.12239 3.11825 0
M  V30 5212 H 500.546 -2.04285 2.1296 0
M  V30 5213 H 500.627 -0.323004 2.53752 0
M  V30 5214 H 500.271 -0.91234 4.99639 0
M  V30 5215 H 500.201 -2.63761 4.55782 0
M  V30 5216 H 502.692 -1.53268 3.45424 0
M  V30 5217 H 503.005 -2.55248 7.2943 0
M  V30 5218 H 501.35 -2.30207 6.55767 0
M  V30 5219 H 504.541 -1.82119 4.3122 0
M  V30 5220 H 504.714 -2.28644 6.06322 0
M  V30 5221 N 498.12 -1.38341 -0.754957 0
M  V30 5222 C 499.366 -1.34672 -1.51628 0
M  V30 5223 C 499.699 0.0636036 -1.94096 0
M  V30 5224 O 498.974 1.0245 -1.6533 0
M  V30 5225 C 499.257 -2.30116 -2.76981 0
M  V30 5226 C 499.11 -3.80003 -2.4066 0
M  V30 5227 C 500.429 -2.23715 -3.78998 0
M  V30 5228 H 497.548 -0.490517 -0.550056 0
M  V30 5229 H 500.19 -1.69178 -0.864807 0
M  V30 5230 H 498.34 -2.00821 -3.3257 0
M  V30 5231 H 500.012 -4.19966 -1.90856 0
M  V30 5232 H 498.255 -3.97751 -1.73137 0
M  V30 5233 H 498.926 -4.42244 -3.30339 0
M  V30 5234 H 501.402 -2.49574 -3.32945 0
M  V30 5235 H 500.278 -2.9261 -4.64403 0
M  V30 5236 H 500.539 -1.23554 -4.24484 0
M  V30 5237 N 499.598 0.982988 -1.23187 0
M  V30 5238 C 501.014 1.2487 -0.993967 0
M  V30 5239 C 501.214 1.99155 0.306498 0
M  V30 5240 O 500.27 2.30688 1.0266 0
M  V30 5241 C 501.583 2.05078 -2.19917 0
M  V30 5242 C 503.131 2.18227 -2.2438 0
M  V30 5243 C 503.606 3.01825 -3.44479 0
M  V30 5244 N 505.097 3.09411 -3.44702 0
M  V30 5245 C 505.832 3.74412 -4.34285 0
M  V30 5246 N 505.328 4.41259 -5.341 0
M  V30 5247 N 507.121 3.71273 -4.22035 0
M  V30 5248 H 499.272 0.485253 -2.06783 0
M  V30 5249 H 501.535 0.276979 -0.906635 0
M  V30 5250 H 501.241 1.57867 -3.14279 0
M  V30 5251 H 501.115 3.05829 -2.2079 0
M  V30 5252 H 503.502 2.64648 -1.30559 0
M  V30 5253 H 503.583 1.16873 -2.2754 0
M  V30 5254 H 503.227 2.56102 -4.38605 0
M  V30 5255 H 503.157 4.03342 -3.38559 0
M  V30 5256 H 505.648 2.61845 -2.7248 0
M  V30 5257 H 505.961 4.88629 -5.98717 0
M  V30 5258 H 504.306 4.39975 -5.38002 0
M  V30 5259 H 507.497 3.18217 -3.43301 0
M  V30 5260 H 507.67 4.21649 -4.92053 0
M  V30 5261 N 501.076 1.04316 1.18135 0
M  V30 5262 C 502.023 0.636398 2.21853 0
M  V30 5263 C 502.993 -0.357039 1.62217 0
M  V30 5264 O 504.178 -0.250453 1.89149 0
M  V30 5265 C 501.318 0.00812779 3.45099 0
M  V30 5266 C 500.431 1.04933 4.19062 0
M  V30 5267 C 499.566 0.389313 5.29771 0
M  V30 5268 C 498.605 1.41544 5.9551 0
M  V30 5269 N 497.742 0.78021 6.97751 0
M  V30 5270 H 502.582 1.52536 2.56002 0
M  V30 5271 H 500.119 0.76304 1.25762 0
M  V30 5272 H 502.077 -0.373497 4.15525 0
M  V30 5273 H 500.707 -0.844336 3.11562 0
M  V30 5274 H 499.759 1.54888 3.47439 0
M  V30 5275 H 501.071 1.82862 4.64072 0
M  V30 5276 H 500.225 -0.0463805 6.06682 0
M  V30 5277 H 498.964 -0.422038 4.8587 0
M  V30 5278 H 497.969 1.86124 5.17337 0
M  V30 5279 H 499.194 2.22854 6.41493 0
M  V30 5280 H 497.14 -0.0107899 6.55999 0
M  V30 5281 H 497.057 1.49716 7.41027 0
M  V30 5282 H 498.325 0.368996 7.78626 0
M  V30 5283 N 502.554 -1.34406 0.822964 0
M  V30 5284 C 503.517 -2.2783 0.250271 0
M  V30 5285 C 504.517 -1.50288 -0.571854 0
M  V30 5286 O 505.707 -1.69825 -0.387952 0
M  V30 5287 C 502.839 -3.34663 -0.649137 0
M  V30 5288 H 504.032 -2.79992 1.07444 0
M  V30 5289 H 501.585 -1.44539 0.594829 0
M  V30 5290 H 502.32 -2.87714 -1.49637 0
M  V30 5291 H 502.105 -3.92052 -0.0611199 0
M  V30 5292 H 503.595 -4.04349 -1.04363 0
M  V30 5293 N 504.032 -0.577932 -1.46621 0
M  V30 5294 C 504.995 0.147805 -2.28723 0
M  V30 5295 C 505.995 0.823325 -1.38123 0
M  V30 5296 O 507.185 0.676011 -1.60548 0
M  V30 5297 C 504.317 1.21853 -3.18378 0
M  V30 5298 H 505.51 -0.573654 -2.94362 0
M  V30 5299 H 503.063 -0.335703 -1.52652 0
M  V30 5300 H 503.798 1.97173 -2.57475 0
M  V30 5301 H 503.583 0.738714 -3.85078 0
M  V30 5302 H 505.073 1.72768 -3.80186 0
M  V30 5303 N 505.51 1.54411 -0.315457 0
M  V30 5304 C 506.758 2.00023 0.288971 0
M  V30 5305 C 507.079 1.20529 1.5329 0
M  V30 5306 O 506.349 0.304986 1.93511 0
M  V30 5307 H 504.929 0.738891 0.109766 0
M  V30 5308 H 507.591 1.90094 -0.430129 0
M  V30 5309 H 506.687 3.07198 0.550999 0
M  V30 5310 N 506.988 0.0434614 1.5754 0
M  V30 5311 C 508.235 -0.632035 1.92384 0
M  V30 5312 C 508.563 -1.71304 0.921157 0
M  V30 5313 O 507.818 -1.95583 -0.067744 0
M  V30 5314 C 508.117 -1.2738 3.3393 0
M  V30 5315 C 507.783 -0.321757 4.49751 0
M  V30 5316 C 506.445 -0.0597611 4.81163 0
M  V30 5317 C 508.797 0.331158 5.20147 0
M  V30 5318 C 506.125 0.862715 5.80322 0
M  V30 5319 C 508.477 1.24178 6.20292 0
M  V30 5320 C 507.141 1.51252 6.50138 0
M  V30 5321 H 506.411 -0.231278 0.703983 0
M  V30 5322 H 509.058 0.108294 1.91194 0
M  V30 5323 H 507.363 -2.08921 3.3145 0
M  V30 5324 H 509.06 -1.80326 3.58167 0
M  V30 5325 H 505.65 -0.53614 4.25233 0
M  V30 5326 H 509.834 0.141826 4.96097 0
M  V30 5327 H 505.09 1.08003 6.01785 0
M  V30 5328 H 509.264 1.75381 6.73954 0
M  V30 5329 H 506.891 2.22897 7.26788 0
M  V30 5330 N 508.466 -1.55915 -0.229846 0
M  V30 5331 C 509.877 -1.68809 -0.797531 0
M  V30 5332 C 510.228 -0.643995 -1.8533 0
M  V30 5333 O 509.353 0.206492 -2.15413 0
M  V30 5334 C 509.948 -3.06043 -1.45338 0
M  V30 5335 C 508.507 -3.20819 -1.96856 0
M  V30 5336 C 507.654 -2.6472 -0.825736 0
M  V30 5337 H 510.605 -1.58699 -0.00533733 0
M  V30 5338 H 510.626 -3.01438 -2.32196 0
M  V30 5339 H 510.138 -3.82012 -0.684743 0
M  V30 5340 H 508.239 -2.49704 -2.76548 0
M  V30 5341 H 508.352 -4.27937 -2.15423 0
M  V30 5342 H 506.716 -2.22985 -1.23084 0
M  V30 5343 H 507.499 -3.43229 -0.0699019 0
M  V30 5344 N 509.944 0.496216 -1.49584 0
M  V30 5345 C 511.355 1.07765 -1.52459 0
M  V30 5346 C 511.706 1.93679 -0.31353 0
M  V30 5347 O 510.831 2.08588 0.576186 0
M  V30 5348 C 511.426 1.96111 -2.76271 0
M  V30 5349 C 509.985 2.49409 -2.81908 0
M  V30 5350 C 509.132 1.27142 -2.46435 0
M  V30 5351 H 512.083 0.279914 -1.56212 0
M  V30 5352 H 512.104 2.80862 -2.56704 0
M  V30 5353 H 511.616 1.33555 -3.64396 0
M  V30 5354 H 509.717 3.1559 -1.98074 0
M  V30 5355 H 509.83 2.86234 -3.84196 0
M  V30 5356 H 508.194 1.59818 -1.98319 0
M  V30 5357 H 508.977 0.662866 -3.3684 0
M  V30 5358 N 511.423 1.38739 0.74761 0
M  V30 5359 C 512.353 1.39173 1.87492 0
M  V30 5360 C 513.334 0.256794 1.6815 0
M  V30 5361 O 514.519 0.460762 1.88655 0
M  V30 5362 C 511.649 1.22197 3.25093 0
M  V30 5363 C 510.603 2.32957 3.59047 0
M  V30 5364 C 509.929 2.01082 4.95449 0
M  V30 5365 C 511.229 3.75237 3.6331 0
M  V30 5366 H 512.923 2.3351 1.87386 0
M  V30 5367 H 510.469 1.12399 0.900134 0
M  V30 5368 H 512.422 1.21124 4.03617 0
M  V30 5369 H 511.146 0.243241 3.25693 0
M  V30 5370 H 509.805 2.33226 2.82845 0
M  V30 5371 H 509.453 1.01678 4.92616 0
M  V30 5372 H 509.153 2.75267 5.19136 0
M  V30 5373 H 510.677 2.01638 5.76346 0
M  V30 5374 H 512.091 3.76966 4.31937 0
M  V30 5375 H 510.488 4.48677 3.98509 0
M  V30 5376 H 511.558 4.07122 2.634 0
M  V30 5377 N 512.901 -0.976442 1.23707 0
M  V30 5378 C 514.147 -1.72081 1.07312 0
M  V30 5379 C 514.48 -1.90275 -0.388476 0
M  V30 5380 O 513.755 -1.4579 -1.28746 0
M  V30 5381 C 514.038 -3.11675 1.80363 0
M  V30 5382 C 513.891 -3.01027 3.3422 0
M  V30 5383 C 515.21 -4.1117 1.5693 0
M  V30 5384 H 512.329 -0.624583 0.391236 0
M  V30 5385 H 514.971 -1.13649 1.52263 0
M  V30 5386 H 513.121 -3.61559 1.42153 0
M  V30 5387 H 514.793 -2.58637 3.81975 0
M  V30 5388 H 513.036 -2.3744 3.63049 0
M  V30 5389 H 513.707 -3.9988 3.80525 0
M  V30 5390 H 516.183 -3.7011 1.90151 0
M  V30 5391 H 515.059 -5.06928 2.10513 0
M  V30 5392 H 515.32 -4.392 0.505548 0
M  V30 5393 N 514.379 -1.04941 -1.1758 0
M  V30 5394 C 515.607 -0.778294 -1.91703 0
M  V30 5395 C 516.022 0.665697 -1.76675 0
M  V30 5396 O 515.379 1.45456 -1.10222 0
M  V30 5397 C 515.43 -1.14628 -3.42845 0
M  V30 5398 O 515.151 -2.53359 -3.57409 0
M  V30 5399 C 516.652 -0.900931 -4.34049 0
M  V30 5400 H 513.872 -0.283167 -0.608323 0
M  V30 5401 H 516.416 -1.39942 -1.49119 0
M  V30 5402 H 514.571 -0.569953 -3.83184 0
M  V30 5403 H 514.985 -2.67709 -4.51035 0
M  V30 5404 H 516.459 -1.20817 -5.38616 0
M  V30 5405 H 516.936 0.163966 -4.38894 0
M  V30 5406 H 517.542 -1.46097 -3.99419 0
M  V30 5407 N 515.857 1.33968 -0.830081 0
M  V30 5408 C 517.268 1.80439 -0.479455 0
M  V30 5409 C 517.619 1.68756 1.00079 0
M  V30 5410 O 516.744 1.23171 1.77927 0
M  V30 5411 C 517.339 3.27611 -0.863505 0
M  V30 5412 C 515.898 3.72133 -0.565145 0
M  V30 5413 C 515.045 2.55549 -1.07657 0
M  V30 5414 H 517.996 1.21614 -1.0196 0
M  V30 5415 H 518.017 3.8012 -0.170083 0
M  V30 5416 H 517.529 3.36082 -1.94089 0
M  V30 5417 H 515.63 3.69196 0.502536 0
M  V30 5418 H 515.743 4.65963 -1.11422 0
M  V30 5419 H 514.107 2.49788 -0.497807 0
M  V30 5420 H 514.89 2.66786 -2.16055 0
M  V30 5421 N 517.335 0.585699 1.46312 0
M  V30 5422 C 518.56 0.0762461 2.0726 0
M  V30 5423 C 518.985 -1.22071 1.43109 0
M  V30 5424 O 518.343 -1.73804 0.515942 0
M  V30 5425 C 518.391 -0.0729404 3.60526 0
M  V30 5426 O 517.495 -1.1287 3.96654 0
M  V30 5427 H 516.836 0.0641558 0.660893 0
M  V30 5428 H 519.366 0.809492 1.87905 0
M  V30 5429 H 519.376 -0.278158 4.07051 0
M  V30 5430 H 518.051 0.874188 4.06609 0
M  V30 5431 H 516.628 -0.901703 3.61834 0
M  V30 5432 N 518.813 -1.54241 0.323641 0
M  V30 5433 C 520.038 -2.05452 -0.283605 0
M  V30 5434 C 520.463 -1.19823 -1.44997 0
M  V30 5435 O 519.821 -0.207358 -1.8011 0
M  V30 5436 C 519.869 -3.53823 -0.695795 0
M  V30 5437 O 518.973 -3.71134 -1.79815 0
M  V30 5438 H 518.314 -0.662024 -0.0511917 0
M  V30 5439 H 520.844 -1.99079 0.472073 0
M  V30 5440 H 520.854 -3.96094 -0.978434 0
M  V30 5441 H 519.529 -4.15602 0.157287 0
M  V30 5442 H 518.106 -3.40768 -1.51431 0
M  V30 5443 N 520.291 -0.0518155 -1.57515 0
M  V30 5444 C 521.223 0.951542 -2.08515 0
M  V30 5445 C 522.236 1.27436 -1.01311 0
M  V30 5446 O 523.425 1.23504 -1.28876 0
M  V30 5447 C 520.525 2.27291 -2.5138 0
M  V30 5448 C 519.698 2.13191 -3.81927 0
M  V30 5449 C 518.757 3.28458 -4.11098 0
M  V30 5450 O 517.783 3.04334 -4.81009 0
M  V30 5451 N 518.985 4.52954 -3.63061 0
M  V30 5452 H 521.75 0.516242 -2.9522 0
M  V30 5453 H 519.311 0.13441 -1.61341 0
M  V30 5454 H 521.303 3.03272 -2.67971 0
M  V30 5455 H 519.873 2.62386 -1.69919 0
M  V30 5456 H 519.093 1.21798 -3.74912 0
M  V30 5457 H 520.381 2.00999 -4.67415 0
M  V30 5458 H 519.779 4.75444 -3.06545 0
M  V30 5459 H 518.336 5.26026 -3.84889 0
M  V30 5460 N 521.769 1.56035 0.221574 0
M  V30 5461 C 523.018 1.78245 0.944016 0
M  V30 5462 C 523.331 0.620371 1.85501 0
M  V30 5463 O 524.537 0.726103 2.6161 0
M  V30 5464 C 522.993 3.15659 1.7288 0
M  V30 5465 C 522.601 4.39591 0.863942 0
M  V30 5466 C 524.345 3.47195 2.44246 0
M  V30 5467 C 522.252 5.6803 1.64607 0
M  V30 5468 H 521.182 0.664547 0.356222 0
M  V30 5469 H 523.833 1.8243 0.197904 0
M  V30 5470 H 522.215 3.0565 2.51781 0
M  V30 5471 H 523.389 4.60655 0.115464 0
M  V30 5472 H 521.704 4.15572 0.262407 0
M  V30 5473 H 524.301 4.40381 3.03263 0
M  V30 5474 H 524.644 2.69693 3.1713 0
M  V30 5475 H 525.177 3.58533 1.72334 0
M  V30 5476 H 521.916 6.48425 0.960507 0
M  V30 5477 H 521.436 5.51027 2.36917 0
M  V30 5478 H 523.115 6.08203 2.20675 0
M  V30 5479 N 523.247 -0.488276 1.49845 0
M  V30 5480 C 524.493 -1.24341 1.6021 0
M  V30 5481 C 524.826 -1.91967 0.293651 0
M  V30 5482 O 524.101 -1.81323 -0.703718 0
M  V30 5483 C 524.384 -2.3005 2.77036 0
M  V30 5484 C 524.237 -1.66842 4.17713 0
M  V30 5485 C 525.556 -3.31509 2.89464 0
M  V30 5486 H 522.675 -0.450704 0.583125 0
M  V30 5487 H 525.317 -0.539673 1.82174 0
M  V30 5488 H 523.467 -2.90071 2.58439 0
M  V30 5489 H 525.139 -1.1055 4.47858 0
M  V30 5490 H 523.382 -0.972079 4.22768 0
M  V30 5491 H 524.053 -2.43576 4.95353 0
M  V30 5492 H 526.529 -2.81493 3.06433 0
M  V30 5493 H 525.405 -4.02822 3.72861 0
M  V30 5494 H 525.666 -3.94603 1.99351 0
M  V30 5495 N 524.725 -1.39134 -0.740242 0
M  V30 5496 C 525.973 -1.35803 -1.49673 0
M  V30 5497 C 526.294 0.0470897 -1.94943 0
M  V30 5498 O 525.564 0.997347 -1.68611 0
M  V30 5499 H 524.144 -0.499736 -0.555224 0
M  V30 5500 H 526.806 -1.73947 -0.879107 0
M  V30 5501 H 525.902 -2.0174 -2.38133 0
M  V30 5502 N 526.204 0.969867 -1.24223 0
M  V30 5503 C 527.432 1.74756 -1.10761 0
M  V30 5504 C 527.847 1.85713 0.340041 0
M  V30 5505 O 527.204 1.34389 1.23474 0
M  V30 5506 C 527.255 3.16915 -1.73917 0
M  V30 5507 O 526.976 3.06511 -3.13021 0
M  V30 5508 C 528.477 4.11032 -1.66036 0
M  V30 5509 H 525.697 0.548092 -0.387087 0
M  V30 5510 H 528.241 1.2178 -1.64286 0
M  V30 5511 H 526.396 3.66884 -1.244 0
M  V30 5512 H 526.81 3.96079 -3.43834 0
M  V30 5513 H 528.284 5.08446 -2.14911 0
M  V30 5514 H 528.761 4.34785 -0.621159 0
M  V30 5515 H 529.367 3.66972 -2.14969 0
M  V30 5516 N 527.682 1.05563 1.17022 0
M  V30 5517 C 528.614 0.617888 2.20714 0
M  V30 5518 C 529.627 -0.320303 1.59618 0
M  V30 5519 O 530.816 -0.112449 1.78145 0
M  V30 5520 C 527.916 -0.115333 3.38704 0
M  V30 5521 C 527.089 0.834493 4.29366 0
M  V30 5522 C 526.148 0.141855 5.26009 0
M  V30 5523 O 525.174 0.777151 5.6387 0
M  V30 5524 N 526.376 -1.11934 5.69606 0
M  V30 5525 H 529.141 1.50981 2.58892 0
M  V30 5526 H 526.702 0.938008 1.31958 0
M  V30 5527 H 528.694 -0.588918 4.00392 0
M  V30 5528 H 527.264 -0.908967 2.99093 0
M  V30 5529 H 526.484 1.48762 3.65053 0
M  V30 5530 H 527.772 1.4791 4.86827 0
M  V30 5531 H 527.17 -1.65574 5.40927 0
M  V30 5532 H 525.727 -1.53692 6.33421 0
M  V30 5533 N 529.16 -1.33526 0.837174 0
M  V30 5534 C 530.123 -2.27551 0.274421 0
M  V30 5535 C 531.123 -1.50886 -0.555881 0
M  V30 5536 O 532.313 -1.70227 -0.369918 0
M  V30 5537 C 529.445 -3.35332 -0.613605 0
M  V30 5538 H 530.638 -2.78837 1.10408 0
M  V30 5539 H 528.191 -1.439 0.610126 0
M  V30 5540 H 528.926 -2.89285 -1.46577 0
M  V30 5541 H 528.711 -3.92095 -0.0195341 0
M  V30 5542 H 530.201 -4.05433 -1.00068 0
M  V30 5543 N 530.638 -0.59345 -1.46 0
M  V30 5544 C 531.884 -0.0832754 -2.02629 0
M  V30 5545 C 532.217 1.27749 -1.46266 0
M  V30 5546 O 531.492 1.8395 -0.631866 0
M  V30 5547 C 531.775 -0.0290756 -3.60088 0
M  V30 5548 C 531.628 -1.41951 -4.26814 0
M  V30 5549 C 532.947 0.666055 -4.35031 0
M  V30 5550 H 530.066 -0.031736 -0.736316 0
M  V30 5551 H 532.708 -0.762711 -1.74019 0
M  V30 5552 H 530.858 0.549532 -3.84594 0
M  V30 5553 H 532.53 -2.04411 -4.13538 0
M  V30 5554 H 530.773 -1.98422 -3.8576 0
M  V30 5555 H 531.444 -1.33395 -5.3564 0
M  V30 5556 H 533.92 0.174401 -4.15734 0
M  V30 5557 H 532.796 0.673041 -5.44758 0
M  V30 5558 H 533.057 1.72946 -4.06869 0
M  V30 5559 N 532.116 1.54067 -0.331816 0
M  V30 5560 C 533.363 2.00715 0.268269 0
M  V30 5561 C 533.691 1.21986 1.51491 0
M  V30 5562 O 532.946 0.292309 1.93505 0
M  V30 5563 C 533.245 3.51634 0.639392 0
M  V30 5564 C 532.911 4.48018 -0.509019 0
M  V30 5565 C 531.573 4.74089 -0.824209 0
M  V30 5566 C 533.925 5.05237 -1.28003 0
M  V30 5567 C 531.253 5.54637 -1.91298 0
M  V30 5568 C 533.605 5.86972 -2.35895 0
M  V30 5569 C 532.269 6.11342 -2.67987 0
M  V30 5570 H 531.539 0.734469 0.0981667 0
M  V30 5571 H 534.186 1.8596 -0.457304 0
M  V30 5572 H 532.491 3.6416 1.44551 0
M  V30 5573 H 534.188 3.85175 1.11539 0
M  V30 5574 H 530.778 4.27851 -0.253287 0
M  V30 5575 H 534.962 4.8507 -1.04978 0
M  V30 5576 H 530.218 5.71747 -2.16599 0
M  V30 5577 H 534.392 6.30327 -2.96076 0
M  V30 5578 H 532.019 6.73544 -3.5248 0
M  V30 5579 N 533.594 0.0601682 1.57485 0
M  V30 5580 C 534.542 -0.928899 2.13247 0
M  V30 5581 C 535.536 -1.31616 1.06647 0
M  V30 5582 O 536.742 -1.29476 1.25043 0
M  V30 5583 H 533.117 -0.317455 0.681708 0
M  V30 5584 H 535.088 -0.433566 2.95233 0
M  V30 5585 C 533.837 -2.19121 2.69965 0
M  V30 5586 H 533.16 -1.90204 3.51657 0
M  V30 5587 H 534.6 -2.86465 3.12592 0
M  V30 5588 C 533.059 -2.94195 1.64168 0
M  V30 5589 O 533.589 -3.87468 1.05978 0
M  V30 5590 N 531.795 -2.57089 1.35476 0
M  V30 5591 H 531.342 -1.81314 1.82984 0
M  V30 5592 H 531.3 -3.07624 0.649196 0
M  V30 5593 N 535.072 -1.5615 -0.213296 0
M  V30 5594 C 536.318 -1.79812 -0.937849 0
M  V30 5595 C 536.651 -0.631201 -1.83656 0
M  V30 5596 O 535.926 0.369165 -1.90964 0
M  V30 5597 C 536.209 -3.13613 -1.76972 0
M  V30 5598 C 536.062 -4.40766 -0.89695 0
M  V30 5599 C 537.381 -3.43931 -2.7459 0
M  V30 5600 H 534.5 -0.654138 -0.339518 0
M  V30 5601 H 537.142 -1.88877 -0.20623 0
M  V30 5602 H 535.292 -3.06015 -2.39347 0
M  V30 5603 H 536.964 -4.60392 -0.289306 0
M  V30 5604 H 535.207 -4.33326 -0.202756 0
M  V30 5605 H 535.878 -5.30843 -1.51358 0
M  V30 5606 H 538.354 -3.5171 -2.22349 0
M  V30 5607 H 537.23 -4.38706 -3.29891 0
M  V30 5608 H 537.491 -2.6651 -3.52739 0
M  V30 5609 N 536.55 0.480323 -1.50102 0
M  V30 5610 C 537.483 1.59789 -1.62919 0
M  V30 5611 C 538.461 1.55429 -0.477557 0
M  V30 5612 O 539.645 1.75186 -0.695851 0
M  V30 5613 C 536.772 2.98351 -1.60325 0
M  V30 5614 C 535.818 3.20899 -2.80938 0
M  V30 5615 S 536.651 3.01791 -4.4236 0
M  V30 5616 C 537.807 4.42712 -4.42444 0
M  V30 5617 H 538.04 1.48676 -2.57454 0
M  V30 5618 H 535.573 0.666996 -1.3925 0
M  V30 5619 H 537.531 3.7824 -1.59514 0
M  V30 5620 H 536.192 3.06862 -0.670419 0
M  V30 5621 H 535.385 4.22102 -2.75401 0
M  V30 5622 H 534.987 2.48768 -2.79268 0
M  V30 5623 H 537.279 5.3518 -4.15438 0
M  V30 5624 H 538.222 4.53294 -5.43995 0
M  V30 5625 H 538.63 4.24359 -3.72263 0
M  V30 5626 N 538.028 1.39524 0.732853 0
M  V30 5627 C 538.961 1.32806 1.85574 0
M  V30 5628 C 539.939 0.201354 1.61348 0
M  V30 5629 O 541.123 0.38216 1.84585 0
M  V30 5630 C 538.25 1.06271 3.21596 0
M  V30 5631 C 537.296 2.21161 3.64678 0
M  V30 5632 S 538.129 3.83454 3.73796 0
M  V30 5633 C 539.285 3.59149 5.12604 0
M  V30 5634 H 539.518 2.27838 1.9099 0
M  V30 5635 H 537.051 1.25605 0.897927 0
M  V30 5636 H 539.009 0.916461 4.00139 0
M  V30 5637 H 537.67 0.129223 3.13834 0
M  V30 5638 H 536.863 1.98193 4.63396 0
M  V30 5639 H 536.465 2.32 2.93346 0
M  V30 5640 H 538.757 3.16547 5.99003 0
M  V30 5641 H 539.7 4.57335 5.40602 0
M  V30 5642 H 540.108 2.93203 4.82382 0
M  V30 5643 N 539.506 -0.963266 1.24736 0
M  V30 5644 C 540.754 -1.70343 1.08755 0
M  V30 5645 C 541.075 -1.91387 -0.373619 0
M  V30 5646 O 540.345 -1.4948 -1.2662 0
M  V30 5647 H 538.925 -0.631224 0.399456 0
M  V30 5648 H 541.587 -1.15859 1.56725 0
M  V30 5649 H 540.683 -2.68616 1.58909 0
M  V30 5650 N 540.985 -1.06182 -1.16461 0
M  V30 5651 C 541.895 -0.682671 -2.24448 0
M  V30 5652 C 542.911 0.30078 -1.71381 0
M  V30 5653 O 544.087 0.150376 -2.00838 0
M  V30 5654 C 541.152 -0.0737202 -3.46622 0
M  V30 5655 C 540.213 -1.10889 -4.14731 0
M  V30 5656 C 539.446 -0.528908 -5.31073 0
M  V30 5657 O 539.669 0.65868 -5.66584 0
M  V30 5658 O 538.603 -1.26805 -5.88391 0
M  V30 5659 H 542.429 -1.58291 -2.59187 0
M  V30 5660 H 540.014 -0.834013 -1.23954 0
M  V30 5661 H 541.896 0.264192 -4.20571 0
M  V30 5662 H 540.571 0.800015 -3.13658 0
M  V30 5663 H 539.478 -1.49896 -3.42756 0
M  V30 5664 H 540.811 -1.95412 -4.51747 0
M  V30 5665 N 542.463 1.3308 -0.844243 0
M  V30 5666 C 543.693 2.01515 -0.455541 0
M  V30 5667 C 544.101 1.63655 0.949406 0
M  V30 5668 O 543.444 0.84848 1.62931 0
M  V30 5669 C 543.506 3.55967 -0.502801 0
M  V30 5670 C 543.17 4.17222 -1.86481 0
M  V30 5671 C 544.167 4.36205 -2.8288 0
M  V30 5672 C 541.852 4.53528 -2.15911 0
M  V30 5673 C 543.846 4.90649 -4.06869 0
M  V30 5674 C 541.533 5.07679 -3.40155 0
M  V30 5675 C 542.531 5.26186 -4.35451 0
M  V30 5676 O 542.219 5.79183 -5.57496 0
M  V30 5677 H 541.951 0.65199 -0.178565 0
M  V30 5678 H 544.505 1.70867 -1.1399 0
M  V30 5679 H 542.735 3.85965 0.23836 0
M  V30 5680 H 544.424 4.05688 -0.131169 0
M  V30 5681 H 545.19 4.085 -2.61444 0
M  V30 5682 H 541.069 4.38414 -1.42528 0
M  V30 5683 H 544.613 5.0501 -4.81259 0
M  V30 5684 H 540.51 5.34815 -3.61446 0
M  V30 5685 H 541.278 5.97591 -5.5931 0
M  V30 5686 N 543.941 0.601185 1.45683 0
M  V30 5687 C 544.888 -0.121396 2.30481 0
M  V30 5688 C 545.858 -0.866232 1.41724 0
M  V30 5689 O 547.043 -0.85324 1.70659 0
M  V30 5690 C 544.183 -1.11704 3.26521 0
M  V30 5691 C 543.296 -0.373741 4.3038 0
M  V30 5692 C 542.431 -1.35854 5.13534 0
M  V30 5693 C 541.47 -0.602689 6.09126 0
M  V30 5694 N 540.607 -1.53645 6.85082 0
M  V30 5695 H 545.447 0.607732 2.91737 0
M  V30 5696 H 542.984 0.311502 1.43764 0
M  V30 5697 H 544.942 -1.70735 3.80664 0
M  V30 5698 H 543.572 -1.81366 2.67032 0
M  V30 5699 H 542.624 0.331962 3.78949 0
M  V30 5700 H 543.936 0.2163 4.98331 0
M  V30 5701 H 543.09 -2.02111 5.72046 0
M  V30 5702 H 541.829 -1.98251 4.45587 0
M  V30 5703 H 540.834 0.0735482 5.49751 0
M  V30 5704 H 542.059 0.0161467 6.79098 0
M  V30 5705 H 540.005 -2.14819 6.1983 0
M  V30 5706 H 539.922 -0.999688 7.49361 0
M  V30 5707 H 541.19 -2.1888 7.48139 0
M  V30 5708 N 545.419 -1.53889 0.339982 0
M  V30 5709 C 546.835 -1.59595 -0.0120752 0
M  V30 5710 C 547.035 -1.35605 -1.49042 0
M  V30 5711 O 546.091 -1.14856 -2.24865 0
M  V30 5712 C 547.404 -2.9774 0.420898 0
M  V30 5713 C 548.952 -3.1077 0.37294 0
M  V30 5714 C 549.427 -4.51286 0.781327 0
M  V30 5715 N 550.918 -4.57325 0.735374 0
M  V30 5716 C 551.653 -5.64194 1.02336 0
M  V30 5717 N 551.149 -6.7893 1.37933 0
M  V30 5718 N 552.942 -5.54051 0.947838 0
M  V30 5719 H 545.093 -1.67738 1.30299 0
M  V30 5720 H 547.356 -0.785385 0.530918 0
M  V30 5721 H 547.062 -3.20349 1.45152 0
M  V30 5722 H 546.936 -3.76639 -0.205721 0
M  V30 5723 H 549.323 -2.87886 -0.648505 0
M  V30 5724 H 549.404 -2.33939 1.03472 0
M  V30 5725 H 549.048 -4.74905 1.80077 0
M  V30 5726 H 548.978 -5.26511 0.0970679 0
M  V30 5727 H 551.469 -3.74931 0.472773 0
M  V30 5728 H 551.782 -7.56392 1.58402 0
M  V30 5729 H 550.127 -6.80386 1.41774 0
M  V30 5730 H 553.318 -4.63293 0.669115 0
M  V30 5731 H 553.491 -6.37246 1.17563 0
M  V30 5732 N 546.897 -0.0685191 -1.57451 0
M  V30 5733 C 547.83 0.935736 -2.08133 0
M  V30 5734 C 548.808 1.29317 -0.985698 0
M  V30 5735 O 549.992 1.40304 -1.25886 0
M  V30 5736 C 547.119 2.2448 -2.53627 0
M  V30 5737 C 546.165 2.03917 -3.74593 0
M  V30 5738 S 546.998 1.30154 -5.19442 0
M  V30 5739 C 548.154 2.62346 -5.68265 0
M  V30 5740 H 548.387 0.504473 -2.92989 0
M  V30 5741 H 545.92 0.144169 -1.53725 0
M  V30 5742 H 547.878 2.99718 -2.80499 0
M  V30 5743 H 546.539 2.64731 -1.69045 0
M  V30 5744 H 545.732 3.00788 -4.04404 0
M  V30 5745 H 545.334 1.36815 -3.48077 0
M  V30 5746 H 547.626 3.58448 -5.7491 0
M  V30 5747 H 548.569 2.3715 -6.67207 0
M  V30 5748 H 548.977 2.69401 -4.96068 0
M  V30 5749 N 548.375 1.56261 0.205012 0
M  V30 5750 C 549.603 1.84141 0.943386 0
M  V30 5751 C 550.018 0.649772 1.77266 0
M  V30 5752 O 549.375 -0.381612 1.78466 0
M  V30 5753 C 549.426 3.10719 1.84759 0
M  V30 5754 O 549.147 4.25286 1.05181 0
M  V30 5755 C 550.648 3.51706 2.69848 0
M  V30 5756 H 547.868 0.611734 0.275721 0
M  V30 5757 H 550.412 2.03364 0.215253 0
M  V30 5758 H 548.567 2.93422 2.52947 0
M  V30 5759 H 548.981 4.97301 1.66709 0
M  V30 5760 H 550.455 4.43266 3.28967 0
M  V30 5761 H 550.932 2.7423 3.43067 0
M  V30 5762 H 551.538 3.71499 2.07047 0
M  V30 5763 N 549.853 -0.472356 1.50355 0
M  V30 5764 C 551.101 -1.22211 1.60962 0
M  V30 5765 C 551.422 -1.92497 0.311439 0
M  V30 5766 O 550.692 -1.8405 -0.671002 0
M  V30 5767 H 549.272 -0.454092 0.593135 0
M  V30 5768 H 551.934 -0.544977 1.87126 0
M  V30 5769 H 551.03 -1.9707 2.42012 0
M  V30 5770 N 551.331 -1.39911 -0.725443 0
M  V30 5771 C 552.241 -1.41688 -1.8698 0
M  V30 5772 C 553.257 -0.310579 -1.71206 0
M  V30 5773 O 554.433 -0.55359 -1.93642 0
M  V30 5774 C 551.498 -1.26811 -3.22676 0
M  V30 5775 C 550.559 -2.47497 -3.50776 0
M  V30 5776 C 549.792 -2.3332 -4.79997 0
M  V30 5777 O 550.015 -1.34175 -5.54394 0
M  V30 5778 O 548.949 -3.22498 -5.08211 0
M  V30 5779 H 552.775 -2.38171 -1.88436 0
M  V30 5780 H 550.36 -1.21128 -0.874548 0
M  V30 5781 H 552.242 -1.20684 -4.03749 0
M  V30 5782 H 550.917 -0.334289 -3.21969 0
M  V30 5783 H 549.824 -2.59201 -2.69751 0
M  V30 5784 H 551.157 -3.39606 -3.5627 0
M  V30 5785 N 552.809 0.956637 -1.25245 0
M  V30 5786 C 554.056 1.701 -1.09874 0
M  V30 5787 C 554.384 1.91128 0.36062 0
M  V30 5788 O 553.639 1.47837 1.28229 0
M  V30 5789 C 553.938 3.08996 -1.79601 0
M  V30 5790 C 553.604 3.07774 -3.29523 0
M  V30 5791 C 552.266 3.07149 -3.70423 0
M  V30 5792 C 554.618 3.01257 -4.25316 0
M  V30 5793 C 551.946 2.97752 -5.0553 0
M  V30 5794 C 554.298 2.93403 -5.60444 0
M  V30 5795 C 552.962 2.91111 -6.00675 0
M  V30 5796 H 552.232 0.62244 -0.402056 0
M  V30 5797 H 554.879 1.1178 -1.55491 0
M  V30 5798 H 553.184 3.70848 -1.26408 0
M  V30 5799 H 554.881 3.65407 -1.65162 0
M  V30 5800 H 551.471 3.09032 -2.9698 0
M  V30 5801 H 555.655 3.00861 -3.9471 0
M  V30 5802 H 550.911 2.94346 -5.35883 0
M  V30 5803 H 555.085 2.87321 -6.34366 0
M  V30 5804 H 552.712 2.83586 -7.05325 0
M  V30 5805 N 554.287 1.06798 1.15896 0
M  V30 5806 C 555.25 0.687328 2.18651 0
M  V30 5807 C 556.25 -0.269559 1.58524 0
M  V30 5808 O 557.44 -0.0512627 1.74125 0
M  V30 5809 C 554.572 0.0121642 3.40898 0
M  V30 5810 H 555.765 1.59701 2.53842 0
M  V30 5811 H 553.318 0.863828 1.3026 0
M  V30 5812 H 554.053 -0.910025 3.1127 0
M  V30 5813 H 553.838 0.700309 3.85795 0
M  V30 5814 H 555.328 -0.239703 4.16911 0
M  V30 5815 N 555.766 -1.3263 0.851289 0
M  V30 5816 C 557.043 -1.91982 0.374448 0
M  V30 5817 C 557.423 -1.77568 -1.14161 0
M  V30 5818 O 556.771 -1.1717 -1.96172 0
M  V30 5819 C 556.981 -3.38862 0.835088 0
M  V30 5820 C 558.329 -4.15999 0.850309 0
M  V30 5821 O 559.353 -3.47566 0.779505 0
M  V30 5822 O 558.212 -5.38189 0.949481 0
M  V30 5823 H 555.306 -0.819846 0.10854 0
M  V30 5824 H 557.852 -1.41422 0.937966 0
M  V30 5825 H 556.624 -3.43281 1.87814 0
M  V30 5826 H 556.247 -3.96821 0.248833 0
M  V30 5827 N 557.244 -0.608902 -1.45362 0
M  V30 5828 C 558.493 -0.10218 -2.01441 0
M  V30 5829 C 558.806 1.27546 -1.48295 0
M  V30 5830 O 560.012 1.87498 -1.96359 0
M  V30 5831 C 558.468 -0.131985 -3.59658 0
M  V30 5832 C 558.076 -1.50956 -4.21801 0
M  V30 5833 C 559.82 0.319427 -4.23296 0
M  V30 5834 C 557.727 -1.49568 -5.72174 0
M  V30 5835 H 556.657 -0.0344314 -0.753213 0
M  V30 5836 H 559.308 -0.764426 -1.6682 0
M  V30 5837 H 557.69 0.596939 -3.91475 0
M  V30 5838 H 558.864 -2.26029 -4.01556 0
M  V30 5839 H 557.179 -1.90318 -3.70362 0
M  V30 5840 H 559.776 0.349013 -5.3356 0
M  V30 5841 H 560.119 1.34237 -3.94064 0
M  V30 5842 H 560.652 -0.356273 -3.96201 0
M  V30 5843 H 557.391 -2.49626 -6.06108 0
M  V30 5844 H 556.911 -0.787542 -5.94607 0
M  V30 5845 H 558.59 -1.21989 -6.35396 0
M  V30 5846 N 558.722 1.53707 -0.348139 0
M  V30 5847 C 559.655 2.21481 0.549667 0
M  V30 5848 C 560.633 1.20046 1.09671 0
M  V30 5849 O 561.817 1.48883 1.15612 0
M  V30 5850 C 558.944 2.89585 1.75664 0
M  V30 5851 C 557.99 4.04948 1.33864 0
M  V30 5852 S 558.823 5.34325 0.354577 0
M  V30 5853 C 559.979 6.05934 1.56828 0
M  V30 5854 H 560.212 2.97289 -0.0259755 0
M  V30 5855 H 557.745 1.53833 -0.132216 0
M  V30 5856 H 559.703 3.29441 2.44906 0
M  V30 5857 H 558.364 2.13535 2.30351 0
M  V30 5858 H 557.557 4.51552 2.23868 0
M  V30 5859 H 557.159 3.66893 0.725651 0
M  V30 5860 H 559.451 6.29606 2.50205 0
M  V30 5861 H 560.394 6.98799 1.14395 0
M  V30 5862 H 560.802 5.36151 1.76642 0
M  V30 5863 N 560.2 0.0768682 1.57412 0
M  V30 5864 C 561.13 -0.886026 2.16037 0
M  V30 5865 C 562.111 -1.30691 1.08876 0
M  V30 5866 O 563.296 -1.37705 1.36934 0
M  V30 5867 C 560.426 -2.1518 2.72608 0
M  V30 5868 C 559.38 -1.87015 3.8498 0
M  V30 5869 C 558.706 -3.20266 4.28175 0
M  V30 5870 C 560.006 -1.17143 5.08994 0
M  V30 5871 H 561.7 -0.397642 2.96748 0
M  V30 5872 H 559.246 -0.189823 1.42743 0
M  V30 5873 H 561.199 -2.82962 3.12266 0
M  V30 5874 H 559.923 -2.66269 1.89125 0
M  V30 5875 H 558.582 -1.21636 3.45833 0
M  V30 5876 H 558.23 -3.69207 3.41607 0
M  V30 5877 H 557.93 -3.0221 5.03927 0
M  V30 5878 H 559.454 -3.89237 4.70454 0
M  V30 5879 H 560.868 -1.75003 5.45937 0
M  V30 5880 H 559.265 -1.09328 5.90057 0
M  V30 5881 H 560.335 -0.151295 4.84664 0
M  V30 5882 N 561.678 -1.56367 -0.196722 0
M  V30 5883 C 562.926 -1.80172 -0.915554 0
M  V30 5884 C 563.247 -0.649649 -1.8386 0
M  V30 5885 O 562.517 0.332111 -1.93064 0
M  V30 5886 H 561.097 -0.664592 -0.341067 0
M  V30 5887 H 563.759 -1.93844 -0.202622 0
M  V30 5888 H 562.855 -2.7327 -1.50764 0
M  V30 5889 N 563.156 0.464375 -1.50603 0
M  V30 5890 C 564.386 1.23727 -1.65454 0
M  V30 5891 C 564.794 1.86119 -0.340032 0
M  V30 5892 O 564.137 1.70301 0.688706 0
M  V30 5893 C 564.199 2.38153 -2.69301 0
M  V30 5894 C 563.863 1.96345 -4.12671 0
M  V30 5895 C 564.86 1.48215 -4.98326 0
M  V30 5896 C 562.545 2.04861 -4.58625 0
M  V30 5897 C 564.539 1.09152 -6.27985 0
M  V30 5898 C 562.226 1.65409 -5.88288 0
M  V30 5899 C 563.224 1.17634 -6.72794 0
M  V30 5900 O 562.912 0.787312 -8.00035 0
M  V30 5901 H 562.644 0.380075 -0.559034 0
M  V30 5902 H 565.198 0.559919 -1.97621 0
M  V30 5903 H 563.428 3.09081 -2.32392 0
M  V30 5904 H 565.117 3.00099 -2.73304 0
M  V30 5905 H 565.883 1.41052 -4.64036 0
M  V30 5906 H 561.762 2.40996 -3.92991 0
M  V30 5907 H 565.306 0.717909 -6.93896 0
M  V30 5908 H 561.203 1.72233 -6.22098 0
M  V30 5909 H 561.971 0.915567 -8.13363 0
M  V30 5910 N 564.634 1.40294 0.718013 0
M  V30 5911 C 565.864 1.41544 1.50495 0
M  V30 5912 C 566.272 0.0127877 1.89196 0
M  V30 5913 O 565.615 -0.97305 1.55812 0
M  V30 5914 C 565.677 2.24021 2.81167 0
M  V30 5915 C 565.341 3.72463 2.64803 0
M  V30 5916 C 566.338 4.65154 2.32223 0
M  V30 5917 C 564.023 4.1625 2.81143 0
M  V30 5918 C 566.017 5.99618 2.16189 0
M  V30 5919 C 563.704 5.50784 2.64727 0
M  V30 5920 C 564.702 6.42283 2.32297 0
M  V30 5921 O 564.39 7.74337 2.16004 0
M  V30 5922 H 564.122 0.484819 0.471091 0
M  V30 5923 H 566.676 1.84948 0.893488 0
M  V30 5924 H 564.906 1.75393 3.44636 0
M  V30 5925 H 566.595 2.17243 3.42871 0
M  V30 5926 H 567.361 4.32622 2.19234 0
M  V30 5927 H 563.24 3.45352 3.05373 0
M  V30 5928 H 566.784 6.71 1.90799 0
M  V30 5929 H 562.681 5.82902 2.773 0
M  V30 5930 H 563.449 7.85244 2.30942 0
M  V30 5931 N 566.112 -0.949982 1.2575 0
M  V30 5932 C 567.36 -1.6918 1.10555 0
M  V30 5933 C 567.681 -1.91773 -0.353298 0
M  V30 5934 O 566.951 -1.50814 -1.25027 0
M  V30 5935 H 565.531 -0.626952 0.406129 0
M  V30 5936 H 568.193 -1.1419 1.57945 0
M  V30 5937 H 567.289 -2.66915 1.61749 0
M  V30 5938 N 567.59 -1.07411 -1.15328 0
M  V30 5939 C 568.553 -0.698914 -2.18284 0
M  V30 5940 C 569.553 0.261149 -1.58665 0
M  V30 5941 O 570.743 0.0420277 -1.74149 0
M  V30 5942 C 567.875 -0.0302427 -3.40887 0
M  V30 5943 H 569.068 -1.61045 -2.52991 0
M  V30 5944 H 566.621 -0.870724 -1.298 0
M  V30 5945 H 567.356 0.893505 -3.11748 0
M  V30 5946 H 567.141 -0.720759 -3.85419 0
M  V30 5947 H 568.631 0.21759 -4.17033 0
M  V30 5948 N 569.068 1.32177 -0.85831 0
M  V30 5949 C 570.293 2.01847 -0.476718 0
M  V30 5950 C 570.718 1.64065 0.920021 0
M  V30 5951 O 570.076 0.843189 1.60499 0
M  V30 5952 C 570.124 3.55097 -0.627578 0
M  V30 5953 O 569.228 4.11012 0.338086 0
M  V30 5954 H 568.569 0.635907 -0.191099 0
M  V30 5955 H 571.099 1.68641 -1.15851 0
M  V30 5956 H 571.109 4.04718 -0.516476 0
M  V30 5957 H 569.784 3.81938 -1.64609 0
M  V30 5958 H 568.361 3.72451 0.182917 0
M  V30 5959 N 570.547 0.616602 1.45037 0
M  V30 5960 C 571.958 0.199359 1.85633 0
M  V30 5961 C 572.309 -1.24588 1.51566 0
M  V30 5962 O 571.434 -1.94594 0.94668 0
M  V30 5963 C 572.029 0.355033 3.36935 0
M  V30 5964 C 570.588 -0.00758748 3.76399 0
M  V30 5965 C 569.735 0.675256 2.68953 0
M  V30 5966 H 572.686 0.822708 1.3571 0
M  V30 5967 H 572.707 -0.410201 3.78282 0
M  V30 5968 H 572.219 1.40699 3.61698 0
M  V30 5969 H 570.32 -1.05837 3.57252 0
M  V30 5970 H 570.433 0.392346 4.77491 0
M  V30 5971 H 568.797 0.111992 2.54454 0
M  V30 5972 H 569.58 1.72952 2.96551 0
M  V30 5973 N 572.025 -1.5352 0.356285 0
M  V30 5974 C 572.988 -2.24071 -0.482182 0
M  V30 5975 C 573.988 -1.24531 -1.01729 0
M  V30 5976 O 575.178 -1.48876 -0.904513 0
M  V30 5977 C 572.31 -2.97025 -1.67299 0
M  V30 5978 H 573.503 -2.99596 0.135031 0
M  V30 5979 H 571.056 -1.55928 0.107825 0
M  V30 5980 H 571.791 -2.25719 -2.32855 0
M  V30 5981 H 571.576 -3.7005 -1.29636 0
M  V30 5982 H 573.066 -3.50683 -2.26741 0
M  V30 5983 N 573.503 -0.0852151 -1.57369 0
M  V30 5984 C 574.78 0.622534 -1.85429 0
M  V30 5985 C 575.16 1.86962 -0.980229 0
M  V30 5986 O 574.508 2.28445 -0.0500219 0
M  V30 5987 C 574.718 0.947374 -3.35896 0
M  V30 5988 C 576.066 1.31509 -4.03721 0
M  V30 5989 O 577.09 1.03869 -3.40719 0
M  V30 5990 O 575.949 1.83231 -5.14868 0
M  V30 5991 H 573.043 0.310513 -0.766492 0
M  V30 5992 H 575.589 -0.117164 -1.69295 0
M  V30 5993 H 574.361 0.0622264 -3.91251 0
M  V30 5994 H 573.984 1.74338 -3.5734 0
M  V30 5995 N 574.981 1.5647 0.188427 0
M  V30 5996 C 576.397 1.50204 0.539532 0
M  V30 5997 C 576.597 0.78644 1.85519 0
M  V30 5998 O 575.653 0.339714 2.50204 0
M  V30 5999 C 576.966 2.94893 0.588103 0
M  V30 6000 C 578.514 3.05602 0.67648 0
M  V30 6001 C 578.989 4.51716 0.756101 0
M  V30 6002 N 580.48 4.55894 0.819451 0
M  V30 6003 C 581.215 5.66272 0.90134 0
M  V30 6004 N 580.711 6.86323 0.945118 0
M  V30 6005 N 582.504 5.54201 0.939043 0
M  V30 6006 H 574.655 2.01406 -0.674493 0
M  V30 6007 H 576.918 0.916828 -0.241103 0
M  V30 6008 H 576.624 3.50334 -0.309633 0
M  V30 6009 H 576.498 3.4861 1.44051 0
M  V30 6010 H 578.885 2.50206 1.56465 0
M  V30 6011 H 578.966 2.54999 -0.202262 0
M  V30 6012 H 578.61 5.07739 -0.12774 0
M  V30 6013 H 578.54 5.00058 1.65074 0
M  V30 6014 H 581.031 3.69452 0.794594 0
M  V30 6015 H 581.344 7.66194 1.0083 0
M  V30 6016 H 579.689 6.88968 0.913683 0
M  V30 6017 H 582.88 4.59333 0.901725 0
M  V30 6018 H 583.053 6.40247 0.999402 0
M  V30 6019 N 576.459 -0.456382 1.50847 0
M  V30 6020 C 577.736 -1.21739 1.53098 0
M  V30 6021 C 578.116 -2.09179 0.284132 0
M  V30 6022 O 577.464 -2.16466 -0.731773 0
M  V30 6023 C 577.674 -2.03573 2.83477 0
M  V30 6024 C 579.022 -2.61264 3.34703 0
M  V30 6025 O 580.046 -2.13802 2.84898 0
M  V30 6026 O 578.905 -3.47779 4.21559 0
M  V30 6027 H 575.999 -0.553219 0.614718 0
M  V30 6028 H 578.545 -0.467003 1.63148 0
M  V30 6029 H 577.317 -1.39232 3.65691 0
M  V30 6030 H 576.94 -2.85716 2.76499 0
M  V30 6031 N 577.937 -1.40673 -0.710563 0
M  V30 6032 C 579.348 -1.34975 -1.28991 0
M  V30 6033 C 579.699 -0.0256272 -1.96183 0
M  V30 6034 O 578.824 0.876339 -1.97862 0
M  V30 6035 C 579.419 -2.44467 -2.34567 0
M  V30 6036 C 577.978 -2.42213 -2.88114 0
M  V30 6037 C 577.125 -2.25085 -1.61963 0
M  V30 6038 H 580.076 -1.50406 -0.506343 0
M  V30 6039 H 580.097 -2.12663 -3.15523 0
M  V30 6040 H 579.609 -3.40825 -1.85634 0
M  V30 6041 H 577.71 -1.49568 -3.41263 0
M  V30 6042 H 577.823 -3.37983 -3.39565 0
M  V30 6043 H 576.187 -1.72691 -1.87216 0
M  V30 6044 H 576.97 -3.23449 -1.15047 0
M  V30 6045 N 579.415 0.9433 -1.26252 0
M  V30 6046 C 580.362 2.0417 -1.07625 0
M  V30 6047 C 581.332 1.6609 0.0180738 0
M  V30 6048 O 582.517 1.90276 -0.141289 0
M  V30 6049 C 579.657 3.37653 -0.713043 0
M  V30 6050 C 578.77 3.88783 -1.8834 0
M  V30 6051 C 577.905 5.10642 -1.4635 0
M  V30 6052 C 576.944 5.54028 -2.60229 0
M  V30 6053 N 576.081 6.67092 -2.18936 0
M  V30 6054 H 580.921 2.19436 -2.01623 0
M  V30 6055 H 578.458 1.07519 -1.00389 0
M  V30 6056 H 580.416 4.14391 -0.483358 0
M  V30 6057 H 579.046 3.22241 0.18996 0
M  V30 6058 H 578.098 3.08464 -2.22608 0
M  V30 6059 H 579.41 4.16922 -2.73821 0
M  V30 6060 H 578.564 5.94832 -1.19414 0
M  V30 6061 H 577.303 4.84244 -0.579568 0
M  V30 6062 H 576.308 4.68396 -2.87898 0
M  V30 6063 H 577.533 5.82429 -3.49219 0
M  V30 6064 H 575.479 6.42381 -1.32974 0
M  V30 6065 H 575.396 6.94806 -2.97961 0
M  V30 6066 H 576.664 7.54662 -1.95206 0
M  V30 6067 N 580.893 1.08022 1.14757 0
M  V30 6068 C 582.139 0.808705 1.85978 0
M  V30 6069 C 582.472 -0.663764 1.82504 0
M  V30 6070 O 581.747 -1.48765 1.25296 0
M  V30 6071 C 582.03 1.32623 3.34788 0
M  V30 6072 C 581.883 2.86375 3.46856 0
M  V30 6073 C 583.202 0.948291 4.29762 0
M  V30 6074 H 580.321 0.295244 0.675278 0
M  V30 6075 H 582.963 1.33917 1.34783 0
M  V30 6076 H 581.113 0.875002 3.78518 0
M  V30 6077 H 582.785 3.39839 3.11941 0
M  V30 6078 H 581.028 3.24232 2.88194 0
M  V30 6079 H 581.699 3.17658 4.51439 0
M  V30 6080 H 584.175 1.33722 3.94028 0
M  V30 6081 H 583.051 1.33765 5.32352 0
M  V30 6082 H 583.312 -0.145094 4.41862 0
M  V30 6083 N 582.371 -1.3172 0.865308 0
M  V30 6084 C 583.617 -1.97168 0.474633 0
M  V30 6085 C 583.95 -1.68263 -0.969604 0
M  V30 6086 O 583.225 -0.976588 -1.68205 0
M  V30 6087 C 583.508 -3.52689 0.726808 0
M  V30 6088 C 583.361 -3.91185 2.22024 0
M  V30 6089 C 584.68 -4.39689 0.190201 0
M  V30 6090 H 581.799 -0.716185 0.17392 0
M  V30 6091 H 584.441 -1.55925 1.08569 0
M  V30 6092 H 582.591 -3.8795 0.206705 0
M  V30 6093 H 584.263 -3.66049 2.80724 0
M  V30 6094 H 582.506 -3.3996 2.69462 0
M  V30 6095 H 583.177 -4.99604 2.34735 0
M  V30 6096 H 585.653 -4.11225 0.635103 0
M  V30 6097 H 584.529 -5.47469 0.396132 0
M  V30 6098 H 584.79 -4.32683 -0.907625 0
M  V30 6099 N 583.85 -0.624285 -1.44708 0
M  V30 6100 C 584.797 0.0847135 -2.30644 0
M  V30 6101 C 585.767 0.843575 -1.43084 0
M  V30 6102 O 586.952 0.825982 -1.71995 0
M  V30 6103 C 584.091 1.06495 -3.28257 0
M  V30 6104 C 583.205 0.305224 -4.3092 0
M  V30 6105 C 582.34 1.27667 -5.1563 0
M  V30 6106 C 581.379 0.505706 -6.10007 0
M  V30 6107 N 580.516 1.42727 -6.8744 0
M  V30 6108 H 585.356 -0.654068 -2.90733 0
M  V30 6109 H 582.893 -0.334334 -1.4325 0
M  V30 6110 H 584.851 1.64658 -3.83332 0
M  V30 6111 H 583.481 1.77094 -2.69884 0
M  V30 6112 H 582.533 -0.392207 -3.78373 0
M  V30 6113 H 583.845 -0.295553 -4.97924 0
M  V30 6114 H 582.999 1.92984 -5.75189 0
M  V30 6115 H 581.738 1.91137 -4.48685 0
M  V30 6116 H 580.743 -0.160999 -5.49564 0
M  V30 6117 H 581.968 -0.124183 -6.78986 0
M  V30 6118 H 579.913 2.04931 -6.23169 0
M  V30 6119 H 579.831 0.880345 -7.50857 0
M  V30 6120 H 581.099 2.0695 -7.51526 0
M  V30 6121 N 585.328 1.53329 -0.364422 0
M  V30 6122 C 586.258 2.28627 0.474543 0
M  V30 6123 C 587.239 1.31009 1.08492 0
M  V30 6124 O 588.424 1.59878 1.10239 0
M  V30 6125 C 585.554 3.07465 1.61501 0
M  V30 6126 C 584.508 4.1276 1.13194 0
M  V30 6127 C 583.834 4.79674 2.36255 0
M  V30 6128 C 585.134 5.21847 0.217507 0
M  V30 6129 H 586.828 2.99005 -0.153656 0
M  V30 6130 H 584.374 1.43803 -0.0753406 0
M  V30 6131 H 586.327 3.58889 2.20855 0
M  V30 6132 H 585.051 2.34775 2.27042 0
M  V30 6133 H 583.71 3.62281 0.56109 0
M  V30 6134 H 583.358 4.03557 3.00251 0
M  V30 6135 H 583.058 5.50827 2.04606 0
M  V30 6136 H 584.582 5.33892 2.96297 0
M  V30 6137 H 585.996 5.6878 0.718493 0
M  V30 6138 H 584.393 6.00099 -0.00806408 0
M  V30 6139 H 585.463 4.7921 -0.740653 0
M  V30 6140 N 586.806 0.0935595 1.57322 0
M  V30 6141 C 587.769 -0.851426 2.12799 0
M  V30 6142 C 588.769 -1.21187 1.0569 0
M  V30 6143 O 589.959 -1.14156 1.31583 0
M  V30 6144 C 587.091 -2.14779 2.64731 0
M  V30 6145 H 588.284 -0.369733 2.97612 0
M  V30 6146 H 585.837 -0.155417 1.55525 0
M  V30 6147 H 586.572 -2.67437 1.83434 0
M  V30 6148 H 586.357 -1.89907 3.43042 0
M  V30 6149 H 587.847 -2.82383 3.07651 0
M  V30 6150 N 588.284 -1.56567 -0.180126 0
M  V30 6151 C 589.194 -1.98947 -1.24327 0
M  V30 6152 C 590.21 -0.899446 -1.4895 0
M  V30 6153 O 591.386 -1.20639 -1.61271 0
M  V30 6154 C 588.451 -2.33328 -2.56435 0
M  V30 6155 C 587.512 -3.56114 -2.39752 0
M  V30 6156 C 586.745 -3.88845 -3.65561 0
M  V30 6157 O 586.968 -3.22662 -4.70368 0
M  V30 6158 O 585.902 -4.82226 -3.60197 0
M  V30 6159 H 589.728 -2.89634 -0.913565 0
M  V30 6160 H 587.313 -1.44319 -0.386306 0
M  V30 6161 H 589.195 -2.5645 -3.34382 0
M  V30 6162 H 587.87 -1.45806 -2.89002 0
M  V30 6163 H 586.777 -3.38221 -1.59866 0
M  V30 6164 H 588.11 -4.4415 -2.12113 0
M  V30 6165 N 589.762 0.448376 -1.51087 0
M  V30 6166 C 590.672 1.56882 -1.74428 0
M  V30 6167 C 591.688 1.62268 -0.62809 0
M  V30 6168 O 592.864 1.79716 -0.909075 0
M  V30 6169 C 589.929 2.92947 -1.85426 0
M  V30 6170 C 588.99 2.97766 -3.09247 0
M  V30 6171 C 588.223 4.27341 -3.19711 0
M  V30 6172 O 588.446 5.19112 -2.36387 0
M  V30 6173 O 587.38 4.38219 -4.12611 0
M  V30 6174 H 591.206 1.40104 -2.69452 0
M  V30 6175 H 588.791 0.630247 -1.35456 0
M  V30 6176 H 590.673 3.73719 -1.94709 0
M  V30 6177 H 589.348 3.09876 -0.935887 0
M  V30 6178 H 588.255 2.15989 -3.0545 0
M  V30 6179 H 589.588 2.8578 -4.00738 0
M  V30 6180 N 591.24 1.41047 0.703093 0
M  V30 6181 C 592.172 1.38228 1.82827 0
M  V30 6182 C 593.185 0.285637 1.60275 0
M  V30 6183 O 594.374 0.54685 1.69917 0
M  V30 6184 C 591.474 1.13136 3.19458 0
M  V30 6185 C 590.647 2.34695 3.69103 0
M  V30 6186 C 589.706 2.05574 4.84382 0
M  V30 6187 O 588.732 2.78549 4.96386 0
M  V30 6188 N 589.934 1.04135 5.71083 0
M  V30 6189 H 592.699 2.35203 1.85741 0
M  V30 6190 H 590.26 1.35562 0.885125 0
M  V30 6191 H 592.252 0.916183 3.94193 0
M  V30 6192 H 590.822 0.247836 3.11616 0
M  V30 6193 H 590.042 2.71963 2.85359 0
M  V30 6194 H 591.33 3.15705 3.99009 0
M  V30 6195 H 590.728 0.43722 5.64008 0
M  V30 6196 H 589.285 0.886078 6.45749 0
M  V30 6197 N 592.718 -0.936591 1.26751 0
M  V30 6198 C 593.943 -1.72288 1.15462 0
M  V30 6199 C 594.368 -1.85915 -0.285887 0
M  V30 6200 O 593.726 -1.35272 -1.20711 0
M  V30 6201 C 593.774 -3.10503 1.83359 0
M  V30 6202 O 592.878 -3.96745 1.1255 0
M  V30 6203 H 592.219 -0.52843 0.402067 0
M  V30 6204 H 594.749 -1.17271 1.67656 0
M  V30 6205 H 594.759 -3.60867 1.90365 0
M  V30 6206 H 593.434 -2.99901 2.88153 0
M  V30 6207 H 592.011 -3.55191 1.13551 0
M  V30 6208 N 594.196 -1.08629 -1.14182 0
M  V30 6209 C 595.444 -0.815731 -1.84906 0
M  V30 6210 C 595.765 0.660441 -1.83475 0
M  V30 6211 O 595.035 1.47888 -1.28476 0
M  V30 6212 H 593.615 -0.298773 -0.684648 0
M  V30 6213 H 596.277 -1.37274 -1.38354 0
M  V30 6214 H 595.373 -1.16193 -2.89665 0
M  V30 6215 N 595.674 1.31259 -0.872281 0
M  V30 6216 C 596.621 2.28459 -0.327857 0
M  V30 6217 C 597.591 1.55831 0.574957 0
M  V30 6218 O 598.776 1.83965 0.506101 0
M  V30 6219 C 595.916 3.41985 0.462644 0
M  V30 6220 C 595.029 4.29458 -0.467949 0
M  V30 6221 C 594.164 5.30131 0.336903 0
M  V30 6222 C 593.203 6.0925 -0.58997 0
M  V30 6223 N 592.34 7.01872 0.178775 0
M  V30 6224 H 597.18 2.74414 -1.16193 0
M  V30 6225 H 594.717 1.34994 -0.584376 0
M  V30 6226 H 596.675 4.06547 0.936759 0
M  V30 6227 H 595.305 2.97134 1.2614 0
M  V30 6228 H 594.357 3.65318 -1.06052 0
M  V30 6229 H 595.669 4.84677 -1.17856 0
M  V30 6230 H 594.823 6.0038 0.873427 0
M  V30 6231 H 593.562 4.75573 1.08079 0
M  V30 6232 H 592.567 5.37889 -1.13823 0
M  V30 6233 H 593.792 6.65894 -1.33275 0
M  V30 6234 H 591.738 6.49721 0.905435 0
M  V30 6235 H 591.655 7.54522 -0.472452 0
M  V30 6236 H 592.923 7.76382 0.696454 0
M  V30 6237 N 597.152 0.631951 1.44375 0
M  V30 6238 C 598.099 -0.0724807 2.30686 0
M  V30 6239 C 599.069 -0.835975 1.43529 0
M  V30 6240 O 600.254 -0.816849 1.7243 0
M  V30 6241 C 597.394 -1.04753 3.28817 0
M  V30 6242 C 596.507 -0.282367 4.31076 0
M  V30 6243 C 595.642 -1.2493 5.163 0
M  V30 6244 C 594.681 -0.473349 6.10267 0
M  V30 6245 N 593.818 -1.39079 6.88187 0
M  V30 6246 H 598.658 0.669477 2.90383 0
M  V30 6247 H 596.195 0.341927 1.43071 0
M  V30 6248 H 598.153 -1.62623 3.842 0
M  V30 6249 H 596.783 -1.75661 2.70819 0
M  V30 6250 H 595.835 0.412268 3.78159 0
M  V30 6251 H 597.147 0.321955 4.9776 0
M  V30 6252 H 596.301 -1.89931 5.76204 0
M  V30 6253 H 595.04 -1.88755 4.49692 0
M  V30 6254 H 594.045 0.190142 5.49471 0
M  V30 6255 H 595.27 0.16019 6.78911 0
M  V30 6256 H 593.216 -2.01623 6.24247 0
M  V30 6257 H 593.133 -0.840513 7.51313 0
M  V30 6258 H 594.401 -2.02961 7.52613 0
M  V30 6259 N 598.631 -1.53133 0.372548 0
M  V30 6260 C 600.042 -1.86404 -0.105155 0
M  V30 6261 C 600.393 -1.29289 -1.47576 0
M  V30 6262 O 599.518 -0.617646 -2.07398 0
M  V30 6263 C 600.113 -3.38223 -0.197588 0
M  V30 6264 C 598.672 -3.71266 -0.619556 0
M  V30 6265 C 597.819 -2.76353 0.228919 0
M  V30 6266 H 600.77 -1.47282 0.591077 0
M  V30 6267 H 600.791 -3.66577 -1.01987 0
M  V30 6268 H 600.303 -3.79763 0.800099 0
M  V30 6269 H 598.404 -3.35287 -1.62522 0
M  V30 6270 H 598.517 -4.77515 -0.389332 0
M  V30 6271 H 596.881 -2.52888 -0.303271 0
M  V30 6272 H 597.664 -3.20728 1.22428 0
M  V30 6273 N 600.109 -0.101901 -1.5727 0
M  V30 6274 C 601.358 0.559922 -1.93772 0
M  V30 6275 C 601.671 1.68913 -0.98629 0
M  V30 6276 O 602.877 2.41256 -1.24529 0
M  V30 6277 C 601.333 1.04739 -3.44322 0
M  V30 6278 C 600.941 -0.05243 -4.47969 0
M  V30 6279 C 602.685 1.68157 -3.89774 0
M  V30 6280 C 600.592 0.450781 -5.8968 0
M  V30 6281 H 599.522 0.212931 -0.723309 0
M  V30 6282 H 602.173 -0.179001 -1.82625 0
M  V30 6283 H 600.555 1.84021 -3.50645 0
M  V30 6284 H 601.729 -0.828157 -4.53297 0
M  V30 6285 H 600.044 -0.592202 -4.12167 0
M  V30 6286 H 602.641 2.0689 -4.93052 0
M  V30 6287 H 602.984 2.55338 -3.28798 0
M  V30 6288 H 603.517 0.954453 -3.8618 0
M  V30 6289 H 600.256 -0.38458 -6.54371 0
M  V30 6290 H 599.776 1.19336 -5.87809 0
M  V30 6291 H 601.455 0.917555 -6.40461 0
M  V30 6292 N 601.587 1.56661 0.17182 0
M  V30 6293 C 602.815 1.861 0.904115 0
M  V30 6294 C 603.23 0.687227 1.75848 0
M  V30 6295 O 602.587 -0.343671 1.79235 0
M  V30 6296 C 602.638 3.14568 1.78127 0
M  V30 6297 O 602.359 4.27422 0.961366 0
M  V30 6298 C 603.86 3.5735 2.62327 0
M  V30 6299 H 601.08 0.617445 0.262684 0
M  V30 6300 H 603.624 2.03775 0.172068 0
M  V30 6301 H 601.779 2.98721 2.46666 0
M  V30 6302 H 602.193 5.00725 1.56123 0
M  V30 6303 H 603.667 4.50144 3.1949 0
M  V30 6304 H 604.144 2.81445 3.37173 0
M  V30 6305 H 604.75 3.75807 1.99121 0
M  V30 6306 N 603.065 -0.440357 1.51323 0
M  V30 6307 C 603.997 -1.55254 1.68609 0
M  V30 6308 C 605.01 -1.52614 0.566812 0
M  V30 6309 O 606.199 -1.57445 0.841032 0
M  V30 6310 C 603.299 -2.94169 1.68279 0
M  V30 6311 C 602.472 -3.21346 2.96742 0
M  V30 6312 C 601.531 -4.3997 2.8864 0
M  V30 6313 O 600.557 -4.38771 3.62586 0
M  V30 6314 N 601.759 -5.43367 2.04285 0
M  V30 6315 H 604.524 -1.40831 2.6455 0
M  V30 6316 H 602.085 -0.629251 1.49171 0
M  V30 6317 H 604.077 -3.71543 1.60431 0
M  V30 6318 H 602.647 -3.02205 0.799441 0
M  V30 6319 H 601.867 -2.32299 3.18482 0
M  V30 6320 H 603.155 -3.3633 3.81785 0
M  V30 6321 H 602.553 -5.47176 1.43578 0
M  V30 6322 H 601.11 -6.19605 2.02318 0
M  V30 6323 N 604.543 -1.41418 -0.695603 0
M  V30 6324 C 605.959 -1.23887 -1.00619 0
M  V30 6325 C 606.159 -0.128206 -2.01092 0
M  V30 6326 O 605.215 0.507408 -2.47349 0
M  V30 6327 C 606.528 -2.58816 -1.53083 0
M  V30 6328 C 608.076 -2.65998 -1.64967 0
M  V30 6329 C 608.551 -4.01244 -2.20833 0
M  V30 6330 N 610.042 -4.0309 -2.28194 0
M  V30 6331 C 610.777 -5.04539 -2.72448 0
M  V30 6332 N 610.273 -6.16378 -3.16306 0
M  V30 6333 N 612.066 -4.91901 -2.72011 0
M  V30 6334 H 604.217 -2.12379 -0.0300061 0
M  V30 6335 H 606.48 -0.944958 -0.0758797 0
M  V30 6336 H 606.186 -3.40842 -0.867147 0
M  V30 6337 H 606.06 -2.81299 -2.51298 0
M  V30 6338 H 608.447 -1.84331 -2.30448 0
M  V30 6339 H 608.528 -2.47325 -0.652982 0
M  V30 6340 H 608.172 -4.83359 -1.55968 0
M  V30 6341 H 608.102 -4.17257 -3.21254 0
M  V30 6342 H 610.593 -3.22341 -1.97242 0
M  V30 6343 H 610.906 -6.89658 -3.487 0
M  V30 6344 H 609.251 -6.19914 -3.14215 0
M  V30 6345 H 612.442 -4.03613 -2.37095 0
M  V30 6346 H 612.615 -5.71102 -3.06181 0
M  V30 6347 N 606.021 0.929856 -1.27246 0
M  V30 6348 C 607.432 1.49223 -1.12203 0
M  V30 6349 C 607.783 1.93989 0.293731 0
M  V30 6350 O 606.908 1.80978 1.18642 0
M  V30 6351 C 607.503 2.71198 -2.0307 0
M  V30 6352 C 606.062 3.23666 -1.92139 0
M  V30 6353 C 605.209 1.96409 -1.95752 0
M  V30 6354 H 608.16 0.744181 -1.4017 0
M  V30 6355 H 608.181 3.45905 -1.58524 0
M  V30 6356 H 607.693 2.38585 -3.06102 0
M  V30 6357 H 605.794 3.61042 -0.920834 0
M  V30 6358 H 605.907 3.90006 -2.78267 0
M  V30 6359 H 604.271 2.12806 -1.39949 0
M  V30 6360 H 605.054 1.66113 -3.00436 0
M  V30 6361 N 607.499 1.09233 1.13605 0
M  V30 6362 C 608.462 0.733553 2.17144 0
M  V30 6363 C 609.462 -0.235873 1.59061 0
M  V30 6364 O 610.652 -0.0143167 1.74194 0
M  V30 6365 C 607.784 0.084471 3.40795 0
M  V30 6366 H 608.977 1.65049 2.50397 0
M  V30 6367 H 606.53 0.891264 1.28399 0
M  V30 6368 H 607.265 -0.843795 3.1313 0
M  V30 6369 H 607.05 0.781985 3.84223 0
M  V30 6370 H 608.54 -0.151216 4.17326 0
M  V30 6371 N 608.977 -1.30795 0.87923 0
M  V30 6372 C 610.254 -1.91145 0.415086 0
M  V30 6373 C 610.634 -1.7995 -1.10368 0
M  V30 6374 O 609.982 -1.21305 -1.93642 0
M  V30 6375 C 610.192 -3.37014 0.906778 0
M  V30 6376 C 611.54 -4.14101 0.938358 0
M  V30 6377 O 612.564 -3.45834 0.853053 0
M  V30 6378 O 611.423 -5.36054 1.06342 0
M  V30 6379 H 608.517 -0.81736 0.125905 0
M  V30 6380 H 611.063 -1.39401 0.967753 0
M  V30 6381 H 609.835 -3.3922 1.95053 0
M  V30 6382 H 609.458 -3.96204 0.332948 0
M  V30 6383 N 610.455 -0.639598 -1.44038 0
M  V30 6384 C 611.385 0.0469443 -2.33453 0
M  V30 6385 C 612.366 0.82609 -1.48694 0
M  V30 6386 O 613.551 0.790285 -1.77393 0
M  V30 6387 C 610.681 1.02338 -3.3188 0
M  V30 6388 C 609.635 0.355284 -4.26523 0
M  V30 6389 C 608.961 1.44221 -5.14883 0
M  V30 6390 C 610.261 -0.743798 -5.16977 0
M  V30 6391 H 611.955 -0.699735 -2.91108 0
M  V30 6392 H 609.501 -0.337946 -1.39978 0
M  V30 6393 H 611.454 1.51247 -3.93322 0
M  V30 6394 H 610.178 1.80105 -2.72451 0
M  V30 6395 H 608.837 -0.113239 -3.66425 0
M  V30 6396 H 608.485 2.21097 -4.51802 0
M  V30 6397 H 608.185 1.00052 -5.79019 0
M  V30 6398 H 609.709 1.93295 -5.79197 0
M  V30 6399 H 611.123 -0.337444 -5.72306 0
M  V30 6400 H 609.52 -1.10914 -5.89761 0
M  V30 6401 H 610.59 -1.60745 -4.57481 0
M  V30 6402 N 611.933 1.52934 -0.380664 0
M  V30 6403 C 612.863 2.29118 0.450268 0
M  V30 6404 C 613.844 1.32153 1.07096 0
M  V30 6405 O 615.029 1.61038 1.08537 0
M  V30 6406 C 612.159 3.09161 1.58231 0
M  V30 6407 C 611.113 4.13938 1.0881 0
M  V30 6408 C 610.439 4.82153 2.31155 0
M  V30 6409 C 611.739 5.22048 0.162146 0
M  V30 6410 H 613.433 2.98826 -0.185361 0
M  V30 6411 H 610.979 1.43715 -0.0905886 0
M  V30 6412 H 612.932 3.61211 2.17036 0
M  V30 6413 H 611.656 2.3717 2.2454 0
M  V30 6414 H 610.315 3.62855 0.522633 0
M  V30 6415 H 609.963 4.06719 2.95953 0
M  V30 6416 H 609.663 5.52966 1.98752 0
M  V30 6417 H 611.187 5.37004 2.90618 0
M  V30 6418 H 612.601 5.6951 0.658126 0
M  V30 6419 H 610.998 6.00057 -0.0717122 0
M  V30 6420 H 612.068 4.78398 -0.791438 0
M  V30 6421 N 613.412 0.11024 1.57214 0
M  V30 6422 C 614.823 -0.416527 1.81994 0
M  V30 6423 C 615.174 -1.67183 1.02686 0
M  V30 6424 O 614.299 -2.14823 0.260782 0
M  V30 6425 C 614.894 -0.762466 3.30109 0
M  V30 6426 C 613.453 -1.23391 3.556 0
M  V30 6427 C 612.6 -0.238166 2.76275 0
M  V30 6428 H 615.551 0.335491 1.55113 0
M  V30 6429 H 615.572 -1.62068 3.44259 0
M  V30 6430 H 615.084 0.151346 3.87805 0
M  V30 6431 H 613.185 -2.16492 3.03253 0
M  V30 6432 H 613.298 -1.18528 4.64207 0
M  V30 6433 H 611.662 -0.723421 2.4421 0
M  V30 6434 H 612.445 0.668591 3.36727 0
M  V30 6435 N 614.89 -1.56749 -0.16351 0
M  V30 6436 C 616.301 -1.72039 -0.725216 0
M  V30 6437 C 616.652 -0.72202 -1.82432 0
M  V30 6438 O 615.777 0.114942 -2.16095 0
M  V30 6439 C 616.372 -3.11932 -1.32227 0
M  V30 6440 C 614.931 -3.28879 -1.83072 0
M  V30 6441 C 614.078 -2.67984 -0.712716 0
M  V30 6442 H 617.029 -1.58579 0.0619772 0
M  V30 6443 H 617.05 -3.11015 -2.19202 0
M  V30 6444 H 616.562 -3.84572 -0.522103 0
M  V30 6445 H 614.663 -2.61209 -2.65708 0
M  V30 6446 H 614.776 -4.36688 -1.97079 0
M  V30 6447 H 613.14 -2.28005 -1.13515 0
M  V30 6448 H 613.923 -3.43216 0.0757361 0
M  V30 6449 N 616.368 0.432326 -1.51554 0
M  V30 6450 C 617.278 1.55023 -1.76082 0
M  V30 6451 C 618.294 1.61593 -0.645265 0
M  V30 6452 O 619.47 1.78742 -0.928086 0
M  V30 6453 C 616.535 2.90964 -1.88523 0
M  V30 6454 C 615.596 2.9447 -3.12388 0
M  V30 6455 C 614.829 4.23926 -3.24225 0
M  V30 6456 O 615.052 5.16576 -2.4188 0
M  V30 6457 O 613.986 4.33818 -4.17235 0
M  V30 6458 H 617.812 1.37238 -2.70923 0
M  V30 6459 H 615.397 0.615845 -1.36117 0
M  V30 6460 H 617.279 3.71633 -1.98662 0
M  V30 6461 H 615.954 3.08865 -0.9687 0
M  V30 6462 H 614.861 2.12737 -3.07723 0
M  V30 6463 H 616.194 2.81514 -4.03746 0
M  V30 6464 N 617.846 1.41785 0.688094 0
M  V30 6465 C 619.092 1.42753 1.4489 0
M  V30 6466 C 619.447 0.0384235 1.92362 0
M  V30 6467 O 618.74 -0.937066 1.67122 0
M  V30 6468 C 618.934 2.37532 2.67046 0
M  V30 6469 C 618.763 3.85521 2.31525 0
M  V30 6470 C 617.533 4.54152 2.21527 0
M  V30 6471 C 619.731 4.76299 1.94019 0
M  V30 6472 N 617.713 5.87233 1.78969 0
M  V30 6473 C 619.084 5.98386 1.62279 0
M  V30 6474 C 621.139 4.63877 1.80895 0
M  V30 6475 C 619.842 7.09433 1.18732 0
M  V30 6476 C 621.868 5.74893 1.38752 0
M  V30 6477 C 621.23 6.96083 1.07927 0
M  V30 6478 H 617.329 0.577575 0.527192 0
M  V30 6479 H 619.913 1.77713 0.795375 0
M  V30 6480 H 618.084 2.04656 3.30107 0
M  V30 6481 H 619.816 2.29169 3.33562 0
M  V30 6482 H 616.571 4.08188 2.40166 0
M  V30 6483 H 616.995 6.57785 1.60151 0
M  V30 6484 H 621.637 3.70671 2.03378 0
M  V30 6485 H 619.355 8.02497 0.949937 0
M  V30 6486 H 622.941 5.67287 1.29136 0
M  V30 6487 H 621.821 7.80527 0.758111 0
M  V30 6488 N 619.324 -0.923095 1.27737 0
M  V30 6489 C 620.234 -2.05765 1.12685 0
M  V30 6490 C 621.25 -1.73911 0.0557197 0
M  V30 6491 O 622.426 -1.99674 0.263137 0
M  V30 6492 C 619.491 -3.37804 0.780363 0
M  V30 6493 C 618.552 -3.83326 1.93286 0
M  V30 6494 C 617.785 -5.09064 1.60281 0
M  V30 6495 O 618.008 -5.6809 0.512828 0
M  V30 6496 O 616.942 -5.50071 2.44347 0
M  V30 6497 H 620.768 -2.21378 2.07907 0
M  V30 6498 H 618.353 -1.04299 1.06968 0
M  V30 6499 H 620.235 -4.17097 0.600668 0
M  V30 6500 H 618.91 -3.23387 -0.142291 0
M  V30 6501 H 617.817 -3.049 2.16764 0
M  V30 6502 H 619.15 -4.02292 2.83588 0
M  V30 6503 N 620.802 -1.09834 -1.13024 0
M  V30 6504 C 621.749 -0.741522 -2.18564 0
M  V30 6505 C 622.719 0.279236 -1.63736 0
M  V30 6506 O 623.904 0.159923 -1.90129 0
M  V30 6507 C 621.044 -0.17277 -3.44667 0
M  V30 6508 C 620.157 -1.24808 -4.13578 0
M  V30 6509 C 619.292 -0.641631 -5.27311 0
M  V30 6510 C 618.331 -1.69795 -5.88078 0
M  V30 6511 N 617.468 -1.11223 -6.93234 0
M  V30 6512 H 622.308 -1.64576 -2.48432 0
M  V30 6513 H 619.845 -0.822174 -1.21978 0
M  V30 6514 H 621.803 0.17482 -4.16834 0
M  V30 6515 H 620.433 0.694725 -3.15235 0
M  V30 6516 H 619.485 -1.71288 -3.39653 0
M  V30 6517 H 620.797 -2.04795 -4.54819 0
M  V30 6518 H 619.951 -0.243128 -6.06213 0
M  V30 6519 H 618.69 0.189742 -4.87331 0
M  V30 6520 H 617.695 -2.10595 -5.07868 0
M  V30 6521 H 618.92 -2.53206 -6.3013 0
M  V30 6522 H 616.866 -0.302208 -6.55304 0
M  V30 6523 H 616.783 -1.84901 -7.3304 0
M  V30 6524 H 618.051 -0.740068 -7.75979 0
M  V30 6525 N 622.28 1.30327 -0.886154 0
M  V30 6526 C 623.212 2.27079 -0.311072 0
M  V30 6527 C 624.225 1.53758 0.53502 0
M  V30 6528 O 625.414 1.74947 0.354378 0
M  V30 6529 C 622.514 3.33965 0.576228 0
M  V30 6530 C 621.687 4.36735 -0.241064 0
M  V30 6531 C 620.746 5.23028 0.576916 0
M  V30 6532 O 619.772 5.692 -0.000802231 0
M  V30 6533 N 620.974 5.49016 1.88579 0
M  V30 6534 H 623.739 2.77065 -1.14259 0
M  V30 6535 H 621.3 1.43519 -0.749258 0
M  V30 6536 H 623.292 3.88618 1.12953 0
M  V30 6537 H 621.862 2.839 1.30842 0
M  V30 6538 H 621.082 3.81932 -0.975805 0
M  V30 6539 H 622.37 5.02451 -0.801272 0
M  V30 6540 H 621.768 5.13288 2.37806 0
M  V30 6541 H 620.325 6.06539 2.38651 0
M  V30 6542 N 623.758 0.647228 1.43697 0
M  V30 6543 C 624.983 0.164083 2.0675 0
M  V30 6544 C 625.408 -1.15892 1.48158 0
M  V30 6545 O 624.766 -1.71459 0.589194 0
M  V30 6546 C 624.814 0.0800368 3.60511 0
M  V30 6547 O 623.918 -0.959453 4.01084 0
M  V30 6548 H 623.259 0.0921288 0.657578 0
M  V30 6549 H 625.789 0.88846 1.84303 0
M  V30 6550 H 625.799 -0.105263 4.07864 0
M  V30 6551 H 624.474 1.04586 4.02535 0
M  V30 6552 H 623.051 -0.747425 3.65333 0
M  V30 6553 N 625.236 -1.5273 0.388769 0
M  V30 6554 C 626.183 -2.26437 -0.446639 0
M  V30 6555 C 627.153 -1.28025 -1.05824 0
M  V30 6556 O 628.338 -1.56852 -1.08637 0
M  V30 6557 C 625.478 -3.07407 -1.56828 0
M  V30 6558 C 624.591 -4.20747 -0.979589 0
M  V30 6559 C 623.726 -4.89113 -2.07224 0
M  V30 6560 C 622.765 -5.94447 -1.45942 0
M  V30 6561 N 621.902 -6.56411 -2.49135 0
M  V30 6562 H 626.742 -2.97404 0.18837 0
M  V30 6563 H 624.279 -1.46727 0.104725 0
M  V30 6564 H 626.237 -3.52642 -2.22934 0
M  V30 6565 H 624.867 -2.3865 -2.17361 0
M  V30 6566 H 623.919 -3.7983 -0.208151 0
M  V30 6567 H 625.231 -4.9637 -0.491747 0
M  V30 6568 H 624.385 -5.3765 -2.81101 0
M  V30 6569 H 623.124 -4.13013 -2.59368 0
M  V30 6570 H 622.129 -5.4525 -0.705894 0
M  V30 6571 H 623.354 -6.7248 -0.945932 0
M  V30 6572 H 621.3 -5.83152 -3.00449 0
M  V30 6573 H 621.217 -7.27645 -2.05105 0
M  V30 6574 H 622.485 -7.09592 -3.22644 0
M  V30 6575 N 626.714 -0.118576 -1.57153 0
M  V30 6576 C 627.624 0.845484 -2.18835 0
M  V30 6577 C 628.64 1.29299 -1.16438 0
M  V30 6578 O 629.816 1.35607 -1.48905 0
M  V30 6579 C 626.881 2.07795 -2.77529 0
M  V30 6580 C 625.942 1.6824 -3.9496 0
M  V30 6581 C 625.175 2.85612 -4.50845 0
M  V30 6582 O 625.398 4.01025 -4.05629 0
M  V30 6583 O 624.332 2.62721 -5.41536 0
M  V30 6584 H 628.158 0.350568 -3.0167 0
M  V30 6585 H 625.743 0.107013 -1.49016 0
M  V30 6586 H 627.625 2.79978 -3.14945 0
M  V30 6587 H 626.3 2.56294 -1.97725 0
M  V30 6588 H 625.207 0.931663 -3.62313 0
M  V30 6589 H 626.54 1.24484 -4.76198 0
M  V30 6590 N 628.193 1.56834 0.155195 0
M  V30 6591 C 629.156 1.96748 1.17571 0
M  V30 6592 C 630.156 0.853006 1.3631 0
M  V30 6593 O 631.346 1.11978 1.33441 0
M  V30 6594 C 628.478 2.27631 2.53765 0
M  V30 6595 H 629.671 2.88085 0.833498 0
M  V30 6596 H 627.224 1.51141 0.398242 0
M  V30 6597 H 627.959 1.39059 2.92973 0
M  V30 6598 H 627.744 3.0888 2.41527 0
M  V30 6599 H 629.234 2.59377 3.27282 0
M  V30 6600 N 629.671 -0.424282 1.51781 0
M  V30 6601 C 630.634 -1.49848 1.73431 0
M  V30 6602 C 631.634 -1.49016 0.604225 0
M  V30 6603 O 632.824 -1.50808 0.871935 0
M  V30 6604 C 629.956 -2.89332 1.80277 0
M  V30 6605 H 631.149 -1.3195 2.69312 0
M  V30 6606 H 628.702 -0.653809 1.41968 0
M  V30 6607 H 629.437 -3.12618 0.862568 0
M  V30 6608 H 629.222 -2.9134 2.62419 0
M  V30 6609 H 630.712 -3.67233 1.98821 0
M  V30 6610 N 631.149 -1.42148 -0.680565 0
M  V30 6611 C 632.377 -1.45696 -1.46902 0
M  V30 6612 C 632.792 -0.0665858 -1.88683 0
M  V30 6613 O 632.149 0.917436 -1.57764 0
M  V30 6614 C 632.2 -2.37898 -2.72188 0
M  V30 6615 O 631.921 -3.71526 -2.32163 0
M  V30 6616 C 633.422 -2.50407 -3.65802 0
M  V30 6617 H 630.642 -0.495729 -0.45221 0
M  V30 6618 H 633.186 -1.866 -0.836709 0
M  V30 6619 H 631.341 -2.00263 -3.31622 0
M  V30 6620 H 631.755 -4.20849 -3.13027 0
M  V30 6621 H 633.229 -3.19056 -4.50452 0
M  V30 6622 H 633.706 -1.5401 -4.11312 0
M  V30 6623 H 634.312 -2.8874 -3.12265 0
M  V30 6624 N 632.627 0.916307 -1.28225 0
M  V30 6625 C 633.557 2.0352 -1.14464 0
M  V30 6626 C 634.538 1.70045 -0.0430844 0
M  V30 6627 O 635.723 1.92954 -0.219619 0
M  V30 6628 C 632.853 3.37889 -0.803027 0
M  V30 6629 C 631.807 3.85516 -1.85908 0
M  V30 6630 C 631.133 5.1682 -1.37116 0
M  V30 6631 C 632.433 4.07655 -3.26519 0
M  V30 6632 H 634.127 2.1529 -2.08064 0
M  V30 6633 H 631.673 1.03446 -1.00174 0
M  V30 6634 H 633.626 4.15654 -0.693537 0
M  V30 6635 H 632.35 3.26164 0.168674 0
M  V30 6636 H 631.009 3.09953 -1.95767 0
M  V30 6637 H 630.657 5.01497 -0.38859 0
M  V30 6638 H 630.357 5.49657 -2.07728 0
M  V30 6639 H 631.881 5.97143 -1.27484 0
M  V30 6640 H 633.295 4.75953 -3.19596 0
M  V30 6641 H 631.692 4.51818 -3.94943 0
M  V30 6642 H 632.762 3.12553 -3.70727 0
M  V30 6643 N 634.105 1.10431 1.1244 0
M  V30 6644 C 635.052 0.753103 2.18167 0
M  V30 6645 C 636.022 -0.270549 1.63882 0
M  V30 6646 O 637.207 -0.149837 1.90211 0
M  V30 6647 C 634.347 0.191046 3.44571 0
M  V30 6648 C 633.46 1.26999 4.12911 0
M  V30 6649 C 632.595 0.669586 5.26963 0
M  V30 6650 C 631.634 1.72912 5.87169 0
M  V30 6651 N 630.771 1.14898 6.92635 0
M  V30 6652 H 635.611 1.65892 2.47556 0
M  V30 6653 H 633.148 0.828631 1.21541 0
M  V30 6654 H 635.106 -0.152712 4.1692 0
M  V30 6655 H 633.736 -0.677997 3.15599 0
M  V30 6656 H 632.788 1.73087 3.3874 0
M  V30 6657 H 634.1 2.07204 4.53727 0
M  V30 6658 H 633.254 0.275274 6.06075 0
M  V30 6659 H 631.993 -0.163895 4.87425 0
M  V30 6660 H 630.998 2.13286 5.06744 0
M  V30 6661 H 632.223 2.56544 6.28778 0
M  V30 6662 H 630.169 0.336956 6.55134 0
M  V30 6663 H 630.086 1.88786 7.32049 0
M  V30 6664 H 631.354 0.78121 7.75576 0
M  V30 6665 N 635.583 -1.29855 0.893053 0
M  V30 6666 C 636.831 -1.9544 0.514566 0
M  V30 6667 C 637.152 -1.70795 -0.940959 0
M  V30 6668 O 636.422 -1.03601 -1.66264 0
M  V30 6669 H 635.002 -0.723137 0.187302 0
M  V30 6670 H 637.664 -1.58234 1.13789 0
M  V30 6671 H 636.76 -3.04341 0.691581 0
M  V30 6672 N 637.061 -0.65484 -1.43351 0
M  V30 6673 C 638.308 -0.168892 -2.01794 0
M  V30 6674 C 638.636 1.2177 -1.51665 0
M  V30 6675 O 637.891 1.82717 -0.70092 0
M  V30 6676 C 638.19 -0.130424 -3.57162 0
M  V30 6677 C 637.856 -1.45898 -4.26643 0
M  V30 6678 C 636.518 -1.82279 -4.4534 0
M  V30 6679 C 638.87 -2.33485 -4.65976 0
M  V30 6680 C 636.198 -3.0591 -5.00635 0
M  V30 6681 C 638.55 -3.5641 -5.22642 0
M  V30 6682 C 637.214 -3.92985 -5.39555 0
M  V30 6683 H 636.484 -0.061802 -0.738418 0
M  V30 6684 H 639.131 -0.845869 -1.71806 0
M  V30 6685 H 637.436 0.630008 -3.86702 0
M  V30 6686 H 639.133 0.262465 -4.0014 0
M  V30 6687 H 635.723 -1.16591 -4.12437 0
M  V30 6688 H 639.907 -2.06668 -4.51223 0
M  V30 6689 H 635.163 -3.34295 -5.11915 0
M  V30 6690 H 639.337 -4.24495 -5.52066 0
M  V30 6691 H 636.964 -4.88862 -5.82167 0
M  V30 6692 N 638.539 1.52521 -0.396863 0
M  V30 6693 C 639.487 2.28217 0.44943 0
M  V30 6694 C 640.481 1.32416 1.05652 0
M  V30 6695 O 641.687 1.49925 0.996124 0
M  V30 6696 H 638.062 0.733966 0.1637 0
M  V30 6697 H 640.033 2.97658 -0.210367 0
M  V30 6698 C 638.782 3.10713 1.56054 0
M  V30 6699 H 638.105 3.84291 1.10273 0
M  V30 6700 H 639.545 3.66803 2.12677 0
M  V30 6701 C 638.004 2.23499 2.52091 0
M  V30 6702 O 638.534 1.8669 3.55682 0
M  V30 6703 N 636.74 1.8751 2.2201 0
M  V30 6704 H 636.287 2.17643 1.37802 0
M  V30 6705 H 636.245 1.29448 2.86514 0
M  V30 6706 N 640.017 0.126909 1.57088 0
M  V30 6707 C 641.265 -0.528123 1.95078 0
M  V30 6708 C 641.586 -1.66708 1.0116 0
M  V30 6709 O 640.856 -1.95777 0.0693527 0
M  V30 6710 H 639.436 -0.198087 0.720257 0
M  V30 6711 H 642.098 0.197703 1.93895 0
M  V30 6712 H 641.194 -0.917507 2.98309 0
M  V30 6713 N 641.495 -1.56914 -0.146875 0
M  V30 6714 C 642.723 -1.87515 -0.874394 0
M  V30 6715 C 643.138 -0.715116 -1.74733 0
M  V30 6716 O 642.495 0.315113 -1.79759 0
M  V30 6717 C 642.546 -3.17362 -1.731 0
M  V30 6718 O 642.267 -4.28897 -0.893245 0
M  V30 6719 C 643.768 -3.61479 -2.56609 0
M  V30 6720 H 640.988 -0.621546 -0.252827 0
M  V30 6721 H 643.532 -2.04023 -0.139627 0
M  V30 6722 H 641.687 -3.02608 -2.41883 0
M  V30 6723 H 642.101 -5.03146 -1.48137 0
M  V30 6724 H 643.575 -4.5517 -3.12289 0
M  V30 6725 H 644.052 -2.86773 -3.32653 0
M  V30 6726 H 644.658 -3.78927 -1.93117 0
M  V30 6727 N 642.974 0.416227 -1.52004 0
M  V30 6728 C 644.251 1.17637 -1.56272 0
M  V30 6729 C 644.631 2.08352 -0.339493 0
M  V30 6730 O 643.979 2.1833 0.674124 0
M  V30 6731 C 644.189 1.95986 -2.88774 0
M  V30 6732 C 645.537 2.52299 -3.41512 0
M  V30 6733 O 646.561 2.06174 -2.90467 0
M  V30 6734 O 645.42 3.3648 -4.30631 0
M  V30 6735 H 642.514 0.536726 -0.629169 0
M  V30 6736 H 645.06 0.423583 -1.64329 0
M  V30 6737 H 643.832 1.29487 -3.69254 0
M  V30 6738 H 643.455 2.78285 -2.83978 0
M  V30 6739 N 644.452 1.42507 0.673017 0
M  V30 6740 C 645.362 1.4853 1.81593 0
M  V30 6741 C 646.378 0.373907 1.69935 0
M  V30 6742 O 647.554 0.625078 1.91454 0
M  V30 6743 C 644.619 1.387 3.17747 0
M  V30 6744 C 643.68 2.60346 3.41348 0
M  V30 6745 C 642.913 2.50975 4.71007 0
M  V30 6746 O 643.136 1.54659 5.49033 0
M  V30 6747 O 642.07 3.41138 4.95892 0
M  V30 6748 H 645.896 2.45001 1.79467 0
M  V30 6749 H 643.481 1.2429 0.82899 0
M  V30 6750 H 645.363 1.35586 3.98992 0
M  V30 6751 H 644.038 0.453555 3.20507 0
M  V30 6752 H 642.945 2.69034 2.59945 0
M  V30 6753 H 644.278 3.52595 3.43421 0
M  V30 6754 N 645.93 -0.909495 1.28709 0
M  V30 6755 C 647.207 -1.63865 1.06806 0
M  V30 6756 C 647.587 -2.07445 -0.391143 0
M  V30 6757 O 646.935 -1.82269 -1.37805 0
M  V30 6758 C 647.145 -2.82692 2.04661 0
M  V30 6759 C 648.493 -3.5361 2.35042 0
M  V30 6760 O 649.517 -2.92847 2.02779 0
M  V30 6761 O 648.376 -4.63131 2.90124 0
M  V30 6762 H 645.47 -0.719065 0.408502 0
M  V30 6763 H 648.016 -0.958424 1.40044 0
M  V30 6764 H 646.788 -2.47614 3.0299 0
M  V30 6765 H 646.411 -3.58426 1.72095 0
M  V30 6766 N 647.408 -1.11026 -1.11852 0
M  V30 6767 C 648.654 -0.857729 -1.83768 0
M  V30 6768 C 648.987 0.615143 -1.842 0
M  V30 6769 O 648.262 1.45391 -1.29196 0
M  V30 6770 C 648.545 -1.41453 -3.31154 0
M  V30 6771 C 648.398 -2.95471 -3.39142 0
M  V30 6772 C 649.717 -1.0619 -4.27097 0
M  V30 6773 H 646.836 -0.313044 -0.667212 0
M  V30 6774 H 649.478 -1.37443 -1.31185 0
M  V30 6775 H 647.628 -0.975052 -3.76065 0
M  V30 6776 H 649.3 -3.4799 -3.02821 0
M  V30 6777 H 647.543 -3.31759 -2.79497 0
M  V30 6778 H 648.214 -3.29515 -4.42859 0
M  V30 6779 H 650.69 -1.44122 -3.90344 0
M  V30 6780 H 649.566 -1.47832 -5.28618 0
M  V30 6781 H 649.827 0.0278912 -4.42091 0
M  V30 6782 N 648.886 1.2938 -0.899927 0
M  V30 6783 C 649.816 2.30144 -0.39446 0
M  V30 6784 C 650.797 1.61611 0.530639 0
M  V30 6785 O 651.982 1.89119 0.441319 0
M  V30 6786 C 649.112 3.45229 0.37868 0
M  V30 6787 C 648.066 4.25564 -0.456012 0
M  V30 6788 C 647.392 5.32848 0.444637 0
M  V30 6789 C 648.692 4.93651 -1.70605 0
M  V30 6790 H 650.386 2.72673 -1.23653 0
M  V30 6791 H 647.932 1.31086 -0.596034 0
M  V30 6792 H 649.885 4.14797 0.743037 0
M  V30 6793 H 648.609 3.01545 1.25453 0
M  V30 6794 H 647.268 3.57704 -0.802704 0
M  V30 6795 H 646.916 4.85408 1.31863 0
M  V30 6796 H 646.616 5.87497 -0.110154 0
M  V30 6797 H 648.14 6.05268 0.805182 0
M  V30 6798 H 649.554 5.55655 -1.41141 0
M  V30 6799 H 647.951 5.58233 -2.20217 0
M  V30 6800 H 649.021 4.18926 -2.4419 0
M  V30 6801 N 650.364 0.662433 1.43002 0
M  V30 6802 C 651.592 0.187615 2.06048 0
M  V30 6803 C 652.007 -1.15039 1.49705 0
M  V30 6804 O 651.364 -1.71209 0.631956 0
M  V30 6805 C 651.415 0.100498 3.6136 0
M  V30 6806 O 651.136 1.38562 4.15611 0
M  V30 6807 C 652.637 -0.399298 4.41498 0
M  V30 6808 H 649.857 0.0941675 0.664359 0
M  V30 6809 H 652.401 0.905681 1.83351 0
M  V30 6810 H 650.556 -0.568181 3.83211 0
M  V30 6811 H 650.97 1.25084 5.09366 0
M  V30 6812 H 652.444 -0.409187 5.50481 0
M  V30 6813 H 652.921 -1.43232 4.15188 0
M  V30 6814 H 653.527 0.23721 4.24638 0
M  V30 6815 N 651.842 -1.52309 0.404946 0
M  V30 6816 C 653.072 -2.05886 -0.171569 0
M  V30 6817 C 653.48 -1.27527 -1.39762 0
M  V30 6818 O 652.823 -0.319215 -1.80905 0
M  V30 6819 C 652.885 -3.54609 -0.590983 0
M  V30 6820 C 652.549 -4.53989 0.523757 0
M  V30 6821 C 653.546 -5.01084 1.38604 0
M  V30 6822 C 651.231 -4.97465 0.695255 0
M  V30 6823 C 653.225 -5.90295 2.4048 0
M  V30 6824 C 650.912 -5.86473 1.71733 0
M  V30 6825 C 651.91 -6.32782 2.57051 0
M  V30 6826 O 651.598 -7.20029 3.57509 0
M  V30 6827 H 651.33 -0.675508 -0.0257763 0
M  V30 6828 H 653.884 -1.97238 0.573278 0
M  V30 6829 H 652.114 -3.60929 -1.38805 0
M  V30 6830 H 653.803 -3.90853 -1.09494 0
M  V30 6831 H 654.569 -4.68214 1.26492 0
M  V30 6832 H 650.448 -4.60982 0.0408447 0
M  V30 6833 H 653.992 -6.26363 3.07108 0
M  V30 6834 H 649.889 -6.18756 1.83877 0
M  V30 6835 H 650.657 -7.3813 3.53703 0
M  V30 6836 N 653.32 -0.135238 -1.57019 0
M  V30 6837 C 654.283 0.794707 -2.14981 0
M  V30 6838 C 655.283 1.18342 -1.08866 0
M  V30 6839 O 656.473 1.10627 -1.34563 0
M  V30 6840 C 653.605 2.07685 -2.70333 0
M  V30 6841 H 654.798 0.290696 -2.98488 0
M  V30 6842 H 652.351 0.114128 -1.55883 0
M  V30 6843 H 653.086 2.6248 -1.9046 0
M  V30 6844 H 652.871 1.80745 -3.47957 0
M  V30 6845 H 654.361 2.74127 -3.1503 0
M  V30 6846 N 654.798 1.5699 0.138552 0
M  V30 6847 C 655.728 2.01933 1.17241 0
M  V30 6848 C 656.709 0.90033 1.44319 0
M  V30 6849 O 657.894 1.16872 1.55095 0
M  V30 6850 C 655.024 2.40711 2.50351 0
M  V30 6851 C 653.978 3.55874 2.37776 0
M  V30 6852 C 653.304 3.80491 3.75674 0
M  V30 6853 C 654.604 4.8826 1.85472 0
M  V30 6854 H 656.298 2.88551 0.798672 0
M  V30 6855 H 653.844 1.3882 0.382743 0
M  V30 6856 H 655.797 2.70754 3.22909 0
M  V30 6857 H 654.521 1.5104 2.89576 0
M  V30 6858 H 653.18 3.2601 1.67669 0
M  V30 6859 H 652.828 2.88057 4.12349 0
M  V30 6860 H 652.528 4.57998 3.68119 0
M  V30 6861 H 654.052 4.12967 4.49767 0
M  V30 6862 H 655.466 5.16965 2.4783 0
M  V30 6863 H 653.863 5.69631 1.88787 0
M  V30 6864 H 654.933 4.78071 0.810935 0
M  V30 6865 N 656.276 -0.40816 1.52223 0
M  V30 6866 C 657.523 -1.15502 1.66329 0
M  V30 6867 C 657.851 -1.90474 0.393701 0
M  V30 6868 O 657.106 -1.85507 -0.623356 0
M  V30 6869 C 657.405 -2.17422 2.83659 0
M  V30 6870 C 657.071 -1.5925 4.21841 0
M  V30 6871 C 655.733 -1.4311 4.59427 0
M  V30 6872 C 658.085 -1.16776 5.0795 0
M  V30 6873 C 655.413 -0.830148 5.80797 0
M  V30 6874 C 657.765 -0.580988 6.29926 0
M  V30 6875 C 656.429 -0.406729 6.6626 0
M  V30 6876 H 655.699 -0.422653 0.608642 0
M  V30 6877 H 658.346 -0.442114 1.86327 0
M  V30 6878 H 656.651 -2.94861 2.58001 0
M  V30 6879 H 658.348 -2.75084 2.9177 0
M  V30 6880 H 654.938 -1.72796 3.92224 0
M  V30 6881 H 659.122 -1.28055 4.79495 0
M  V30 6882 H 654.378 -0.68316 6.07571 0
M  V30 6883 H 658.552 -0.243488 6.95974 0
M  V30 6884 H 656.179 0.0610366 7.60175 0
M  V30 6885 N 657.755 -1.42862 -0.66545 0
M  V30 6886 C 659.166 -1.3901 -1.24632 0
M  V30 6887 C 659.517 -0.0880285 -1.96002 0
M  V30 6888 O 658.642 0.812947 -2.0055 0
M  V30 6889 C 659.237 -2.51806 -2.2667 0
M  V30 6890 C 657.796 -2.51257 -2.80262 0
M  V30 6891 C 656.943 -2.30124 -1.5472 0
M  V30 6892 H 659.894 -1.5194 -0.458237 0
M  V30 6893 H 659.915 -2.22593 -3.08598 0
M  V30 6894 H 659.427 -3.46558 -1.74697 0
M  V30 6895 H 657.528 -1.60349 -3.36332 0
M  V30 6896 H 657.641 -3.48614 -3.28641 0
M  V30 6897 H 656.005 -1.7856 -1.81627 0
M  V30 6898 H 656.788 -3.26945 -1.04699 0
M  V30 6899 N 659.233 0.902656 -1.29189 0
M  V30 6900 C 660.165 2.01149 -1.09872 0
M  V30 6901 C 661.178 1.62732 -0.0471046 0
M  V30 6902 O 662.367 1.76107 -0.29132 0
M  V30 6903 C 659.467 3.32612 -0.649818 0
M  V30 6904 C 658.64 3.99574 -1.7793 0
M  V30 6905 C 657.699 5.09325 -1.32191 0
M  V30 6906 O 656.725 5.31919 -2.02611 0
M  V30 6907 N 657.927 5.80185 -0.191171 0
M  V30 6908 H 660.692 2.18276 -2.05368 0
M  V30 6909 H 658.253 1.07466 -1.2109 0
M  V30 6910 H 660.245 4.03375 -0.327199 0
M  V30 6911 H 658.815 3.11876 0.212597 0
M  V30 6912 H 658.035 3.22213 -2.27095 0
M  V30 6913 H 659.323 4.41056 -2.53668 0
M  V30 6914 H 658.721 5.64312 0.396016 0
M  V30 6915 H 657.278 6.5176 0.0721001 0
M  V30 6916 N 660.711 1.11618 1.11262 0
M  V30 6917 C 661.957 0.867463 1.83311 0
M  V30 6918 C 662.29 -0.605366 1.84524 0
M  V30 6919 O 661.565 -1.44704 1.29965 0
M  V30 6920 C 661.848 1.43207 3.30399 0
M  V30 6921 C 661.701 2.97265 3.3757 0
M  V30 6922 C 663.02 1.08454 4.26528 0
M  V30 6923 H 660.139 0.316578 0.665543 0
M  V30 6924 H 662.781 1.38137 1.30454 0
M  V30 6925 H 660.931 0.994982 3.75543 0
M  V30 6926 H 662.603 3.49591 3.00971 0
M  V30 6927 H 660.846 3.33237 2.77733 0
M  V30 6928 H 661.517 3.31859 4.41105 0
M  V30 6929 H 663.993 1.4619 3.89574 0
M  V30 6930 H 662.869 1.50633 5.27826 0
M  V30 6931 H 663.13 -0.00444568 4.421 0
M  V30 6932 N 662.189 -1.289 0.906776 0
M  V30 6933 C 663.152 -2.25777 0.394656 0
M  V30 6934 C 664.152 -1.53621 -0.475119 0
M  V30 6935 O 665.342 -1.71949 -0.279165 0
M  V30 6936 C 662.474 -3.38113 -0.43499 0
M  V30 6937 H 663.667 -2.72592 1.25033 0
M  V30 6938 H 661.22 -1.40463 0.685547 0
M  V30 6939 H 661.955 -2.96648 -1.31036 0
M  V30 6940 H 661.74 -3.91647 0.188334 0
M  V30 6941 H 663.23 -4.10168 -0.784365 0
M  V30 6942 N 663.667 -0.670007 -1.42649 0
M  V30 6943 C 665.078 -0.268118 -1.84765 0
M  V30 6944 C 665.429 1.18877 -1.56086 0
M  V30 6945 O 664.554 1.90947 -1.01825 0
M  V30 6946 C 665.149 -0.47984 -3.35385 0
M  V30 6947 C 663.708 -0.132116 -3.76168 0
M  V30 6948 C 662.855 -0.774611 -2.66261 0
M  V30 6949 H 665.806 -0.872509 -1.32563 0
M  V30 6950 H 665.827 0.269522 -3.79544 0
M  V30 6951 H 665.339 -1.54026 -3.56227 0
M  V30 6952 H 663.44 0.92505 -3.60934 0
M  V30 6953 H 663.553 -0.569294 -4.75706 0
M  V30 6954 H 661.917 -0.206353 -2.53863 0
M  V30 6955 H 662.7 -1.83839 -2.89928 0
M  V30 6956 N 665.145 1.52092 -0.413018 0
M  V30 6957 C 666.391 2.02154 0.161737 0
M  V30 6958 C 666.724 1.29789 1.44459 0
M  V30 6959 O 665.999 0.405378 1.90229 0
M  V30 6960 C 666.282 3.5781 0.405463 0
M  V30 6961 C 666.135 4.40819 -0.894335 0
M  V30 6962 C 667.454 4.23821 1.18591 0
M  V30 6963 H 664.573 0.734769 0.0573077 0
M  V30 6964 H 667.215 1.81948 -0.547247 0
M  V30 6965 H 665.365 3.75158 1.0094 0
M  V30 6966 H 667.037 4.35175 -1.53039 0
M  V30 6967 H 665.28 4.06877 -1.50444 0
M  V30 6968 H 665.951 5.47819 -0.678144 0
M  V30 6969 H 668.427 4.10596 0.674573 0
M  V30 6970 H 667.303 5.32663 1.3252 0
M  V30 6971 H 667.564 3.83038 2.20758 0
M  V30 6972 N 666.623 0.143563 1.56945 0
M  V30 6973 C 667.87 -0.508407 1.96014 0
M  V30 6974 C 668.198 -1.65099 1.02824 0
M  V30 6975 O 667.453 -1.95618 0.0567764 0
M  V30 6976 C 667.752 -1.05885 3.41355 0
M  V30 6977 C 667.418 -0.0350809 4.50886 0
M  V30 6978 C 666.08 0.246362 4.80569 0
M  V30 6979 C 668.432 0.661282 5.16988 0
M  V30 6980 C 665.76 1.23003 5.73661 0
M  V30 6981 C 668.112 1.63375 6.11139 0
M  V30 6982 C 666.776 1.92292 6.39203 0
M  V30 6983 H 666.046 -0.186039 0.717266 0
M  V30 6984 H 668.693 0.229667 1.90118 0
M  V30 6985 H 666.998 -1.87419 3.44066 0
M  V30 6986 H 668.695 -1.57183 3.6891 0
M  V30 6987 H 665.285 -0.264622 4.27782 0
M  V30 6988 H 669.469 0.457038 4.94191 0
M  V30 6989 H 664.725 1.46056 5.93698 0
M  V30 6990 H 668.899 2.17887 6.61436 0
M  V30 6991 H 666.526 2.68666 7.11142 0
M  V30 6992 N 668.101 -1.57061 -0.130224 0
M  V30 6993 C 669.348 -1.84257 -0.839972 0
M  V30 6994 C 669.676 -0.726986 -1.80403 0
M  V30 6995 O 668.931 0.282632 -1.93648 0
M  V30 6996 C 669.23 -3.17878 -1.63365 0
M  V30 6997 C 668.896 -4.43475 -0.814891 0
M  V30 6998 C 667.558 -4.77581 -0.589066 0
M  V30 6999 C 669.91 -5.20631 -0.243437 0
M  V30 7000 C 667.238 -5.86292 0.218648 0
M  V30 7001 C 669.59 -6.30192 0.551408 0
M  V30 7002 C 668.254 -6.62837 0.787653 0
M  V30 7003 H 667.524 -0.674245 -0.307367 0
M  V30 7004 H 670.171 -1.91224 -0.102832 0
M  V30 7005 H 668.476 -3.06437 -2.44138 0
M  V30 7006 H 670.173 -3.3614 -2.18658 0
M  V30 7007 H 666.763 -4.16747 -1.00098 0
M  V30 7008 H 670.947 -4.94644 -0.405145 0
M  V30 7009 H 666.203 -6.10017 0.411016 0
M  V30 7010 H 670.377 -6.89165 1.00126 0
M  V30 7011 H 668.004 -7.46908 1.41537 0
M  V30 7012 N 669.579 0.400081 -1.52437 0
M  V30 7013 C 670.489 1.51253 -1.79331 0
M  V30 7014 C 671.505 1.60188 -0.679396 0
M  V30 7015 O 672.681 1.76733 -0.965791 0
M  V30 7016 C 669.746 2.869 -1.94652 0
M  V30 7017 C 668.807 2.87777 -3.18564 0
M  V30 7018 C 668.04 4.16954 -3.33145 0
M  V30 7019 O 668.263 5.11329 -2.52783 0
M  V30 7020 O 667.197 4.2487 -4.26343 0
M  V30 7021 H 671.023 1.31461 -2.73773 0
M  V30 7022 H 668.608 0.586834 -1.37392 0
M  V30 7023 H 670.49 3.67336 -2.065 0
M  V30 7024 H 669.165 3.06741 -1.034 0
M  V30 7025 H 668.072 2.06162 -3.12167 0
M  V30 7026 H 669.405 2.72886 -4.09627 0
M  V30 7027 N 671.057 1.43213 0.657864 0
M  V30 7028 C 672.007 1.44459 1.76396 0
M  V30 7029 C 672.991 0.313641 1.57814 0
M  V30 7030 O 674.183 0.557094 1.68004 0
M  V30 7031 C 671.312 1.36586 3.14959 0
M  V30 7032 C 670.398 2.54692 3.39106 0
M  V30 7033 N 670.789 3.80059 3.33749 0
M  V30 7034 C 669.087 2.49316 3.69807 0
M  V30 7035 C 669.788 4.58606 3.57849 0
M  V30 7036 N 668.764 3.89267 3.79437 0
M  V30 7037 H 672.566 2.39265 1.70673 0
M  V30 7038 H 670.08 1.378 0.859357 0
M  V30 7039 H 672.077 1.35561 3.94245 0
M  V30 7040 H 670.737 0.427956 3.21867 0
M  V30 7041 H 671.748 4.12414 3.13266 0
M  V30 7042 H 668.425 1.6419 3.83859 0
M  V30 7043 H 669.815 5.67619 3.59525 0
M  V30 7044 N 672.536 -0.895792 1.29666 0
M  V30 7045 C 673.952 -1.17726 1.07763 0
M  V30 7046 C 674.152 -2.00794 -0.168576 0
M  V30 7047 O 673.208 -2.37213 -0.865244 0
M  V30 7048 C 674.521 -1.89441 2.33522 0
M  V30 7049 C 676.069 -2.02251 2.3888 0
M  V30 7050 C 676.544 -2.77378 3.64452 0
M  V30 7051 N 678.035 -2.8493 3.65198 0
M  V30 7052 C 678.77 -3.43606 4.59045 0
M  V30 7053 N 678.266 -4.03417 5.63228 0
M  V30 7054 N 680.059 -3.41317 4.46608 0
M  V30 7055 H 672.21 -0.341652 2.09634 0
M  V30 7056 H 674.473 -0.213865 0.923561 0
M  V30 7057 H 674.179 -1.35842 3.24407 0
M  V30 7058 H 674.053 -2.89893 2.41334 0
M  V30 7059 H 676.44 -2.55025 1.4848 0
M  V30 7060 H 676.521 -1.0092 2.3505 0
M  V30 7061 H 676.165 -2.25279 4.55205 0
M  V30 7062 H 676.095 -3.79062 3.65541 0
M  V30 7063 H 678.586 -2.42453 2.89871 0
M  V30 7064 H 678.899 -4.46224 6.30955 0
M  V30 7065 H 677.244 -4.01868 5.67033 0
M  V30 7066 H 680.435 -2.93812 3.64407 0
M  V30 7067 H 680.608 -3.86751 5.1993 0
M  V30 7068 N 674.014 -1.12206 -1.10668 0
M  V30 7069 C 674.977 -0.790867 -2.15123 0
M  V30 7070 C 675.977 0.193618 -1.5963 0
M  V30 7071 O 677.167 -0.0318728 -1.74171 0
M  V30 7072 C 674.299 -0.174797 -3.40452 0
M  V30 7073 H 675.492 -1.7163 -2.45933 0
M  V30 7074 H 673.045 -0.924993 -1.2599 0
M  V30 7075 H 673.78 0.760478 -3.15257 0
M  V30 7076 H 673.565 -0.88358 -3.82015 0
M  V30 7077 H 675.055 0.0405162 -4.1758 0
M  V30 7078 N 675.492 1.28418 -0.913599 0
M  V30 7079 C 676.402 2.31043 -0.406965 0
M  V30 7080 C 677.418 1.66501 0.505298 0
M  V30 7081 O 678.594 1.97558 0.391522 0
M  V30 7082 C 675.659 3.4498 0.344901 0
M  V30 7083 C 674.72 4.25078 -0.600563 0
M  V30 7084 C 673.953 5.33575 0.115516 0
M  V30 7085 O 674.176 5.54503 1.33727 0
M  V30 7086 O 673.11 5.9939 -0.549095 0
M  V30 7087 H 676.936 2.76387 -1.25873 0
M  V30 7088 H 674.521 1.33109 -0.678415 0
M  V30 7089 H 676.403 4.14314 0.769542 0
M  V30 7090 H 675.078 3.01719 1.1725 0
M  V30 7091 H 673.985 3.58334 -1.0746 0
M  V30 7092 H 675.318 4.72018 -1.39497 0
M  V30 7093 N 676.97 0.677563 1.42291 0
M  V30 7094 C 678.218 0.200578 2.01102 0
M  V30 7095 C 678.539 -1.19803 1.53858 0
M  V30 7096 O 677.809 -1.80496 0.761439 0
M  V30 7097 H 676.389 0.0711634 0.743603 0
M  V30 7098 H 679.051 0.874691 1.7417 0
M  V30 7099 H 678.147 0.204 3.11433 0
M  V30 7100 N 678.448 -1.51871 0.421078 0
M  V30 7101 C 679.859 -1.86644 -0.0457991 0
M  V30 7102 C 680.21 -1.33919 -1.43388 0
M  V30 7103 O 679.335 -0.683316 -2.05328 0
M  V30 7104 C 679.93 -3.38681 -0.0898844 0
M  V30 7105 C 678.489 -3.73049 -0.501127 0
M  V30 7106 C 677.636 -2.75485 0.316723 0
M  V30 7107 H 680.587 -1.45327 0.637635 0
M  V30 7108 H 680.608 -3.69636 -0.902734 0
M  V30 7109 H 680.12 -3.77025 0.920513 0
M  V30 7110 H 678.221 -3.40288 -1.51773 0
M  V30 7111 H 678.334 -4.78512 -0.237217 0
M  V30 7112 H 676.698 -2.53725 -0.222663 0
M  V30 7113 H 677.481 -3.16671 1.32569 0
M  V30 7114 N 679.926 -0.151884 -1.56866 0
M  V30 7115 C 680.876 0.797799 -2.13586 0
M  V30 7116 C 681.86 1.20613 -1.06496 0
M  V30 7117 O 683.052 1.17173 -1.32663 0
M  V30 7118 C 680.181 2.03493 -2.76488 0
M  V30 7119 C 679.267 1.64948 -3.90708 0
M  V30 7120 N 679.658 0.972513 -4.96363 0
M  V30 7121 C 677.956 1.94186 -4.01507 0
M  V30 7122 C 678.657 0.785661 -5.7637 0
M  V30 7123 N 677.633 1.32105 -5.27304 0
M  V30 7124 H 681.435 0.271403 -2.92644 0
M  V30 7125 H 678.949 0.049487 -1.62325 0
M  V30 7126 H 680.946 2.72532 -3.15487 0
M  V30 7127 H 679.606 2.56646 -1.98904 0
M  V30 7128 H 680.617 0.632724 -5.1402 0
M  V30 7129 H 677.294 2.49154 -3.35005 0
M  V30 7130 H 678.684 0.251749 -6.71428 0
M  V30 7131 N 681.404 1.57128 0.121893 0
M  V30 7132 C 682.629 1.89254 0.848385 0
M  V30 7133 C 683.054 0.743527 1.72781 0
M  V30 7134 O 682.412 -0.306056 1.78698 0
M  V30 7135 C 682.46 3.20113 1.66012 0
M  V30 7136 O 681.564 3.05815 2.76679 0
M  V30 7137 H 680.905 0.621103 0.234793 0
M  V30 7138 H 683.435 2.0433 0.10516 0
M  V30 7139 H 683.445 3.52761 2.04996 0
M  V30 7140 H 682.12 4.03336 1.01452 0
M  V30 7141 H 680.697 2.84627 2.40918 0
M  V30 7142 N 682.882 -0.391992 1.52647 0
M  V30 7143 C 684.128 -1.139 1.67793 0
M  V30 7144 C 684.461 -1.89711 0.41514 0
M  V30 7145 O 683.736 -1.85431 -0.586979 0
M  V30 7146 C 684.019 -2.11966 2.91105 0
M  V30 7147 C 683.872 -1.39939 4.27478 0
M  V30 7148 C 685.191 -3.1243 3.09961 0
M  V30 7149 H 682.31 -0.412707 0.610608 0
M  V30 7150 H 684.952 -0.422725 1.85238 0
M  V30 7151 H 683.102 -2.73048 2.76364 0
M  V30 7152 H 684.774 -0.818439 4.53982 0
M  V30 7153 H 683.017 -0.701246 4.28095 0
M  V30 7154 H 683.688 -2.1158 5.09841 0
M  V30 7155 H 686.164 -2.61435 3.23714 0
M  V30 7156 H 685.04 -3.78294 3.97725 0
M  V30 7157 H 685.301 -3.81127 2.24042 0
M  V30 7158 N 684.36 -1.4356 -0.65026 0
M  V30 7159 C 685.323 -1.48615 -1.74489 0
M  V30 7160 C 686.323 -0.370483 -1.56474 0
M  V30 7161 O 687.513 -0.632351 -1.62317 0
M  V30 7162 C 684.645 -1.34161 -3.13391 0
M  V30 7163 H 685.838 -2.46103 -1.71387 0
M  V30 7164 H 683.391 -1.30369 -0.862186 0
M  V30 7165 H 684.126 -0.376918 -3.22102 0
M  V30 7166 H 683.911 -2.1504 -3.27872 0
M  V30 7167 H 685.401 -1.40637 -3.93206 0
M  V30 7168 N 685.838 0.888903 -1.30139 0
M  V30 7169 C 686.768 2.01046 -1.18755 0
M  V30 7170 C 687.749 1.69916 -0.0791438 0
M  V30 7171 O 688.934 1.92445 -0.260498 0
M  V30 7172 C 686.064 3.36109 -0.874518 0
M  V30 7173 C 685.018 3.81486 -1.94043 0
M  V30 7174 C 684.344 5.13796 -1.48047 0
M  V30 7175 C 685.644 4.00637 -3.35093 0
M  V30 7176 H 687.338 2.10828 -2.12584 0
M  V30 7177 H 684.884 1.01298 -1.02346 0
M  V30 7178 H 686.837 4.14089 -0.781548 0
M  V30 7179 H 685.561 3.26449 0.0994519 0
M  V30 7180 H 684.22 3.05731 -2.02297 0
M  V30 7181 H 683.868 5.0056 -0.494878 0
M  V30 7182 H 683.568 5.45127 -2.19341 0
M  V30 7183 H 685.092 5.94305 -1.40121 0
M  V30 7184 H 686.506 4.69067 -3.2962 0
M  V30 7185 H 684.903 4.43339 -4.04438 0
M  V30 7186 H 685.973 3.0462 -3.77273 0
M  V30 7187 N 687.317 1.12792 1.10072 0
M  V30 7188 C 688.545 0.908506 1.85886 0
M  V30 7189 C 688.96 -0.542408 1.80841 0
M  V30 7190 O 688.317 -1.37517 1.1998 0
M  V30 7191 C 688.368 1.37973 3.34134 0
M  V30 7192 O 688.089 2.77378 3.39106 0
M  V30 7193 C 689.59 1.1978 4.26811 0
M  V30 7194 H 686.81 0.3244 0.587372 0
M  V30 7195 H 689.354 1.49882 1.39125 0
M  V30 7196 H 687.509 0.832566 3.78348 0
M  V30 7197 H 687.923 2.98144 4.31521 0
M  V30 7198 H 689.397 1.57635 5.29014 0
M  V30 7199 H 689.874 0.138768 4.38981 0
M  V30 7200 H 690.48 1.73266 3.88406 0
M  V30 7201 N 688.795 -1.27931 0.920396 0
M  V30 7202 C 690.072 -1.89728 0.475687 0
M  V30 7203 C 690.452 -1.8337 -1.04588 0
M  V30 7204 O 689.8 -1.27404 -1.89685 0
M  V30 7205 C 690.01 -3.33959 1.01354 0
M  V30 7206 C 691.358 -4.10907 1.06963 0
M  V30 7207 O 692.382 -3.42945 0.962646 0
M  V30 7208 O 691.241 -5.32399 1.23343 0
M  V30 7209 H 688.335 -0.81294 0.151845 0
M  V30 7210 H 690.881 -1.36252 1.01161 0
M  V30 7211 H 689.653 -3.32843 2.05746 0
M  V30 7212 H 689.276 -3.94944 0.458829 0
M  V30 7213 N 690.273 -0.685099 -1.4193 0
M  V30 7214 C 691.236 -0.0222632 -2.29189 0
M  V30 7215 C 692.236 0.7186 -1.4385 0
M  V30 7216 O 693.426 0.555058 -1.6512 0
M  V30 7217 C 690.558 0.979013 -3.2654 0
M  V30 7218 H 691.751 -0.790424 -2.89296 0
M  V30 7219 H 689.304 -0.448012 -1.49742 0
M  V30 7220 H 690.039 1.77531 -2.71392 0
M  V30 7221 H 689.824 0.451037 -3.89497 0
M  V30 7222 H 691.314 1.44091 -3.91954 0
M  V30 7223 N 691.751 1.51645 -0.429126 0
M  V30 7224 C 692.683 2.25279 0.422124 0
M  V30 7225 C 693.696 1.28986 0.993299 0
M  V30 7226 O 694.885 1.54797 0.888836 0
M  V30 7227 C 691.985 2.98666 1.60162 0
M  V30 7228 C 691.158 4.2199 1.15078 0
M  V30 7229 C 690.217 4.78028 2.19946 0
M  V30 7230 O 689.243 5.40084 1.79716 0
M  V30 7231 N 690.445 4.61342 3.5234 0
M  V30 7232 H 693.21 2.98971 -0.208931 0
M  V30 7233 H 690.771 1.59838 -0.257568 0
M  V30 7234 H 692.763 3.33044 2.29922 0
M  V30 7235 H 691.333 2.28036 2.13818 0
M  V30 7236 H 690.553 3.932 0.280552 0
M  V30 7237 H 691.841 5.02037 0.826831 0
M  V30 7238 H 691.239 4.11894 3.87763 0
M  V30 7239 H 689.796 5.00104 4.18019 0
M  V30 7240 N 693.229 0.160201 1.56784 0
M  V30 7241 C 694.159 -0.770264 2.2043 0
M  V30 7242 C 695.14 -1.24736 1.15651 0
M  V30 7243 O 696.325 -1.30253 1.44041 0
M  V30 7244 C 693.455 -2.00427 2.83631 0
M  V30 7245 C 692.409 -1.66345 3.94352 0
M  V30 7246 C 691.735 -2.97119 4.4455 0
M  V30 7247 C 693.035 -0.899972 5.14488 0
M  V30 7248 H 694.729 -0.239783 2.98438 0
M  V30 7249 H 692.275 -0.113891 1.43549 0
M  V30 7250 H 694.228 -2.66012 3.26827 0
M  V30 7251 H 692.952 -2.5587 2.02973 0
M  V30 7252 H 691.611 -1.03133 3.51794 0
M  V30 7253 H 691.259 -3.5058 3.60698 0
M  V30 7254 H 690.959 -2.75073 5.19238 0
M  V30 7255 H 692.483 -3.63753 4.90425 0
M  V30 7256 H 693.897 -1.45818 5.54446 0
M  V30 7257 H 692.294 -0.778968 5.95023 0
M  V30 7258 H 693.364 0.105827 4.84785 0
M  V30 7259 N 694.707 -1.5719 -0.113559 0
M  V30 7260 C 695.654 -2.00736 -1.13901 0
M  V30 7261 C 696.624 -0.88044 -1.40846 0
M  V30 7262 O 697.809 -1.14507 -1.5262 0
M  V30 7263 C 694.949 -2.42132 -2.45899 0
M  V30 7264 C 694.062 -3.68264 -2.25844 0
M  V30 7265 C 693.197 -3.98617 -3.5111 0
M  V30 7266 C 692.236 -5.17915 -3.26236 0
M  V30 7267 N 691.373 -5.44111 -4.4372 0
M  V30 7268 H 696.213 -2.88128 -0.760677 0
M  V30 7269 H 693.75 -1.42523 -0.364099 0
M  V30 7270 H 695.708 -2.6417 -3.22908 0
M  V30 7271 H 694.338 -1.57775 -2.81615 0
M  V30 7272 H 693.39 -3.53809 -1.39726 0
M  V30 7273 H 694.702 -4.55425 -2.03444 0
M  V30 7274 H 693.856 -4.21333 -4.36536 0
M  V30 7275 H 692.595 -3.09942 -3.76546 0
M  V30 7276 H 691.6 -4.95038 -2.39202 0
M  V30 7277 H 692.825 -6.08172 -3.02165 0
M  V30 7278 H 690.771 -4.58394 -4.69266 0
M  V30 7279 H 690.688 -6.25606 -4.24444 0
M  V30 7280 H 691.956 -5.71351 -5.30263 0
M  V30 7281 N 696.185 0.383891 -1.52853 0
M  V30 7282 C 697.148 1.45197 -1.77343 0
M  V30 7283 C 698.148 1.47362 -0.643522 0
M  V30 7284 O 699.338 1.48443 -0.911613 0
M  V30 7285 C 696.47 2.8445 -1.87885 0
M  V30 7286 H 697.663 1.24764 -2.72716 0
M  V30 7287 H 695.216 0.615939 -1.43652 0
M  V30 7288 H 695.951 3.10222 -0.94515 0
M  V30 7289 H 695.736 2.8428 -2.70051 0
M  V30 7290 H 697.226 3.61832 -2.08488 0
M  V30 7291 N 697.663 1.43903 0.642637 0
M  V30 7292 C 698.573 1.52349 1.78401 0
M  V30 7293 C 699.589 0.409869 1.69104 0
M  V30 7294 O 700.765 0.665548 1.90085 0
M  V30 7295 C 697.83 1.45408 3.14734 0
M  V30 7296 C 696.891 2.67528 3.35749 0
M  V30 7297 C 696.124 2.60909 4.65577 0
M  V30 7298 O 696.347 1.6627 5.45628 0
M  V30 7299 O 695.281 3.5158 4.88544 0
M  V30 7300 H 699.107 2.48752 1.7423 0
M  V30 7301 H 696.692 1.26021 0.802439 0
M  V30 7302 H 698.574 1.44019 3.96026 0
M  V30 7303 H 697.249 0.521437 3.19473 0
M  V30 7304 H 696.156 2.74487 2.5418 0
M  V30 7305 H 697.489 3.598 3.35864 0
M  V30 7306 N 699.141 -0.881989 1.30609 0
M  V30 7307 C 700.104 -1.96957 1.1722 0
M  V30 7308 C 701.104 -1.60472 0.102598 0
M  V30 7309 O 702.294 -1.70628 0.350943 0
M  V30 7310 C 699.426 -3.31463 0.796572 0
M  V30 7311 H 700.619 -2.10262 2.13846 0
M  V30 7312 H 698.172 -1.06877 1.14048 0
M  V30 7313 H 698.907 -3.23859 -0.169053 0
M  V30 7314 H 698.692 -3.59314 1.56959 0
M  V30 7315 H 700.182 -4.11233 0.72645 0
M  V30 7316 N 700.619 -1.13374 -1.09472 0
M  V30 7317 C 701.529 -0.824029 -2.19652 0
M  V30 7318 C 702.545 0.19118 -1.72947 0
M  V30 7319 O 703.721 0.0223464 -2.01388 0
M  V30 7320 C 700.786 -0.294009 -3.45451 0
M  V30 7321 C 699.847 -1.3704 -4.0684 0
M  V30 7322 C 699.08 -0.86558 -5.26634 0
M  V30 7323 O 699.303 0.29702 -5.69626 0
M  V30 7324 O 698.237 -1.63968 -5.79136 0
M  V30 7325 H 702.063 -1.74454 -2.48595 0
M  V30 7326 H 699.648 -0.911155 -1.18399 0
M  V30 7327 H 701.53 -0.00381039 -4.214 0
M  V30 7328 H 700.205 0.598921 -3.18111 0
M  V30 7329 H 699.112 -1.71391 -3.3253 0
M  V30 7330 H 700.445 -2.23746 -4.38405 0
M  V30 7331 N 702.098 1.27442 -0.927168 0
M  V30 7332 C 703.346 1.94007 -0.566203 0
M  V30 7333 C 703.667 1.7323 0.895345 0
M  V30 7334 O 702.937 1.07973 1.63459 0
M  V30 7335 H 701.517 0.717917 -0.206409 0
M  V30 7336 H 704.179 1.55161 -1.17945 0
M  V30 7337 H 703.275 3.02401 -0.772028 0
M  V30 7338 N 703.576 0.692616 1.41565 0
M  V30 7339 C 704.853 0.150496 1.9502 0
M  V30 7340 C 705.233 -1.33881 1.63215 0
M  V30 7341 O 704.581 -2.08378 0.937598 0
M  V30 7342 C 704.791 0.438636 3.46233 0
M  V30 7343 C 706.139 0.364777 4.2303 0
M  V30 7344 O 707.163 0.373383 3.54238 0
M  V30 7345 O 706.022 0.32234 5.45549 0
M  V30 7346 H 703.116 0.0132454 0.826894 0
M  V30 7347 H 705.662 0.768574 1.51298 0
M  V30 7348 H 704.434 1.46962 3.62654 0
M  V30 7349 H 704.057 -0.210562 3.97042 0
M  V30 7350 N 705.054 -1.51416 0.437162 0
M  V30 7351 C 705.964 -2.31493 -0.380537 0
M  V30 7352 C 706.98 -1.40399 -1.02782 0
M  V30 7353 O 708.156 -1.73471 -1.02323 0
M  V30 7354 C 705.221 -3.1413 -1.46709 0
M  V30 7355 C 704.282 -4.21003 -0.839953 0
M  V30 7356 C 703.515 -4.9969 -1.87473 0
M  V30 7357 O 703.738 -4.79008 -3.09689 0
M  V30 7358 O 702.672 -5.8379 -1.46536 0
M  V30 7359 H 706.498 -3.02469 0.273183 0
M  V30 7360 H 704.083 -1.48059 0.199706 0
M  V30 7361 H 705.965 -3.65505 -2.09724 0
M  V30 7362 H 704.64 -2.45919 -2.10489 0
M  V30 7363 H 703.547 -3.73706 -0.171752 0
M  V30 7364 H 704.88 -4.91587 -0.245638 0
M  V30 7365 N 706.532 -0.168513 -1.56696 0
M  V30 7366 C 707.479 0.762875 -2.17828 0
M  V30 7367 C 708.449 1.22892 -1.11745 0
M  V30 7368 O 709.634 1.29759 -1.39883 0
M  V30 7369 C 706.774 1.9879 -2.82093 0
M  V30 7370 C 705.887 1.56568 -4.02629 0
M  V30 7371 C 705.022 2.74416 -4.54829 0
M  V30 7372 C 704.061 2.28671 -5.67782 0
M  V30 7373 N 703.198 3.39602 -6.14504 0
M  V30 7374 H 708.038 0.23479 -2.97074 0
M  V30 7375 H 705.575 0.104163 -1.46731 0
M  V30 7376 H 707.533 2.70636 -3.17509 0
M  V30 7377 H 706.163 2.48973 -2.05456 0
M  V30 7378 H 705.215 0.744067 -3.73052 0
M  V30 7379 H 706.527 1.18988 -4.844 0
M  V30 7380 H 705.681 3.54423 -4.92412 0
M  V30 7381 H 704.42 3.15254 -3.7211 0
M  V30 7382 H 703.425 1.4711 -5.29753 0
M  V30 7383 H 704.65 1.88894 -6.52301 0
M  V30 7384 H 702.596 3.80021 -5.34715 0
M  V30 7385 H 702.513 3.06105 -6.91257 0
M  V30 7386 H 703.781 4.19902 -6.56737 0
M  V30 7387 N 708.01 1.57248 0.105221 0
M  V30 7388 C 709.235 1.90143 0.828264 0
M  V30 7389 C 709.66 0.761811 1.71983 0
M  V30 7390 O 709.018 -0.287086 1.79013 0
M  V30 7391 C 709.066 3.21856 1.62608 0
M  V30 7392 O 708.17 3.08732 2.7342 0
M  V30 7393 H 707.511 0.623558 0.228192 0
M  V30 7394 H 710.041 2.0443 0.0834826 0
M  V30 7395 H 710.051 3.54916 2.01243 0
M  V30 7396 H 708.726 4.0439 0.971687 0
M  V30 7397 H 707.303 2.87167 2.37886 0
M  V30 7398 N 709.488 -0.375779 1.53054 0
M  V30 7399 C 710.418 -1.46598 1.81745 0
M  V30 7400 C 711.399 -1.56337 0.670286 0
M  V30 7401 O 712.584 -1.71071 0.919158 0
M  V30 7402 C 709.714 -2.84058 1.99821 0
M  V30 7403 C 708.668 -2.8915 3.15557 0
M  V30 7404 C 707.994 -4.29187 3.18908 0
M  V30 7405 C 709.294 -2.57595 4.54359 0
M  V30 7406 H 710.988 -1.22837 2.73041 0
M  V30 7407 H 708.534 -0.589485 1.31381 0
M  V30 7408 H 710.487 -3.60342 2.18475 0
M  V30 7409 H 709.211 -3.09184 1.05226 0
M  V30 7410 H 707.87 -2.15316 2.96706 0
M  V30 7411 H 707.518 -4.51374 2.2197 0
M  V30 7412 H 707.218 -4.33512 3.96662 0
M  V30 7413 H 708.742 -5.07359 3.39734 0
M  V30 7414 H 710.156 -3.23595 4.73243 0
M  V30 7415 H 708.553 -2.73252 5.34279 0
M  V30 7416 H 709.623 -1.52882 4.60169 0
M  V30 7417 N 710.966 -1.44241 -0.634997 0
M  V30 7418 C 711.929 -1.50457 -1.72903 0
M  V30 7419 C 712.929 -0.387058 -1.56072 0
M  V30 7420 O 714.119 -0.649531 -1.61638 0
M  V30 7421 C 711.251 -1.37477 -3.1195 0
M  V30 7422 H 712.444 -2.47907 -1.68767 0
M  V30 7423 H 709.997 -1.31276 -0.84831 0
M  V30 7424 H 710.732 -0.41106 -3.21684 0
M  V30 7425 H 710.517 -2.18506 -3.25573 0
M  V30 7426 H 712.007 -1.44799 -3.91692 0
M  V30 7427 N 712.444 0.87505 -1.31075 0
M  V30 7428 C 713.69 1.63009 -1.20647 0
M  V30 7429 C 714.023 1.9276 0.236045 0
M  V30 7430 O 713.298 1.55559 1.16754 0
M  V30 7431 C 713.581 2.96357 -2.0456 0
M  V30 7432 C 713.434 2.73516 -3.57084 0
M  V30 7433 C 714.753 3.974 -1.89107 0
M  V30 7434 H 711.872 0.591518 -0.439631 0
M  V30 7435 H 714.514 1.0119 -1.60812 0
M  V30 7436 H 712.664 3.49119 -1.70435 0
M  V30 7437 H 714.336 2.27465 -4.01319 0
M  V30 7438 H 712.579 2.0784 -3.80769 0
M  V30 7439 H 713.25 3.68377 -4.11099 0
M  V30 7440 H 715.726 3.5383 -2.18961 0
M  V30 7441 H 714.602 4.88596 -2.5013 0
M  V30 7442 H 714.863 4.33794 -0.85296 0
M  V30 7443 N 713.922 1.13953 1.08869 0
M  V30 7444 C 714.885 0.824991 2.13838 0
M  V30 7445 C 715.885 -0.168198 1.59918 0
M  V30 7446 O 717.075 0.0595778 1.74098 0
M  V30 7447 C 714.207 0.228938 3.4013 0
M  V30 7448 H 715.4 1.75521 2.43171 0
M  V30 7449 H 712.953 0.94492 1.24503 0
M  V30 7450 H 713.688 -0.710227 3.16427 0
M  V30 7451 H 713.473 0.944243 3.80561 0
M  V30 7452 H 714.963 0.0259223 4.17592 0
M  V30 7453 N 715.4 -1.26948 0.933913 0
M  V30 7454 C 716.648 -1.93704 0.576484 0
M  V30 7455 C 716.969 -1.73702 -0.886145 0
M  V30 7456 O 716.239 -1.08838 -1.62884 0
M  V30 7457 H 714.819 -0.716812 0.210214 0
M  V30 7458 H 717.481 -1.54534 1.18766 0
M  V30 7459 H 716.577 -3.01987 0.788055 0
M  V30 7460 N 716.879 -0.700114 -1.41195 0
M  V30 7461 C 718.29 -0.307249 -1.84154 0
M  V30 7462 C 718.641 1.15539 -1.58572 0
M  V30 7463 O 717.766 1.88744 -1.05852 0
M  V30 7464 C 718.361 -0.550872 -3.34292 0
M  V30 7465 C 716.92 -0.211877 -3.75803 0
M  V30 7466 C 716.067 -0.830915 -2.64558 0
M  V30 7467 H 719.018 -0.900431 -1.30683 0
M  V30 7468 H 719.039 0.188954 -3.80031 0
M  V30 7469 H 718.551 -1.61548 -3.5288 0
M  V30 7470 H 716.652 0.848283 -3.62815 0
M  V30 7471 H 716.765 -0.67007 -4.74391 0
M  V30 7472 H 715.129 -0.260155 -2.53368 0
M  V30 7473 H 715.912 -1.89948 -2.85963 0
M  V30 7474 N 718.357 1.51182 -0.445186 0
M  V30 7475 C 719.603 2.02452 0.11882 0
M  V30 7476 C 719.936 1.32824 1.41673 0
M  V30 7477 O 719.211 0.445637 1.89326 0
M  V30 7478 C 719.494 3.5859 0.329475 0
M  V30 7479 C 719.347 4.38823 -0.987638 0
M  V30 7480 C 720.666 4.26241 1.09575 0
M  V30 7481 H 717.785 0.735819 0.0417092 0
M  V30 7482 H 720.427 1.80747 -0.585718 0
M  V30 7483 H 718.577 3.77214 0.9296 0
M  V30 7484 H 720.249 4.3183 -1.62235 0
M  V30 7485 H 718.492 4.03594 -1.59041 0
M  V30 7486 H 719.163 5.46257 -0.794192 0
M  V30 7487 H 721.639 4.11934 0.587328 0
M  V30 7488 H 720.515 5.35354 1.21191 0
M  V30 7489 H 720.776 3.87635 2.12584 0
M  V30 7490 N 719.835 0.176821 1.56605 0
M  V30 7491 C 721.063 -0.472828 2.01425 0
M  V30 7492 C 721.478 -1.56436 1.05703 0
M  V30 7493 O 720.835 -1.82405 0.058808 0
M  V30 7494 C 720.886 -1.04607 3.46034 0
M  V30 7495 O 720.607 0.00189608 4.381 0
M  V30 7496 C 722.108 -1.7734 4.06282 0
M  V30 7497 H 719.328 -0.120503 0.660091 0
M  V30 7498 H 721.872 0.280166 2.02572 0
M  V30 7499 H 720.027 -1.74953 3.45645 0
M  V30 7500 H 720.441 -0.422118 5.22799 0
M  V30 7501 H 721.915 -2.12703 5.09374 0
M  V30 7502 H 722.392 -2.67043 3.4869 0
M  V30 7503 H 722.998 -1.11623 4.10391 0
M  V30 7504 N 721.313 -1.57302 -0.09688 0
M  V30 7505 C 722.543 -1.89926 -0.813114 0
M  V30 7506 C 722.951 -0.76852 -1.72888 0
M  V30 7507 O 722.294 0.268549 -1.81726 0
M  V30 7508 C 722.356 -3.17787 -1.68082 0
M  V30 7509 C 722.02 -4.4729 -0.937061 0
M  V30 7510 C 723.017 -5.1921 -0.267687 0
M  V30 7511 C 720.702 -4.93957 -0.911671 0
M  V30 7512 C 722.696 -6.36034 0.417129 0
M  V30 7513 C 720.383 -6.10693 -0.223068 0
M  V30 7514 C 721.381 -6.8158 0.440155 0
M  V30 7515 O 721.069 -7.96092 1.11772 0
M  V30 7516 H 720.801 -0.632783 -0.237828 0
M  V30 7517 H 723.355 -2.05248 -0.0790818 0
M  V30 7518 H 721.585 -2.98607 -2.45705 0
M  V30 7519 H 723.274 -3.36257 -2.27346 0
M  V30 7520 H 724.04 -4.84198 -0.278774 0
M  V30 7521 H 719.919 -4.38671 -1.41734 0
M  V30 7522 H 723.463 -6.91301 0.93537 0
M  V30 7523 H 719.36 -6.45159 -0.209821 0
M  V30 7524 H 720.128 -8.12064 1.02443 0
M  V30 7525 N 722.791 0.367657 -1.53252 0
M  V30 7526 C 723.739 1.47061 -1.8021 0
M  V30 7527 C 724.733 1.55539 -0.671112 0
M  V30 7528 O 725.939 1.58451 -0.854014 0
M  V30 7529 H 722.314 0.489868 -0.570555 0
M  V30 7530 H 724.285 1.21527 -2.72532 0
M  V30 7531 C 723.034 2.83924 -2.00706 0
M  V30 7532 H 722.357 2.78158 -2.87172 0
M  V30 7533 H 723.797 3.60281 -2.23547 0
M  V30 7534 C 722.256 3.27613 -0.785568 0
M  V30 7535 O 722.786 4.01691 0.0267459 0
M  V30 7536 N 720.992 2.84134 -0.609597 0
M  V30 7537 H 720.539 2.24017 -1.27178 0
M  V30 7538 H 720.497 3.13723 0.206281 0
M  V30 7539 N 724.269 1.44576 0.627338 0
M  V30 7540 C 725.515 1.47777 1.38888 0
M  V30 7541 C 725.848 0.111406 1.9388 0
M  V30 7542 O 725.123 -0.87149 1.73883 0
M  V30 7543 C 725.406 2.54119 2.55138 0
M  V30 7544 C 725.259 4.00128 2.0547 0
M  V30 7545 C 726.578 2.56929 3.57317 0
M  V30 7546 H 723.697 0.538048 0.50366 0
M  V30 7547 H 726.339 1.76277 0.708978 0
M  V30 7548 H 724.489 2.29948 3.13139 0
M  V30 7549 H 726.161 4.35444 1.5227 0
M  V30 7550 H 724.404 4.11724 1.36623 0
M  V30 7551 H 725.075 4.7019 2.89181 0
M  V30 7552 H 727.551 2.78536 3.09122 0
M  V30 7553 H 726.427 3.33234 4.36173 0
M  V30 7554 H 726.688 1.6127 4.11636 0
M  V30 7555 N 725.747 -0.868086 1.31537 0
M  V30 7556 C 726.695 -1.99688 1.1928 0
M  V30 7557 C 727.689 -1.69101 0.100656 0
M  V30 7558 O 728.895 -1.78073 0.262677 0
M  V30 7559 H 725.27 -0.655032 0.369374 0
M  V30 7560 H 727.241 -2.07157 2.14776 0
M  V30 7561 C 725.99 -3.35338 0.918892 0
M  V30 7562 H 725.313 -3.59396 1.75142 0
M  V30 7563 H 726.753 -4.14909 0.873311 0
M  V30 7564 C 725.212 -3.34769 -0.378366 0
M  V30 7565 O 725.742 -3.76716 -1.39456 0
M  V30 7566 N 723.948 -2.87895 -0.39557 0
M  V30 7567 H 723.495 -2.53954 0.431889 0
M  V30 7568 H 723.453 -2.87897 -1.26344 0
M  V30 7569 N 727.225 -1.14528 -1.08264 0
M  V30 7570 C 728.471 -0.91576 -1.80947 0
M  V30 7571 C 728.804 0.55623 -1.86064 0
M  V30 7572 O 728.079 1.41207 -1.33756 0
M  V30 7573 C 728.362 -1.51917 -3.26486 0
M  V30 7574 C 728.215 -3.06111 -3.2957 0
M  V30 7575 C 729.534 -1.19724 -4.23502 0
M  V30 7576 H 726.653 -0.334113 -0.656915 0
M  V30 7577 H 729.295 -1.41547 -1.26746 0
M  V30 7578 H 727.445 -1.0942 -3.72773 0
M  V30 7579 H 729.117 -3.57448 -2.91597 0
M  V30 7580 H 727.36 -3.40483 -2.688 0
M  V30 7581 H 728.031 -3.43438 -4.32151 0
M  V30 7582 H 730.507 -1.56467 -3.85561 0
M  V30 7583 H 729.383 -1.64575 -5.23647 0
M  V30 7584 H 729.644 -0.112771 -4.41956 0
M  V30 7585 N 728.703 1.26451 -0.940633 0
M  V30 7586 C 729.951 1.93395 -0.586748 0
M  V30 7587 C 730.272 1.7417 0.876921 0
M  V30 7588 O 729.542 1.097 1.62304 0
M  V30 7589 H 728.122 0.715687 -0.214012 0
M  V30 7590 H 730.784 1.53902 -1.19584 0
M  V30 7591 H 729.88 3.01565 -0.804059 0
M  V30 7592 N 730.181 0.707592 1.40822 0
M  V30 7593 C 731.429 0.243189 2.00632 0
M  V30 7594 C 731.75 -1.16512 1.56365 0
M  V30 7595 O 731.02 -1.78841 0.799553 0
M  V30 7596 H 729.6 0.0869203 0.741926 0
M  V30 7597 H 732.262 0.911438 1.72275 0
M  V30 7598 H 731.358 0.270014 3.1093 0
M  V30 7599 N 731.66 -1.50943 0.453197 0
M  V30 7600 C 732.888 -2.06628 -0.106135 0
M  V30 7601 C 733.303 -1.31901 -1.35084 0
M  V30 7602 O 732.66 -0.383074 -1.78434 0
M  V30 7603 C 732.711 -3.5914 -0.412368 0
M  V30 7604 O 732.432 -4.31047 0.782948 0
M  V30 7605 C 733.933 -4.31391 -1.02064 0
M  V30 7606 H 731.153 -0.670999 -0.000885896 0
M  V30 7607 H 733.697 -1.94331 0.63684 0
M  V30 7608 H 731.852 -3.71299 -1.10526 0
M  V30 7609 H 732.266 -5.21948 0.516736 0
M  V30 7610 H 733.74 -5.39135 -1.1848 0
M  V30 7611 H 734.217 -3.90714 -2.00598 0
M  V30 7612 H 734.823 -4.23716 -0.366664 0
M  V30 7613 N 733.138 -0.185124 -1.56509 0
M  V30 7614 C 734.384 0.456934 -1.97585 0
M  V30 7615 C 734.717 1.61957 -1.07161 0
M  V30 7616 O 733.992 1.9412 -0.121546 0
M  V30 7617 C 734.275 0.926666 -3.47973 0
M  V30 7618 C 734.128 -0.237097 -4.49175 0
M  V30 7619 C 735.447 1.79561 -4.01803 0
M  V30 7620 H 732.566 0.164619 -0.71838 0
M  V30 7621 H 735.208 -0.274039 -1.88013 0
M  V30 7622 H 733.358 1.54954 -3.56261 0
M  V30 7623 H 735.03 -0.87454 -4.52934 0
M  V30 7624 H 733.273 -0.890446 -4.24563 0
M  V30 7625 H 733.944 0.133924 -5.51838 0
M  V30 7626 H 736.42 1.27039 -3.96232 0
M  V30 7627 H 735.296 2.09327 -5.07418 0
M  V30 7628 H 735.557 2.74629 -3.46455 0
M  V30 7629 N 734.616 1.57351 0.0885366 0
M  V30 7630 C 736.032 1.53331 0.442916 0
M  V30 7631 C 736.232 0.902831 1.80142 0
M  V30 7632 O 735.288 0.498147 2.47537 0
M  V30 7633 C 736.601 2.98036 0.399372 0
M  V30 7634 C 738.149 3.09286 0.480759 0
M  V30 7635 C 738.624 4.5561 0.467296 0
M  V30 7636 N 740.115 4.60182 0.52786 0
M  V30 7637 C 740.85 5.70857 0.539388 0
M  V30 7638 N 740.346 6.90944 0.506729 0
M  V30 7639 N 742.139 5.59051 0.584691 0
M  V30 7640 H 734.29 1.96709 -0.801215 0
M  V30 7641 H 736.553 0.899639 -0.298922 0
M  V30 7642 H 736.259 3.47656 -0.531806 0
M  V30 7643 H 736.133 3.57066 1.21589 0
M  V30 7644 H 738.52 2.5965 1.40236 0
M  V30 7645 H 738.601 2.53197 -0.364023 0
M  V30 7646 H 738.245 5.05899 -0.450384 0
M  V30 7647 H 738.175 5.09544 1.32938 0
M  V30 7648 H 740.666 3.73757 0.558028 0
M  V30 7649 H 740.979 7.71055 0.518989 0
M  V30 7650 H 739.324 6.93384 0.473675 0
M  V30 7651 H 742.515 4.64138 0.607781 0
M  V30 7652 H 742.688 6.45307 0.590206 0
M  V30 7653 N 736.094 -0.359525 1.53444 0
M  V30 7654 C 737.004 -1.46445 1.83278 0
M  V30 7655 C 738.02 -1.5833 0.721629 0
M  V30 7656 O 739.196 -1.7411 1.01231 0
M  V30 7657 C 736.261 -2.81638 2.02191 0
M  V30 7658 C 735.322 -2.7923 3.26082 0
M  V30 7659 C 734.555 -4.07974 3.44082 0
M  V30 7660 O 734.778 -5.04447 2.66251 0
M  V30 7661 O 733.712 -4.13417 4.37458 0
M  V30 7662 H 737.538 -1.24156 2.77162 0
M  V30 7663 H 735.123 -0.550201 1.389 0
M  V30 7664 H 737.005 -3.61732 2.16167 0
M  V30 7665 H 735.68 -3.03892 1.11496 0
M  V30 7666 H 734.587 -1.97813 3.17523 0
M  V30 7667 H 735.92 -2.6193 4.16718 0
M  V30 7668 N 737.572 -1.44907 -0.619662 0
M  V30 7669 C 738.818 -1.48512 -1.38102 0
M  V30 7670 C 739.151 -0.121686 -1.93818 0
M  V30 7671 O 738.426 0.862256 -1.74343 0
M  V30 7672 C 738.709 -2.55469 -2.53787 0
M  V30 7673 C 738.562 -4.01212 -2.03345 0
M  V30 7674 C 739.881 -2.58821 -3.55949 0
M  V30 7675 H 737 -0.540712 -0.500799 0
M  V30 7676 H 739.642 -1.7665 -0.69962 0
M  V30 7677 H 737.792 -2.31606 -3.11915 0
M  V30 7678 H 739.464 -4.36245 -1.49959 0
M  V30 7679 H 737.707 -4.12443 -1.34438 0
M  V30 7680 H 738.378 -4.71717 -2.86683 0
M  V30 7681 H 740.854 -2.80172 -3.07641 0
M  V30 7682 H 739.73 -3.35542 -4.34399 0
M  V30 7683 H 739.991 -1.63451 -4.10775 0
M  V30 7684 N 739.05 0.861098 -1.31996 0
M  V30 7685 C 740.278 1.6474 -1.25173 0
M  V30 7686 C 740.693 1.87926 0.181425 0
M  V30 7687 O 740.05 1.4437 1.1164 0
M  V30 7688 C 740.101 3.01036 -2.0015 0
M  V30 7689 O 739.822 2.7888 -3.37872 0
M  V30 7690 C 741.323 3.95481 -2.00273 0
M  V30 7691 H 738.543 0.513314 -0.432146 0
M  V30 7692 H 741.087 1.07419 -1.74016 0
M  V30 7693 H 739.242 3.55021 -1.55046 0
M  V30 7694 H 739.656 3.65514 -3.76165 0
M  V30 7695 H 741.13 4.88403 -2.57229 0
M  V30 7696 H 741.607 4.27957 -0.987407 0
M  V30 7697 H 742.213 3.47433 -2.45296 0
M  V30 7698 N 740.528 1.15101 1.07655 0
M  V30 7699 C 741.774 0.925343 1.80458 0
M  V30 7700 C 742.107 -0.546354 1.86356 0
M  V30 7701 O 741.382 -1.40496 1.34503 0
M  V30 7702 C 741.665 1.53646 3.25676 0
M  V30 7703 C 741.518 3.07854 3.27942 0
M  V30 7704 C 742.837 1.21968 4.22861 0
M  V30 7705 H 739.956 0.337592 0.655134 0
M  V30 7706 H 742.598 1.42217 1.25993 0
M  V30 7707 H 740.748 1.11395 3.72187 0
M  V30 7708 H 742.42 3.58989 2.89697 0
M  V30 7709 H 740.663 3.41904 2.66991 0
M  V30 7710 H 741.334 3.45725 4.30324 0
M  V30 7711 H 743.81 1.5851 3.84726 0
M  V30 7712 H 742.686 1.67349 5.22767 0
M  V30 7713 H 742.947 0.136207 4.4189 0
M  V30 7714 N 742.006 -1.2595 0.947325 0
M  V30 7715 C 742.938 -2.25336 0.41906 0
M  V30 7716 C 743.951 -1.56135 -0.461051 0
M  V30 7717 O 745.14 -1.76438 -0.270505 0
M  V30 7718 C 742.24 -3.36334 -0.416233 0
M  V30 7719 C 741.413 -4.35088 0.449162 0
M  V30 7720 C 740.472 -5.25185 -0.326716 0
M  V30 7721 O 739.498 -5.68548 0.272374 0
M  V30 7722 N 740.7 -5.57388 -1.6217 0
M  V30 7723 H 743.465 -2.71298 1.27348 0
M  V30 7724 H 741.026 -1.39781 0.81688 0
M  V30 7725 H 743.018 -3.93564 -0.942826 0
M  V30 7726 H 741.588 -2.89819 -1.17148 0
M  V30 7727 H 740.808 -3.76841 1.15692 0
M  V30 7728 H 742.096 -4.98056 1.04008 0
M  V30 7729 H 741.494 -5.2405 -2.13046 0
M  V30 7730 H 740.051 -6.17234 -2.0944 0
M  V30 7731 N 743.484 -0.715051 -1.40445 0
M  V30 7732 C 744.416 -0.0227516 -2.29189 0
M  V30 7733 C 745.429 0.724313 -1.458 0
M  V30 7734 O 746.618 0.571781 -1.69094 0
M  V30 7735 C 743.718 0.992038 -3.24055 0
M  V30 7736 C 742.891 0.310613 -4.36296 0
M  V30 7737 C 741.95 1.23071 -5.11605 0
M  V30 7738 O 740.976 0.71571 -5.64682 0
M  V30 7739 N 742.178 2.56188 -5.2091 0
M  V30 7740 H 744.943 -0.78473 -2.89244 0
M  V30 7741 H 742.504 -0.562637 -1.51809 0
M  V30 7742 H 744.496 1.60973 -3.71308 0
M  V30 7743 H 743.066 1.65538 -2.65171 0
M  V30 7744 H 742.286 -0.487269 -3.91177 0
M  V30 7745 H 743.574 -0.162415 -5.08541 0
M  V30 7746 H 742.972 3.00527 -4.7927 0
M  V30 7747 H 741.529 3.13103 -5.71673 0
M  V30 7748 N 744.962 1.50701 -0.461195 0
M  V30 7749 C 745.925 2.2686 0.326679 0
M  V30 7750 C 746.925 1.31243 0.929085 0
M  V30 7751 O 748.115 1.54754 0.799807 0
M  V30 7752 C 745.247 3.07844 1.46441 0
M  V30 7753 H 746.44 2.97954 -0.341095 0
M  V30 7754 H 743.993 1.54814 -0.214984 0
M  V30 7755 H 744.728 2.41223 2.16753 0
M  V30 7756 H 744.513 3.78101 1.03836 0
M  V30 7757 H 746.003 3.65469 2.02044 0
M  V30 7758 O 746.479 0.334734 1.57993 0
M  V30 7759 H 747.17 -0.222689 1.92416 0
M  V30 END ATOM
M  V30 BEGIN BOND
M  V30 END BOND
M  V30 END CTAB
M  END
$$$$
