drugbank_target|P48029 Sodium- and chloride-dependent creatine transporter 1 (DB00148; DB13191)
 OpenBabel12092119303D

  0  0  0     0  0            999 V3000
M  V30 BEGIN CTAB
M  V30 COUNTS 9916 10077 0 0 0
M  V30 BEGIN ATOM
M  V30 1 H -0.908 1.98254 -0.117106 0
M  V30 2 N 0 1.576 0 0
M  V30 3 C 0.933 2.03868 1.02534 0
M  V30 4 C 1.911 0.928543 1.3348 0
M  V30 5 O 3.095 1.19667 1.45644 0
M  V30 6 C 0.222 2.43627 2.35294 0
M  V30 7 C -0.732 3.65373 2.2001 0
M  V30 8 S 0.101 5.13292 1.52614 0
M  V30 9 C 1.257 5.56322 2.86805 0
M  V30 10 H 1.49 2.90518 0.631377 0
M  V30 11 H -0.977 1.52953 0.210867 0
M  V30 12 H 0.981 2.67203 3.11629 0
M  V30 13 H -0.358 1.57376 2.7183 0
M  V30 14 H -1.165 3.90944 3.18086 0
M  V30 15 H -1.563 3.418 1.51819 0
M  V30 16 H 0.729 5.58782 3.83104 0
M  V30 17 H 1.672 6.56266 2.65933 0
M  V30 18 H 2.08 4.83886 2.90714 0
M  V30 19 N 1.4781 -0.272755 1.55222 0
M  V30 20 C 2.4411 -1.32041 1.87344 0
M  V30 21 C 3.4411 -1.42342 0.74803 0
M  V30 22 O 4.6311 -1.41488 1.0162 0
M  V30 23 C 1.7631 -2.70173 2.07893 0
M  V30 24 H 2.9561 -1.04789 2.80997 0
M  V30 25 H 0.5091 -0.51083 1.47717 0
M  V30 26 H 1.2441 -3.02605 1.16622 0
M  V30 27 H 1.0291 -2.64082 2.89833 0
M  V30 28 H 2.5191 -3.45869 2.34017 0
M  V30 29 N 2.9562 -1.48159 -0.537278 0
M  V30 30 C 3.9032 -1.62138 -1.64256 0
M  V30 31 C 4.8732 -0.463668 -1.59497 0
M  V30 32 O 6.0582 -0.686241 -1.78032 0
M  V30 33 C 3.1982 -1.66028 -3.02537 0
M  V30 34 C 2.3112 -2.92855 -3.17585 0
M  V30 35 C 1.4462 -2.87952 -4.46382 0
M  V30 36 C 0.4852 -4.09516 -4.54932 0
M  V30 37 N -0.3778 -4.02733 -5.75109 0
M  V30 38 H 4.4622 -2.56529 -1.51647 0
M  V30 39 H 1.9992 -1.27224 -0.738414 0
M  V30 40 H 3.9572 -1.66265 -3.82638 0
M  V30 41 H 2.5872 -0.751331 -3.13934 0
M  V30 42 H 1.6392 -3.02395 -2.30784 0
M  V30 43 H 2.9512 -3.82822 -3.19764 0
M  V30 44 H 2.1052 -2.8655 -5.34765 0
M  V30 45 H 0.8442 -1.95702 -4.46712 0
M  V30 46 H -0.1508 -4.11201 -3.64957 0
M  V30 47 H 1.0742 -5.02917 -4.56346 0
M  V30 48 H -0.9798 -3.13299 -5.76351 0
M  V30 49 H -1.0628 -4.86397 -5.78752 0
M  V30 50 H 0.2052 -4.05379 -6.65799 0
M  V30 51 N 4.4343 0.785586 -1.36625 0
M  V30 52 C 5.3813 1.89838 -1.31264 0
M  V30 53 C 6.3513 1.65115 -0.180633 0
M  V30 54 O 7.5363 1.87222 -0.36777 0
M  V30 55 C 4.6763 3.26706 -1.11163 0
M  V30 56 C 3.7893 3.63476 -2.33472 0
M  V30 57 C 2.9243 4.89481 -2.06353 0
M  V30 58 C 1.9633 5.18941 -3.24602 0
M  V30 59 N 1.1003 6.36131 -2.97123 0
M  V30 60 H 5.9403 1.93756 -2.26413 0
M  V30 61 H 3.4773 0.947454 -1.12524 0
M  V30 62 H 5.4353 4.05639 -0.975337 0
M  V30 63 H 4.0653 3.222 -0.196674 0
M  V30 64 H 3.1173 2.79636 -2.57891 0
M  V30 65 H 4.4293 3.81193 -3.21704 0
M  V30 66 H 3.5833 5.76288 -1.89675 0
M  V30 67 H 2.3223 4.73841 -1.15437 0
M  V30 68 H 1.3273 4.30615 -3.41834 0
M  V30 69 H 2.5523 5.36498 -4.16349 0
M  V30 70 H 0.4983 6.21875 -2.08823 0
M  V30 71 H 0.4153 6.54198 -3.78894 0
M  V30 72 H 1.6833 7.2591 -2.84033 0
M  V30 73 N 5.9124 1.20967 1.01018 0
M  V30 74 C 7.1374 1.0503 1.78839 0
M  V30 75 C 7.5624 -0.395752 1.8389 0
M  V30 76 O 6.9204 -1.28529 1.27867 0
M  V30 77 C 6.9684 1.64602 3.2084 0
M  V30 78 O 6.0724 0.887988 4.02726 0
M  V30 79 H 5.4134 0.369987 0.551367 0
M  V30 80 H 7.9434 1.60399 1.27018 0
M  V30 81 H 7.9534 1.68607 3.71532 0
M  V30 82 H 6.6284 2.69841 3.16479 0
M  V30 83 H 5.2054 0.922648 3.61305 0
M  V30 84 N 7.3905 -1.2043 1.01659 0
M  V30 85 C 8.3535 -2.21433 0.591616 0
M  V30 86 C 9.3535 -1.57203 -0.338226 0
M  V30 87 O 10.5435 -1.73737 -0.126918 0
M  V30 88 C 7.6755 -3.40628 -0.136058 0
M  V30 89 H 8.8685 -2.60545 1.48514 0
M  V30 90 H 6.4215 -1.33893 0.806379 0
M  V30 91 H 7.1565 -3.07019 -1.04449 0
M  V30 92 H 6.9415 -3.88475 0.531917 0
M  V30 93 H 8.4315 -4.15475 -0.420735 0
M  V30 94 N 8.8686 -0.792821 -1.36206 0
M  V30 95 C 9.7786 -0.194808 -2.3379 0
M  V30 96 C 10.7946 0.654869 -1.61206 0
M  V30 97 O 11.9706 0.569856 -1.9317 0
M  V30 98 C 9.0356 0.657721 -3.40404 0
M  V30 99 C 8.0966 -0.210849 -4.28782 0
M  V30 100 C 7.3296 0.601086 -5.30304 0
M  V30 101 O 7.5526 1.83682 -5.40016 0
M  V30 102 O 6.4866 -0.000808277 -6.019 0
M  V30 103 H 10.3126 -1.00172 -2.86704 0
M  V30 104 H 7.8976 -0.554341 -1.38735 0
M  V30 105 H 9.7796 1.14375 -4.05581 0
M  V30 106 H 8.4546 1.44247 -2.89784 0
M  V30 107 H 7.3616 -0.743714 -3.66633 0
M  V30 108 H 8.6946 -0.959195 -4.82763 0
M  V30 109 N 10.3467 1.47872 -0.545128 0
M  V30 110 C 11.2947 2.31533 0.222512 0
M  V30 111 C 12.2887 1.42177 0.920985 0
M  V30 112 O 13.4947 1.59005 0.843645 0
M  V30 113 H 9.8697 0.746519 0.0906278 0
M  V30 114 H 11.8407 2.94139 -0.50246 0
M  V30 115 C 10.5897 3.2457 1.24699 0
M  V30 116 H 9.9127 3.93283 0.718944 0
M  V30 117 H 11.3527 3.85963 1.75523 0
M  V30 118 C 9.8117 2.47237 2.28856 0
M  V30 119 O 10.3417 2.20808 3.35569 0
M  V30 120 N 8.5477 2.08461 2.02466 0
M  V30 121 H 8.0947 2.30155 1.157 0
M  V30 122 H 8.0527 1.57033 2.72375 0
M  V30 123 N 11.8248 0.280983 1.55075 0
M  V30 124 C 13.0728 -0.333455 1.9933 0
M  V30 125 C 13.3938 -1.55937 1.17085 0
M  V30 126 O 12.6638 -1.94143 0.261805 0
M  V30 127 H 11.2438 -0.126197 0.736263 0
M  V30 128 H 13.9058 0.387678 1.91005 0
M  V30 129 H 13.0018 -0.619292 3.05894 0
M  V30 130 N 13.3029 -1.57598 0.00835791 0
M  V30 131 C 14.5519 -1.90107 -0.673968 0
M  V30 132 C 14.8649 -0.884275 -1.7447 0
M  V30 133 O 16.0709 -1.09987 -2.48224 0
M  V30 134 C 14.5269 -3.37497 -1.24995 0
M  V30 135 C 14.1349 -4.47491 -0.2136 0
M  V30 136 C 15.8789 -3.79104 -1.90999 0
M  V30 137 C 13.7859 -5.85963 -0.80005 0
M  V30 138 H 12.7159 -0.709393 -0.255495 0
M  V30 139 H 15.3669 -1.83365 0.0702693 0
M  V30 140 H 13.7489 -3.39102 -2.04513 0
M  V30 141 H 14.9229 -4.57414 0.557596 0
M  V30 142 H 13.2379 -4.14956 0.346474 0
M  V30 143 H 15.8349 -4.79901 -2.35795 0
M  V30 144 H 16.1779 -3.1306 -2.74407 0
M  V30 145 H 16.7109 -3.79833 -1.18203 0
M  V30 146 H 13.4499 -6.555 -0.00456708 0
M  V30 147 H 12.9699 -5.79687 -1.54021 0
M  V30 148 H 14.6489 -6.33884 -1.29615 0
M  V30 149 N 14.781 0.264519 -1.55364 0
M  V30 150 C 16.011 1.01153 -1.80143 0
M  V30 151 C 16.419 1.80115 -0.579253 0
M  V30 152 O 15.762 1.77813 0.46132 0
M  V30 153 C 15.824 2.01098 -2.97993 0
M  V30 154 C 15.488 1.40995 -4.34706 0
M  V30 155 C 16.485 0.821316 -5.13372 0
M  V30 156 C 14.17 1.43461 -4.81378 0
M  V30 157 C 16.164 0.265339 -6.36847 0
M  V30 158 C 13.851 0.874771 -6.04807 0
M  V30 159 C 14.849 0.291146 -6.82379 0
M  V30 160 O 14.537 -0.260093 -8.03479 0
M  V30 161 H 14.269 0.304125 -0.603725 0
M  V30 162 H 16.823 0.298089 -2.03225 0
M  V30 163 H 15.053 2.76224 -2.70623 0
M  V30 164 H 16.742 2.61997 -3.1002 0
M  V30 165 H 17.508 0.794903 -4.78442 0
M  V30 166 H 13.387 1.87826 -4.21002 0
M  V30 167 H 16.931 -0.190837 -6.97339 0
M  V30 168 H 12.828 0.898452 -6.39217 0
M  V30 169 H 13.596 -0.150265 -8.18362 0
M  V30 170 N 16.2591 1.48442 0.529413 0
M  V30 171 C 17.4841 1.60406 1.31471 0
M  V30 172 C 17.9091 0.264738 1.86228 0
M  V30 173 O 17.2671 -0.763668 1.64432 0
M  V30 174 C 17.3151 2.65419 2.44101 0
M  V30 175 O 16.4191 2.22618 3.47153 0
M  V30 176 H 15.7601 0.537863 0.389357 0
M  V30 177 H 18.2901 1.94432 0.636965 0
M  V30 178 H 18.3001 2.86709 2.90279 0
M  V30 179 H 16.9751 3.62652 2.03608 0
M  V30 180 H 15.5521 2.11543 3.0709 0
M  V30 181 N 17.7372 -0.778329 1.37039 0
M  V30 182 C 18.9832 -1.53892 1.32079 0
M  V30 183 C 19.3162 -1.9396 -0.0965386 0
M  V30 184 O 18.5912 -1.63568 -1.05242 0
M  V30 185 C 18.8742 -2.80847 2.25382 0
M  V30 186 C 18.7272 -2.47076 3.75864 0
M  V30 187 C 20.0462 -3.82741 2.1725 0
M  V30 188 H 17.1652 -0.558303 0.48111 0
M  V30 189 H 19.8072 -0.893397 1.67685 0
M  V30 190 H 17.9572 -3.35931 1.95148 0
M  V30 191 H 19.6292 -1.97957 4.16666 0
M  V30 192 H 17.8722 -1.79863 3.94755 0
M  V30 193 H 18.5432 -3.37798 4.36574 0
M  V30 194 H 21.0192 -3.37133 2.43887 0
M  V30 195 H 19.8952 -4.69303 2.84686 0
M  V30 196 H 20.1562 -4.2652 1.16331 0
M  V30 197 N 19.2153 -1.21501 -1.00376 0
M  V30 198 C 20.4403 -1.05977 -1.78279 0
M  V30 199 C 20.8653 0.385994 -1.84097 0
M  V30 200 O 20.2233 1.27849 -1.28547 0
M  V30 201 C 20.2713 -1.66302 -3.19963 0
M  V30 202 O 19.3753 -0.909333 -4.0225 0
M  V30 203 H 18.7163 -0.372906 -0.549397 0
M  V30 204 H 21.2463 -1.6107 -1.26165 0
M  V30 205 H 21.2563 -1.70574 -3.70632 0
M  V30 206 H 19.9313 -2.71515 -3.15043 0
M  V30 207 H 18.5083 -0.941795 -3.60811 0
M  V30 208 N 20.6934 1.19889 -1.02296 0
M  V30 209 C 21.9414 1.89046 -0.714558 0
M  V30 210 C 22.2624 1.79636 0.758681 0
M  V30 211 O 21.5324 1.20292 1.54618 0
M  V30 212 H 20.1124 0.699802 -0.261317 0
M  V30 213 H 22.7744 1.45574 -1.29592 0
M  V30 214 H 21.8704 2.95524 -1.0036 0
M  V30 215 N 22.1715 0.800033 1.35784 0
M  V30 216 C 23.4485 0.30088 1.93272 0
M  V30 217 C 23.8285 -1.20857 1.73081 0
M  V30 218 O 23.1765 -2.00502 1.09596 0
M  V30 219 C 23.3865 0.70511 3.41803 0
M  V30 220 C 24.7345 0.690871 4.18942 0
M  V30 221 O 25.7585 0.646244 3.50289 0
M  V30 222 O 24.6175 0.74332 5.41421 0
M  V30 223 H 21.7115 0.0771605 0.823393 0
M  V30 224 H 24.2575 0.88329 1.449 0
M  V30 225 H 23.0295 1.74571 3.50201 0
M  V30 226 H 22.6525 0.0971541 3.97481 0
M  V30 227 N 23.6496 -1.47581 0.552962 0
M  V30 228 C 24.5596 -2.33743 -0.200353 0
M  V30 229 C 25.5756 -1.47928 -0.916151 0
M  V30 230 O 26.7516 -1.80865 -0.885993 0
M  V30 231 C 23.8166 -3.24536 -1.21973 0
M  V30 232 C 22.8776 -4.26238 -0.511819 0
M  V30 233 C 22.1106 -5.12693 -1.48263 0
M  V30 234 O 22.3336 -5.01525 -2.71714 0
M  V30 235 O 21.2676 -5.93375 -1.00945 0
M  V30 236 H 25.0936 -2.9945 0.506304 0
M  V30 237 H 22.6786 -1.46071 0.313622 0
M  V30 238 H 24.5606 -3.80631 -1.80827 0
M  V30 239 H 23.2356 -2.61462 -1.90839 0
M  V30 240 H 22.1426 -3.73914 0.117799 0
M  V30 241 H 23.4756 -4.92014 0.135308 0
M  V30 242 N 25.1277 -0.289203 -1.54924 0
M  V30 243 C 26.0747 0.592115 -2.23075 0
M  V30 244 C 27.0447 1.13881 -1.20915 0
M  V30 245 O 28.2297 1.18551 -1.495 0
M  V30 246 C 25.3697 1.76376 -2.96623 0
M  V30 247 C 24.4827 1.24959 -4.13533 0
M  V30 248 C 23.6177 2.38416 -4.74691 0
M  V30 249 C 22.6567 1.84072 -5.83767 0
M  V30 250 N 21.7937 2.91057 -6.38929 0
M  V30 251 H 26.6337 0.00432038 -2.98 0
M  V30 252 H 24.1707 -0.00963529 -1.47097 0
M  V30 253 H 26.1287 2.45268 -3.3749 0
M  V30 254 H 24.7587 2.32337 -2.24097 0
M  V30 255 H 23.8107 0.453307 -3.77689 0
M  V30 256 H 25.1227 0.811662 -4.92152 0
M  V30 257 H 24.2767 3.15276 -5.18349 0
M  V30 258 H 23.0157 2.8553 -3.95378 0
M  V30 259 H 22.0207 1.05697 -5.39545 0
M  V30 260 H 23.2457 1.37877 -6.64956 0
M  V30 261 H 21.1917 3.37526 -5.62505 0
M  V30 262 H 21.1087 2.51724 -7.12861 0
M  V30 263 H 22.3767 3.6785 -6.87246 0
M  V30 264 N 26.6058 1.57591 -0.0167156 0
M  V30 265 C 27.5528 2.09462 0.969251 0
M  V30 266 C 28.5228 0.99381 1.33089 0
M  V30 267 O 29.7078 1.26726 1.42636 0
M  V30 268 C 26.8478 2.61622 2.25051 0
M  V30 269 C 25.9608 3.85666 1.94642 0
M  V30 270 C 25.0958 4.26266 3.16972 0
M  V30 271 C 24.1348 5.43101 2.82326 0
M  V30 272 N 23.2718 5.78915 3.97243 0
M  V30 273 H 28.1118 2.93428 0.519997 0
M  V30 274 H 25.6488 1.45044 0.245087 0
M  V30 275 H 27.6068 2.89949 2.99976 0
M  V30 276 H 26.2368 1.80505 2.67615 0
M  V30 277 H 25.2888 3.64145 1.10013 0
M  V30 278 H 26.6008 4.70678 1.65117 0
M  V30 279 H 25.7548 4.55963 4.00228 0
M  V30 280 H 24.4938 3.39996 3.49648 0
M  V30 281 H 23.4988 5.1311 1.97479 0
M  V30 282 H 24.7238 6.3106 2.50879 0
M  V30 283 H 22.6698 4.95602 4.29785 0
M  V30 284 H 22.5868 6.58539 3.71299 0
M  V30 285 H 23.8548 6.13212 4.81239 0
M  V30 286 N 28.0839 -0.256276 1.55502 0
M  V30 287 C 29.3319 -0.983672 1.76545 0
M  V30 288 C 29.6529 -1.86206 0.578982 0
M  V30 289 O 28.9229 -1.91656 -0.405577 0
M  V30 290 H 27.5029 -0.366191 0.651086 0
M  V30 291 H 30.1649 -0.276479 1.92929 0
M  V30 292 H 29.2609 -1.61087 2.67315 0
M  V30 293 N 29.562 -1.4872 -0.521534 0
M  V30 294 C 30.973 -1.50607 -1.10337 0
M  V30 295 C 31.324 -0.280612 -1.94183 0
M  V30 296 O 30.449 0.611507 -2.0758 0
M  V30 297 C 31.044 -2.72903 -2.00772 0
M  V30 298 C 29.603 -2.77634 -2.54158 0
M  V30 299 C 28.75 -2.44241 -1.31307 0
M  V30 300 H 31.701 -1.55714 -0.306388 0
M  V30 301 H 31.722 -2.519 -2.85178 0
M  V30 302 H 31.234 -3.62077 -1.39721 0
M  V30 303 H 29.335 -1.92689 -3.18907 0
M  V30 304 H 29.448 -3.79283 -2.92714 0
M  V30 305 H 27.812 -1.95577 -1.63161 0
M  V30 306 H 28.595 -3.35666 -0.719943 0
M  V30 307 N 31.0401 0.771051 -1.3745 0
M  V30 308 C 31.9701 1.89827 -1.3597 0
M  V30 309 C 32.9511 1.68562 -0.228216 0
M  V30 310 O 34.1361 1.8941 -0.428675 0
M  V30 311 C 31.2661 3.2712 -1.16662 0
M  V30 312 C 30.2201 3.6295 -2.2683 0
M  V30 313 C 29.5461 4.98791 -1.92644 0
M  V30 314 C 30.8461 3.69627 -3.69017 0
M  V30 315 H 32.5401 1.91323 -2.30295 0
M  V30 316 H 30.0861 0.919082 -1.10855 0
M  V30 317 H 32.0391 4.05615 -1.14256 0
M  V30 318 H 30.7631 3.26059 -0.187926 0
M  V30 319 H 29.4221 2.86763 -2.28392 0
M  V30 320 H 29.0701 4.94271 -0.933021 0
M  V30 321 H 28.7701 5.23733 -2.66416 0
M  V30 322 H 30.2941 5.79685 -1.91826 0
M  V30 323 H 31.7081 4.38273 -3.69581 0
M  V30 324 H 30.1051 4.06067 -4.41848 0
M  V30 325 H 31.1751 2.70273 -4.02592 0
M  V30 326 N 32.5182 1.22032 0.997298 0
M  V30 327 C 33.7672 1.03637 1.73038 0
M  V30 328 C 34.0802 -0.429475 1.90827 0
M  V30 329 O 35.2862 -0.732995 2.61418 0
M  V30 330 C 33.7422 1.80582 3.11317 0
M  V30 331 C 33.3502 3.31387 3.01474 0
M  V30 332 C 35.0942 1.70621 3.88701 0
M  V30 333 C 33.0012 4.00791 4.3488 0
M  V30 334 H 31.9312 0.384179 0.648785 0
M  V30 335 H 34.5822 1.4584 1.11368 0
M  V30 336 H 32.9642 1.31175 3.73643 0
M  V30 337 H 34.1382 3.88155 2.4834 0
M  V30 338 H 32.4532 3.41976 2.37575 0
M  V30 339 H 35.0502 2.19799 4.87434 0
M  V30 340 H 35.3932 0.665823 4.10941 0
M  V30 341 H 35.9262 2.17547 3.33044 0
M  V30 342 H 32.6652 5.05064 4.1784 0
M  V30 343 H 32.1852 3.48811 4.87945 0
M  V30 344 H 33.8642 4.06139 5.03647 0
M  V30 345 N 33.9963 -1.19345 1.0293 0
M  V30 346 C 34.9593 -2.20793 0.615069 0
M  V30 347 C 35.9593 -1.57553 -0.321533 0
M  V30 348 O 37.1493 -1.73862 -0.108483 0
M  V30 349 C 34.2813 -3.40754 -0.0999222 0
M  V30 350 H 35.4743 -2.58955 1.51269 0
M  V30 351 H 33.0273 -1.3303 0.820534 0
M  V30 352 H 33.7623 -3.0811 -1.01187 0
M  V30 353 H 33.5473 -3.87889 0.57309 0
M  V30 354 H 35.0373 -4.15898 -0.376645 0
M  V30 355 N 35.4744 -0.807222 -1.35358 0
M  V30 356 C 36.8854 -0.44876 -1.81226 0
M  V30 357 C 37.2364 1.02929 -1.67033 0
M  V30 358 O 36.3614 1.79991 -1.20133 0
M  V30 359 C 36.9564 -0.807774 -3.2903 0
M  V30 360 C 35.5154 -0.501901 -3.73039 0
M  V30 361 C 34.6624 -1.03304 -2.57339 0
M  V30 362 H 37.6134 -0.998808 -1.23327 0
M  V30 363 H 37.6344 -0.10554 -3.80354 0
M  V30 364 H 37.1464 -1.88357 -3.39328 0
M  V30 365 H 35.2474 0.565128 -3.68289 0
M  V30 366 H 35.3604 -1.03497 -4.67787 0
M  V30 367 H 33.7244 -0.455339 -2.50597 0
M  V30 368 H 34.5074 -2.11496 -2.70415 0
M  V30 369 N 36.9525 1.47285 -0.560781 0
M  V30 370 C 38.2005 2.02064 -0.0379868 0
M  V30 371 C 38.5215 1.43711 1.31803 0
M  V30 372 O 37.7915 0.61362 1.86042 0
M  V30 373 H 36.3715 0.746918 -0.0110531 0
M  V30 374 H 39.0335 1.80648 -0.731598 0
M  V30 375 H 38.1295 3.12064 0.0474463 0
M  V30 376 N 38.4306 0.297415 1.54768 0
M  V30 377 C 39.8416 -0.195947 1.85669 0
M  V30 378 C 40.1926 -1.53707 1.21937 0
M  V30 379 O 39.3176 -2.10164 0.515754 0
M  V30 380 C 39.9126 -0.362318 3.36857 0
M  V30 381 C 38.4716 -0.799901 3.67802 0
M  V30 382 C 37.6186 0.0938578 2.77141 0
M  V30 383 H 40.5696 0.518538 1.4999 0
M  V30 384 H 40.5906 -1.19745 3.61167 0
M  V30 385 H 40.1026 0.613921 3.83214 0
M  V30 386 H 38.2036 -1.78682 3.26961 0
M  V30 387 H 38.3166 -0.621773 4.75048 0
M  V30 388 H 36.6806 -0.426254 2.51108 0
M  V30 389 H 37.4636 1.06639 3.26318 0
M  V30 390 N 39.9087 -1.5758 0.0250728 0
M  V30 391 C 41.1857 -1.82917 -0.692873 0
M  V30 392 C 41.5657 -0.908137 -1.90568 0
M  V30 393 O 40.9137 0.0372298 -2.2847 0
M  V30 394 C 41.1237 -3.32034 -1.07492 0
M  V30 395 C 42.4717 -3.98406 -1.46826 0
M  V30 396 O 43.4957 -3.36505 -1.16801 0
M  V30 397 O 42.3547 -5.07497 -2.02754 0
M  V30 398 H 39.4487 -0.754079 -0.33955 0
M  V30 399 H 41.9947 -1.69619 0.0524456 0
M  V30 400 H 40.7667 -3.90728 -0.211552 0
M  V30 401 H 40.3897 -3.50424 -1.87854 0
M  V30 402 N 41.3868 0.248026 -1.55636 0
M  V30 403 C 42.6348 0.974295 -1.77065 0
M  V30 404 C 42.9558 1.85897 -0.588849 0
M  V30 405 O 42.2258 1.91868 0.395407 0
M  V30 406 H 40.8058 0.362733 -0.653019 0
M  V30 407 H 43.4678 0.266244 -1.93073 0
M  V30 408 H 42.5638 1.59667 -2.68166 0
M  V30 409 N 42.8649 1.48995 0.513639 0
M  V30 410 C 43.8279 1.64229 1.59879 0
M  V30 411 C 44.8279 0.514696 1.5234 0
M  V30 412 O 46.0179 0.78087 1.55718 0
M  V30 413 C 43.1499 1.62783 2.99524 0
M  V30 414 H 44.3429 2.61004 1.47705 0
M  V30 415 H 41.8959 1.37837 0.736936 0
M  V30 416 H 42.6309 0.675461 3.17188 0
M  V30 417 H 42.4159 2.4466 3.06404 0
M  V30 418 H 43.9059 1.76669 3.78388 0
M  V30 419 N 44.343 -0.763751 1.37857 0
M  V30 420 C 45.754 -1.3405 1.29952 0
M  V30 421 C 46.105 -1.96138 -0.0492898 0
M  V30 422 O 45.23 -1.94372 -0.951239 0
M  V30 423 C 45.825 -2.43729 2.35333 0
M  V30 424 C 44.384 -2.97151 2.31037 0
M  V30 425 C 43.531 -1.70438 2.18738 0
M  V30 426 H 46.482 -0.563396 1.48363 0
M  V30 427 H 46.503 -3.23412 2.00462 0
M  V30 428 H 46.015 -1.9851 3.33489 0
M  V30 429 H 44.116 -3.46724 1.3643 0
M  V30 430 H 44.229 -3.52221 3.24772 0
M  V30 431 H 42.593 -1.93673 1.65418 0
M  V30 432 H 43.376 -1.27312 3.18821 0
M  V30 433 N 45.8211 -1.22559 -0.990812 0
M  V30 434 C 46.7841 -0.998863 -2.0629 0
M  V30 435 C 47.7841 0.0354834 -1.60761 0
M  V30 436 O 48.9741 -0.203231 -1.7301 0
M  V30 437 C 46.1061 -0.509203 -3.37076 0
M  V30 438 H 47.2991 -1.95014 -2.27837 0
M  V30 439 H 44.8521 -1.04456 -1.16269 0
M  V30 440 H 45.5871 0.446335 -3.21214 0
M  V30 441 H 45.3721 -1.25547 -3.71457 0
M  V30 442 H 46.8621 -0.370888 -4.1595 0
M  V30 443 N 47.2992 1.18797 -1.03562 0
M  V30 444 C 48.2462 2.22253 -0.622259 0
M  V30 445 C 49.2162 1.61987 0.36736 0
M  V30 446 O 50.4012 1.88986 0.262492 0
M  V30 447 C 47.5412 3.45097 0.0138462 0
M  V30 448 C 46.6542 4.19722 -1.02263 0
M  V30 449 C 45.7892 5.30009 -0.355573 0
M  V30 450 C 44.8282 5.96399 -1.37749 0
M  V30 451 N 43.9652 6.98234 -0.735766 0
M  V30 452 H 48.8052 2.56968 -1.50903 0
M  V30 453 H 46.3422 1.26245 -0.755017 0
M  V30 454 H 48.3002 4.15279 0.399948 0
M  V30 455 H 46.9302 3.11018 0.864158 0
M  V30 456 H 45.9822 3.48418 -1.52673 0
M  V30 457 H 47.2942 4.65227 -1.79903 0
M  V30 458 H 46.4482 6.0664 0.0850095 0
M  V30 459 H 45.1872 4.85592 0.452967 0
M  V30 460 H 44.1922 5.18512 -1.82826 0
M  V30 461 H 45.4172 6.42899 -2.18764 0
M  V30 462 H 43.3632 6.55979 0.0525597 0
M  V30 463 H 43.2802 7.41965 -1.44995 0
M  V30 464 H 44.5482 7.78845 -0.31941 0
M  V30 465 N 48.7773 0.814389 1.34928 0
M  V30 466 C 50.0253 0.397636 1.9815 0
M  V30 467 C 50.3463 -1.04069 1.64908 0
M  V30 468 O 49.6163 -1.72121 0.93548 0
M  V30 469 H 48.1963 0.144043 0.732981 0
M  V30 470 H 50.8583 1.04195 1.6471 0
M  V30 471 H 49.9543 0.509688 3.0791 0
M  V30 472 N 50.2554 -1.46986 0.568584 0
M  V30 473 C 51.5324 -1.95592 -0.0174074 0
M  V30 474 C 51.9124 -1.51124 -1.47393 0
M  V30 475 O 51.2604 -0.755329 -2.15655 0
M  V30 476 C 51.4704 -3.48719 0.139913 0
M  V30 477 C 52.8184 -4.246 0.000426376 0
M  V30 478 O 53.8424 -3.56135 0.0680316 0
M  V30 479 O 52.7014 -5.46302 -0.146988 0
M  V30 480 H 49.7954 -0.82498 -0.0577599 0
M  V30 481 H 52.3414 -1.57335 0.635909 0
M  V30 482 H 51.1134 -3.73927 1.15301 0
M  V30 483 H 50.7364 -3.93771 -0.550491 0
M  V30 484 N 51.7335 -0.305618 -1.54608 0
M  V30 485 C 52.9815 0.301701 -1.99835 0
M  V30 486 C 53.3025 1.54054 -1.19551 0
M  V30 487 O 52.5725 1.93702 -0.292658 0
M  V30 488 H 51.1525 0.114468 -0.738178 0
M  V30 489 H 53.8145 -0.418016 -1.90364 0
M  V30 490 H 52.9105 0.570548 -3.06841 0
M  V30 491 N 53.2116 1.57565 -0.0334293 0
M  V30 492 C 54.6226 1.79746 0.504798 0
M  V30 493 C 54.9736 0.944091 1.71992 0
M  V30 494 O 54.0986 0.155694 2.15839 0
M  V30 495 C 54.6936 3.25997 0.922567 0
M  V30 496 C 53.2526 3.49159 1.40588 0
M  V30 497 C 52.3996 2.74785 0.372633 0
M  V30 498 H 55.3506 1.56565 -0.259436 0
M  V30 499 H 55.3716 3.35945 1.78666 0
M  V30 500 H 54.8836 3.88081 0.0379825 0
M  V30 501 H 52.9846 2.92332 2.31025 0
M  V30 502 H 53.0976 4.57873 1.41028 0
M  V30 503 H 51.4616 2.40391 0.841672 0
M  V30 504 H 52.2446 3.39587 -0.503559 0
M  V30 505 N 54.6897 -0.239769 1.55765 0
M  V30 506 C 55.9357 -0.968234 1.78194 0
M  V30 507 C 56.2687 -1.84701 0.599938 0
M  V30 508 O 55.5437 -1.9031 -0.401524 0
M  V30 509 C 55.8267 -1.8227 3.10564 0
M  V30 510 C 55.6797 -0.971633 4.3918 0
M  V30 511 C 56.9987 -2.80388 3.39221 0
M  V30 512 H 54.1177 -0.350572 0.648281 0
M  V30 513 H 56.7597 -0.238259 1.885 0
M  V30 514 H 54.9097 -2.44507 3.01908 0
M  V30 515 H 56.5817 -0.367408 4.59835 0
M  V30 516 H 54.8247 -0.276276 4.32919 0
M  V30 517 H 55.4957 -1.60346 5.28198 0
M  V30 518 H 57.9717 -2.28287 3.47885 0
M  V30 519 H 56.8477 -3.3729 4.33044 0
M  V30 520 H 57.1087 -3.57212 2.60484 0
M  V30 521 N 56.1678 -1.49265 -0.50573 0
M  V30 522 C 57.4158 -1.582 -1.25766 0
M  V30 523 C 57.7368 -0.268482 -1.93143 0
M  V30 524 O 57.0068 0.711833 -1.8251 0
M  V30 525 H 55.5868 -0.582873 -0.467191 0
M  V30 526 H 58.2488 -1.85865 -0.586525 0
M  V30 527 H 57.3448 -2.37563 -2.02412 0
M  V30 528 N 57.6459 0.756429 -1.3826 0
M  V30 529 C 58.5759 1.88374 -1.37976 0
M  V30 530 C 59.5569 1.68311 -0.246082 0
M  V30 531 O 60.7419 1.88944 -0.44874 0
M  V30 532 C 57.8719 3.25864 -1.20125 0
M  V30 533 C 56.8259 3.60523 -2.30666 0
M  V30 534 C 56.1519 4.9672 -1.97923 0
M  V30 535 C 57.4519 3.65692 -3.72916 0
M  V30 536 H 59.1459 1.88869 -2.32312 0
M  V30 537 H 56.6919 0.907272 -1.11824 0
M  V30 538 H 58.6449 4.0438 -1.18552 0
M  V30 539 H 57.3689 3.25841 -0.222498 0
M  V30 540 H 56.0279 2.84324 -2.3142 0
M  V30 541 H 55.6759 4.93253 -0.985393 0
M  V30 542 H 55.3759 5.20878 -2.71955 0
M  V30 543 H 56.8999 5.77618 -1.97964 0
M  V30 544 H 58.3139 4.34328 -3.74208 0
M  V30 545 H 56.7109 4.01358 -4.4613 0
M  V30 546 H 57.7809 2.65987 -4.05436 0
M  V30 547 N 59.124 1.23083 0.984299 0
M  V30 548 C 60.372 1.05848 1.72165 0
M  V30 549 C 60.693 -0.406049 1.90726 0
M  V30 550 O 59.963 -1.29139 1.47309 0
M  V30 551 H 58.543 0.388685 0.637913 0
M  V30 552 H 61.205 1.54736 1.18503 0
M  V30 553 H 60.301 1.54327 2.71274 0
M  V30 554 N 60.6021 -1.18246 1.0419 0
M  V30 555 C 61.8301 -1.92195 0.766072 0
M  V30 556 C 62.2451 -1.76247 -0.676933 0
M  V30 557 O 61.6021 -1.09293 -1.46155 0
M  V30 558 C 61.6531 -3.43568 1.12442 0
M  V30 559 O 61.3741 -3.59015 2.51078 0
M  V30 560 C 62.8751 -4.34613 0.873275 0
M  V30 561 H 60.0951 -0.610114 0.279288 0
M  V30 562 H 62.6391 -1.50007 1.38989 0
M  V30 563 H 60.7941 -3.8354 0.545542 0
M  V30 564 H 61.2081 -4.5273 2.64831 0
M  V30 565 H 62.6821 -5.39374 1.17385 0
M  V30 566 H 63.1591 -4.38781 -0.191909 0
M  V30 567 H 63.7651 -4.00341 1.43551 0
M  V30 568 N 62.0802 -0.821533 -1.34494 0
M  V30 569 C 63.4912 -0.467956 -1.8074 0
M  V30 570 C 63.8422 1.01151 -1.68116 0
M  V30 571 O 62.9672 1.78707 -1.22036 0
M  V30 572 C 63.5622 -0.842627 -3.28154 0
M  V30 573 C 62.1212 -0.541439 -3.72485 0
M  V30 574 C 61.2682 -1.06028 -2.56229 0
M  V30 575 H 64.2192 -1.01183 -1.22261 0
M  V30 576 H 64.2402 -0.145876 -3.8022 0
M  V30 577 H 63.7522 -1.91945 -3.37311 0
M  V30 578 H 61.8532 0.526034 -3.68868 0
M  V30 579 H 61.9662 -1.08453 -4.66663 0
M  V30 580 H 60.3302 -0.481892 -2.501 0
M  V30 581 H 61.1132 -2.14352 -2.68157 0
M  V30 582 N 63.5583 1.46682 -0.576371 0
M  V30 583 C 64.8063 2.02013 -0.0594163 0
M  V30 584 C 65.1273 1.45101 1.30271 0
M  V30 585 O 64.3973 0.633317 1.8538 0
M  V30 586 H 62.9773 0.746759 -0.0189745 0
M  V30 587 H 65.6393 1.79862 -0.750717 0
M  V30 588 H 64.7353 3.12097 0.014345 0
M  V30 589 N 65.0364 0.313813 1.54444 0
M  V30 590 C 66.2844 -0.291099 1.99993 0
M  V30 591 C 66.6054 -1.53418 1.20366 0
M  V30 592 O 65.8754 -1.93544 0.302927 0
M  V30 593 H 64.4554 -0.110552 0.738774 0
M  V30 594 H 67.1174 0.428106 1.9014 0
M  V30 595 H 66.2134 -0.554268 3.07139 0
M  V30 596 N 66.5145 -1.57545 0.0417849 0
M  V30 597 C 67.9305 -1.56467 -0.314704 0
M  V30 598 C 68.1305 -1.04859 -1.72066 0
M  V30 599 O 67.1865 -0.700983 -2.42575 0
M  V30 600 C 68.4995 -3.00317 -0.15174 0
M  V30 601 C 70.0475 -3.12201 -0.223553 0
M  V30 602 C 70.5225 -4.57913 -0.0892295 0
M  V30 603 N 72.0135 -4.6297 -0.145808 0
M  V30 604 C 72.7485 -5.73362 -0.0658459 0
M  V30 605 N 72.2445 -6.92769 0.0659282 0
M  V30 606 N 74.0375 -5.6197 -0.12075 0
M  V30 607 H 66.1885 -1.89416 0.961014 0
M  V30 608 H 68.4515 -0.871862 0.372237 0
M  V30 609 H 68.1575 -3.42073 0.817254 0
M  V30 610 H 68.0315 -3.65892 -0.916692 0
M  V30 611 H 70.4185 -2.70349 -1.18301 0
M  V30 612 H 70.4995 -2.49323 0.571994 0
M  V30 613 H 70.1435 -5.00448 0.866867 0
M  V30 614 H 70.0735 -5.18786 -0.903802 0
M  V30 615 H 72.5645 -3.7709 -0.247286 0
M  V30 616 H 72.8775 -7.72707 0.119905 0
M  V30 617 H 71.2225 -6.94927 0.100885 0
M  V30 618 H 74.4135 -4.67572 -0.222187 0
M  V30 619 H 74.5865 -6.47977 -0.0549735 0
M  V30 620 N 67.9926 0.231505 -1.5589 0
M  V30 621 C 68.9226 1.29022 -1.94617 0
M  V30 622 C 69.9036 1.4941 -0.813067 0
M  V30 623 O 71.0886 1.6176 -1.07459 0
M  V30 624 C 68.2186 2.64199 -2.25424 0
M  V30 625 C 67.1726 2.58484 -3.41131 0
M  V30 626 C 66.4986 3.97599 -3.57518 0
M  V30 627 C 67.7986 2.1413 -4.76388 0
M  V30 628 H 69.4926 0.968563 -2.83301 0
M  V30 629 H 67.0386 0.464479 -1.36303 0
M  V30 630 H 68.9916 3.38413 -2.51107 0
M  V30 631 H 67.7156 2.98032 -1.33583 0
M  V30 632 H 66.3746 1.86727 -3.15481 0
M  V30 633 H 66.0226 4.28723 -2.6307 0
M  V30 634 H 65.7226 3.94659 -4.35337 0
M  V30 635 H 67.2466 4.7349 -3.85538 0
M  V30 636 H 68.6606 2.78083 -5.01341 0
M  V30 637 H 67.0576 2.2227 -5.57419 0
M  V30 638 H 68.1276 1.09331 -4.72414 0
M  V30 639 N 69.4707 1.49531 0.497807 0
M  V30 640 C 70.4337 1.65916 1.58128 0
M  V30 641 C 71.4337 0.530825 1.51786 0
M  V30 642 O 72.6237 0.797342 1.54881 0
M  V30 643 C 69.7557 1.65951 2.9778 0
M  V30 644 H 70.9487 2.62556 1.44929 0
M  V30 645 H 68.5017 1.38611 0.722275 0
M  V30 646 H 69.2367 0.709065 3.16453 0
M  V30 647 H 69.0217 2.47897 3.03792 0
M  V30 648 H 70.5117 1.80673 3.76493 0
M  V30 649 N 70.9488 -0.749086 1.3866 0
M  V30 650 C 72.1948 -1.51056 1.35314 0
M  V30 651 C 72.5278 -1.94121 -0.0553751 0
M  V30 652 O 71.8028 -1.65763 -1.01749 0
M  V30 653 C 72.0858 -2.76003 2.31288 0
M  V30 654 C 71.9388 -2.39047 3.8102 0
M  V30 655 C 73.2578 -3.78046 2.2532 0
M  V30 656 H 70.3768 -0.547972 0.492844 0
M  V30 657 H 73.0188 -0.857628 1.69543 0
M  V30 658 H 71.1688 -3.31716 2.02229 0
M  V30 659 H 72.8408 -1.89074 4.20771 0
M  V30 660 H 71.0838 -1.71449 3.98482 0
M  V30 661 H 71.7548 -3.28462 4.4364 0
M  V30 662 H 74.2308 -3.31884 2.50983 0
M  V30 663 H 73.1068 -4.63159 2.94576 0
M  V30 664 H 73.3678 -4.23957 1.25352 0
M  V30 665 N 72.4269 -1.23603 -0.977757 0
M  V30 666 C 73.8379 -1.06424 -1.53398 0
M  V30 667 C 74.1889 0.367578 -1.92726 0
M  V30 668 O 73.3139 1.25465 -1.76316 0
M  V30 669 C 73.9089 -1.92568 -2.78753 0
M  V30 670 C 72.4679 -1.79642 -3.30765 0
M  V30 671 C 71.6149 -1.88111 -2.03739 0
M  V30 672 H 74.5659 -1.37227 -0.797152 0
M  V30 673 H 74.5869 -1.45203 -3.51705 0
M  V30 674 H 74.0989 -2.96771 -2.50098 0
M  V30 675 H 72.1999 -0.782325 -3.64294 0
M  V30 676 H 72.3129 -2.63174 -4.00345 0
M  V30 677 H 70.6769 -1.31723 -2.17994 0
M  V30 678 H 71.4599 -2.93875 -1.77461 0
M  V30 679 N 73.905 1.17692 -1.04816 0
M  V30 680 C 75.316 1.69501 -0.782698 0
M  V30 681 C 75.667 1.83456 0.695577 0
M  V30 682 O 74.792 1.51942 1.54086 0
M  V30 683 C 75.387 3.07874 -1.41419 0
M  V30 684 C 73.946 3.56864 -1.19686 0
M  V30 685 C 73.093 2.3322 -1.50012 0
M  V30 686 H 76.044 1.02262 -1.2136 0
M  V30 687 H 76.065 3.71528 -0.821428 0
M  V30 688 H 75.577 2.97685 -2.49009 0
M  V30 689 H 73.678 3.72337 -0.140043 0
M  V30 690 H 73.791 4.39851 -1.89916 0
M  V30 691 H 72.155 2.37501 -0.920071 0
M  V30 692 H 72.938 2.25644 -2.58727 0
M  V30 693 N 75.3831 0.828654 1.34056 0
M  V30 694 C 76.7991 0.515135 1.51058 0
M  V30 695 C 76.9991 -0.959581 1.77184 0
M  V30 696 O 76.0551 -1.74382 1.82612 0
M  V30 697 C 77.3681 1.37963 2.67183 0
M  V30 698 C 78.9161 1.37735 2.81066 0
M  V30 699 C 79.3911 2.22645 4.00241 0
M  V30 700 N 80.8821 2.203 4.07458 0
M  V30 701 C 81.6171 2.82744 4.98842 0
M  V30 702 N 81.1131 3.54201 5.9541 0
M  V30 703 N 82.9061 2.72268 4.91759 0
M  V30 704 H 75.0571 1.78343 1.15358 0
M  V30 705 H 77.3201 0.760304 0.566252 0
M  V30 706 H 77.0261 2.42714 2.54525 0
M  V30 707 H 76.9001 1.0484 3.62338 0
M  V30 708 H 79.2871 0.337593 2.93163 0
M  V30 709 H 79.3681 1.74859 1.86703 0
M  V30 710 H 79.0121 3.26674 3.88905 0
M  V30 711 H 78.9421 1.82869 4.93829 0
M  V30 712 H 81.4331 1.68327 3.38341 0
M  V30 713 H 81.7461 3.9908 6.61782 0
M  V30 714 H 80.0911 3.58308 5.95517 0
M  V30 715 H 83.2821 2.16014 4.15278 0
M  V30 716 H 83.4551 3.21219 5.62781 0
M  V30 717 N 76.8612 -1.46375 0.584142 0
M  V30 718 C 77.7712 -2.34115 -0.150728 0
M  V30 719 C 78.7872 -1.49838 -0.884567 0
M  V30 720 O 79.9632 -1.82704 -0.847429 0
M  V30 721 C 77.0282 -3.2705 -1.15062 0
M  V30 722 C 76.0892 -4.27228 -0.421293 0
M  V30 723 C 75.3222 -5.15722 -1.37355 0
M  V30 724 O 75.5452 -5.07176 -2.61014 0
M  V30 725 O 74.4792 -5.95383 -0.883355 0
M  V30 726 H 78.3052 -2.98309 0.569708 0
M  V30 727 H 75.8902 -1.45373 0.344535 0
M  V30 728 H 77.7722 -3.84381 -1.72712 0
M  V30 729 H 76.4472 -2.65451 -1.8525 0
M  V30 730 H 75.3542 -3.7358 0.197085 0
M  V30 731 H 76.6872 -4.91616 0.239641 0
M  V30 732 N 78.3393 -0.321999 -1.54275 0
M  V30 733 C 79.5673 0.283052 -2.04955 0
M  V30 734 C 79.9823 1.45904 -1.19823 0
M  V30 735 O 79.3393 1.81063 -0.228545 0
M  V30 736 C 79.3903 0.719028 -3.54277 0
M  V30 737 O 79.1113 -0.410175 -4.36176 0
M  V30 738 C 80.6123 1.38705 -4.21041 0
M  V30 739 H 77.8323 0.0584616 -0.668448 0
M  V30 740 H 80.3763 -0.467734 -1.99079 0
M  V30 741 H 78.5313 1.41979 -3.60445 0
M  V30 742 H 78.9453 -0.0669416 -5.24457 0
M  V30 743 H 80.4193 1.64306 -5.2698 0
M  V30 744 H 80.8963 2.33385 -3.72059 0
M  V30 745 H 81.5023 0.728906 -4.19007 0
M  V30 746 N 79.8174 1.5752 -0.0501392 0
M  V30 747 C 81.0634 1.93755 0.618901 0
M  V30 748 C 81.4184 0.928514 1.68512 0
M  V30 749 O 80.7114 -0.0524613 1.91528 0
M  V30 750 C 80.9054 3.34467 1.25963 0
M  V30 751 C 80.7344 4.48965 0.257 0
M  V30 752 C 79.5044 5.05075 -0.150656 0
M  V30 753 C 81.7024 5.11891 -0.497166 0
M  V30 754 N 79.6844 6.03104 -1.14626 0
M  V30 755 C 81.0554 6.05216 -1.34588 0
M  V30 756 C 83.1104 4.9479 -0.55559 0
M  V30 757 C 81.8134 6.83277 -2.24778 0
M  V30 758 C 83.8394 5.73477 -1.44492 0
M  V30 759 C 83.2014 6.66433 -2.28136 0
M  V30 760 H 79.3004 0.756479 0.198149 0
M  V30 761 H 81.8844 1.94316 -0.122229 0
M  V30 762 H 80.0554 3.34685 1.97079 0
M  V30 763 H 81.7874 3.57994 1.88739 0
M  V30 764 H 78.5424 4.7305 0.228094 0
M  V30 765 H 78.9664 6.56813 -1.64092 0
M  V30 766 H 83.6084 4.2273 0.0768625 0
M  V30 767 H 81.3264 7.54629 -2.89069 0
M  V30 768 H 84.9124 5.62273 -1.49468 0
M  V30 769 H 83.7924 7.26258 -2.95835 0
M  V30 770 N 81.2955 -0.223234 1.56011 0
M  V30 771 C 82.5235 -0.964812 1.83027 0
M  V30 772 C 82.9385 -1.78013 0.62904 0
M  V30 773 O 82.2955 -1.78008 -0.402414 0
M  V30 774 C 82.3465 -1.88373 3.08542 0
M  V30 775 O 82.0675 -1.10137 4.2403 0
M  V30 776 C 83.5685 -2.73934 3.48533 0
M  V30 777 H 80.7885 -0.282842 0.608475 0
M  V30 778 H 83.3325 -0.238971 2.03099 0
M  V30 779 H 81.4875 -2.56354 2.9045 0
M  V30 780 H 81.9015 -1.72501 4.95322 0
M  V30 781 H 83.3755 -3.34117 4.39397 0
M  V30 782 H 83.8525 -3.46244 2.70207 0
M  V30 783 H 84.4585 -2.11369 3.69057 0
M  V30 784 N 82.7736 -1.49793 -0.48987 0
M  V30 785 C 84.1896 -1.36803 -0.822022 0
M  V30 786 C 84.3896 -0.409652 -1.97292 0
M  V30 787 O 83.4456 0.154614 -2.52026 0
M  V30 788 C 84.7586 -2.77768 -1.15175 0
M  V30 789 C 86.3066 -2.86549 -1.25931 0
M  V30 790 C 86.7816 -4.28306 -1.62228 0
M  V30 791 N 88.2726 -4.31169 -1.69256 0
M  V30 792 C 89.0076 -5.37832 -1.98807 0
M  V30 793 N 88.5036 -6.54726 -2.26507 0
M  V30 794 N 90.2966 -5.25258 -2.00152 0
M  V30 795 H 82.4476 -2.10691 0.268881 0
M  V30 796 H 84.7106 -0.946241 0.057728 0
M  V30 797 H 84.4166 -3.49648 -0.379335 0
M  V30 798 H 84.2906 -3.13836 -2.09253 0
M  V30 799 H 86.6776 -2.14899 -2.02243 0
M  V30 800 H 86.7586 -2.54049 -0.298776 0
M  V30 801 H 86.4026 -5.00486 -0.864622 0
M  V30 802 H 86.3326 -4.58279 -2.594 0
M  V30 803 H 88.8236 -3.4687 -1.49965 0
M  V30 804 H 89.1366 -7.31833 -2.48276 0
M  V30 805 H 87.4816 -6.57933 -2.23939 0
M  V30 806 H 90.6726 -4.32938 -1.77996 0
M  V30 807 H 90.8456 -6.08476 -2.22848 0
M  V30 808 N 84.2517 0.741722 -1.39055 0
M  V30 809 C 85.1837 1.8657 -1.33133 0
M  V30 810 C 86.1967 1.61001 -0.241329 0
M  V30 811 O 87.3857 1.7136 -0.499784 0
M  V30 812 C 84.4857 3.22457 -1.04283 0
M  V30 813 C 83.6587 3.75435 -2.24427 0
M  V30 814 C 82.7177 4.89867 -1.92138 0
M  V30 815 O 81.7437 5.03879 -2.64754 0
M  V30 816 N 82.9457 5.73738 -0.88347 0
M  V30 817 H 85.7107 1.92156 -2.29991 0
M  V30 818 H 83.2717 0.922172 -1.3307 0
M  V30 819 H 85.2637 3.9657 -0.807128 0
M  V30 820 H 83.8337 3.12181 -0.161807 0
M  V30 821 H 83.0537 2.92751 -2.6399 0
M  V30 822 H 84.3417 4.07563 -3.04581 0
M  V30 823 H 83.7397 5.64999 -0.281517 0
M  V30 824 H 82.2967 6.47947 -0.707662 0
M  V30 825 N 85.7298 1.2412 0.971189 0
M  V30 826 C 86.6628 0.97373 2.06382 0
M  V30 827 C 87.6408 -0.0912662 1.62344 0
M  V30 828 O 88.8248 0.0449365 1.88446 0
M  V30 829 C 85.9518 0.468746 3.35441 0
M  V30 830 C 84.9978 1.52176 3.98428 0
M  V30 831 S 85.8308 3.10203 4.36503 0
M  V30 832 C 86.9868 2.61398 5.68702 0
M  V30 833 H 87.2198 1.89893 2.28753 0
M  V30 834 H 84.7528 1.07466 1.10862 0
M  V30 835 H 86.7108 0.184012 4.10087 0
M  V30 836 H 85.3718 -0.435688 3.11064 0
M  V30 837 H 84.5648 1.11876 4.91426 0
M  V30 838 H 84.1668 1.75632 3.30196 0
M  V30 839 H 86.4588 2.03992 6.4606 0
M  V30 840 H 87.4018 3.52972 6.13854 0
M  V30 841 H 87.8098 2.01941 5.27143 0
M  V30 842 N 87.2079 -1.17134 1.05439 0
M  V30 843 C 88.4849 -1.83411 0.679699 0
M  V30 844 C 88.8649 -1.9368 -0.839726 0
M  V30 845 O 88.2129 -1.47325 -1.74664 0
M  V30 846 C 88.4229 -3.20918 1.37159 0
M  V30 847 C 89.7709 -3.96796 1.51123 0
M  V30 848 O 90.7949 -3.30406 1.3308 0
M  V30 849 O 89.6539 -5.15778 1.80651 0
M  V30 850 H 86.7479 -0.79154 0.239569 0
M  V30 851 H 89.2939 -1.24411 1.15413 0
M  V30 852 H 88.0659 -3.08428 2.40807 0
M  V30 853 H 87.6889 -3.87587 0.886674 0
M  V30 854 N 88.686 -0.835752 -1.33615 0
M  V30 855 C 89.933 -0.429959 -1.97883 0
M  V30 856 C 90.261 1.01006 -1.66217 0
M  V30 857 O 89.516 1.72047 -0.93265 0
M  V30 858 C 89.815 -0.593925 -3.52431 0
M  V30 859 C 89.481 -2.00158 -4.04039 0
M  V30 860 C 88.143 -2.38662 -4.17844 0
M  V30 861 C 90.495 -2.92117 -4.31644 0
M  V30 862 C 87.823 -3.68435 -4.56588 0
M  V30 863 C 90.175 -4.21368 -4.71838 0
M  V30 864 C 88.839 -4.59833 -4.83849 0
M  V30 865 H 88.109 -0.157333 -0.724104 0
M  V30 866 H 90.756 -1.06217 -1.59343 0
M  V30 867 H 89.061 0.121619 -3.91611 0
M  V30 868 H 90.758 -0.260282 -4.00154 0
M  V30 869 H 87.348 -1.69252 -3.93766 0
M  V30 870 H 91.532 -2.63608 -4.20505 0
M  V30 871 H 86.788 -3.98046 -4.64079 0
M  V30 872 H 90.962 -4.92703 -4.92155 0
M  V30 873 H 88.589 -5.60438 -5.13627 0
M  V30 874 N 90.1641 1.46063 -0.591896 0
M  V30 875 C 91.4131 2.01547 -0.0786637 0
M  V30 876 C 91.7261 1.46796 1.29268 0
M  V30 877 O 92.9321 1.94157 1.89777 0
M  V30 878 C 91.3881 3.59787 -0.0900024 0
M  V30 879 C 90.9961 4.23534 -1.46023 0
M  V30 880 C 92.7401 4.22895 0.368806 0
M  V30 881 C 90.6471 5.73881 -1.4288 0
M  V30 882 H 89.5771 0.753564 -0.0256388 0
M  V30 883 H 92.2281 1.677 -0.744905 0
M  V30 884 H 90.6101 3.90752 0.642586 0
M  V30 885 H 91.7841 4.04167 -2.21328 0
M  V30 886 H 90.0991 3.72558 -1.85982 0
M  V30 887 H 92.6961 5.33116 0.411258 0
M  V30 888 H 93.0391 3.9247 1.38827 0
M  V30 889 H 93.5721 3.9659 -0.31001 0
M  V30 890 H 90.3111 6.0898 -2.42536 0
M  V30 891 H 89.8311 5.95486 -0.718095 0
M  V30 892 H 91.5101 6.36776 -1.14565 0
M  V30 893 N 91.6422 0.330177 1.54103 0
M  V30 894 C 92.5752 -0.575477 2.20825 0
M  V30 895 C 93.5532 -1.11064 1.18758 0
M  V30 896 O 94.7372 -1.17341 1.47524 0
M  V30 897 C 91.8642 -1.79032 2.87516 0
M  V30 898 C 90.9102 -1.38581 4.03358 0
M  V30 899 S 91.7432 -0.416911 5.33875 0
M  V30 900 C 92.8992 -1.63889 6.04062 0
M  V30 901 H 93.1322 -0.00872114 2.97299 0
M  V30 902 H 90.6652 0.114254 1.53977 0
M  V30 903 H 92.6232 -2.48734 3.2656 0
M  V30 904 H 91.2842 -2.32827 2.10832 0
M  V30 905 H 90.4772 -2.29123 4.48908 0
M  V30 906 H 90.0792 -0.768419 3.66021 0
M  V30 907 H 92.3712 -2.57536 6.26643 0
M  V30 908 H 93.3142 -1.22542 6.97416 0
M  V30 909 H 93.7222 -1.82887 5.34053 0
M  V30 910 N 93.1203 -1.57491 0.0584922 0
M  V30 911 C 94.3453 -1.97711 -0.62652 0
M  V30 912 C 94.7703 -0.936132 -1.63151 0
M  V30 913 O 94.1283 0.099811 -1.81025 0
M  V30 914 C 94.1763 -3.36989 -1.28338 0
M  V30 915 O 93.2803 -3.35433 -2.39913 0
M  V30 916 H 92.6213 -0.643868 -0.162266 0
M  V30 917 H 95.1513 -2.04193 0.129064 0
M  V30 918 H 95.1613 -3.73879 -1.63335 0
M  V30 919 H 93.8363 -4.12289 -0.546889 0
M  V30 920 H 92.4133 -3.10298 -2.06809 0
M  V30 921 N 94.5984 0.214957 -1.56127 0
M  V30 922 C 95.8384 0.945364 -1.81224 0
M  V30 923 C 96.2024 1.81265 -0.633005 0
M  V30 924 O 97.4034 2.57731 -0.763423 0
M  V30 925 C 95.6744 1.75665 -3.1125 0
M  V30 926 S 97.2334 2.54179 -3.57685 0
M  V30 927 H 94.0514 0.317443 -0.6362 0
M  V30 928 H 96.6534 0.210381 -1.94365 0
M  V30 929 H 95.3574 1.10977 -3.9511 0
M  V30 930 H 94.8884 2.53381 -3.00934 0
M  V30 931 H 96.9034 3.7792 -3.21545 0
M  V30 932 N 96.0765 1.50051 0.48192 0
M  V30 933 C 97.3225 1.60736 1.2366 0
M  V30 934 C 97.6555 0.301786 1.91841 0
M  V30 935 O 96.9305 -0.696025 1.8162 0
M  V30 936 C 97.2135 2.78009 2.28874 0
M  V30 937 C 97.0665 4.18416 1.65069 0
M  V30 938 C 98.3855 2.90867 3.30279 0
M  V30 939 H 95.5045 0.585031 0.448228 0
M  V30 940 H 98.1465 1.82402 0.531946 0
M  V30 941 H 96.2965 2.59667 2.88973 0
M  V30 942 H 97.9685 4.48322 1.0865 0
M  V30 943 H 96.2115 4.23177 0.954148 0
M  V30 944 H 96.8825 4.96381 2.41474 0
M  V30 945 H 99.3585 3.07623 2.80191 0
M  V30 946 H 98.2345 3.74566 4.01238 0
M  V30 947 H 98.4955 2.01021 3.93755 0
M  V30 948 N 97.5546 -0.734337 1.39446 0
M  V30 949 C 98.8026 -1.49096 1.36436 0
M  V30 950 C 99.1236 -1.94961 -0.0388255 0
M  V30 951 O 98.3936 -1.69033 -0.990191 0
M  V30 952 H 96.9736 -0.5531 0.502085 0
M  V30 953 H 99.6356 -0.871725 1.74319 0
M  V30 954 H 98.7316 -2.37276 2.02747 0
M  V30 955 N 99.0327 -1.24633 -0.964593 0
M  V30 956 C 100.28 -1.08788 -1.70796 0
M  V30 957 C 100.608 0.372783 -1.90894 0
M  V30 958 O 99.8627 1.29167 -1.47018 0
M  V30 959 C 100.162 -1.7763 -3.10133 0
M  V30 960 C 99.8277 -3.27557 -3.09866 0
M  V30 961 C 98.4897 -3.6846 -3.09501 0
M  V30 962 C 100.842 -4.23389 -3.03959 0
M  V30 963 C 98.1697 -5.03624 -3.00965 0
M  V30 964 C 100.522 -5.58565 -2.96965 0
M  V30 965 C 99.1857 -5.98809 -2.9493 0
M  V30 966 H 98.4557 -0.398084 -0.624988 0
M  V30 967 H 101.103 -1.54777 -1.12767 0
M  V30 968 H 99.4077 -1.24044 -3.71645 0
M  V30 969 H 101.105 -1.62832 -3.66451 0
M  V30 970 H 97.6947 -2.95006 -3.10917 0
M  V30 971 H 101.879 -3.92787 -3.03368 0
M  V30 972 H 97.1347 -5.33998 -2.97752 0
M  V30 973 H 101.309 -6.32523 -2.91354 0
M  V30 974 H 98.9357 -7.03505 -2.88071 0
M  V30 975 N 100.511 1.16574 -1.06058 0
M  V30 976 C 101.474 2.19085 -0.673392 0
M  V30 977 C 102.474 1.5835 0.279648 0
M  V30 978 O 103.664 1.74088 0.0623488 0
M  V30 979 C 100.796 3.40899 0.00954234 0
M  V30 980 H 101.989 2.54853 -1.58081 0
M  V30 981 H 99.5418 1.30808 -0.855516 0
M  V30 982 H 100.277 3.10684 0.929826 0
M  V30 983 H 100.062 3.86233 -0.67573 0
M  V30 984 H 101.552 4.1675 0.266245 0
M  V30 985 N 101.989 0.842826 1.3317 0
M  V30 986 C 103.235 0.441099 1.97945 0
M  V30 987 C 103.568 -0.998024 1.66593 0
M  V30 988 O 102.843 -1.69839 0.947898 0
M  V30 989 C 103.126 0.666841 3.53872 0
M  V30 990 C 102.979 2.15352 3.94897 0
M  V30 991 C 104.298 0.115544 4.39948 0
M  V30 992 H 101.417 0.161739 0.719034 0
M  V30 993 H 104.059 1.05907 1.57746 0
M  V30 994 H 102.209 0.140828 3.88245 0
M  V30 995 H 103.881 2.7447 3.70761 0
M  V30 996 H 102.124 2.63653 3.44484 0
M  V30 997 H 102.795 2.26221 5.03516 0
M  V30 998 H 105.271 0.565213 4.12243 0
M  V30 999 H 104.147 0.303152 5.48062 0
M  V30 1000 H 104.408 -0.980935 4.3108 0
M  V30 1001 N 103.467 -1.45747 0.599634 0
M  V30 1002 C 104.715 -2.01893 0.0915472 0
M  V30 1003 C 105.036 -1.47155 -1.27946 0
M  V30 1004 O 104.306 -0.66273 -1.84349 0
M  V30 1005 H 102.886 -0.746363 0.0308524 0
M  V30 1006 H 105.548 -1.78645 0.779237 0
M  V30 1007 H 104.644 -3.1208 0.0353086 0
M  V30 1008 N 104.945 -0.338344 -1.53925 0
M  V30 1009 C 105.875 0.51328 -2.27789 0
M  V30 1010 C 106.856 1.107 -1.29149 0
M  V30 1011 O 108.041 1.12937 -1.57984 0
M  V30 1012 C 105.171 1.66697 -3.04679 0
M  V30 1013 C 104.125 1.20183 -4.1078 0
M  V30 1014 C 103.451 2.44363 -4.75595 0
M  V30 1015 C 104.751 0.30605 -5.21403 0
M  V30 1016 H 106.445 -0.102883 -2.99223 0
M  V30 1017 H 103.991 -0.0509219 -1.4391 0
M  V30 1018 H 105.944 2.26915 -3.55088 0
M  V30 1019 H 104.668 2.30995 -2.30887 0
M  V30 1020 H 103.327 0.622499 -3.61276 0
M  V30 1021 H 102.975 3.07057 -3.98403 0
M  V30 1022 H 102.675 2.13925 -5.47275 0
M  V30 1023 H 104.199 3.05317 -5.28786 0
M  V30 1024 H 105.613 0.814929 -5.67478 0
M  V30 1025 H 104.01 0.0937929 -6.00027 0
M  V30 1026 H 105.08 -0.65921 -4.80398 0
M  V30 1027 N 106.423 1.57458 -0.0668435 0
M  V30 1028 C 107.671 1.92919 0.602214 0
M  V30 1029 C 107.992 0.947215 1.70449 0
M  V30 1030 O 107.262 -0.00544117 1.95899 0
M  V30 1031 H 105.842 0.71217 0.22544 0
M  V30 1032 H 108.504 1.94508 -0.123535 0
M  V30 1033 H 107.6 2.94589 1.03073 0
M  V30 1034 N 107.901 -0.206675 1.56239 0
M  V30 1035 C 108.849 -1.27571 1.94495 0
M  V30 1036 C 109.843 -1.47737 0.828862 0
M  V30 1037 O 111.049 -1.48735 1.0138 0
M  V30 1038 H 107.424 -0.428029 0.6183 0
M  V30 1039 H 109.395 -0.925961 2.8367 0
M  V30 1040 C 108.144 -2.61568 2.29079 0
M  V30 1041 H 107.467 -2.46863 3.14482 0
M  V30 1042 H 108.907 -3.35144 2.5972 0
M  V30 1043 C 107.366 -3.17695 1.12123 0
M  V30 1044 O 107.896 -3.99801 0.390153 0
M  V30 1045 N 106.102 -2.76276 0.901097 0
M  V30 1046 H 105.649 -2.09613 1.49733 0
M  V30 1047 H 105.607 -3.1417 0.120319 0
M  V30 1048 N 109.379 -1.50304 -0.473955 0
M  V30 1049 C 110.625 -1.61389 -1.22806 0
M  V30 1050 C 110.958 -0.311955 -1.91678 0
M  V30 1051 O 110.233 0.686384 -1.81986 0
M  V30 1052 C 110.516 -2.79219 -2.27396 0
M  V30 1053 C 110.369 -4.19286 -1.62848 0
M  V30 1054 C 111.688 -2.92614 -3.28732 0
M  V30 1055 H 108.807 -0.587399 -0.445119 0
M  V30 1056 H 111.449 -1.82681 -0.522265 0
M  V30 1057 H 109.599 -2.61195 -2.87592 0
M  V30 1058 H 111.271 -4.48892 -1.06271 0
M  V30 1059 H 109.514 -4.23677 -0.931693 0
M  V30 1060 H 110.185 -4.97655 -2.38838 0
M  V30 1061 H 112.661 -3.09105 -2.78556 0
M  V30 1062 H 111.537 -3.76688 -3.99246 0
M  V30 1063 H 111.798 -2.03107 -3.92683 0
M  V30 1064 N 110.857 0.726932 -1.39834 0
M  V30 1065 C 112.103 1.48771 -1.38704 0
M  V30 1066 C 112.458 1.92394 0.0146387 0
M  V30 1067 O 111.751 1.64474 0.982797 0
M  V30 1068 C 111.945 2.73495 -2.30077 0
M  V30 1069 C 111.774 2.42068 -3.78989 0
M  V30 1070 C 110.544 2.33966 -4.4787 0
M  V30 1071 C 112.742 2.0708 -4.70768 0
M  V30 1072 N 110.724 1.95095 -5.82075 0
M  V30 1073 C 112.095 1.78719 -5.93683 0
M  V30 1074 C 114.15 1.93618 -4.58712 0
M  V30 1075 C 112.853 1.3825 -7.05889 0
M  V30 1076 C 114.879 1.54553 -5.70848 0
M  V30 1077 C 114.241 1.27082 -6.92842 0
M  V30 1078 H 110.34 0.542919 -0.562817 0
M  V30 1079 H 112.924 0.84408 -1.75452 0
M  V30 1080 H 111.095 3.35625 -1.95474 0
M  V30 1081 H 112.827 3.39755 -2.19883 0
M  V30 1082 H 109.582 2.51331 -4.0141 0
M  V30 1083 H 110.006 1.7823 -6.53118 0
M  V30 1084 H 114.648 2.13522 -3.64922 0
M  V30 1085 H 112.366 1.17088 -7.99572 0
M  V30 1086 H 115.952 1.44731 -5.6351 0
M  V30 1087 H 114.832 0.973069 -7.78139 0
M  V30 1088 N 112.336 1.25143 0.95797 0
M  V30 1089 C 113.752 1.01892 1.22842 0
M  V30 1090 C 113.952 -0.266311 1.99732 0
M  V30 1091 O 113.008 -0.979913 2.3271 0
M  V30 1092 C 114.321 2.24004 2.00606 0
M  V30 1093 C 115.869 2.28731 2.13662 0
M  V30 1094 C 116.344 3.5049 2.94823 0
M  V30 1095 N 117.835 3.50866 3.02403 0
M  V30 1096 C 118.57 4.4174 3.65586 0
M  V30 1097 N 118.066 5.42882 4.30408 0
M  V30 1098 N 119.859 4.29429 3.62694 0
M  V30 1099 H 112.01 2.07718 0.443493 0
M  V30 1100 H 114.273 0.912031 0.258657 0
M  V30 1101 H 113.979 3.17395 1.51503 0
M  V30 1102 H 113.853 2.26907 3.01319 0
M  V30 1103 H 116.24 1.35865 2.61963 0
M  V30 1104 H 116.321 2.29848 1.12265 0
M  V30 1105 H 115.965 4.43676 2.47213 0
M  V30 1106 H 115.895 3.46617 3.96439 0
M  V30 1107 H 118.386 2.777 2.56302 0
M  V30 1108 H 118.699 6.0844 4.76467 0
M  V30 1109 H 117.044 5.46758 4.29047 0
M  V30 1110 H 120.235 3.49643 3.11236 0
M  V30 1111 H 120.408 5.00448 4.1165 0
M  V30 1112 N 113.814 -1.1601 1.06675 0
M  V30 1113 C 115.061 -1.86633 0.785781 0
M  V30 1114 C 115.389 -1.81929 -0.687896 0
M  V30 1115 O 114.644 -1.23253 -1.52011 0
M  V30 1116 C 114.943 -3.35547 1.23057 0
M  V30 1117 C 114.609 -3.60448 2.70902 0
M  V30 1118 C 113.271 -3.66954 3.11285 0
M  V30 1119 C 115.623 -3.7071 3.66365 0
M  V30 1120 C 112.951 -3.81225 4.45965 0
M  V30 1121 C 115.303 -3.86503 5.00797 0
M  V30 1122 C 113.967 -3.91252 5.40813 0
M  V30 1123 H 113.237 -0.682937 0.287538 0
M  V30 1124 H 115.884 -1.37146 1.33654 0
M  V30 1125 H 114.189 -3.87193 0.59907 0
M  V30 1126 H 115.886 -3.88583 0.990163 0
M  V30 1127 H 112.476 -3.56021 2.38636 0
M  V30 1128 H 116.66 -3.64991 3.36296 0
M  V30 1129 H 111.916 -3.83155 4.76447 0
M  V30 1130 H 116.09 -3.93385 5.74649 0
M  V30 1131 H 113.717 -4.02062 6.45174 0
M  V30 1132 N 115.292 -0.849877 -1.32721 0
M  V30 1133 C 116.703 -0.506188 -1.79707 0
M  V30 1134 C 117.054 0.975627 -1.70223 0
M  V30 1135 O 116.179 1.76078 -1.25799 0
M  V30 1136 C 116.774 -0.912044 -3.26293 0
M  V30 1137 C 115.333 -0.620326 -3.71253 0
M  V30 1138 C 114.48 -1.11439 -2.53922 0
M  V30 1139 H 117.431 -1.03754 -1.20087 0
M  V30 1140 H 117.452 -0.226493 -3.79825 0
M  V30 1141 H 116.964 -1.99057 -3.33164 0
M  V30 1142 H 115.065 0.447674 -3.69901 0
M  V30 1143 H 115.178 -1.18327 -4.64258 0
M  V30 1144 H 113.542 -0.534834 -2.49021 0
M  V30 1145 H 114.325 -2.19992 -2.6355 0
M  V30 1146 N 116.77 1.45427 -0.607355 0
M  V30 1147 C 118 2.06314 -0.108656 0
M  V30 1148 C 118.408 1.45269 1.21217 0
M  V30 1149 O 117.751 0.561115 1.74921 0
M  V30 1150 C 117.813 3.59345 0.105618 0
M  V30 1151 C 117.477 4.42723 -1.13337 0
M  V30 1152 C 118.474 4.77715 -2.05145 0
M  V30 1153 C 116.159 4.83478 -1.36213 0
M  V30 1154 C 118.153 5.52317 -3.18158 0
M  V30 1155 C 115.84 5.57835 -2.49527 0
M  V30 1156 C 116.838 5.92171 -3.40327 0
M  V30 1157 O 116.526 6.65019 -4.51669 0
M  V30 1158 H 116.258 0.672782 -0.0658842 0
M  V30 1159 H 118.812 1.87664 -0.834945 0
M  V30 1160 H 117.042 3.76394 0.886796 0
M  V30 1161 H 118.731 4.02076 0.555886 0
M  V30 1162 H 119.497 4.46787 -1.88697 0
M  V30 1163 H 115.376 4.56188 -0.664362 0
M  V30 1164 H 118.92 5.79036 -3.89054 0
M  V30 1165 H 114.817 5.88177 -2.65928 0
M  V30 1166 H 115.585 6.83469 -4.50348 0
M  V30 1167 N 118.248 0.346503 1.53744 0
M  V30 1168 C 119.178 -0.501193 2.28058 0
M  V30 1169 C 120.159 -1.10014 1.29734 0
M  V30 1170 O 121.344 -1.12097 1.58581 0
M  V30 1171 C 118.474 -1.65078 3.05559 0
M  V30 1172 C 117.428 -1.18003 4.11411 0
M  V30 1173 C 116.754 -2.41837 4.76884 0
M  V30 1174 C 118.054 -0.278394 5.21558 0
M  V30 1175 H 119.748 0.11875 2.99164 0
M  V30 1176 H 117.294 0.0585531 1.43881 0
M  V30 1177 H 119.247 -2.25028 3.56287 0
M  V30 1178 H 117.971 -2.29767 2.32109 0
M  V30 1179 H 116.63 -0.603331 3.61601 0
M  V30 1180 H 116.278 -3.0494 4.00026 0
M  V30 1181 H 115.978 -2.1102 5.48402 0
M  V30 1182 H 117.502 -3.02508 5.30397 0
M  V30 1183 H 118.916 -0.784823 5.67903 0
M  V30 1184 H 117.313 -0.0619707 6.00068 0
M  V30 1185 H 118.383 0.684677 4.80042 0
M  V30 1186 N 119.726 -1.57421 0.075193 0
M  V30 1187 C 120.966 -1.95495 -0.596757 0
M  V30 1188 C 121.33 -0.954886 -1.66571 0
M  V30 1189 O 122.531 -1.22341 -2.39345 0
M  V30 1190 C 120.802 -3.382 -1.15566 0
M  V30 1191 S 122.361 -3.98254 -1.84226 0
M  V30 1192 H 119.179 -0.683649 -0.195307 0
M  V30 1193 H 121.781 -1.94925 0.149859 0
M  V30 1194 H 120.485 -4.08766 -0.36588 0
M  V30 1195 H 120.016 -3.42321 -1.93856 0
M  V30 1196 H 122.031 -3.85435 -3.12497 0
M  V30 1197 N 121.204 0.198386 -1.56346 0
M  V30 1198 C 122.434 0.934215 -1.84271 0
M  V30 1199 C 122.842 1.77496 -0.655125 0
M  V30 1200 O 122.185 1.7961 0.385488 0
M  V30 1201 C 122.247 1.88278 -3.06254 0
M  V30 1202 C 121.911 1.22431 -4.40295 0
M  V30 1203 C 122.908 0.602839 -5.16393 0
M  V30 1204 C 120.593 1.22915 -4.87029 0
M  V30 1205 C 122.587 -0.0050083 -6.374 0
M  V30 1206 C 120.274 0.617465 -6.07973 0
M  V30 1207 C 121.272 0.00146341 -6.83 0
M  V30 1208 O 120.96 -0.600642 -8.01653 0
M  V30 1209 H 120.692 0.278245 -0.616081 0
M  V30 1210 H 123.246 0.211626 -2.04307 0
M  V30 1211 H 121.476 2.64498 -2.82095 0
M  V30 1212 H 123.165 2.48612 -3.20853 0
M  V30 1213 H 123.931 0.591265 -4.81382 0
M  V30 1214 H 119.81 1.69801 -4.28589 0
M  V30 1215 H 123.354 -0.48643 -6.95902 0
M  V30 1216 H 119.251 0.62653 -6.42452 0
M  V30 1217 H 120.019 -0.497225 -8.16988 0
M  V30 1218 N 122.682 1.50554 0.465978 0
M  V30 1219 C 123.629 1.6979 1.56333 0
M  V30 1220 C 124.599 0.539239 1.57103 0
M  V30 1221 O 125.784 0.770401 1.74555 0
M  V30 1222 C 122.924 1.80273 2.94271 0
M  V30 1223 C 122.037 3.07674 3.0325 0
M  V30 1224 C 121.172 3.08922 4.32135 0
M  V30 1225 C 120.211 4.30755 4.34875 0
M  V30 1226 N 119.348 4.29714 5.55239 0
M  V30 1227 H 124.188 2.63472 1.39235 0
M  V30 1228 H 121.725 1.30602 0.676873 0
M  V30 1229 H 123.683 1.84332 3.74269 0
M  V30 1230 H 122.313 0.900258 3.09992 0
M  V30 1231 H 121.365 3.13062 2.16094 0
M  V30 1232 H 122.677 3.97642 3.01135 0
M  V30 1233 H 121.831 3.11738 5.20485 0
M  V30 1234 H 120.57 2.16792 4.36866 0
M  V30 1235 H 119.575 4.28146 3.44922 0
M  V30 1236 H 120.8 5.24117 4.31831 0
M  V30 1237 H 118.746 3.4044 5.60746 0
M  V30 1238 H 118.663 5.13456 5.54886 0
M  V30 1239 H 119.931 4.36683 6.457 0
M  V30 1240 N 124.16 -0.719506 1.40217 0
M  V30 1241 C 125.108 -1.85493 1.40339 0
M  V30 1242 C 126.102 -1.66995 0.284415 0
M  V30 1243 O 127.308 -1.74148 0.455252 0
M  V30 1244 H 123.683 -0.610857 0.438586 0
M  V30 1245 H 125.654 -1.82506 2.36081 0
M  V30 1246 C 124.403 -3.23321 1.27901 0
M  V30 1247 H 123.726 -3.38159 2.1328 0
M  V30 1248 H 125.166 -4.02914 1.32045 0
M  V30 1249 C 123.625 -3.36898 -0.0111355 0
M  V30 1250 O 124.155 -3.89674 -0.975538 0
M  V30 1251 N 122.361 -2.90492 -0.0793393 0
M  V30 1252 H 121.908 -2.47731 0.706183 0
M  V30 1253 H 121.866 -2.99955 -0.942038 0
M  V30 1254 N 125.638 -1.25649 -0.95132 0
M  V30 1255 C 126.886 -1.10375 -1.69298 0
M  V30 1256 C 127.207 0.355339 -1.91735 0
M  V30 1257 O 126.477 1.25188 -1.50681 0
M  V30 1258 H 125.057 -0.405461 -0.627384 0
M  V30 1259 H 127.719 -1.57823 -1.14358 0
M  V30 1260 H 126.815 -1.61465 -2.67087 0
M  V30 1261 N 127.117 1.15442 -1.07289 0
M  V30 1262 C 128.365 1.85845 -0.794096 0
M  V30 1263 C 128.686 1.82692 0.681809 0
M  V30 1264 O 127.956 1.26741 1.49377 0
M  V30 1265 H 126.536 0.688089 -0.290763 0
M  V30 1266 H 129.198 1.39947 -1.3565 0
M  V30 1267 H 128.294 2.91001 -1.12804 0
M  V30 1268 N 128.595 0.856903 1.32268 0
M  V30 1269 C 129.843 0.460474 1.96784 0
M  V30 1270 C 130.164 -0.987701 1.68135 0
M  V30 1271 O 129.434 -1.69058 0.989765 0
M  V30 1272 H 128.014 0.167289 0.728027 0
M  V30 1273 H 130.676 1.09383 1.61312 0
M  V30 1274 H 129.772 0.60739 3.06133 0
M  V30 1275 N 130.073 -1.45103 0.615059 0
M  V30 1276 C 131.319 -2.02483 0.113347 0
M  V30 1277 C 131.652 -1.48146 -1.25564 0
M  V30 1278 O 130.927 -0.659104 -1.82992 0
M  V30 1279 C 131.21 -3.60005 0.0825278 0
M  V30 1280 C 131.063 -4.2466 1.48271 0
M  V30 1281 C 132.382 -4.35972 -0.601401 0
M  V30 1282 H 129.501 -0.735764 0.0426632 0
M  V30 1283 H 132.143 -1.72868 0.788461 0
M  V30 1284 H 130.293 -3.85367 -0.492378 0
M  V30 1285 H 131.965 -4.10458 2.10527 0
M  V30 1286 H 130.208 -3.82772 2.04127 0
M  V30 1287 H 130.879 -5.336 1.41332 0
M  V30 1288 H 133.355 -4.15947 -0.112666 0
M  V30 1289 H 132.231 -5.45697 -0.592097 0
M  V30 1290 H 132.492 -4.09391 -1.66887 0
M  V30 1291 N 131.551 -0.354651 -1.53558 0
M  V30 1292 C 132.798 0.238443 -2.01091 0
M  V30 1293 C 133.126 1.49663 -1.24222 0
M  V30 1294 O 132.381 1.93049 -0.321003 0
M  V30 1295 C 132.68 0.587121 -3.52545 0
M  V30 1296 C 132.346 -0.575472 -4.47213 0
M  V30 1297 C 131.008 -0.894497 -4.72813 0
M  V30 1298 C 133.36 -1.35489 -5.03281 0
M  V30 1299 C 130.688 -1.99511 -5.51736 0
M  V30 1300 C 133.04 -2.44583 -5.83405 0
M  V30 1301 C 131.704 -2.77033 -6.07296 0
M  V30 1302 H 130.974 0.0872526 -0.735845 0
M  V30 1303 H 133.621 -0.484859 -1.8526 0
M  V30 1304 H 131.926 1.39129 -3.66265 0
M  V30 1305 H 133.623 1.05809 -3.86789 0
M  V30 1306 H 130.213 -0.316774 -4.27428 0
M  V30 1307 H 134.397 -1.12167 -4.83459 0
M  V30 1308 H 129.653 -2.25063 -5.68469 0
M  V30 1309 H 133.827 -3.05401 -6.25862 0
M  V30 1310 H 131.454 -3.6244 -6.68237 0
M  V30 1311 N 133.029 1.57378 -0.0835403 0
M  V30 1312 C 133.959 2.1641 0.87686 0
M  V30 1313 C 134.94 1.09429 1.30228 0
M  V30 1314 O 136.125 1.37516 1.37124 0
M  V30 1315 C 133.255 2.73517 2.14022 0
M  V30 1316 C 132.209 3.85769 1.85381 0
M  V30 1317 C 131.535 4.29529 3.18448 0
M  V30 1318 C 132.835 5.09486 1.14984 0
M  V30 1319 H 134.529 2.96914 0.385059 0
M  V30 1320 H 132.075 1.42823 0.18377 0
M  V30 1321 H 134.028 3.13463 2.81636 0
M  V30 1322 H 132.752 1.90252 2.65465 0
M  V30 1323 H 131.411 3.46345 1.20169 0
M  V30 1324 H 131.059 3.43169 3.67755 0
M  V30 1325 H 130.759 5.05204 3.00071 0
M  V30 1326 H 132.283 4.72099 3.8724 0
M  V30 1327 H 133.697 5.46674 1.72687 0
M  V30 1328 H 132.094 5.90515 1.06826 0
M  V30 1329 H 133.164 4.84724 0.130749 0
M  V30 1330 N 134.507 -0.190092 1.56449 0
M  V30 1331 C 135.756 -0.907912 1.80111 0
M  V30 1332 C 136.069 -1.84214 0.657619 0
M  V30 1333 O 137.275 -2.60094 0.778663 0
M  V30 1334 C 135.731 -1.66485 3.19078 0
M  V30 1335 C 135.339 -0.7752 4.41242 0
M  V30 1336 C 137.083 -2.37201 3.52045 0
M  V30 1337 C 134.99 -1.53129 5.71231 0
M  V30 1338 H 133.92 -0.34276 0.671589 0
M  V30 1339 H 136.571 -0.161109 1.82791 0
M  V30 1340 H 134.953 -2.45572 3.10661 0
M  V30 1341 H 136.127 -0.0226298 4.60794 0
M  V30 1342 H 134.442 -0.178627 4.16017 0
M  V30 1343 H 137.039 -2.94329 4.46402 0
M  V30 1344 H 137.382 -3.11632 2.76028 0
M  V30 1345 H 137.915 -1.65075 3.61932 0
M  V30 1346 H 134.654 -0.82967 6.50228 0
M  V30 1347 H 134.174 -2.25767 5.55688 0
M  V30 1348 H 135.853 -2.08377 6.12526 0
M  V30 1349 N 135.985 -1.50799 -0.457987 0
M  V30 1350 C 137.396 -1.55152 -1.0385 0
M  V30 1351 C 137.747 -0.362719 -1.92818 0
M  V30 1352 O 136.872 0.522915 -2.09987 0
M  V30 1353 C 137.467 -2.81173 -1.89017 0
M  V30 1354 C 136.026 -2.88164 -2.42154 0
M  V30 1355 C 135.173 -2.49591 -1.20829 0
M  V30 1356 H 138.124 -1.56874 -0.240068 0
M  V30 1357 H 138.145 -2.63769 -2.74238 0
M  V30 1358 H 137.657 -3.67677 -1.24238 0
M  V30 1359 H 135.758 -2.06042 -3.10447 0
M  V30 1360 H 135.871 -3.91356 -2.76364 0
M  V30 1361 H 134.235 -2.02322 -1.54719 0
M  V30 1362 H 135.018 -3.38418 -0.576927 0
M  V30 1363 N 137.463 0.71206 -1.40597 0
M  V30 1364 C 138.693 1.49894 -1.42181 0
M  V30 1365 C 139.101 1.89189 -0.0208078 0
M  V30 1366 O 138.444 1.56223 0.966436 0
M  V30 1367 C 138.506 2.80215 -2.25211 0
M  V30 1368 C 138.17 2.63221 -3.73582 0
M  V30 1369 C 139.167 2.30249 -4.66135 0
M  V30 1370 C 136.852 2.79376 -4.17438 0
M  V30 1371 C 138.846 2.13645 -6.00529 0
M  V30 1372 C 136.533 2.6239 -5.51901 0
M  V30 1373 C 137.531 2.29573 -6.43262 0
M  V30 1374 O 137.219 2.12719 -7.75246 0
M  V30 1375 H 136.951 0.469031 -0.486812 0
M  V30 1376 H 139.505 0.88564 -1.85326 0
M  V30 1377 H 137.735 3.4389 -1.76852 0
M  V30 1378 H 139.424 3.41947 -2.18694 0
M  V30 1379 H 140.19 2.17398 -4.33547 0
M  V30 1380 H 136.069 3.03906 -3.46644 0
M  V30 1381 H 139.613 1.87953 -6.71803 0
M  V30 1382 H 135.51 2.74826 -5.84073 0
M  V30 1383 H 136.278 2.27611 -7.86216 0
M  V30 1384 N 138.941 1.26152 0.944643 0
M  V30 1385 C 140.187 1.11657 1.69294 0
M  V30 1386 C 140.52 -0.339926 1.91202 0
M  V30 1387 O 139.795 -1.24994 1.49019 0
M  V30 1388 C 140.078 1.88236 3.06984 0
M  V30 1389 C 139.931 3.41772 2.92424 0
M  V30 1390 C 141.25 1.67343 4.07043 0
M  V30 1391 H 138.369 0.407004 0.614424 0
M  V30 1392 H 141.011 1.55106 1.09737 0
M  V30 1393 H 139.161 1.51308 3.57824 0
M  V30 1394 H 140.833 3.88433 2.48832 0
M  V30 1395 H 139.076 3.68974 2.28124 0
M  V30 1396 H 139.747 3.90579 3.90067 0
M  V30 1397 H 142.223 1.99509 3.65151 0
M  V30 1398 H 141.099 2.23346 5.01406 0
M  V30 1399 H 141.36 0.617158 4.37771 0
M  V30 1400 N 140.419 -1.14872 1.07899 0
M  V30 1401 C 141.349 -2.2193 0.725887 0
M  V30 1402 C 142.33 -1.67622 -0.28927 0
M  V30 1403 O 143.515 -1.93533 -0.160787 0
M  V30 1404 C 140.645 -3.47061 0.128856 0
M  V30 1405 C 139.599 -4.14363 1.07178 0
M  V30 1406 C 138.925 -5.33636 0.337229 0
M  V30 1407 C 140.225 -4.63492 2.40775 0
M  V30 1408 H 141.919 -2.51724 1.62097 0
M  V30 1409 H 139.465 -1.20991 0.780838 0
M  V30 1410 H 141.418 -4.21199 -0.130147 0
M  V30 1411 H 140.142 -3.16617 -0.80134 0
M  V30 1412 H 138.801 -3.42173 1.3158 0
M  V30 1413 H 138.449 -4.99449 -0.596606 0
M  V30 1414 H 138.149 -5.79609 0.965788 0
M  V30 1415 H 139.673 -6.10539 0.0861567 0
M  V30 1416 H 141.087 -5.2913 2.20669 0
M  V30 1417 H 139.484 -5.20148 2.99276 0
M  V30 1418 H 140.554 -3.78834 3.02676 0
M  V30 1419 N 141.898 -0.863906 -1.31812 0
M  V30 1420 C 143.147 -0.46801 -1.96195 0
M  V30 1421 C 143.46 0.983474 -1.69077 0
M  V30 1422 O 144.666 1.48523 -2.27273 0
M  V30 1423 C 143.122 -0.785995 -3.51212 0
M  V30 1424 C 142.73 -2.25383 -3.87178 0
M  V30 1425 C 144.474 -0.458274 -4.22019 0
M  V30 1426 C 142.381 -2.51455 -5.3528 0
M  V30 1427 H 141.311 -0.171283 -0.734287 0
M  V30 1428 H 143.962 -1.05597 -1.50072 0
M  V30 1429 H 142.344 -0.127359 -3.95795 0
M  V30 1430 H 143.518 -2.95502 -3.53575 0
M  V30 1431 H 141.833 -2.54698 -3.2942 0
M  V30 1432 H 144.43 -0.630369 -5.30971 0
M  V30 1433 H 144.773 0.600834 -4.11941 0
M  V30 1434 H 145.306 -1.07319 -3.8305 0
M  V30 1435 H 142.045 -3.56025 -5.50387 0
M  V30 1436 H 141.565 -1.85923 -5.70257 0
M  V30 1437 H 143.244 -2.35874 -6.02472 0
M  V30 1438 N 143.376 1.44774 -0.622745 0
M  V30 1439 C 144.339 2.29069 0.0774015 0
M  V30 1440 C 145.339 1.4059 0.780461 0
M  V30 1441 O 146.529 1.62551 0.626322 0
M  V30 1442 C 143.661 3.21974 1.12006 0
M  V30 1443 H 144.854 2.92459 -0.663901 0
M  V30 1444 H 142.407 1.51548 -0.382486 0
M  V30 1445 H 143.142 2.63417 1.89162 0
M  V30 1446 H 142.927 3.87168 0.619951 0
M  V30 1447 H 144.417 3.85318 1.60995 0
M  V30 1448 N 144.854 0.36279 1.53368 0
M  V30 1449 C 145.784 -0.476976 2.28576 0
M  V30 1450 C 146.765 -1.08631 1.30894 0
M  V30 1451 O 147.95 -1.10409 1.59761 0
M  V30 1452 C 145.08 -1.61828 3.07293 0
M  V30 1453 C 144.034 -1.13633 4.1264 0
M  V30 1454 C 143.36 -2.36766 4.79423 0
M  V30 1455 C 144.66 -0.223061 5.21823 0
M  V30 1456 H 146.354 0.150474 2.99022 0
M  V30 1457 H 143.9 0.0738103 1.43811 0
M  V30 1458 H 145.853 -2.21237 3.58653 0
M  V30 1459 H 144.577 -2.27292 2.34533 0
M  V30 1460 H 143.236 -0.564945 3.62221 0
M  V30 1461 H 142.884 -3.0068 4.03238 0
M  V30 1462 H 142.584 -2.05192 5.50609 0
M  V30 1463 H 144.108 -2.96865 5.33576 0
M  V30 1464 H 145.522 -0.724545 5.68703 0
M  V30 1465 H 143.919 0.001678 6.001 0
M  V30 1466 H 144.989 0.735553 4.79289 0
M  V30 1467 N 146.332 -1.57332 0.0918853 0
M  V30 1468 C 147.578 -1.94524 -0.573425 0
M  V30 1469 C 147.911 -0.973578 -1.68033 0
M  V30 1470 O 147.186 -0.00609226 -1.94499 0
M  V30 1471 C 147.469 -3.41858 -1.13161 0
M  V30 1472 C 147.322 -4.4979 -0.0299747 0
M  V30 1473 C 148.641 -3.90435 -2.03098 0
M  V30 1474 H 145.76 -0.70734 -0.206975 0
M  V30 1475 H 148.402 -1.89309 0.161942 0
M  V30 1476 H 146.552 -3.46433 -1.7583 0
M  V30 1477 H 148.224 -4.57327 0.604112 0
M  V30 1478 H 146.467 -4.291 0.636833 0
M  V30 1479 H 147.138 -5.50069 -0.461287 0
M  V30 1480 H 149.614 -3.87992 -1.50338 0
M  V30 1481 H 148.49 -4.94097 -2.39081 0
M  V30 1482 H 148.751 -3.29541 -2.94712 0
M  V30 1483 N 147.81 0.181792 -1.56548 0
M  V30 1484 C 149.058 0.89832 -1.81038 0
M  V30 1485 C 149.379 1.83232 -0.667164 0
M  V30 1486 O 148.649 1.93372 0.313673 0
M  V30 1487 H 147.229 0.33471 -0.667816 0
M  V30 1488 H 149.891 0.184116 -1.94028 0
M  V30 1489 H 148.987 1.4815 -2.74696 0
M  V30 1490 N 149.288 1.51039 0.449983 0
M  V30 1491 C 150.536 1.62759 1.19808 0
M  V30 1492 C 150.857 0.339981 1.92013 0
M  V30 1493 O 150.127 -0.643606 1.85026 0
M  V30 1494 H 148.707 0.599811 0.445237 0
M  V30 1495 H 151.369 1.87914 0.517138 0
M  V30 1496 H 150.465 2.44911 1.93455 0
M  V30 1497 N 150.766 -0.704594 1.40972 0
M  V30 1498 C 152.015 -1.46018 1.39146 0
M  V30 1499 C 152.328 -1.956 0.000589254 0
M  V30 1500 O 153.534 -2.71137 -0.1403 0
M  V30 1501 C 151.99 -2.63996 2.4461 0
M  V30 1502 C 151.598 -2.21238 3.89561 0
M  V30 1503 C 153.342 -3.41677 2.51907 0
M  V30 1504 C 151.249 -3.3612 4.86598 0
M  V30 1505 H 150.179 -0.548444 0.517422 0
M  V30 1506 H 152.83 -0.765784 1.66757 0
M  V30 1507 H 151.212 -3.3566 2.10115 0
M  V30 1508 H 152.386 -1.56923 4.33257 0
M  V30 1509 H 150.701 -1.56574 3.85841 0
M  V30 1510 H 153.298 -4.27182 3.2159 0
M  V30 1511 H 153.641 -3.86247 1.55303 0
M  V30 1512 H 154.174 -2.77064 2.85448 0
M  V30 1513 H 150.913 -2.96572 5.84573 0
M  V30 1514 H 150.433 -3.99315 4.47557 0
M  V30 1515 H 152.112 -4.02029 5.06934 0
M  V30 1516 N 152.244 -1.26651 -0.937939 0
M  V30 1517 C 153.655 -1.1125 -1.49934 0
M  V30 1518 C 154.006 0.306077 -1.93798 0
M  V30 1519 O 153.131 1.19792 -1.80219 0
M  V30 1520 C 153.726 -2.01339 -2.72485 0
M  V30 1521 C 152.285 -1.90074 -3.24883 0
M  V30 1522 C 151.432 -1.94498 -1.97651 0
M  V30 1523 H 154.383 -1.39693 -0.753091 0
M  V30 1524 H 154.404 -1.56319 -3.46907 0
M  V30 1525 H 153.916 -3.04577 -2.40529 0
M  V30 1526 H 152.017 -0.897827 -3.61621 0
M  V30 1527 H 152.13 -2.75778 -3.9177 0
M  V30 1528 H 150.494 -1.38591 -2.13693 0
M  V30 1529 H 151.277 -2.99372 -1.68022 0
M  V30 1530 N 153.722 1.14298 -1.08507 0
M  V30 1531 C 154.971 1.84708 -0.810305 0
M  V30 1532 C 155.284 1.83903 0.666271 0
M  V30 1533 O 156.49 2.50112 1.05624 0
M  V30 1534 C 154.946 3.31572 -1.39957 0
M  V30 1535 C 154.554 3.40791 -2.90801 0
M  V30 1536 C 156.298 4.07087 -1.20334 0
M  V30 1537 C 154.205 4.81872 -3.4286 0
M  V30 1538 H 153.135 0.691985 -0.299454 0
M  V30 1539 H 155.786 1.28841 -1.30661 0
M  V30 1540 H 154.168 3.87183 -0.830976 0
M  V30 1541 H 155.342 2.95225 -3.53806 0
M  V30 1542 H 153.657 2.78732 -3.0935 0
M  V30 1543 H 156.254 5.11225 -1.56693 0
M  V30 1544 H 156.597 4.16054 -0.143237 0
M  V30 1545 H 157.13 3.57779 -1.73893 0
M  V30 1546 H 153.869 4.78094 -4.48449 0
M  V30 1547 H 153.389 5.27972 -2.84615 0
M  V30 1548 H 155.068 5.50765 -3.39509 0
M  V30 1549 N 155.201 0.870884 1.31352 0
M  V30 1550 C 156.448 0.482273 1.96673 0
M  V30 1551 C 156.776 -0.965638 1.68836 0
M  V30 1552 O 156.031 -1.69514 0.977937 0
M  V30 1553 C 156.33 0.687157 3.50732 0
M  V30 1554 C 155.996 2.108 3.9859 0
M  V30 1555 C 154.658 2.49656 4.1137 0
M  V30 1556 C 157.01 3.03459 4.23748 0
M  V30 1557 C 154.338 3.80412 4.46659 0
M  V30 1558 C 156.69 4.3373 4.60501 0
M  V30 1559 C 155.354 4.725 4.71487 0
M  V30 1560 H 154.624 0.176476 0.719679 0
M  V30 1561 H 157.271 1.10405 1.56471 0
M  V30 1562 H 155.576 -0.0177476 3.91796 0
M  V30 1563 H 157.273 0.366284 3.99324 0
M  V30 1564 H 153.863 1.79633 3.8914 0
M  V30 1565 H 158.047 2.74665 4.13368 0
M  V30 1566 H 153.303 4.1021 4.53362 0
M  V30 1567 H 157.477 5.05578 4.78919 0
M  V30 1568 H 155.104 5.73859 4.98588 0
M  V30 1569 N 156.679 -1.44442 0.630414 0
M  V30 1570 C 157.926 -2.02052 0.134617 0
M  V30 1571 C 158.254 -1.49576 -1.24327 0
M  V30 1572 O 157.509 -0.669806 -1.83881 0
M  V30 1573 C 157.808 -3.57332 0.0697835 0
M  V30 1574 C 157.474 -4.29058 1.38635 0
M  V30 1575 C 156.136 -4.4837 1.74694 0
M  V30 1576 C 158.488 -4.69872 2.25543 0
M  V30 1577 C 155.816 -5.05756 2.97369 0
M  V30 1578 C 158.168 -5.28616 3.47487 0
M  V30 1579 C 156.832 -5.46147 3.8377 0
M  V30 1580 H 156.102 -0.739361 0.0492598 0
M  V30 1581 H 158.749 -1.73217 0.816586 0
M  V30 1582 H 157.054 -3.85577 -0.695553 0
M  V30 1583 H 158.751 -3.99637 -0.330344 0
M  V30 1584 H 155.341 -4.14357 1.09574 0
M  V30 1585 H 159.525 -4.54666 1.98979 0
M  V30 1586 H 154.781 -5.17515 3.25558 0
M  V30 1587 H 158.955 -5.59192 4.15063 0
M  V30 1588 H 156.582 -5.9038 4.7891 0
M  V30 1589 N 158.157 -0.370918 -1.53173 0
M  V30 1590 C 159.087 0.464847 -2.28826 0
M  V30 1591 C 160.068 1.07936 -1.31468 0
M  V30 1592 O 161.253 1.0956 -1.60344 0
M  V30 1593 C 158.383 1.60196 -3.08147 0
M  V30 1594 C 157.337 1.11443 -4.13237 0
M  V30 1595 C 156.663 2.3422 -4.80672 0
M  V30 1596 C 157.963 0.195384 -5.21934 0
M  V30 1597 H 159.657 -0.166329 -2.98938 0
M  V30 1598 H 157.203 -0.0814359 -1.4377 0
M  V30 1599 H 159.156 2.19332 -3.59822 0
M  V30 1600 H 157.88 2.26045 -2.35735 0
M  V30 1601 H 156.539 0.545727 -3.62515 0
M  V30 1602 H 156.187 2.98537 -4.04827 0
M  V30 1603 H 155.887 2.02269 -5.51689 0
M  V30 1604 H 157.411 2.94032 -5.35143 0
M  V30 1605 H 158.825 0.694375 -5.69079 0
M  V30 1606 H 157.222 -0.0335027 -6.00091 0
M  V30 1607 H 158.292 -0.760961 -4.78892 0
M  V30 1608 N 159.635 1.57281 -0.100228 0
M  V30 1609 C 160.545 2.17833 0.870965 0
M  V30 1610 C 161.561 1.14921 1.30649 0
M  V30 1611 O 162.737 1.47313 1.37335 0
M  V30 1612 C 159.802 2.75085 2.1102 0
M  V30 1613 C 158.863 3.9297 1.72838 0
M  V30 1614 C 158.096 4.47482 2.90854 0
M  V30 1615 O 158.319 4.00922 4.05731 0
M  V30 1616 O 157.253 5.38433 2.69023 0
M  V30 1617 H 161.079 3.0124 0.38575 0
M  V30 1618 H 158.664 1.48881 0.124397 0
M  V30 1619 H 160.546 3.11656 2.83634 0
M  V30 1620 H 159.221 1.94721 2.58584 0
M  V30 1621 H 158.128 3.61201 0.973883 0
M  V30 1622 H 159.461 4.74713 1.30033 0
M  V30 1623 N 161.113 -0.173488 1.56642 0
M  V30 1624 C 162.362 -0.888758 1.81063 0
M  V30 1625 C 162.675 -1.83506 0.67712 0
M  V30 1626 O 163.881 -2.59254 0.806206 0
M  V30 1627 C 162.337 -1.63091 3.20826 0
M  V30 1628 C 161.945 -0.728357 4.4204 0
M  V30 1629 C 163.689 -2.33454 3.54541 0
M  V30 1630 C 161.596 -1.47062 5.72823 0
M  V30 1631 H 160.526 -0.335618 0.675186 0
M  V30 1632 H 163.177 -0.141712 1.82952 0
M  V30 1633 H 161.559 -2.42263 3.13248 0
M  V30 1634 H 162.733 0.0262449 4.60793 0
M  V30 1635 H 161.048 -0.134492 4.16183 0
M  V30 1636 H 163.645 -2.89578 4.49498 0
M  V30 1637 H 163.988 -3.08687 2.79317 0
M  V30 1638 H 164.521 -1.61227 3.63663 0
M  V30 1639 H 161.26 -0.760658 6.51072 0
M  V30 1640 H 160.78 -2.1986 5.58052 0
M  V30 1641 H 162.459 -2.01868 6.14702 0
M  V30 1642 N 162.591 -1.51276 -0.441967 0
M  V30 1643 C 163.816 -1.67799 -1.21895 0
M  V30 1644 C 164.241 -0.372864 -1.84367 0
M  V30 1645 O 163.599 0.666501 -1.68604 0
M  V30 1646 C 163.647 -2.79199 -2.28211 0
M  V30 1647 O 162.751 -2.42479 -3.33583 0
M  V30 1648 H 162.092 -0.559649 -0.357336 0
M  V30 1649 H 164.622 -1.97815 -0.522522 0
M  V30 1650 H 164.632 -3.03146 -2.73069 0
M  V30 1651 H 163.307 -3.73906 -1.82118 0
M  V30 1652 H 161.884 -2.29087 -2.94234 0
M  V30 1653 N 164.069 0.697108 -1.41344 0
M  V30 1654 C 164.999 1.82353 -1.45841 0
M  V30 1655 C 165.98 1.67115 -0.317247 0
M  V30 1656 O 167.165 1.86871 -0.528474 0
M  V30 1657 C 164.295 3.20476 -1.33838 0
M  V30 1658 C 163.249 3.50415 -2.4575 0
M  V30 1659 C 162.575 4.87878 -2.18813 0
M  V30 1660 C 163.875 3.49546 -3.88091 0
M  V30 1661 H 165.569 1.78846 -2.40113 0
M  V30 1662 H 163.115 0.859028 -1.15571 0
M  V30 1663 H 165.068 3.98988 -1.35596 0
M  V30 1664 H 163.792 3.24604 -0.360498 0
M  V30 1665 H 162.451 2.74253 -2.43271 0
M  V30 1666 H 162.099 4.8863 -1.19371 0
M  V30 1667 H 161.799 5.08875 -2.93803 0
M  V30 1668 H 163.323 5.68702 -2.22284 0
M  V30 1669 H 164.737 4.18066 -3.92293 0
M  V30 1670 H 163.134 3.82075 -4.62751 0
M  V30 1671 H 164.204 2.48552 -4.16353 0
M  V30 1672 N 165.547 1.27147 0.931209 0
M  V30 1673 C 166.795 1.13055 1.6752 0
M  V30 1674 C 167.116 -0.324791 1.92276 0
M  V30 1675 O 166.386 -1.22775 1.52654 0
M  V30 1676 H 164.966 0.415391 0.620854 0
M  V30 1677 H 167.628 1.59623 1.11833 0
M  V30 1678 H 166.724 1.65694 2.64485 0
M  V30 1679 N 167.025 -1.13721 1.09112 0
M  V30 1680 C 167.957 -2.1871 0.685467 0
M  V30 1681 C 168.97 -1.60527 -0.271068 0
M  V30 1682 O 170.159 -1.78407 -0.0576148 0
M  V30 1683 C 167.259 -3.38898 -0.0111255 0
M  V30 1684 C 166.432 -4.26597 0.966131 0
M  V30 1685 C 165.491 -5.25324 0.303539 0
M  V30 1686 O 164.517 -5.61213 0.950177 0
M  V30 1687 N 165.719 -5.72779 -0.943651 0
M  V30 1688 H 168.484 -2.54126 1.58871 0
M  V30 1689 H 166.045 -1.29012 0.978143 0
M  V30 1690 H 168.037 -4.02014 -0.465517 0
M  V30 1691 H 166.607 -3.01747 -0.816565 0
M  V30 1692 H 165.827 -3.60306 1.59917 0
M  V30 1693 H 167.115 -4.82048 1.6281 0
M  V30 1694 H 166.513 -5.45762 -1.48862 0
M  V30 1695 H 165.07 -6.37847 -1.34142 0
M  V30 1696 N 168.503 -0.877838 -1.30888 0
M  V30 1697 C 169.75 -0.492696 -1.96415 0
M  V30 1698 C 170.078 0.956671 -1.69346 0
M  V30 1699 O 169.333 1.68993 -0.986913 0
M  V30 1700 C 169.632 -0.705748 -3.50363 0
M  V30 1701 C 169.298 -2.1291 -3.97467 0
M  V30 1702 C 167.96 -2.51834 -4.1004 0
M  V30 1703 C 170.312 -3.05702 -4.22132 0
M  V30 1704 C 167.64 -3.82775 -4.44635 0
M  V30 1705 C 169.992 -4.36166 -4.58194 0
M  V30 1706 C 168.656 -4.74993 -4.68975 0
M  V30 1707 H 167.926 -0.18029 -0.718733 0
M  V30 1708 H 170.573 -1.11233 -1.55883 0
M  V30 1709 H 168.878 -0.00303058 -3.918 0
M  V30 1710 H 170.575 -0.387456 -3.99124 0
M  V30 1711 H 167.165 -1.81694 -3.88182 0
M  V30 1712 H 171.349 -2.76853 -4.11906 0
M  V30 1713 H 166.605 -4.12609 -4.51181 0
M  V30 1714 H 170.779 -5.08111 -4.76231 0
M  V30 1715 H 168.406 -5.76495 -4.95537 0
M  V30 1716 N 169.982 1.44106 -0.638065 0
M  V30 1717 C 170.915 2.27924 0.112161 0
M  V30 1718 C 171.893 1.38945 0.844574 0
M  V30 1719 O 173.077 1.68386 0.847248 0
M  V30 1720 C 170.204 3.18029 1.16512 0
M  V30 1721 C 169.25 4.23163 0.532458 0
M  V30 1722 S 170.083 5.31131 -0.682666 0
M  V30 1723 C 171.239 6.24805 0.37013 0
M  V30 1724 H 171.472 2.91205 -0.598887 0
M  V30 1725 H 169.005 1.48394 -0.426441 0
M  V30 1726 H 170.963 3.70492 1.76766 0
M  V30 1727 H 169.624 2.53955 1.8484 0
M  V30 1728 H 168.817 4.86252 1.32571 0
M  V30 1729 H 168.419 3.74 0.00437644 0
M  V30 1730 H 170.711 6.66042 1.24071 0
M  V30 1731 H 171.654 7.07741 -0.225349 0
M  V30 1732 H 172.062 5.60154 0.699141 0
M  V30 1733 N 171.46 0.379036 1.52974 0
M  V30 1734 C 172.407 -0.461048 2.26148 0
M  V30 1735 C 173.377 -1.06637 1.27349 0
M  V30 1736 O 174.562 -1.09633 1.56157 0
M  V30 1737 C 171.702 -1.58782 3.06402 0
M  V30 1738 C 170.815 -1.00636 4.20115 0
M  V30 1739 C 169.95 -2.10334 4.87784 0
M  V30 1740 C 168.989 -1.49724 5.93506 0
M  V30 1741 N 168.126 -2.5331 6.54812 0
M  V30 1742 H 172.966 0.169429 2.97518 0
M  V30 1743 H 170.503 0.0953806 1.4679 0
M  V30 1744 H 172.461 -2.25174 3.51215 0
M  V30 1745 H 171.091 -2.18876 2.37261 0
M  V30 1746 H 170.143 -0.232332 3.7969 0
M  V30 1747 H 171.455 -0.523343 4.96047 0
M  V30 1748 H 170.609 -2.84519 5.35849 0
M  V30 1749 H 169.348 -2.61992 4.11353 0
M  V30 1750 H 168.353 -0.740598 5.44789 0
M  V30 1751 H 169.578 -0.988732 6.71864 0
M  V30 1752 H 167.524 -3.04156 5.81227 0
M  V30 1753 H 167.441 -2.09734 7.26325 0
M  V30 1754 H 168.709 -3.27155 7.07524 0
M  V30 1755 N 172.938 -1.57226 0.108567 0
M  V30 1756 C 173.901 -2.13602 -0.831082 0
M  V30 1757 C 174.901 -1.06841 -1.20173 0
M  V30 1758 O 176.091 -1.32666 -1.12895 0
M  V30 1759 C 173.223 -2.66769 -2.12243 0
M  V30 1760 H 174.416 -2.97951 -0.341317 0
M  V30 1761 H 171.969 -1.55667 -0.14057 0
M  V30 1762 H 172.704 -1.85977 -2.65675 0
M  V30 1763 H 172.489 -3.44839 -1.86625 0
M  V30 1764 H 173.979 -3.10332 -2.79435 0
M  V30 1765 N 174.416 0.165178 -1.56732 0
M  V30 1766 C 175.664 0.879068 -1.8198 0
M  V30 1767 C 175.985 1.82514 -0.686561 0
M  V30 1768 O 175.255 1.93694 0.293146 0
M  V30 1769 H 173.835 0.327608 -0.671329 0
M  V30 1770 H 176.497 0.163526 -1.94213 0
M  V30 1771 H 175.593 1.45228 -2.76252 0
M  V30 1772 N 175.894 1.51508 0.433938 0
M  V30 1773 C 177.119 1.68443 1.21003 0
M  V30 1774 C 177.544 0.382636 1.84167 0
M  V30 1775 O 176.902 -0.65755 1.68956 0
M  V30 1776 C 176.95 2.80405 2.26727 0
M  V30 1777 O 176.054 2.44245 3.32292 0
M  V30 1778 H 175.395 0.561536 0.354363 0
M  V30 1779 H 177.925 1.9809 0.512024 0
M  V30 1780 H 177.935 3.0459 2.71457 0
M  V30 1781 H 176.61 3.74867 1.80132 0
M  V30 1782 H 175.187 2.30644 2.93015 0
M  V30 1783 N 177.372 -0.689602 1.41712 0
M  V30 1784 C 178.621 -1.44534 1.40686 0
M  V30 1785 C 178.934 -1.95588 0.0213352 0
M  V30 1786 O 180.14 -2.71271 -0.111534 0
M  V30 1787 C 178.596 -2.61387 2.47396 0
M  V30 1788 C 178.204 -2.17094 3.91885 0
M  V30 1789 C 179.948 -3.38986 2.55517 0
M  V30 1790 C 177.855 -3.3094 4.90135 0
M  V30 1791 H 176.785 -0.542925 0.52321 0
M  V30 1792 H 179.436 -0.748054 1.6756 0
M  V30 1793 H 177.818 -3.33412 2.13664 0
M  V30 1794 H 178.992 -1.52318 4.34897 0
M  V30 1795 H 177.307 -1.52473 3.8748 0
M  V30 1796 H 179.904 -4.23747 3.26102 0
M  V30 1797 H 180.247 -3.84578 1.59391 0
M  V30 1798 H 180.78 -2.74021 2.8837 0
M  V30 1799 H 177.519 -2.90355 5.87685 0
M  V30 1800 H 177.039 -3.94546 4.51767 0
M  V30 1801 H 178.718 -3.9663 5.11169 0
M  V30 1802 N 178.85 -1.27639 -0.924453 0
M  V30 1803 C 179.798 -1.10485 -2.04685 0
M  V30 1804 C 180.792 -0.0270421 -1.69378 0
M  V30 1805 O 181.998 -0.185008 -1.79047 0
M  V30 1806 H 178.373 -0.340546 -0.670472 0
M  V30 1807 H 180.344 -2.05566 -2.16298 0
M  V30 1808 C 179.093 -0.772229 -3.39016 0
M  V30 1809 H 178.416 -1.59351 -3.66671 0
M  V30 1810 H 179.856 -0.692097 -4.18313 0
M  V30 1811 C 178.315 0.523554 -3.32807 0
M  V30 1812 O 178.845 1.55702 -3.70297 0
M  V30 1813 N 177.051 0.520363 -2.85903 0
M  V30 1814 H 176.598 -0.32107 -2.55591 0
M  V30 1815 H 176.556 1.38742 -2.82131 0
M  V30 1816 N 180.328 1.1314 -1.09713 0
M  V30 1817 C 181.574 1.84757 -0.836224 0
M  V30 1818 C 181.907 1.8347 0.636598 0
M  V30 1819 O 181.182 1.27491 1.46889 0
M  V30 1820 C 181.465 3.32782 -1.37578 0
M  V30 1821 C 181.318 3.42567 -2.91493 0
M  V30 1822 C 182.637 4.28307 -1.01198 0
M  V30 1823 H 179.756 0.67082 -0.305236 0
M  V30 1824 H 182.398 1.3278 -1.35903 0
M  V30 1825 H 180.548 3.77177 -0.931097 0
M  V30 1826 H 182.22 3.06862 -3.44432 0
M  V30 1827 H 180.463 2.83349 -3.28475 0
M  V30 1828 H 181.134 4.46674 -3.24324 0
M  V30 1829 H 183.61 3.91999 -1.39556 0
M  V30 1830 H 182.486 5.30307 -1.41653 0
M  V30 1831 H 182.747 4.42029 0.0794833 0
M  V30 1832 N 181.806 0.884767 1.30421 0
M  V30 1833 C 183.052 0.513218 1.96819 0
M  V30 1834 C 183.407 -0.927347 1.68577 0
M  V30 1835 O 182.7 -1.64644 0.979941 0
M  V30 1836 C 182.894 0.724318 3.49983 0
M  V30 1837 C 182.723 2.18385 3.93113 0
M  V30 1838 C 181.493 2.82839 4.18725 0
M  V30 1839 C 183.691 3.15763 4.05953 0
M  V30 1840 N 181.673 4.1939 4.48314 0
M  V30 1841 C 183.044 4.37387 4.39423 0
M  V30 1842 C 185.099 3.11555 3.88379 0
M  V30 1843 C 183.802 5.55343 4.5715 0
M  V30 1844 C 185.828 4.28782 4.07308 0
M  V30 1845 C 185.19 5.49172 4.41123 0
M  V30 1846 H 181.289 0.237123 0.745182 0
M  V30 1847 H 183.873 1.14246 1.57658 0
M  V30 1848 H 182.044 0.124565 3.882 0
M  V30 1849 H 183.776 0.31969 4.03435 0
M  V30 1850 H 180.531 2.33708 4.11919 0
M  V30 1851 H 180.955 4.89911 4.67243 0
M  V30 1852 H 185.597 2.19576 3.61312 0
M  V30 1853 H 183.315 6.47826 4.8306 0
M  V30 1854 H 186.901 4.26995 3.95179 0
M  V30 1855 H 185.781 6.38371 4.55469 0
M  V30 1856 N 183.284 -1.43765 0.645699 0
M  V30 1857 C 184.232 -2.32516 -0.0624849 0
M  V30 1858 C 185.226 -1.48183 -0.820855 0
M  V30 1859 O 186.432 -1.64439 -0.732106 0
M  V30 1860 H 182.807 -0.750989 -0.0389864 0
M  V30 1861 H 184.778 -2.89979 0.703892 0
M  V30 1862 C 183.527 -3.32389 -1.02044 0
M  V30 1863 H 182.85 -3.97301 -0.446312 0
M  V30 1864 H 184.29 -3.97138 -1.48517 0
M  V30 1865 C 182.749 -2.62416 -2.11281 0
M  V30 1866 O 183.279 -2.434 -3.19561 0
M  V30 1867 N 181.485 -2.21913 -1.87624 0
M  V30 1868 H 181.032 -2.37578 -0.995703 0
M  V30 1869 H 180.99 -1.75424 -2.6091 0
M  V30 1870 N 184.763 -0.387143 -1.52771 0
M  V30 1871 C 186.012 0.19697 -2.00736 0
M  V30 1872 C 186.325 1.48082 -1.27793 0
M  V30 1873 O 187.531 2.14485 -1.66458 0
M  V30 1874 C 185.987 0.401568 -3.57653 0
M  V30 1875 C 185.595 -0.868907 -4.39493 0
M  V30 1876 C 187.339 0.942164 -4.13912 0
M  V30 1877 C 185.246 -0.632705 -5.88006 0
M  V30 1878 H 184.176 0.0773827 -0.750019 0
M  V30 1879 H 186.827 -0.50921 -1.76293 0
M  V30 1880 H 185.209 1.16954 -3.78335 0
M  V30 1881 H 186.383 -1.64133 -4.30577 0
M  V30 1882 H 184.698 -1.33429 -3.94443 0
M  V30 1883 H 187.295 1.13455 -5.22525 0
M  V30 1884 H 187.638 1.9106 -3.69867 0
M  V30 1885 H 188.171 0.233814 -3.97112 0
M  V30 1886 H 184.91 -1.57208 -6.36369 0
M  V30 1887 H 184.43 0.100825 -5.99715 0
M  V30 1888 H 186.109 -0.26642 -6.46451 0
M  V30 1889 N 186.241 1.57166 -0.116904 0
M  V30 1890 C 187.481 1.97008 0.544715 0
M  V30 1891 C 187.845 0.998713 1.63981 0
M  V30 1892 O 189.046 1.28644 2.36018 0
M  V30 1893 C 187.317 3.41145 1.06559 0
M  V30 1894 S 188.876 4.02998 1.73603 0
M  V30 1895 H 185.694 0.688587 0.177112 0
M  V30 1896 H 188.296 1.94459 -0.201487 0
M  V30 1897 H 187 4.09592 0.257374 0
M  V30 1898 H 186.531 3.4734 1.84712 0
M  V30 1899 H 188.546 3.93585 3.02168 0
M  V30 1900 N 187.719 -0.156864 1.56817 0
M  V30 1901 C 189.13 -0.717916 1.72345 0
M  V30 1902 C 189.481 -1.82124 0.729747 0
M  V30 1903 O 188.606 -2.16141 -0.105781 0
M  V30 1904 C 189.201 -1.30904 3.12489 0
M  V30 1905 C 187.76 -1.81676 3.29653 0
M  V30 1906 C 186.907 -0.701349 2.68284 0
M  V30 1907 H 189.858 0.0686989 1.58551 0
M  V30 1908 H 189.879 -2.17882 3.11942 0
M  V30 1909 H 189.391 -0.505796 3.8479 0
M  V30 1910 H 187.492 -2.64598 2.62333 0
M  V30 1911 H 187.605 -1.95226 4.3752 0
M  V30 1912 H 185.969 -1.12548 2.28484 0
M  V30 1913 H 186.752 0.0902846 3.43181 0
M  V30 1914 N 189.197 -1.51736 -0.425897 0
M  V30 1915 C 190.127 -1.76827 -1.52494 0
M  V30 1916 C 191.108 -0.618524 -1.58456 0
M  V30 1917 O 192.293 -0.862416 -1.74 0
M  V30 1918 C 189.423 -1.90374 -2.90474 0
M  V30 1919 C 188.377 -3.0588 -2.99369 0
M  V30 1920 C 187.703 -3.04625 -4.3944 0
M  V30 1921 C 189.003 -4.45644 -2.72394 0
M  V30 1922 H 190.697 -2.68855 -1.31748 0
M  V30 1923 H 188.243 -1.29372 -0.632362 0
M  V30 1924 H 190.196 -2.0651 -3.6733 0
M  V30 1925 H 188.92 -0.95004 -3.12477 0
M  V30 1926 H 187.579 -2.89467 -2.24954 0
M  V30 1927 H 187.227 -2.0701 -4.58428 0
M  V30 1928 H 186.927 -3.82195 -4.46319 0
M  V30 1929 H 188.451 -3.22869 -5.18255 0
M  V30 1930 H 189.865 -4.62348 -3.38979 0
M  V30 1931 H 188.262 -5.25006 -2.9067 0
M  V30 1932 H 189.332 -4.54893 -1.67929 0
M  V30 1933 N 190.675 0.682077 -1.42076 0
M  V30 1934 C 191.922 1.44215 -1.42156 0
M  V30 1935 C 192.25 1.94468 -0.0354186 0
M  V30 1936 O 191.505 1.70816 0.955002 0
M  V30 1937 C 191.804 2.66036 -2.38662 0
M  V30 1938 C 191.47 2.34366 -3.85206 0
M  V30 1939 C 190.132 2.25439 -4.25124 0
M  V30 1940 C 192.484 2.08513 -4.77673 0
M  V30 1941 C 189.812 1.88775 -5.55501 0
M  V30 1942 C 192.164 1.73354 -6.08384 0
M  V30 1943 C 190.828 1.62933 -6.47309 0
M  V30 1944 H 190.098 0.527718 -0.520187 0
M  V30 1945 H 192.745 0.778387 -1.74967 0
M  V30 1946 H 191.05 3.3741 -1.99152 0
M  V30 1947 H 192.747 3.24205 -2.35991 0
M  V30 1948 H 189.337 2.42213 -3.53597 0
M  V30 1949 H 193.521 2.14346 -4.47626 0
M  V30 1950 H 188.777 1.7927 -5.84527 0
M  V30 1951 H 192.951 1.52373 -6.79526 0
M  V30 1952 H 190.578 1.34292 -7.48244 0
M  V30 1953 N 192.153 1.28127 0.917671 0
M  V30 1954 C 193.1 1.11717 2.0196 0
M  V30 1955 C 194.07 0.0153929 1.66093 0
M  V30 1956 O 195.255 0.179596 1.89953 0
M  V30 1957 C 192.395 0.780927 3.36148 0
M  V30 1958 C 191.508 1.96135 3.84909 0
M  V30 1959 C 190.643 1.56609 5.0759 0
M  V30 1960 C 189.682 2.71339 5.48673 0
M  V30 1961 N 188.819 2.32332 6.62545 0
M  V30 1962 H 193.659 2.06003 2.15329 0
M  V30 1963 H 191.196 1.02535 1.05475 0
M  V30 1964 H 193.154 0.56675 4.13333 0
M  V30 1965 H 191.784 -0.124998 3.22558 0
M  V30 1966 H 190.836 2.28777 3.03916 0
M  V30 1967 H 192.148 2.82165 4.1132 0
M  V30 1968 H 191.302 1.31374 5.92305 0
M  V30 1969 H 190.041 0.677014 4.82978 0
M  V30 1970 H 189.046 2.97276 4.62501 0
M  V30 1971 H 190.271 3.60882 5.75274 0
M  V30 1972 H 188.217 1.45889 6.39572 0
M  V30 1973 H 188.134 3.11899 6.88662 0
M  V30 1974 H 189.402 2.10371 7.50576 0
M  V30 1975 N 193.631 -1.12557 1.10312 0
M  V30 1976 C 194.879 -1.83675 0.843091 0
M  V30 1977 C 195.2 -1.84435 -0.633131 0
M  V30 1978 O 194.47 -1.30657 -1.45964 0
M  V30 1979 H 193.05 -0.680138 0.308904 0
M  V30 1980 H 195.712 -1.36301 1.39313 0
M  V30 1981 H 194.808 -2.87908 1.2048 0
M  V30 1982 N 195.109 -0.891671 -1.2995 0
M  V30 1983 C 196.039 -0.379797 -2.30391 0
M  V30 1984 C 197.02 0.540919 -1.6127 0
M  V30 1985 O 198.205 0.453352 -1.88834 0
M  V30 1986 C 195.335 0.400654 -3.44981 0
M  V30 1987 C 194.289 -0.428905 -4.25846 0
M  V30 1988 C 193.615 0.478557 -5.32554 0
M  V30 1989 C 194.915 -1.67458 -4.94727 0
M  V30 1990 H 196.609 -1.21914 -2.73454 0
M  V30 1991 H 194.155 -0.587675 -1.31462 0
M  V30 1992 H 196.108 0.769434 -4.14316 0
M  V30 1993 H 194.832 1.27371 -3.0074 0
M  V30 1994 H 193.491 -0.779911 -3.58208 0
M  V30 1995 H 193.139 1.34951 -4.84559 0
M  V30 1996 H 192.839 -0.0727433 -5.87555 0
M  V30 1997 H 194.363 0.843705 -6.04743 0
M  V30 1998 H 195.777 -1.376 -5.56542 0
M  V30 1999 H 194.174 -2.16659 -5.59624 0
M  V30 2000 H 195.244 -2.41518 -4.20473 0
M  V30 2001 N 196.587 1.43421 -0.653314 0
M  V30 2002 C 197.835 2.01414 -0.166415 0
M  V30 2003 C 198.156 1.51803 1.22397 0
M  V30 2004 O 197.426 0.730693 1.81763 0
M  V30 2005 H 196.006 0.744703 -0.0585319 0
M  V30 2006 H 198.668 1.75629 -0.845003 0
M  V30 2007 H 197.764 3.11734 -0.151111 0
M  V30 2008 N 198.065 0.39524 1.52563 0
M  V30 2009 C 199.295 -0.184675 2.05773 0
M  V30 2010 C 199.703 -1.40571 1.26635 0
M  V30 2011 O 199.046 -1.81105 0.30769 0
M  V30 2012 C 199.108 -0.613551 3.54226 0
M  V30 2013 C 198.772 0.49484 4.54313 0
M  V30 2014 C 199.769 1.3541 5.01956 0
M  V30 2015 C 197.454 0.663565 4.97898 0
M  V30 2016 C 199.448 2.36716 5.91814 0
M  V30 2017 C 197.135 1.67996 5.87555 0
M  V30 2018 C 198.133 2.53017 6.34406 0
M  V30 2019 O 197.821 3.52917 7.22291 0
M  V30 2020 H 197.553 -0.030077 0.675331 0
M  V30 2021 H 200.107 0.560708 1.97599 0
M  V30 2022 H 198.337 -1.411 3.60038 0
M  V30 2023 H 200.026 -1.11981 3.90148 0
M  V30 2024 H 200.792 1.23509 4.6901 0
M  V30 2025 H 196.671 0.0114913 4.60999 0
M  V30 2026 H 200.215 3.03113 6.28306 0
M  V30 2027 H 196.112 1.79933 6.19915 0
M  V30 2028 H 196.88 3.48996 7.40367 0
M  V30 2029 N 199.544 -1.57102 0.125237 0
M  V30 2030 C 200.507 -2.14471 -0.80838 0
M  V30 2031 C 201.507 -1.0811 -1.19033 0
M  V30 2032 O 202.697 -1.33856 -1.11482 0
M  V30 2033 C 199.829 -2.69005 -2.09402 0
M  V30 2034 H 201.022 -2.98297 -0.309696 0
M  V30 2035 H 198.575 -1.55807 -0.124051 0
M  V30 2036 H 199.31 -1.88785 -2.63687 0
M  V30 2037 H 199.095 -3.46799 -1.82957 0
M  V30 2038 H 200.585 -3.13278 -2.76128 0
M  V30 2039 N 201.022 0.148545 -1.56898 0
M  V30 2040 C 202.247 0.880385 -1.87787 0
M  V30 2041 C 202.672 1.74018 -0.714093 0
M  V30 2042 O 202.03 1.78153 0.336343 0
M  V30 2043 C 202.078 1.71422 -3.17249 0
M  V30 2044 O 201.182 2.8183 -3.01074 0
M  V30 2045 H 200.523 0.245301 -0.617028 0
M  V30 2046 H 203.053 0.139826 -2.04122 0
M  V30 2047 H 203.063 2.10954 -3.49231 0
M  V30 2048 H 201.738 1.08284 -4.01556 0
M  V30 2049 H 200.315 2.45715 -2.80497 0
M  V30 2050 N 202.5 1.5196 0.417844 0
M  V30 2051 C 203.433 1.69387 1.52916 0
M  V30 2052 C 204.411 0.541419 1.53321 0
M  V30 2053 O 205.595 0.767695 1.72159 0
M  V30 2054 C 202.722 1.72525 2.91467 0
M  V30 2055 C 201.768 2.93967 3.09008 0
M  V30 2056 S 202.601 4.54461 2.83242 0
M  V30 2057 C 203.757 4.60372 4.24038 0
M  V30 2058 H 203.99 2.63382 1.37903 0
M  V30 2059 H 201.523 1.41889 0.608845 0
M  V30 2060 H 203.481 1.75018 3.7132 0
M  V30 2061 H 202.142 0.796733 3.03827 0
M  V30 2062 H 201.335 2.92619 4.10353 0
M  V30 2063 H 200.937 2.89316 2.37007 0
M  V30 2064 H 203.229 4.37213 5.17544 0
M  V30 2065 H 204.172 5.62273 4.30412 0
M  V30 2066 H 204.58 3.89492 4.08602 0
M  V30 2067 N 203.978 -0.674533 1.42435 0
M  V30 2068 C 205.224 -1.43671 1.43131 0
M  V30 2069 C 205.557 -1.94142 0.0476021 0
M  V30 2070 O 204.832 -1.70924 -0.928188 0
M  V30 2071 C 205.115 -2.63355 2.45594 0
M  V30 2072 C 204.968 -2.18514 3.93156 0
M  V30 2073 C 206.287 -3.65571 2.45043 0
M  V30 2074 H 203.406 -0.521077 0.521198 0
M  V30 2075 H 206.048 -0.766551 1.7385 0
M  V30 2076 H 204.198 -3.2053 2.19528 0
M  V30 2077 H 205.87 -1.66504 4.30202 0
M  V30 2078 H 204.113 -1.50086 4.07009 0
M  V30 2079 H 204.784 -3.04484 4.60428 0
M  V30 2080 H 207.26 -3.18113 2.68223 0
M  V30 2081 H 206.136 -4.46893 3.18713 0
M  V30 2082 H 206.397 -4.16716 1.47649 0
M  V30 2083 N 205.456 -1.28612 -0.910864 0
M  V30 2084 C 206.705 -1.15311 -1.65488 0
M  V30 2085 C 207.018 0.296999 -1.93332 0
M  V30 2086 O 208.224 0.551168 -2.65847 0
M  V30 2087 C 206.68 -2.01599 -2.98137 0
M  V30 2088 C 206.288 -3.51367 -2.7793 0
M  V30 2089 C 208.032 -1.96993 -3.76024 0
M  V30 2090 C 205.939 -4.29797 -4.06237 0
M  V30 2091 H 204.869 -0.42796 -0.620779 0
M  V30 2092 H 207.52 -1.53166 -1.01057 0
M  V30 2093 H 205.902 -1.56603 -3.63719 0
M  V30 2094 H 207.076 -4.0434 -2.21011 0
M  V30 2095 H 205.391 -3.57529 -2.13452 0
M  V30 2096 H 207.988 -2.52856 -4.71135 0
M  V30 2097 H 208.331 -0.94733 -4.05378 0
M  V30 2098 H 208.864 -2.39973 -3.17266 0
M  V30 2099 H 205.603 -5.32648 -3.82055 0
M  V30 2100 H 205.123 -3.81596 -4.62757 0
M  V30 2101 H 206.802 -4.39869 -4.74473 0
M  V30 2102 N 206.934 1.1197 -1.10907 0
M  V30 2103 C 208.18 1.8386 -0.855773 0
M  V30 2104 C 208.513 1.84134 0.617103 0
M  V30 2105 O 207.788 1.29041 1.45529 0
M  V30 2106 C 208.071 3.31305 -1.411 0
M  V30 2107 C 207.924 3.39456 -2.9511 0
M  V30 2108 C 209.243 4.2721 -1.05736 0
M  V30 2109 H 206.362 0.667545 -0.312334 0
M  V30 2110 H 209.004 1.31331 -1.37303 0
M  V30 2111 H 207.154 3.76169 -0.97105 0
M  V30 2112 H 208.826 3.03191 -3.47668 0
M  V30 2113 H 207.069 2.79849 -3.31462 0
M  V30 2114 H 207.74 4.43209 -3.29044 0
M  V30 2115 H 210.216 3.90497 -1.43706 0
M  V30 2116 H 209.092 5.28775 -1.47269 0
M  V30 2117 H 209.353 4.42088 0.0325958 0
M  V30 2118 N 208.412 0.89855 1.29475 0
M  V30 2119 C 209.659 0.523882 1.95606 0
M  V30 2120 C 209.987 -0.929608 1.70847 0
M  V30 2121 O 209.242 -1.67401 1.01367 0
M  V30 2122 C 209.541 0.761398 3.49195 0
M  V30 2123 C 209.207 2.19207 3.94029 0
M  V30 2124 C 207.869 2.58326 4.05982 0
M  V30 2125 C 210.221 3.12379 4.17216 0
M  V30 2126 C 207.549 3.898 4.38489 0
M  V30 2127 C 209.901 4.43401 4.51197 0
M  V30 2128 C 208.565 4.82394 4.61359 0
M  V30 2129 H 207.835 0.191702 0.715773 0
M  V30 2130 H 210.482 1.13699 1.54094 0
M  V30 2131 H 208.787 0.0653622 3.91745 0
M  V30 2132 H 210.484 0.450904 3.98457 0
M  V30 2133 H 207.074 1.87846 3.85242 0
M  V30 2134 H 211.258 2.83371 4.07449 0
M  V30 2135 H 206.514 4.19734 4.44559 0
M  V30 2136 H 210.688 5.15623 4.68087 0
M  V30 2137 H 208.315 5.84306 4.86303 0
M  V30 2138 N 209.89 -1.43072 0.660911 0
M  V30 2139 C 211.12 -2.05769 0.185153 0
M  V30 2140 C 211.528 -1.49668 -1.15742 0
M  V30 2141 O 210.871 -0.625649 -1.72717 0
M  V30 2142 C 210.933 -3.59489 0.0278237 0
M  V30 2143 C 210.597 -4.38212 1.2969 0
M  V30 2144 C 211.594 -4.69772 2.22734 0
M  V30 2145 C 209.279 -4.7809 1.54063 0
M  V30 2146 C 211.273 -5.40129 3.38437 0
M  V30 2147 C 208.96 -5.4819 2.70058 0
M  V30 2148 C 209.958 -5.79132 3.62071 0
M  V30 2149 O 209.646 -6.47798 4.76039 0
M  V30 2150 H 209.378 -0.669873 0.0908086 0
M  V30 2151 H 211.932 -1.84436 0.90402 0
M  V30 2152 H 210.162 -3.79426 -0.746489 0
M  V30 2153 H 211.851 -4.03862 -0.406275 0
M  V30 2154 H 212.617 -4.39476 2.05149 0
M  V30 2155 H 208.496 -4.53408 0.833215 0
M  V30 2156 H 212.04 -5.64198 4.10277 0
M  V30 2157 H 207.937 -5.77902 2.87574 0
M  V30 2158 H 208.705 -6.66283 4.75404 0
M  V30 2159 N 211.368 -0.403325 -1.52352 0
M  V30 2160 C 212.608 0.173946 -2.03659 0
M  V30 2161 C 212.972 1.42869 -1.28267 0
M  V30 2162 O 214.173 2.08403 -1.69769 0
M  V30 2163 C 212.444 0.421478 -3.54906 0
M  V30 2164 S 214.003 0.967027 -4.28012 0
M  V30 2165 H 210.821 0.0477461 -0.709395 0
M  V30 2166 H 213.423 -0.554906 -1.87459 0
M  V30 2167 H 212.127 -0.498616 -4.0736 0
M  V30 2168 H 211.658 1.17837 -3.75337 0
M  V30 2169 H 213.673 2.24812 -4.4235 0
M  V30 2170 N 212.846 1.57033 -0.133567 0
M  V30 2171 C 213.794 2.17348 0.828412 0
M  V30 2172 C 214.788 1.12671 1.26498 0
M  V30 2173 O 215.994 1.30947 1.23502 0
M  V30 2174 H 212.369 0.695775 0.285309 0
M  V30 2175 H 214.34 2.96935 0.295372 0
M  V30 2176 C 213.089 2.79893 2.06289 0
M  V30 2177 H 212.412 3.60147 1.73592 0
M  V30 2178 H 213.852 3.25615 2.71572 0
M  V30 2179 C 212.311 1.77713 2.86216 0
M  V30 2180 O 212.841 1.23937 3.82103 0
M  V30 2181 N 211.047 1.47321 2.50489 0
M  V30 2182 H 210.594 1.91243 1.7258 0
M  V30 2183 H 210.552 0.79199 3.04261 0
M  V30 2184 N 214.325 -0.140222 1.56975 0
M  V30 2185 C 215.553 -0.866437 1.87884 0
M  V30 2186 C 215.968 -1.74428 0.722517 0
M  V30 2187 O 215.325 -1.79891 -0.30749 0
M  V30 2188 C 215.376 -1.71753 3.18093 0
M  V30 2189 O 215.097 -0.875056 4.29272 0
M  V30 2190 C 216.598 -2.55074 3.62563 0
M  V30 2191 H 213.818 -0.25019 0.622612 0
M  V30 2192 H 216.362 -0.130977 2.0408 0
M  V30 2193 H 214.517 -2.40598 3.03631 0
M  V30 2194 H 214.931 -1.46002 5.03769 0
M  V30 2195 H 216.405 -3.10356 4.5649 0
M  V30 2196 H 216.882 -3.31434 2.88181 0
M  V30 2197 H 217.488 -1.91509 3.79743 0
M  V30 2198 N 215.803 -1.52179 -0.40978 0
M  V30 2199 C 217.033 -1.69807 -1.17682 0
M  V30 2200 C 217.441 -0.406908 -1.84773 0
M  V30 2201 O 216.784 0.626863 -1.72673 0
M  V30 2202 C 216.846 -2.77712 -2.2829 0
M  V30 2203 C 216.51 -4.19481 -1.81341 0
M  V30 2204 C 217.507 -5.03345 -1.30154 0
M  V30 2205 C 215.192 -4.65713 -1.88194 0
M  V30 2206 C 217.186 -6.31511 -0.864416 0
M  V30 2207 C 214.873 -5.93869 -1.44093 0
M  V30 2208 C 215.871 -6.76597 -0.933023 0
M  V30 2209 O 215.559 -8.02354 -0.49838 0
M  V30 2210 H 215.291 -0.572372 -0.359675 0
M  V30 2211 H 217.845 -1.99511 -0.488311 0
M  V30 2212 H 216.075 -2.43383 -3.00502 0
M  V30 2213 H 217.764 -2.83946 -2.90051 0
M  V30 2214 H 218.53 -4.68819 -1.24232 0
M  V30 2215 H 214.409 -4.01424 -2.26671 0
M  V30 2216 H 217.953 -6.96033 -0.467286 0
M  V30 2217 H 213.85 -6.27903 -1.49694 0
M  V30 2218 H 214.618 -8.16135 -0.621747 0
M  V30 2219 N 217.281 0.66697 -1.42791 0
M  V30 2220 C 218.511 1.45294 -1.46878 0
M  V30 2221 C 218.919 1.89027 -0.0809861 0
M  V30 2222 O 218.262 1.59219 0.916246 0
M  V30 2223 C 218.324 2.72908 -2.34012 0
M  V30 2224 C 217.988 2.51203 -3.81767 0
M  V30 2225 C 218.985 2.15302 -4.73224 0
M  V30 2226 C 216.67 2.65954 -4.26115 0
M  V30 2227 C 218.664 1.94431 -6.07022 0
M  V30 2228 C 216.351 2.44699 -5.59969 0
M  V30 2229 C 217.349 2.08992 -6.5024 0
M  V30 2230 O 217.037 1.87948 -7.81621 0
M  V30 2231 H 216.769 0.453306 -0.501487 0
M  V30 2232 H 219.323 0.826232 -1.88049 0
M  V30 2233 H 217.553 3.38089 -1.87703 0
M  V30 2234 H 219.242 3.34816 -2.29462 0
M  V30 2235 H 220.008 2.03495 -4.40244 0
M  V30 2236 H 215.887 2.92724 -3.56137 0
M  V30 2237 H 219.431 1.66484 -6.77443 0
M  V30 2238 H 215.328 2.56105 -5.9252 0
M  V30 2239 H 216.096 2.02483 -7.93059 0
M  V30 2240 N 218.759 1.29093 0.90403 0
M  V30 2241 C 220.008 1.16187 1.64874 0
M  V30 2242 C 220.321 -0.286742 1.93487 0
M  V30 2243 O 221.527 -0.537062 2.66135 0
M  V30 2244 C 219.983 2.03177 2.97064 0
M  V30 2245 C 219.591 3.52836 2.76062 0
M  V30 2246 C 221.335 1.98984 3.74974 0
M  V30 2247 C 219.242 4.31945 4.03952 0
M  V30 2248 H 218.172 0.431246 0.618501 0
M  V30 2249 H 220.823 1.53699 1.00243 0
M  V30 2250 H 219.205 1.5853 3.62883 0
M  V30 2251 H 220.379 4.05507 2.18863 0
M  V30 2252 H 218.694 3.58656 2.11553 0
M  V30 2253 H 221.291 2.55351 4.69787 0
M  V30 2254 H 221.634 0.968815 4.0487 0
M  V30 2255 H 222.167 2.41652 3.15989 0
M  V30 2256 H 218.906 5.34667 3.79225 0
M  V30 2257 H 218.426 3.84045 4.60727 0
M  V30 2258 H 220.105 4.42379 4.72133 0
M  V30 2259 N 220.237 -1.11381 1.11499 0
M  V30 2260 C 221.17 -2.16621 0.71769 0
M  V30 2261 C 222.148 -1.60058 -0.286413 0
M  V30 2262 O 223.332 -1.87613 -0.182689 0
M  V30 2263 C 220.459 -3.38646 0.0607265 0
M  V30 2264 C 219.505 -4.13874 1.03008 0
M  V30 2265 S 220.338 -4.70731 2.55289 0
M  V30 2266 C 221.494 -5.96079 1.90895 0
M  V30 2267 H 221.727 -2.49987 1.60915 0
M  V30 2268 H 219.26 -1.23015 0.933092 0
M  V30 2269 H 221.218 -4.09313 -0.311965 0
M  V30 2270 H 219.879 -3.03537 -0.807702 0
M  V30 2271 H 219.072 -5.01333 0.517853 0
M  V30 2272 H 218.674 -3.4897 1.34522 0
M  V30 2273 H 220.966 -6.65948 1.24577 0
M  V30 2274 H 221.909 -6.51946 2.76354 0
M  V30 2275 H 222.317 -5.47652 1.36885 0
M  V30 2276 N 221.715 -0.905404 -1.28997 0
M  V30 2277 C 222.961 -0.535039 -1.95615 0
M  V30 2278 C 223.294 0.917404 -1.71165 0
M  V30 2279 O 222.569 1.65123 -1.02785 0
M  V30 2280 C 222.852 -0.834918 -3.50287 0
M  V30 2281 C 222.705 -2.33948 -3.84172 0
M  V30 2282 C 224.024 -0.325318 -4.38896 0
M  V30 2283 H 221.143 -0.195861 -0.710498 0
M  V30 2284 H 223.785 -1.13313 -1.52513 0
M  V30 2285 H 221.935 -0.325904 -3.87131 0
M  V30 2286 H 223.607 -2.91847 -3.57243 0
M  V30 2287 H 221.85 -2.79789 -3.31513 0
M  V30 2288 H 222.521 -2.49987 -4.92149 0
M  V30 2289 H 224.997 -0.761256 -4.09077 0
M  V30 2290 H 223.873 -0.564295 -5.45992 0
M  V30 2291 H 224.134 0.774144 -4.35269 0
M  V30 2292 N 223.193 1.4272 -0.668489 0
M  V30 2293 C 224.123 2.335 -0.000100175 0
M  V30 2294 C 225.104 1.50328 0.795964 0
M  V30 2295 O 226.289 1.78949 0.754385 0
M  V30 2296 C 223.419 3.33874 0.956302 0
M  V30 2297 C 222.373 4.27152 0.269278 0
M  V30 2298 C 221.699 5.17684 1.33818 0
M  V30 2299 C 222.999 5.15373 -0.847805 0
M  V30 2300 H 224.693 2.89639 -0.758244 0
M  V30 2301 H 222.239 1.39269 -0.366079 0
M  V30 2302 H 224.192 3.9629 1.43292 0
M  V30 2303 H 222.916 2.76025 1.74579 0
M  V30 2304 H 221.575 3.66123 -0.187042 0
M  V30 2305 H 221.223 4.56165 2.1195 0
M  V30 2306 H 220.923 5.80918 0.883659 0
M  V30 2307 H 222.447 5.82974 1.81586 0
M  V30 2308 H 223.861 5.7151 -0.452681 0
M  V30 2309 H 222.258 5.87407 -1.22773 0
M  V30 2310 H 223.328 4.5415 -1.69929 0
M  V30 2311 N 224.671 0.411399 1.52136 0
M  V30 2312 C 225.634 -0.401089 2.25663 0
M  V30 2313 C 226.634 -0.971732 1.28117 0
M  V30 2314 O 227.824 -0.850254 1.52041 0
M  V30 2315 C 224.956 -1.56483 3.02863 0
M  V30 2316 H 226.149 0.24295 2.98914 0
M  V30 2317 H 223.702 0.163968 1.55438 0
M  V30 2318 H 224.437 -2.24567 2.33967 0
M  V30 2319 H 224.222 -1.16211 3.74483 0
M  V30 2320 H 225.712 -2.13951 3.58629 0
M  V30 2321 N 226.149 -1.5696 0.141893 0
M  V30 2322 C 227.395 -1.97034 -0.504884 0
M  V30 2323 C 227.75 -1.02518 -1.62812 0
M  V30 2324 O 227.043 -0.0592943 -1.91508 0
M  V30 2325 C 227.237 -3.41242 -1.06249 0
M  V30 2326 C 227.066 -4.497 0.00519653 0
M  V30 2327 C 225.836 -5.03338 0.444873 0
M  V30 2328 C 228.034 -5.08122 0.794767 0
M  V30 2329 N 226.016 -5.95395 1.49593 0
M  V30 2330 C 227.387 -5.96339 1.69645 0
M  V30 2331 C 229.442 -4.9071 0.843122 0
M  V30 2332 C 228.145 -6.69009 2.64233 0
M  V30 2333 C 230.171 -5.64077 1.77681 0
M  V30 2334 C 229.533 -6.51999 2.66603 0
M  V30 2335 H 225.632 -0.766745 -0.153707 0
M  V30 2336 H 228.216 -1.93273 0.235313 0
M  V30 2337 H 226.387 -3.45606 -1.77231 0
M  V30 2338 H 228.119 -3.68389 -1.67546 0
M  V30 2339 H 224.874 -4.73576 0.0480959 0
M  V30 2340 H 225.298 -6.46128 2.02107 0
M  V30 2341 H 229.94 -4.22459 0.169732 0
M  V30 2342 H 227.658 -7.36492 3.32575 0
M  V30 2343 H 231.244 -5.52602 1.81996 0
M  V30 2344 H 230.124 -7.07775 3.37675 0
M  V30 2345 N 227.627 0.131896 -1.57047 0
M  V30 2346 C 228.875 0.840269 -1.83804 0
M  V30 2347 C 229.196 1.81017 -0.72512 0
M  V30 2348 O 228.466 1.94272 0.251995 0
M  V30 2349 H 227.046 0.313294 -0.678127 0
M  V30 2350 H 229.708 0.122294 -1.94516 0
M  V30 2351 H 228.804 1.39335 -2.79271 0
M  V30 2352 N 229.106 1.52395 0.401703 0
M  V30 2353 C 230.353 1.66817 1.14796 0
M  V30 2354 C 230.681 0.401772 1.90305 0
M  V30 2355 O 229.936 -0.615487 1.85769 0
M  V30 2356 C 230.235 2.84578 2.16217 0
M  V30 2357 C 229.901 4.22513 1.5746 0
M  V30 2358 C 228.563 4.60029 1.41161 0
M  V30 2359 C 230.915 5.0844 1.14622 0
M  V30 2360 C 228.243 5.81144 0.80552 0
M  V30 2361 C 230.595 6.30167 0.55428 0
M  V30 2362 C 229.259 6.66426 0.378482 0
M  V30 2363 H 228.529 0.610428 0.420069 0
M  V30 2364 H 231.176 1.86512 0.434212 0
M  V30 2365 H 229.481 2.59248 2.93764 0
M  V30 2366 H 231.178 2.92933 2.73845 0
M  V30 2367 H 227.768 3.92953 1.71132 0
M  V30 2368 H 231.952 4.80034 1.26021 0
M  V30 2369 H 227.208 6.07855 0.657399 0
M  V30 2370 H 231.382 6.96071 0.213983 0
M  V30 2371 H 229.009 7.60143 -0.0932606 0
M  V30 2372 N 230.584 -0.659388 1.43143 0
M  V30 2373 C 231.814 -1.44513 1.47646 0
M  V30 2374 C 232.222 -1.88981 0.0910095 0
M  V30 2375 O 231.565 -1.59702 -0.907789 0
M  V30 2376 C 231.627 -2.71663 2.35456 0
M  V30 2377 C 231.291 -2.49175 3.83094 0
M  V30 2378 C 232.288 -2.1279 4.74359 0
M  V30 2379 C 229.973 -2.63691 4.27519 0
M  V30 2380 C 231.967 -1.9121 6.08044 0
M  V30 2381 C 229.654 -2.41726 5.61259 0
M  V30 2382 C 230.652 -2.0554 6.51339 0
M  V30 2383 O 230.34 -1.838 7.82606 0
M  V30 2384 H 230.072 -0.45064 0.503884 0
M  V30 2385 H 232.626 -0.816248 1.88485 0
M  V30 2386 H 230.856 -3.37089 1.89493 0
M  V30 2387 H 232.545 -3.33595 2.31235 0
M  V30 2388 H 233.311 -2.01157 4.41317 0
M  V30 2389 H 229.19 -2.90832 3.57684 0
M  V30 2390 H 232.734 -1.62889 6.78316 0
M  V30 2391 H 228.631 -2.52959 5.9387 0
M  V30 2392 H 229.399 -1.98275 7.94122 0
M  V30 2393 N 232.062 -1.29571 -0.897171 0
M  V30 2394 C 233.292 -1.20408 -1.67886 0
M  V30 2395 C 233.7 0.237429 -1.87704 0
M  V30 2396 O 233.043 1.17048 -1.41582 0
M  V30 2397 C 233.105 -1.84887 -3.08314 0
M  V30 2398 C 232.769 -3.34189 -3.11716 0
M  V30 2399 C 233.766 -4.30374 -2.91675 0
M  V30 2400 C 231.451 -3.75431 -3.33701 0
M  V30 2401 C 233.445 -5.65776 -2.93557 0
M  V30 2402 C 231.132 -5.10955 -3.35214 0
M  V30 2403 C 232.13 -6.05938 -3.15164 0
M  V30 2404 O 231.818 -7.38987 -3.1647 0
M  V30 2405 H 231.55 -0.418289 -0.531046 0
M  V30 2406 H 234.104 -1.71514 -1.13014 0
M  V30 2407 H 232.334 -1.28295 -3.64798 0
M  V30 2408 H 234.023 -1.70011 -3.6858 0
M  V30 2409 H 234.789 -3.99844 -2.74499 0
M  V30 2410 H 230.668 -3.01953 -3.48347 0
M  V30 2411 H 234.212 -6.39889 -2.77826 0
M  V30 2412 H 230.109 -5.4113 -3.51922 0
M  V30 2413 H 230.877 -7.47823 -3.3272 0
M  V30 2414 N 233.54 1.10788 -1.12088 0
M  V30 2415 C 234.47 2.19083 -0.807755 0
M  V30 2416 C 235.451 1.6858 0.226859 0
M  V30 2417 O 236.636 1.93997 0.0888475 0
M  V30 2418 C 233.766 3.46344 -0.257576 0
M  V30 2419 C 232.72 4.101 -1.22483 0
M  V30 2420 C 232.046 5.32016 -0.535052 0
M  V30 2421 C 233.346 4.54236 -2.57811 0
M  V30 2422 H 235.04 2.45534 -1.71328 0
M  V30 2423 H 232.586 1.1801 -0.825205 0
M  V30 2424 H 234.539 4.21392 -0.0262679 0
M  V30 2425 H 233.263 3.19373 0.683278 0
M  V30 2426 H 231.922 3.37054 -1.44189 0
M  V30 2427 H 231.57 5.01319 0.410827 0
M  V30 2428 H 231.27 5.75625 -1.18024 0
M  V30 2429 H 232.794 6.09799 -0.312695 0
M  V30 2430 H 234.208 5.20575 -2.40155 0
M  V30 2431 H 232.605 5.08682 -3.18375 0
M  V30 2432 H 233.675 3.6734 -3.16528 0
M  V30 2433 N 235.018 0.912232 1.28515 0
M  V30 2434 C 236.264 0.545405 1.95328 0
M  V30 2435 C 236.597 -0.908313 1.71649 0
M  V30 2436 O 235.872 -1.64575 1.03659 0
M  V30 2437 C 236.155 0.853483 3.4984 0
M  V30 2438 C 236.008 2.35982 3.82926 0
M  V30 2439 C 237.327 0.348589 4.38717 0
M  V30 2440 H 234.446 0.199626 0.709449 0
M  V30 2441 H 237.088 1.1412 1.5191 0
M  V30 2442 H 235.238 0.34643 3.86952 0
M  V30 2443 H 236.91 2.93738 3.55691 0
M  V30 2444 H 235.153 2.81543 3.30024 0
M  V30 2445 H 235.824 2.52593 4.90816 0
M  V30 2446 H 238.3 0.78294 4.08668 0
M  V30 2447 H 237.176 0.593242 5.45685 0
M  V30 2448 H 237.437 -0.751049 4.35674 0
M  V30 2449 N 236.496 -1.42363 0.676048 0
M  V30 2450 C 237.443 -2.308 -0.00150904 0
M  V30 2451 C 238.413 -1.46032 -0.791444 0
M  V30 2452 O 239.598 -1.74861 -0.76344 0
M  V30 2453 C 236.738 -3.31883 -0.945919 0
M  V30 2454 C 235.851 -4.31741 -0.149675 0
M  V30 2455 C 234.986 -5.19898 -1.08995 0
M  V30 2456 C 234.025 -6.11434 -0.285465 0
M  V30 2457 N 233.162 -6.92138 -1.17851 0
M  V30 2458 H 238.002 -2.88187 0.758455 0
M  V30 2459 H 235.539 -1.41952 0.38576 0
M  V30 2460 H 237.497 -3.89019 -1.50731 0
M  V30 2461 H 236.127 -2.76093 -1.6725 0
M  V30 2462 H 235.179 -3.76713 0.528359 0
M  V30 2463 H 236.491 -4.96534 0.474866 0
M  V30 2464 H 235.645 -5.81772 -1.72123 0
M  V30 2465 H 234.384 -4.55284 -1.74837 0
M  V30 2466 H 233.389 -5.48627 0.359018 0
M  V30 2467 H 234.614 -6.78097 0.368883 0
M  V30 2468 H 232.56 -6.30152 -1.82332 0
M  V30 2469 H 232.477 -7.53542 -0.609082 0
M  V30 2470 H 233.745 -7.58499 -1.79722 0
M  V30 2471 N 237.974 -0.419461 -1.51915 0
M  V30 2472 C 239.199 0.154572 -2.06823 0
M  V30 2473 C 239.624 1.3722 -1.28656 0
M  V30 2474 O 238.982 1.78461 -0.319583 0
M  V30 2475 C 239.03 0.473172 -3.57482 0
M  V30 2476 O 238.134 1.56255 -3.81652 0
M  V30 2477 H 237.475 0.0096924 -0.663929 0
M  V30 2478 H 240.005 -0.595642 -1.95738 0
M  V30 2479 H 240.015 0.728825 -4.01438 0
M  V30 2480 H 238.69 -0.416873 -4.13805 0
M  V30 2481 H 237.267 1.29825 -3.49571 0
M  V30 2482 N 239.452 1.56882 -0.150215 0
M  V30 2483 C 240.699 1.96228 0.500093 0
M  V30 2484 C 241.027 1.03522 1.64661 0
M  V30 2485 O 240.282 0.0650683 1.95592 0
M  V30 2486 C 240.581 3.41801 1.04437 0
M  V30 2487 C 240.247 4.50897 0.0159671 0
M  V30 2488 C 238.909 4.8046 -0.266731 0
M  V30 2489 C 241.261 5.16703 -0.683192 0
M  V30 2490 C 238.589 5.73135 -1.25434 0
M  V30 2491 C 240.941 6.10441 -1.65964 0
M  V30 2492 C 239.605 6.38382 -1.95 0
M  V30 2493 H 238.875 0.718048 0.182997 0
M  V30 2494 H 241.522 1.90019 -0.237724 0
M  V30 2495 H 239.827 3.44857 1.85959 0
M  V30 2496 H 241.524 3.69573 1.55618 0
M  V30 2497 H 238.114 4.27891 0.246485 0
M  V30 2498 H 242.298 4.93993 -0.477983 0
M  V30 2499 H 237.554 5.93074 -1.48571 0
M  V30 2500 H 241.728 6.60507 -2.20689 0
M  V30 2501 H 239.355 7.09996 -2.71679 0
M  V30 2502 N 240.93 -0.123565 1.57115 0
M  V30 2503 C 242.158 -0.846461 1.88793 0
M  V30 2504 C 242.573 -1.73652 0.740976 0
M  V30 2505 O 241.93 -1.80207 -0.288393 0
M  V30 2506 C 241.981 -1.6837 3.19897 0
M  V30 2507 O 241.702 -0.829477 4.30176 0
M  V30 2508 C 243.203 -2.51214 3.65248 0
M  V30 2509 H 240.423 -0.243573 0.625231 0
M  V30 2510 H 242.967 -0.109324 2.04208 0
M  V30 2511 H 241.122 -2.37364 3.06165 0
M  V30 2512 H 241.536 -1.40651 5.0529 0
M  V30 2513 H 243.01 -3.05497 4.59756 0
M  V30 2514 H 243.487 -3.28359 2.9168 0
M  V30 2515 H 244.093 -1.8747 3.81752 0
M  V30 2516 N 242.408 -1.52605 -0.393616 0
M  V30 2517 C 243.636 -1.71294 -1.16043 0
M  V30 2518 C 244.051 -0.429259 -1.83855 0
M  V30 2519 O 243.408 0.595921 -1.72496 0
M  V30 2520 C 243.459 -2.8593 -2.21193 0
M  V30 2521 O 243.18 -4.09329 -1.56146 0
M  V30 2522 C 244.681 -3.16259 -3.10636 0
M  V30 2523 H 241.901 -0.573641 -0.348104 0
M  V30 2524 H 244.445 -1.99234 -0.461092 0
M  V30 2525 H 242.6 -2.60465 -2.86769 0
M  V30 2526 H 243.014 -4.73323 -2.25978 0
M  V30 2527 H 244.488 -3.99946 -3.80456 0
M  V30 2528 H 244.965 -2.3045 -3.73884 0
M  V30 2529 H 245.571 -3.43547 -2.50711 0
M  V30 2530 N 243.887 0.651787 -1.4349 0
M  V30 2531 C 245.115 1.43937 -1.48626 0
M  V30 2532 C 245.53 1.8851 -0.104587 0
M  V30 2533 O 244.887 1.5958 0.885464 0
M  V30 2534 C 244.938 2.6734 -2.43334 0
M  V30 2535 O 244.659 2.24631 -3.76128 0
M  V30 2536 C 246.16 3.60683 -2.57726 0
M  V30 2537 H 243.38 0.44213 -0.504739 0
M  V30 2538 H 245.924 0.798944 -1.88248 0
M  V30 2539 H 244.079 3.2752 -2.06904 0
M  V30 2540 H 244.493 3.04485 -4.2707 0
M  V30 2541 H 245.967 4.43933 -3.28067 0
M  V30 2542 H 246.444 4.08126 -1.62265 0
M  V30 2543 H 247.05 3.06384 -2.94973 0
M  V30 2544 N 245.365 1.30045 0.890287 0
M  V30 2545 C 246.295 1.18541 2.01172 0
M  V30 2546 C 247.276 0.0773356 1.69924 0
M  V30 2547 O 248.461 0.25845 1.92473 0
M  V30 2548 C 245.591 0.870941 3.36202 0
M  V30 2549 C 244.545 1.93637 3.81692 0
M  V30 2550 C 243.871 1.475 5.13953 0
M  V30 2551 C 245.171 3.34666 4.00994 0
M  V30 2552 H 246.865 2.12359 2.11054 0
M  V30 2553 H 244.411 1.02238 1.01407 0
M  V30 2554 H 246.364 0.777141 4.14172 0
M  V30 2555 H 245.088 -0.102926 3.26438 0
M  V30 2556 H 243.747 2.01972 3.05946 0
M  V30 2557 H 243.395 0.489551 5.00612 0
M  V30 2558 H 243.095 2.1876 5.4536 0
M  V30 2559 H 244.619 1.39489 5.94454 0
M  V30 2560 H 246.033 3.2912 4.69417 0
M  V30 2561 H 244.43 4.03966 4.43769 0
M  V30 2562 H 245.5 3.76949 3.05021 0
M  V30 2563 N 246.843 -1.10192 1.12674 0
M  V30 2564 C 248.254 -1.63707 0.897604 0
M  V30 2565 C 248.605 -1.87812 -0.567546 0
M  V30 2566 O 247.73 -1.62196 -1.43253 0
M  V30 2567 C 248.325 -2.974 1.62292 0
M  V30 2568 C 246.884 -3.47772 1.43986 0
M  V30 2569 C 246.031 -2.22332 1.65722 0
M  V30 2570 H 248.982 -0.936587 1.28116 0
M  V30 2571 H 249.003 -3.64986 1.07541 0
M  V30 2572 H 248.515 -2.79824 2.68924 0
M  V30 2573 H 246.616 -3.70487 0.396206 0
M  V30 2574 H 246.729 -4.25723 2.19765 0
M  V30 2575 H 245.093 -2.30599 1.08149 0
M  V30 2576 H 245.876 -2.07285 2.73657 0
M  V30 2577 N 248.321 -0.919034 -1.28029 0
M  V30 2578 C 249.567 -0.565221 -1.95389 0
M  V30 2579 C 249.922 0.882325 -1.70976 0
M  V30 2580 O 249.215 1.61988 -1.02325 0
M  V30 2581 C 249.409 -0.816855 -3.4794 0
M  V30 2582 C 249.238 -2.28731 -3.87185 0
M  V30 2583 C 248.008 -2.93841 -4.11079 0
M  V30 2584 C 250.206 -3.26415 -3.97439 0
M  V30 2585 N 248.188 -4.31129 -4.37037 0
M  V30 2586 C 249.559 -4.48884 -4.27672 0
M  V30 2587 C 251.614 -3.21742 -3.79982 0
M  V30 2588 C 250.317 -5.67268 -4.42266 0
M  V30 2589 C 252.343 -4.39431 -3.95796 0
M  V30 2590 C 251.705 -5.60675 -4.26407 0
M  V30 2591 H 247.804 -0.256797 -0.738633 0
M  V30 2592 H 250.388 -1.18386 -1.54573 0
M  V30 2593 H 248.559 -0.227445 -3.87733 0
M  V30 2594 H 250.291 -0.426542 -4.02446 0
M  V30 2595 H 247.046 -2.44547 -4.05578 0
M  V30 2596 H 247.47 -5.02127 -4.5409 0
M  V30 2597 H 252.112 -2.29079 -3.55363 0
M  V30 2598 H 249.83 -6.60406 -4.65714 0
M  V30 2599 H 253.416 -4.37323 -3.83719 0
M  V30 2600 H 252.296 -6.50223 -4.38383 0
M  V30 2601 N 249.799 1.42003 -0.683588 0
M  V30 2602 C 250.762 2.29191 -0.0198243 0
M  V30 2603 C 251.762 1.43773 0.72013 0
M  V30 2604 O 252.952 1.65061 0.556815 0
M  V30 2605 C 250.084 3.26435 0.982487 0
M  V30 2606 H 251.277 2.8938 -0.787345 0
M  V30 2607 H 248.83 1.49789 -0.446418 0
M  V30 2608 H 249.565 2.71203 1.77819 0
M  V30 2609 H 249.35 3.89449 0.455182 0
M  V30 2610 H 250.84 3.918 1.44508 0
M  V30 2611 N 251.277 0.427512 1.51691 0
M  V30 2612 C 252.505 -0.141191 2.06418 0
M  V30 2613 C 252.92 -1.37303 1.29589 0
M  V30 2614 O 252.277 -1.79059 0.352732 0
M  V30 2615 C 252.328 -0.473266 3.58389 0
M  V30 2616 O 252.049 0.709673 4.32314 0
M  V30 2617 C 253.55 -1.09371 4.29596 0
M  V30 2618 H 250.77 -0.0122747 0.670888 0
M  V30 2619 H 253.314 0.603764 1.95384 0
M  V30 2620 H 251.469 -1.16812 3.69369 0
M  V30 2621 H 251.883 0.42807 5.2275 0
M  V30 2622 H 253.357 -1.27613 5.37046 0
M  V30 2623 H 253.834 -2.072 3.87253 0
M  V30 2624 H 254.44 -0.43853 4.23033 0
M  V30 2625 N 252.755 -1.56801 0.158532 0
M  V30 2626 C 253.995 -1.98383 -0.49229 0
M  V30 2627 C 254.359 -1.04184 -1.61275 0
M  V30 2628 O 255.56 -1.34856 -2.32524 0
M  V30 2629 C 253.831 -3.4385 -0.974766 0
M  V30 2630 S 255.39 -4.07459 -1.62857 0
M  V30 2631 H 252.208 -0.693041 -0.158794 0
M  V30 2632 H 254.81 -1.93856 0.252974 0
M  V30 2633 H 253.514 -4.10131 -0.148688 0
M  V30 2634 H 253.045 -3.52115 -1.75438 0
M  V30 2635 H 255.06 -4.01458 -2.91627 0
M  V30 2636 N 254.233 0.115231 -1.57178 0
M  V30 2637 C 255.481 0.820727 -1.84685 0
M  V30 2638 C 255.802 1.80237 -0.744279 0
M  V30 2639 O 255.072 1.94529 0.231375 0
M  V30 2640 H 253.652 0.306084 -0.681411 0
M  V30 2641 H 256.314 0.101656 -1.94635 0
M  V30 2642 H 255.41 1.36366 -2.80733 0
M  V30 2643 N 255.711 1.52812 0.385517 0
M  V30 2644 C 256.661 1.74219 1.47078 0
M  V30 2645 C 257.645 0.59632 1.49442 0
M  V30 2646 O 258.837 0.85428 1.5502 0
M  V30 2647 C 255.966 1.9176 2.84751 0
M  V30 2648 C 255.052 3.12289 2.86943 0
M  V30 2649 N 255.443 4.34575 2.58802 0
M  V30 2650 C 253.741 3.12605 3.1811 0
M  V30 2651 C 254.442 5.162 2.68166 0
M  V30 2652 N 253.418 4.51964 3.02043 0
M  V30 2653 H 257.22 2.6639 1.24152 0
M  V30 2654 H 254.734 1.51166 0.593504 0
M  V30 2655 H 256.731 2.05218 3.62893 0
M  V30 2656 H 255.391 1.00805 3.08656 0
M  V30 2657 H 256.402 4.62649 2.32759 0
M  V30 2658 H 253.079 2.31472 3.47458 0
M  V30 2659 H 254.469 6.23689 2.49923 0
M  V30 2660 N 257.189 -0.644168 1.43834 0
M  V30 2661 C 258.417 -1.43147 1.49387 0
M  V30 2662 C 258.832 -1.88452 0.114583 0
M  V30 2663 O 258.189 -1.60047 -0.876989 0
M  V30 2664 C 258.24 -2.66046 2.44748 0
M  V30 2665 O 257.961 -2.22633 3.77314 0
M  V30 2666 C 259.462 -3.59311 2.59635 0
M  V30 2667 H 256.682 -0.439447 0.507077 0
M  V30 2668 H 259.226 -0.78895 1.88669 0
M  V30 2669 H 257.381 -3.26418 2.08638 0
M  V30 2670 H 257.795 -3.02216 4.28679 0
M  V30 2671 H 259.269 -4.42187 3.30416 0
M  V30 2672 H 259.746 -4.07259 1.64427 0
M  V30 2673 H 260.352 -3.04816 2.96593 0
M  V30 2674 N 258.668 -1.30515 -0.883378 0
M  V30 2675 C 259.914 -1.20617 -1.63778 0
M  V30 2676 C 260.269 0.236469 -1.90941 0
M  V30 2677 O 259.562 1.16596 -1.52039 0
M  V30 2678 C 259.756 -1.96994 -2.98209 0
M  V30 2679 C 259.585 -3.48537 -2.84169 0
M  V30 2680 C 258.355 -4.17893 -2.84067 0
M  V30 2681 C 260.553 -4.43738 -2.60001 0
M  V30 2682 N 258.535 -5.55685 -2.60936 0
M  V30 2683 C 259.906 -5.69105 -2.46007 0
M  V30 2684 C 261.961 -4.33316 -2.45239 0
M  V30 2685 C 260.664 -6.8523 -2.18752 0
M  V30 2686 C 262.69 -5.4921 -2.19369 0
M  V30 2687 C 262.052 -6.73558 -2.06153 0
M  V30 2688 H 258.151 -0.496434 -0.604216 0
M  V30 2689 H 260.735 -1.64544 -1.04083 0
M  V30 2690 H 258.906 -1.55455 -3.55933 0
M  V30 2691 H 260.638 -1.79225 -3.62851 0
M  V30 2692 H 257.393 -3.69739 -2.95956 0
M  V30 2693 H 257.817 -6.28199 -2.52378 0
M  V30 2694 H 262.459 -3.37856 -2.54191 0
M  V30 2695 H 260.177 -7.80729 -2.08537 0
M  V30 2696 H 263.763 -5.43054 -2.08766 0
M  V30 2697 H 262.643 -7.61721 -1.86416 0
M  V30 2698 N 260.146 1.09593 -1.13257 0
M  V30 2699 C 261.094 2.18271 -0.803783 0
M  V30 2700 C 262.088 1.68054 0.213148 0
M  V30 2701 O 263.294 1.79862 0.0704699 0
M  V30 2702 H 259.669 0.711949 -0.242143 0
M  V30 2703 H 261.64 2.43235 -1.72856 0
M  V30 2704 C 260.389 3.46536 -0.28424 0
M  V30 2705 H 259.712 3.85545 -1.05807 0
M  V30 2706 H 261.152 4.23899 -0.0925945 0
M  V30 2707 C 259.611 3.22036 0.989684 0
M  V30 2708 O 260.141 3.44509 2.06584 0
M  V30 2709 N 258.347 2.7565 0.920086 0
M  V30 2710 H 257.894 2.57562 0.0442019 0
M  V30 2711 H 257.852 2.59635 1.77306 0
M  V30 2712 N 261.624 0.925811 1.2754 0
M  V30 2713 C 262.852 0.581509 1.9856 0
M  V30 2714 C 263.267 -0.840041 1.69082 0
M  V30 2715 O 262.624 -1.55805 0.950312 0
M  V30 2716 C 262.675 0.795589 3.52637 0
M  V30 2717 O 262.396 2.16121 3.81082 0
M  V30 2718 C 263.897 0.459744 4.4091 0
M  V30 2719 H 261.117 0.220538 0.633722 0
M  V30 2720 H 263.661 1.24232 1.6244 0
M  V30 2721 H 261.816 0.18161 3.86974 0
M  V30 2722 H 262.23 2.2098 4.75676 0
M  V30 2723 H 263.704 0.660244 5.48037 0
M  V30 2724 H 264.181 -0.604625 4.35018 0
M  V30 2725 H 264.787 1.05178 4.12089 0
M  V30 2726 N 263.102 -1.41638 0.69111 0
M  V30 2727 C 264.513 -1.84346 0.295517 0
M  V30 2728 C 264.864 -1.57833 -1.16547 0
M  V30 2729 O 263.989 -1.04648 -1.89414 0
M  V30 2730 C 264.584 -3.34636 0.529575 0
M  V30 2731 C 263.143 -3.7593 0.187944 0
M  V30 2732 C 262.29 -2.65082 0.814052 0
M  V30 2733 H 265.241 -1.31253 0.892092 0
M  V30 2734 H 265.262 -3.79903 -0.213148 0
M  V30 2735 H 264.774 -3.53901 1.59297 0
M  V30 2736 H 262.875 -3.62268 -0.871367 0
M  V30 2737 H 262.988 -4.74808 0.63985 0
M  V30 2738 H 261.352 -2.53528 0.244017 0
M  V30 2739 H 262.135 -2.87167 1.88123 0
M  V30 2740 N 264.58 -0.43555 -1.51462 0
M  V30 2741 C 265.857 0.191364 -1.94662 0
M  V30 2742 C 266.237 1.60254 -1.37411 0
M  V30 2743 O 265.585 2.2152 -0.560458 0
M  V30 2744 C 265.795 0.17091 -3.48581 0
M  V30 2745 C 267.143 0.377357 -4.2292 0
M  V30 2746 O 268.167 0.249104 -3.55328 0
M  V30 2747 O 267.026 0.63247 -5.42828 0
M  V30 2748 H 264.12 0.130932 -0.816569 0
M  V30 2749 H 266.666 -0.4934 -1.62369 0
M  V30 2750 H 265.438 -0.815738 -3.82703 0
M  V30 2751 H 265.061 0.898659 -3.87311 0
M  V30 2752 N 266.058 1.56714 -0.166846 0
M  V30 2753 C 267.298 1.98641 0.481763 0
M  V30 2754 C 267.662 1.05038 1.6072 0
M  V30 2755 O 268.863 1.36087 2.31805 0
M  V30 2756 C 267.134 3.44362 0.956517 0
M  V30 2757 S 268.693 4.08317 1.60694 0
M  V30 2758 H 265.511 0.693873 0.155116 0
M  V30 2759 H 268.113 1.93719 -0.263251 0
M  V30 2760 H 266.817 4.10204 0.126936 0
M  V30 2761 H 266.348 3.53041 1.73568 0
M  V30 2762 H 268.363 4.02999 2.89494 0
M  V30 2763 N 267.536 -0.106894 1.57237 0
M  V30 2764 C 268.782 -0.81373 1.85759 0
M  V30 2765 C 269.115 -1.78952 0.754315 0
M  V30 2766 O 268.39 -1.93029 -0.23879 0
M  V30 2767 C 268.673 -1.55293 3.24894 0
M  V30 2768 C 268.526 -0.595929 4.45835 0
M  V30 2769 C 269.845 -2.5063 3.61763 0
M  V30 2770 H 266.964 -0.294369 0.67566 0
M  V30 2771 H 269.606 -0.0776472 1.89841 0
M  V30 2772 H 267.756 -2.1804 3.21544 0
M  V30 2773 H 269.428 0.0236262 4.61294 0
M  V30 2774 H 267.671 0.0916191 4.33703 0
M  V30 2775 H 268.342 -1.15004 5.39887 0
M  V30 2776 H 270.818 -1.97982 3.65981 0
M  V30 2777 H 269.694 -2.99376 4.60071 0
M  V30 2778 H 269.955 -3.3385 2.89821 0
M  V30 2779 N 269.014 -1.53014 -0.377408 0
M  V30 2780 C 269.924 -1.81557 -1.48574 0
M  V30 2781 C 270.94 -0.703102 -1.59162 0
M  V30 2782 O 272.116 -0.99192 -1.75279 0
M  V30 2783 C 269.181 -1.9889 -2.83978 0
M  V30 2784 C 268.242 -3.22801 -2.83016 0
M  V30 2785 C 267.475 -3.39298 -4.11962 0
M  V30 2786 O 267.698 -2.60345 -5.0752 0
M  V30 2787 O 266.632 -4.32604 -4.18494 0
M  V30 2788 H 270.458 -2.75695 -1.27382 0
M  V30 2789 H 268.043 -1.38248 -0.566373 0
M  V30 2790 H 269.925 -2.11931 -3.6423 0
M  V30 2791 H 268.6 -1.07942 -3.05172 0
M  V30 2792 H 267.507 -3.15193 -2.01505 0
M  V30 2793 H 268.84 -4.13632 -2.66775 0
M  V30 2794 N 270.492 0.636531 -1.44174 0
M  V30 2795 C 271.741 1.39213 -1.45954 0
M  V30 2796 C 272.054 1.95374 -0.0939119 0
M  V30 2797 O 273.26 2.71498 0.0107767 0
M  V30 2798 C 271.716 2.52025 -2.56927 0
M  V30 2799 C 271.324 2.024 -3.99673 0
M  V30 2800 C 273.068 3.29269 -2.67922 0
M  V30 2801 C 270.975 3.12521 -5.0208 0
M  V30 2802 H 269.905 0.523132 -0.542999 0
M  V30 2803 H 272.556 0.685349 -1.70221 0
M  V30 2804 H 270.938 3.25253 -2.25891 0
M  V30 2805 H 272.112 1.36073 -4.40251 0
M  V30 2806 H 270.427 1.37987 -3.92872 0
M  V30 2807 H 273.024 4.11352 -3.41605 0
M  V30 2808 H 273.367 3.78397 -1.73555 0
M  V30 2809 H 273.9 2.63129 -2.98342 0
M  V30 2810 H 270.639 2.68343 -5.98057 0
M  V30 2811 H 270.159 3.77507 -4.66099 0
M  V30 2812 H 271.838 3.77385 -5.25538 0
M  V30 2813 N 271.97 1.30982 0.876444 0
M  V30 2814 C 273.217 1.20296 1.62896 0
M  V30 2815 C 273.545 -0.240395 1.93009 0
M  V30 2816 O 272.8 -1.18733 1.55567 0
M  V30 2817 C 273.099 1.98572 2.9716 0
M  V30 2818 C 272.765 3.48125 2.86566 0
M  V30 2819 C 271.427 3.88905 2.83383 0
M  V30 2820 C 273.779 4.43322 2.74071 0
M  V30 2821 C 271.107 5.2316 2.65556 0
M  V30 2822 C 273.459 5.77695 2.57781 0
M  V30 2823 C 272.123 6.17704 2.52979 0
M  V30 2824 H 271.393 0.440193 0.59608 0
M  V30 2825 H 274.04 1.62177 1.01837 0
M  V30 2826 H 272.345 1.49352 3.62217 0
M  V30 2827 H 274.042 1.8769 3.54364 0
M  V30 2828 H 270.632 3.15723 2.89856 0
M  V30 2829 H 274.816 4.12752 2.75589 0
M  V30 2830 H 270.072 5.53241 2.60259 0
M  V30 2831 H 274.246 6.51091 2.47089 0
M  V30 2832 H 271.873 7.21678 2.38924 0
M  V30 2833 N 273.449 -1.08991 1.13837 0
M  V30 2834 C 274.865 -1.33312 0.877506 0
M  V30 2835 C 275.065 -1.95587 -0.48456 0
M  V30 2836 O 274.121 -2.20509 -1.23013 0
M  V30 2837 C 275.434 -2.24045 2.0056 0
M  V30 2838 C 276.982 -2.37542 2.03821 0
M  V30 2839 C 277.457 -3.31614 3.15905 0
M  V30 2840 N 278.948 -3.39189 3.15445 0
M  V30 2841 C 279.683 -4.11992 3.98811 0
M  V30 2842 N 279.179 -4.87553 4.92203 0
M  V30 2843 N 280.972 -4.07762 3.86894 0
M  V30 2844 H 273.123 -0.669456 2.01574 0
M  V30 2845 H 275.386 -0.357482 0.878015 0
M  V30 2846 H 275.092 -1.85521 2.98789 0
M  V30 2847 H 274.966 -3.24466 1.92359 0
M  V30 2848 H 277.353 -2.75327 1.06202 0
M  V30 2849 H 277.434 -1.36884 2.16093 0
M  V30 2850 H 277.078 -2.94551 4.13766 0
M  V30 2851 H 277.008 -4.32186 3.0087 0
M  V30 2852 H 279.499 -2.85314 2.47799 0
M  V30 2853 H 279.812 -5.40549 5.52292 0
M  V30 2854 H 278.157 -4.86627 4.96205 0
M  V30 2855 H 281.348 -3.47833 3.13257 0
M  V30 2856 H 281.521 -4.64238 4.52092 0
M  V30 2857 N 274.927 -0.932562 -1.27047 0
M  V30 2858 C 275.877 -0.406392 -2.24349 0
M  V30 2859 C 276.861 0.492066 -1.53191 0
M  V30 2860 O 278.053 0.328717 -1.73921 0
M  V30 2861 C 275.182 0.335214 -3.41659 0
M  V30 2862 C 274.268 -0.58004 -4.20115 0
M  V30 2863 N 274.659 -1.70203 -4.76303 0
M  V30 2864 C 272.957 -0.383974 -4.44344 0
M  V30 2865 C 273.658 -2.27167 -5.35509 0
M  V30 2866 N 272.634 -1.56068 -5.20715 0
M  V30 2867 H 276.436 -1.26299 -2.65378 0
M  V30 2868 H 273.95 -0.787408 -1.42034 0
M  V30 2869 H 275.947 0.729142 -4.10474 0
M  V30 2870 H 274.607 1.18868 -3.0216 0
M  V30 2871 H 275.618 -2.08433 -4.74106 0
M  V30 2872 H 272.295 0.428436 -4.15296 0
M  V30 2873 H 273.685 -3.21654 -5.89905 0
M  V30 2874 N 276.405 1.4127 -0.698611 0
M  V30 2875 C 277.315 2.34573 -0.0357891 0
M  V30 2876 C 278.331 1.56393 0.762701 0
M  V30 2877 O 279.507 1.8886 0.699564 0
M  V30 2878 C 276.572 3.35159 0.887089 0
M  V30 2879 C 275.633 4.29225 0.0804634 0
M  V30 2880 C 274.866 5.25006 0.959387 0
M  V30 2881 O 275.089 5.26314 2.19886 0
M  V30 2882 O 274.023 6.00519 0.407439 0
M  V30 2883 H 277.849 2.92838 -0.804957 0
M  V30 2884 H 275.434 1.42175 -0.458966 0
M  V30 2885 H 277.316 3.9689 1.41621 0
M  V30 2886 H 275.991 2.79333 1.6357 0
M  V30 2887 H 274.898 3.70833 -0.493328 0
M  V30 2888 H 276.231 4.88157 -0.629547 0
M  V30 2889 N 277.883 0.443576 1.51229 0
M  V30 2890 C 279.16 -0.181038 1.9476 0
M  V30 2891 C 279.54 -1.59523 1.38259 0
M  V30 2892 O 278.888 -2.2122 0.572198 0
M  V30 2893 C 279.098 -0.152422 3.48667 0
M  V30 2894 C 280.446 -0.354923 4.23114 0
M  V30 2895 O 281.47 -0.230257 3.55455 0
M  V30 2896 O 280.329 -0.603674 5.43156 0
M  V30 2897 H 277.423 -0.1266 0.817252 0
M  V30 2898 H 279.969 0.502004 1.62105 0
M  V30 2899 H 278.741 0.836022 3.82265 0
M  V30 2900 H 278.364 -0.878107 3.87782 0
M  V30 2901 N 279.361 -1.56624 0.175154 0
M  V30 2902 C 280.601 -1.98894 -0.471221 0
M  V30 2903 C 280.965 -1.05889 -1.60161 0
M  V30 2904 O 282.166 -1.37315 -2.3108 0
M  V30 2905 C 280.437 -3.44865 -0.938241 0
M  V30 2906 S 281.996 -4.09164 -1.58526 0
M  V30 2907 H 278.814 -0.694686 -0.151434 0
M  V30 2908 H 281.416 -1.93577 0.27352 0
M  V30 2909 H 280.12 -4.10265 -0.10518 0
M  V30 2910 H 279.651 -3.53956 -1.71693 0
M  V30 2911 H 281.666 -4.04528 -2.87352 0
M  V30 2912 N 280.839 0.0985539 -1.57292 0
M  V30 2913 C 281.802 1.10402 -2.00858 0
M  V30 2914 C 282.802 1.33146 -0.901593 0
M  V30 2915 O 283.992 1.29318 -1.16716 0
M  V30 2916 C 281.124 2.45394 -2.36632 0
M  V30 2917 H 282.317 0.729099 -2.90902 0
M  V30 2918 H 279.87 0.343495 -1.52479 0
M  V30 2919 H 280.605 2.87769 -1.49531 0
M  V30 2920 H 280.39 2.30235 -3.17387 0
M  V30 2921 H 281.88 3.17718 -2.71007 0
M  V30 2922 N 282.317 1.53212 0.369288 0
M  V30 2923 C 283.265 1.80054 1.47253 0
M  V30 2924 C 284.259 0.669456 1.55611 0
M  V30 2925 O 285.465 0.852328 1.58541 0
M  V30 2926 H 281.84 0.570034 0.490475 0
M  V30 2927 H 283.811 2.72403 1.21817 0
M  V30 2928 C 282.56 2.00403 2.84137 0
M  V30 2929 H 281.883 2.86876 2.78464 0
M  V30 2930 H 283.323 2.23164 3.60519 0
M  V30 2931 C 281.782 0.782081 3.27697 0
M  V30 2932 O 282.312 -0.0310205 4.01688 0
M  V30 2933 N 280.518 0.606573 2.84199 0
M  V30 2934 H 280.065 1.26939 2.24152 0
M  V30 2935 H 280.023 -0.20962 3.137 0
M  V30 2936 N 283.795 -0.628877 1.44509 0
M  V30 2937 C 284.758 -1.72263 1.51188 0
M  V30 2938 C 285.758 -1.55907 0.39367 0
M  V30 2939 O 286.948 -1.61361 0.656377 0
M  V30 2940 C 284.08 -3.11365 1.38798 0
M  V30 2941 H 285.273 -1.67714 2.4862 0
M  V30 2942 H 282.826 -0.842737 1.31634 0
M  V30 2943 H 283.561 -3.21507 0.424693 0
M  V30 2944 H 283.346 -3.24644 2.19884 0
M  V30 2945 H 284.836 -3.91075 1.46458 0
M  V30 2946 N 285.273 -1.31445 -0.869486 0
M  V30 2947 C 286.498 -1.24256 -1.66058 0
M  V30 2948 C 286.923 0.188928 -1.87149 0
M  V30 2949 O 286.281 1.13522 -1.4136 0
M  V30 2950 C 286.329 -1.9924 -3.00559 0
M  V30 2951 O 285.433 -1.33007 -3.90362 0
M  V30 2952 H 284.774 -0.428973 -0.506831 0
M  V30 2953 H 287.304 -1.73521 -1.08404 0
M  V30 2954 H 287.314 -2.08854 -3.50491 0
M  V30 2955 H 285.989 -3.03342 -2.84528 0
M  V30 2956 H 284.566 -1.31848 -3.48813 0
M  V30 2957 N 286.751 1.08385 -1.14413 0
M  V30 2958 C 287.681 2.17321 -0.854044 0
M  V30 2959 C 288.662 1.69024 0.191049 0
M  V30 2960 O 289.847 1.94141 0.0476779 0
M  V30 2961 C 286.977 3.45719 -0.330983 0
M  V30 2962 C 285.931 4.07409 -1.31155 0
M  V30 2963 C 285.257 5.30762 -0.64778 0
M  V30 2964 C 286.557 4.48665 -2.67388 0
M  V30 2965 H 288.251 2.41845 -1.76498 0
M  V30 2966 H 285.797 1.16233 -0.850051 0
M  V30 2967 H 287.75 4.21241 -0.115645 0
M  V30 2968 H 286.474 3.2075 0.615381 0
M  V30 2969 H 285.133 3.33919 -1.51306 0
M  V30 2970 H 284.781 5.02078 0.304398 0
M  V30 2971 H 284.481 5.72992 -1.30207 0
M  V30 2972 H 286.005 6.08998 -0.441972 0
M  V30 2973 H 287.419 5.15364 -2.51143 0
M  V30 2974 H 285.816 5.01814 -3.29093 0
M  V30 2975 H 286.886 3.60543 -3.24248 0
M  V30 2976 N 288.23 0.939286 1.26551 0
M  V30 2977 C 289.193 0.451987 2.24699 0
M  V30 2978 C 290.193 -0.435869 1.5478 0
M  V30 2979 O 291.383 -0.235314 1.72603 0
M  V30 2980 C 288.515 -0.348801 3.39111 0
M  V30 2981 H 289.708 1.3193 2.69322 0
M  V30 2982 H 287.261 0.721072 1.38673 0
M  V30 2983 H 287.996 -1.23444 2.99887 0
M  V30 2984 H 287.781 0.287945 3.91041 0
M  V30 2985 H 289.271 -0.679726 4.12031 0
M  V30 2986 N 289.708 -1.40897 0.706093 0
M  V30 2987 C 290.656 -2.32572 0.0361893 0
M  V30 2988 C 291.65 -1.51532 -0.757266 0
M  V30 2989 O 292.856 -1.67396 -0.661703 0
M  V30 2990 H 289.231 -0.751966 -0.00709935 0
M  V30 2991 H 291.202 -2.86733 0.826249 0
M  V30 2992 C 289.951 -3.36418 -0.87854 0
M  V30 2993 H 289.274 -3.98836 -0.277401 0
M  V30 2994 H 290.714 -4.0308 -1.3154 0
M  V30 2995 C 289.173 -2.71141 -1.99961 0
M  V30 2996 O 289.703 -2.56735 -3.0895 0
M  V30 2997 N 287.909 -2.29671 -1.78043 0
M  V30 2998 H 287.456 -2.41588 -0.894042 0
M  V30 2999 H 287.414 -1.86332 -2.53235 0
M  V30 3000 N 291.186 -0.45159 -1.50991 0
M  V30 3001 C 292.116 0.342898 -2.30969 0
M  V30 3002 C 293.097 1.00815 -1.37005 0
M  V30 3003 O 294.282 1.00907 -1.65926 0
M  V30 3004 C 291.412 1.43637 -3.16205 0
M  V30 3005 C 290.366 0.893818 -4.18563 0
M  V30 3006 C 289.692 2.08411 -4.92411 0
M  V30 3007 C 290.992 -0.0815568 -5.22236 0
M  V30 3008 H 292.686 -0.324556 -2.97636 0
M  V30 3009 H 290.232 -0.157531 -1.43136 0
M  V30 3010 H 292.185 1.9995 -3.70942 0
M  V30 3011 H 290.909 2.13232 -2.47386 0
M  V30 3012 H 289.568 0.352798 -3.64898 0
M  V30 3013 H 289.216 2.76658 -4.20082 0
M  V30 3014 H 288.916 1.72741 -5.61636 0
M  V30 3015 H 290.44 2.65251 -5.49976 0
M  V30 3016 H 291.854 0.391742 -5.7196 0
M  V30 3017 H 290.251 -0.351551 -5.99069 0
M  V30 3018 H 291.321 -1.01374 -4.74185 0
M  V30 3019 N 292.664 1.56529 -0.183458 0
M  V30 3020 C 293.892 2.01623 0.464285 0
M  V30 3021 C 294.307 1.06366 1.55986 0
M  V30 3022 O 293.664 0.0665398 1.82379 0
M  V30 3023 C 293.715 3.46475 1.03139 0
M  V30 3024 O 293.436 4.38095 -0.0204675 0
M  V30 3025 C 294.937 4.0703 1.75617 0
M  V30 3026 H 292.157 0.660596 0.117704 0
M  V30 3027 H 294.701 2.02451 -0.288751 0
M  V30 3028 H 292.856 3.46383 1.73486 0
M  V30 3029 H 293.27 5.22973 0.399952 0
M  V30 3030 H 294.744 5.10271 2.10542 0
M  V30 3031 H 295.221 3.49819 2.65563 0
M  V30 3032 H 295.827 4.1086 1.09882 0
M  V30 3033 N 294.142 -0.090211 1.57342 0
M  V30 3034 C 295.382 -0.798365 1.88163 0
M  V30 3035 C 295.746 -1.75662 0.775046 0
M  V30 3036 O 296.947 -2.50849 0.965816 0
M  V30 3037 C 295.218 -1.50376 3.24225 0
M  V30 3038 S 296.777 -2.24952 3.76752 0
M  V30 3039 H 293.595 -0.265883 0.659414 0
M  V30 3040 H 296.197 -0.055264 1.95422 0
M  V30 3041 H 294.901 -0.792286 4.0268 0
M  V30 3042 H 294.432 -2.28666 3.20118 0
M  V30 3043 H 296.447 -3.51173 3.5056 0
M  V30 3044 N 295.62 -1.53406 -0.361157 0
M  V30 3045 C 296.897 -1.60411 -1.11927 0
M  V30 3046 C 297.277 -0.414385 -2.06993 0
M  V30 3047 O 296.625 0.594976 -2.20618 0
M  V30 3048 C 296.835 -2.95652 -1.85448 0
M  V30 3049 C 298.183 -3.50386 -2.39823 0
M  V30 3050 O 299.207 -2.97711 -1.95568 0
M  V30 3051 O 298.066 -4.42482 -3.20737 0
M  V30 3052 H 295.16 -0.64811 -0.513695 0
M  V30 3053 H 297.706 -1.65749 -0.364065 0
M  V30 3054 H 296.478 -3.73682 -1.16091 0
M  V30 3055 H 296.101 -2.93825 -2.67866 0
M  V30 3056 N 297.098 0.621204 -1.44841 0
M  V30 3057 C 298.03 1.74615 -1.48466 0
M  V30 3058 C 299.043 1.58377 -0.37691 0
M  V30 3059 O 300.232 1.66508 -0.643215 0
M  V30 3060 C 297.332 3.12459 -1.31236 0
M  V30 3061 C 296.505 3.55064 -2.55438 0
M  V30 3062 C 295.564 4.71821 -2.32963 0
M  V30 3063 O 294.59 4.79628 -3.06505 0
M  V30 3064 N 295.792 5.64186 -1.36654 0
M  V30 3065 H 298.557 1.71973 -2.45449 0
M  V30 3066 H 296.118 0.806077 -1.40407 0
M  V30 3067 H 298.11 3.88302 -1.14032 0
M  V30 3068 H 296.68 3.09686 -0.4258 0
M  V30 3069 H 295.9 2.69324 -2.87851 0
M  V30 3070 H 297.188 3.80284 -3.38026 0
M  V30 3071 H 296.586 5.6058 -0.759344 0
M  V30 3072 H 295.143 6.39618 -1.25425 0
M  V30 3073 N 298.576 1.31904 0.862503 0
M  V30 3074 C 299.506 1.22782 1.98612 0
M  V30 3075 C 300.487 0.113362 1.69722 0
M  V30 3076 O 301.672 0.299218 1.91881 0
M  V30 3077 C 298.802 0.942058 3.34279 0
M  V30 3078 C 297.756 2.0169 3.77499 0
M  V30 3079 C 297.082 1.58369 5.10709 0
M  V30 3080 C 298.382 3.43096 3.93805 0
M  V30 3081 H 300.076 2.16788 2.06502 0
M  V30 3082 H 297.622 1.04366 0.992154 0
M  V30 3083 H 299.575 0.864818 4.1243 0
M  V30 3084 H 298.299 -0.0336603 3.26583 0
M  V30 3085 H 296.958 2.08416 3.01593 0
M  V30 3086 H 296.606 0.595628 4.99461 0
M  V30 3087 H 296.306 2.30279 5.40597 0
M  V30 3088 H 297.83 1.52067 5.91361 0
M  V30 3089 H 299.244 3.39003 4.62331 0
M  V30 3090 H 297.641 4.13288 4.35101 0
M  V30 3091 H 298.711 3.83334 2.96957 0
M  V30 3092 N 300.054 -1.07777 1.14986 0
M  V30 3093 C 301.017 -2.13041 0.845358 0
M  V30 3094 C 302.017 -1.60071 -0.152931 0
M  V30 3095 O 303.207 -1.74033 0.0761879 0
M  V30 3096 C 300.339 -3.39896 0.261383 0
M  V30 3097 H 301.532 -2.41485 1.77834 0
M  V30 3098 H 299.085 -1.23595 0.956757 0
M  V30 3099 H 299.82 -3.17091 -0.68 0
M  V30 3100 H 299.605 -3.79642 0.980514 0
M  V30 3101 H 301.095 -4.17548 0.0657687 0
M  V30 3102 N 301.532 -0.945985 -1.26051 0
M  V30 3103 C 302.809 -0.513816 -1.88731 0
M  V30 3104 C 303.189 1.00872 -1.8544 0
M  V30 3105 O 302.537 1.8708 -1.312 0
M  V30 3106 C 302.747 -1.08062 -3.31849 0
M  V30 3107 C 304.095 -1.1522 -4.08668 0
M  V30 3108 O 305.119 -1.03155 -3.40936 0
M  V30 3109 O 303.978 -1.34044 -5.29806 0
M  V30 3110 H 301.072 -0.168193 -0.809716 0
M  V30 3111 H 303.618 -1.03886 -1.34186 0
M  V30 3112 H 302.39 -2.1241 -3.2863 0
M  V30 3113 H 302.013 -0.538307 -3.93939 0
M  V30 3114 N 303.011 1.40521 -0.713556 0
M  V30 3115 C 304.427 1.54839 -0.386907 0
M  V30 3116 C 304.627 1.68532 1.1045 0
M  V30 3117 O 303.683 1.67377 1.89053 0
M  V30 3118 C 304.996 2.77792 -1.15118 0
M  V30 3119 C 306.544 2.91607 -1.13729 0
M  V30 3120 C 307.019 4.1747 -1.88368 0
M  V30 3121 N 308.51 4.24466 -1.85427 0
M  V30 3122 C 309.245 5.20755 -2.40004 0
M  V30 3123 N 308.741 6.22965 -3.03129 0
M  V30 3124 N 310.534 5.1282 -2.30158 0
M  V30 3125 H 302.685 1.29879 -1.68063 0
M  V30 3126 H 304.948 0.627896 -0.710247 0
M  V30 3127 H 304.654 2.73944 -2.20561 0
M  V30 3128 H 304.528 3.6984 -0.741477 0
M  V30 3129 H 306.915 2.94959 -0.0910608 0
M  V30 3130 H 306.996 2.00682 -1.5862 0
M  V30 3131 H 306.64 4.1488 -2.9298 0
M  V30 3132 H 306.57 5.074 -1.40898 0
M  V30 3133 H 309.061 3.51241 -1.3942 0
M  V30 3134 H 309.374 6.92859 -3.42295 0
M  V30 3135 H 307.719 6.23415 -3.07212 0
M  V30 3136 H 310.91 4.31899 -1.80501 0
M  V30 3137 H 311.083 5.87689 -2.72993 0
M  V30 3138 N 304.489 0.459591 1.5075 0
M  V30 3139 C 305.905 0.113092 1.59199 0
M  V30 3140 C 306.105 -1.37951 1.46874 0
M  V30 3141 O 305.161 -2.15168 1.32132 0
M  V30 3142 C 306.474 0.653043 2.93523 0
M  V30 3143 C 308.022 0.615449 3.0689 0
M  V30 3144 C 308.497 1.13275 4.43771 0
M  V30 3145 N 309.988 1.09167 4.50152 0
M  V30 3146 C 310.723 1.46256 5.54434 0
M  V30 3147 N 310.219 1.90739 6.66026 0
M  V30 3148 N 312.012 1.37932 5.44914 0
M  V30 3149 H 304.163 1.43049 1.57005 0
M  V30 3150 H 306.426 0.590861 0.741341 0
M  V30 3151 H 306.132 1.69822 3.07983 0
M  V30 3152 H 306.006 0.0902132 3.77092 0
M  V30 3153 H 308.393 -0.420793 2.92084 0
M  V30 3154 H 308.474 1.21495 2.25106 0
M  V30 3155 H 308.118 2.16757 4.59324 0
M  V30 3156 H 308.048 0.509576 5.24129 0
M  V30 3157 H 310.539 0.76528 3.7007 0
M  V30 3158 H 310.852 2.17218 7.41644 0
M  V30 3159 H 309.197 1.94683 6.67176 0
M  V30 3160 H 312.388 1.0303 4.56621 0
M  V30 3161 H 312.561 1.67164 6.26067 0
M  V30 3162 N 305.967 -1.56429 0.191757 0
M  V30 3163 C 307.192 -2.02309 -0.456706 0
M  V30 3164 C 307.617 -1.07103 -1.5463 0
M  V30 3165 O 306.975 -0.0539677 -1.8122 0
M  V30 3166 C 307.023 -3.46654 -0.993159 0
M  V30 3167 O 306.127 -3.54559 -2.10622 0
M  V30 3168 H 305.468 -0.655303 -0.107114 0
M  V30 3169 H 307.998 -2.02364 0.301653 0
M  V30 3170 H 308.008 -3.86377 -1.31061 0
M  V30 3171 H 306.683 -4.1544 -0.195504 0
M  V30 3172 H 305.26 -3.26708 -1.79767 0
M  V30 3173 N 307.445 0.0818655 -1.57387 0
M  V30 3174 C 308.856 0.634871 -1.75574 0
M  V30 3175 C 309.207 1.78435 -0.815809 0
M  V30 3176 O 308.332 2.164 0.0025366 0
M  V30 3177 C 308.927 1.15845 -3.18379 0
M  V30 3178 C 307.486 1.65741 -3.37945 0
M  V30 3179 C 306.633 0.572549 -2.71325 0
M  V30 3180 H 309.584 -0.144268 -1.58043 0
M  V30 3181 H 309.605 2.02751 -3.21982 0
M  V30 3182 H 309.117 0.321631 -3.86765 0
M  V30 3183 H 307.218 2.51781 -2.74658 0
M  V30 3184 H 307.331 1.74129 -4.46336 0
M  V30 3185 H 305.695 1.01518 -2.33594 0
M  V30 3186 H 306.478 -0.253918 -3.4236 0
M  V30 3187 N 308.923 1.53595 0.353017 0
M  V30 3188 C 310.169 1.70638 1.09593 0
M  V30 3189 C 310.502 0.463286 1.88593 0
M  V30 3190 O 309.777 -0.539597 1.86865 0
M  V30 3191 C 310.06 2.96406 2.04489 0
M  V30 3192 C 309.913 4.30901 1.29014 0
M  V30 3193 C 311.232 3.17812 3.0444 0
M  V30 3194 H 308.351 0.620913 0.397034 0
M  V30 3195 H 310.993 1.86254 0.375446 0
M  V30 3196 H 309.143 2.83223 2.65927 0
M  V30 3197 H 310.815 4.55917 0.702638 0
M  V30 3198 H 309.058 4.29741 0.592071 0
M  V30 3199 H 309.729 5.1506 1.98537 0
M  V30 3200 H 312.205 3.30263 2.53112 0
M  V30 3201 H 311.081 4.07223 3.6805 0
M  V30 3202 H 311.342 2.33669 3.75301 0
M  V30 3203 N 310.401 -0.613514 1.45168 0
M  V30 3204 C 311.65 -1.36874 1.4815 0
M  V30 3205 C 311.963 -1.952 0.124982 0
M  V30 3206 O 313.169 -2.71481 0.0324176 0
M  V30 3207 C 311.625 -2.47905 2.60904 0
M  V30 3208 C 311.233 -1.96016 4.02842 0
M  V30 3209 C 312.977 -3.24965 2.73126 0
M  V30 3210 C 310.884 -3.04494 5.06988 0
M  V30 3211 H 309.814 -0.514428 0.551253 0
M  V30 3212 H 312.465 -0.658182 1.7129 0
M  V30 3213 H 310.847 -3.21618 2.31037 0
M  V30 3214 H 312.021 -1.29051 4.4236 0
M  V30 3215 H 310.336 -1.31719 3.95018 0
M  V30 3216 H 312.933 -4.05865 3.48106 0
M  V30 3217 H 313.276 -3.75588 1.79553 0
M  V30 3218 H 313.809 -2.5835 3.0249 0
M  V30 3219 H 310.548 -2.58795 6.0225 0
M  V30 3220 H 310.068 -3.70044 4.72046 0
M  V30 3221 H 311.747 -3.68976 5.31475 0
M  V30 3222 N 311.879 -1.3236 -0.855495 0
M  V30 3223 C 312.789 -1.23221 -1.99634 0
M  V30 3224 C 313.805 -0.145983 -1.73387 0
M  V30 3225 O 314.981 -0.366502 -1.98037 0
M  V30 3226 C 312.046 -0.954782 -3.33294 0
M  V30 3227 C 311.107 -2.12937 -3.72769 0
M  V30 3228 C 310.34 -1.86508 -5.00051 0
M  V30 3229 O 310.563 -0.807231 -5.64659 0
M  V30 3230 O 309.497 -2.72591 -5.36636 0
M  V30 3231 H 313.323 -2.19126 -2.1028 0
M  V30 3232 H 310.908 -1.12241 -0.986018 0
M  V30 3233 H 312.79 -0.816519 -4.13414 0
M  V30 3234 H 311.465 -0.0258854 -3.2369 0
M  V30 3235 H 310.372 -2.3231 -2.93228 0
M  V30 3236 H 311.705 -3.04102 -3.87018 0
M  V30 3237 N 313.357 1.07166 -1.15556 0
M  V30 3238 C 314.604 1.79798 -0.931604 0
M  V30 3239 C 314.932 1.8682 0.54115 0
M  V30 3240 O 314.187 1.34942 1.41736 0
M  V30 3241 C 314.486 3.24707 -1.49332 0
M  V30 3242 C 314.152 3.37781 -2.98688 0
M  V30 3243 C 312.814 3.41057 -3.39461 0
M  V30 3244 C 315.166 3.40424 -3.94665 0
M  V30 3245 C 312.494 3.4458 -4.74849 0
M  V30 3246 C 314.846 3.45485 -5.29927 0
M  V30 3247 C 313.51 3.47039 -5.70193 0
M  V30 3248 H 312.78 0.657928 -0.340898 0
M  V30 3249 H 315.427 1.26091 -1.44129 0
M  V30 3250 H 313.732 3.81208 -0.904859 0
M  V30 3251 H 315.429 3.79486 -1.29582 0
M  V30 3252 H 312.019 3.35932 -2.66172 0
M  V30 3253 H 316.203 3.37113 -3.64237 0
M  V30 3254 H 311.459 3.44083 -5.05388 0
M  V30 3255 H 315.633 3.46476 -6.04092 0
M  V30 3256 H 313.26 3.49522 -6.75084 0
M  V30 3257 N 314.835 0.952656 1.25548 0
M  V30 3258 C 316.081 0.616826 1.93822 0
M  V30 3259 C 316.436 -0.836684 1.73255 0
M  V30 3260 O 315.729 -1.59218 1.06584 0
M  V30 3261 C 315.923 0.908818 3.45652 0
M  V30 3262 C 315.752 2.38916 3.80984 0
M  V30 3263 C 314.522 3.04637 4.03143 0
M  V30 3264 C 316.72 3.36838 3.88645 0
M  V30 3265 N 314.702 4.42565 4.25453 0
M  V30 3266 C 316.073 4.60065 4.1562 0
M  V30 3267 C 318.128 3.31704 3.71318 0
M  V30 3268 C 316.831 5.78795 4.2707 0
M  V30 3269 C 318.857 4.4977 3.84006 0
M  V30 3270 C 318.219 5.71783 4.11392 0
M  V30 3271 H 314.318 0.27629 0.731565 0
M  V30 3272 H 316.902 1.22443 1.5138 0
M  V30 3273 H 315.073 0.330166 3.86994 0
M  V30 3274 H 316.805 0.533093 4.01174 0
M  V30 3275 H 313.56 2.55215 3.98952 0
M  V30 3276 H 313.984 5.1399 4.40617 0
M  V30 3277 H 318.626 2.3842 3.49164 0
M  V30 3278 H 316.344 6.72521 4.48041 0
M  V30 3279 H 319.93 4.47342 3.71989 0
M  V30 3280 H 318.81 6.61617 4.2099 0
M  V30 3281 N 316.313 -1.40141 0.720998 0
M  V30 3282 C 317.223 -2.34486 0.0731031 0
M  V30 3283 C 318.239 -1.57587 -0.737723 0
M  V30 3284 O 319.415 -1.89949 -0.669429 0
M  V30 3285 C 316.48 -3.36528 -0.833656 0
M  V30 3286 C 315.541 -4.29298 -0.0121673 0
M  V30 3287 C 314.774 -5.26466 -0.875742 0
M  V30 3288 O 314.997 -5.29745 -2.11485 0
M  V30 3289 O 313.931 -6.01092 -0.31185 0
M  V30 3290 H 317.757 -2.9152 0.851444 0
M  V30 3291 H 315.342 -1.41427 0.481527 0
M  V30 3292 H 317.224 -3.99093 -1.35289 0
M  V30 3293 H 315.899 -2.81899 -1.59105 0
M  V30 3294 H 314.806 -3.70001 0.552262 0
M  V30 3295 H 316.139 -4.87094 0.707129 0
M  V30 3296 N 317.792 -0.46758 -1.50504 0
M  V30 3297 C 318.74 0.342482 -2.30065 0
M  V30 3298 C 319.734 0.993596 -1.37201 0
M  V30 3299 O 320.94 0.925102 -1.54408 0
M  V30 3300 H 317.315 0.129283 -0.740803 0
M  V30 3301 H 319.286 -0.34899 -2.96352 0
M  V30 3302 C 318.035 1.4139 -3.17654 0
M  V30 3303 H 317.358 0.922264 -3.89017 0
M  V30 3304 H 318.798 1.95335 -3.76325 0
M  V30 3305 C 317.257 2.4139 -2.35016 0
M  V30 3306 O 317.787 3.46586 -2.03079 0
M  V30 3307 N 315.993 2.13021 -1.97662 0
M  V30 3308 H 315.54 1.27499 -2.23834 0
M  V30 3309 H 315.498 2.80164 -1.42673 0
M  V30 3310 N 319.27 1.56325 -0.20005 0
M  V30 3311 C 320.217 2.1932 0.718833 0
M  V30 3312 C 321.187 1.14198 1.20615 0
M  V30 3313 O 322.372 1.42469 1.26914 0
M  V30 3314 C 319.512 2.86041 1.93066 0
M  V30 3315 C 318.625 4.05702 1.48425 0
M  V30 3316 C 317.76 4.60266 2.65196 0
M  V30 3317 C 316.799 5.72273 2.17185 0
M  V30 3318 N 315.936 6.21221 3.27152 0
M  V30 3319 H 320.776 2.97486 0.17489 0
M  V30 3320 H 318.313 1.46911 0.0745794 0
M  V30 3321 H 320.271 3.22897 2.64184 0
M  V30 3322 H 318.901 2.1043 2.44783 0
M  V30 3323 H 317.953 3.74475 0.668755 0
M  V30 3324 H 319.265 4.86699 1.09204 0
M  V30 3325 H 318.419 4.99453 3.4443 0
M  V30 3326 H 317.158 3.78386 3.07693 0
M  V30 3327 H 316.163 5.3261 1.36407 0
M  V30 3328 H 317.388 6.55974 1.75713 0
M  V30 3329 H 315.334 5.42263 3.69171 0
M  V30 3330 H 315.251 6.97284 2.92116 0
M  V30 3331 H 316.519 6.65063 4.06585 0
M  V30 3332 N 320.748 -0.0735177 1.57428 0
M  V30 3333 C 321.994 -0.774145 1.87443 0
M  V30 3334 C 322.327 -1.77311 0.792103 0
M  V30 3335 O 321.602 -1.93492 -0.197793 0
M  V30 3336 C 321.885 -1.48367 3.28115 0
M  V30 3337 C 321.738 -0.501227 4.46999 0
M  V30 3338 C 323.057 -2.429 3.66998 0
M  V30 3339 H 320.176 -0.279971 0.681752 0
M  V30 3340 H 322.818 -0.0373616 1.89963 0
M  V30 3341 H 320.968 -2.11171 3.26097 0
M  V30 3342 H 322.64 0.121468 4.6114 0
M  V30 3343 H 320.883 0.183593 4.33411 0
M  V30 3344 H 321.554 -1.03526 5.42205 0
M  V30 3345 H 324.03 -1.90175 3.70098 0
M  V30 3346 H 322.906 -2.89549 4.66318 0
M  V30 3347 H 323.167 -3.27628 2.96837 0
M  V30 3348 N 322.226 -1.5378 -0.344866 0
M  V30 3349 C 323.156 -1.84662 -1.42906 0
M  V30 3350 C 324.137 -0.701648 -1.54955 0
M  V30 3351 O 325.322 -0.953438 -1.69184 0
M  V30 3352 C 322.452 -2.05503 -2.79974 0
M  V30 3353 C 321.406 -3.21318 -2.82734 0
M  V30 3354 C 320.732 -3.2749 -4.22675 0
M  V30 3355 C 322.032 -4.59456 -2.48389 0
M  V30 3356 H 323.726 -2.75461 -1.17311 0
M  V30 3357 H 321.272 -1.32542 -0.562896 0
M  V30 3358 H 323.225 -2.25691 -3.55867 0
M  V30 3359 H 321.949 -1.11434 -3.07002 0
M  V30 3360 H 320.608 -3.00984 -2.09294 0
M  V30 3361 H 320.256 -2.31019 -4.4681 0
M  V30 3362 H 319.956 -4.05316 -4.25433 0
M  V30 3363 H 321.48 -3.49887 -5.00412 0
M  V30 3364 H 322.894 -4.79667 -3.13995 0
M  V30 3365 H 321.291 -5.39675 -2.62432 0
M  V30 3366 H 322.361 -4.63155 -1.4358 0
M  V30 3367 N 323.704 0.605807 -1.45491 0
M  V30 3368 C 325.12 0.926751 -1.29936 0
M  V30 3369 C 325.32 1.99896 -0.253706 0
M  V30 3370 O 324.376 2.50038 0.351737 0
M  V30 3371 C 325.689 1.36599 -2.67883 0
M  V30 3372 C 327.237 1.4801 -2.75793 0
M  V30 3373 C 327.712 1.95309 -4.14268 0
M  V30 3374 N 329.203 2.0254 -4.16571 0
M  V30 3375 C 329.938 2.40363 -5.20589 0
M  V30 3376 N 329.434 2.77143 -6.34952 0
M  V30 3377 N 331.227 2.40718 -5.07948 0
M  V30 3378 H 323.378 -0.102862 -2.12151 0
M  V30 3379 H 325.641 0.016639 -0.947854 0
M  V30 3380 H 325.347 0.652306 -3.45598 0
M  V30 3381 H 325.221 2.33215 -2.96463 0
M  V30 3382 H 327.608 2.1847 -1.98381 0
M  V30 3383 H 327.689 0.497041 -2.50925 0
M  V30 3384 H 327.333 1.25436 -4.92167 0
M  V30 3385 H 327.263 2.94532 -4.3653 0
M  V30 3386 H 329.754 1.76699 -3.34045 0
M  V30 3387 H 330.067 3.0489 -7.10114 0
M  V30 3388 H 328.412 2.74834 -6.3835 0
M  V30 3389 H 331.603 2.11392 -4.1765 0
M  V30 3390 H 331.776 2.69869 -5.89131 0
M  V30 3391 N 325.182 1.32811 0.848464 0
M  V30 3392 C 326.112 1.24882 1.97299 0
M  V30 3393 C 327.093 0.131357 1.69592 0
M  V30 3394 O 328.278 0.319553 1.91553 0
M  V30 3395 C 325.408 0.97746 3.33261 0
M  V30 3396 C 324.362 2.05682 3.75338 0
M  V30 3397 C 323.688 1.63777 5.09 0
M  V30 3398 C 324.988 3.47254 3.90144 0
M  V30 3399 H 326.682 2.18966 2.04191 0
M  V30 3400 H 324.228 1.05413 0.981029 0
M  V30 3401 H 326.181 0.908513 4.1149 0
M  V30 3402 H 324.905 0.000980011 3.266 0
M  V30 3403 H 323.564 2.11603 2.99366 0
M  V30 3404 H 323.212 0.648569 4.98801 0
M  V30 3405 H 322.912 2.36 5.38124 0
M  V30 3406 H 324.436 1.5833 5.89715 0
M  V30 3407 H 325.85 3.43888 4.58709 0
M  V30 3408 H 324.247 4.1788 4.30693 0
M  V30 3409 H 325.317 3.86462 2.92874 0
M  V30 3410 N 326.66 -1.06551 1.16123 0
M  V30 3411 C 327.885 -1.83544 0.965735 0
M  V30 3412 C 328.31 -1.81843 -0.481102 0
M  V30 3413 O 327.668 -1.21732 -1.34354 0
M  V30 3414 C 327.716 -3.28169 1.49457 0
M  V30 3415 O 326.82 -4.0643 0.699157 0
M  V30 3416 H 326.161 -0.568026 0.343864 0
M  V30 3417 H 328.691 -1.34362 1.54299 0
M  V30 3418 H 328.701 -3.78992 1.51092 0
M  V30 3419 H 327.376 -3.28722 2.54784 0
M  V30 3420 H 325.953 -3.65216 0.7531 0
M  V30 3421 N 328.138 -0.959301 -1.25041 0
M  V30 3422 C 329.386 -0.615393 -1.92503 0
M  V30 3423 C 329.707 0.850969 -1.75452 0
M  V30 3424 O 328.977 1.60658 -1.12098 0
M  V30 3425 H 327.557 -0.224613 -0.712431 0
M  V30 3426 H 330.219 -1.21855 -1.5211 0
M  V30 3427 H 329.315 -0.848738 -3.00338 0
M  V30 3428 N 329.616 1.39756 -0.72842 0
M  V30 3429 C 330.864 2.00248 -0.272946 0
M  V30 3430 C 331.185 1.58077 1.14178 0
M  V30 3431 O 330.455 0.826014 1.77634 0
M  V30 3432 H 329.035 0.740554 -0.0979247 0
M  V30 3433 H 331.697 1.70903 -0.936912 0
M  V30 3434 H 330.793 3.10495 -0.316142 0
M  V30 3435 N 331.094 0.475555 1.50254 0
M  V30 3436 C 332.024 -0.30611 2.31485 0
M  V30 3437 C 333.005 -0.986228 1.38591 0
M  V30 3438 O 334.19 -0.982541 1.67511 0
M  V30 3439 C 331.32 -1.38588 3.1845 0
M  V30 3440 C 330.274 -0.827115 4.19932 0
M  V30 3441 C 329.6 -2.00551 4.95665 0
M  V30 3442 C 330.9 0.16463 5.2204 0
M  V30 3443 H 332.594 0.371866 2.97082 0
M  V30 3444 H 330.14 0.180282 1.42867 0
M  V30 3445 H 332.093 -1.94023 3.74076 0
M  V30 3446 H 330.817 -2.09269 2.50747 0
M  V30 3447 H 329.476 -0.294702 3.65414 0
M  V30 3448 H 329.124 -2.6994 4.2443 0
M  V30 3449 H 328.824 -1.63784 5.64313 0
M  V30 3450 H 330.348 -2.56468 5.54127 0
M  V30 3451 H 331.762 -0.300699 5.72511 0
M  V30 3452 H 330.159 0.446813 5.98434 0
M  V30 3453 H 331.229 1.08905 4.72512 0
M  V30 3454 N 332.573 -1.56217 0.208337 0
M  V30 3455 C 333.483 -2.23316 -0.718836 0
M  V30 3456 C 334.499 -1.23648 -1.22422 0
M  V30 3457 O 335.675 -1.56423 -1.26861 0
M  V30 3458 C 332.74 -2.88968 -1.91568 0
M  V30 3459 C 331.801 -4.03943 -1.45357 0
M  V30 3460 C 331.034 -4.66455 -2.59337 0
M  V30 3461 O 331.257 -4.27919 -3.77149 0
M  V30 3462 O 330.191 -5.55686 -2.31293 0
M  V30 3463 H 334.017 -3.03182 -0.177315 0
M  V30 3464 H 331.602 -1.49384 -0.0215402 0
M  V30 3465 H 333.484 -3.30455 -2.61491 0
M  V30 3466 H 332.159 -2.12071 -2.44556 0
M  V30 3467 H 331.066 -3.67052 -0.722746 0
M  V30 3468 H 332.399 -4.82543 -0.970219 0
M  V30 3469 N 334.051 0.0651679 -1.57465 0
M  V30 3470 C 335.297 0.764193 -1.87851 0
M  V30 3471 C 335.63 1.76889 -0.801495 0
M  V30 3472 O 334.905 1.93594 0.187528 0
M  V30 3473 C 335.188 1.46625 -3.28897 0
M  V30 3474 C 335.041 0.477515 -4.47258 0
M  V30 3475 C 336.36 2.4095 -3.68281 0
M  V30 3476 H 333.479 0.276351 -0.683227 0
M  V30 3477 H 336.121 0.0272868 -1.8998 0
M  V30 3478 H 334.271 2.09438 -3.27212 0
M  V30 3479 H 335.943 -0.145922 -4.61069 0
M  V30 3480 H 334.186 -0.206576 -4.33308 0
M  V30 3481 H 334.857 1.0065 -5.42746 0
M  V30 3482 H 337.333 1.88209 -3.71102 0
M  V30 3483 H 336.209 2.87072 -4.67847 0
M  V30 3484 H 336.47 3.26049 -2.98571 0
M  V30 3485 N 335.529 1.53961 0.336706 0
M  V30 3486 C 336.94 1.62914 0.911925 0
M  V30 3487 C 337.291 0.514795 1.89326 0
M  V30 3488 O 336.416 -0.354395 2.13478 0
M  V30 3489 C 337.011 2.95304 1.66076 0
M  V30 3490 C 335.57 3.06496 2.18489 0
M  V30 3491 C 334.717 2.58403 1.00613 0
M  V30 3492 H 337.668 1.58285 0.114649 0
M  V30 3493 H 337.689 2.84727 2.5241 0
M  V30 3494 H 337.201 3.76387 0.946276 0
M  V30 3495 H 335.302 2.3006 2.93092 0
M  V30 3496 H 335.415 4.1208 2.44391 0
M  V30 3497 H 333.779 2.13977 1.38152 0
M  V30 3498 H 334.562 3.41932 0.306179 0
M  V30 3499 N 337.007 -0.598083 1.45811 0
M  V30 3500 C 338.255 -1.35413 1.50026 0
M  V30 3501 C 338.576 -1.94444 0.147177 0
M  V30 3502 O 337.846 -1.77701 -0.824571 0
M  V30 3503 H 336.426 -0.502727 0.552517 0
M  V30 3504 H 339.088 -0.701606 1.81834 0
M  V30 3505 H 338.184 -2.16871 2.2444 0
M  V30 3506 N 338.485 -1.33259 -0.841409 0
M  V30 3507 C 339.448 -1.23221 -1.9326 0
M  V30 3508 C 340.448 -0.151895 -1.60081 0
M  V30 3509 O 341.638 -0.403246 -1.69468 0
M  V30 3510 C 338.77 -0.898123 -3.28856 0
M  V30 3511 H 339.963 -2.2021 -2.03587 0
M  V30 3512 H 337.516 -1.17281 -1.03319 0
M  V30 3513 H 338.251 0.0693841 -3.24226 0
M  V30 3514 H 338.036 -1.67934 -3.54317 0
M  V30 3515 H 339.526 -0.852563 -4.08805 0
M  V30 3516 N 339.963 1.05934 -1.16686 0
M  V30 3517 C 340.893 2.1546 -0.899949 0
M  V30 3518 C 341.874 1.69391 0.155154 0
M  V30 3519 O 343.059 1.94199 0.00648693 0
M  V30 3520 C 340.189 3.44939 -0.404241 0
M  V30 3521 C 339.143 4.04536 -1.39767 0
M  V30 3522 C 338.469 5.29268 -0.760216 0
M  V30 3523 C 339.769 4.42893 -2.76845 0
M  V30 3524 H 341.463 2.38046 -1.81588 0
M  V30 3525 H 339.009 1.14404 -0.874514 0
M  V30 3526 H 340.962 4.20901 -0.204971 0
M  V30 3527 H 339.686 3.21983 0.547206 0
M  V30 3528 H 338.345 3.30635 -1.58355 0
M  V30 3529 H 337.993 5.02611 0.197831 0
M  V30 3530 H 337.693 5.70101 -1.42332 0
M  V30 3531 H 339.217 6.07924 -0.57105 0
M  V30 3532 H 340.631 5.09921 -2.62019 0
M  V30 3533 H 339.028 4.94721 -3.39663 0
M  V30 3534 H 340.098 3.53584 -3.31823 0
M  V30 3535 N 341.441 0.965919 1.2453 0
M  V30 3536 C 342.389 0.486506 2.27455 0
M  V30 3537 C 343.383 -0.449041 1.6334 0
M  V30 3538 O 344.589 -0.324527 1.7705 0
M  V30 3539 H 340.964 0.138857 0.739069 0
M  V30 3540 H 342.935 1.3666 2.65267 0
M  V30 3541 C 341.684 -0.209481 3.47068 0
M  V30 3542 H 341.007 0.50129 3.96645 0
M  V30 3543 H 342.447 -0.508775 4.20936 0
M  V30 3544 C 340.906 -1.43586 3.0477 0
M  V30 3545 O 341.436 -2.53299 3.11773 0
M  V30 3546 N 339.642 -1.30126 2.59838 0
M  V30 3547 H 339.189 -0.408583 2.54339 0
M  V30 3548 H 339.147 -2.12294 2.31902 0
M  V30 3549 N 342.919 -1.39368 0.735821 0
M  V30 3550 C 344.165 -2.01272 0.293439 0
M  V30 3551 C 344.52 -1.57344 -1.10728 0
M  V30 3552 O 343.813 -0.792744 -1.74431 0
M  V30 3553 C 344.007 -3.5583 0.334651 0
M  V30 3554 C 343.836 -4.14764 1.73784 0
M  V30 3555 C 342.606 -4.47315 2.35026 0
M  V30 3556 C 344.804 -4.38246 2.69157 0
M  V30 3557 N 342.786 -4.91756 3.6749 0
M  V30 3558 C 344.157 -4.849 3.86357 0
M  V30 3559 C 346.212 -4.20315 2.66908 0
M  V30 3560 C 344.915 -5.15505 5.01645 0
M  V30 3561 C 346.941 -4.52033 3.8134 0
M  V30 3562 C 346.303 -4.98895 4.97276 0
M  V30 3563 H 342.402 -0.766756 0.153652 0
M  V30 3564 H 344.986 -1.69276 0.961967 0
M  V30 3565 H 343.157 -3.87212 -0.303527 0
M  V30 3566 H 344.889 -4.04503 -0.126358 0
M  V30 3567 H 341.644 -4.35143 1.86943 0
M  V30 3568 H 342.068 -5.18333 4.35499 0
M  V30 3569 H 346.71 -3.83287 1.78468 0
M  V30 3570 H 344.428 -5.51437 5.90713 0
M  V30 3571 H 348.014 -4.39781 3.80899 0
M  V30 3572 H 346.894 -5.22973 5.84353 0
M  V30 3573 N 344.397 -0.483516 -1.5 0
M  V30 3574 C 345.307 0.309172 -2.32554 0
M  V30 3575 C 346.323 0.984159 -1.43493 0
M  V30 3576 O 347.499 0.969399 -1.76535 0
M  V30 3577 C 344.564 1.36979 -3.18493 0
M  V30 3578 C 343.625 0.710095 -4.23387 0
M  V30 3579 C 342.858 1.72018 -5.05218 0
M  V30 3580 O 343.081 2.94813 -4.88305 0
M  V30 3581 O 342.015 1.28515 -5.8802 0
M  V30 3582 H 345.841 -0.366064 -3.01486 0
M  V30 3583 H 343.426 -0.24514 -1.47375 0
M  V30 3584 H 345.308 1.98385 -3.71781 0
M  V30 3585 H 343.983 2.02828 -2.52275 0
M  V30 3586 H 342.89 0.0567539 -3.74057 0
M  V30 3587 H 344.223 0.0943557 -4.9211 0
M  V30 3588 N 345.875 1.56104 -0.216619 0
M  V30 3589 C 347.121 1.98466 0.417033 0
M  V30 3590 C 347.454 1.10403 1.59765 0
M  V30 3591 O 346.729 0.160632 1.93836 0
M  V30 3592 C 347.012 3.49769 0.85637 0
M  V30 3593 C 346.865 4.48606 -0.327546 0
M  V30 3594 C 348.184 4.05339 1.7143 0
M  V30 3595 H 345.303 0.721551 0.150112 0
M  V30 3596 H 347.945 1.87423 -0.311864 0
M  V30 3597 H 346.095 3.5931 1.47745 0
M  V30 3598 H 347.767 4.5108 -0.965618 0
M  V30 3599 H 346.01 4.22682 -0.975805 0
M  V30 3600 H 346.681 5.51995 0.0227149 0
M  V30 3601 H 349.157 3.98712 1.19031 0
M  V30 3602 H 348.033 5.11533 1.99061 0
M  V30 3603 H 348.294 3.51918 2.67593 0
M  V30 3604 N 347.353 -0.0568162 1.57498 0
M  V30 3605 C 348.581 -0.765626 1.92213 0
M  V30 3606 C 348.996 -1.70353 0.813961 0
M  V30 3607 O 348.353 -1.81268 -0.211701 0
M  V30 3608 C 348.404 -1.5465 3.2675 0
M  V30 3609 O 348.125 -0.646278 4.33307 0
M  V30 3610 C 349.626 -2.35497 3.75574 0
M  V30 3611 H 346.846 -0.216835 0.634999 0
M  V30 3612 H 349.39 -0.0226146 2.04487 0
M  V30 3613 H 347.545 -2.24165 3.15957 0
M  V30 3614 H 347.959 -1.19093 5.108 0
M  V30 3615 H 349.433 -2.85722 4.72299 0
M  V30 3616 H 349.91 -3.15692 3.05344 0
M  V30 3617 H 350.516 -1.7111 3.8936 0
M  V30 3618 N 348.832 -1.54138 -0.328536 0
M  V30 3619 C 349.762 -1.86167 -1.40939 0
M  V30 3620 C 350.743 -0.718044 -1.54202 0
M  V30 3621 O 351.928 -0.971328 -1.68163 0
M  V30 3622 C 349.058 -2.08461 -2.77779 0
M  V30 3623 C 348.012 -3.24299 -2.7931 0
M  V30 3624 C 347.338 -3.31955 -4.19178 0
M  V30 3625 C 348.638 -4.62065 -2.43502 0
M  V30 3626 H 350.332 -2.76689 -1.14383 0
M  V30 3627 H 347.878 -1.33132 -0.548806 0
M  V30 3628 H 349.831 -2.29453 -3.53454 0
M  V30 3629 H 348.555 -1.14684 -3.05802 0
M  V30 3630 H 347.214 -3.03187 -2.0609 0
M  V30 3631 H 346.862 -2.35745 -4.44335 0
M  V30 3632 H 346.562 -4.09805 -4.2111 0
M  V30 3633 H 348.086 -3.55175 -4.96672 0
M  V30 3634 H 349.5 -4.8297 -3.08889 0
M  V30 3635 H 347.897 -5.42429 -2.56693 0
M  V30 3636 H 348.967 -4.64652 -1.38659 0
M  V30 3637 N 350.31 0.590341 -1.46126 0
M  V30 3638 C 351.55 1.35995 -1.52593 0
M  V30 3639 C 351.914 1.91243 -0.170368 0
M  V30 3640 O 353.115 2.68576 -0.109775 0
M  V30 3641 C 351.386 2.46465 -2.58823 0
M  V30 3642 S 352.945 3.33953 -2.84641 0
M  V30 3643 H 349.763 0.463425 -0.53922 0
M  V30 3644 H 352.365 0.67944 -1.83314 0
M  V30 3645 H 351.069 2.04256 -3.5596 0
M  V30 3646 H 350.6 3.19297 -2.2981 0
M  V30 3647 H 352.615 4.45094 -2.19331 0
M  V30 3648 N 351.788 1.33704 0.83433 0
M  V30 3649 C 352.718 1.26967 1.95963 0
M  V30 3650 C 353.699 0.149337 1.69443 0
M  V30 3651 O 354.884 0.339852 1.91203 0
M  V30 3652 C 352.014 1.01275 3.32206 0
M  V30 3653 C 350.968 2.09652 3.73136 0
M  V30 3654 C 350.294 1.69166 5.07235 0
M  V30 3655 C 351.594 3.51372 3.86439 0
M  V30 3656 H 353.288 2.2112 2.01857 0
M  V30 3657 H 350.834 1.06447 0.969793 0
M  V30 3658 H 352.787 0.952106 4.10503 0
M  V30 3659 H 351.511 0.0356203 3.26581 0
M  V30 3660 H 350.17 2.14766 2.97104 0
M  V30 3661 H 349.818 0.701437 4.98085 0
M  V30 3662 H 349.518 2.41694 5.35591 0
M  V30 3663 H 351.042 1.64576 5.88003 0
M  V30 3664 H 352.456 3.48734 4.55036 0
M  V30 3665 H 350.853 4.22425 4.26236 0
M  V30 3666 H 351.923 3.89546 2.88759 0
M  V30 3667 N 353.266 -1.05314 1.17247 0
M  V30 3668 C 354.196 -2.1498 0.911362 0
M  V30 3669 C 355.177 -1.69471 -0.146169 0
M  V30 3670 O 356.362 -1.942 0.003812 0
M  V30 3671 C 353.492 -3.4472 0.422528 0
M  V30 3672 C 352.446 -4.03789 1.4191 0
M  V30 3673 C 351.772 -5.28858 0.788274 0
M  V30 3674 C 353.072 -4.41418 2.7919 0
M  V30 3675 H 354.766 -2.3708 1.82848 0
M  V30 3676 H 352.312 -1.13938 0.880569 0
M  V30 3677 H 354.265 -4.20787 0.227289 0
M  V30 3678 H 352.989 -3.22269 -0.530123 0
M  V30 3679 H 351.648 -3.2979 1.60106 0
M  V30 3680 H 351.296 -5.02709 -0.171173 0
M  V30 3681 H 350.996 -5.69338 1.45353 0
M  V30 3682 H 352.52 -6.07612 0.603282 0
M  V30 3683 H 353.934 -5.08524 2.64719 0
M  V30 3684 H 352.331 -4.92913 3.42282 0
M  V30 3685 H 353.401 -3.51819 3.33693 0
M  V30 3686 N 354.744 -0.972509 -1.24016 0
M  V30 3687 C 355.707 -0.511403 -2.23422 0
M  V30 3688 C 356.707 0.394679 -1.55881 0
M  V30 3689 O 357.897 0.189469 -1.73167 0
M  V30 3690 C 355.029 0.258769 -3.39916 0
M  V30 3691 H 356.222 -1.39024 -2.6573 0
M  V30 3692 H 353.775 -0.757585 -1.36713 0
M  V30 3693 H 354.51 1.1545 -3.03054 0
M  V30 3694 H 354.295 -0.391522 -3.9014 0
M  V30 3695 H 355.785 0.570244 -4.13688 0
M  V30 3696 N 356.222 1.38976 -0.743202 0
M  V30 3697 C 357.462 2.02193 -0.29954 0
M  V30 3698 C 357.826 1.5771 1.09506 0
M  V30 3699 O 359.027 2.13184 1.63726 0
M  V30 3700 C 357.298 3.55077 -0.406822 0
M  V30 3701 S 358.857 4.38778 -0.0442109 0
M  V30 3702 H 355.675 0.701335 -0.116836 0
M  V30 3703 H 358.277 1.69651 -0.971529 0
M  V30 3704 H 356.981 3.84942 -1.42295 0
M  V30 3705 H 356.512 3.92383 0.282707 0
M  V30 3706 H 358.527 4.82222 1.16947 0
M  V30 3707 N 357.7 0.491464 1.49741 0
M  V30 3708 C 358.946 -0.0485431 2.03342 0
M  V30 3709 C 359.301 -1.35566 1.36527 0
M  V30 3710 O 358.594 -1.85262 0.488729 0
M  V30 3711 C 358.788 -0.267329 3.56399 0
M  V30 3712 C 358.617 1.01703 4.38049 0
M  V30 3713 C 357.387 1.56614 4.80417 0
M  V30 3714 C 359.585 1.91782 4.77204 0
M  V30 3715 N 357.567 2.7974 5.4646 0
M  V30 3716 C 358.938 2.99489 5.42868 0
M  V30 3717 C 360.993 1.92575 4.5915 0
M  V30 3718 C 359.696 4.08005 5.92389 0
M  V30 3719 C 361.722 3.0006 5.09626 0
M  V30 3720 C 361.084 4.06485 5.75282 0
M  V30 3721 H 357.183 0.0227779 0.781668 0
M  V30 3722 H 359.767 0.664204 1.8302 0
M  V30 3723 H 357.938 -0.949126 3.76625 0
M  V30 3724 H 359.67 -0.803492 3.96644 0
M  V30 3725 H 356.425 1.11256 4.60347 0
M  V30 3726 H 356.849 3.42323 5.84075 0
M  V30 3727 H 361.491 1.11605 4.07804 0
M  V30 3728 H 359.209 4.89779 6.42761 0
M  V30 3729 H 362.795 3.01681 4.97473 0
M  V30 3730 H 361.675 4.88287 6.13633 0
M  V30 3731 N 359.178 -1.55987 0.224894 0
M  V30 3732 C 360.424 -1.98684 -0.406502 0
M  V30 3733 C 360.757 -1.11248 -1.59177 0
M  V30 3734 O 360.032 -0.170909 -1.93748 0
M  V30 3735 C 360.315 -3.50218 -0.837808 0
M  V30 3736 C 360.168 -4.48426 0.351332 0
M  V30 3737 C 361.487 -4.06243 -1.69278 0
M  V30 3738 H 358.606 -0.722337 -0.146283 0
M  V30 3739 H 361.248 -1.87255 0.321799 0
M  V30 3740 H 359.398 -3.60089 -1.45837 0
M  V30 3741 H 361.07 -4.50562 0.989526 0
M  V30 3742 H 359.313 -4.22159 0.998207 0
M  V30 3743 H 359.984 -5.52 0.00655905 0
M  V30 3744 H 362.46 -3.99337 -1.16914 0
M  V30 3745 H 361.336 -5.12581 -1.96346 0
M  V30 3746 H 361.597 -3.53332 -2.65723 0
M  V30 3747 N 360.656 0.0484629 -1.57525 0
M  V30 3748 C 361.586 1.0549 -2.08313 0
M  V30 3749 C 362.567 1.38929 -0.981463 0
M  V30 3750 O 363.752 1.48151 -1.25558 0
M  V30 3751 C 360.882 2.36162 -2.54646 0
M  V30 3752 C 359.836 2.17016 -3.68901 0
M  V30 3753 C 359.162 3.53278 -4.01371 0
M  V30 3754 C 360.462 1.57219 -4.98076 0
M  V30 3755 H 362.156 0.632195 -2.92649 0
M  V30 3756 H 359.702 0.302654 -1.40784 0
M  V30 3757 H 361.655 3.06882 -2.88793 0
M  V30 3758 H 360.379 2.80456 -1.67368 0
M  V30 3759 H 359.038 1.48733 -3.35073 0
M  V30 3760 H 358.686 3.95185 -3.11188 0
M  V30 3761 H 358.386 3.41299 -4.78318 0
M  V30 3762 H 359.91 4.25391 -4.38035 0
M  V30 3763 H 361.324 2.17832 -5.30304 0
M  V30 3764 H 359.721 1.55871 -5.79503 0
M  V30 3765 H 360.791 0.535956 -4.81929 0
M  V30 3766 N 362.134 1.5431 0.320358 0
M  V30 3767 C 363.38 1.72924 1.05949 0
M  V30 3768 C 363.713 0.503185 1.87568 0
M  V30 3769 O 362.988 -0.499839 1.87968 0
M  V30 3770 C 363.271 3.00676 1.98156 0
M  V30 3771 C 363.124 4.3354 1.19845 0
M  V30 3772 C 364.443 3.24198 2.9763 0
M  V30 3773 H 361.562 0.629195 0.383774 0
M  V30 3774 H 364.204 1.87008 0.335854 0
M  V30 3775 H 362.354 2.888 2.59859 0
M  V30 3776 H 364.026 4.57305 0.605773 0
M  V30 3777 H 362.269 4.309 0.500784 0
M  V30 3778 H 362.94 5.19156 1.87567 0
M  V30 3779 H 365.416 3.35557 2.4605 0
M  V30 3780 H 364.292 4.14938 3.59329 0
M  V30 3781 H 364.553 2.41577 3.7026 0
M  V30 3782 N 363.613 -0.582584 1.46437 0
M  V30 3783 C 364.843 -1.36484 1.55099 0
M  V30 3784 C 365.251 -1.88233 0.191056 0
M  V30 3785 O 364.594 -1.6429 -0.821858 0
M  V30 3786 C 364.656 -2.588 2.49525 0
M  V30 3787 C 364.32 -2.28517 3.95764 0
M  V30 3788 C 365.317 -1.87346 4.84972 0
M  V30 3789 C 363.002 -2.40658 4.40896 0
M  V30 3790 C 364.996 -1.5871 6.17325 0
M  V30 3791 C 362.683 -2.11635 5.73284 0
M  V30 3792 C 363.681 -1.70725 6.61318 0
M  V30 3793 O 363.369 -1.42057 7.91249 0
M  V30 3794 H 363.101 -0.423297 0.527063 0
M  V30 3795 H 365.655 -0.715188 1.92547 0
M  V30 3796 H 363.885 -3.26571 2.07095 0
M  V30 3797 H 365.574 -3.20868 2.48593 0
M  V30 3798 H 366.34 -1.77481 4.5136 0
M  V30 3799 H 362.219 -2.71463 3.72598 0
M  V30 3800 H 365.763 -1.26704 6.85997 0
M  V30 3801 H 361.66 -2.21124 6.06444 0
M  V30 3802 H 362.428 -1.55901 8.03515 0
M  V30 3803 N 365.091 -1.34144 -0.827227 0
M  V30 3804 C 366.338 -1.26258 -1.58319 0
M  V30 3805 C 366.666 0.168595 -1.93768 0
M  V30 3806 O 365.921 1.12877 -1.59866 0
M  V30 3807 C 366.22 -2.09464 -2.89585 0
M  V30 3808 C 365.886 -3.58521 -2.73448 0
M  V30 3809 C 364.548 -3.99155 -2.68754 0
M  V30 3810 C 366.9 -4.53189 -2.57428 0
M  V30 3811 C 364.228 -5.32656 -2.45957 0
M  V30 3812 C 366.58 -5.86864 -2.36163 0
M  V30 3813 C 365.244 -6.26667 -2.29879 0
M  V30 3814 H 364.514 -0.462013 -0.579332 0
M  V30 3815 H 367.161 -1.65845 -0.95748 0
M  V30 3816 H 365.466 -1.62692 -3.56425 0
M  V30 3817 H 367.163 -2.00712 -3.47154 0
M  V30 3818 H 363.753 -3.26264 -2.77939 0
M  V30 3819 H 367.937 -4.22696 -2.60081 0
M  V30 3820 H 363.193 -5.62519 -2.39546 0
M  V30 3821 H 367.367 -6.59813 -2.22754 0
M  V30 3822 H 364.994 -7.30049 -2.11975 0
M  V30 3823 N 366.569 1.04691 -1.17803 0
M  V30 3824 C 367.809 1.79352 -0.980423 0
M  V30 3825 C 368.173 1.85853 0.481958 0
M  V30 3826 O 369.374 2.56656 0.798809 0
M  V30 3827 C 367.645 3.19088 -1.6099 0
M  V30 3828 S 369.204 4.10164 -1.55918 0
M  V30 3829 H 366.022 0.617631 -0.352211 0
M  V30 3830 H 368.624 1.25575 -1.49837 0
M  V30 3831 H 367.328 3.11962 -2.66661 0
M  V30 3832 H 366.859 3.77941 -1.09197 0
M  V30 3833 H 368.874 4.92907 -0.570685 0
M  V30 3834 N 368.047 0.979072 1.23499 0
M  V30 3835 C 369.293 0.648178 1.92163 0
M  V30 3836 C 369.626 -0.816049 1.76222 0
M  V30 3837 O 368.901 -1.58849 1.12237 0
M  V30 3838 C 369.184 1.03773 3.44824 0
M  V30 3839 C 369.037 2.55948 3.69879 0
M  V30 3840 C 370.356 0.580653 4.36253 0
M  V30 3841 H 367.475 0.236952 0.69787 0
M  V30 3842 H 370.117 1.22012 1.45647 0
M  V30 3843 H 368.267 0.551058 3.84572 0
M  V30 3844 H 369.939 3.12179 3.3962 0
M  V30 3845 H 368.182 2.98641 3.14636 0
M  V30 3846 H 368.853 2.78255 4.76737 0
M  V30 3847 H 371.329 0.998465 4.03943 0
M  V30 3848 H 370.205 0.881663 5.41773 0
M  V30 3849 H 370.466 -0.519052 4.39042 0
M  V30 3850 N 369.525 -1.3858 0.750561 0
M  V30 3851 C 370.771 -2.0095 0.31477 0
M  V30 3852 C 371.126 -1.58509 -1.09053 0
M  V30 3853 O 370.419 -0.8112 -1.7358 0
M  V30 3854 C 370.613 -3.55455 0.372373 0
M  V30 3855 C 370.442 -4.12898 1.78173 0
M  V30 3856 C 369.212 -4.44797 2.39757 0
M  V30 3857 C 371.41 -4.35366 2.7379 0
M  V30 3858 N 369.392 -4.87831 3.72685 0
M  V30 3859 C 370.763 -4.80775 3.91478 0
M  V30 3860 C 372.818 -4.1746 2.71351 0
M  V30 3861 C 371.521 -5.10155 5.07084 0
M  V30 3862 C 373.547 -4.47963 3.86113 0
M  V30 3863 C 372.909 -4.93593 5.02539 0
M  V30 3864 H 369.008 -0.765083 0.161776 0
M  V30 3865 H 371.592 -1.68246 0.979867 0
M  V30 3866 H 369.763 -3.87512 -0.26244 0
M  V30 3867 H 371.495 -4.04614 -0.0834479 0
M  V30 3868 H 368.25 -4.33135 1.91548 0
M  V30 3869 H 368.674 -5.13685 4.40972 0
M  V30 3870 H 373.316 -3.81372 1.82524 0
M  V30 3871 H 371.034 -5.45141 5.96529 0
M  V30 3872 H 374.62 -4.35717 3.85542 0
M  V30 3873 H 373.5 -5.16746 5.89867 0
M  V30 3874 N 371.003 -0.499398 -1.49478 0
M  V30 3875 C 371.95 0.279881 -2.29097 0
M  V30 3876 C 372.92 0.961805 -1.3542 0
M  V30 3877 O 374.105 0.968777 -1.64376 0
M  V30 3878 C 371.245 1.33932 -3.18051 0
M  V30 3879 C 370.358 0.669333 -4.26783 0
M  V30 3880 C 369.493 1.70907 -5.02955 0
M  V30 3881 C 368.532 1.02087 -6.03527 0
M  V30 3882 N 367.669 2.00474 -6.7287 0
M  V30 3883 H 372.509 -0.405317 -2.95231 0
M  V30 3884 H 370.046 -0.211726 -1.45568 0
M  V30 3885 H 372.004 1.96553 -3.67998 0
M  V30 3886 H 370.634 1.9933 -2.53904 0
M  V30 3887 H 369.686 -0.0701234 -3.80335 0
M  V30 3888 H 370.998 0.127503 -4.98637 0
M  V30 3889 H 370.152 2.41037 -5.56764 0
M  V30 3890 H 368.891 2.28476 -4.30871 0
M  V30 3891 H 367.896 0.305338 -5.48951 0
M  V30 3892 H 369.121 0.451708 -6.77596 0
M  V30 3893 H 367.067 2.57007 -6.03559 0
M  V30 3894 H 366.984 1.51353 -7.40694 0
M  V30 3895 H 368.252 2.69897 -7.31284 0
M  V30 3896 N 372.481 1.55866 -0.233164 0
M  V30 3897 C 373.729 1.9821 0.394593 0
M  V30 3898 C 374.05 1.12234 1.59463 0
M  V30 3899 O 373.32 0.201981 1.94856 0
M  V30 3900 H 371.9 0.732034 0.148778 0
M  V30 3901 H 374.562 1.92107 -0.32876 0
M  V30 3902 H 373.658 3.03845 0.713063 0
M  V30 3903 N 373.959 -0.0401083 1.57549 0
M  V30 3904 C 375.205 -0.734211 1.89043 0
M  V30 3905 C 375.538 -1.75591 0.829535 0
M  V30 3906 O 374.813 -1.93868 -0.156706 0
M  V30 3907 C 375.096 -1.41374 3.31188 0
M  V30 3908 C 374.949 -0.406299 4.47961 0
M  V30 3909 C 376.268 -2.35061 3.72068 0
M  V30 3910 H 373.387 -0.265447 0.687537 0
M  V30 3911 H 376.029 0.00294087 1.9 0
M  V30 3912 H 374.179 -2.04206 3.30503 0
M  V30 3913 H 375.851 0.219255 4.60779 0
M  V30 3914 H 374.094 0.275485 4.32924 0
M  V30 3915 H 374.765 -0.920022 5.44279 0
M  V30 3916 H 377.241 -1.82282 3.74049 0
M  V30 3917 H 376.117 -2.79593 4.72355 0
M  V30 3918 H 376.378 -3.21258 3.0372 0
M  V30 3919 N 375.437 -1.54477 -0.31217 0
M  V30 3920 C 376.384 -1.84655 -1.38461 0
M  V30 3921 C 377.354 -0.694536 -1.50882 0
M  V30 3922 O 378.539 -0.942081 -1.6592 0
M  V30 3923 C 375.679 -2.0896 -2.74645 0
M  V30 3924 C 374.792 -3.36618 -2.70763 0
M  V30 3925 C 373.927 -3.50824 -3.98868 0
M  V30 3926 C 372.966 -4.72315 -3.89339 0
M  V30 3927 N 372.103 -4.83387 -5.09197 0
M  V30 3928 H 376.943 -2.76142 -1.12026 0
M  V30 3929 H 374.48 -1.36748 -0.542065 0
M  V30 3930 H 376.438 -2.21045 -3.53829 0
M  V30 3931 H 375.068 -1.20752 -2.99364 0
M  V30 3932 H 374.12 -3.33211 -1.83506 0
M  V30 3933 H 375.432 -4.25917 -2.59608 0
M  V30 3934 H 374.586 -3.62513 -4.86486 0
M  V30 3935 H 373.325 -2.59638 -4.12843 0
M  V30 3936 H 372.33 -4.6067 -3.00105 0
M  V30 3937 H 373.555 -5.64897 -3.76919 0
M  V30 3938 H 371.501 -3.9512 -5.23657 0
M  V30 3939 H 371.418 -5.66669 -5.00422 0
M  V30 3940 H 372.686 -4.9942 -5.98498 0
M  V30 3941 N 376.915 0.57481 -1.46744 0
M  V30 3942 C 378.14 1.36341 -1.56288 0
M  V30 3943 C 378.565 1.86954 -0.207347 0
M  V30 3944 O 377.923 1.62006 0.813871 0
M  V30 3945 C 377.971 2.52147 -2.57787 0
M  V30 3946 O 377.075 3.53834 -2.11838 0
M  V30 3947 H 376.416 0.405713 -0.525636 0
M  V30 3948 H 378.946 0.696453 -1.92382 0
M  V30 3949 H 378.956 2.98958 -2.77648 0
M  V30 3950 H 377.631 2.14663 -3.5622 0
M  V30 3951 H 376.208 3.1345 -2.01999 0
M  V30 3952 N 378.394 1.34581 0.820102 0
M  V30 3953 C 379.622 1.3018 1.60813 0
M  V30 3954 C 380.037 -0.123551 1.88395 0
M  V30 3955 O 379.394 -1.07148 1.47735 0
M  V30 3956 C 379.445 2.09312 2.94739 0
M  V30 3957 O 379.166 3.46288 2.68358 0
M  V30 3958 C 380.667 2.1234 3.89136 0
M  V30 3959 H 377.887 0.447726 0.499782 0
M  V30 3960 H 380.431 1.77237 1.02017 0
M  V30 3961 H 378.586 1.65889 3.50085 0
M  V30 3962 H 379 3.87227 3.53774 0
M  V30 3963 H 380.474 2.72126 4.80262 0
M  V30 3964 H 380.951 1.11854 4.24718 0
M  V30 3965 H 381.557 2.55864 3.39726 0
M  V30 3966 N 379.872 -1.04064 1.18357 0
M  V30 3967 C 381.12 -1.76915 0.977013 0
M  V30 3968 C 381.441 -1.88624 -0.494577 0
M  V30 3969 O 380.711 -1.41125 -1.3587 0
M  V30 3970 H 379.291 -0.65535 0.358504 0
M  V30 3971 H 381.953 -1.25592 1.49039 0
M  V30 3972 H 381.049 -2.78178 1.41504 0
M  V30 3973 N 381.35 -0.985608 -1.22978 0
M  V30 3974 C 382.297 -0.529825 -2.24636 0
M  V30 3975 C 383.267 0.434028 -1.60329 0
M  V30 3976 O 384.452 0.340414 -1.87739 0
M  V30 3977 C 381.592 0.156533 -3.44745 0
M  V30 3978 C 380.705 -0.848197 -4.23591 0
M  V30 3979 C 379.84 -0.136109 -5.31026 0
M  V30 3980 C 378.879 -1.1297 -6.01585 0
M  V30 3981 N 378.016 -0.446415 -7.00679 0
M  V30 3982 H 382.856 -1.40148 -2.62988 0
M  V30 3983 H 380.393 -0.702168 -1.29259 0
M  V30 3984 H 382.351 0.571324 -4.1327 0
M  V30 3985 H 380.981 0.992025 -3.07179 0
M  V30 3986 H 380.033 -1.38135 -3.54433 0
M  V30 3987 H 381.345 -1.60512 -4.72268 0
M  V30 3988 H 380.499 0.335784 -6.0577 0
M  V30 3989 H 379.238 0.653373 -4.83304 0
M  V30 3990 H 378.243 -1.6123 -5.25628 0
M  V30 3991 H 379.468 -1.91993 -6.51395 0
M  V30 3992 H 377.414 0.323763 -6.55201 0
M  V30 3993 H 377.331 -1.1419 -7.47326 0
M  V30 3994 H 378.599 0.00291697 -7.795 0
M  V30 3995 N 382.828 1.3818 -0.7579 0
M  V30 3996 C 384.077 1.99261 -0.312744 0
M  V30 3997 C 384.39 1.60846 1.11301 0
M  V30 3998 O 385.596 2.14929 1.65885 0
M  V30 3999 C 384.052 3.56294 -0.50821 0
M  V30 4000 C 383.66 4.03657 -1.94333 0
M  V30 4001 C 385.404 4.24313 -0.125982 0
M  V30 4002 C 383.311 5.53347 -2.08712 0
M  V30 4003 H 382.241 0.745456 -0.113185 0
M  V30 4004 H 384.892 1.57889 -0.935056 0
M  V30 4005 H 383.274 3.95575 0.183353 0
M  V30 4006 H 384.448 3.75655 -2.66871 0
M  V30 4007 H 382.763 3.48376 -2.28086 0
M  V30 4008 H 385.36 5.34279 -0.212125 0
M  V30 4009 H 385.703 4.05962 0.921964 0
M  V30 4010 H 386.236 3.90285 -0.769563 0
M  V30 4011 H 382.975 5.76607 -3.11777 0
M  V30 4012 H 382.495 5.83078 -1.4064 0
M  V30 4013 H 384.174 6.19111 -1.87912 0
M  V30 4014 N 384.306 0.507319 1.49211 0
M  V30 4015 C 385.552 -0.0350047 2.0277 0
M  V30 4016 C 385.885 -1.3606 1.38569 0
M  V30 4017 O 385.16 -1.87321 0.523542 0
M  V30 4018 C 385.443 -0.180916 3.59645 0
M  V30 4019 C 385.296 1.16825 4.34364 0
M  V30 4020 C 386.615 -0.918558 4.30407 0
M  V30 4021 H 383.734 -0.0112473 0.736914 0
M  V30 4022 H 386.376 0.659956 1.7817 0
M  V30 4023 H 384.526 -0.772826 3.80736 0
M  V30 4024 H 386.198 1.79952 4.24753 0
M  V30 4025 H 384.441 1.75594 3.96673 0
M  V30 4026 H 385.112 1.01939 5.42506 0
M  V30 4027 H 387.588 -0.41649 4.1401 0
M  V30 4028 H 386.464 -0.989505 5.39907 0
M  V30 4029 H 386.725 -1.96373 3.96093 0
M  V30 4030 N 385.784 -1.5574 0.241426 0
M  V30 4031 C 387.014 -2.02913 -0.38857 0
M  V30 4032 C 387.422 -1.12014 -1.52478 0
M  V30 4033 O 386.765 -0.125903 -1.83268 0
M  V30 4034 C 386.827 -3.4636 -0.963075 0
M  V30 4035 C 386.491 -4.56982 0.0401916 0
M  V30 4036 C 387.488 -5.12941 0.847766 0
M  V30 4037 C 385.173 -5.0203 0.164699 0
M  V30 4038 C 387.167 -6.12437 1.76636 0
M  V30 4039 C 384.854 -6.01358 1.0868 0
M  V30 4040 C 385.852 -6.5644 1.88616 0
M  V30 4041 O 385.54 -7.53831 2.79273 0
M  V30 4042 H 385.272 -0.668983 -0.0971452 0
M  V30 4043 H 387.826 -2.02198 0.361248 0
M  V30 4044 H 386.056 -3.44206 -1.76235 0
M  V30 4045 H 387.745 -3.77065 -1.50257 0
M  V30 4046 H 388.511 -4.78974 0.762133 0
M  V30 4047 H 384.39 -4.58824 -0.447411 0
M  V30 4048 H 387.934 -6.55355 2.39071 0
M  V30 4049 H 383.831 -6.34746 1.17338 0
M  V30 4050 H 384.599 -7.71428 2.73572 0
M  V30 4051 N 387.262 0.0317525 -1.57568 0
M  V30 4052 C 388.509 0.723104 -1.89149 0
M  V30 4053 C 388.837 1.75504 -0.838377 0
M  V30 4054 O 388.092 1.95037 0.160982 0
M  V30 4055 C 388.391 1.43167 -3.27472 0
M  V30 4056 C 388.057 0.535972 -4.47703 0
M  V30 4057 C 386.719 0.289262 -4.8033 0
M  V30 4058 C 389.071 -0.0826125 -5.21135 0
M  V30 4059 C 386.399 -0.584853 -5.83778 0
M  V30 4060 C 388.751 -0.944414 -6.25511 0
M  V30 4061 C 387.415 -1.20061 -6.56614 0
M  V30 4062 H 386.685 0.264602 -0.692146 0
M  V30 4063 H 389.332 -0.0169496 -1.91492 0
M  V30 4064 H 387.637 2.24497 -3.21105 0
M  V30 4065 H 389.334 1.97209 -3.49155 0
M  V30 4066 H 385.924 0.738414 -4.22191 0
M  V30 4067 H 390.108 0.0950302 -4.96209 0
M  V30 4068 H 385.364 -0.79168 -6.06253 0
M  V30 4069 H 389.538 -1.43026 -6.81554 0
M  V30 4070 H 387.165 -1.87967 -7.36595 0
M  V30 4071 N 388.74 1.54641 0.303973 0
M  V30 4072 C 389.968 1.77768 1.05858 0
M  V30 4073 C 390.383 0.535722 1.8104 0
M  V30 4074 O 389.74 -0.494337 1.75677 0
M  V30 4075 C 389.791 2.9834 2.04146 0
M  V30 4076 O 389.512 4.17736 1.32015 0
M  V30 4077 C 391.013 3.33832 2.91669 0
M  V30 4078 H 388.233 0.592961 0.314067 0
M  V30 4079 H 390.777 2.01583 0.344149 0
M  V30 4080 H 388.932 2.76742 2.71096 0
M  V30 4081 H 389.346 4.85693 1.97998 0
M  V30 4082 H 390.82 4.21448 3.56491 0
M  V30 4083 H 391.297 2.51857 3.59812 0
M  V30 4084 H 391.903 3.57579 2.30254 0
M  V30 4085 N 390.218 -0.567019 1.47046 0
M  V30 4086 C 391.181 -1.65696 1.58359 0
M  V30 4087 C 392.181 -1.54097 0.459441 0
M  V30 4088 O 393.371 -1.58432 0.724225 0
M  V30 4089 C 390.503 -3.05197 1.51879 0
M  V30 4090 H 391.696 -1.57019 2.5551 0
M  V30 4091 H 389.249 -0.786148 1.3509 0
M  V30 4092 H 389.984 -3.19417 0.560673 0
M  V30 4093 H 389.769 -3.15025 2.33455 0
M  V30 4094 H 391.259 -3.84511 1.62913 0
M  V30 4095 N 391.696 -1.35014 -0.812953 0
M  V30 4096 C 392.924 -1.31031 -1.6012 0
M  V30 4097 C 393.339 0.113558 -1.88458 0
M  V30 4098 O 392.696 1.06363 -1.48301 0
M  V30 4099 C 392.747 -2.10872 -2.93624 0
M  V30 4100 O 392.468 -3.47706 -2.66518 0
M  V30 4101 C 393.969 -2.14401 -3.88004 0
M  V30 4102 H 391.189 -0.45037 -0.497401 0
M  V30 4103 H 393.733 -1.77775 -1.01076 0
M  V30 4104 H 391.888 -1.67744 -3.492 0
M  V30 4105 H 392.302 -3.89097 -3.51715 0
M  V30 4106 H 393.776 -2.74669 -4.78812 0
M  V30 4107 H 394.253 -1.14105 -4.24119 0
M  V30 4108 H 394.859 -2.57662 -3.38364 0
M  V30 4109 N 393.175 1.03435 -1.18907 0
M  V30 4110 C 394.422 1.76743 -0.988334 0
M  V30 4111 C 394.75 1.88447 0.481441 0
M  V30 4112 O 394.005 1.39383 1.37371 0
M  V30 4113 C 394.304 3.19792 -1.59586 0
M  V30 4114 C 393.97 3.28108 -3.09283 0
M  V30 4115 C 392.632 3.30084 -3.5014 0
M  V30 4116 C 394.984 3.27696 -4.05296 0
M  V30 4117 C 392.312 3.29299 -4.85571 0
M  V30 4118 C 394.664 3.28451 -5.4065 0
M  V30 4119 C 393.328 3.28723 -5.80946 0
M  V30 4120 H 392.598 0.64675 -0.361657 0
M  V30 4121 H 395.245 1.21442 -1.48068 0
M  V30 4122 H 393.55 3.78136 -1.02568 0
M  V30 4123 H 395.247 3.75171 -1.41589 0
M  V30 4124 H 391.837 3.27294 -2.76725 0
M  V30 4125 H 396.021 3.25354 -3.74778 0
M  V30 4126 H 391.277 3.2783 -5.16079 0
M  V30 4127 H 395.451 3.27082 -6.14809 0
M  V30 4128 H 393.078 3.27868 -6.85862 0
M  V30 4129 N 394.653 0.992116 1.22453 0
M  V30 4130 C 396.064 0.702776 1.72968 0
M  V30 4131 C 396.415 -0.780399 1.80012 0
M  V30 4132 O 395.54 -1.61007 1.44589 0
M  V30 4133 C 396.135 1.26903 3.14135 0
M  V30 4134 C 394.694 1.02909 3.62059 0
M  V30 4135 C 393.841 1.38969 2.39964 0
M  V30 4136 H 396.792 1.16457 1.07812 0
M  V30 4137 H 396.813 0.647223 3.74955 0
M  V30 4138 H 396.325 2.34851 3.08977 0
M  V30 4139 H 394.426 -0.0337979 3.72585 0
M  V30 4140 H 394.539 1.69191 4.48231 0
M  V30 4141 H 392.903 0.808279 2.41535 0
M  V30 4142 H 393.686 2.4792 2.37467 0
M  V30 4143 N 396.131 -1.37776 0.765217 0
M  V30 4144 C 397.361 -2.03828 0.337277 0
M  V30 4145 C 397.769 -1.57841 -1.04321 0
M  V30 4146 O 397.112 -0.752043 -1.67601 0
M  V30 4147 C 397.174 -3.58292 0.294407 0
M  V30 4148 C 396.838 -4.27384 1.61838 0
M  V30 4149 C 397.835 -4.51956 2.56967 0
M  V30 4150 C 395.52 -4.65345 1.89102 0
M  V30 4151 C 397.514 -5.13536 3.77571 0
M  V30 4152 C 395.201 -5.26647 3.09978 0
M  V30 4153 C 396.199 -5.50679 4.04032 0
M  V30 4154 O 395.887 -6.10702 5.2278 0
M  V30 4155 H 395.619 -0.661292 0.140248 0
M  V30 4156 H 398.173 -1.77222 1.03834 0
M  V30 4157 H 396.403 -3.83918 -0.462983 0
M  V30 4158 H 398.092 -4.05763 -0.105581 0
M  V30 4159 H 398.858 -4.23048 2.37183 0
M  V30 4160 H 394.737 -4.45978 1.16725 0
M  V30 4161 H 398.281 -5.3221 4.50997 0
M  V30 4162 H 394.178 -5.54979 3.29649 0
M  V30 4163 H 394.946 -6.29183 5.23517 0
M  V30 4164 N 397.609 -0.515225 -1.4894 0
M  V30 4165 C 398.855 0.0242508 -2.02785 0
M  V30 4166 C 399.188 1.35323 -1.39289 0
M  V30 4167 O 398.463 1.87041 -0.533469 0
M  V30 4168 C 398.746 0.16184 -3.59736 0
M  V30 4169 C 398.599 -1.19127 -4.33738 0
M  V30 4170 C 399.918 0.895719 -4.30888 0
M  V30 4171 H 397.037 0.00733914 -0.736963 0
M  V30 4172 H 399.679 -0.669395 -1.77818 0
M  V30 4173 H 397.829 0.752624 -3.8114 0
M  V30 4174 H 399.501 -1.82202 -4.23792 0
M  V30 4175 H 397.744 -1.77695 -3.95736 0
M  V30 4176 H 398.415 -1.04815 -5.41957 0
M  V30 4177 H 400.891 0.394528 -4.14225 0
M  V30 4178 H 399.767 0.960859 -5.40425 0
M  V30 4179 H 400.028 1.9427 -3.97129 0
M  V30 4180 N 399.087 1.5561 -0.249682 0
M  V30 4181 C 400.333 1.99306 0.374841 0
M  V30 4182 C 400.666 1.13767 1.57387 0
M  V30 4183 O 399.941 0.201711 1.93451 0
M  V30 4184 C 400.224 3.51507 0.781986 0
M  V30 4185 C 400.077 4.4781 -0.422629 0
M  V30 4186 C 401.396 4.08884 1.62793 0
M  V30 4187 H 398.515 0.724572 0.134773 0
M  V30 4188 H 401.157 1.86719 -0.351549 0
M  V30 4189 H 399.307 3.62363 1.4009 0
M  V30 4190 H 400.979 4.48931 -1.06108 0
M  V30 4191 H 399.222 4.20518 -1.06524 0
M  V30 4192 H 399.893 5.51919 -0.0943766 0
M  V30 4193 H 402.369 4.01147 1.10547 0
M  V30 4194 H 401.245 5.1564 1.88166 0
M  V30 4195 H 401.506 3.57515 2.60068 0
M  V30 4196 N 400.565 -0.0233959 1.57583 0
M  V30 4197 C 401.495 -1.02162 2.09965 0
M  V30 4198 C 402.476 -1.3735 1.00344 0
M  V30 4199 O 403.661 -1.46135 1.27899 0
M  V30 4200 C 400.791 -2.32081 2.58371 0
M  V30 4201 C 399.745 -2.1112 3.72307 0
M  V30 4202 C 399.071 -3.46848 4.06941 0
M  V30 4203 C 400.371 -1.49276 5.00514 0
M  V30 4204 H 402.065 -0.585557 2.93618 0
M  V30 4205 H 399.611 -0.280218 1.41247 0
M  V30 4206 H 401.564 -3.02249 2.93639 0
M  V30 4207 H 400.288 -2.77758 1.71808 0
M  V30 4208 H 398.947 -1.43384 3.37397 0
M  V30 4209 H 398.595 -3.90184 3.17436 0
M  V30 4210 H 398.295 -3.33646 4.83688 0
M  V30 4211 H 399.819 -4.18369 4.44747 0
M  V30 4212 H 401.233 -2.09368 5.33702 0
M  V30 4213 H 399.63 -1.46632 5.8191 0
M  V30 4214 H 400.7 -0.459217 4.82721 0
M  V30 4215 N 402.043 -1.548 -0.295768 0
M  V30 4216 C 403.289 -1.74588 -1.03184 0
M  V30 4217 C 403.622 -0.532962 -1.86744 0
M  V30 4218 O 402.897 0.469872 -1.88739 0
M  V30 4219 C 403.18 -3.03791 -1.93347 0
M  V30 4220 C 403.033 -4.35392 -1.12933 0
M  V30 4221 C 404.352 -3.28892 -2.92435 0
M  V30 4222 H 401.471 -0.635221 -0.373715 0
M  V30 4223 H 404.113 -1.87519 -0.30606 0
M  V30 4224 H 402.263 -2.92898 -2.55232 0
M  V30 4225 H 403.935 -4.58211 -0.532943 0
M  V30 4226 H 402.178 -4.31642 -0.432168 0
M  V30 4227 H 402.849 -5.22074 -1.79284 0
M  V30 4228 H 405.325 -3.39429 -2.4068 0
M  V30 4229 H 404.201 -4.20603 -3.52682 0
M  V30 4230 H 404.462 -2.47437 -3.6637 0
M  V30 4231 N 403.521 0.559213 -1.47345 0
M  V30 4232 C 404.767 1.31843 -1.54095 0
M  V30 4233 C 405.1 1.93149 -0.201726 0
M  V30 4234 O 404.375 1.77759 0.789428 0
M  V30 4235 C 404.658 2.43006 -2.65744 0
M  V30 4236 C 404.511 1.86581 -4.09277 0
M  V30 4237 C 405.83 3.44943 -2.73318 0
M  V30 4238 H 402.949 0.478012 -0.560957 0
M  V30 4239 H 405.591 0.625977 -1.79392 0
M  V30 4240 H 403.741 3.02072 -2.44305 0
M  V30 4241 H 405.413 1.31792 -4.42073 0
M  V30 4242 H 403.656 1.17268 -4.17649 0
M  V30 4243 H 404.327 2.66933 -4.83168 0
M  V30 4244 H 406.803 2.95793 -2.92653 0
M  V30 4245 H 405.679 4.20153 -3.53218 0
M  V30 4246 H 405.94 4.03665 -1.80296 0
M  V30 4247 N 404.999 1.35443 0.805782 0
M  V30 4248 C 405.929 1.31095 1.93226 0
M  V30 4249 C 406.91 0.185244 1.69088 0
M  V30 4250 O 408.095 0.380332 1.90439 0
M  V30 4251 C 405.225 1.08299 3.29983 0
M  V30 4252 C 404.179 2.17519 3.68605 0
M  V30 4253 C 403.505 1.79887 5.03532 0
M  V30 4254 C 404.805 3.5949 3.78898 0
M  V30 4255 H 406.499 2.25352 1.97122 0
M  V30 4256 H 404.045 1.0848 0.946996 0
M  V30 4257 H 405.998 1.03897 4.08391 0
M  V30 4258 H 404.722 0.104885 3.26432 0
M  V30 4259 H 403.381 2.2102 2.92482 0
M  V30 4260 H 403.029 0.80693 4.96485 0
M  V30 4261 H 402.729 2.53001 5.30344 0
M  V30 4262 H 404.253 1.77011 5.84379 0
M  V30 4263 H 405.667 3.58307 4.47536 0
M  V30 4264 H 404.064 4.31371 4.1718 0
M  V30 4265 H 405.134 3.95584 2.80431 0
M  V30 4266 N 406.477 -1.02803 1.19454 0
M  V30 4267 C 407.407 -2.12999 0.956758 0
M  V30 4268 C 408.388 -1.69743 -0.110188 0
M  V30 4269 O 409.573 -1.94148 0.0450038 0
M  V30 4270 C 406.703 -3.43746 0.495553 0
M  V30 4271 C 405.657 -4.00688 1.50443 0
M  V30 4272 C 404.983 -5.27067 0.900275 0
M  V30 4273 C 406.283 -4.35397 2.8849 0
M  V30 4274 H 407.977 -2.33148 1.87836 0
M  V30 4275 H 405.523 -1.12045 0.904539 0
M  V30 4276 H 407.476 -4.2021 0.316493 0
M  V30 4277 H 406.2 -3.23321 -0.461646 0
M  V30 4278 H 404.859 -3.2632 1.67065 0
M  V30 4279 H 404.507 -5.02959 -0.064503 0
M  V30 4280 H 404.207 -5.66127 1.57397 0
M  V30 4281 H 405.731 -6.06196 0.73203 0
M  V30 4282 H 407.145 -5.02795 2.75446 0
M  V30 4283 H 405.542 -4.85541 3.52661 0
M  V30 4284 H 406.612 -3.44662 3.41081 0
M  V30 4285 N 407.956 -0.998596 -1.21925 0
M  V30 4286 C 409.202 -0.678667 -1.91107 0
M  V30 4287 C 409.535 0.78791 -1.77498 0
M  V30 4288 O 408.81 1.57043 -1.1475 0
M  V30 4289 C 409.093 -1.09245 -3.43129 0
M  V30 4290 C 408.946 -2.61801 -3.6576 0
M  V30 4291 C 410.265 -0.649984 -4.35274 0
M  V30 4292 H 407.384 -0.248025 -0.694012 0
M  V30 4293 H 410.026 -1.24314 -1.43688 0
M  V30 4294 H 408.176 -0.612171 -3.83647 0
M  V30 4295 H 409.848 -3.17543 -3.34611 0
M  V30 4296 H 408.091 -3.03609 -3.09845 0
M  V30 4297 H 408.762 -2.85804 -4.7225 0
M  V30 4298 H 411.238 -1.0626 -4.02303 0
M  V30 4299 H 410.114 -0.967743 -5.40302 0
M  V30 4300 H 410.375 0.449139 -4.39813 0
M  V30 4301 N 409.434 1.37368 -0.772513 0
M  V30 4302 C 410.85 1.53059 -0.452231 0
M  V30 4303 C 411.05 1.73065 1.03203 0
M  V30 4304 O 410.106 1.75245 1.81784 0
M  V30 4305 C 411.419 2.72659 -1.26797 0
M  V30 4306 C 412.967 2.86521 -1.25995 0
M  V30 4307 C 413.442 4.09105 -2.05905 0
M  V30 4308 N 414.933 4.16219 -2.03263 0
M  V30 4309 C 415.668 5.10107 -2.61875 0
M  V30 4310 N 415.164 6.09547 -3.29278 0
M  V30 4311 N 416.957 5.02596 -2.51701 0
M  V30 4312 H 409.108 1.22634 -1.7342 0
M  V30 4313 H 411.371 0.597206 -0.736239 0
M  V30 4314 H 411.077 2.64343 -2.31982 0
M  V30 4315 H 410.951 3.66363 -0.897672 0
M  V30 4316 H 413.338 2.94308 -0.216081 0
M  V30 4317 H 413.419 1.93774 -1.66989 0
M  V30 4318 H 413.063 4.0208 -3.10313 0
M  V30 4319 H 412.993 5.00968 -1.62292 0
M  V30 4320 H 415.484 3.45012 -1.54192 0
M  V30 4321 H 415.797 6.77718 -3.71374 0
M  V30 4322 H 414.142 6.09824 -3.33377 0
M  V30 4323 H 417.333 4.23855 -1.98657 0
M  V30 4324 H 417.506 5.75582 -2.97673 0
M  V30 4325 N 410.912 0.523116 1.48665 0
M  V30 4326 C 412.16 -0.0134497 2.02096 0
M  V30 4327 C 412.481 -1.35418 1.40311 0
M  V30 4328 O 411.751 -1.87543 0.566074 0
M  V30 4329 H 410.331 -0.00795915 0.746958 0
M  V30 4330 H 412.993 0.685388 1.82451 0
M  V30 4331 H 412.089 -0.126849 3.11842 0
M  V30 4332 N 412.39 -1.55475 0.257931 0
M  V30 4333 C 413.636 -1.99502 -0.364266 0
M  V30 4334 C 413.969 -1.146 -1.56782 0
M  V30 4335 O 413.244 -0.211968 -1.93342 0
M  V30 4336 C 413.527 -3.51917 -0.763333 0
M  V30 4337 C 413.38 -4.4758 0.446371 0
M  V30 4338 C 414.699 -4.09742 -1.60623 0
M  V30 4339 H 411.818 -0.725277 -0.130929 0
M  V30 4340 H 414.46 -1.8653 0.361446 0
M  V30 4341 H 412.61 -3.63101 -1.38166 0
M  V30 4342 H 414.282 -4.48362 1.08487 0
M  V30 4343 H 412.525 -4.19947 1.08753 0
M  V30 4344 H 413.196 -5.51862 0.123645 0
M  V30 4345 H 415.672 -4.01727 -1.08418 0
M  V30 4346 H 414.548 -5.16631 -1.85429 0
M  V30 4347 H 414.809 -3.58889 -2.58169 0
M  V30 4348 N 413.868 0.0150385 -1.57593 0
M  V30 4349 C 414.798 1.01047 -2.10503 0
M  V30 4350 C 415.779 1.36816 -1.01071 0
M  V30 4351 O 416.964 1.45455 -1.28672 0
M  V30 4352 C 414.094 2.30708 -2.59598 0
M  V30 4353 C 413.048 2.09142 -3.73421 0
M  V30 4354 C 412.374 3.44685 -4.08774 0
M  V30 4355 C 413.674 1.46619 -5.01298 0
M  V30 4356 H 415.368 0.569978 -2.93925 0
M  V30 4357 H 412.914 0.272724 -1.41394 0
M  V30 4358 H 414.867 3.00687 -2.95238 0
M  V30 4359 H 413.591 2.76843 -1.73279 0
M  V30 4360 H 412.25 1.41592 -3.38153 0
M  V30 4361 H 411.898 3.88495 -3.195 0
M  V30 4362 H 411.598 3.31077 -4.8545 0
M  V30 4363 H 413.122 4.16004 -4.4696 0
M  V30 4364 H 414.536 2.06535 -5.34805 0
M  V30 4365 H 412.933 1.43544 -5.82679 0
M  V30 4366 H 414.003 0.433611 -4.82957 0
M  V30 4367 N 415.346 1.54954 0.287554 0
M  V30 4368 C 416.276 1.89839 1.35954 0
M  V30 4369 C 417.257 0.758675 1.52244 0
M  V30 4370 O 418.442 1.01557 1.65529 0
M  V30 4371 C 415.572 2.15753 2.72154 0
M  V30 4372 C 414.526 3.3159 2.70614 0
M  V30 4373 C 413.852 3.42952 4.10229 0
M  V30 4374 C 415.152 4.68359 2.31165 0
M  V30 4375 H 416.846 2.79625 1.07007 0
M  V30 4376 H 414.392 1.3454 0.513316 0
M  V30 4377 H 416.345 2.38743 3.47246 0
M  V30 4378 H 415.069 1.22752 3.02654 0
M  V30 4379 H 413.728 3.08545 1.97979 0
M  V30 4380 H 413.376 2.47443 4.37928 0
M  V30 4381 H 413.076 4.20826 4.10097 0
M  V30 4382 H 414.6 3.68218 4.87081 0
M  V30 4383 H 416.014 4.9099 2.95976 0
M  V30 4384 H 414.411 5.49044 2.42221 0
M  V30 4385 H 415.481 4.68165 1.26291 0
M  V30 4386 N 416.824 -0.551391 1.4764 0
M  V30 4387 C 418.235 -1.13349 1.48354 0
M  V30 4388 C 418.586 -1.94709 0.241432 0
M  V30 4389 O 417.711 -2.06306 -0.653205 0
M  V30 4390 C 418.306 -2.0623 2.68802 0
M  V30 4391 C 416.865 -2.597 2.72457 0
M  V30 4392 C 416.012 -1.36201 2.41546 0
M  V30 4393 H 418.963 -0.337698 1.55065 0
M  V30 4394 H 418.984 -2.90196 2.46103 0
M  V30 4395 H 418.496 -1.46987 3.59188 0
M  V30 4396 H 416.597 -3.22724 1.86225 0
M  V30 4397 H 416.71 -3.00296 3.73308 0
M  V30 4398 H 415.074 -1.67068 1.9225 0
M  V30 4399 H 415.857 -0.787425 3.34147 0
M  V30 4400 N 418.302 -1.35869 -0.798587 0
M  V30 4401 C 419.55 -1.29332 -1.55298 0
M  V30 4402 C 419.871 0.129729 -1.94568 0
M  V30 4403 O 419.141 1.06796 -1.6423 0
M  V30 4404 H 417.721 -0.475737 -0.57592 0
M  V30 4405 H 420.383 -1.70062 -0.952093 0
M  V30 4406 H 419.479 -1.91458 -2.46476 0
M  V30 4407 N 419.78 1.02168 -1.19998 0
M  V30 4408 C 420.743 2.08765 -0.94604 0
M  V30 4409 C 421.743 1.60618 0.0763846 0
M  V30 4410 O 422.933 1.73472 -0.159135 0
M  V30 4411 C 420.065 3.38262 -0.423255 0
M  V30 4412 H 421.258 2.32726 -1.89153 0
M  V30 4413 H 418.811 1.1889 -1.01464 0
M  V30 4414 H 419.546 3.19974 0.527938 0
M  V30 4415 H 419.331 3.74532 -1.16053 0
M  V30 4416 H 420.821 4.16759 -0.264911 0
M  V30 4417 N 421.258 1.00505 1.21394 0
M  V30 4418 C 422.188 0.585684 2.26035 0
M  V30 4419 C 423.169 -0.393525 1.65485 0
M  V30 4420 O 424.354 -0.281497 1.92149 0
M  V30 4421 C 421.484 -0.0884283 3.47187 0
M  V30 4422 C 420.438 0.810567 4.20254 0
M  V30 4423 C 419.764 0.00286382 5.347 0
M  V30 4424 C 421.064 2.1132 4.77641 0
M  V30 4425 H 422.758 1.46039 2.61368 0
M  V30 4426 H 420.304 0.703648 1.25638 0
M  V30 4427 H 422.257 -0.393286 4.19561 0
M  V30 4428 H 420.981 -0.997766 3.10986 0
M  V30 4429 H 419.64 1.09925 3.49731 0
M  V30 4430 H 419.288 -0.907765 4.94741 0
M  V30 4431 H 418.988 0.601444 5.84514 0
M  V30 4432 H 420.512 -0.295808 6.09883 0
M  V30 4433 H 421.926 1.87148 5.41893 0
M  V30 4434 H 420.323 2.66164 5.37845 0
M  V30 4435 H 421.393 2.78393 3.9702 0
M  V30 4436 N 422.737 -1.36956 0.779787 0
M  V30 4437 C 424.014 -1.93697 0.272156 0
M  V30 4438 C 424.394 -1.71267 -1.23413 0
M  V30 4439 O 423.742 -1.06607 -2.02107 0
M  V30 4440 C 423.952 -3.42812 0.654291 0
M  V30 4441 C 425.3 -4.19921 0.628602 0
M  V30 4442 O 426.324 -3.51209 0.594172 0
M  V30 4443 O 425.183 -5.42465 0.662864 0
M  V30 4444 H 422.277 -0.824447 0.0649286 0
M  V30 4445 H 424.823 -1.46196 0.861682 0
M  V30 4446 H 423.595 -3.52754 1.69353 0
M  V30 4447 H 423.218 -3.97582 0.0381369 0
M  V30 4448 N 424.215 -0.530993 -1.48385 0
M  V30 4449 C 425.463 0.00273189 -2.021 0
M  V30 4450 C 425.784 1.34672 -1.41027 0
M  V30 4451 O 425.054 1.8724 -0.576012 0
M  V30 4452 H 423.634 0.00399774 -0.746989 0
M  V30 4453 H 426.296 -0.695054 -1.82085 0
M  V30 4454 H 425.392 0.11031 -3.11905 0
M  V30 4455 N 425.693 1.55336 -0.266172 0
M  V30 4456 C 426.942 1.98574 0.353749 0
M  V30 4457 C 427.255 1.15789 1.57646 0
M  V30 4458 O 428.461 1.49129 2.26876 0
M  V30 4459 C 426.917 3.53403 0.680747 0
M  V30 4460 C 426.525 4.44953 -0.52165 0
M  V30 4461 C 428.269 4.05251 1.26379 0
M  V30 4462 C 426.176 5.91156 -0.169736 0
M  V30 4463 H 425.106 0.741643 0.135949 0
M  V30 4464 H 427.757 1.79743 -0.369421 0
M  V30 4465 H 426.139 3.68001 1.46257 0
M  V30 4466 H 427.313 4.42121 -1.29869 0
M  V30 4467 H 425.628 4.03691 -1.02093 0
M  V30 4468 H 428.225 5.12021 1.54074 0
M  V30 4469 H 428.568 3.53749 2.19471 0
M  V30 4470 H 429.101 3.94057 0.544447 0
M  V30 4471 H 425.84 6.46736 -1.0683 0
M  V30 4472 H 425.36 5.97079 0.570717 0
M  V30 4473 H 427.039 6.4655 0.241245 0
M  V30 4474 N 427.171 -0.0066808 1.57599 0
M  V30 4475 C 428.42 -0.692078 1.89455 0
M  V30 4476 C 428.733 -1.75306 0.867586 0
M  V30 4477 O 429.939 -2.49262 1.07614 0
M  V30 4478 C 428.395 -1.2821 3.36289 0
M  V30 4479 C 428.003 -0.256291 4.47266 0
M  V30 4480 C 429.747 -1.94608 3.77264 0
M  V30 4481 C 427.654 -0.855927 5.85173 0
M  V30 4482 H 426.584 -0.262252 0.706923 0
M  V30 4483 H 429.235 0.052769 1.83424 0
M  V30 4484 H 427.617 -2.0774 3.37135 0
M  V30 4485 H 428.791 0.513923 4.57925 0
M  V30 4486 H 427.106 0.306862 4.15268 0
M  V30 4487 H 429.703 -2.40364 4.77629 0
M  V30 4488 H 430.046 -2.77382 3.10427 0
M  V30 4489 H 430.579 -1.21822 3.78688 0
M  V30 4490 H 427.318 -0.0671161 6.55466 0
M  V30 4491 H 426.838 -1.59546 5.78191 0
M  V30 4492 H 428.517 -1.35658 6.32618 0
M  V30 4493 N 428.649 -1.55105 -0.279332 0
M  V30 4494 C 429.879 -1.7917 -1.02867 0
M  V30 4495 C 430.287 -0.56204 -1.80659 0
M  V30 4496 O 429.63 0.478266 -1.77365 0
M  V30 4497 C 429.692 -2.96061 -2.03932 0
M  V30 4498 C 429.356 -4.33341 -1.45137 0
M  V30 4499 C 430.353 -5.12565 -0.870266 0
M  V30 4500 C 428.038 -4.79987 -1.48048 0
M  V30 4501 C 430.032 -6.36565 -0.326097 0
M  V30 4502 C 427.719 -6.03944 -0.932443 0
M  V30 4503 C 428.717 -6.8207 -0.356247 0
M  V30 4504 O 428.405 -8.03691 0.183412 0
M  V30 4505 H 428.137 -0.600796 -0.309872 0
M  V30 4506 H 430.691 -2.02932 -0.317468 0
M  V30 4507 H 428.921 -2.67975 -2.78794 0
M  V30 4508 H 430.61 -3.07506 -2.64943 0
M  V30 4509 H 431.376 -4.77661 -0.840521 0
M  V30 4510 H 427.255 -4.1919 -1.91835 0
M  V30 4511 H 430.799 -6.97489 0.124286 0
M  V30 4512 H 426.696 -6.3833 -0.959407 0
M  V30 4513 H 427.464 -8.18468 0.0721681 0
M  V30 4514 N 430.127 0.543554 -1.4793 0
M  V30 4515 C 431.357 1.32324 -1.58663 0
M  V30 4516 C 431.765 1.8766 -0.240896 0
M  V30 4517 O 431.108 1.66411 0.778011 0
M  V30 4518 C 431.17 2.52094 -2.56299 0
M  V30 4519 C 430.834 2.17944 -4.01683 0
M  V30 4520 C 431.831 1.74422 -4.89768 0
M  V30 4521 C 429.516 2.28884 -4.47121 0
M  V30 4522 C 431.51 1.42287 -6.21316 0
M  V30 4523 C 429.197 1.96361 -5.78693 0
M  V30 4524 C 430.195 1.53132 -6.65612 0
M  V30 4525 O 429.883 1.21029 -7.94737 0
M  V30 4526 H 429.615 0.409174 -0.538101 0
M  V30 4527 H 432.169 0.663887 -1.94375 0
M  V30 4528 H 430.399 3.20965 -2.15681 0
M  V30 4529 H 432.088 3.14165 -2.57012 0
M  V30 4530 H 432.854 1.65452 -4.55907 0
M  V30 4531 H 428.733 2.61488 -3.79664 0
M  V30 4532 H 432.277 1.08472 -6.89115 0
M  V30 4533 H 428.174 2.04967 -6.12094 0
M  V30 4534 H 428.942 1.34543 -8.07366 0
M  V30 4535 N 431.605 1.3629 0.791371 0
M  V30 4536 C 432.535 1.33137 1.91825 0
M  V30 4537 C 433.516 0.203168 1.68882 0
M  V30 4538 O 434.701 0.400509 1.90025 0
M  V30 4539 C 431.831 1.11793 3.28816 0
M  V30 4540 C 430.785 2.21417 3.66277 0
M  V30 4541 C 430.111 1.85218 5.01596 0
M  V30 4542 C 431.411 3.63489 3.75064 0
M  V30 4543 H 433.105 2.2743 1.9472 0
M  V30 4544 H 430.651 1.09479 0.935437 0
M  V30 4545 H 432.604 1.08222 4.07266 0
M  V30 4546 H 431.328 0.139501 3.26302 0
M  V30 4547 H 429.987 2.2411 2.90121 0
M  V30 4548 H 429.635 0.859544 4.95602 0
M  V30 4549 H 429.335 2.58611 5.27631 0
M  V30 4550 H 430.859 1.832 5.82469 0
M  V30 4551 H 432.273 3.63034 4.43711 0
M  V30 4552 H 430.67 4.35771 4.12582 0
M  V30 4553 H 431.74 3.98536 2.76219 0
M  V30 4554 N 433.083 -1.0153 1.20538 0
M  V30 4555 C 434.03 -2.10098 0.955383 0
M  V30 4556 C 435 -1.65702 -0.114878 0
M  V30 4557 O 436.185 -1.90776 0.0301118 0
M  V30 4558 C 433.325 -3.41236 0.514969 0
M  V30 4559 C 432.438 -3.99102 1.65353 0
M  V30 4560 C 431.573 -5.18306 1.16329 0
M  V30 4561 C 430.612 -5.68258 2.27485 0
M  V30 4562 N 429.749 -6.78722 1.7967 0
M  V30 4563 H 434.589 -2.30818 1.88486 0
M  V30 4564 H 432.126 -1.13189 0.939499 0
M  V30 4565 H 434.084 -4.16504 0.240935 0
M  V30 4566 H 432.714 -3.20585 -0.377512 0
M  V30 4567 H 431.766 -3.20918 2.04245 0
M  V30 4568 H 433.078 -4.32177 2.49047 0
M  V30 4569 H 432.232 -6.00782 0.845302 0
M  V30 4570 H 430.971 -4.86799 0.296254 0
M  V30 4571 H 429.976 -4.84385 2.60099 0
M  V30 4572 H 431.201 -6.01798 3.14667 0
M  V30 4573 H 429.147 -6.49042 0.95295 0
M  V30 4574 H 429.064 -7.10996 2.56944 0
M  V30 4575 H 430.332 -7.64759 1.50875 0
M  V30 4576 N 434.561 -1.01147 -1.20859 0
M  V30 4577 C 435.972 -0.730205 -1.71828 0
M  V30 4578 C 436.323 0.751662 -1.8123 0
M  V30 4579 O 435.448 1.58686 -1.47132 0
M  V30 4580 C 436.043 -1.31885 -3.12077 0
M  V30 4581 C 434.602 -1.08656 -3.60376 0
M  V30 4582 C 433.749 -1.42769 -2.37723 0
M  V30 4583 H 436.7 -1.18158 -1.05945 0
M  V30 4584 H 436.721 -0.706793 -3.73878 0
M  V30 4585 H 436.233 -2.39737 -3.05201 0
M  V30 4586 H 434.334 -0.0254814 -3.72591 0
M  V30 4587 H 434.447 -1.76301 -4.45483 0
M  V30 4588 H 432.811 -0.846603 -2.40218 0
M  V30 4589 H 433.594 -2.51666 -2.33493 0
M  V30 4590 N 436.039 1.36541 -0.78704 0
M  V30 4591 C 437.316 1.9355 -0.282424 0
M  V30 4592 C 437.696 1.71919 1.22503 0
M  V30 4593 O 437.044 1.07677 2.01539 0
M  V30 4594 C 437.254 3.4246 -0.672462 0
M  V30 4595 C 438.602 4.19582 -0.650863 0
M  V30 4596 O 439.626 3.50889 -0.612789 0
M  V30 4597 O 438.485 5.42106 -0.691623 0
M  V30 4598 H 435.579 0.824091 -0.0693 0
M  V30 4599 H 438.125 1.45736 -0.869423 0
M  V30 4600 H 436.897 3.51851 -1.71221 0
M  V30 4601 H 436.52 3.97556 -0.0592211 0
M  V30 4602 N 437.518 0.538854 1.48102 0
M  V30 4603 C 438.764 0.0161732 2.03394 0
M  V30 4604 C 439.119 -1.31154 1.40771 0
M  V30 4605 O 438.412 -1.83613 0.547421 0
M  V30 4606 C 438.606 -0.153808 3.57069 0
M  V30 4607 C 438.435 1.15588 4.34591 0
M  V30 4608 C 437.205 1.71818 4.75191 0
M  V30 4609 C 439.403 2.06867 4.70861 0
M  V30 4610 N 437.385 2.96983 5.37284 0
M  V30 4611 C 438.756 3.16609 5.33066 0
M  V30 4612 C 440.811 2.07085 4.52791 0
M  V30 4613 C 439.514 4.26645 5.79109 0
M  V30 4614 C 441.54 3.16121 4.99821 0
M  V30 4615 C 440.902 4.24582 5.62058 0
M  V30 4616 H 437.001 0.0476346 0.780548 0
M  V30 4617 H 439.585 0.722094 1.80815 0
M  V30 4618 H 437.756 -0.828825 3.79454 0
M  V30 4619 H 439.488 -0.676896 3.98999 0
M  V30 4620 H 436.243 1.25845 4.56574 0
M  V30 4621 H 436.667 3.60732 5.72889 0
M  V30 4622 H 441.309 1.24522 4.04047 0
M  V30 4623 H 439.027 5.0998 6.26854 0
M  V30 4624 H 442.613 3.17355 4.87624 0
M  V30 4625 H 441.493 5.07562 5.97788 0
M  V30 4626 N 438.996 -1.55193 0.274407 0
M  V30 4627 C 440.221 -2.04446 -0.348824 0
M  V30 4628 C 440.646 -1.15149 -1.48735 0
M  V30 4629 O 440.004 -0.149952 -1.80679 0
M  V30 4630 C 440.052 -3.51431 -0.808009 0
M  V30 4631 O 439.156 -3.65225 -1.91531 0
M  V30 4632 H 438.497 -0.66006 -0.0722276 0
M  V30 4633 H 441.027 -2.00481 0.408498 0
M  V30 4634 H 441.037 -3.92781 -1.10395 0
M  V30 4635 H 439.712 -4.15892 0.0249865 0
M  V30 4636 H 438.289 -3.35778 -1.62196 0
M  V30 4637 N 440.474 -0.00167713 -1.576 0
M  V30 4638 C 441.421 0.989195 -2.08527 0
M  V30 4639 C 442.391 1.34031 -0.981065 0
M  V30 4640 O 443.576 1.43839 -1.2536 0
M  V30 4641 C 440.716 2.27537 -2.59463 0
M  V30 4642 C 439.829 1.98314 -3.83791 0
M  V30 4643 C 438.964 3.21025 -4.23222 0
M  V30 4644 C 438.003 2.87495 -5.40382 0
M  V30 4645 N 437.14 4.02749 -5.75098 0
M  V30 4646 H 441.98 0.547973 -2.92919 0
M  V30 4647 H 439.517 0.258917 -1.44803 0
M  V30 4648 H 441.475 3.02729 -2.87073 0
M  V30 4649 H 440.105 2.69325 -1.77943 0
M  V30 4650 H 439.157 1.13482 -3.63078 0
M  V30 4651 H 440.469 1.69601 -4.69081 0
M  V30 4652 H 439.623 4.04561 -4.52123 0
M  V30 4653 H 438.362 3.52877 -3.36644 0
M  V30 4654 H 437.367 2.02367 -5.11202 0
M  V30 4655 H 438.592 2.56889 -6.28637 0
M  V30 4656 H 436.538 4.34494 -4.91478 0
M  V30 4657 H 436.455 3.77566 -6.54966 0
M  V30 4658 H 437.723 4.87068 -6.08592 0
M  V30 4659 N 441.952 1.55251 0.271103 0
M  V30 4660 C 442.882 1.9127 1.33933 0
M  V30 4661 C 443.863 0.77478 1.5143 0
M  V30 4662 O 445.048 1.03307 1.64442 0
M  V30 4663 C 442.178 2.18627 2.69851 0
M  V30 4664 C 441.132 3.34442 2.67081 0
M  V30 4665 C 440.458 3.47284 4.06569 0
M  V30 4666 C 441.758 4.70784 2.26185 0
M  V30 4667 H 443.452 2.80744 1.04035 0
M  V30 4668 H 440.998 1.35077 0.499017 0
M  V30 4669 H 442.951 2.42413 3.44694 0
M  V30 4670 H 441.675 1.25955 3.01335 0
M  V30 4671 H 440.334 3.10627 1.94695 0
M  V30 4672 H 439.982 2.52074 4.35279 0
M  V30 4673 H 439.682 4.25152 4.0561 0
M  V30 4674 H 441.206 3.73363 4.83148 0
M  V30 4675 H 442.62 4.94102 2.90751 0
M  V30 4676 H 441.017 5.51582 2.36384 0
M  V30 4677 H 442.087 4.69478 1.21319 0
M  V30 4678 N 443.43 -0.535701 1.48216 0
M  V30 4679 C 444.678 -1.28928 1.55634 0
M  V30 4680 C 444.999 -1.93645 0.229514 0
M  V30 4681 O 444.269 -1.81038 -0.74846 0
M  V30 4682 H 442.849 -0.47884 0.573342 0
M  V30 4683 H 445.511 -0.623853 1.84646 0
M  V30 4684 H 444.607 -2.07157 2.33436 0
M  V30 4685 N 444.908 -1.36708 -0.784132 0
M  V30 4686 C 446.133 -1.34565 -1.5782 0
M  V30 4687 C 446.558 0.0695257 -1.87971 0
M  V30 4688 O 445.916 1.04302 -1.48293 0
M  V30 4689 C 445.964 -2.17952 -2.87279 0
M  V30 4690 O 445.068 -1.57563 -3.81114 0
M  V30 4691 H 444.409 -0.460337 -0.478524 0
M  V30 4692 H 446.939 -1.80064 -0.971495 0
M  V30 4693 H 446.949 -2.30721 -3.365 0
M  V30 4694 H 445.624 -3.20823 -2.64661 0
M  V30 4695 H 444.201 -1.53764 -3.39722 0
M  V30 4696 N 446.386 1.0089 -1.21074 0
M  V30 4697 C 447.797 1.56056 -1.02486 0
M  V30 4698 C 448.148 1.91728 0.416506 0
M  V30 4699 O 447.273 1.73066 1.29912 0
M  V30 4700 C 447.868 2.83563 -1.85411 0
M  V30 4701 C 446.427 3.3523 -1.71166 0
M  V30 4702 C 445.574 2.0846 -1.82865 0
M  V30 4703 H 448.525 0.831818 -1.35154 0
M  V30 4704 H 448.546 3.55286 -1.36205 0
M  V30 4705 H 448.058 2.57569 -2.9031 0
M  V30 4706 H 446.159 3.66167 -0.689361 0
M  V30 4707 H 446.272 4.06913 -2.52901 0
M  V30 4708 H 444.636 2.21275 -1.26132 0
M  V30 4709 H 445.419 1.84883 -2.89263 0
M  V30 4710 N 447.864 1.01787 1.20321 0
M  V30 4711 C 448.796 0.547357 2.22568 0
M  V30 4712 C 449.809 -0.370922 1.58518 0
M  V30 4713 O 450.998 -0.169067 1.77698 0
M  V30 4714 C 448.098 -0.223031 3.38165 0
M  V30 4715 C 447.271 0.697472 4.31803 0
M  V30 4716 C 446.33 -0.025562 5.26194 0
M  V30 4717 O 445.356 0.597367 5.66057 0
M  V30 4718 N 446.558 -1.29999 5.65757 0
M  V30 4719 H 449.323 1.42668 2.63564 0
M  V30 4720 H 446.884 0.895552 1.34876 0
M  V30 4721 H 448.876 -0.716002 3.98316 0
M  V30 4722 H 447.446 -1.00366 2.9605 0
M  V30 4723 H 446.666 1.37073 3.69601 0
M  V30 4724 H 447.954 1.32347 4.91286 0
M  V30 4725 H 447.352 -1.827 5.35385 0
M  V30 4726 H 445.909 -1.73766 6.28211 0
M  V30 4727 N 449.342 -1.36122 0.79427 0
M  V30 4728 C 450.588 -1.99406 0.369452 0
M  V30 4729 C 450.921 -1.62886 -1.05743 0
M  V30 4730 O 450.196 -0.886053 -1.73145 0
M  V30 4731 C 450.479 -3.56046 0.538833 0
M  V30 4732 C 450.332 -4.02404 2.00976 0
M  V30 4733 C 451.651 -4.40079 -0.0431359 0
M  V30 4734 H 448.77 -0.724397 0.135712 0
M  V30 4735 H 451.412 -1.61461 1.00151 0
M  V30 4736 H 449.562 -3.885 0.000771004 0
M  V30 4737 H 451.234 -3.80415 2.60926 0
M  V30 4738 H 449.477 -3.53765 2.51063 0
M  V30 4739 H 450.148 -5.11344 2.07922 0
M  V30 4740 H 452.624 -4.14013 0.416228 0
M  V30 4741 H 451.5 -5.48799 0.105374 0
M  V30 4742 H 451.761 -4.27264 -1.13571 0
M  V30 4743 N 450.82 -0.546701 -1.47814 0
M  V30 4744 C 452.066 -0.0269594 -2.03382 0
M  V30 4745 C 452.421 1.30406 -1.41464 0
M  V30 4746 O 451.714 1.8332 -0.557151 0
M  V30 4747 C 451.908 0.134869 -3.57145 0
M  V30 4748 C 451.737 -1.17891 -4.33972 0
M  V30 4749 C 450.507 -1.74336 -4.74273 0
M  V30 4750 C 452.705 -2.09361 -4.69758 0
M  V30 4751 N 450.687 -2.99829 -5.35701 0
M  V30 4752 C 452.058 -3.19431 -5.31379 0
M  V30 4753 C 454.113 -2.09484 -4.51687 0
M  V30 4754 C 452.816 -4.2971 -5.76838 0
M  V30 4755 C 454.842 -3.18767 -4.98138 0
M  V30 4756 C 454.204 -4.27557 -5.59799 0
M  V30 4757 H 450.303 -0.0517733 -0.780284 0
M  V30 4758 H 452.887 -0.731673 -1.80429 0
M  V30 4759 H 451.058 0.80869 -3.79888 0
M  V30 4760 H 452.79 0.655726 -3.99352 0
M  V30 4761 H 449.545 -1.28265 -4.559 0
M  V30 4762 H 449.969 -3.63765 -5.70968 0
M  V30 4763 H 454.611 -1.26663 -4.03381 0
M  V30 4764 H 452.329 -5.13297 -6.24141 0
M  V30 4765 H 455.915 -3.19937 -4.85934 0
M  V30 4766 H 454.795 -5.10725 -5.95088 0
M  V30 4767 N 452.299 1.55045 -0.282633 0
M  V30 4768 C 453.548 1.98938 0.332667 0
M  V30 4769 C 453.861 1.17455 1.56409 0
M  V30 4770 O 455.067 1.51527 2.25282 0
M  V30 4771 C 453.523 3.54105 0.643226 0
M  V30 4772 C 453.131 4.44374 -0.568814 0
M  V30 4773 C 454.875 4.06569 1.22074 0
M  V30 4774 C 452.782 5.90943 -0.232426 0
M  V30 4775 H 451.712 0.743043 0.128075 0
M  V30 4776 H 454.363 1.79341 -0.388464 0
M  V30 4777 H 452.745 3.69532 1.42346 0
M  V30 4778 H 453.919 4.40718 -1.34551 0
M  V30 4779 H 452.234 4.02585 -1.06369 0
M  V30 4780 H 454.831 5.13626 1.48635 0
M  V30 4781 H 455.174 3.56057 2.15707 0
M  V30 4782 H 455.707 3.94612 0.502621 0
M  V30 4783 H 452.446 6.45567 -1.13683 0
M  V30 4784 H 451.966 5.9765 0.507357 0
M  V30 4785 H 453.645 6.4677 0.172657 0
M  V30 4786 N 453.777 0.010035 1.57597 0
M  V30 4787 C 455.054 -0.710296 1.82248 0
M  V30 4788 C 455.434 -1.91426 0.889911 0
M  V30 4789 O 454.782 -2.28424 -0.0590292 0
M  V30 4790 C 454.992 -1.10655 3.30993 0
M  V30 4791 C 456.34 -1.50621 3.96987 0
M  V30 4792 O 457.364 -1.20007 3.35375 0
M  V30 4793 O 456.223 -2.07587 5.05539 0
M  V30 4794 H 453.317 -0.34673 0.750804 0
M  V30 4795 H 455.863 0.0362578 1.69661 0
M  V30 4796 H 454.635 -0.248826 3.90508 0
M  V30 4797 H 454.258 -1.91189 3.48615 0
M  V30 4798 N 455.255 -1.55392 -0.262866 0
M  V30 4799 C 456.218 -1.88181 -1.30846 0
M  V30 4800 C 457.218 -0.757079 -1.41862 0
M  V30 4801 O 458.408 -1.02519 -1.40838 0
M  V30 4802 C 455.54 -2.09609 -2.68844 0
M  V30 4803 H 456.733 -2.81659 -1.02997 0
M  V30 4804 H 454.286 -1.48039 -0.501414 0
M  V30 4805 H 455.021 -1.18547 -3.01856 0
M  V30 4806 H 454.806 -2.91508 -2.62231 0
M  V30 4807 H 456.296 -2.36215 -3.44372 0
M  V30 4808 N 456.733 0.527833 -1.48498 0
M  V30 4809 C 457.981 1.28101 -1.56316 0
M  V30 4810 C 458.302 1.9352 -0.239781 0
M  V30 4811 O 457.572 1.81433 0.738849 0
M  V30 4812 H 456.152 0.475793 -0.575873 0
M  V30 4813 H 458.814 0.614052 -1.84974 0
M  V30 4814 H 457.91 2.05916 -2.34532 0
M  V30 4815 N 458.211 1.37122 0.776871 0
M  V30 4816 C 459.439 1.3523 1.5659 0
M  V30 4817 C 459.854 -0.0635518 1.88693 0
M  V30 4818 O 459.211 -1.02394 1.51069 0
M  V30 4819 C 459.262 2.18583 2.8793 0
M  V30 4820 O 458.983 3.5465 2.57206 0
M  V30 4821 C 460.484 2.24612 3.82183 0
M  V30 4822 H 457.704 0.4634 0.485285 0
M  V30 4823 H 460.248 1.80392 0.963266 0
M  V30 4824 H 458.403 1.76943 3.4463 0
M  V30 4825 H 458.817 3.98286 3.41275 0
M  V30 4826 H 460.291 2.87267 4.71361 0
M  V30 4827 H 460.768 1.25309 4.20944 0
M  V30 4828 H 461.374 2.66543 3.31414 0
M  V30 4829 N 459.689 -1.00246 1.21608 0
M  V30 4830 C 460.621 -2.09244 0.935401 0
M  V30 4831 C 461.634 -1.62592 -0.0823594 0
M  V30 4832 O 462.823 -1.77865 0.150456 0
M  V30 4833 C 459.923 -3.36724 0.383453 0
M  V30 4834 C 459.096 -4.1245 1.45615 0
M  V30 4835 C 458.155 -5.18219 0.912991 0
M  V30 4836 O 457.181 -5.46337 1.59701 0
M  V30 4837 N 458.383 -5.7987 -0.270478 0
M  V30 4838 H 461.148 -2.33905 1.87373 0
M  V30 4839 H 458.709 -1.16748 1.12167 0
M  V30 4840 H 460.701 -4.047 0.00562157 0
M  V30 4841 H 459.271 -3.09201 -0.459758 0
M  V30 4842 H 458.491 -3.39241 2.00772 0
M  V30 4843 H 459.779 -4.59819 2.17817 0
M  V30 4844 H 459.177 -5.59381 -0.843195 0
M  V30 4845 H 457.734 -6.49126 -0.589794 0
M  V30 4846 N 461.167 -1.02423 -1.1978 0
M  V30 4847 C 462.416 -0.713265 -1.88667 0
M  V30 4848 C 462.729 0.7609 -1.80193 0
M  V30 4849 O 463.935 1.18473 -2.44288 0
M  V30 4850 C 462.391 -1.22545 -3.38394 0
M  V30 4851 C 461.999 -2.72706 -3.55437 0
M  V30 4852 C 463.743 -0.990257 -4.12788 0
M  V30 4853 C 461.65 -3.17367 -4.99031 0
M  V30 4854 H 460.58 -0.263105 -0.706606 0
M  V30 4855 H 463.231 -1.23792 -1.35454 0
M  V30 4856 H 461.613 -0.628732 -3.90977 0
M  V30 4857 H 462.787 -3.37993 -3.13205 0
M  V30 4858 H 461.102 -2.94453 -2.94425 0
M  V30 4859 H 463.699 -1.29926 -5.18675 0
M  V30 4860 H 464.042 0.0730761 -4.16236 0
M  V30 4861 H 464.575 -1.55074 -3.66329 0
M  V30 4862 H 461.314 -4.23009 -5.00743 0
M  V30 4863 H 460.834 -2.56805 -5.42044 0
M  V30 4864 H 462.513 -3.10441 -5.67658 0
M  V30 4865 N 462.645 1.35699 -0.801477 0
M  V30 4866 C 463.892 1.98913 -0.379459 0
M  V30 4867 C 464.22 1.63592 1.05204 0
M  V30 4868 O 463.475 0.888563 1.74365 0
M  V30 4869 C 463.774 3.53828 -0.504041 0
M  V30 4870 C 463.44 4.09002 -1.8981 0
M  V30 4871 C 462.102 4.23783 -2.27951 0
M  V30 4872 C 464.454 4.38939 -2.81038 0
M  V30 4873 C 461.782 4.65816 -3.56696 0
M  V30 4874 C 464.134 4.82409 -4.09224 0
M  V30 4875 C 462.798 4.95395 -4.4737 0
M  V30 4876 H 462.068 0.727874 -0.138854 0
M  V30 4877 H 464.715 1.61994 -1.02128 0
M  V30 4878 H 463.02 3.91175 0.221242 0
M  V30 4879 H 464.717 4.00687 -0.158361 0
M  V30 4880 H 461.307 3.97946 -1.59176 0
M  V30 4881 H 465.491 4.27077 -2.52821 0
M  V30 4882 H 460.747 4.74059 -3.86106 0
M  V30 4883 H 464.921 5.04535 -4.80018 0
M  V30 4884 H 462.548 5.27724 -5.47185 0
M  V30 4885 N 464.123 0.554532 1.47522 0
M  V30 4886 C 465.37 0.029479 2.02479 0
M  V30 4887 C 465.698 -1.31929 1.42916 0
M  V30 4888 O 464.953 -1.87112 0.573385 0
M  V30 4889 C 465.252 -0.115927 3.57212 0
M  V30 4890 C 464.918 1.16161 4.3568 0
M  V30 4891 C 463.58 1.51168 4.56839 0
M  V30 4892 C 465.932 2.0083 4.80954 0
M  V30 4893 C 463.26 2.70696 5.2052 0
M  V30 4894 C 465.612 3.19559 5.45953 0
M  V30 4895 C 464.276 3.54882 5.65345 0
M  V30 4896 H 463.546 0.0107871 0.740921 0
M  V30 4897 H 466.193 0.725506 1.77225 0
M  V30 4898 H 464.498 -0.894902 3.81443 0
M  V30 4899 H 466.195 -0.53749 3.97381 0
M  V30 4900 H 462.785 0.879026 4.19489 0
M  V30 4901 H 466.969 1.75093 4.64388 0
M  V30 4902 H 462.225 2.98236 5.33728 0
M  V30 4903 H 466.399 3.85456 5.79997 0
M  V30 4904 H 464.026 4.47596 6.1446 0
M  V30 4905 N 465.601 -1.54893 0.290851 0
M  V30 4906 C 466.826 -2.04804 -0.32712 0
M  V30 4907 C 467.251 -1.16721 -1.47506 0
M  V30 4908 O 466.609 -0.169107 -1.8051 0
M  V30 4909 C 466.657 -3.52268 -0.770689 0
M  V30 4910 O 465.761 -3.67236 -1.87647 0
M  V30 4911 H 465.102 -0.660789 -0.0652227 0
M  V30 4912 H 467.632 -2.00036 0.429739 0
M  V30 4913 H 467.642 -3.9393 -1.06223 0
M  V30 4914 H 466.317 -4.15843 0.069096 0
M  V30 4915 H 464.894 -3.37479 -1.58626 0
M  V30 4916 N 467.08 -0.0183926 -1.57589 0
M  V30 4917 C 468.31 0.67207 -1.95363 0
M  V30 4918 C 468.718 1.66807 -0.892872 0
M  V30 4919 O 468.061 1.83204 0.134958 0
M  V30 4920 C 468.123 1.44397 -3.29226 0
M  V30 4921 C 467.787 0.607511 -4.52944 0
M  V30 4922 C 468.784 -0.112657 -5.19778 0
M  V30 4923 C 466.469 0.548068 -4.99301 0
M  V30 4924 C 468.463 -0.881057 -6.31281 0
M  V30 4925 C 466.15 -0.224044 -6.10689 0
M  V30 4926 C 467.148 -0.937323 -6.76538 0
M  V30 4927 O 466.836 -1.6968 -7.85789 0
M  V30 4928 H 466.568 0.190925 -0.648478 0
M  V30 4929 H 469.122 -0.0711994 -2.05277 0
M  V30 4930 H 467.352 2.23214 -3.15773 0
M  V30 4931 H 469.041 2.02152 -3.51979 0
M  V30 4932 H 469.807 -0.0759998 -4.8494 0
M  V30 4933 H 465.686 1.09281 -4.4786 0
M  V30 4934 H 469.23 -1.43832 -6.82611 0
M  V30 4935 H 465.127 -0.262457 -6.44966 0
M  V30 4936 H 465.895 -1.61544 -8.024 0
M  V30 4937 N 468.558 1.5553 0.254621 0
M  V30 4938 C 469.521 1.88872 1.29846 0
M  V30 4939 C 470.521 0.764591 1.41459 0
M  V30 4940 O 471.711 1.03265 1.40293 0
M  V30 4941 C 468.843 2.11032 2.67728 0
M  V30 4942 H 470.036 2.82201 1.01502 0
M  V30 4943 H 467.589 1.48303 0.493556 0
M  V30 4944 H 468.324 1.20146 3.01223 0
M  V30 4945 H 468.109 2.92895 2.60682 0
M  V30 4946 H 469.599 2.38038 3.43115 0
M  V30 4947 N 470.036 -0.519951 1.48776 0
M  V30 4948 C 471.285 -1.27175 1.56555 0
M  V30 4949 C 471.598 -1.9401 0.248869 0
M  V30 4950 O 472.804 -2.70725 0.205004 0
M  V30 4951 C 471.26 -2.30811 2.76142 0
M  V30 4952 C 470.868 -1.7 4.14493 0
M  V30 4953 C 472.612 -3.06937 2.9324 0
M  V30 4954 C 470.519 -2.71635 5.25327 0
M  V30 4955 H 469.449 -0.478329 0.582853 0
M  V30 4956 H 472.1 -0.547916 1.75129 0
M  V30 4957 H 470.482 -3.06274 2.51023 0
M  V30 4958 H 471.656 -1.00658 4.49672 0
M  V30 4959 H 469.971 -1.06331 4.02595 0
M  V30 4960 H 472.568 -3.82905 3.73213 0
M  V30 4961 H 472.911 -3.63409 2.03075 0
M  V30 4962 H 473.444 -2.38589 3.18308 0
M  V30 4963 H 470.183 -2.1997 6.1749 0
M  V30 4964 H 469.703 -3.39275 4.94624 0
M  V30 4965 H 471.382 -3.34429 5.53865 0
M  V30 4966 N 471.514 -1.37532 -0.769588 0
M  V30 4967 C 472.762 -1.32597 -1.5252 0
M  V30 4968 C 473.083 0.0884294 -1.94799 0
M  V30 4969 O 472.353 1.03289 -1.66458 0
M  V30 4970 H 470.933 -0.487846 -0.565699 0
M  V30 4971 H 473.595 -1.72044 -0.915806 0
M  V30 4972 H 472.691 -1.96643 -2.42359 0
M  V30 4973 N 472.992 0.995999 -1.22138 0
M  V30 4974 C 473.922 2.10387 -1.01289 0
M  V30 4975 C 474.903 1.69975 0.0651454 0
M  V30 4976 O 476.088 1.9396 -0.0964628 0
M  V30 4977 C 473.218 3.42312 -0.586517 0
M  V30 4978 C 472.172 3.96558 -1.61014 0
M  V30 4979 C 471.498 5.24494 -1.0397 0
M  V30 4980 C 472.798 4.27595 -2.99933 0
M  V30 4981 H 474.492 2.28086 -1.93951 0
M  V30 4982 H 472.038 1.09607 -0.933928 0
M  V30 4983 H 473.991 4.19223 -0.427793 0
M  V30 4984 H 472.715 3.24431 0.375761 0
M  V30 4985 H 471.374 3.21776 -1.75658 0
M  V30 4986 H 471.022 5.02953 -0.0688703 0
M  V30 4987 H 470.722 5.61755 -1.72352 0
M  V30 4988 H 472.246 6.04042 -0.892494 0
M  V30 4989 H 473.66 4.95315 -2.8868 0
M  V30 4990 H 472.057 4.76021 -3.6541 0
M  V30 4991 H 473.127 3.35498 -3.50099 0
M  V30 4992 N 474.47 1.03057 1.19235 0
M  V30 4993 C 475.718 0.726581 1.88587 0
M  V30 4994 C 476.039 -0.747227 1.80115 0
M  V30 4995 O 475.309 -1.53849 1.21274 0
M  V30 4996 H 473.889 0.265768 0.698124 0
M  V30 4997 H 476.551 1.30516 1.44746 0
M  V30 4998 H 475.647 1.0224 2.94879 0
M  V30 4999 N 475.948 -1.35272 0.808662 0
M  V30 5000 C 476.911 -2.28082 0.226093 0
M  V30 5001 C 477.911 -1.49673 -0.587762 0
M  V30 5002 O 479.101 -1.69404 -0.405943 0
M  V30 5003 C 476.233 -3.33955 -0.684596 0
M  V30 5004 H 477.426 -2.81116 1.04469 0
M  V30 5005 H 474.979 -1.45162 0.579466 0
M  V30 5006 H 475.714 -2.86111 -1.5268 0
M  V30 5007 H 475.499 -3.91965 -0.102699 0
M  V30 5008 H 476.989 -4.03219 -1.08646 0
M  V30 5009 N 477.426 -0.562348 -1.47226 0
M  V30 5010 C 478.356 0.170627 -2.32876 0
M  V30 5011 C 479.337 0.903748 -1.44106 0
M  V30 5012 O 480.522 0.883206 -1.72954 0
M  V30 5013 C 477.652 1.19786 -3.25989 0
M  V30 5014 C 476.606 0.580875 -4.2404 0
M  V30 5015 C 475.932 1.71311 -5.06514 0
M  V30 5016 C 477.232 -0.468714 -5.20193 0
M  V30 5017 H 478.926 -0.544441 -2.94408 0
M  V30 5018 H 476.472 -0.263271 -1.41573 0
M  V30 5019 H 478.425 1.71884 -3.84752 0
M  V30 5020 H 477.149 1.94294 -2.62521 0
M  V30 5021 H 475.808 0.0811538 -3.6651 0
M  V30 5022 H 475.456 2.44736 -4.39447 0
M  V30 5023 H 475.156 1.30604 -5.72902 0
M  V30 5024 H 476.68 2.23725 -5.68137 0
M  V30 5025 H 478.094 -0.0336028 -5.7329 0
M  V30 5026 H 476.491 -0.794957 -5.94811 0
M  V30 5027 H 477.561 -1.36269 -4.65359 0
M  V30 5028 N 478.904 1.54736 -0.299062 0
M  V30 5029 C 480.132 2.04512 0.313447 0
M  V30 5030 C 480.547 1.17643 1.47667 0
M  V30 5031 O 479.904 0.20164 1.81383 0
M  V30 5032 C 479.955 3.53171 0.771542 0
M  V30 5033 O 479.676 4.36736 -0.345379 0
M  V30 5034 C 481.177 4.18936 1.4494 0
M  V30 5035 H 478.397 0.667507 0.0683784 0
M  V30 5036 H 480.941 1.99752 -0.438129 0
M  V30 5037 H 479.096 3.58298 1.47314 0
M  V30 5038 H 479.51 5.24499 0.0109219 0
M  V30 5039 H 480.984 5.24482 1.72111 0
M  V30 5040 H 481.461 3.68554 2.38883 0
M  V30 5041 H 482.067 4.17879 0.791028 0
M  V30 5042 N 480.382 0.0267497 1.57577 0
M  V30 5043 C 481.345 -0.940916 2.08996 0
M  V30 5044 C 482.345 -1.25561 1.00455 0
M  V30 5045 O 483.535 -1.19634 1.26623 0
M  V30 5046 C 480.667 -2.25814 2.55384 0
M  V30 5047 H 481.86 -0.495628 2.95776 0
M  V30 5048 H 479.413 -0.221241 1.54726 0
M  V30 5049 H 480.148 -2.74976 1.71926 0
M  V30 5050 H 479.933 -2.04285 3.34679 0
M  V30 5051 H 481.423 -2.95178 2.95398 0
M  V30 5052 N 481.861 -1.55662 -0.24637 0
M  V30 5053 C 482.791 -1.93377 -1.30873 0
M  V30 5054 C 483.772 -0.798773 -1.50179 0
M  V30 5055 O 484.957 -1.0591 -1.62778 0
M  V30 5056 C 482.087 -2.22893 -2.66338 0
M  V30 5057 C 481.041 -3.38649 -2.61727 0
M  V30 5058 C 480.367 -3.53708 -4.00992 0
M  V30 5059 C 481.667 -4.74323 -2.18666 0
M  V30 5060 H 483.361 -2.82363 -0.995552 0
M  V30 5061 H 480.907 -1.35854 -0.477464 0
M  V30 5062 H 482.86 -2.47866 -3.40794 0
M  V30 5063 H 481.584 -1.30733 -2.99293 0
M  V30 5064 H 480.243 -3.13685 -1.89729 0
M  V30 5065 H 479.891 -2.58967 -4.31214 0
M  V30 5066 H 479.591 -4.31551 -3.98795 0
M  V30 5067 H 481.115 -3.81003 -4.77147 0
M  V30 5068 H 482.529 -4.98665 -2.82854 0
M  V30 5069 H 480.926 -5.55273 -2.27579 0
M  V30 5070 H 481.996 -4.71349 -1.13834 0
M  V30 5071 N 483.339 0.512053 -1.4905 0
M  V30 5072 C 484.587 1.26436 -1.57665 0
M  V30 5073 C 484.908 1.93255 -0.260293 0
M  V30 5074 O 484.178 1.82206 0.719564 0
M  V30 5075 H 482.758 0.469658 -0.580888 0
M  V30 5076 H 485.42 0.594398 -1.85615 0
M  V30 5077 H 484.516 2.03417 -2.36702 0
M  V30 5078 N 484.817 1.37938 0.762283 0
M  V30 5079 C 486.042 1.37059 1.55659 0
M  V30 5080 C 486.467 -0.0396123 1.88058 0
M  V30 5081 O 485.825 -1.01929 1.49934 0
M  V30 5082 C 485.873 2.22494 2.83776 0
M  V30 5083 O 484.977 1.63607 3.78559 0
M  V30 5084 H 484.318 0.467892 0.47114 0
M  V30 5085 H 486.848 1.81587 0.942725 0
M  V30 5086 H 486.858 2.36045 3.32786 0
M  V30 5087 H 485.533 3.24993 2.59524 0
M  V30 5088 H 484.11 1.5915 3.37233 0
M  V30 5089 N 486.295 -0.989507 1.22664 0
M  V30 5090 C 487.525 -1.7624 1.0781 0
M  V30 5091 C 487.933 -1.85466 -0.374036 0
M  V30 5092 O 487.276 -1.32645 -1.27087 0
M  V30 5093 C 487.338 -3.21007 1.61849 0
M  V30 5094 C 487.002 -3.35316 3.10503 0
M  V30 5095 C 487.999 -3.22362 4.07896 0
M  V30 5096 C 485.684 -3.60258 3.50028 0
M  V30 5097 C 487.678 -3.34139 5.42798 0
M  V30 5098 C 485.365 -3.71676 4.85078 0
M  V30 5099 C 486.363 -3.58625 5.81272 0
M  V30 5100 O 486.051 -3.69655 7.1387 0
M  V30 5101 H 485.783 -0.560209 0.378341 0
M  V30 5102 H 488.337 -1.25252 1.62792 0
M  V30 5103 H 486.567 -3.73202 1.01279 0
M  V30 5104 H 488.256 -3.80024 1.42606 0
M  V30 5105 H 489.022 -3.03 3.78703 0
M  V30 5106 H 484.901 -3.69492 2.75675 0
M  V30 5107 H 488.445 -3.23869 6.17863 0
M  V30 5108 H 484.342 -3.90545 5.1395 0
M  V30 5109 H 485.11 -3.86507 7.21495 0
M  V30 5110 N 487.773 -1.03688 -1.18687 0
M  V30 5111 C 488.721 -0.618292 -2.24232 0
M  V30 5112 C 489.715 0.353045 -1.6568 0
M  V30 5113 O 490.921 0.220749 -1.78641 0
M  V30 5114 H 487.296 -0.181711 -0.729716 0
M  V30 5115 H 489.267 -1.51893 -2.56848 0
M  V30 5116 C 488.016 0.00677342 -3.47699 0
M  V30 5117 H 487.339 -0.731692 -3.93047 0
M  V30 5118 H 488.779 0.262492 -4.23187 0
M  V30 5119 C 487.238 1.25572 -3.12623 0
M  V30 5120 O 487.768 2.34691 -3.26011 0
M  V30 5121 N 485.974 1.14755 -2.66982 0
M  V30 5122 H 485.521 0.259601 -2.56289 0
M  V30 5123 H 485.479 1.98412 -2.43885 0
M  V30 5124 N 489.251 1.34841 -0.815825 0
M  V30 5125 C 490.667 1.51543 -0.500697 0
M  V30 5126 C 490.867 1.76261 0.976444 0
M  V30 5127 O 489.923 1.8094 1.76117 0
M  V30 5128 C 491.236 2.68487 -1.35407 0
M  V30 5129 C 492.784 2.82368 -1.35046 0
M  V30 5130 C 493.259 4.02347 -2.18816 0
M  V30 5131 N 494.75 4.09542 -2.16402 0
M  V30 5132 C 495.485 5.01517 -2.77971 0
M  V30 5133 N 494.981 5.98763 -3.48503 0
M  V30 5134 N 496.774 4.94334 -2.67563 0
M  V30 5135 H 488.925 1.17055 -1.77234 0
M  V30 5136 H 491.188 0.573481 -0.754866 0
M  V30 5137 H 490.894 2.56829 -2.40274 0
M  V30 5138 H 490.768 3.63321 -1.01377 0
M  V30 5139 H 493.155 2.93471 -0.309604 0
M  V30 5140 H 493.236 1.88363 -1.73069 0
M  V30 5141 H 492.88 3.92004 -3.22948 0
M  V30 5142 H 492.81 4.95551 -1.78148 0
M  V30 5143 H 495.301 3.39932 -1.65091 0
M  V30 5144 H 495.614 6.6556 -3.92747 0
M  V30 5145 H 493.959 5.98909 -3.52609 0
M  V30 5146 H 497.15 4.1732 -2.12041 0
M  V30 5147 H 497.323 5.6582 -3.15834 0
M  V30 5148 N 490.729 0.570148 1.46925 0
M  V30 5149 C 491.976 0.0509529 2.02436 0
M  V30 5150 C 492.304 -1.30405 1.44308 0
M  V30 5151 O 491.559 -1.86493 0.593198 0
M  V30 5152 C 491.858 -0.0780336 3.57315 0
M  V30 5153 C 491.524 1.20775 4.34424 0
M  V30 5154 C 490.186 1.56004 4.5521 0
M  V30 5155 C 492.538 2.0592 4.78797 0
M  V30 5156 C 489.866 2.76201 5.17619 0
M  V30 5157 C 492.218 3.25332 5.42533 0
M  V30 5158 C 490.882 3.60859 5.61549 0
M  V30 5159 H 490.152 0.018645 0.740765 0
M  V30 5160 H 492.799 0.744262 1.76445 0
M  V30 5161 H 491.104 -0.854394 3.82371 0
M  V30 5162 H 492.801 -0.495312 3.97929 0
M  V30 5163 H 489.391 0.923469 4.18533 0
M  V30 5164 H 493.575 1.80008 4.62505 0
M  V30 5165 H 488.831 3.0388 5.30535 0
M  V30 5166 H 493.005 3.91586 5.75876 0
M  V30 5167 H 490.632 4.54088 6.09678 0
M  V30 5168 N 492.207 -1.54576 0.307264 0
M  V30 5169 C 493.155 -2.25208 -0.581723 0
M  V30 5170 C 494.149 -1.26031 -1.13192 0
M  V30 5171 O 495.355 -1.43862 -1.08184 0
M  V30 5172 H 491.73 -0.723173 -0.206214 0
M  V30 5173 H 493.701 -2.98378 0.0364663 0
M  V30 5174 C 492.45 -3.01086 -1.73904 0
M  V30 5175 H 491.773 -3.77208 -1.32491 0
M  V30 5176 H 493.213 -3.5378 -2.33701 0
M  V30 5177 C 491.672 -2.08422 -2.64692 0
M  V30 5178 O 492.202 -1.65636 -3.65961 0
M  V30 5179 N 490.408 -1.74247 -2.32564 0
M  V30 5180 H 489.955 -2.09238 -1.50257 0
M  V30 5181 H 489.913 -1.12524 -2.93574 0
M  V30 5182 N 493.685 -0.035106 -1.57561 0
M  V30 5183 C 494.633 0.962707 -2.11742 0
M  V30 5184 C 495.627 1.33296 -1.0454 0
M  V30 5185 O 496.833 1.31449 -1.22968 0
M  V30 5186 H 493.208 0.32826 -0.676572 0
M  V30 5187 H 495.179 0.48048 -2.94506 0
M  V30 5188 C 493.928 2.23388 -2.66445 0
M  V30 5189 H 493.251 1.95774 -3.48587 0
M  V30 5190 H 494.691 2.91402 -3.07995 0
M  V30 5191 C 493.15 2.96769 -1.59467 0
M  V30 5192 O 493.68 3.89105 -0.998 0
M  V30 5193 N 491.886 2.59212 -1.31369 0
M  V30 5194 H 491.433 1.84202 -1.80076 0
M  V30 5195 H 491.391 3.08618 -0.600173 0
M  V30 5196 N 495.163 1.55791 0.238111 0
M  V30 5197 C 496.111 1.91885 1.31464 0
M  V30 5198 C 497.105 0.798929 1.49377 0
M  V30 5199 O 498.311 0.983626 1.50747 0
M  V30 5200 H 494.686 0.609551 0.440399 0
M  V30 5201 H 496.657 2.81747 0.982925 0
M  V30 5202 C 495.406 2.23763 2.6613 0
M  V30 5203 H 494.729 3.09444 2.53149 0
M  V30 5204 H 496.169 2.52915 3.40309 0
M  V30 5205 C 494.628 1.05699 3.1989 0
M  V30 5206 O 495.158 0.309524 4.00506 0
M  V30 5207 N 493.364 0.845251 2.78036 0
M  V30 5208 H 492.911 1.4548 2.12588 0
M  V30 5209 H 492.869 0.0569973 3.14348 0
M  V30 5210 N 496.642 -0.504142 1.49319 0
M  V30 5211 C 497.882 -1.26867 1.60263 0
M  V30 5212 C 498.246 -1.89924 0.281578 0
M  V30 5213 O 499.447 -2.67479 0.266176 0
M  V30 5214 C 497.718 -2.30956 2.72753 0
M  V30 5215 S 499.277 -3.1679 3.03628 0
M  V30 5216 H 496.095 -0.431198 0.565322 0
M  V30 5217 H 498.697 -0.571407 1.86963 0
M  V30 5218 H 497.401 -1.83156 3.67263 0
M  V30 5219 H 496.932 -3.05356 2.48035 0
M  V30 5220 H 498.947 -4.31549 2.44908 0
M  V30 5221 N 498.12 -1.38341 -0.754957 0
M  V30 5222 C 499.35 -1.37504 -1.54195 0
M  V30 5223 C 499.758 0.0373787 -1.89163 0
M  V30 5224 O 499.101 1.01402 -1.53178 0
M  V30 5225 C 499.163 -2.16488 -2.87008 0
M  V30 5226 C 498.827 -3.65311 -2.74585 0
M  V30 5227 C 499.824 -4.58834 -2.44474 0
M  V30 5228 C 497.509 -4.08649 -2.9208 0
M  V30 5229 C 499.503 -5.93675 -2.32011 0
M  V30 5230 C 497.19 -5.43571 -2.79237 0
M  V30 5231 C 498.188 -6.35898 -2.49245 0
M  V30 5232 O 497.876 -7.68338 -2.36458 0
M  V30 5233 H 497.608 -0.472159 -0.483779 0
M  V30 5234 H 500.162 -1.82515 -0.94221 0
M  V30 5235 H 498.392 -1.66194 -3.49166 0
M  V30 5236 H 500.081 -2.08076 -3.4851 0
M  V30 5237 H 500.847 -4.26657 -2.30627 0
M  V30 5238 H 496.726 -3.37134 -3.14422 0
M  V30 5239 H 500.27 -6.65706 -2.08522 0
M  V30 5240 H 496.167 -5.75345 -2.92657 0
M  V30 5241 H 496.935 -7.78845 -2.5168 0
M  V30 5242 N 499.598 0.982988 -1.23187 0
M  V30 5243 C 500.545 2.07491 -1.01075 0
M  V30 5244 C 501.515 1.65949 0.070905 0
M  V30 5245 O 502.7 1.90629 -0.0806822 0
M  V30 5246 C 499.84 3.39751 -0.605261 0
M  V30 5247 C 498.953 3.94578 -1.75876 0
M  V30 5248 C 498.088 5.15039 -1.3003 0
M  V30 5249 C 497.127 5.62027 -2.42472 0
M  V30 5250 N 496.264 6.73719 -1.97602 0
M  V30 5251 H 501.104 2.25739 -1.9454 0
M  V30 5252 H 498.641 1.10659 -0.969179 0
M  V30 5253 H 500.599 4.15719 -0.351279 0
M  V30 5254 H 499.229 3.21473 0.292382 0
M  V30 5255 H 498.281 3.1539 -2.12681 0
M  V30 5256 H 499.593 4.25422 -2.60418 0
M  V30 5257 H 498.747 5.9833 -1.00429 0
M  V30 5258 H 497.486 4.85843 -0.425216 0
M  V30 5259 H 496.491 4.77318 -2.7285 0
M  V30 5260 H 497.716 5.93244 -3.30512 0
M  V30 5261 H 495.662 6.46287 -1.1247 0
M  V30 5262 H 495.579 7.03934 -2.75705 0
M  V30 5263 H 496.847 7.6049 -1.71098 0
M  V30 5264 N 501.076 1.04316 1.18135 0
M  V30 5265 C 502.353 0.662166 1.84051 0
M  V30 5266 C 502.733 -0.858169 1.9287 0
M  V30 5267 O 502.081 -1.76062 1.45652 0
M  V30 5268 C 502.291 1.3409 3.22212 0
M  V30 5269 C 503.639 1.4733 3.9822 0
M  V30 5270 O 504.663 1.29921 3.31661 0
M  V30 5271 O 503.522 1.75722 5.17479 0
M  V30 5272 H 500.616 0.232005 0.79379 0
M  V30 5273 H 503.162 1.1422 1.25506 0
M  V30 5274 H 501.934 2.37853 3.10711 0
M  V30 5275 H 501.557 0.849649 3.88416 0
M  V30 5276 N 502.554 -1.34406 0.822964 0
M  V30 5277 C 503.517 -2.2783 0.250271 0
M  V30 5278 C 504.517 -1.50288 -0.571854 0
M  V30 5279 O 505.707 -1.69825 -0.387952 0
M  V30 5280 C 502.839 -3.34663 -0.649137 0
M  V30 5281 H 504.032 -2.79992 1.07444 0
M  V30 5282 H 501.585 -1.44539 0.594829 0
M  V30 5283 H 502.32 -2.87714 -1.49637 0
M  V30 5284 H 502.105 -3.92052 -0.0611199 0
M  V30 5285 H 503.595 -4.04349 -1.04363 0
M  V30 5286 N 504.032 -0.577932 -1.46621 0
M  V30 5287 C 505.281 -0.0594281 -2.01612 0
M  V30 5288 C 505.594 1.30663 -1.45556 0
M  V30 5289 O 506.8 1.91621 -1.92337 0
M  V30 5290 C 505.256 -0.0556666 -3.59857 0
M  V30 5291 C 504.864 -1.41975 -4.24908 0
M  V30 5292 C 506.608 0.409143 -4.22524 0
M  V30 5293 C 504.515 -1.37397 -5.75218 0
M  V30 5294 H 503.445 -0.0184469 -0.753774 0
M  V30 5295 H 506.096 -0.728869 -1.68404 0
M  V30 5296 H 504.478 0.679843 -3.90121 0
M  V30 5297 H 505.652 -2.17461 -4.0626 0
M  V30 5298 H 503.967 -1.82419 -3.74316 0
M  V30 5299 H 506.564 0.46211 -5.32699 0
M  V30 5300 H 506.907 1.42565 -3.91128 0
M  V30 5301 H 507.44 -0.272152 -3.96868 0
M  V30 5302 H 504.179 -2.36714 -6.11267 0
M  V30 5303 H 503.699 -0.661239 -5.96144 0
M  V30 5304 H 505.378 -1.08484 -6.3784 0
M  V30 5305 N 505.51 1.54411 -0.315457 0
M  V30 5306 C 506.759 1.99599 0.290395 0
M  V30 5307 C 507.072 1.20746 1.53882 0
M  V30 5308 O 508.278 1.56272 2.22017 0
M  V30 5309 C 506.734 3.5539 0.56797 0
M  V30 5310 C 506.342 4.43068 -0.662945 0
M  V30 5311 C 508.086 4.09067 1.13422 0
M  V30 5312 C 505.993 5.90317 -0.357722 0
M  V30 5313 H 504.923 0.745592 0.112286 0
M  V30 5314 H 507.574 1.78477 -0.426418 0
M  V30 5315 H 505.956 3.72468 1.34476 0
M  V30 5316 H 507.13 4.37765 -1.43869 0
M  V30 5317 H 505.445 4.00238 -1.14884 0
M  V30 5318 H 508.042 5.16663 1.37707 0
M  V30 5319 H 508.385 3.60552 2.08106 0
M  V30 5320 H 508.918 3.95589 0.418805 0
M  V30 5321 H 505.657 6.4301 -1.27351 0
M  V30 5322 H 505.177 5.98592 0.380472 0
M  V30 5323 H 506.856 6.4699 0.0354284 0
M  V30 5324 N 506.988 0.0434614 1.5754 0
M  V30 5325 C 507.918 -0.931651 2.14109 0
M  V30 5326 C 508.899 -1.32971 1.06079 0
M  V30 5327 O 510.084 -1.40579 1.33982 0
M  V30 5328 C 507.214 -2.20914 2.67982 0
M  V30 5329 C 506.168 -1.95139 3.80926 0
M  V30 5330 C 505.494 -3.29276 4.21285 0
M  V30 5331 C 506.794 -1.27913 5.06395 0
M  V30 5332 H 508.488 -0.460497 2.95837 0
M  V30 5333 H 506.034 -0.220058 1.42309 0
M  V30 5334 H 507.987 -2.89522 3.06194 0
M  V30 5335 H 506.711 -2.70221 1.83434 0
M  V30 5336 H 505.37 -1.28945 3.43175 0
M  V30 5337 H 505.018 -3.76369 3.33699 0
M  V30 5338 H 504.718 -3.12831 4.97404 0
M  V30 5339 H 506.242 -3.99129 4.62091 0
M  V30 5340 H 507.656 -1.86544 5.42102 0
M  V30 5341 H 506.053 -1.2182 5.87605 0
M  V30 5342 H 507.123 -0.254066 4.84234 0
M  V30 5343 N 508.466 -1.55915 -0.229846 0
M  V30 5344 C 509.429 -1.90914 -1.26824 0
M  V30 5345 C 510.429 -0.786999 -1.40225 0
M  V30 5346 O 511.619 -1.05484 -1.38632 0
M  V30 5347 C 508.751 -2.15264 -2.64337 0
M  V30 5348 H 509.944 -2.8378 -0.969998 0
M  V30 5349 H 507.497 -1.49069 -0.4699 0
M  V30 5350 H 508.232 -1.24923 -2.99274 0
M  V30 5351 H 508.017 -2.97005 -2.55989 0
M  V30 5352 H 509.507 -2.43467 -3.39284 0
M  V30 5353 N 509.944 0.496216 -1.49584 0
M  V30 5354 C 510.874 1.60576 -1.69521 0
M  V30 5355 C 511.855 1.61169 -0.543933 0
M  V30 5356 O 513.04 1.77834 -0.78031 0
M  V30 5357 C 510.17 2.99038 -1.76616 0
M  V30 5358 C 509.124 3.13312 -2.91581 0
M  V30 5359 C 508.45 4.53172 -2.83794 0
M  V30 5360 C 509.75 2.92886 -4.32452 0
M  V30 5361 H 511.444 1.44146 -2.62416 0
M  V30 5362 H 508.99 0.692024 -1.26282 0
M  V30 5363 H 510.943 3.76564 -1.8915 0
M  V30 5364 H 509.667 3.16568 -0.80324 0
M  V30 5365 H 508.326 2.38213 -2.78658 0
M  V30 5366 H 507.974 4.67585 -1.854 0
M  V30 5367 H 507.674 4.63662 -3.60958 0
M  V30 5368 H 509.198 5.32752 -2.98342 0
M  V30 5369 H 510.612 3.60178 -4.46032 0
M  V30 5370 H 509.009 3.14844 -5.10875 0
M  V30 5371 H 510.079 1.88966 -4.46565 0
M  V30 5372 N 511.423 1.38739 0.74761 0
M  V30 5373 C 512.672 1.3459 1.50228 0
M  V30 5374 C 512.985 -0.0595592 1.95509 0
M  V30 5375 O 514.191 -0.22361 2.70578 0
M  V30 5376 C 512.647 2.36377 2.71393 0
M  V30 5377 C 512.255 3.82573 2.33113 0
M  V30 5378 C 513.999 2.41281 3.49262 0
M  V30 5379 C 511.906 4.76032 3.50924 0
M  V30 5380 H 510.836 0.500312 0.564096 0
M  V30 5381 H 513.487 1.64324 0.8167 0
M  V30 5382 H 511.869 1.99694 3.41962 0
M  V30 5383 H 513.043 4.28227 1.70171 0
M  V30 5384 H 511.358 3.80844 1.68365 0
M  V30 5385 H 513.955 3.08301 4.36869 0
M  V30 5386 H 514.298 1.43353 3.9084 0
M  V30 5387 H 514.831 2.76793 2.85711 0
M  V30 5388 H 511.57 5.75177 3.14408 0
M  V30 5389 H 511.09 4.35066 4.12889 0
M  V30 5390 H 512.769 4.94331 4.17427 0
M  V30 5391 N 512.901 -0.976442 1.23707 0
M  V30 5392 C 513.849 -2.09078 1.01927 0
M  V30 5393 C 514.843 -1.69345 -0.0430193 0
M  V30 5394 O 516.049 -1.79659 0.110814 0
M  V30 5395 H 512.424 -0.68398 0.312531 0
M  V30 5396 H 514.395 -2.24614 1.96447 0
M  V30 5397 C 513.144 -3.41919 0.631385 0
M  V30 5398 H 512.467 -3.72946 1.44053 0
M  V30 5399 H 513.907 -4.20817 0.518532 0
M  V30 5400 C 512.366 -3.30357 -0.660723 0
M  V30 5401 O 512.896 -3.63542 -1.70881 0
M  V30 5402 N 511.102 -2.83507 -0.638139 0
M  V30 5403 H 510.649 -2.567 0.215108 0
M  V30 5404 H 510.607 -2.76153 -1.50289 0
M  V30 5405 N 514.379 -1.04941 -1.1758 0
M  V30 5406 C 515.604 -0.778253 -1.92245 0
M  V30 5407 C 516.029 0.659707 -1.76152 0
M  V30 5408 O 515.387 1.45803 -1.07755 0
M  V30 5409 C 515.435 -1.16051 -3.41416 0
M  V30 5410 O 514.539 -0.291153 -4.11371 0
M  V30 5411 H 513.88 -0.285619 -0.599431 0
M  V30 5412 H 516.41 -1.40159 -1.49052 0
M  V30 5413 H 516.42 -1.12619 -3.92149 0
M  V30 5414 H 515.095 -2.208 -3.52449 0
M  V30 5415 H 513.672 -0.385851 -3.70898 0
M  V30 5416 N 515.857 1.33968 -0.830081 0
M  V30 5417 C 517.105 1.97672 -0.420734 0
M  V30 5418 C 517.426 1.66111 1.02138 0
M  V30 5419 O 516.696 0.955503 1.71017 0
M  V30 5420 H 515.276 0.73125 -0.152587 0
M  V30 5421 H 517.938 1.63483 -1.0611 0
M  V30 5422 H 517.034 3.07294 -0.545588 0
M  V30 5423 N 517.335 0.585699 1.46312 0
M  V30 5424 C 518.563 0.0781299 2.06752 0
M  V30 5425 C 518.978 -1.22812 1.43396 0
M  V30 5426 O 518.335 -1.74318 0.540314 0
M  V30 5427 C 518.386 -0.0911927 3.61385 0
M  V30 5428 O 518.107 1.16336 4.22371 0
M  V30 5429 C 519.608 -0.632765 4.38761 0
M  V30 5430 H 516.828 0.0588188 0.668417 0
M  V30 5431 H 519.372 0.807218 1.87894 0
M  V30 5432 H 517.527 -0.770514 3.7966 0
M  V30 5433 H 517.941 0.979082 5.15281 0
M  V30 5434 H 519.415 -0.70041 5.47538 0
M  V30 5435 H 519.892 -1.65039 4.07012 0
M  V30 5436 H 520.498 0.0117856 4.25298 0
M  V30 5437 N 518.813 -1.54241 0.323641 0
M  V30 5438 C 520.038 -2.05452 -0.283605 0
M  V30 5439 C 520.463 -1.19823 -1.44997 0
M  V30 5440 O 519.821 -0.207358 -1.8011 0
M  V30 5441 C 519.869 -3.53823 -0.695795 0
M  V30 5442 O 518.973 -3.71134 -1.79815 0
M  V30 5443 H 518.314 -0.662024 -0.0511917 0
M  V30 5444 H 520.844 -1.99079 0.472073 0
M  V30 5445 H 520.854 -3.96094 -0.978434 0
M  V30 5446 H 519.529 -4.15602 0.157287 0
M  V30 5447 H 518.106 -3.40768 -1.51431 0
M  V30 5448 N 520.291 -0.0518155 -1.57515 0
M  V30 5449 C 521.538 0.621823 -1.92716 0
M  V30 5450 C 521.866 1.70813 -0.930229 0
M  V30 5451 O 521.121 1.95616 0.0573708 0
M  V30 5452 C 521.42 1.25607 -3.34601 0
M  V30 5453 C 521.086 0.297901 -4.49915 0
M  V30 5454 C 519.748 0.034243 -4.81188 0
M  V30 5455 C 522.1 -0.358738 -5.19964 0
M  V30 5456 C 519.428 -0.893479 -5.79857 0
M  V30 5457 C 521.78 -1.27466 -6.19625 0
M  V30 5458 C 520.444 -1.54698 -6.49326 0
M  V30 5459 H 519.714 0.227541 -0.705199 0
M  V30 5460 H 522.361 -0.118432 -1.91133 0
M  V30 5461 H 520.666 2.07161 -3.32553 0
M  V30 5462 H 522.363 1.78424 -3.59118 0
M  V30 5463 H 518.953 0.513581 -4.25512 0
M  V30 5464 H 523.137 -0.168133 -4.96015 0
M  V30 5465 H 518.393 -1.11193 -6.01204 0
M  V30 5466 H 522.567 -1.78953 -6.73015 0
M  V30 5467 H 520.194 -2.26748 -7.25596 0
M  V30 5468 N 521.769 1.56035 0.221574 0
M  V30 5469 C 523.016 1.79047 0.94597 0
M  V30 5470 C 523.344 0.62057 1.84334 0
M  V30 5471 O 522.599 -0.395053 1.91671 0
M  V30 5472 C 522.898 3.07813 1.8162 0
M  V30 5473 C 522.564 4.3797 1.07206 0
M  V30 5474 C 521.226 4.73334 0.866508 0
M  V30 5475 C 523.578 5.18326 0.546565 0
M  V30 5476 C 520.906 5.8657 0.123549 0
M  V30 5477 C 523.258 6.32335 -0.18305 0
M  V30 5478 C 521.922 6.66301 -0.399861 0
M  V30 5479 H 521.192 0.655178 0.346155 0
M  V30 5480 H 523.839 1.90299 0.214146 0
M  V30 5481 H 522.144 2.91682 2.61589 0
M  V30 5482 H 523.841 3.2282 2.37884 0
M  V30 5483 H 520.431 4.10202 1.24226 0
M  V30 5484 H 524.615 4.9144 0.692847 0
M  V30 5485 H 519.871 6.11376 -0.0546591 0
M  V30 5486 H 524.045 6.9383 -0.59775 0
M  V30 5487 H 521.672 7.53889 -0.977489 0
M  V30 5488 N 523.247 -0.488276 1.49845 0
M  V30 5489 C 524.21 -1.57069 1.66919 0
M  V30 5490 C 525.21 -1.51445 0.540479 0
M  V30 5491 O 526.4 -1.5437 0.807188 0
M  V30 5492 C 523.532 -2.96718 1.67844 0
M  V30 5493 H 524.725 -1.43254 2.63474 0
M  V30 5494 H 522.278 -0.713435 1.39068 0
M  V30 5495 H 523.013 -3.15996 0.7292 0
M  V30 5496 H 522.798 -3.02208 2.49826 0
M  V30 5497 H 524.288 -3.75335 1.83066 0
M  V30 5498 N 524.725 -1.39134 -0.740242 0
M  V30 5499 C 525.973 -1.35803 -1.49673 0
M  V30 5500 C 526.294 0.0470897 -1.94943 0
M  V30 5501 O 525.564 0.997347 -1.68611 0
M  V30 5502 H 524.144 -0.499736 -0.555224 0
M  V30 5503 H 526.806 -1.73947 -0.879107 0
M  V30 5504 H 525.902 -2.0174 -2.38133 0
M  V30 5505 N 526.204 0.969867 -1.24223 0
M  V30 5506 C 527.451 1.71256 -1.08063 0
M  V30 5507 C 527.779 1.90734 0.380872 0
M  V30 5508 O 527.034 1.46469 1.29789 0
M  V30 5509 C 527.333 3.10883 -1.76314 0
M  V30 5510 C 526.999 3.11252 -3.26241 0
M  V30 5511 C 525.661 3.1106 -3.67144 0
M  V30 5512 C 528.013 3.05751 -4.22097 0
M  V30 5513 C 525.341 3.03097 -5.02344 0
M  V30 5514 C 527.693 2.9933 -5.57301 0
M  V30 5515 C 526.357 2.97466 -5.97554 0
M  V30 5516 H 525.627 0.62667 -0.395431 0
M  V30 5517 H 528.274 1.13422 -1.54297 0
M  V30 5518 H 526.579 3.72168 -1.22468 0
M  V30 5519 H 528.276 3.67138 -1.61277 0
M  V30 5520 H 524.866 3.12165 -2.93685 0
M  V30 5521 H 529.05 3.05031 -3.91497 0
M  V30 5522 H 524.306 3.00013 -5.32731 0
M  V30 5523 H 528.48 2.94033 -6.31283 0
M  V30 5524 H 526.107 2.91051 -7.02277 0
M  V30 5525 N 527.682 1.05563 1.17022 0
M  V30 5526 C 528.928 0.769074 1.87652 0
M  V30 5527 C 529.261 -0.702326 1.81055 0
M  V30 5528 O 528.536 -1.5139 1.22112 0
M  V30 5529 C 528.819 1.25492 3.37526 0
M  V30 5530 C 528.672 2.78953 3.52853 0
M  V30 5531 C 529.991 0.856919 4.31677 0
M  V30 5532 H 527.11 0.280854 0.681388 0
M  V30 5533 H 529.752 1.31027 1.37593 0
M  V30 5534 H 527.902 0.794516 3.80289 0
M  V30 5535 H 529.574 3.33146 3.19079 0
M  V30 5536 H 527.817 3.18046 2.95007 0
M  V30 5537 H 528.488 3.08011 4.58076 0
M  V30 5538 H 530.964 1.25334 3.96775 0
M  V30 5539 H 529.84 1.22443 5.35069 0
M  V30 5540 H 530.101 -0.238787 4.41455 0
M  V30 5541 N 529.16 -1.33526 0.837174 0
M  V30 5542 C 530.406 -1.9813 0.432704 0
M  V30 5543 C 530.739 -1.66168 -1.00508 0
M  V30 5544 O 530.014 -0.94069 -1.70239 0
M  V30 5545 C 530.297 -3.54151 0.651834 0
M  V30 5546 C 530.15 -3.95806 2.13676 0
M  V30 5547 C 531.469 -4.39993 0.0968937 0
M  V30 5548 H 528.588 -0.719713 0.15869 0
M  V30 5549 H 531.23 -1.58193 1.05237 0
M  V30 5550 H 529.38 -3.88301 0.124369 0
M  V30 5551 H 531.052 -3.71921 2.72896 0
M  V30 5552 H 529.295 -3.45599 2.62191 0
M  V30 5553 H 529.966 -5.0447 2.24084 0
M  V30 5554 H 532.442 -4.12479 0.547733 0
M  V30 5555 H 531.318 -5.48186 0.279917 0
M  V30 5556 H 531.579 -4.3066 -0.9992 0
M  V30 5557 N 530.638 -0.59345 -1.46 0
M  V30 5558 C 531.885 -0.0831523 -2.02329 0
M  V30 5559 C 532.213 1.28093 -1.46364 0
M  V30 5560 O 531.468 1.85526 -0.622793 0
M  V30 5561 C 531.767 0.021178 -3.57394 0
M  V30 5562 C 531.433 -1.27671 -4.32448 0
M  V30 5563 C 530.095 -1.63227 -4.5267 0
M  V30 5564 C 532.447 -2.13511 -4.7546 0
M  V30 5565 C 529.775 -2.84401 -5.1316 0
M  V30 5566 C 532.127 -3.33922 -5.37289 0
M  V30 5567 C 530.791 -3.69747 -5.55737 0
M  V30 5568 H 530.061 -0.0304276 -0.740375 0
M  V30 5569 H 532.708 -0.772239 -1.75239 0
M  V30 5570 H 531.013 0.793454 -3.83682 0
M  V30 5571 H 532.71 0.431942 -3.98667 0
M  V30 5572 H 529.3 -0.989937 -4.17011 0
M  V30 5573 H 533.484 -1.87344 -4.59582 0
M  V30 5574 H 528.74 -3.12282 -5.25633 0
M  V30 5575 H 532.914 -4.00698 -5.69574 0
M  V30 5576 H 530.541 -4.6373 -6.02377 0
M  V30 5577 N 532.116 1.54067 -0.331816 0
M  V30 5578 C 533.341 2.05599 0.272705 0
M  V30 5579 C 533.766 1.2059 1.44359 0
M  V30 5580 O 533.124 0.216907 1.79998 0
M  V30 5581 C 533.172 3.54188 0.677021 0
M  V30 5582 O 532.276 3.72082 1.77844 0
M  V30 5583 H 531.617 0.662286 0.0476801 0
M  V30 5584 H 534.147 1.98826 -0.482624 0
M  V30 5585 H 534.157 3.96608 0.957415 0
M  V30 5586 H 532.832 4.15513 -0.179325 0
M  V30 5587 H 531.409 3.41566 1.49622 0
M  V30 5588 N 533.594 0.0601682 1.57485 0
M  V30 5589 C 534.843 -0.611101 1.9222 0
M  V30 5590 C 535.156 -1.71469 0.941159 0
M  V30 5591 O 536.362 -2.44473 1.18089 0
M  V30 5592 C 534.818 -1.13832 3.41424 0
M  V30 5593 C 534.426 -0.0663596 4.47951 0
M  V30 5594 C 536.17 -1.78432 3.85178 0
M  V30 5595 C 534.077 -0.606965 5.88277 0
M  V30 5596 H 533.007 -0.232033 0.71741 0
M  V30 5597 H 535.658 0.130518 1.83035 0
M  V30 5598 H 534.04 -1.93254 3.45643 0
M  V30 5599 H 535.214 0.707682 4.55333 0
M  V30 5600 H 533.529 0.482715 4.13593 0
M  V30 5601 H 536.126 -2.1989 4.87394 0
M  V30 5602 H 536.469 -2.63966 3.21913 0
M  V30 5603 H 537.002 -1.05651 3.83514 0
M  V30 5604 H 533.741 0.21095 6.5516 0
M  V30 5605 H 533.261 -1.34879 5.84438 0
M  V30 5606 H 534.94 -1.08704 6.37803 0
M  V30 5607 N 535.072 -1.5615 -0.213296 0
M  V30 5608 C 536.002 -1.96109 -1.26742 0
M  V30 5609 C 536.983 -0.830448 -1.48451 0
M  V30 5610 O 538.168 -1.09339 -1.60495 0
M  V30 5611 C 535.298 -2.28492 -2.61551 0
M  V30 5612 C 534.252 -3.44124 -2.54485 0
M  V30 5613 C 533.578 -3.62134 -3.93399 0
M  V30 5614 C 534.878 -4.78855 -2.08556 0
M  V30 5615 H 536.572 -2.84412 -0.935434 0
M  V30 5616 H 534.118 -1.36836 -0.44854 0
M  V30 5617 H 536.071 -2.55039 -3.3546 0
M  V30 5618 H 534.795 -1.37052 -2.96453 0
M  V30 5619 H 533.454 -3.17639 -1.83033 0
M  V30 5620 H 533.102 -2.68055 -4.25623 0
M  V30 5621 H 532.802 -4.39913 -3.89551 0
M  V30 5622 H 534.326 -3.91038 -4.68958 0
M  V30 5623 H 535.74 -5.04552 -2.72213 0
M  V30 5624 H 534.137 -5.59975 -2.1575 0
M  V30 5625 H 535.207 -4.73657 -1.03811 0
M  V30 5626 N 536.55 0.480323 -1.50102 0
M  V30 5627 C 537.798 1.23063 -1.60312 0
M  V30 5628 C 538.119 1.92659 -0.301226 0
M  V30 5629 O 537.389 1.83691 0.680753 0
M  V30 5630 H 535.969 0.457231 -0.590719 0
M  V30 5631 H 538.631 0.554893 -1.86834 0
M  V30 5632 H 537.727 1.9835 -2.40964 0
M  V30 5633 N 538.028 1.39524 0.732853 0
M  V30 5634 C 539.275 1.36865 1.49246 0
M  V30 5635 C 539.603 -0.0347118 1.94469 0
M  V30 5636 O 538.858 -1.01596 1.67262 0
M  V30 5637 C 539.157 2.28916 2.74468 0
M  V30 5638 C 538.823 3.76506 2.481 0
M  V30 5639 C 537.485 4.16721 2.40619 0
M  V30 5640 C 539.837 4.69846 2.25598 0
M  V30 5641 C 537.165 5.48334 2.08679 0
M  V30 5642 C 539.517 6.01739 1.95174 0
M  V30 5643 C 538.181 6.41015 1.86163 0
M  V30 5644 H 537.451 0.500824 0.546129 0
M  V30 5645 H 540.098 1.72047 0.840958 0
M  V30 5646 H 538.403 1.86859 3.4437 0
M  V30 5647 H 540.1 2.2415 3.32502 0
M  V30 5648 H 536.69 3.44635 2.54803 0
M  V30 5649 H 540.874 4.39608 2.30344 0
M  V30 5650 H 536.13 5.77685 2.00226 0
M  V30 5651 H 540.304 6.73591 1.76771 0
M  V30 5652 H 537.931 7.42917 1.61179 0
M  V30 5653 N 539.506 -0.963266 1.24736 0
M  V30 5654 C 540.439 -2.05758 0.986852 0
M  V30 5655 C 541.417 -1.62398 -0.0809272 0
M  V30 5656 O 542.601 -1.88414 0.0569347 0
M  V30 5657 C 539.728 -3.35135 0.490095 0
M  V30 5658 C 538.774 -3.97451 1.54709 0
M  V30 5659 S 539.607 -4.34519 3.12976 0
M  V30 5660 C 540.763 -5.67026 2.65014 0
M  V30 5661 H 540.996 -2.27539 1.91346 0
M  V30 5662 H 538.529 -1.10176 1.08169 0
M  V30 5663 H 540.487 -4.09962 0.21012 0
M  V30 5664 H 539.148 -3.11335 -0.415873 0
M  V30 5665 H 538.341 -4.90704 1.15003 0
M  V30 5666 H 537.943 -3.29071 1.77731 0
M  V30 5667 H 540.235 -6.44748 2.08102 0
M  V30 5668 H 541.178 -6.11594 3.56873 0
M  V30 5669 H 541.586 -5.25847 2.05294 0
M  V30 5670 N 540.985 -1.06182 -1.16461 0
M  V30 5671 C 541.948 -0.675723 -2.19013 0
M  V30 5672 C 542.948 0.277963 -1.58379 0
M  V30 5673 O 544.138 0.0604962 -1.74095 0
M  V30 5674 C 541.27 0.00591459 -3.40899 0
M  V30 5675 H 542.463 -1.58353 -2.54685 0
M  V30 5676 H 540.016 -0.856908 -1.30716 0
M  V30 5677 H 540.751 0.92652 -3.10783 0
M  V30 5678 H 540.536 -0.67984 -3.86161 0
M  V30 5679 H 542.026 0.26181 -4.16778 0
M  V30 5680 N 542.463 1.3308 -0.844243 0
M  V30 5681 C 543.426 2.27403 -0.286485 0
M  V30 5682 C 544.426 1.51179 0.547872 0
M  V30 5683 O 545.616 1.70421 0.360886 0
M  V30 5684 C 542.748 3.35653 0.595813 0
M  V30 5685 H 543.941 2.78248 -1.11885 0
M  V30 5686 H 541.494 1.43574 -0.617749 0
M  V30 5687 H 542.229 2.90058 1.4504 0
M  V30 5688 H 542.014 3.921 -0.00125994 0
M  V30 5689 H 543.504 4.05958 0.979168 0
M  V30 5690 N 543.941 0.601185 1.45683 0
M  V30 5691 C 544.851 -0.123395 2.34275 0
M  V30 5692 C 545.867 -0.86702 1.5086 0
M  V30 5693 O 547.043 -0.826049 1.8368 0
M  V30 5694 C 544.108 -1.11237 3.2837 0
M  V30 5695 C 543.169 -0.371405 4.2769 0
M  V30 5696 C 542.402 -1.31327 5.1729 0
M  V30 5697 O 542.625 -2.55078 5.10188 0
M  V30 5698 O 541.559 -0.813811 5.96373 0
M  V30 5699 H 545.385 0.604483 2.97623 0
M  V30 5700 H 542.97 0.361477 1.44961 0
M  V30 5701 H 544.852 -1.68214 3.8637 0
M  V30 5702 H 543.527 -1.82139 2.67595 0
M  V30 5703 H 542.434 0.24067 3.73325 0
M  V30 5704 H 543.767 0.296998 4.91303 0
M  V30 5705 N 545.419 -1.53889 0.339982 0
M  V30 5706 C 546.351 -2.22435 -0.55275 0
M  V30 5707 C 547.364 -1.22975 -1.06681 0
M  V30 5708 O 548.553 -1.49351 -0.977575 0
M  V30 5709 C 545.653 -2.8882 -1.77302 0
M  V30 5710 C 544.826 -4.14563 -1.39486 0
M  V30 5711 C 543.885 -4.64391 -2.47442 0
M  V30 5712 O 542.911 -5.28687 -2.10899 0
M  V30 5713 N 544.113 -4.40015 -3.78639 0
M  V30 5714 H 546.878 -2.9968 0.0342669 0
M  V30 5715 H 544.439 -1.61068 0.16394 0
M  V30 5716 H 546.431 -3.19072 -2.48948 0
M  V30 5717 H 545.001 -2.15182 -2.26749 0
M  V30 5718 H 544.221 -3.90896 -0.509321 0
M  V30 5719 H 545.509 -4.96362 -1.11813 0
M  V30 5720 H 544.907 -3.88586 -4.11118 0
M  V30 5721 H 543.464 -4.74881 -4.46465 0
M  V30 5722 N 546.897 -0.0685191 -1.57451 0
M  V30 5723 C 548.145 0.60016 -1.92983 0
M  V30 5724 C 548.466 1.70348 -0.949028 0
M  V30 5725 O 547.736 1.959 0.00335647 0
M  V30 5726 H 546.316 0.224682 -0.712409 0
M  V30 5727 H 548.978 -0.125605 -1.94495 0
M  V30 5728 H 548.074 1.02759 -2.94698 0
M  V30 5729 N 548.375 1.56261 0.205012 0
M  V30 5730 C 549.621 1.80306 0.9283 0
M  V30 5731 C 549.954 0.640932 1.83319 0
M  V30 5732 O 549.229 -0.359032 1.91158 0
M  V30 5733 C 549.512 3.14547 1.75306 0
M  V30 5734 C 549.365 4.41236 0.873562 0
M  V30 5735 C 550.684 3.45382 2.72762 0
M  V30 5736 H 547.803 0.655929 0.336044 0
M  V30 5737 H 550.445 1.88984 0.196211 0
M  V30 5738 H 548.595 3.0728 2.37721 0
M  V30 5739 H 550.267 4.60539 0.264887 0
M  V30 5740 H 548.51 4.33427 0.179773 0
M  V30 5741 H 549.181 5.31639 1.48541 0
M  V30 5742 H 551.657 3.52884 2.20481 0
M  V30 5743 H 550.533 4.40449 3.2756 0
M  V30 5744 H 550.794 2.68377 3.51321 0
M  V30 5745 N 549.853 -0.472356 1.50355 0
M  V30 5746 C 550.803 -1.56809 1.65514 0
M  V30 5747 C 551.787 -1.5261 0.509801 0
M  V30 5748 O 552.979 -1.59655 0.764145 0
M  V30 5749 C 550.108 -2.9526 1.75146 0
M  V30 5750 C 549.194 -3.04348 2.95353 0
M  V30 5751 N 549.585 -2.83253 4.19048 0
M  V30 5752 C 547.883 -3.35482 2.93884 0
M  V30 5753 C 548.584 -2.97273 5.00003 0
M  V30 5754 N 547.56 -3.27418 4.33934 0
M  V30 5755 H 551.362 -1.39197 2.58846 0
M  V30 5756 H 548.876 -0.67906 1.47521 0
M  V30 5757 H 550.873 -3.74044 1.8411 0
M  V30 5758 H 549.533 -3.1392 0.829717 0
M  V30 5759 H 550.544 -2.5886 4.48567 0
M  V30 5760 H 547.221 -3.60138 2.11204 0
M  V30 5761 H 548.611 -2.85214 6.08361 0
M  V30 5762 N 551.331 -1.39911 -0.725443 0
M  V30 5763 C 552.58 -1.36963 -1.48068 0
M  V30 5764 C 552.893 0.0284478 -1.95579 0
M  V30 5765 O 554.099 0.180535 -2.70899 0
M  V30 5766 C 552.555 -2.40664 -2.67598 0
M  V30 5767 C 552.163 -3.86234 -2.26997 0
M  V30 5768 C 553.907 -2.46807 -3.45379 0
M  V30 5769 C 551.814 -4.81554 -3.43307 0
M  V30 5770 H 550.744 -0.509223 -0.556065 0
M  V30 5771 H 553.395 -1.65602 -0.790454 0
M  V30 5772 H 551.777 -2.05109 -3.38742 0
M  V30 5773 H 552.951 -4.3088 -1.63337 0
M  V30 5774 H 551.266 -3.83475 -1.62284 0
M  V30 5775 H 553.863 -3.15213 -4.31909 0
M  V30 5776 H 554.206 -1.49552 -3.8851 0
M  V30 5777 H 554.739 -2.81303 -2.81271 0
M  V30 5778 H 551.478 -5.80106 -3.05217 0
M  V30 5779 H 550.998 -4.4158 -4.05915 0
M  V30 5780 H 552.677 -5.0091 -4.0951 0
M  V30 5781 N 552.809 0.956637 -1.25245 0
M  V30 5782 C 554.034 1.74104 -1.12706 0
M  V30 5783 C 554.459 1.85436 0.315429 0
M  V30 5784 O 553.817 1.33334 1.22848 0
M  V30 5785 C 553.865 3.1338 -1.78396 0
M  V30 5786 O 552.969 3.98485 -1.06224 0
M  V30 5787 H 552.31 0.53476 -0.393609 0
M  V30 5788 H 554.84 1.19924 -1.65769 0
M  V30 5789 H 554.85 3.6385 -1.846 0
M  V30 5790 H 553.525 3.04448 -2.83345 0
M  V30 5791 H 552.102 3.56952 -1.07886 0
M  V30 5792 N 554.287 1.06798 1.15896 0
M  V30 5793 C 555.234 0.683314 2.20453 0
M  V30 5794 C 556.204 -0.32255 1.62938 0
M  V30 5795 O 557.389 -0.210276 1.89638 0
M  V30 5796 C 554.529 0.0813266 3.45004 0
M  V30 5797 C 553.642 1.13799 4.16742 0
M  V30 5798 C 552.777 0.501598 5.28826 0
M  V30 5799 C 551.816 1.54144 5.92373 0
M  V30 5800 N 550.953 0.928038 6.9594 0
M  V30 5801 H 555.793 1.57932 2.52708 0
M  V30 5802 H 553.33 0.789544 1.24115 0
M  V30 5803 H 555.288 -0.285274 4.16224 0
M  V30 5804 H 553.918 -0.77806 3.13283 0
M  V30 5805 H 552.97 1.62223 3.44075 0
M  V30 5806 H 554.282 1.92664 4.60089 0
M  V30 5807 H 553.436 0.0823162 6.06644 0
M  V30 5808 H 552.175 -0.318883 4.86656 0
M  V30 5809 H 551.18 1.97056 5.13273 0
M  V30 5810 H 552.405 2.3641 6.36621 0
M  V30 5811 H 550.351 0.12836 6.55874 0
M  V30 5812 H 550.268 1.65401 7.37685 0
M  V30 5813 H 551.536 0.534071 7.77668 0
M  V30 5814 N 555.766 -1.3263 0.851289 0
M  V30 5815 C 557.012 -1.9766 0.453694 0
M  V30 5816 C 557.345 -1.67225 -0.987396 0
M  V30 5817 O 556.62 -0.958693 -1.69232 0
M  V30 5818 C 556.903 -3.5344 0.68936 0
M  V30 5819 C 556.756 -3.93517 2.17862 0
M  V30 5820 C 558.075 -4.39866 0.143555 0
M  V30 5821 H 555.194 -0.717989 0.166314 0
M  V30 5822 H 557.836 -1.57068 1.06909 0
M  V30 5823 H 555.986 -3.88147 0.165546 0
M  V30 5824 H 557.658 -3.69006 2.76826 0
M  V30 5825 H 555.901 -3.42798 2.65841 0
M  V30 5826 H 556.572 -5.02065 2.29422 0
M  V30 5827 H 559.048 -4.11875 0.591451 0
M  V30 5828 H 557.924 -5.47858 0.338043 0
M  V30 5829 H 558.185 -4.31696 -0.953466 0
M  V30 5830 N 557.244 -0.608902 -1.45362 0
M  V30 5831 C 558.207 0.0992563 -2.28985 0
M  V30 5832 C 559.207 0.793841 -1.39838 0
M  V30 5833 O 560.397 0.641804 -1.61946 0
M  V30 5834 C 557.529 1.15073 -3.20891 0
M  V30 5835 H 558.722 -0.635964 -2.93079 0
M  V30 5836 H 556.275 -0.368007 -1.51906 0
M  V30 5837 H 557.01 1.91667 -2.616 0
M  V30 5838 H 556.795 0.656867 -3.86559 0
M  V30 5839 H 558.285 1.64665 -3.83765 0
M  V30 5840 N 558.722 1.53707 -0.348139 0
M  V30 5841 C 559.632 2.28881 0.514857 0
M  V30 5842 C 560.648 1.34168 1.10793 0
M  V30 5843 O 561.824 1.6721 1.12262 0
M  V30 5844 C 558.889 3.05042 1.64774 0
M  V30 5845 C 557.95 4.15389 1.08398 0
M  V30 5846 C 557.183 4.87909 2.16287 0
M  V30 5847 O 557.406 4.60137 3.3709 0
M  V30 5848 O 556.34 5.74254 1.80323 0
M  V30 5849 H 560.166 3.03547 -0.0963699 0
M  V30 5850 H 557.751 1.48972 -0.113043 0
M  V30 5851 H 559.633 3.52656 2.30677 0
M  V30 5852 H 558.308 2.33228 2.24469 0
M  V30 5853 H 557.215 3.72068 0.389341 0
M  V30 5854 H 558.548 4.89318 0.531829 0
M  V30 5855 N 560.2 0.0768682 1.57412 0
M  V30 5856 C 561.425 -0.603404 1.98428 0
M  V30 5857 C 561.85 -1.62047 0.955108 0
M  V30 5858 O 561.208 -1.81129 -0.0786778 0
M  V30 5859 C 561.256 -1.24396 3.38464 0
M  V30 5860 O 560.36 -2.35982 3.3821 0
M  V30 5861 H 559.701 -0.154741 0.645718 0
M  V30 5862 H 562.231 0.152885 2.04028 0
M  V30 5863 H 562.241 -1.5896 3.7576 0
M  V30 5864 H 560.916 -0.498735 4.12899 0
M  V30 5865 H 559.493 -2.03173 3.1269 0
M  V30 5866 N 561.678 -1.56367 -0.196722 0
M  V30 5867 C 562.926 -1.80172 -0.915554 0
M  V30 5868 C 563.247 -0.649649 -1.8386 0
M  V30 5869 O 562.517 0.332111 -1.93064 0
M  V30 5870 H 561.097 -0.664592 -0.341067 0
M  V30 5871 H 563.759 -1.93844 -0.202622 0
M  V30 5872 H 562.855 -2.7327 -1.50764 0
M  V30 5873 N 563.156 0.464375 -1.50603 0
M  V30 5874 C 564.567 1.04507 -1.5471 0
M  V30 5875 C 564.918 1.9297 -0.354542 0
M  V30 5876 O 564.043 2.09763 0.531812 0
M  V30 5877 C 564.638 1.90207 -2.80369 0
M  V30 5878 C 563.197 2.43373 -2.87135 0
M  V30 5879 C 562.344 1.21886 -2.49076 0
M  V30 5880 H 565.295 0.246716 -1.56771 0
M  V30 5881 H 565.316 2.75353 -2.62604 0
M  V30 5882 H 564.828 1.25796 -3.67147 0
M  V30 5883 H 562.929 3.11318 -2.04724 0
M  V30 5884 H 563.042 2.7802 -3.90181 0
M  V30 5885 H 561.406 1.55575 -2.01664 0
M  V30 5886 H 562.189 0.591268 -3.3817 0
M  V30 5887 N 564.634 1.40294 0.718013 0
M  V30 5888 C 565.882 1.38167 1.47494 0
M  V30 5889 C 566.203 -0.01607 1.94993 0
M  V30 5890 O 565.473 -0.970396 1.70177 0
M  V30 5891 H 564.053 0.508505 0.547203 0
M  V30 5892 H 566.715 1.75324 0.851322 0
M  V30 5893 H 565.811 2.05503 2.34894 0
M  V30 5894 N 566.112 -0.949982 1.2575 0
M  V30 5895 C 567.042 -2.06483 1.09028 0
M  V30 5896 C 568.023 -1.701 -0.00201532 0
M  V30 5897 O 569.208 -1.93469 0.168383 0
M  V30 5898 C 566.338 -3.39899 0.71316 0
M  V30 5899 C 565.292 -3.90309 1.75621 0
M  V30 5900 C 564.618 -5.20274 1.23365 0
M  V30 5901 C 565.918 -4.16169 3.15596 0
M  V30 5902 H 567.612 -2.20731 2.02283 0
M  V30 5903 H 565.158 -1.06066 0.973964 0
M  V30 5904 H 567.111 -4.17346 0.58309 0
M  V30 5905 H 565.835 -3.25602 -0.255091 0
M  V30 5906 H 564.494 -3.15035 1.8748 0
M  V30 5907 H 564.142 -5.02351 0.255491 0
M  V30 5908 H 563.842 -5.54971 1.93082 0
M  V30 5909 H 565.366 -6.00314 1.11607 0
M  V30 5910 H 566.78 -4.84259 3.06864 0
M  V30 5911 H 565.177 -4.62131 3.82825 0
M  V30 5912 H 566.247 -3.22273 3.6231 0
M  V30 5913 N 567.59 -1.07411 -1.15328 0
M  V30 5914 C 568.553 -0.698914 -2.18284 0
M  V30 5915 C 569.553 0.261149 -1.58665 0
M  V30 5916 O 570.743 0.0420277 -1.74149 0
M  V30 5917 C 567.875 -0.0302427 -3.40887 0
M  V30 5918 H 569.068 -1.61045 -2.52991 0
M  V30 5919 H 566.621 -0.870724 -1.298 0
M  V30 5920 H 567.356 0.893505 -3.11748 0
M  V30 5921 H 567.141 -0.720759 -3.85419 0
M  V30 5922 H 568.631 0.21759 -4.17033 0
M  V30 5923 N 569.068 1.32177 -0.85831 0
M  V30 5924 C 570.315 1.97125 -0.463484 0
M  V30 5925 C 570.643 1.67907 0.981705 0
M  V30 5926 O 569.898 0.961717 1.70439 0
M  V30 5927 C 570.197 3.51372 -0.653658 0
M  V30 5928 C 569.863 4.00584 -2.06987 0
M  V30 5929 C 568.525 4.13733 -2.4572 0
M  V30 5930 C 570.877 4.26624 -2.99402 0
M  V30 5931 C 568.205 4.50268 -3.76132 0
M  V30 5932 C 570.557 4.64618 -4.29316 0
M  V30 5933 C 569.221 4.75975 -4.67979 0
M  V30 5934 H 568.491 0.72133 -0.169601 0
M  V30 5935 H 571.138 1.57517 -1.08907 0
M  V30 5936 H 569.443 3.91761 0.0551328 0
M  V30 5937 H 571.14 3.99655 -0.328163 0
M  V30 5938 H 567.73 3.90837 -1.75911 0
M  V30 5939 H 571.914 4.1597 -2.70708 0
M  V30 5940 H 567.17 4.57256 -4.05865 0
M  V30 5941 H 571.344 4.83722 -5.00985 0
M  V30 5942 H 568.971 5.04041 -5.69076 0
M  V30 5943 N 570.547 0.616602 1.45037 0
M  V30 5944 C 571.796 0.112861 2.01384 0
M  V30 5945 C 572.109 -1.26758 1.48969 0
M  V30 5946 O 573.315 -1.86454 1.9735 0
M  V30 5947 C 571.771 0.151057 3.59583 0
M  V30 5948 C 571.379 1.53191 4.20995 0
M  V30 5949 C 573.123 -0.296974 4.2346 0
M  V30 5950 C 571.03 1.526 5.71373 0
M  V30 5951 H 569.96 0.0384254 0.75302 0
M  V30 5952 H 572.611 0.773262 1.66412 0
M  V30 5953 H 570.993 -0.57617 3.91786 0
M  V30 5954 H 572.167 2.28156 4.00352 0
M  V30 5955 H 570.482 1.92279 3.69348 0
M  V30 5956 H 573.079 -0.320712 5.33737 0
M  V30 5957 H 573.422 -1.32145 3.9477 0
M  V30 5958 H 573.955 0.377279 3.96007 0
M  V30 5959 H 570.694 2.52837 6.04776 0
M  V30 5960 H 570.214 0.819064 5.94181 0
M  V30 5961 H 571.893 1.25357 6.3474 0
M  V30 5962 N 572.025 -1.5352 0.356285 0
M  V30 5963 C 572.988 -2.24071 -0.482182 0
M  V30 5964 C 573.988 -1.24531 -1.01729 0
M  V30 5965 O 575.178 -1.48876 -0.904513 0
M  V30 5966 C 572.31 -2.97025 -1.67299 0
M  V30 5967 H 573.503 -2.99596 0.135031 0
M  V30 5968 H 571.056 -1.55928 0.107825 0
M  V30 5969 H 571.791 -2.25719 -2.32855 0
M  V30 5970 H 571.576 -3.7005 -1.29636 0
M  V30 5971 H 573.066 -3.50683 -2.26741 0
M  V30 5972 N 573.503 -0.0852151 -1.57369 0
M  V30 5973 C 574.733 0.588605 -1.98038 0
M  V30 5974 C 575.141 1.62869 -0.962817 0
M  V30 5975 O 574.484 1.83611 0.057134 0
M  V30 5976 C 574.546 1.30303 -3.35054 0
M  V30 5977 C 574.21 0.414855 -4.55113 0
M  V30 5978 C 575.207 -0.333011 -5.18832 0
M  V30 5979 C 572.892 0.335804 -5.01176 0
M  V30 5980 C 574.886 -1.14801 -6.26976 0
M  V30 5981 C 572.573 -0.482857 -6.09189 0
M  V30 5982 C 573.571 -1.22342 -6.71953 0
M  V30 5983 O 573.259 -2.02855 -7.77885 0
M  V30 5984 H 572.991 0.163249 -0.655992 0
M  V30 5985 H 575.545 -0.1582 -2.0479 0
M  V30 5986 H 573.775 2.0962 -3.24956 0
M  V30 5987 H 575.464 1.87041 -3.60237 0
M  V30 5988 H 576.23 -0.281611 -4.84182 0
M  V30 5989 H 572.109 0.901869 -4.52092 0
M  V30 5990 H 575.653 -1.72654 -6.75897 0
M  V30 5991 H 571.55 -0.535773 -6.43273 0
M  V30 5992 H 572.318 -1.95432 -7.94826 0
M  V30 5993 N 574.981 1.5647 0.188427 0
M  V30 5994 C 576.392 1.70864 0.752494 0
M  V30 5995 C 576.743 0.692905 1.83557 0
M  V30 5996 O 575.868 -0.149307 2.15884 0
M  V30 5997 C 576.463 3.09789 1.37173 0
M  V30 5998 C 575.022 3.25925 1.88281 0
M  V30 5999 C 574.169 2.66817 0.755259 0
M  V30 6000 H 577.12 1.58657 -0.0367408 0
M  V30 6001 H 577.141 3.07489 2.24122 0
M  V30 6002 H 576.653 3.83693 0.583219 0
M  V30 6003 H 574.754 2.56948 2.6983 0
M  V30 6004 H 574.867 4.33498 2.04001 0
M  V30 6005 H 573.231 2.2617 1.17128 0
M  V30 6006 H 574.014 3.43294 -0.0211237 0
M  V30 6007 N 576.459 -0.456382 1.50847 0
M  V30 6008 C 577.875 -0.791345 1.386 0
M  V30 6009 C 578.075 -1.9633 0.453498 0
M  V30 6010 O 577.131 -2.52308 -0.0984353 0
M  V30 6011 C 578.444 -1.08959 2.80265 0
M  V30 6012 C 579.992 -1.19517 2.89283 0
M  V30 6013 C 580.467 -1.52647 4.31814 0
M  V30 6014 N 581.958 -1.59609 4.34832 0
M  V30 6015 C 582.693 -1.86777 5.42127 0
M  V30 6016 N 582.189 -2.11866 6.59609 0
M  V30 6017 N 583.982 -1.88402 5.29586 0
M  V30 6018 H 576.133 0.315746 2.1004 0
M  V30 6019 H 578.396 0.0787916 0.94472 0
M  V30 6020 H 578.102 -0.301355 3.50407 0
M  V30 6021 H 577.976 -2.02211 3.18419 0
M  V30 6022 H 580.363 -1.97406 2.19351 0
M  V30 6023 H 580.444 -0.242111 2.54652 0
M  V30 6024 H 580.088 -0.752922 5.02288 0
M  V30 6025 H 580.018 -2.49127 4.63943 0
M  V30 6026 H 582.509 -1.42201 3.50125 0
M  V30 6027 H 582.822 -2.31912 7.37182 0
M  V30 6028 H 581.167 -2.09228 6.62758 0
M  V30 6029 H 584.358 -1.68307 4.36795 0
M  V30 6030 H 584.531 -2.09238 6.13289 0
M  V30 6031 N 577.937 -1.40673 -0.710563 0
M  V30 6032 C 578.9 -1.4108 -1.80635 0
M  V30 6033 C 579.9 -0.303783 -1.57904 0
M  V30 6034 O 581.09 -0.562937 -1.64853 0
M  V30 6035 C 578.222 -1.20748 -3.18799 0
M  V30 6036 H 579.415 -2.38612 -1.81671 0
M  V30 6037 H 576.968 -1.26595 -0.916704 0
M  V30 6038 H 577.703 -0.239964 -3.23411 0
M  V30 6039 H 577.488 -2.00941 -3.36698 0
M  V30 6040 H 578.978 -1.23833 -3.98817 0
M  V30 6041 N 579.415 0.9433 -1.26252 0
M  V30 6042 C 580.661 1.69175 -1.11837 0
M  V30 6043 C 580.994 1.91238 0.337891 0
M  V30 6044 O 580.269 1.49152 1.24836 0
M  V30 6045 C 580.552 3.06783 -1.88563 0
M  V30 6046 C 580.405 2.9206 -3.42083 0
M  V30 6047 C 581.724 4.06865 -1.67776 0
M  V30 6048 H 578.843 0.61399 -0.407658 0
M  V30 6049 H 581.485 1.09572 -1.55222 0
M  V30 6050 H 579.635 3.57663 -1.51689 0
M  V30 6051 H 581.307 2.48419 -3.88698 0
M  V30 6052 H 579.55 2.27731 -3.69217 0
M  V30 6053 H 580.221 3.89651 -3.90994 0
M  V30 6054 H 582.697 3.64939 -1.99897 0
M  V30 6055 H 581.573 5.01168 -2.23879 0
M  V30 6056 H 581.834 4.37705 -0.621816 0
M  V30 6057 N 580.893 1.08022 1.14757 0
M  V30 6058 C 582.121 0.828847 1.89572 0
M  V30 6059 C 582.536 -0.618621 1.78377 0
M  V30 6060 O 581.893 -1.42482 1.1404 0
M  V30 6061 C 581.944 1.23677 3.39685 0
M  V30 6062 O 581.665 2.62746 3.50566 0
M  V30 6063 C 583.166 1.01569 4.31507 0
M  V30 6064 H 580.386 0.299196 0.600602 0
M  V30 6065 H 582.93 1.43846 1.45357 0
M  V30 6066 H 581.085 0.671347 3.81539 0
M  V30 6067 H 581.499 2.79573 4.43778 0
M  V30 6068 H 582.973 1.35055 5.35223 0
M  V30 6069 H 583.45 -0.0475433 4.39174 0
M  V30 6070 H 584.056 1.56636 3.95405 0
M  V30 6071 N 582.371 -1.3172 0.865308 0
M  V30 6072 C 583.301 -2.31109 0.333302 0
M  V30 6073 C 584.282 -1.60148 -0.573301 0
M  V30 6074 O 585.467 -1.87882 -0.491305 0
M  V30 6075 C 582.597 -3.44104 -0.470078 0
M  V30 6076 C 581.551 -4.26623 0.343021 0
M  V30 6077 C 580.877 -5.31482 -0.585756 0
M  V30 6078 C 582.177 -4.98001 1.57456 0
M  V30 6079 H 583.871 -2.75855 1.1638 0
M  V30 6080 H 581.417 -1.3262 0.561069 0
M  V30 6081 H 583.37 -4.12682 -0.852752 0
M  V30 6082 H 582.094 -2.98112 -1.33404 0
M  V30 6083 H 580.753 -3.59707 0.707583 0
M  V30 6084 H 580.401 -4.81741 -1.44686 0
M  V30 6085 H 580.101 -5.87582 -0.0456494 0
M  V30 6086 H 581.625 -6.0292 -0.965375 0
M  V30 6087 H 583.039 -5.59201 1.26359 0
M  V30 6088 H 581.436 -5.63876 2.05339 0
M  V30 6089 H 582.506 -4.25253 2.32997 0
M  V30 6090 N 583.85 -0.624285 -1.44708 0
M  V30 6091 C 584.783 0.133905 -2.27807 0
M  V30 6092 C 585.76 0.857794 -1.38133 0
M  V30 6093 O 586.945 0.863277 -1.6757 0
M  V30 6094 C 584.072 1.19541 -3.16903 0
M  V30 6095 C 583.118 0.572813 -4.22636 0
M  V30 6096 S 583.951 -0.631953 -5.31758 0
M  V30 6097 C 585.106 0.429733 -6.24423 0
M  V30 6098 H 585.34 -0.571072 -2.91764 0
M  V30 6099 H 582.873 -0.412261 -1.48794 0
M  V30 6100 H 584.831 1.80293 -3.68788 0
M  V30 6101 H 583.492 1.87255 -2.5218 0
M  V30 6102 H 582.685 1.37205 -4.84965 0
M  V30 6103 H 582.287 0.0400641 -3.73979 0
M  V30 6104 H 584.579 1.30421 -6.64828 0
M  V30 6105 H 585.522 -0.157804 -7.07924 0
M  V30 6106 H 585.93 0.75256 -5.59461 0
M  V30 6107 N 585.328 1.53329 -0.364422 0
M  V30 6108 C 586.739 1.86345 0.115039 0
M  V30 6109 C 587.09 1.28505 1.4826 0
M  V30 6110 O 586.215 0.606639 2.07723 0
M  V30 6111 C 586.81 3.38114 0.215522 0
M  V30 6112 C 585.369 3.70932 0.639237 0
M  V30 6113 C 584.516 2.76471 -0.214261 0
M  V30 6114 H 587.467 1.47593 -0.583258 0
M  V30 6115 H 587.488 3.66031 1.0393 0
M  V30 6116 H 587 3.80182 -0.779948 0
M  V30 6117 H 585.101 3.3442 1.64298 0
M  V30 6118 H 585.214 4.77302 0.41465 0
M  V30 6119 H 583.578 2.52724 0.316678 0
M  V30 6120 H 584.361 3.21373 -1.20725 0
M  V30 6121 N 586.806 0.0935595 1.57322 0
M  V30 6122 C 588.052 -0.571355 1.94585 0
M  V30 6123 C 588.385 -1.67929 0.975366 0
M  V30 6124 O 587.66 -1.94498 0.00816206 0
M  V30 6125 C 587.943 -1.12797 3.41978 0
M  V30 6126 C 587.796 -0.0251881 4.49793 0
M  V30 6127 C 589.115 -2.02682 3.90651 0
M  V30 6128 H 586.234 -0.206223 0.70756 0
M  V30 6129 H 588.876 0.163956 1.89291 0
M  V30 6130 H 587.026 -1.75461 3.4662 0
M  V30 6131 H 588.698 0.608979 4.57263 0
M  V30 6132 H 586.941 0.641399 4.29032 0
M  V30 6133 H 587.612 -0.455433 5.50118 0
M  V30 6134 H 590.088 -1.49925 3.88152 0
M  V30 6135 H 588.964 -2.38555 4.94351 0
M  V30 6136 H 589.225 -2.94362 3.29854 0
M  V30 6137 N 588.284 -1.56567 -0.180126 0
M  V30 6138 C 589.247 -1.94852 -1.20686 0
M  V30 6139 C 590.247 -0.831212 -1.3765 0
M  V30 6140 O 591.437 -1.09841 -1.35206 0
M  V30 6141 C 588.569 -2.23565 -2.57355 0
M  V30 6142 H 589.762 -2.86722 -0.879225 0
M  V30 6143 H 587.315 -1.50489 -0.422237 0
M  V30 6144 H 588.05 -1.34381 -2.95148 0
M  V30 6145 H 587.835 -3.04999 -2.46411 0
M  V30 6146 H 589.325 -2.54137 -3.31367 0
M  V30 6147 N 589.762 0.448376 -1.51087 0
M  V30 6148 C 591.173 1.0286 -1.5581 0
M  V30 6149 C 591.524 1.92583 -0.374989 0
M  V30 6150 O 590.649 2.10316 0.509533 0
M  V30 6151 C 591.244 1.87223 -2.8237 0
M  V30 6152 C 589.803 2.40314 -2.897 0
M  V30 6153 C 588.95 1.19238 -2.50355 0
M  V30 6154 H 591.901 0.230075 -1.57023 0
M  V30 6155 H 591.922 2.72553 -2.6551 0
M  V30 6156 H 591.434 1.21894 -3.68461 0
M  V30 6157 H 589.535 3.09129 -2.08014 0
M  V30 6158 H 589.648 2.73866 -3.93108 0
M  V30 6159 H 588.012 1.53428 -2.03303 0
M  V30 6160 H 588.795 0.555367 -3.38778 0
M  V30 6161 N 591.24 1.41047 0.703093 0
M  V30 6162 C 592.17 1.45067 1.82969 0
M  V30 6163 C 593.151 0.31016 1.67248 0
M  V30 6164 O 594.336 0.520548 1.87093 0
M  V30 6165 C 591.466 1.32478 3.2104 0
M  V30 6166 C 590.42 2.44262 3.51454 0
M  V30 6167 C 589.746 2.16742 4.88801 0
M  V30 6168 C 591.046 3.86606 3.51189 0
M  V30 6169 H 592.74 2.39353 1.79863 0
M  V30 6170 H 590.286 1.15206 0.863919 0
M  V30 6171 H 592.239 1.33904 3.99559 0
M  V30 6172 H 590.963 0.346735 3.24754 0
M  V30 6173 H 589.622 2.42107 2.75282 0
M  V30 6174 H 589.27 1.17299 4.89132 0
M  V30 6175 H 588.97 2.91643 5.10116 0
M  V30 6176 H 590.494 2.19872 5.69639 0
M  V30 6177 H 591.908 3.90517 4.19725 0
M  V30 6178 H 590.305 4.61128 3.84033 0
M  V30 6179 H 591.375 4.15296 2.50315 0
M  V30 6180 N 592.718 -0.936591 1.26751 0
M  V30 6181 C 593.964 -1.68625 1.13741 0
M  V30 6182 C 594.319 -1.898 -0.315221 0
M  V30 6183 O 593.612 -1.47088 -1.22783 0
M  V30 6184 C 593.806 -3.06099 1.84494 0
M  V30 6185 C 593.635 -2.98338 3.36488 0
M  V30 6186 C 592.405 -3.01104 4.05789 0
M  V30 6187 C 594.603 -2.78128 4.32608 0
M  V30 6188 N 592.585 -2.8369 5.4442 0
M  V30 6189 C 593.956 -2.69329 5.58446 0
M  V30 6190 C 596.011 -2.62946 4.22804 0
M  V30 6191 C 594.714 -2.46899 6.75598 0
M  V30 6192 C 596.74 -2.41892 5.39669 0
M  V30 6193 C 596.102 -2.33829 6.64457 0
M  V30 6194 H 592.201 -0.624227 0.471025 0
M  V30 6195 H 594.785 -1.10798 1.601 0
M  V30 6196 H 592.956 -3.62057 1.40604 0
M  V30 6197 H 594.688 -3.69951 1.64067 0
M  V30 6198 H 591.443 -3.10992 3.57185 0
M  V30 6199 H 591.867 -2.78138 6.17226 0
M  V30 6200 H 596.509 -2.67944 3.27056 0
M  V30 6201 H 594.227 -2.40642 7.71438 0
M  V30 6202 H 597.813 -2.31043 5.33957 0
M  V30 6203 H 596.693 -2.17754 7.53361 0
M  V30 6204 N 594.196 -1.08629 -1.14182 0
M  V30 6205 C 595.159 -0.722027 -2.1753 0
M  V30 6206 C 596.159 0.244305 -1.58933 0
M  V30 6207 O 597.349 0.0235545 -1.74184 0
M  V30 6208 C 594.481 -0.0663966 -3.40835 0
M  V30 6209 H 595.674 -1.63719 -2.51269 0
M  V30 6210 H 593.227 -0.884442 -1.28869 0
M  V30 6211 H 593.962 0.860389 -3.12678 0
M  V30 6212 H 593.747 -0.761598 -3.84632 0
M  V30 6213 H 595.237 0.173346 -4.1724 0
M  V30 6214 N 595.674 1.31259 -0.872281 0
M  V30 6215 C 596.637 2.26744 -0.334656 0
M  V30 6216 C 597.637 1.52307 0.515681 0
M  V30 6217 O 598.827 1.71148 0.324656 0
M  V30 6218 C 595.959 3.36841 0.524482 0
M  V30 6219 H 597.152 2.75812 -1.17762 0
M  V30 6220 H 594.705 1.42232 -0.648064 0
M  V30 6221 H 595.44 2.93069 1.38855 0
M  V30 6222 H 595.225 3.92009 -0.0844299 0
M  V30 6223 H 596.715 4.07944 0.892838 0
M  V30 6224 N 597.152 0.631951 1.44375 0
M  V30 6225 C 598.082 -0.0593243 2.33425 0
M  V30 6226 C 599.063 -0.833964 1.48253 0
M  V30 6227 O 600.248 -0.799682 1.76971 0
M  V30 6228 C 597.378 -1.04096 3.31333 0
M  V30 6229 C 596.332 -0.377899 4.26328 0
M  V30 6230 C 595.658 -1.4695 5.14111 0
M  V30 6231 C 596.958 0.716371 5.17364 0
M  V30 6232 H 598.652 0.684287 2.91475 0
M  V30 6233 H 596.198 0.330518 1.40156 0
M  V30 6234 H 598.151 -1.53331 3.92514 0
M  V30 6235 H 596.875 -1.81547 2.71493 0
M  V30 6236 H 595.534 0.0938054 3.6648 0
M  V30 6237 H 595.182 -2.2349 4.50623 0
M  V30 6238 H 594.882 -1.03121 5.78481 0
M  V30 6239 H 596.406 -1.96363 5.78164 0
M  V30 6240 H 597.82 0.307089 5.72477 0
M  V30 6241 H 596.217 1.07784 5.90341 0
M  V30 6242 H 597.287 1.58316 4.58327 0
M  V30 6243 N 598.631 -1.53133 0.372548 0
M  V30 6244 C 599.878 -2.01356 -0.214959 0
M  V30 6245 C 600.206 -1.2596 -1.48204 0
M  V30 6246 O 599.461 -0.343511 -1.92662 0
M  V30 6247 C 599.76 -3.53206 -0.545938 0
M  V30 6248 C 599.426 -4.46511 0.627624 0
M  V30 6249 C 598.088 -4.71737 0.949615 0
M  V30 6250 C 600.44 -5.01666 1.41353 0
M  V30 6251 C 597.768 -5.4937 2.05936 0
M  V30 6252 C 600.12 -5.80511 2.51375 0
M  V30 6253 C 598.784 -6.04022 2.84101 0
M  V30 6254 H 598.054 -0.736813 -0.078659 0
M  V30 6255 H 600.701 -1.84682 0.506447 0
M  V30 6256 H 599.006 -3.67864 -1.34845 0
M  V30 6257 H 600.703 -3.87997 -1.01287 0
M  V30 6258 H 597.293 -4.27029 0.366635 0
M  V30 6259 H 601.477 -4.82117 1.17802 0
M  V30 6260 H 596.733 -5.65803 2.31682 0
M  V30 6261 H 600.907 -6.22255 3.12684 0
M  V30 6262 H 598.534 -6.63962 3.70214 0
M  V30 6263 N 600.109 -0.101901 -1.5727 0
M  V30 6264 C 601.356 0.560197 -1.94597 0
M  V30 6265 C 601.684 1.67767 -0.984101 0
M  V30 6266 O 600.939 1.95699 -0.00489193 0
M  V30 6267 C 601.238 1.14898 -3.38427 0
M  V30 6268 C 600.904 0.154613 -4.50635 0
M  V30 6269 C 599.566 -0.118861 -4.81053 0
M  V30 6270 C 601.918 -0.523979 -5.18559 0
M  V30 6271 C 599.246 -1.0775 -5.76721 0
M  V30 6272 C 601.598 -1.47114 -6.15256 0
M  V30 6273 C 600.262 -1.75278 -6.44076 0
M  V30 6274 H 599.532 0.204991 -0.712081 0
M  V30 6275 H 602.179 -0.17918 -1.9066 0
M  V30 6276 H 600.484 1.96476 -3.38976 0
M  V30 6277 H 602.181 1.66909 -3.64613 0
M  V30 6278 H 598.771 0.377948 -4.2693 0
M  V30 6279 H 602.955 -0.325851 -4.95229 0
M  V30 6280 H 598.211 -1.30263 -5.97362 0
M  V30 6281 H 602.385 -2.00274 -6.66981 0
M  V30 6282 H 600.012 -2.49717 -7.18015 0
M  V30 6283 N 601.587 1.56661 0.17182 0
M  V30 6284 C 602.834 1.81965 0.888529 0
M  V30 6285 C 603.162 0.6789 1.82267 0
M  V30 6286 O 602.417 -0.333875 1.92831 0
M  V30 6287 C 602.716 3.13435 1.71736 0
M  V30 6288 C 602.382 4.41159 0.932184 0
M  V30 6289 C 601.044 4.75851 0.715481 0
M  V30 6290 C 603.396 5.19803 0.381387 0
M  V30 6291 C 600.724 5.86666 -0.063126 0
M  V30 6292 C 603.076 6.31433 -0.384129 0
M  V30 6293 C 601.74 6.64692 -0.611637 0
M  V30 6294 H 601.01 0.665859 0.325136 0
M  V30 6295 H 603.657 1.90884 0.153495 0
M  V30 6296 H 601.962 2.99857 2.52177 0
M  V30 6297 H 603.659 3.30224 2.27493 0
M  V30 6298 H 600.249 4.13947 1.11112 0
M  V30 6299 H 604.433 4.93396 0.536148 0
M  V30 6300 H 599.689 6.10892 -0.249136 0
M  V30 6301 H 603.863 6.91577 -0.818185 0
M  V30 6302 H 601.49 7.50398 -1.21684 0
M  V30 6303 N 603.065 -0.440357 1.51323 0
M  V30 6304 C 603.998 -1.55414 1.67098 0
M  V30 6305 C 604.976 -1.54108 0.518599 0
M  V30 6306 O 606.16 -1.7328 0.742054 0
M  V30 6307 C 603.287 -2.93996 1.68179 0
M  V30 6308 C 602.333 -3.13338 2.89347 0
M  V30 6309 S 603.166 -2.89957 4.50206 0
M  V30 6310 C 604.322 -4.30826 4.54027 0
M  V30 6311 H 604.555 -1.41798 2.61306 0
M  V30 6312 H 602.088 -0.629841 1.40969 0
M  V30 6313 H 604.046 -3.73878 1.69487 0
M  V30 6314 H 602.707 -3.04976 0.751542 0
M  V30 6315 H 601.9 -4.14652 2.86495 0
M  V30 6316 H 601.502 -2.41276 2.85766 0
M  V30 6317 H 603.794 -5.23977 4.29481 0
M  V30 6318 H 604.737 -4.38712 5.55822 0
M  V30 6319 H 605.145 -4.1434 3.83384 0
M  V30 6320 N 604.543 -1.41418 -0.695603 0
M  V30 6321 C 605.473 -1.46035 -1.82197 0
M  V30 6322 C 606.454 -0.319025 -1.67082 0
M  V30 6323 O 607.639 -0.530462 -1.86815 0
M  V30 6324 C 604.769 -1.34179 -3.20333 0
M  V30 6325 C 603.723 -2.46123 -3.50154 0
M  V30 6326 C 603.049 -2.19332 -4.87645 0
M  V30 6327 C 604.349 -3.88463 -3.49133 0
M  V30 6328 H 606.043 -2.40303 -1.78591 0
M  V30 6329 H 603.589 -1.15663 -0.857797 0
M  V30 6330 H 605.542 -1.36021 -3.98844 0
M  V30 6331 H 604.266 -0.363952 -3.24566 0
M  V30 6332 H 602.925 -2.43563 -2.73994 0
M  V30 6333 H 602.573 -1.19891 -4.88503 0
M  V30 6334 H 602.273 -2.94344 -5.08562 0
M  V30 6335 H 603.797 -2.22889 -5.68465 0
M  V30 6336 H 605.211 -3.92738 -4.17648 0
M  V30 6337 H 603.608 -4.63158 -3.81582 0
M  V30 6338 H 604.678 -4.16617 -2.48109 0
M  V30 6339 N 606.021 0.929856 -1.27246 0
M  V30 6340 C 606.951 2.04722 -1.12299 0
M  V30 6341 C 607.932 1.70082 -0.0250464 0
M  V30 6342 O 609.117 1.93176 -0.199141 0
M  V30 6343 C 606.247 3.38721 -0.767145 0
M  V30 6344 C 605.201 3.87466 -1.81808 0
M  V30 6345 C 604.527 5.18246 -1.31626 0
M  V30 6346 C 605.827 4.11095 -3.22177 0
M  V30 6347 H 607.521 2.17485 -2.05769 0
M  V30 6348 H 605.067 1.04503 -0.990715 0
M  V30 6349 H 607.02 4.16366 -0.649413 0
M  V30 6350 H 605.744 3.25967 0.203259 0
M  V30 6351 H 604.403 3.12012 -1.92468 0
M  V30 6352 H 604.051 5.01881 -0.335378 0
M  V30 6353 H 603.751 5.51829 -2.01887 0
M  V30 6354 H 605.275 5.98462 -1.21143 0
M  V30 6355 H 606.689 4.79316 -3.1453 0
M  V30 6356 H 605.086 4.55982 -3.90129 0
M  V30 6357 H 606.156 3.16468 -3.67391 0
M  V30 6358 N 607.499 1.09233 1.13605 0
M  V30 6359 C 608.429 0.751738 2.21068 0
M  V30 6360 C 609.41 -0.269688 1.67948 0
M  V30 6361 O 610.595 -0.13819 1.93708 0
M  V30 6362 C 607.725 0.16935 3.46887 0
M  V30 6363 C 606.679 1.12007 4.13084 0
M  V30 6364 C 606.005 0.399483 5.33206 0
M  V30 6365 C 607.305 2.46168 4.6065 0
M  V30 6366 H 608.999 1.65024 2.49815 0
M  V30 6367 H 606.545 0.794905 1.20072 0
M  V30 6368 H 608.498 -0.0809824 4.21322 0
M  V30 6369 H 607.222 -0.764335 3.1753 0
M  V30 6370 H 605.881 1.35564 3.40614 0
M  V30 6371 H 605.529 -0.538277 5.00112 0
M  V30 6372 H 605.229 1.03337 5.78442 0
M  V30 6373 H 606.753 0.157403 6.10397 0
M  V30 6374 H 608.167 2.26829 5.26518 0
M  V30 6375 H 606.564 3.05326 5.1662 0
M  V30 6376 H 607.634 3.07076 3.75276 0
M  V30 6377 N 608.977 -1.30795 0.87923 0
M  V30 6378 C 609.907 -2.30742 0.357796 0
M  V30 6379 C 610.888 -1.60747 -0.556283 0
M  V30 6380 O 612.073 -1.88393 -0.47135 0
M  V30 6381 C 609.203 -3.44583 -0.433555 0
M  V30 6382 C 608.157 -4.26235 0.388251 0
M  V30 6383 C 607.483 -5.32073 -0.529352 0
M  V30 6384 C 608.783 -4.96303 1.62729 0
M  V30 6385 H 610.477 -2.74605 1.19299 0
M  V30 6386 H 608.023 -1.32017 0.575104 0
M  V30 6387 H 609.976 -4.13563 -0.808934 0
M  V30 6388 H 608.7 -2.99511 -1.30234 0
M  V30 6389 H 607.359 -3.58936 0.745695 0
M  V30 6390 H 607.007 -4.83249 -1.39569 0
M  V30 6391 H 606.707 -5.87598 0.0166741 0
M  V30 6392 H 608.231 -6.0391 -0.901373 0
M  V30 6393 H 609.645 -5.5783 1.32283 0
M  V30 6394 H 608.042 -5.61666 2.11309 0
M  V30 6395 H 609.112 -4.22758 2.37494 0
M  V30 6396 N 610.455 -0.639598 -1.44038 0
M  V30 6397 C 611.703 -0.147188 -2.01563 0
M  V30 6398 C 612.024 1.2384 -1.50628 0
M  V30 6399 O 611.294 1.82452 -0.713316 0
M  V30 6400 H 609.874 -0.0514231 -0.745228 0
M  V30 6401 H 612.536 -0.828205 -1.76428 0
M  V30 6402 H 611.632 -0.121358 -3.11864 0
M  V30 6403 N 611.933 1.52934 -0.380664 0
M  V30 6404 C 612.863 2.29118 0.450268 0
M  V30 6405 C 613.844 1.32153 1.07096 0
M  V30 6406 O 615.029 1.61038 1.08537 0
M  V30 6407 C 612.159 3.09161 1.58231 0
M  V30 6408 C 611.113 4.13938 1.0881 0
M  V30 6409 C 610.439 4.82153 2.31155 0
M  V30 6410 C 611.739 5.22048 0.162146 0
M  V30 6411 H 613.433 2.98826 -0.185361 0
M  V30 6412 H 610.979 1.43715 -0.0905886 0
M  V30 6413 H 612.932 3.61211 2.17036 0
M  V30 6414 H 611.656 2.3717 2.2454 0
M  V30 6415 H 610.315 3.62855 0.522633 0
M  V30 6416 H 609.963 4.06719 2.95953 0
M  V30 6417 H 609.663 5.52966 1.98752 0
M  V30 6418 H 611.187 5.37004 2.90618 0
M  V30 6419 H 612.601 5.6951 0.658126 0
M  V30 6420 H 610.998 6.00057 -0.0717122 0
M  V30 6421 H 612.068 4.78398 -0.791438 0
M  V30 6422 N 613.412 0.11024 1.57214 0
M  V30 6423 C 614.689 -0.592956 1.86396 0
M  V30 6424 C 615.069 -1.85379 1.00985 0
M  V30 6425 O 614.417 -2.28337 0.0863592 0
M  V30 6426 C 614.627 -0.893816 3.3736 0
M  V30 6427 C 615.975 -1.25069 4.05762 0
M  V30 6428 O 616.999 -0.984356 3.42329 0
M  V30 6429 O 615.858 -1.75017 5.17718 0
M  V30 6430 H 612.952 -0.29828 0.771335 0
M  V30 6431 H 615.498 0.144083 1.69087 0
M  V30 6432 H 614.27 2.6031e-05 3.913 0
M  V30 6433 H 613.893 -1.68631 3.60068 0
M  V30 6434 N 614.89 -1.56749 -0.16351 0
M  V30 6435 C 616.115 -1.86938 -0.898264 0
M  V30 6436 C 616.54 -0.697456 -1.74692 0
M  V30 6437 O 615.898 0.353327 -1.77824 0
M  V30 6438 C 615.946 -3.15599 -1.74441 0
M  V30 6439 O 615.05 -2.98371 -2.8469 0
M  V30 6440 H 614.391 -0.614659 -0.251178 0
M  V30 6441 H 616.921 -2.03979 -0.159298 0
M  V30 6442 H 616.931 -3.47202 -2.14277 0
M  V30 6443 H 615.606 -4.00505 -1.1211 0
M  V30 6444 H 614.183 -2.7814 -2.4838 0
M  V30 6445 N 616.368 0.432326 -1.51554 0
M  V30 6446 C 617.3 1.54357 -1.6943 0
M  V30 6447 C 618.313 1.52311 -0.574897 0
M  V30 6448 O 619.502 1.56997 -0.849369 0
M  V30 6449 C 616.602 2.93273 -1.69836 0
M  V30 6450 C 615.775 3.19768 -2.98442 0
M  V30 6451 C 614.834 4.38433 -2.90969 0
M  V30 6452 O 613.86 4.36842 -3.64908 0
M  V30 6453 N 615.062 5.42276 -2.07163 0
M  V30 6454 H 617.827 1.39426 -2.65293 0
M  V30 6455 H 615.388 0.621331 -1.49503 0
M  V30 6456 H 617.38 3.70687 -1.62399 0
M  V30 6457 H 615.95 3.01777 -0.815456 0
M  V30 6458 H 615.17 2.30607 -3.19709 0
M  V30 6459 H 616.458 3.343 -3.83563 0
M  V30 6460 H 615.856 5.46407 -1.46477 0
M  V30 6461 H 614.413 6.18524 -2.05601 0
M  V30 6462 N 617.846 1.41785 0.688094 0
M  V30 6463 C 619.093 1.41544 1.44816 0
M  V30 6464 C 619.421 0.0271746 1.94481 0
M  V30 6465 O 618.676 -0.962235 1.7041 0
M  V30 6466 C 618.975 2.37532 2.67046 0
M  V30 6467 C 618.641 3.84209 2.35996 0
M  V30 6468 C 617.303 4.24165 2.27239 0
M  V30 6469 C 619.655 4.76785 2.10536 0
M  V30 6470 C 616.983 5.54695 1.91128 0
M  V30 6471 C 619.335 6.07644 1.75931 0
M  V30 6472 C 617.999 6.46613 1.65675 0
M  V30 6473 H 617.269 0.517945 0.529919 0
M  V30 6474 H 619.916 1.74635 0.785797 0
M  V30 6475 H 618.221 1.9772 3.38251 0
M  V30 6476 H 619.918 2.34615 3.25203 0
M  V30 6477 H 616.508 3.52567 2.4371 0
M  V30 6478 H 620.692 4.46714 2.16242 0
M  V30 6479 H 615.948 5.83762 1.81746 0
M  V30 6480 H 620.122 6.78874 1.55252 0
M  V30 6481 H 617.749 7.47668 1.37463 0
M  V30 6482 N 619.324 -0.923095 1.27737 0
M  V30 6483 C 620.57 -1.67375 1.14514 0
M  V30 6484 C 620.903 -1.91751 -0.307424 0
M  V30 6485 O 620.178 -1.51119 -1.22447 0
M  V30 6486 C 620.461 -3.03745 1.9342 0
M  V30 6487 C 620.314 -2.86581 3.46686 0
M  V30 6488 C 621.633 -4.04144 1.74228 0
M  V30 6489 H 618.752 -0.607427 0.417374 0
M  V30 6490 H 621.394 -1.07089 1.56946 0
M  V30 6491 H 619.544 -3.55204 1.5736 0
M  V30 6492 H 621.216 -2.42203 3.92601 0
M  V30 6493 H 619.459 -2.21829 3.72793 0
M  V30 6494 H 620.13 -3.83381 3.97143 0
M  V30 6495 H 622.606 -3.61712 2.05678 0
M  V30 6496 H 621.482 -4.97543 2.31824 0
M  V30 6497 H 621.743 -4.36661 0.691373 0
M  V30 6498 N 620.802 -1.09834 -1.13024 0
M  V30 6499 C 622.05 -0.835297 -1.8403 0
M  V30 6500 C 622.371 0.640944 -1.84165 0
M  V30 6501 O 621.641 1.46517 -1.30037 0
M  V30 6502 H 620.221 -0.306018 -0.681441 0
M  V30 6503 H 622.883 -1.38734 -1.36891 0
M  V30 6504 H 621.979 -1.19258 -2.88416 0
M  V30 6505 N 622.28 1.30327 -0.886154 0
M  V30 6506 C 623.526 1.96388 -0.505941 0
M  V30 6507 C 623.859 1.69784 0.942712 0
M  V30 6508 O 623.134 1.00322 1.6663 0
M  V30 6509 C 623.417 3.51488 -0.782826 0
M  V30 6510 C 623.27 3.87603 -2.28219 0
M  V30 6511 C 624.589 4.39331 -0.260128 0
M  V30 6512 H 621.708 0.713327 -0.185292 0
M  V30 6513 H 624.35 1.54178 -1.11036 0
M  V30 6514 H 622.5 3.87572 -0.268399 0
M  V30 6515 H 624.172 3.61537 -2.86512 0
M  V30 6516 H 622.415 3.3563 -2.74837 0
M  V30 6517 H 623.086 4.95806 -2.42653 0
M  V30 6518 H 625.562 4.10162 -0.700444 0
M  V30 6519 H 624.438 5.46769 -0.483179 0
M  V30 6520 H 624.699 4.34072 0.838674 0
M  V30 6521 N 623.758 0.647228 1.43697 0
M  V30 6522 C 624.668 -0.0487997 2.34549 0
M  V30 6523 C 625.684 -0.818586 1.53542 0
M  V30 6524 O 626.86 -0.767195 1.86215 0
M  V30 6525 C 623.925 -1.00734 3.31743 0
M  V30 6526 C 622.986 -0.23515 4.28655 0
M  V30 6527 C 622.219 -1.14803 5.21206 0
M  V30 6528 O 622.442 -2.38717 5.18045 0
M  V30 6529 O 621.376 -0.623667 5.9866 0
M  V30 6530 H 625.202 0.698863 2.9555 0
M  V30 6531 H 622.787 0.407412 1.43738 0
M  V30 6532 H 624.669 -1.55837 3.91526 0
M  V30 6533 H 623.344 -1.73534 2.73254 0
M  V30 6534 H 622.251 0.359319 3.7237 0
M  V30 6535 H 623.584 0.453152 4.9011 0
M  V30 6536 N 625.236 -1.5273 0.388769 0
M  V30 6537 C 626.484 -2.01174 -0.193208 0
M  V30 6538 C 626.805 -1.27705 -1.47365 0
M  V30 6539 O 626.075 -0.396966 -1.91836 0
M  V30 6540 H 624.655 -0.743287 -0.0743871 0
M  V30 6541 H 627.317 -1.87826 0.520336 0
M  V30 6542 H 626.413 -3.09477 -0.403803 0
M  V30 6543 N 626.714 -0.118576 -1.57153 0
M  V30 6544 C 627.961 0.539526 -1.9518 0
M  V30 6545 C 628.289 1.66714 -1.00184 0
M  V30 6546 O 627.544 1.95683 -0.0256482 0
M  V30 6547 C 627.843 1.11303 -3.39627 0
M  V30 6548 C 627.509 0.106809 -4.50773 0
M  V30 6549 C 626.171 -0.169876 -4.809 0
M  V30 6550 C 628.523 -0.57895 -5.17975 0
M  V30 6551 C 625.851 -1.13861 -5.75545 0
M  V30 6552 C 628.203 -1.53631 -6.13661 0
M  V30 6553 C 626.867 -1.82099 -6.42181 0
M  V30 6554 H 626.137 0.197427 -0.714215 0
M  V30 6555 H 628.784 -0.199391 -1.90459 0
M  V30 6556 H 627.089 1.92869 -3.4104 0
M  V30 6557 H 628.786 1.63032 -3.66363 0
M  V30 6558 H 625.376 0.332645 -4.27307 0
M  V30 6559 H 629.56 -0.378359 -4.94856 0
M  V30 6560 H 624.816 -1.36592 -5.95947 0
M  V30 6561 H 628.99 -2.07337 -6.64819 0
M  V30 6562 H 626.617 -2.57319 -7.15326 0
M  V30 6563 N 628.193 1.56834 0.155195 0
M  V30 6564 C 629.442 1.82088 0.867567 0
M  V30 6565 C 629.755 0.69849 1.82703 0
M  V30 6566 O 630.961 0.836407 2.58295 0
M  V30 6567 C 629.417 3.22707 1.59336 0
M  V30 6568 C 629.025 4.42859 0.676719 0
M  V30 6569 C 630.769 3.57242 2.293 0
M  V30 6570 C 628.676 5.74501 1.40367 0
M  V30 6571 H 627.606 0.679057 0.327715 0
M  V30 6572 H 630.257 1.83105 0.120351 0
M  V30 6573 H 628.639 3.16054 2.38591 0
M  V30 6574 H 629.813 4.60731 -0.0800196 0
M  V30 6575 H 628.128 4.16311 0.0859129 0
M  V30 6576 H 630.725 4.52847 2.84312 0
M  V30 6577 H 631.068 2.82901 3.05406 0
M  V30 6578 H 631.601 3.6552 1.56972 0
M  V30 6579 H 628.34 6.51915 0.684623 0
M  V30 6580 H 627.86 5.60579 2.13332 0
M  V30 6581 H 629.539 6.17016 1.94681 0
M  V30 6582 N 629.671 -0.424282 1.51781 0
M  V30 6583 C 630.899 -1.1947 1.68921 0
M  V30 6584 C 631.314 -1.84683 0.39213 0
M  V30 6585 O 630.671 -1.71261 -0.630554 0
M  V30 6586 C 630.722 -2.26909 2.81416 0
M  V30 6587 O 630.443 -1.64361 4.061 0
M  V30 6588 C 631.944 -3.16945 3.09937 0
M  V30 6589 H 629.164 -0.359591 0.566511 0
M  V30 6590 H 631.708 -0.501139 1.98265 0
M  V30 6591 H 629.863 -2.91959 2.54635 0
M  V30 6592 H 630.277 -2.35468 4.68674 0
M  V30 6593 H 631.751 -3.88437 3.922 0
M  V30 6594 H 632.228 -3.78451 2.22871 0
M  V30 6595 H 632.834 -2.57581 3.38426 0
M  V30 6596 N 631.149 -1.42148 -0.680565 0
M  V30 6597 C 632.397 -1.42029 -1.43779 0
M  V30 6598 C 632.718 -0.0356347 -1.94967 0
M  V30 6599 O 631.988 0.924936 -1.7269 0
M  V30 6600 H 630.568 -0.522835 -0.533529 0
M  V30 6601 H 633.23 -1.7752 -0.804538 0
M  V30 6602 H 632.326 -2.11658 -2.29363 0
M  V30 6603 N 632.627 0.916307 -1.28225 0
M  V30 6604 C 633.557 2.0352 -1.14464 0
M  V30 6605 C 634.538 1.70045 -0.0430844 0
M  V30 6606 O 635.723 1.92954 -0.219619 0
M  V30 6607 C 632.853 3.37889 -0.803027 0
M  V30 6608 C 631.807 3.85516 -1.85908 0
M  V30 6609 C 631.133 5.1682 -1.37116 0
M  V30 6610 C 632.433 4.07655 -3.26519 0
M  V30 6611 H 634.127 2.1529 -2.08064 0
M  V30 6612 H 631.673 1.03446 -1.00174 0
M  V30 6613 H 633.626 4.15654 -0.693537 0
M  V30 6614 H 632.35 3.26164 0.168674 0
M  V30 6615 H 631.009 3.09953 -1.95767 0
M  V30 6616 H 630.657 5.01497 -0.38859 0
M  V30 6617 H 630.357 5.49657 -2.07728 0
M  V30 6618 H 631.881 5.97143 -1.27484 0
M  V30 6619 H 633.295 4.75953 -3.19596 0
M  V30 6620 H 631.692 4.51818 -3.94943 0
M  V30 6621 H 632.762 3.12553 -3.70727 0
M  V30 6622 N 634.105 1.10431 1.1244 0
M  V30 6623 C 635.035 0.775143 2.20258 0
M  V30 6624 C 636.016 -0.25186 1.68225 0
M  V30 6625 O 637.201 -0.117637 1.93843 0
M  V30 6626 C 634.331 0.206133 3.46688 0
M  V30 6627 C 633.285 1.16382 4.11873 0
M  V30 6628 C 632.611 0.456014 5.32752 0
M  V30 6629 C 633.911 2.5104 4.58013 0
M  V30 6630 H 635.605 1.67665 2.4805 0
M  V30 6631 H 633.151 0.807595 1.19222 0
M  V30 6632 H 635.104 -0.036291 4.21384 0
M  V30 6633 H 633.828 -0.730614 3.18323 0
M  V30 6634 H 632.487 1.39169 3.39157 0
M  V30 6635 H 632.135 -0.485203 5.00654 0
M  V30 6636 H 631.835 1.09466 5.77314 0
M  V30 6637 H 633.359 0.222135 6.10196 0
M  V30 6638 H 634.773 2.32401 5.24083 0
M  V30 6639 H 633.17 3.10789 5.13352 0
M  V30 6640 H 634.24 3.11039 3.71998 0
M  V30 6641 N 635.583 -1.29855 0.893053 0
M  V30 6642 C 636.86 -1.90694 0.435336 0
M  V30 6643 C 637.24 -1.8111 -1.08454 0
M  V30 6644 O 636.588 -1.23352 -1.92345 0
M  V30 6645 C 636.798 -3.36033 0.942472 0
M  V30 6646 C 638.146 -4.13083 0.982226 0
M  V30 6647 O 639.17 -3.4491 0.889686 0
M  V30 6648 O 638.029 -5.34896 1.12022 0
M  V30 6649 H 635.123 -0.815978 0.134567 0
M  V30 6650 H 637.669 -1.38367 0.982484 0
M  V30 6651 H 636.441 -3.37132 1.9864 0
M  V30 6652 H 636.064 -3.95828 0.374952 0
M  V30 6653 N 637.061 -0.65484 -1.43351 0
M  V30 6654 C 637.991 0.0221809 -2.33489 0
M  V30 6655 C 638.972 0.810272 -1.49561 0
M  V30 6656 O 640.157 0.771426 -1.78221 0
M  V30 6657 C 637.287 0.988117 -3.32947 0
M  V30 6658 C 636.241 0.310026 -4.26876 0
M  V30 6659 C 635.567 1.38752 -5.16384 0
M  V30 6660 C 636.867 -0.798589 -5.16159 0
M  V30 6661 H 638.561 -0.730571 -2.9035 0
M  V30 6662 H 636.107 -0.352773 -1.39612 0
M  V30 6663 H 638.06 1.47067 -3.94904 0
M  V30 6664 H 636.784 1.77205 -2.74346 0
M  V30 6665 H 635.443 -0.152097 -3.66284 0
M  V30 6666 H 635.091 2.16293 -4.54121 0
M  V30 6667 H 634.791 0.939051 -5.80048 0
M  V30 6668 H 636.315 1.87141 -5.81215 0
M  V30 6669 H 637.729 -0.398126 -5.71916 0
M  V30 6670 H 636.126 -1.17163 -5.88552 0
M  V30 6671 H 637.196 -1.65588 -4.55751 0
M  V30 6672 N 638.539 1.52521 -0.396863 0
M  V30 6673 C 639.469 2.29582 0.425941 0
M  V30 6674 C 640.45 1.33281 1.05689 0
M  V30 6675 O 641.635 1.62181 1.06823 0
M  V30 6676 C 638.765 3.10821 1.54943 0
M  V30 6677 C 637.719 4.15069 1.04413 0
M  V30 6678 C 637.045 4.84578 2.26028 0
M  V30 6679 C 638.345 5.22191 0.106767 0
M  V30 6680 H 640.039 2.98612 -0.217045 0
M  V30 6681 H 637.585 1.43611 -0.105826 0
M  V30 6682 H 639.538 3.63492 2.13193 0
M  V30 6683 H 638.262 2.39538 2.22011 0
M  V30 6684 H 636.921 3.63389 0.484118 0
M  V30 6685 H 636.569 4.09835 2.91623 0
M  V30 6686 H 636.269 5.55043 1.92876 0
M  V30 6687 H 637.793 5.40056 2.84906 0
M  V30 6688 H 639.207 5.70176 0.597685 0
M  V30 6689 H 637.604 5.99947 -0.135352 0
M  V30 6690 H 638.674 4.77531 -0.842134 0
M  V30 6691 N 640.017 0.126909 1.57088 0
M  V30 6692 C 641.428 -0.397201 1.82426 0
M  V30 6693 C 641.779 -1.66084 1.04453 0
M  V30 6694 O 640.904 -2.14534 0.283552 0
M  V30 6695 C 641.499 -0.727411 3.30899 0
M  V30 6696 C 640.058 -1.19612 3.56889 0
M  V30 6697 C 639.205 -0.20885 2.76512 0
M  V30 6698 H 642.156 0.351924 1.54749 0
M  V30 6699 H 642.177 -1.58407 3.45959 0
M  V30 6700 H 641.689 0.19247 3.87622 0
M  V30 6701 H 639.79 -2.13263 3.05532 0
M  V30 6702 H 639.903 -1.13598 4.65438 0
M  V30 6703 H 638.267 -0.697479 2.44964 0
M  V30 6704 H 639.05 0.704267 3.35998 0
M  V30 6705 N 641.495 -1.56914 -0.146875 0
M  V30 6706 C 642.458 -1.97368 -1.16526 0
M  V30 6707 C 643.458 -0.860223 -1.35856 0
M  V30 6708 O 644.648 -1.12684 -1.32846 0
M  V30 6709 C 641.78 -2.28974 -2.52555 0
M  V30 6710 H 642.973 -2.88523 -0.818209 0
M  V30 6711 H 640.526 -1.5135 -0.390221 0
M  V30 6712 H 641.261 -1.40611 -2.92231 0
M  V30 6713 H 641.046 -3.10157 -2.39886 0
M  V30 6714 H 642.536 -2.61109 -3.25902 0
M  V30 6715 N 642.974 0.416227 -1.52004 0
M  V30 6716 C 644.199 1.19029 -1.69843 0
M  V30 6717 C 644.624 1.83708 -0.404103 0
M  V30 6718 O 643.982 1.69711 0.637787 0
M  V30 6719 C 644.03 2.23439 -2.83032 0
M  V30 6720 O 643.134 3.29419 -2.48106 0
M  V30 6721 H 642.475 0.347785 -0.565634 0
M  V30 6722 H 645.005 0.488871 -1.98674 0
M  V30 6723 H 645.015 2.67884 -3.07737 0
M  V30 6724 H 643.69 1.75745 -3.76944 0
M  V30 6725 H 642.267 2.90303 -2.34048 0
M  V30 6726 N 644.452 1.42507 0.673017 0
M  V30 6727 C 645.682 1.46261 1.45916 0
M  V30 6728 C 646.09 0.0729724 1.89059 0
M  V30 6729 O 645.433 -0.922987 1.58829 0
M  V30 6730 C 645.495 2.32853 2.73898 0
M  V30 6731 C 645.159 3.80699 2.52819 0
M  V30 6732 C 646.156 4.72307 2.17306 0
M  V30 6733 C 643.841 4.24983 2.67758 0
M  V30 6734 C 645.835 6.06192 1.97003 0
M  V30 6735 C 643.522 5.58927 2.4707 0
M  V30 6736 C 644.52 6.49348 2.11746 0
M  V30 6737 O 644.208 7.80817 1.91259 0
M  V30 6738 H 643.94 0.499561 0.455428 0
M  V30 6739 H 646.494 1.87697 0.834196 0
M  V30 6740 H 644.724 1.86268 3.38882 0
M  V30 6741 H 646.413 2.28041 3.35786 0
M  V30 6742 H 647.179 4.39378 2.05359 0
M  V30 6743 H 643.058 3.54893 2.94231 0
M  V30 6744 H 646.602 6.76731 1.69355 0
M  V30 6745 H 642.499 5.91429 2.58615 0
M  V30 6746 H 643.267 7.92194 2.05843 0
M  V30 6747 N 645.93 -0.909495 1.28709 0
M  V30 6748 C 647.16 -1.69027 1.188 0
M  V30 6749 C 647.568 -1.87469 -0.255329 0
M  V30 6750 O 646.911 -1.40458 -1.18394 0
M  V30 6751 C 646.973 -3.10064 1.81936 0
M  V30 6752 C 646.637 -3.14891 3.31199 0
M  V30 6753 C 647.634 -2.95768 4.27571 0
M  V30 6754 C 645.319 -3.37269 3.7223 0
M  V30 6755 C 647.313 -2.98942 5.6295 0
M  V30 6756 C 645 -3.40074 5.07733 0
M  V30 6757 C 645.998 -3.20932 6.02903 0
M  V30 6758 O 645.686 -3.23507 7.35934 0
M  V30 6759 H 645.418 -0.535014 0.413203 0
M  V30 6760 H 647.972 -1.14645 1.70428 0
M  V30 6761 H 646.202 -3.66005 1.24808 0
M  V30 6762 H 647.891 -3.70185 1.66486 0
M  V30 6763 H 648.657 -2.78302 3.97206 0
M  V30 6764 H 644.536 -3.51212 2.98615 0
M  V30 6765 H 648.08 -2.83919 6.37209 0
M  V30 6766 H 643.977 -3.5707 5.37747 0
M  V30 6767 H 644.745 -3.3984 7.44615 0
M  V30 6768 N 647.408 -1.11026 -1.11852 0
M  V30 6769 C 648.655 -0.85646 -1.83497 0
M  V30 6770 C 648.983 0.617938 -1.84423 0
M  V30 6771 O 648.238 1.47194 -1.28966 0
M  V30 6772 C 648.537 -1.35777 -3.30604 0
M  V30 6773 C 648.203 -2.84465 -3.49843 0
M  V30 6774 C 646.865 -3.25068 -3.54802 0
M  V30 6775 C 649.217 -3.80251 -3.56453 0
M  V30 6776 C 646.545 -4.60194 -3.63921 0
M  V30 6777 C 648.897 -5.15188 -3.67102 0
M  V30 6778 C 647.561 -5.55356 -3.70319 0
M  V30 6779 H 646.831 -0.313401 -0.671462 0
M  V30 6780 H 649.478 -1.38792 -1.31943 0
M  V30 6781 H 647.783 -0.746455 -3.84624 0
M  V30 6782 H 649.48 -1.13779 -3.8452 0
M  V30 6783 H 646.07 -2.52054 -3.46651 0
M  V30 6784 H 650.254 -3.49986 -3.51886 0
M  V30 6785 H 645.51 -4.90728 -3.64686 0
M  V30 6786 H 649.684 -5.89248 -3.71159 0
M  V30 6787 H 647.311 -6.60054 -3.77138 0
M  V30 6788 N 648.886 1.2938 -0.899927 0
M  V30 6789 C 650.302 1.48052 -0.596059 0
M  V30 6790 C 650.502 1.82114 0.862372 0
M  V30 6791 O 649.558 1.91774 1.64253 0
M  V30 6792 C 650.871 2.59332 -1.52208 0
M  V30 6793 C 652.419 2.73208 -1.5273 0
M  V30 6794 C 652.894 3.87617 -2.43961 0
M  V30 6795 N 654.385 3.9495 -2.42009 0
M  V30 6796 C 655.12 4.82824 -3.09303 0
M  V30 6797 N 654.616 5.75387 -3.85877 0
M  V30 6798 N 656.409 4.76317 -2.98459 0
M  V30 6799 H 648.56 1.05546 -1.8432 0
M  V30 6800 H 650.823 0.524314 -0.78981 0
M  V30 6801 H 650.529 2.41029 -2.56121 0
M  V30 6802 H 650.403 3.56139 -1.24278 0
M  V30 6803 H 652.79 2.90908 -0.495614 0
M  V30 6804 H 652.871 1.76975 -1.84698 0
M  V30 6805 H 652.515 3.70672 -3.47224 0
M  V30 6806 H 652.445 4.83218 -2.09303 0
M  V30 6807 H 654.936 3.28744 -1.86375 0
M  V30 6808 H 655.249 6.39235 -4.34279 0
M  V30 6809 H 653.594 5.75272 -3.89984 0
M  V30 6810 H 656.785 4.0299 -2.38152 0
M  V30 6811 H 656.958 5.44589 -3.51179 0
M  V30 6812 N 650.364 0.662433 1.43002 0
M  V30 6813 C 651.611 0.179591 2.01702 0
M  V30 6814 C 651.939 -1.20964 1.52309 0
M  V30 6815 O 651.194 -1.82343 0.7106 0
M  V30 6816 C 651.493 0.149363 3.57088 0
M  V30 6817 C 651.159 1.48158 4.25864 0
M  V30 6818 C 649.821 1.84638 4.44367 0
M  V30 6819 C 652.173 2.35953 4.64732 0
M  V30 6820 C 649.501 3.08561 4.99006 0
M  V30 6821 C 651.853 3.59176 5.20745 0
M  V30 6822 C 650.517 3.95841 5.37463 0
M  V30 6823 H 649.787 0.0657172 0.73808 0
M  V30 6824 H 652.434 0.854968 1.71355 0
M  V30 6825 H 650.739 -0.609491 3.8703 0
M  V30 6826 H 652.436 -0.241241 4.00274 0
M  V30 6827 H 649.026 1.18777 4.11813 0
M  V30 6828 H 653.21 2.09058 4.50121 0
M  V30 6829 H 648.466 3.37005 5.10135 0
M  V30 6830 H 652.64 4.27417 5.49807 0
M  V30 6831 H 650.267 4.91942 5.79566 0
M  V30 6832 N 651.842 -1.52309 0.404946 0
M  V30 6833 C 652.774 -2.24579 -0.45791 0
M  V30 6834 C 653.787 -1.2739 -1.01369 0
M  V30 6835 O 654.976 -1.53363 -0.91335 0
M  V30 6836 C 652.076 -2.9608 -1.64893 0
M  V30 6837 C 651.249 -4.20106 -1.21777 0
M  V30 6838 C 650.308 -4.74468 -2.27523 0
M  V30 6839 O 649.334 -5.37157 -1.88285 0
M  V30 6840 N 650.536 -4.55678 -3.59635 0
M  V30 6841 H 653.301 -2.99265 0.161341 0
M  V30 6842 H 650.862 -1.60228 0.232107 0
M  V30 6843 H 652.854 -3.29344 -2.35191 0
M  V30 6844 H 651.424 -2.24606 -2.17419 0
M  V30 6845 H 650.644 -3.92704 -0.343071 0
M  V30 6846 H 651.932 -5.00658 -0.906596 0
M  V30 6847 H 651.33 -4.05673 -3.94266 0
M  V30 6848 H 649.887 -4.9339 -4.25922 0
M  V30 6849 N 653.32 -0.135238 -1.57019 0
M  V30 6850 C 654.736 0.221262 -1.58059 0
M  V30 6851 C 654.936 1.65538 -1.14889 0
M  V30 6852 O 653.992 2.37985 -0.843751 0
M  V30 6853 C 655.305 -0.0268114 -3.00688 0
M  V30 6854 C 656.853 0.0378206 -3.12977 0
M  V30 6855 C 657.328 -0.182769 -4.57635 0
M  V30 6856 N 658.819 -0.129292 -4.6302 0
M  V30 6857 C 659.554 -0.274648 -5.72742 0
M  V30 6858 N 659.05 -0.477075 -6.91155 0
M  V30 6859 N 660.843 -0.213077 -5.61696 0
M  V30 6860 H 652.994 -1.07177 -1.83376 0
M  V30 6861 H 655.257 -0.423338 -0.848227 0
M  V30 6862 H 654.963 -1.01889 -3.36618 0
M  V30 6863 H 654.837 0.697863 -3.70688 0
M  V30 6864 H 657.224 1.02043 -2.76896 0
M  V30 6865 H 657.305 -0.718996 -2.45487 0
M  V30 6866 H 656.949 -1.16243 -4.94419 0
M  V30 6867 H 656.879 0.59423 -5.23237 0
M  V30 6868 H 659.37 0.0229896 -3.77893 0
M  V30 6869 H 659.683 -0.578413 -7.70632 0
M  V30 6870 H 658.028 -0.513252 -6.93102 0
M  V30 6871 H 661.219 -0.0557796 -4.68067 0
M  V30 6872 H 661.392 -0.329796 -6.4716 0
M  V30 6873 N 654.798 1.5699 0.138552 0
M  V30 6874 C 655.708 2.02174 1.19008 0
M  V30 6875 C 656.724 0.938622 1.46512 0
M  V30 6876 O 657.9 1.24872 1.58016 0
M  V30 6877 C 654.965 2.40045 2.50159 0
M  V30 6878 C 654.026 3.62346 2.30226 0
M  V30 6879 C 653.259 3.98401 3.55123 0
M  V30 6880 O 653.482 3.35019 4.61647 0
M  V30 6881 O 652.416 4.91606 3.47285 0
M  V30 6882 H 656.242 2.91954 0.836452 0
M  V30 6883 H 653.827 1.45293 0.347907 0
M  V30 6884 H 655.709 2.65225 3.27465 0
M  V30 6885 H 654.384 1.53417 2.85035 0
M  V30 6886 H 653.291 3.42341 1.50843 0
M  V30 6887 H 654.624 4.49617 2.00262 0
M  V30 6888 N 656.276 -0.40816 1.52223 0
M  V30 6889 C 657.525 -1.15212 1.65557 0
M  V30 6890 C 657.838 -1.9163 0.392096 0
M  V30 6891 O 659.044 -2.68458 0.405256 0
M  V30 6892 C 657.5 -2.09691 2.92502 0
M  V30 6893 C 657.108 -1.38785 4.25961 0
M  V30 6894 C 658.852 -2.8434 3.152 0
M  V30 6895 C 656.759 -2.31919 5.44029 0
M  V30 6896 H 655.689 -0.433776 0.616729 0
M  V30 6897 H 658.34 -0.4165 1.78711 0
M  V30 6898 H 656.722 -2.8681 2.7305 0
M  V30 6899 H 657.896 -0.670248 4.55899 0
M  V30 6900 H 656.211 -0.761741 4.09373 0
M  V30 6901 H 658.808 -3.54166 4.00587 0
M  V30 6902 H 659.151 -3.47344 2.29473 0
M  V30 6903 H 659.684 -2.14321 3.35129 0
M  V30 6904 H 656.423 -1.7356 6.32105 0
M  V30 6905 H 655.943 -3.0165 5.18428 0
M  V30 6906 H 657.622 -2.92424 5.77146 0
M  V30 6907 N 657.755 -1.42862 -0.66545 0
M  V30 6908 C 658.98 -1.47456 -1.45848 0
M  V30 6909 C 659.405 -0.0900312 -1.87884 0
M  V30 6910 O 658.763 0.913587 -1.56599 0
M  V30 6911 C 658.811 -2.41514 -2.67774 0
M  V30 6912 O 657.915 -1.89296 -3.66389 0
M  V30 6913 H 657.256 -0.499236 -0.437789 0
M  V30 6914 H 659.786 -1.8765 -0.815394 0
M  V30 6915 H 659.796 -2.58409 -3.15735 0
M  V30 6916 H 658.471 -3.42099 -2.36519 0
M  V30 6917 H 657.048 -1.82003 -3.25468 0
M  V30 6918 N 659.233 0.902656 -1.29189 0
M  V30 6919 C 660.479 1.65532 -1.17163 0
M  V30 6920 C 660.812 1.92216 0.276879 0
M  V30 6921 O 660.087 1.53048 1.20027 0
M  V30 6922 C 660.37 3.00629 -1.98228 0
M  V30 6923 C 660.223 2.81029 -3.51202 0
M  V30 6924 C 661.542 4.01321 -1.80635 0
M  V30 6925 H 658.661 0.60071 -0.426985 0
M  V30 6926 H 661.303 1.04578 -1.5863 0
M  V30 6927 H 659.453 3.52656 -1.62991 0
M  V30 6928 H 661.125 2.35927 -3.96404 0
M  V30 6929 H 659.368 2.1587 -3.76275 0
M  V30 6930 H 660.039 3.77014 -4.03192 0
M  V30 6931 H 662.515 3.58394 -2.11406 0
M  V30 6932 H 661.391 4.93792 -2.3971 0
M  V30 6933 H 661.652 4.35505 -0.760754 0
M  V30 6934 N 660.711 1.11618 1.11262 0
M  V30 6935 C 661.674 0.779447 2.15539 0
M  V30 6936 C 662.674 -0.202081 1.59525 0
M  V30 6937 O 663.864 0.0226356 1.74185 0
M  V30 6938 C 660.996 0.15674 3.40539 0
M  V30 6939 H 662.189 1.70324 2.4684 0
M  V30 6940 H 659.742 0.918298 1.26479 0
M  V30 6941 H 660.477 -0.777186 3.1485 0
M  V30 6942 H 660.262 0.863308 3.82478 0
M  V30 6943 H 661.752 -0.062661 4.17553 0
M  V30 6944 N 662.189 -1.289 0.906776 0
M  V30 6945 C 663.119 -2.29932 0.406659 0
M  V30 6946 C 664.1 -1.6189 -0.522061 0
M  V30 6947 O 665.285 -1.8935 -0.431283 0
M  V30 6948 C 662.415 -3.45425 -0.360366 0
M  V30 6949 C 661.369 -4.25316 0.478574 0
M  V30 6950 C 660.695 -5.33076 -0.416373 0
M  V30 6951 C 661.995 -4.92739 1.7322 0
M  V30 6952 H 663.689 -2.72013 1.25097 0
M  V30 6953 H 661.235 -1.30768 0.602977 0
M  V30 6954 H 663.188 -4.15186 -0.721029 0
M  V30 6955 H 661.912 -3.02206 -1.23852 0
M  V30 6956 H 660.571 -3.57273 0.821662 0
M  V30 6957 H 660.219 -4.86101 -1.29287 0
M  V30 6958 H 659.919 -5.8743 0.141309 0
M  V30 6959 H 661.443 -6.05686 -0.773072 0
M  V30 6960 H 662.857 -5.54898 1.44086 0
M  V30 6961 H 661.254 -5.57057 2.23175 0
M  V30 6962 H 662.324 -4.17625 2.46408 0
M  V30 6963 N 663.667 -0.670007 -1.42649 0
M  V30 6964 C 664.907 -0.194106 -2.03476 0
M  V30 6965 C 665.271 1.1755 -1.51809 0
M  V30 6966 O 666.472 1.74579 -2.04391 0
M  V30 6967 C 664.743 -0.221828 -3.56711 0
M  V30 6968 S 666.302 0.183772 -4.38415 0
M  V30 6969 H 663.12 -0.0802478 -0.706457 0
M  V30 6970 H 665.722 -0.882092 -1.74469 0
M  V30 6971 H 664.426 -1.22107 -3.91814 0
M  V30 6972 H 663.957 0.486149 -3.90385 0
M  V30 6973 H 665.972 1.41839 -4.75496 0
M  V30 6974 N 665.145 1.52092 -0.413018 0
M  V30 6975 C 666.385 2.03765 0.160975 0
M  V30 6976 C 666.749 1.29174 1.4205 0
M  V30 6977 O 667.95 1.71093 2.07318 0
M  V30 6978 C 666.221 3.55167 0.398871 0
M  V30 6979 S 667.78 4.28619 0.939755 0
M  V30 6980 H 664.598 0.709685 0.0432281 0
M  V30 6981 H 667.2 1.87102 -0.566831 0
M  V30 6982 H 665.904 4.07034 -0.524544 0
M  V30 6983 H 665.435 3.7608 1.15444 0
M  V30 6984 H 667.45 4.43773 2.21991 0
M  V30 6985 N 666.623 0.143563 1.56945 0
M  V30 6986 C 667.586 -0.783295 2.154 0
M  V30 6987 C 668.586 -1.17763 1.09492 0
M  V30 6988 O 669.776 -1.09912 1.35148 0
M  V30 6989 C 666.908 -2.06248 2.7143 0
M  V30 6990 H 668.101 -0.274863 2.98638 0
M  V30 6991 H 665.654 -0.105859 1.55941 0
M  V30 6992 H 666.389 -2.61466 1.91849 0
M  V30 6993 H 666.174 -1.78897 3.4891 0
M  V30 6994 H 667.664 -2.72453 3.16479 0
M  V30 6995 N 668.101 -1.57061 -0.130224 0
M  V30 6996 C 669.031 -2.02552 -1.16168 0
M  V30 6997 C 670.012 -0.907971 -1.4384 0
M  V30 6998 O 671.197 -1.17693 -1.54473 0
M  V30 6999 C 668.327 -2.42035 -2.49071 0
M  V30 7000 C 667.281 -3.5713 -2.35886 0
M  V30 7001 C 666.607 -3.82478 -3.7365 0
M  V30 7002 C 667.907 -4.89236 -1.8288 0
M  V30 7003 H 669.601 -2.8897 -0.783359 0
M  V30 7004 H 667.147 -1.39021 -0.375376 0
M  V30 7005 H 669.1 -2.72462 -3.21469 0
M  V30 7006 H 667.824 -1.52573 -2.88771 0
M  V30 7007 H 666.483 -3.26895 -1.65938 0
M  V30 7008 H 666.131 -2.9024 -4.10816 0
M  V30 7009 H 665.831 -4.59944 -3.65685 0
M  V30 7010 H 667.355 -4.15347 -4.47571 0
M  V30 7011 H 668.769 -5.18272 -2.45085 0
M  V30 7012 H 667.166 -5.70624 -1.85763 0
M  V30 7013 H 668.236 -4.78494 -0.785571 0
M  V30 7014 N 669.579 0.400081 -1.52437 0
M  V30 7015 C 670.819 1.15526 -1.68622 0
M  V30 7016 C 671.183 1.87533 -0.411744 0
M  V30 7017 O 672.384 2.6501 -0.449804 0
M  V30 7018 C 670.655 2.11618 -2.88015 0
M  V30 7019 S 672.214 2.95121 -3.24729 0
M  V30 7020 H 669.032 0.39123 -0.593683 0
M  V30 7021 H 671.634 0.441255 -1.90455 0
M  V30 7022 H 670.338 1.5742 -3.79008 0
M  V30 7023 H 669.869 2.87544 -2.68481 0
M  V30 7024 H 671.884 4.13653 -2.74055 0
M  V30 7025 N 671.057 1.43213 0.657864 0
M  V30 7026 C 672.304 1.44584 1.41781 0
M  V30 7027 C 672.632 0.0684208 1.9438 0
M  V30 7028 O 671.887 -0.925872 1.72413 0
M  V30 7029 C 672.186 2.43143 2.61947 0
M  V30 7030 C 671.852 3.89128 2.27794 0
M  V30 7031 C 670.514 4.28889 2.18191 0
M  V30 7032 C 672.866 4.81144 2.00375 0
M  V30 7033 C 670.194 5.58625 1.79319 0
M  V30 7034 C 672.546 6.11239 1.63003 0
M  V30 7035 C 671.21 6.49981 1.51922 0
M  V30 7036 H 670.48 0.529069 0.518813 0
M  V30 7037 H 673.127 1.76263 0.748577 0
M  V30 7038 H 671.432 2.04851 3.33981 0
M  V30 7039 H 673.129 2.4146 3.20153 0
M  V30 7040 H 669.719 3.57657 2.36176 0
M  V30 7041 H 673.903 4.512 2.06718 0
M  V30 7042 H 669.159 5.87486 1.69323 0
M  V30 7043 H 673.333 6.82014 1.40817 0
M  V30 7044 H 670.96 7.50416 1.21572 0
M  V30 7045 N 672.536 -0.895792 1.29666 0
M  V30 7046 C 673.782 -1.64908 1.18039 0
M  V30 7047 C 674.115 -1.9236 -0.266682 0
M  V30 7048 O 673.39 -1.53682 -1.19214 0
M  V30 7049 C 673.673 -2.99574 1.99819 0
M  V30 7050 C 673.526 -2.79163 3.52687 0
M  V30 7051 C 674.845 -4.00358 1.82761 0
M  V30 7052 H 671.964 -0.598437 0.430165 0
M  V30 7053 H 674.606 -1.03736 1.59182 0
M  V30 7054 H 672.756 -3.51786 1.64859 0
M  V30 7055 H 674.428 -2.33821 3.9765 0
M  V30 7056 H 672.671 -2.13871 3.77414 0
M  V30 7057 H 673.342 -3.74871 4.05186 0
M  V30 7058 H 675.818 -3.57268 2.13304 0
M  V30 7059 H 674.694 -4.92514 2.42325 0
M  V30 7060 H 674.955 -4.35096 0.783839 0
M  V30 7061 N 674.014 -1.12206 -1.10668 0
M  V30 7062 C 675.263 -0.870595 -1.81944 0
M  V30 7063 C 675.576 0.605447 -1.85994 0
M  V30 7064 O 676.782 0.973433 -2.53449 0
M  V30 7065 C 675.238 -1.50783 -3.26791 0
M  V30 7066 C 674.846 -3.01849 -3.31046 0
M  V30 7067 C 676.59 -1.33653 -4.02911 0
M  V30 7068 C 674.497 -3.58518 -4.70339 0
M  V30 7069 H 673.427 -0.322043 -0.681765 0
M  V30 7070 H 676.078 -1.34827 -1.24475 0
M  V30 7071 H 674.46 -0.957825 -3.84242 0
M  V30 7072 H 675.634 -3.63321 -2.83433 0
M  V30 7073 H 673.949 -3.18346 -2.68411 0
M  V30 7074 H 676.546 -1.73416 -5.05797 0
M  V30 7075 H 676.889 -0.279949 -4.15358 0
M  V30 7076 H 677.422 -1.85562 -3.51868 0
M  V30 7077 H 674.161 -4.63925 -4.63091 0
M  V30 7078 H 673.681 -3.01819 -5.18329 0
M  V30 7079 H 675.36 -3.57434 -5.39305 0
M  V30 7080 N 675.492 1.28418 -0.913599 0
M  V30 7081 C 676.769 1.89977 -0.465619 0
M  V30 7082 C 677.149 1.82813 1.05559 0
M  V30 7083 O 676.497 1.26397 1.90358 0
M  V30 7084 C 676.707 3.34492 -0.995813 0
M  V30 7085 C 678.055 4.11468 -1.04782 0
M  V30 7086 O 679.079 3.43451 -0.944445 0
M  V30 7087 O 677.938 5.33046 -1.20518 0
M  V30 7088 H 675.032 0.813734 -0.147532 0
M  V30 7089 H 677.578 1.36786 -1.00437 0
M  V30 7090 H 676.35 3.33929 -2.03978 0
M  V30 7091 H 675.973 3.95181 -0.437878 0
M  V30 7092 N 676.97 0.677563 1.42291 0
M  V30 7093 C 677.9 0.014968 2.33495 0
M  V30 7094 C 678.881 -0.786376 1.50831 0
M  V30 7095 O 680.066 -0.742975 1.79426 0
M  V30 7096 C 677.196 -0.935023 3.34477 0
M  V30 7097 C 676.15 -0.242074 4.27315 0
M  V30 7098 C 675.476 -1.30519 5.18526 0
M  V30 7099 C 676.776 0.880604 5.14823 0
M  V30 7100 H 678.47 0.776671 2.89151 0
M  V30 7101 H 676.016 0.37494 1.39033 0
M  V30 7102 H 677.969 -1.40766 3.97194 0
M  V30 7103 H 676.693 -1.72818 2.77131 0
M  V30 7104 H 675.352 0.210351 3.65996 0
M  V30 7105 H 675 -2.09041 4.57505 0
M  V30 7106 H 674.7 -0.846652 5.81468 0
M  V30 7107 H 676.224 -1.7787 5.84119 0
M  V30 7108 H 677.638 0.489062 5.7121 0
M  V30 7109 H 676.035 1.26511 5.86613 0
M  V30 7110 H 677.105 1.72818 4.53059 0
M  V30 7111 N 678.448 -1.51871 0.421078 0
M  V30 7112 C 679.673 -2.0684 -0.152371 0
M  V30 7113 C 680.098 -1.28802 -1.37083 0
M  V30 7114 O 679.456 -0.321482 -1.78427 0
M  V30 7115 C 679.504 -3.57532 -0.469368 0
M  V30 7116 O 678.608 -3.81818 -1.55848 0
M  V30 7117 H 677.949 -0.663939 -0.00898586 0
M  V30 7118 H 680.479 -1.95674 0.597724 0
M  V30 7119 H 680.489 -4.01515 -0.724553 0
M  V30 7120 H 679.164 -4.13761 0.421276 0
M  V30 7121 H 677.741 -3.49709 -1.29453 0
M  V30 7122 N 679.926 -0.151884 -1.56866 0
M  V30 7123 C 680.859 0.824094 -2.128 0
M  V30 7124 C 681.837 1.2391 -1.05286 0
M  V30 7125 O 683.021 1.33433 -1.33146 0
M  V30 7126 C 680.148 2.1072 -2.65169 0
M  V30 7127 C 679.194 1.83774 -3.84876 0
M  V30 7128 S 680.027 1.02436 -5.25611 0
M  V30 7129 C 681.183 2.31855 -5.81373 0
M  V30 7130 H 681.416 0.348456 -2.95251 0
M  V30 7131 H 678.949 0.0624794 -1.54274 0
M  V30 7132 H 680.907 2.84428 -2.95992 0
M  V30 7133 H 679.568 2.55398 -1.8284 0
M  V30 7134 H 678.761 2.78929 -4.19779 0
M  V30 7135 H 678.363 1.18172 -3.5484 0
M  V30 7136 H 680.655 3.27469 -5.93102 0
M  V30 7137 H 681.598 2.01449 -6.7884 0
M  V30 7138 H 682.006 2.42727 -5.09651 0
M  V30 7139 N 681.404 1.57128 0.121893 0
M  V30 7140 C 682.65 1.84974 0.831418 0
M  V30 7141 C 682.983 0.737204 1.79663 0
M  V30 7142 O 682.258 -0.257199 1.92792 0
M  V30 7143 C 682.541 3.23397 1.58386 0
M  V30 7144 C 682.394 4.45246 0.638445 0
M  V30 7145 C 683.713 3.59355 2.54071 0
M  V30 7146 H 680.832 0.67282 0.300803 0
M  V30 7147 H 683.474 1.89759 0.0957587 0
M  V30 7148 H 681.624 3.19449 2.21098 0
M  V30 7149 H 683.296 4.61295 0.0203925 0
M  V30 7150 H 681.539 4.33771 -0.05023 0
M  V30 7151 H 682.21 5.38765 1.20151 0
M  V30 7152 H 684.686 3.64075 2.01465 0
M  V30 7153 H 683.562 4.57193 3.03752 0
M  V30 7154 H 683.823 2.86622 3.36601 0
M  V30 7155 N 682.882 -0.391992 1.52647 0
M  V30 7156 C 684.11 -1.1586 1.71418 0
M  V30 7157 C 684.525 -1.8381 0.431216 0
M  V30 7158 O 683.882 -1.7256 -0.594085 0
M  V30 7159 C 683.933 -2.20888 2.86165 0
M  V30 7160 O 683.654 -1.5571 4.09495 0
M  V30 7161 C 685.155 -3.103 3.1659 0
M  V30 7162 H 682.375 -0.347494 0.574011 0
M  V30 7163 H 684.919 -0.458972 1.99283 0
M  V30 7164 H 683.074 -2.86492 2.6077 0
M  V30 7165 H 683.488 -2.25474 4.73563 0
M  V30 7166 H 684.962 -3.8003 4.00351 0
M  V30 7167 H 685.439 -3.73639 2.30848 0
M  V30 7168 H 686.045 -2.50345 3.43813 0
M  V30 7169 N 684.36 -1.4356 -0.65026 0
M  V30 7170 C 685.637 -1.35811 -1.40765 0
M  V30 7171 C 686.017 -0.00736379 -2.11099 0
M  V30 7172 O 685.365 1.00932 -2.05 0
M  V30 7173 C 685.575 -2.54332 -2.3899 0
M  V30 7174 C 686.923 -2.97551 -3.02901 0
M  V30 7175 O 687.947 -2.544 -2.49317 0
M  V30 7176 O 686.806 -3.72311 -4.00059 0
M  V30 7177 H 683.9 -0.536861 -0.629054 0
M  V30 7178 H 686.446 -1.55615 -0.676919 0
M  V30 7179 H 685.218 -3.44274 -1.85986 0
M  V30 7180 H 684.841 -2.36643 -3.19509 0
M  V30 7181 N 685.838 0.888903 -1.30139 0
M  V30 7182 C 687.086 1.63713 -1.18501 0
M  V30 7183 C 687.407 1.9324 0.261399 0
M  V30 7184 O 686.677 1.56608 1.17689 0
M  V30 7185 H 685.257 0.606861 -0.435579 0
M  V30 7186 H 687.919 1.06525 -1.63213 0
M  V30 7187 H 687.015 2.58894 -1.743 0
M  V30 7188 N 687.317 1.12792 1.10072 0
M  V30 7189 C 688.565 0.883796 1.81751 0
M  V30 7190 C 688.886 -0.591891 1.858 0
M  V30 7191 O 688.156 -1.43017 1.33876 0
M  V30 7192 H 686.736 0.323978 0.673088 0
M  V30 7193 H 689.398 1.42314 1.33164 0
M  V30 7194 H 688.494 1.26863 2.85153 0
M  V30 7195 N 688.795 -1.27931 0.920396 0
M  V30 7196 C 689.728 -2.2537 0.358285 0
M  V30 7197 C 690.706 -1.53328 -0.541242 0
M  V30 7198 O 691.89 -1.82196 -0.483399 0
M  V30 7199 C 689.017 -3.35178 -0.487193 0
M  V30 7200 C 688.063 -4.25079 0.347881 0
M  V30 7201 S 688.896 -5.05792 1.75883 0
M  V30 7202 C 690.052 -6.19089 0.920832 0
M  V30 7203 H 690.285 -2.72701 1.18413 0
M  V30 7204 H 687.818 -1.36474 0.722088 0
M  V30 7205 H 689.776 -3.98895 -0.96916 0
M  V30 7206 H 688.437 -2.865 -1.28749 0
M  V30 7207 H 687.63 -5.03113 -0.298912 0
M  V30 7208 H 687.232 -3.66119 0.763748 0
M  V30 7209 H 689.524 -6.77326 0.15349 0
M  V30 7210 H 690.467 -6.8803 1.67394 0
M  V30 7211 H 690.875 -5.62573 0.466069 0
M  V30 7212 N 690.273 -0.685099 -1.4193 0
M  V30 7213 C 691.503 -0.220052 -2.05425 0
M  V30 7214 C 691.911 1.13185 -1.51611 0
M  V30 7215 O 691.254 1.71631 -0.654875 0
M  V30 7216 C 691.316 -0.0888364 -3.5939 0
M  V30 7217 C 690.98 -1.37109 -4.35947 0
M  V30 7218 C 691.977 -2.30675 -4.65924 0
M  V30 7219 C 689.662 -1.62155 -4.75406 0
M  V30 7220 C 691.656 -3.47556 -5.34306 0
M  V30 7221 C 689.343 -2.79324 -5.43527 0
M  V30 7222 C 690.341 -3.71848 -5.72903 0
M  V30 7223 O 690.029 -4.86966 -6.39624 0
M  V30 7224 H 689.761 -0.102165 -0.668235 0
M  V30 7225 H 692.315 -0.935194 -1.82875 0
M  V30 7226 H 690.545 0.681981 -3.80639 0
M  V30 7227 H 692.234 0.337669 -4.04493 0
M  V30 7228 H 693 -2.12579 -4.3593 0
M  V30 7229 H 688.879 -0.910053 -4.51928 0
M  V30 7230 H 692.423 -4.19794 -5.57153 0
M  V30 7231 H 688.32 -2.97342 -5.72938 0
M  V30 7232 H 689.088 -4.86644 -6.58118 0
M  V30 7233 N 691.751 1.51645 -0.429126 0
M  V30 7234 C 692.997 2.02314 0.140286 0
M  V30 7235 C 693.33 1.31314 1.43074 0
M  V30 7236 O 692.605 0.425531 1.89788 0
M  V30 7237 C 692.888 3.5822 0.36749 0
M  V30 7238 C 692.741 4.39846 -0.941039 0
M  V30 7239 C 694.06 4.25055 1.14089 0
M  V30 7240 H 691.179 0.735335 0.0495112 0
M  V30 7241 H 693.821 1.81358 -0.566514 0
M  V30 7242 H 691.971 3.76207 0.969556 0
M  V30 7243 H 693.643 4.33527 -1.57646 0
M  V30 7244 H 691.886 4.05259 -1.54751 0
M  V30 7245 H 692.557 5.47069 -0.73621 0
M  V30 7246 H 695.033 4.11288 0.630986 0
M  V30 7247 H 693.909 5.34038 1.26863 0
M  V30 7248 H 694.17 3.85358 2.16683 0
M  V30 7249 N 693.229 0.160201 1.56784 0
M  V30 7250 C 694.476 -0.487588 1.96542 0
M  V30 7251 C 694.804 -1.63999 1.04569 0
M  V30 7252 O 694.059 -1.95546 0.0775211 0
M  V30 7253 C 694.358 -1.02259 3.42459 0
M  V30 7254 C 694.024 0.0127436 4.50898 0
M  V30 7255 C 692.686 0.297318 4.80281 0
M  V30 7256 C 695.038 0.716078 5.16257 0
M  V30 7257 C 692.366 1.29081 5.72324 0
M  V30 7258 C 694.718 1.69847 6.09372 0
M  V30 7259 C 693.382 1.99061 6.37127 0
M  V30 7260 H 692.652 -0.178421 0.719199 0
M  V30 7261 H 695.299 0.249818 1.89864 0
M  V30 7262 H 693.604 -1.8376 3.46034 0
M  V30 7263 H 695.301 -1.53261 3.70556 0
M  V30 7264 H 691.891 -0.219235 4.28039 0
M  V30 7265 H 696.075 0.509428 4.93679 0
M  V30 7266 H 691.331 1.52344 5.92116 0
M  V30 7267 H 695.505 2.2489 6.59088 0
M  V30 7268 H 693.132 2.76194 7.08252 0
M  V30 7269 N 694.707 -1.5719 -0.113559 0
M  V30 7270 C 695.639 -1.97393 -1.16484 0
M  V30 7271 C 696.652 -0.873964 -1.37352 0
M  V30 7272 O 697.841 -1.15222 -1.36331 0
M  V30 7273 C 694.941 -2.26174 -2.52386 0
M  V30 7274 C 694.114 -3.57479 -2.52046 0
M  V30 7275 C 693.173 -3.74409 -3.69735 0
M  V30 7276 O 692.199 -4.46463 -3.53071 0
M  V30 7277 N 693.401 -3.13588 -4.88511 0
M  V30 7278 H 696.166 -2.88184 -0.822814 0
M  V30 7279 H 693.727 -1.59044 -0.302769 0
M  V30 7280 H 695.719 -2.3471 -3.29687 0
M  V30 7281 H 694.289 -1.41483 -2.7875 0
M  V30 7282 H 693.509 -3.60081 -1.60421 0
M  V30 7283 H 694.797 -4.43775 -2.48881 0
M  V30 7284 H 694.195 -2.55026 -5.04953 0
M  V30 7285 H 692.752 -3.27637 -5.63469 0
M  V30 7286 N 696.185 0.383891 -1.52853 0
M  V30 7287 C 697.115 1.47559 -1.80965 0
M  V30 7288 C 698.096 1.5669 -0.661986 0
M  V30 7289 O 699.281 1.71556 -0.910072 0
M  V30 7290 C 696.411 2.85114 -1.98312 0
M  V30 7291 C 695.365 2.9082 -3.14019 0
M  V30 7292 C 694.691 4.30873 -3.16627 0
M  V30 7293 C 695.991 2.60001 -4.52986 0
M  V30 7294 H 697.685 1.24283 -2.72386 0
M  V30 7295 H 695.231 0.596445 -1.31067 0
M  V30 7296 H 697.184 3.61496 -2.16561 0
M  V30 7297 H 695.908 3.09738 -1.03585 0
M  V30 7298 H 694.567 2.16886 -2.9556 0
M  V30 7299 H 694.215 4.52545 -2.19573 0
M  V30 7300 H 693.915 4.3561 -3.94357 0
M  V30 7301 H 695.439 5.09154 -3.37038 0
M  V30 7302 H 696.853 3.261 -4.71521 0
M  V30 7303 H 695.25 2.76081 -5.32822 0
M  V30 7304 H 696.32 1.5532 -4.59351 0
M  V30 7305 N 697.663 1.43903 0.642637 0
M  V30 7306 C 698.91 1.46079 1.40239 0
M  V30 7307 C 699.238 0.0890335 1.94296 0
M  V30 7308 O 698.493 -0.907533 1.73385 0
M  V30 7309 C 698.792 2.45907 2.59354 0
M  V30 7310 C 698.458 3.91522 2.23654 0
M  V30 7311 C 697.12 4.31179 2.1363 0
M  V30 7312 C 699.472 4.83242 1.95261 0
M  V30 7313 C 696.8 5.60495 1.73384 0
M  V30 7314 C 699.152 6.12933 1.56511 0
M  V30 7315 C 697.816 6.51556 1.4502 0
M  V30 7316 H 697.086 0.534542 0.513172 0
M  V30 7317 H 699.733 1.77047 0.72984 0
M  V30 7318 H 698.038 2.08381 3.3179 0
M  V30 7319 H 699.735 2.44842 3.17574 0
M  V30 7320 H 696.325 3.60142 2.32369 0
M  V30 7321 H 700.509 4.53367 2.0192 0
M  V30 7322 H 695.765 5.89249 1.63082 0
M  V30 7323 H 699.939 6.83469 1.33576 0
M  V30 7324 H 697.566 7.51663 1.13606 0
M  V30 7325 N 699.141 -0.881989 1.30609 0
M  V30 7326 C 700.418 -1.61563 1.10258 0
M  V30 7327 C 700.798 -2.08228 -0.347053 0
M  V30 7328 O 700.146 -1.85151 -1.33908 0
M  V30 7329 C 700.356 -2.78287 2.10612 0
M  V30 7330 C 701.704 -3.48545 2.4249 0
M  V30 7331 O 702.728 -2.88479 2.08945 0
M  V30 7332 O 701.587 -4.56873 2.99883 0
M  V30 7333 H 698.681 -0.710238 0.423663 0
M  V30 7334 H 701.227 -0.928503 1.42045 0
M  V30 7335 H 699.999 -2.41131 3.08174 0
M  V30 7336 H 699.622 -3.54695 1.79659 0
M  V30 7337 N 700.619 -1.13374 -1.09472 0
M  V30 7338 C 701.849 -0.917019 -1.85133 0
M  V30 7339 C 702.257 0.537568 -1.81402 0
M  V30 7340 O 701.6 1.38385 -1.20811 0
M  V30 7341 C 701.662 -1.32646 -3.34134 0
M  V30 7342 C 701.326 -2.79437 -3.61613 0
M  V30 7343 C 702.323 -3.77596 -3.57375 0
M  V30 7344 C 700.008 -3.16586 -3.89973 0
M  V30 7345 C 702.002 -5.10916 -3.81108 0
M  V30 7346 C 699.689 -4.50085 -4.13361 0
M  V30 7347 C 700.687 -5.47059 -4.0892 0
M  V30 7348 O 700.375 -6.78149 -4.31705 0
M  V30 7349 H 700.107 -0.326997 -0.591649 0
M  V30 7350 H 702.661 -1.51002 -1.39239 0
M  V30 7351 H 700.891 -0.676719 -3.80733 0
M  V30 7352 H 702.58 -1.08229 -3.91205 0
M  V30 7353 H 703.346 -3.50242 -3.35493 0
M  V30 7354 H 699.225 -2.41707 -3.92554 0
M  V30 7355 H 702.769 -5.86597 -3.77558 0
M  V30 7356 H 698.666 -4.77163 -4.34724 0
M  V30 7357 H 699.434 -6.84244 -4.49168 0
M  V30 7358 N 702.098 1.27442 -0.927168 0
M  V30 7359 C 703.328 1.9821 -0.582775 0
M  V30 7360 C 703.736 1.69361 0.843406 0
M  V30 7361 O 703.079 0.950381 1.57205 0
M  V30 7362 C 703.141 3.52048 -0.728165 0
M  V30 7363 C 702.805 4.04518 -2.12637 0
M  V30 7364 C 703.802 4.17332 -3.10048 0
M  V30 7365 C 701.487 4.38879 -2.44317 0
M  V30 7366 C 703.481 4.6378 -4.37249 0
M  V30 7367 C 701.168 4.85018 -3.71753 0
M  V30 7368 C 702.166 4.97428 -4.68033 0
M  V30 7369 O 701.854 5.42556 -5.93202 0
M  V30 7370 H 701.586 0.639314 -0.219667 0
M  V30 7371 H 704.14 1.63272 -1.24626 0
M  V30 7372 H 702.37 3.86699 -0.00758143 0
M  V30 7373 H 704.059 4.04033 -0.388906 0
M  V30 7374 H 704.825 3.91046 -2.86894 0
M  V30 7375 H 700.704 4.28462 -1.70121 0
M  V30 7376 H 704.248 4.73382 -5.12402 0
M  V30 7377 H 700.145 5.10746 -3.94726 0
M  V30 7378 H 700.913 5.60811 -5.96182 0
M  V30 7379 N 703.576 0.692616 1.41565 0
M  V30 7380 C 704.801 0.229776 2.06123 0
M  V30 7381 C 705.226 -1.11119 1.5177 0
M  V30 7382 O 704.584 -1.69498 0.643444 0
M  V30 7383 C 704.632 0.19469 3.60074 0
M  V30 7384 O 703.736 -0.831366 4.03933 0
M  V30 7385 H 703.077 0.113002 0.654314 0
M  V30 7386 H 705.607 0.946645 1.81383 0
M  V30 7387 H 705.617 0.0245487 4.07993 0
M  V30 7388 H 704.292 1.17339 3.99004 0
M  V30 7389 H 702.869 -0.630819 3.67526 0
M  V30 7390 N 705.054 -1.51416 0.437162 0
M  V30 7391 C 706.017 -2.26312 -0.362729 0
M  V30 7392 C 707.017 -1.29748 -0.949847 0
M  V30 7393 O 708.207 -1.53462 -0.824325 0
M  V30 7394 C 705.339 -3.05475 -1.5132 0
M  V30 7395 H 706.532 -2.98459 0.29365 0
M  V30 7396 H 704.085 -1.55137 0.190327 0
M  V30 7397 H 704.82 -2.37744 -2.20563 0
M  V30 7398 H 704.605 -3.76401 -1.09838 0
M  V30 7399 H 706.095 -3.62209 -2.07833 0
M  V30 7400 N 706.532 -0.168513 -1.56696 0
M  V30 7401 C 707.757 0.486688 -2.01609 0
M  V30 7402 C 708.182 1.56203 -1.04796 0
M  V30 7403 O 707.54 1.8128 -0.0270596 0
M  V30 7404 C 707.588 1.04451 -3.45141 0
M  V30 7405 O 706.692 2.15862 -3.51393 0
M  V30 7406 H 706.033 0.116831 -0.653641 0
M  V30 7407 H 708.563 -0.271579 -2.0279 0
M  V30 7408 H 708.573 1.36782 -3.84389 0
M  V30 7409 H 707.248 0.257155 -4.15104 0
M  V30 7410 H 705.825 1.84597 -3.24004 0
M  V30 7411 N 708.01 1.57248 0.105221 0
M  V30 7412 C 709.258 1.85204 0.808951 0
M  V30 7413 C 709.579 0.75574 1.7976 0
M  V30 7414 O 708.849 -0.218984 1.94672 0
M  V30 7415 H 707.429 0.683346 0.301739 0
M  V30 7416 H 710.091 1.94695 0.0892605 0
M  V30 7417 H 709.187 2.81595 1.34575 0
M  V30 7418 N 709.488 -0.375779 1.53054 0
M  V30 7419 C 710.716 -1.14036 1.72637 0
M  V30 7420 C 711.131 -1.83342 0.450687 0
M  V30 7421 O 710.488 -1.7318 -0.575749 0
M  V30 7422 C 710.539 -2.17841 2.88492 0
M  V30 7423 O 710.26 -1.51358 4.11123 0
M  V30 7424 C 711.761 -3.06924 3.19863 0
M  V30 7425 H 708.981 -0.341386 0.577665 0
M  V30 7426 H 711.525 -0.437809 1.99759 0
M  V30 7427 H 709.68 -2.8371 2.63794 0
M  V30 7428 H 710.094 -2.20439 4.75928 0
M  V30 7429 H 711.568 -3.75763 4.04359 0
M  V30 7430 H 712.045 -3.71169 2.34798 0
M  V30 7431 H 712.651 -2.46684 3.46449 0
M  V30 7432 N 710.966 -1.44241 -0.634997 0
M  V30 7433 C 712.194 -1.50296 -1.42193 0
M  V30 7434 C 712.609 -0.12658 -1.88375 0
M  V30 7435 O 711.966 0.86678 -1.60603 0
M  V30 7436 C 712.017 -2.46437 -2.64482 0
M  V30 7437 O 711.738 -3.78724 -2.20226 0
M  V30 7438 C 713.239 -2.61918 -3.57651 0
M  V30 7439 H 710.459 -0.509865 -0.43621 0
M  V30 7440 H 713.003 -1.89167 -0.776921 0
M  V30 7441 H 711.158 -2.10712 -3.25083 0
M  V30 7442 H 711.572 -4.30595 -2.9948 0
M  V30 7443 H 713.046 -3.33225 -4.40074 0
M  V30 7444 H 713.523 -1.67017 -4.06204 0
M  V30 7445 H 714.129 -2.98528 -3.02921 0
M  V30 7446 N 712.444 0.87505 -1.31075 0
M  V30 7447 C 713.374 1.99775 -1.20881 0
M  V30 7448 C 714.355 1.69822 -0.0971612 0
M  V30 7449 O 715.54 1.92158 -0.280895 0
M  V30 7450 C 712.67 3.35163 -0.910118 0
M  V30 7451 C 711.624 3.79406 -1.98078 0
M  V30 7452 C 710.95 5.12197 -1.53488 0
M  V30 7453 C 712.25 3.97061 -3.39323 0
M  V30 7454 H 713.944 2.08562 -2.14808 0
M  V30 7455 H 711.49 1.00207 -1.03415 0
M  V30 7456 H 713.443 4.13237 -0.825423 0
M  V30 7457 H 712.167 3.26536 0.064822 0
M  V30 7458 H 710.826 3.03568 -2.05528 0
M  V30 7459 H 710.474 5.00007 -0.547941 0
M  V30 7460 H 710.174 5.4277 -2.2511 0
M  V30 7461 H 711.698 5.92785 -1.46417 0
M  V30 7462 H 713.112 4.65545 -3.34576 0
M  V30 7463 H 711.509 4.39025 -4.09118 0
M  V30 7464 H 712.579 3.00601 -3.80483 0
M  V30 7465 N 713.922 1.13953 1.08869 0
M  V30 7466 C 714.852 0.844824 2.17681 0
M  V30 7467 C 715.833 -0.198213 1.68941 0
M  V30 7468 O 717.018 -0.0559073 1.9412 0
M  V30 7469 C 714.148 0.316325 3.45856 0
M  V30 7470 C 713.102 1.29426 4.07962 0
M  V30 7471 C 712.428 0.625275 5.31031 0
M  V30 7472 C 713.728 2.65484 4.49795 0
M  V30 7473 H 715.422 1.75471 2.42591 0
M  V30 7474 H 712.968 0.845116 1.16592 0
M  V30 7475 H 714.921 0.0977876 4.21287 0
M  V30 7476 H 713.645 -0.628972 3.20486 0
M  V30 7477 H 712.304 1.49889 3.34558 0
M  V30 7478 H 711.952 -0.325678 5.01945 0
M  V30 7479 H 711.652 1.27777 5.73539 0
M  V30 7480 H 713.176 0.416152 6.0918 0
M  V30 7481 H 714.59 2.48957 5.16424 0
M  V30 7482 H 712.987 3.26963 5.03205 0
M  V30 7483 H 714.057 3.22717 3.61914 0
M  V30 7484 N 715.4 -1.26948 0.933913 0
M  V30 7485 C 716.646 -1.94716 0.587985 0
M  V30 7486 C 717.001 -1.71994 -0.862312 0
M  V30 7487 O 716.294 -1.04208 -1.60783 0
M  V30 7488 C 716.488 -3.46963 0.857406 0
M  V30 7489 C 716.317 -3.84489 2.33234 0
M  V30 7490 C 715.087 -4.07621 2.98618 0
M  V30 7491 C 717.285 -3.93602 3.31031 0
M  V30 7492 N 715.267 -4.31976 4.362 0
M  V30 7493 C 716.638 -4.22404 4.53845 0
M  V30 7494 C 718.693 -3.76201 3.26155 0
M  V30 7495 C 717.396 -4.35615 5.72391 0
M  V30 7496 C 719.422 -3.90641 4.4402 0
M  V30 7497 C 718.784 -4.19835 5.65613 0
M  V30 7498 H 714.883 -0.735586 0.2654 0
M  V30 7499 H 717.467 -1.53181 1.20182 0
M  V30 7500 H 715.638 -3.87442 0.27268 0
M  V30 7501 H 717.37 -4.01921 0.47348 0
M  V30 7502 H 714.125 -4.02696 2.49264 0
M  V30 7503 H 714.549 -4.48199 5.07392 0
M  V30 7504 H 719.191 -3.52665 2.3321 0
M  V30 7505 H 716.909 -4.57975 6.65796 0
M  V30 7506 H 720.495 -3.78589 4.41771 0
M  V30 7507 H 719.375 -4.30765 6.55295 0
M  V30 7508 N 716.879 -0.700114 -1.41195 0
M  V30 7509 C 717.811 0.00155823 -2.292 0
M  V30 7510 C 718.824 0.739736 -1.45023 0
M  V30 7511 O 720.013 0.589684 -1.68478 0
M  V30 7512 C 717.113 1.02635 -3.22985 0
M  V30 7513 C 716.286 0.356871 -4.35942 0
M  V30 7514 C 715.345 1.28491 -5.10271 0
M  V30 7515 O 714.371 0.775562 -5.63892 0
M  V30 7516 N 715.573 2.61699 -5.18164 0
M  V30 7517 H 718.338 -0.754008 -2.9006 0
M  V30 7518 H 715.899 -0.546504 -1.52397 0
M  V30 7519 H 717.891 1.64902 -3.6958 0
M  V30 7520 H 716.461 1.68341 -2.63401 0
M  V30 7521 H 715.681 -0.445753 -3.91672 0
M  V30 7522 H 716.969 -0.108469 -5.08684 0
M  V30 7523 H 716.367 3.05594 -4.76056 0
M  V30 7524 H 714.924 3.19149 -5.6832 0
M  V30 7525 N 718.357 1.51182 -0.445186 0
M  V30 7526 C 719.32 2.26501 0.350722 0
M  V30 7527 C 720.32 1.3025 0.942952 0
M  V30 7528 O 721.51 1.53897 0.816175 0
M  V30 7529 C 718.642 3.06274 1.49697 0
M  V30 7530 H 719.835 2.98299 -0.309474 0
M  V30 7531 H 717.388 1.55034 -0.198551 0
M  V30 7532 H 718.123 2.38911 2.19299 0
M  V30 7533 H 717.908 3.76979 1.0784 0
M  V30 7534 H 719.398 3.63306 2.05909 0
M  V30 7535 N 719.835 0.176821 1.56605 0
M  V30 7536 C 721.082 -0.466715 1.97048 0
M  V30 7537 C 721.41 -1.6288 1.06302 0
M  V30 7538 O 720.665 -1.95453 0.0982571 0
M  V30 7539 C 720.964 -0.986208 3.43524 0
M  V30 7540 C 720.63 0.0605667 4.50859 0
M  V30 7541 C 719.292 0.348242 4.79938 0
M  V30 7542 C 721.644 0.770794 5.15469 0
M  V30 7543 C 718.972 1.35144 5.70923 0
M  V30 7544 C 721.324 1.76301 6.07537 0
M  V30 7545 C 719.988 2.05808 6.3498 0
M  V30 7546 H 719.258 -0.170783 0.721051 0
M  V30 7547 H 721.905 0.269942 1.89588 0
M  V30 7548 H 720.21 -1.80079 3.47964 0
M  V30 7549 H 721.907 -1.49323 3.72161 0
M  V30 7550 H 718.497 -0.173823 4.28247 0
M  V30 7551 H 722.681 0.56176 4.9311 0
M  V30 7552 H 717.937 1.58616 5.90467 0
M  V30 7553 H 722.111 2.31868 6.56666 0
M  V30 7554 H 719.738 2.8369 7.05283 0
M  V30 7555 N 721.313 -1.57302 -0.09688 0
M  V30 7556 C 722.559 -1.87144 -0.796778 0
M  V30 7557 C 722.914 -0.767428 -1.76432 0
M  V30 7558 O 722.207 0.230728 -1.90206 0
M  V30 7559 C 722.401 -3.21272 -1.56586 0
M  V30 7560 C 722.23 -4.44616 -0.674295 0
M  V30 7561 C 721 -5.04281 -0.320705 0
M  V30 7562 C 723.198 -5.14297 0.0179445 0
M  V30 7563 N 721.18 -6.11162 0.579206 0
M  V30 7564 C 722.551 -6.15125 0.775992 0
M  V30 7565 C 724.606 -4.97815 0.0920521 0
M  V30 7566 C 723.309 -7.01251 1.60122 0
M  V30 7567 C 725.335 -5.84447 0.904175 0
M  V30 7568 C 724.697 -6.84794 1.65035 0
M  V30 7569 H 720.796 -0.734721 -0.267787 0
M  V30 7570 H 723.38 -1.94609 -0.0593955 0
M  V30 7571 H 721.551 -3.14862 -2.27413 0
M  V30 7572 H 723.283 -3.38846 -2.21281 0
M  V30 7573 H 720.038 -4.68866 -0.667961 0
M  V30 7574 H 720.462 -6.69247 1.02166 0
M  V30 7575 H 725.104 -4.20174 -0.470492 0
M  V30 7576 H 722.822 -7.78284 2.17484 0
M  V30 7577 H 726.408 -5.73755 0.964165 0
M  V30 7578 H 725.288 -7.50668 2.26864 0
M  V30 7579 N 722.791 0.367657 -1.53252 0
M  V30 7580 C 723.701 1.47415 -1.82499 0
M  V30 7581 C 724.717 1.58711 -0.713222 0
M  V30 7582 O 725.893 1.74644 -1.00306 0
M  V30 7583 C 722.958 2.82706 -2.00694 0
M  V30 7584 C 722.019 2.80955 -3.24596 0
M  V30 7585 C 721.252 4.09793 -3.41914 0
M  V30 7586 O 721.475 5.05852 -2.63572 0
M  V30 7587 O 720.409 4.15731 -4.3526 0
M  V30 7588 H 724.235 1.25624 -2.765 0
M  V30 7589 H 721.82 0.557559 -1.38606 0
M  V30 7590 H 723.702 3.62873 -2.14246 0
M  V30 7591 H 722.377 3.04479 -1.09883 0
M  V30 7592 H 721.284 1.99494 -3.16469 0
M  V30 7593 H 722.617 2.64136 -4.15323 0
M  V30 7594 N 724.269 1.44576 0.627338 0
M  V30 7595 C 725.509 1.49083 1.39834 0
M  V30 7596 C 725.873 0.121643 1.91614 0
M  V30 7597 O 727.074 0.0413885 2.68768 0
M  V30 7598 C 725.345 2.52467 2.52973 0
M  V30 7599 S 726.904 2.7605 3.41089 0
M  V30 7600 H 723.722 0.527252 0.476997 0
M  V30 7601 H 726.324 1.81525 0.725872 0
M  V30 7602 H 725.028 3.50646 2.13249 0
M  V30 7603 H 724.559 2.2161 3.25042 0
M  V30 7604 H 726.574 2.07932 4.50531 0
M  V30 7605 N 725.747 -0.868086 1.31537 0
M  V30 7606 C 726.993 -1.62367 1.2151 0
M  V30 7607 C 727.326 -1.92883 -0.225819 0
M  V30 7608 O 726.601 -1.56176 -1.15927 0
M  V30 7609 C 726.884 -2.95268 2.06129 0
M  V30 7610 C 726.737 -2.71619 3.58529 0
M  V30 7611 C 728.056 -3.96391 1.91212 0
M  V30 7612 H 725.175 -0.589178 0.442762 0
M  V30 7613 H 727.817 -1.00336 1.61347 0
M  V30 7614 H 725.967 -3.4821 1.72284 0
M  V30 7615 H 727.639 -2.25334 4.0252 0
M  V30 7616 H 725.882 -2.05817 3.81866 0
M  V30 7617 H 726.553 -3.66192 4.13047 0
M  V30 7618 H 729.029 -3.52663 2.20834 0
M  V30 7619 H 727.905 -4.87263 2.52718 0
M  V30 7620 H 728.166 -4.33335 0.875953 0
M  V30 7621 N 727.225 -1.14528 -1.08264 0
M  V30 7622 C 728.471 -0.91576 -1.80947 0
M  V30 7623 C 728.804 0.55623 -1.86064 0
M  V30 7624 O 728.079 1.41207 -1.33756 0
M  V30 7625 C 728.362 -1.51917 -3.26486 0
M  V30 7626 C 728.215 -3.06111 -3.2957 0
M  V30 7627 C 729.534 -1.19724 -4.23502 0
M  V30 7628 H 726.653 -0.334113 -0.656915 0
M  V30 7629 H 729.295 -1.41547 -1.26746 0
M  V30 7630 H 727.445 -1.0942 -3.72773 0
M  V30 7631 H 729.117 -3.57448 -2.91597 0
M  V30 7632 H 727.36 -3.40483 -2.688 0
M  V30 7633 H 728.031 -3.43438 -4.32151 0
M  V30 7634 H 730.507 -1.56467 -3.85561 0
M  V30 7635 H 729.383 -1.64575 -5.23647 0
M  V30 7636 H 729.644 -0.112771 -4.41956 0
M  V30 7637 N 728.703 1.26451 -0.940633 0
M  V30 7638 C 729.949 1.94065 -0.58878 0
M  V30 7639 C 730.282 1.7363 0.869853 0
M  V30 7640 O 729.557 1.073 1.62225 0
M  V30 7641 C 729.84 3.47852 -0.931199 0
M  V30 7642 C 729.693 3.77575 -2.44453 0
M  V30 7643 C 731.012 4.37832 -0.446229 0
M  V30 7644 H 728.131 0.704827 -0.21538 0
M  V30 7645 H 730.773 1.4933 -1.17475 0
M  V30 7646 H 728.923 3.86085 -0.432539 0
M  V30 7647 H 730.595 3.49059 -3.01588 0
M  V30 7648 H 728.838 3.23671 -2.88825 0
M  V30 7649 H 729.509 4.85068 -2.63464 0
M  V30 7650 H 731.985 4.06822 -0.873778 0
M  V30 7651 H 730.861 5.44228 -0.714648 0
M  V30 7652 H 731.122 4.37239 0.653815 0
M  V30 7653 N 730.181 0.707592 1.40822 0
M  V30 7654 C 731.144 0.0587224 2.29125 0
M  V30 7655 C 732.144 -0.695624 1.44975 0
M  V30 7656 O 733.334 -0.528718 1.65983 0
M  V30 7657 C 730.466 -0.926939 3.28056 0
M  V30 7658 H 731.659 0.836349 2.88002 0
M  V30 7659 H 729.212 0.471778 1.4901 0
M  V30 7660 H 729.947 -1.7319 2.74182 0
M  V30 7661 H 729.732 -0.389015 3.90165 0
M  V30 7662 H 731.222 -1.37837 3.94196 0
M  V30 7663 N 731.66 -1.50943 0.453197 0
M  V30 7664 C 732.906 -2.03153 -0.100277 0
M  V30 7665 C 733.261 -1.33032 -1.38997 0
M  V30 7666 O 732.554 -0.441423 -1.86446 0
M  V30 7667 C 732.748 -3.55603 -0.357944 0
M  V30 7668 C 732.577 -4.40495 0.905223 0
M  V30 7669 C 731.347 -4.84247 1.44337 0
M  V30 7670 C 733.545 -4.81931 1.79575 0
M  V30 7671 N 731.527 -5.53403 2.65742 0
M  V30 7672 C 732.898 -5.50314 2.85577 0
M  V30 7673 C 734.953 -4.63903 1.80828 0
M  V30 7674 C 733.656 -6.02581 3.92797 0
M  V30 7675 C 735.682 -5.17097 2.86993 0
M  V30 7676 C 735.044 -5.8544 3.91713 0
M  V30 7677 H 731.143 -0.781995 0.00287755 0
M  V30 7678 H 733.727 -1.84651 0.617411 0
M  V30 7679 H 731.898 -3.74087 -1.04467 0
M  V30 7680 H 733.63 -3.9447 -0.904175 0
M  V30 7681 H 730.385 -4.63029 0.995045 0
M  V30 7682 H 730.809 -5.92598 3.27348 0
M  V30 7683 H 735.451 -4.10512 1.0119 0
M  V30 7684 H 733.169 -6.55018 4.73262 0
M  V30 7685 H 736.755 -5.0499 2.88923 0
M  V30 7686 H 735.635 -6.25861 4.72512 0
M  V30 7687 N 733.138 -0.185124 -1.56509 0
M  V30 7688 C 734.384 0.456934 -1.97585 0
M  V30 7689 C 734.717 1.61957 -1.07161 0
M  V30 7690 O 733.992 1.9412 -0.121546 0
M  V30 7691 C 734.275 0.926666 -3.47973 0
M  V30 7692 C 734.128 -0.237097 -4.49175 0
M  V30 7693 C 735.447 1.79561 -4.01803 0
M  V30 7694 H 732.566 0.164619 -0.71838 0
M  V30 7695 H 735.208 -0.274039 -1.88013 0
M  V30 7696 H 733.358 1.54954 -3.56261 0
M  V30 7697 H 735.03 -0.87454 -4.52934 0
M  V30 7698 H 733.273 -0.890446 -4.24563 0
M  V30 7699 H 733.944 0.133924 -5.51838 0
M  V30 7700 H 736.42 1.27039 -3.96232 0
M  V30 7701 H 735.296 2.09327 -5.07418 0
M  V30 7702 H 735.557 2.74629 -3.46455 0
M  V30 7703 N 734.616 1.57351 0.0885366 0
M  V30 7704 C 735.846 1.90355 0.80303 0
M  V30 7705 C 736.254 0.777678 1.72478 0
M  V30 7706 O 735.597 -0.258908 1.81866 0
M  V30 7707 C 735.659 3.18674 1.66395 0
M  V30 7708 C 735.323 4.4778 0.913327 0
M  V30 7709 C 736.32 5.19345 0.240148 0
M  V30 7710 C 734.005 4.94434 0.885462 0
M  V30 7711 C 735.999 6.35803 -0.450854 0
M  V30 7712 C 733.686 6.10802 0.190679 0
M  V30 7713 C 734.684 6.81337 -0.476295 0
M  V30 7714 O 734.372 7.95488 -1.15992 0
M  V30 7715 H 734.104 0.634035 0.234469 0
M  V30 7716 H 736.658 2.05287 0.0681959 0
M  V30 7717 H 734.888 2.99906 2.44117 0
M  V30 7718 H 736.577 3.37458 2.2556 0
M  V30 7719 H 737.343 4.84339 0.253092 0
M  V30 7720 H 733.222 4.39417 1.39406 0
M  V30 7721 H 736.766 6.90795 -0.972019 0
M  V30 7722 H 732.663 6.45261 0.175603 0
M  V30 7723 H 733.431 8.11509 -1.06749 0
M  V30 7724 N 736.094 -0.359525 1.53444 0
M  V30 7725 C 737.342 -1.09935 1.69584 0
M  V30 7726 C 737.663 -1.89656 0.453371 0
M  V30 7727 O 736.933 -1.8852 -0.53263 0
M  V30 7728 H 735.513 -0.408843 0.625185 0
M  V30 7729 H 738.175 -0.40467 1.90653 0
M  V30 7730 H 737.271 -1.78575 2.55964 0
M  V30 7731 N 737.572 -1.44907 -0.619662 0
M  V30 7732 C 738.535 -1.52282 -1.71297 0
M  V30 7733 C 739.535 -0.40359 -1.55653 0
M  V30 7734 O 740.725 -0.666638 -1.6094 0
M  V30 7735 C 737.857 -1.40778 -3.10474 0
M  V30 7736 H 739.05 -2.49683 -1.66128 0
M  V30 7737 H 736.603 -1.32168 -0.834339 0
M  V30 7738 H 737.338 -0.445156 -3.2123 0
M  V30 7739 H 737.123 -2.21947 -3.23237 0
M  V30 7740 H 738.613 -1.48946 -3.90135 0
M  V30 7741 N 739.05 0.861098 -1.31996 0
M  V30 7742 C 740.327 1.59788 -1.12814 0
M  V30 7743 C 740.707 2.08753 0.313882 0
M  V30 7744 O 740.055 1.87258 1.30946 0
M  V30 7745 C 740.265 2.74901 -2.15012 0
M  V30 7746 C 741.613 3.44643 -2.48004 0
M  V30 7747 O 742.637 2.85119 -2.13508 0
M  V30 7748 O 741.496 4.52044 -3.07113 0
M  V30 7749 H 738.59 0.703408 -0.434909 0
M  V30 7750 H 741.136 0.905788 -1.43505 0
M  V30 7751 H 739.908 2.36198 -3.11971 0
M  V30 7752 H 739.531 3.51792 -1.85279 0
M  V30 7753 N 740.528 1.15101 1.07655 0
M  V30 7754 C 741.944 0.893004 1.32279 0
M  V30 7755 C 742.144 -0.461701 1.96139 0
M  V30 7756 O 741.2 -1.20431 2.21929 0
M  V30 7757 C 742.513 2.03161 2.21689 0
M  V30 7758 C 744.061 2.06579 2.35147 0
M  V30 7759 C 744.536 3.19754 3.27905 0
M  V30 7760 N 746.027 3.19382 3.35484 0
M  V30 7761 C 746.762 4.03592 4.07309 0
M  V30 7762 N 746.258 4.97859 4.81776 0
M  V30 7763 N 748.051 3.91626 4.03219 0
M  V30 7764 H 740.202 2.02341 0.645886 0
M  V30 7765 H 742.465 0.882127 0.347211 0
M  V30 7766 H 742.171 3.00934 1.82021 0
M  V30 7767 H 742.045 1.96132 3.22199 0
M  V30 7768 H 744.432 1.09408 2.74069 0
M  V30 7769 H 744.513 2.17676 1.34353 0
M  V30 7770 H 744.157 4.17175 2.89702 0
M  V30 7771 H 744.087 3.05893 4.28645 0
M  V30 7772 H 746.578 2.51112 2.82403 0
M  V30 7773 H 746.891 5.58563 5.34067 0
M  V30 7774 H 745.236 5.0185 4.80803 0
M  V30 7775 H 748.427 3.17295 3.44154 0
M  V30 7776 H 748.6 4.57479 4.5893 0
M  V30 7777 N 742.006 -1.2595 0.947325 0
M  V30 7778 C 743.253 -1.93463 0.598178 0
M  V30 7779 C 743.581 -1.74271 -0.863705 0
M  V30 7780 O 742.836 -1.07684 -1.63409 0
M  V30 7781 C 743.135 -3.46034 0.894158 0
M  V30 7782 C 742.801 -3.85373 2.3409 0
M  V30 7783 C 741.463 -3.95823 2.73637 0
M  V30 7784 C 743.815 -4.04986 3.2808 0
M  V30 7785 C 741.143 -4.23288 4.06257 0
M  V30 7786 C 743.495 -4.3394 4.60303 0
M  V30 7787 C 742.159 -4.42606 4.99656 0
M  V30 7788 H 741.429 -0.707933 0.218889 0
M  V30 7789 H 744.076 -1.4964 1.19499 0
M  V30 7790 H 742.381 -3.9121 0.214874 0
M  V30 7791 H 744.078 -3.96445 0.602698 0
M  V30 7792 H 740.668 -3.7779 2.02417 0
M  V30 7793 H 744.852 -3.96333 2.9872 0
M  V30 7794 H 740.108 -4.28211 4.36401 0
M  V30 7795 H 744.282 -4.48061 5.33118 0
M  V30 7796 H 741.909 -4.63641 6.02446 0
M  V30 7797 N 743.484 -0.715051 -1.40445 0
M  V30 7798 C 744.417 -0.0112426 -2.28197 0
M  V30 7799 C 745.395 0.768211 -1.43308 0
M  V30 7800 O 746.579 0.754961 -1.72721 0
M  V30 7801 C 743.706 0.991453 -3.23864 0
M  V30 7802 C 742.752 0.302873 -4.25423 0
M  V30 7803 S 743.585 -0.968852 -5.26663 0
M  V30 7804 C 744.741 0.0317538 -6.25892 0
M  V30 7805 H 744.974 -0.755467 -2.87541 0
M  V30 7806 H 742.507 -0.506054 -1.45871 0
M  V30 7807 H 744.465 1.56475 -3.79507 0
M  V30 7808 H 743.126 1.70838 -2.63578 0
M  V30 7809 H 742.319 1.06086 -4.92709 0
M  V30 7810 H 741.921 -0.197853 -3.73476 0
M  V30 7811 H 744.213 0.878764 -6.71777 0
M  V30 7812 H 745.156 -0.607698 -7.05488 0
M  V30 7813 H 745.564 0.39524 -5.63115 0
M  V30 7814 N 744.962 1.50701 -0.461195 0
M  V30 7815 C 746.239 1.94958 0.158296 0
M  V30 7816 C 746.619 1.40111 1.57899 0
M  V30 7817 O 745.967 0.597976 2.20537 0
M  V30 7818 C 746.177 3.48821 0.11172 0
M  V30 7819 C 747.525 4.23499 0.30552 0
M  V30 7820 O 748.549 3.557 0.188758 0
M  V30 7821 O 747.408 5.43823 0.540244 0
M  V30 7822 H 744.502 0.818674 0.117054 0
M  V30 7823 H 747.048 1.61508 -0.520888 0
M  V30 7824 H 745.82 3.81263 -0.880577 0
M  V30 7825 H 745.443 3.88781 0.832791 0
M  V30 7826 N 746.441 0.193421 1.56409 0
M  V30 7827 C 747.718 -0.493318 1.89277 0
M  V30 7828 C 748.098 -1.79765 1.10669 0
M  V30 7829 O 747.446 -2.27558 0.207274 0
M  V30 7830 C 747.656 -0.713732 3.41624 0
M  V30 7831 C 749.004 -1.03385 4.11821 0
M  V30 7832 O 750.028 -0.801511 3.47065 0
M  V30 7833 O 748.887 -1.47327 5.26267 0
M  V30 7834 H 745.981 -0.256973 0.786062 0
M  V30 7835 H 748.527 0.23351 1.68086 0
M  V30 7836 H 747.299 0.207446 3.9075 0
M  V30 7837 H 746.922 -1.49308 3.68501 0
M  V30 7838 N 747.919 -1.57396 -0.0801906 0
M  V30 7839 C 749.168 -1.8602 -0.779702 0
M  V30 7840 C 749.481 -0.784864 -1.79163 0
M  V30 7841 O 750.687 -0.958691 -2.54011 0
M  V30 7842 C 749.143 -3.29942 -1.43758 0
M  V30 7843 C 748.751 -4.45584 -0.464654 0
M  V30 7844 C 750.495 -3.67775 -2.11995 0
M  V30 7845 C 748.402 -5.80544 -1.12797 0
M  V30 7846 H 747.332 -0.69392 -0.294943 0
M  V30 7847 H 749.983 -1.83471 -0.0328527 0
M  V30 7848 H 748.365 -3.27078 -2.2324 0
M  V30 7849 H 749.539 -4.59824 0.299749 0
M  V30 7850 H 747.854 -4.16247 0.112813 0
M  V30 7851 H 750.451 -4.65896 -2.62383 0
M  V30 7852 H 750.794 -2.9715 -2.91561 0
M  V30 7853 H 751.327 -3.72593 -1.39354 0
M  V30 7854 H 748.066 -6.54439 -0.372807 0
M  V30 7855 H 747.586 -5.70119 -1.86344 0
M  V30 7856 H 749.265 -6.25602 -1.6502 0
M  V30 7857 N 749.397 0.351382 -1.53633 0
M  V30 7858 C 750.36 1.41403 -1.80383 0
M  V30 7859 C 751.36 1.45963 -0.674635 0
M  V30 7860 O 752.55 1.46476 -0.942895 0
M  V30 7861 C 749.682 2.80401 -1.93876 0
M  V30 7862 H 750.875 1.18951 -2.75301 0
M  V30 7863 H 748.428 0.58533 -1.44926 0
M  V30 7864 H 749.163 3.08147 -1.01074 0
M  V30 7865 H 748.948 2.78488 -2.7602 0
M  V30 7866 H 750.438 3.57329 -2.16116 0
M  V30 7867 N 750.875 1.45233 0.611969 0
M  V30 7868 C 752.115 1.50558 1.38245 0
M  V30 7869 C 752.479 0.141959 1.91474 0
M  V30 7870 O 753.68 0.0698926 2.68709 0
M  V30 7871 C 751.951 2.55136 2.50281 0
M  V30 7872 S 753.51 2.79652 3.38142 0
M  V30 7873 H 750.328 0.532281 0.471378 0
M  V30 7874 H 752.93 1.82285 0.706578 0
M  V30 7875 H 751.634 3.52888 2.09518 0
M  V30 7876 H 751.165 2.25045 3.22674 0
M  V30 7877 H 753.18 2.12699 4.48301 0
M  V30 7878 N 752.353 -0.854086 1.3245 0
M  V30 7879 C 753.286 -1.96654 1.15768 0
M  V30 7880 C 754.264 -1.625 0.0569975 0
M  V30 7881 O 755.448 -1.87254 0.216412 0
M  V30 7882 C 752.575 -3.29776 0.772361 0
M  V30 7883 C 751.621 -3.82909 1.87837 0
M  V30 7884 S 752.454 -4.0643 3.48675 0
M  V30 7885 C 753.61 -5.42526 3.12116 0
M  V30 7886 H 753.843 -2.10504 2.09942 0
M  V30 7887 H 751.376 -1.00612 1.17118 0
M  V30 7888 H 753.334 -4.06706 0.556809 0
M  V30 7889 H 751.995 -3.13739 -0.150519 0
M  V30 7890 H 751.188 -4.79192 1.56177 0
M  V30 7891 H 750.79 -3.12825 2.0498 0
M  V30 7892 H 753.082 -6.24792 2.61996 0
M  V30 7893 H 754.025 -5.79148 4.07422 0
M  V30 7894 H 754.433 -5.06556 2.49121 0
M  V30 7895 N 753.831 -1.1567 -1.07043 0
M  V30 7896 C 755.08 -0.928039 -1.79082 0
M  V30 7897 C 755.393 0.545968 -1.87826 0
M  V30 7898 O 756.599 0.892308 -2.56418 0
M  V30 7899 C 755.055 -1.61103 -3.21829 0
M  V30 7900 C 754.663 -3.12228 -3.21275 0
M  V30 7901 C 756.407 -1.46404 -3.98455 0
M  V30 7902 C 754.314 -3.733 -4.58695 0
M  V30 7903 H 753.244 -0.34357 -0.671175 0
M  V30 7904 H 755.895 -1.38718 -1.20123 0
M  V30 7905 H 754.277 -1.07958 -3.81 0
M  V30 7906 H 755.451 -3.72155 -2.71731 0
M  V30 7907 H 753.766 -3.26725 -2.58147 0
M  V30 7908 H 756.363 -1.8942 -5.00024 0
M  V30 7909 H 756.706 -0.41195 -4.14257 0
M  V30 7910 H 757.239 -1.96663 -3.45787 0
M  V30 7911 H 753.978 -4.78423 -4.48098 0
M  V30 7912 H 753.498 -3.18157 -5.08465 0
M  V30 7913 H 755.177 -3.7441 -5.27661 0
M  V30 7914 N 755.309 1.25446 -0.953992 0
M  V30 7915 C 756.557 1.92762 -0.607227 0
M  V30 7916 C 756.878 1.7509 0.858399 0
M  V30 7917 O 756.148 1.11416 1.61132 0
M  V30 7918 H 754.728 0.713377 -0.221591 0
M  V30 7919 H 757.39 1.52625 -1.21209 0
M  V30 7920 H 756.486 3.00695 -0.835998 0
M  V30 7921 N 756.787 0.722489 1.40064 0
M  V30 7922 C 758.017 0.274439 2.04769 0
M  V30 7923 C 758.425 -1.09125 1.54559 0
M  V30 7924 O 757.768 -1.69834 0.700149 0
M  V30 7925 C 757.83 0.184091 3.59028 0
M  V30 7926 C 757.494 1.48619 4.32159 0
M  V30 7927 C 758.491 2.42947 4.59644 0
M  V30 7928 C 756.176 1.74703 4.7094 0
M  V30 7929 C 758.17 3.616 5.24904 0
M  V30 7930 C 755.857 2.93636 5.3593 0
M  V30 7931 C 756.855 3.86907 5.62843 0
M  V30 7932 O 756.543 5.03753 6.26489 0
M  V30 7933 H 756.275 0.119847 0.665292 0
M  V30 7934 H 758.829 0.983352 1.80331 0
M  V30 7935 H 757.059 -0.580821 3.82313 0
M  V30 7936 H 758.748 -0.230306 4.05246 0
M  V30 7937 H 759.514 2.24062 4.30141 0
M  V30 7938 H 755.393 1.02955 4.49356 0
M  V30 7939 H 758.937 4.34418 5.45827 0
M  V30 7940 H 754.834 3.12428 5.64853 0
M  V30 7941 H 755.602 5.03922 6.44984 0
M  V30 7942 N 758.265 -1.50454 0.469181 0
M  V30 7943 C 759.681 -1.59124 0.123226 0
M  V30 7944 C 759.881 -1.47749 -1.37013 0
M  V30 7945 O 758.937 -1.335 -2.14322 0
M  V30 7946 C 760.25 -2.93101 0.67172 0
M  V30 7947 C 761.798 -3.06491 0.634978 0
M  V30 7948 C 762.273 -4.43041 1.16098 0
M  V30 7949 N 763.764 -4.49448 1.12031 0
M  V30 7950 C 764.499 -5.53491 1.49784 0
M  V30 7951 N 763.995 -6.64798 1.94976 0
M  V30 7952 N 765.788 -5.44025 1.41399 0
M  V30 7953 H 757.939 -1.56091 1.44046 0
M  V30 7954 H 760.202 -0.737564 0.59557 0
M  V30 7955 H 759.908 -3.06895 1.7178 0
M  V30 7956 H 759.782 -3.77027 0.114222 0
M  V30 7957 H 762.169 -2.92346 -0.402187 0
M  V30 7958 H 762.25 -2.24328 1.22926 0
M  V30 7959 H 761.894 -4.57935 2.19677 0
M  V30 7960 H 761.824 -5.23794 0.542939 0
M  V30 7961 H 764.315 -3.69575 0.788828 0
M  V30 7962 H 764.628 -7.40246 2.21936 0
M  V30 7963 H 762.973 -6.65923 1.98927 0
M  V30 7964 H 766.164 -4.55955 1.05935 0
M  V30 7965 H 766.337 -6.2499 1.71147 0
M  V30 7966 N 759.743 -0.201713 -1.56304 0
M  V30 7967 C 761.154 0.309711 -1.84113 0
M  V30 7968 C 761.505 1.60912 -1.12258 0
M  V30 7969 O 760.63 2.12937 -0.385587 0
M  V30 7970 C 761.225 0.568706 -3.33993 0
M  V30 7971 C 759.784 1.02448 -3.6219 0
M  V30 7972 C 758.931 0.0766842 -2.77194 0
M  V30 7973 H 761.882 -0.425356 -1.52893 0
M  V30 7974 H 761.903 1.41721 -3.53122 0
M  V30 7975 H 761.415 -0.37719 -3.86263 0
M  V30 7976 H 759.516 1.98443 -3.15359 0
M  V30 7977 H 759.629 0.912619 -4.70328 0
M  V30 7978 H 757.993 0.579809 -2.48013 0
M  V30 7979 H 758.776 -0.863774 -3.32256 0
M  V30 7980 N 761.222 1.57436 0.0718424 0
M  V30 7981 C 762.462 1.89082 0.776351 0
M  V30 7982 C 762.826 0.795494 1.74745 0
M  V30 7983 O 764.027 0.995025 2.49705 0
M  V30 7984 C 762.298 3.25958 1.46582 0
M  V30 7985 S 763.857 3.79352 2.2054 0
M  V30 7986 H 760.675 0.662472 0.25817 0
M  V30 7987 H 763.277 1.95473 0.0324536 0
M  V30 7988 H 761.981 4.03577 0.745237 0
M  V30 7989 H 761.512 3.22764 2.24915 0
M  V30 7990 H 763.527 3.54634 3.47058 0
M  V30 7991 N 762.7 -0.34323 1.53817 0
M  V30 7992 C 764.111 -0.918823 1.62525 0
M  V30 7993 C 764.462 -1.89542 0.506765 0
M  V30 7994 O 763.587 -2.13326 -0.363441 0
M  V30 7995 C 764.182 -1.67326 2.94597 0
M  V30 7996 C 762.741 -2.19786 3.05567 0
M  V30 7997 C 761.888 -1.01708 2.57974 0
M  V30 7998 H 764.839 -0.121358 1.58235 0
M  V30 7999 H 764.86 -2.53615 2.83654 0
M  V30 8000 H 764.372 -0.962223 3.75983 0
M  V30 8001 H 762.473 -2.94065 2.28816 0
M  V30 8002 H 762.586 -2.46135 4.1104 0
M  V30 8003 H 760.95 -1.39058 2.13389 0
M  V30 8004 H 761.733 -0.320671 3.41799 0
M  V30 8005 N 764.178 -1.45556 -0.604258 0
M  V30 8006 C 765.424 -1.50958 -1.3632 0
M  V30 8007 C 765.779 -0.15051 -1.9181 0
M  V30 8008 O 765.072 0.838035 -1.72301 0
M  V30 8009 C 765.266 -2.52697 -2.52743 0
M  V30 8010 C 765.095 -3.98364 -2.08654 0
M  V30 8011 C 763.865 -4.66295 -1.94671 0
M  V30 8012 C 766.063 -4.86801 -1.6592 0
M  V30 8013 N 764.045 -5.96669 -1.44428 0
M  V30 8014 C 765.416 -6.06829 -1.27115 0
M  V30 8015 C 767.471 -4.73634 -1.53542 0
M  V30 8016 C 766.174 -7.15149 -0.771676 0
M  V30 8017 C 768.2 -5.82005 -1.04998 0
M  V30 8018 C 767.562 -7.01191 -0.671599 0
M  V30 8019 H 763.661 -0.607329 -0.492621 0
M  V30 8020 H 766.245 -1.82048 -0.69041 0
M  V30 8021 H 764.416 -2.23554 -3.17614 0
M  V30 8022 H 766.148 -2.48227 -3.19633 0
M  V30 8023 H 762.903 -4.21496 -2.15959 0
M  V30 8024 H 763.327 -6.66003 -1.21528 0
M  V30 8025 H 767.969 -3.81898 -1.81421 0
M  V30 8026 H 765.687 -8.06671 -0.480442 0
M  V30 8027 H 769.273 -5.73851 -0.958423 0
M  V30 8028 H 768.153 -7.83619 -0.301752 0
M  V30 8029 N 765.656 0.84705 -1.32902 0
M  V30 8030 C 766.589 1.96038 -1.1681 0
M  V30 8031 C 767.567 1.62468 -0.0656144 0
M  V30 8032 O 768.751 1.87136 -0.226339 0
M  V30 8033 C 765.878 3.29362 -0.789839 0
M  V30 8034 C 764.924 3.81908 -1.89865 0
M  V30 8035 S 765.757 4.04576 -3.50826 0
M  V30 8036 C 766.913 5.40863 -3.14989 0
M  V30 8037 H 767.146 2.09387 -2.11055 0
M  V30 8038 H 764.679 0.999896 -1.1765 0
M  V30 8039 H 766.637 4.06405 -0.578369 0
M  V30 8040 H 765.298 3.13815 0.133878 0
M  V30 8041 H 764.491 4.78357 -1.58716 0
M  V30 8042 H 764.093 3.11733 -2.06636 0
M  V30 8043 H 766.385 6.23393 -2.65306 0
M  V30 8044 H 767.328 5.7698 -4.10488 0
M  V30 8045 H 767.736 5.05228 -2.51804 0
M  V30 8046 N 767.134 1.16236 1.06428 0
M  V30 8047 C 768.081 0.86769 2.13869 0
M  V30 8048 C 769.051 -0.183298 1.65086 0
M  V30 8049 O 770.236 -0.0488002 1.90738 0
M  V30 8050 C 767.376 0.373427 3.43074 0
M  V30 8051 C 766.489 1.48708 4.05598 0
M  V30 8052 C 765.624 0.947977 5.22673 0
M  V30 8053 C 764.663 2.03793 5.77178 0
M  V30 8054 N 763.8 1.51451 6.85571 0
M  V30 8055 H 768.64 1.78781 2.38414 0
M  V30 8056 H 766.177 0.891892 1.16977 0
M  V30 8057 H 768.135 0.0685035 4.17144 0
M  V30 8058 H 766.765 -0.509752 3.1875 0
M  V30 8059 H 765.817 1.908 3.29089 0
M  V30 8060 H 767.129 2.30964 4.42105 0
M  V30 8061 H 766.283 0.596154 6.03764 0
M  V30 8062 H 765.022 0.0947081 4.87608 0
M  V30 8063 H 764.027 2.39847 4.94726 0
M  V30 8064 H 765.252 2.89514 6.14295 0
M  V30 8065 H 763.198 0.683755 6.52427 0
M  V30 8066 H 763.115 2.27325 7.21013 0
M  V30 8067 H 764.383 1.19123 7.70344 0
M  V30 8068 N 768.612 -1.24939 0.960631 0
M  V30 8069 C 769.858 -1.93425 0.629155 0
M  V30 8070 C 770.213 -1.73784 -0.825635 0
M  V30 8071 O 769.506 -1.07595 -1.58536 0
M  V30 8072 C 769.7 -3.45066 0.930809 0
M  V30 8073 C 769.529 -3.79455 2.41337 0
M  V30 8074 C 768.299 -4.01195 3.07197 0
M  V30 8075 C 770.497 -3.86492 3.39306 0
M  V30 8076 N 768.479 -4.22626 4.45265 0
M  V30 8077 C 769.85 -4.12682 4.62702 0
M  V30 8078 C 771.905 -3.69198 3.34061 0
M  V30 8079 C 770.608 -4.23376 5.81502 0
M  V30 8080 C 772.634 -3.81135 4.52206 0
M  V30 8081 C 771.996 -4.07743 5.74391 0
M  V30 8082 H 768.095 -0.729791 0.280943 0
M  V30 8083 H 770.679 -1.50597 1.23404 0
M  V30 8084 H 768.85 -3.86776 0.354801 0
M  V30 8085 H 770.582 -4.00826 0.558627 0
M  V30 8086 H 767.337 -3.97319 2.5775 0
M  V30 8087 H 767.761 -4.37335 5.16785 0
M  V30 8088 H 772.403 -3.47639 2.40638 0
M  V30 8089 H 770.121 -4.4375 6.75361 0
M  V30 8090 H 773.707 -3.69133 4.49702 0
M  V30 8091 H 772.587 -4.16768 6.64284 0
M  V30 8092 N 770.09 -0.729906 -1.39679 0
M  V30 8093 C 771.33 -0.280232 -2.0247 0
M  V30 8094 C 771.694 1.11006 -1.56658 0
M  V30 8095 O 772.895 1.65753 -2.11612 0
M  V30 8096 C 771.166 -0.372922 -3.55449 0
M  V30 8097 S 772.725 -0.00233974 -4.388 0
M  V30 8098 H 769.543 -0.110139 -0.702418 0
M  V30 8099 H 772.145 -0.955296 -1.70571 0
M  V30 8100 H 770.849 -1.38616 -3.86282 0
M  V30 8101 H 770.38 0.320136 -3.92095 0
M  V30 8102 H 772.395 1.21544 -4.81084 0
M  V30 8103 N 771.568 1.50203 -0.477153 0
M  V30 8104 C 772.814 2.03286 0.0679442 0
M  V30 8105 C 773.169 1.35227 1.36863 0
M  V30 8106 O 772.462 0.471029 1.8572 0
M  V30 8107 C 772.656 3.56127 0.301325 0
M  V30 8108 C 772.485 4.38999 -0.975188 0
M  V30 8109 C 771.255 4.81889 -1.52022 0
M  V30 8110 C 773.453 4.79013 -1.8722 0
M  V30 8111 N 771.435 5.49105 -2.74513 0
M  V30 8112 C 772.806 5.45701 -2.94296 0
M  V30 8113 C 774.861 4.60967 -1.88185 0
M  V30 8114 C 773.564 5.96255 -4.02333 0
M  V30 8115 C 775.59 5.12466 -2.95183 0
M  V30 8116 C 774.952 5.79134 -4.00977 0
M  V30 8117 H 771.051 0.78185 -0.015318 0
M  V30 8118 H 773.635 1.83646 -0.64671 0
M  V30 8119 H 771.806 3.75702 0.985021 0
M  V30 8120 H 773.538 3.95859 0.841304 0
M  V30 8121 H 770.293 4.61387 -1.06858 0
M  V30 8122 H 770.717 5.87315 -3.36734 0
M  V30 8123 H 775.359 4.0885 -1.07708 0
M  V30 8124 H 773.077 6.47406 -4.83623 0
M  V30 8125 H 776.663 5.00329 -2.96921 0
M  V30 8126 H 775.543 6.18265 -4.82409 0
M  V30 8127 N 773.046 0.209999 1.56195 0
M  V30 8128 C 774.271 -0.433064 2.02828 0
M  V30 8129 C 774.696 -1.5337 1.08901 0
M  V30 8130 O 774.054 -1.81144 0.0751132 0
M  V30 8131 C 774.102 -0.952635 3.47789 0
M  V30 8132 O 773.206 -2.0647 3.56993 0
M  V30 8133 H 772.547 -0.0994594 0.656509 0
M  V30 8134 H 775.077 0.32525 2.01998 0
M  V30 8135 H 775.087 -1.26542 3.8788 0
M  V30 8136 H 773.762 -0.147007 4.1564 0
M  V30 8137 H 772.339 -1.75942 3.28784 0
M  V30 8138 N 774.524 -1.57472 -0.0634922 0
M  V30 8139 C 775.771 -1.87654 -0.761066 0
M  V30 8140 C 776.099 -0.802847 -1.77157 0
M  V30 8141 O 775.354 0.200244 -1.94673 0
M  V30 8142 C 775.653 -3.24521 -1.49736 0
M  V30 8143 C 775.319 -4.46532 -0.626065 0
M  V30 8144 C 773.981 -4.7965 -0.385978 0
M  V30 8145 C 776.333 -5.21195 -0.0224001 0
M  V30 8146 C 773.661 -5.84837 0.467118 0
M  V30 8147 C 776.013 -6.27286 0.818198 0
M  V30 8148 C 774.677 -6.58899 1.06808 0
M  V30 8149 H 773.947 -0.686675 -0.278494 0
M  V30 8150 H 776.594 -1.91488 -0.0216348 0
M  V30 8151 H 774.899 -3.16516 -2.30921 0
M  V30 8152 H 776.596 -3.45111 -2.04204 0
M  V30 8153 H 773.186 -4.20618 -0.823325 0
M  V30 8154 H 777.37 -4.95917 -0.194985 0
M  V30 8155 H 772.626 -6.07725 0.669375 0
M  V30 8156 H 776.8 -6.84298 1.29265 0
M  V30 8157 H 774.427 -7.40233 1.73088 0
M  V30 8158 N 776.003 0.335068 -1.53997 0
M  V30 8159 C 777.25 1.07435 -1.71651 0
M  V30 8160 C 777.578 1.88378 -0.48413 0
M  V30 8161 O 776.833 1.8827 0.534139 0
M  V30 8162 C 777.132 2.0364 -2.9371 0
M  V30 8163 C 776.798 1.38942 -4.28959 0
M  V30 8164 C 775.46 1.21027 -4.65732 0
M  V30 8165 C 777.812 0.924083 -5.12943 0
M  V30 8166 C 775.14 0.552097 -5.84097 0
M  V30 8167 C 777.492 0.27978 -6.31981 0
M  V30 8168 C 776.156 0.0883843 -6.67441 0
M  V30 8169 H 775.426 0.393133 -0.628114 0
M  V30 8170 H 778.073 0.352712 -1.88224 0
M  V30 8171 H 776.378 2.82215 -2.71775 0
M  V30 8172 H 778.075 2.6085 -3.04562 0
M  V30 8173 H 774.665 1.53885 -4.00022 0
M  V30 8174 H 778.849 1.05032 -4.85059 0
M  V30 8175 H 774.105 0.392502 -6.10139 0
M  V30 8176 H 778.279 -0.0888479 -6.96343 0
M  V30 8177 H 775.906 -0.423657 -7.59019 0
M  V30 8178 N 777.481 1.45874 0.596531 0
M  V30 8179 C 778.709 1.54013 1.38158 0
M  V30 8180 C 779.124 0.17648 1.87973 0
M  V30 8181 O 778.481 -0.823895 1.62844 0
M  V30 8182 C 778.532 2.53363 2.57855 0
M  V30 8183 O 778.253 3.8443 2.10108 0
M  V30 8184 C 779.754 2.71308 3.50581 0
M  V30 8185 H 776.974 0.521251 0.422538 0
M  V30 8186 H 779.518 1.9116 0.726493 0
M  V30 8187 H 777.673 2.19257 3.19382 0
M  V30 8188 H 778.087 4.38384 2.87958 0
M  V30 8189 H 779.561 3.44776 4.31084 0
M  V30 8190 H 780.038 1.77728 4.01633 0
M  V30 8191 H 780.644 3.06455 2.94899 0
M  V30 8192 N 778.959 -0.83999 1.33349 0
M  V30 8193 C 780.37 -1.41139 1.22216 0
M  V30 8194 C 780.721 -1.95551 -0.159398 0
M  V30 8195 O 779.846 -1.88721 -1.05893 0
M  V30 8196 C 780.441 -2.56564 2.21269 0
M  V30 8197 C 779 -3.09661 2.13979 0
M  V30 8198 C 778.147 -1.82457 2.08818 0
M  V30 8199 H 781.098 -0.645853 1.44964 0
M  V30 8200 H 781.119 -3.34163 1.81976 0
M  V30 8201 H 780.631 -2.16932 3.21811 0
M  V30 8202 H 778.732 -3.53841 1.16736 0
M  V30 8203 H 778.845 -3.6991 3.04472 0
M  V30 8204 H 777.209 -2.0266 1.54276 0
M  V30 8205 H 777.992 -1.45022 3.11165 0
M  V30 8206 N 780.437 -1.16799 -1.0581 0
M  V30 8207 C 781.367 -0.902241 -2.15364 0
M  V30 8208 C 782.348 0.153351 -1.69407 0
M  V30 8209 O 783.533 0.00442032 -1.94199 0
M  V30 8210 C 780.663 -0.407911 -3.44896 0
M  V30 8211 C 779.617 -1.40197 -4.04387 0
M  V30 8212 C 778.943 -0.765848 -5.29187 0
M  V30 8213 C 780.243 -2.77316 -4.42598 0
M  V30 8214 H 781.937 -1.81841 -2.37853 0
M  V30 8215 H 779.483 -0.875731 -1.14311 0
M  V30 8216 H 781.436 -0.20945 -4.20879 0
M  V30 8217 H 780.16 0.54378 -3.22041 0
M  V30 8218 H 778.819 -1.58707 -3.30466 0
M  V30 8219 H 778.467 0.192482 -5.02632 0
M  V30 8220 H 778.167 -1.42939 -5.69949 0
M  V30 8221 H 779.691 -0.577519 -6.07863 0
M  V30 8222 H 781.105 -2.62561 -5.09642 0
M  V30 8223 H 779.502 -3.4019 -4.94359 0
M  V30 8224 H 780.572 -3.32199 -3.53231 0
M  V30 8225 N 781.915 1.24427 -0.967243 0
M  V30 8226 C 783.161 1.92772 -0.629812 0
M  V30 8227 C 783.494 1.75436 0.832827 0
M  V30 8228 O 782.769 1.10716 1.59913 0
M  V30 8229 C 783.052 3.45798 -1.00477 0
M  V30 8230 C 782.905 3.72304 -2.52407 0
M  V30 8231 C 784.224 4.36787 -0.538999 0
M  V30 8232 H 781.343 0.700099 -0.230282 0
M  V30 8233 H 783.985 1.46805 -1.20616 0
M  V30 8234 H 782.135 3.8508 -0.514336 0
M  V30 8235 H 783.807 3.42584 -3.08924 0
M  V30 8236 H 782.05 3.17472 -2.95625 0
M  V30 8237 H 782.721 4.7937 -2.73693 0
M  V30 8238 H 785.197 4.04877 -0.959874 0
M  V30 8239 H 784.073 5.4259 -0.829926 0
M  V30 8240 H 784.334 4.38527 0.560923 0
M  V30 8241 N 783.393 0.737304 1.3929 0
M  V30 8242 C 784.633 0.290966 2.02318 0
M  V30 8243 C 784.997 -1.10174 1.57244 0
M  V30 8244 O 786.198 -1.64628 2.12488 0
M  V30 8245 C 784.469 0.391767 3.55246 0
M  V30 8246 S 786.028 0.0256103 4.38793 0
M  V30 8247 H 782.846 0.113862 0.701824 0
M  V30 8248 H 785.448 0.964329 1.70062 0
M  V30 8249 H 784.152 1.40662 3.85542 0
M  V30 8250 H 783.683 -0.299338 3.9226 0
M  V30 8251 H 785.698 -1.18991 4.81722 0
M  V30 8252 N 784.871 -1.49948 0.485112 0
M  V30 8253 C 785.804 -2.25531 -0.348027 0
M  V30 8254 C 786.782 -1.29433 -0.984172 0
M  V30 8255 O 787.966 -1.58687 -1.01738 0
M  V30 8256 C 785.093 -3.04225 -1.48878 0
M  V30 8257 C 784.139 -4.15355 -0.968616 0
M  V30 8258 S 784.972 -5.35347 0.127934 0
M  V30 8259 C 786.128 -6.17593 -1.01637 0
M  V30 8260 H 786.361 -2.95847 0.293529 0
M  V30 8261 H 783.894 -1.52018 0.27018 0
M  V30 8262 H 785.852 -3.50153 -2.14251 0
M  V30 8263 H 784.513 -2.33407 -2.1019 0
M  V30 8264 H 783.706 -4.69873 -1.82305 0
M  V30 8265 H 783.308 -3.71936 -0.392377 0
M  V30 8266 H 785.6 -6.49576 -1.92503 0
M  V30 8267 H 786.543 -7.0626 -0.510149 0
M  V30 8268 H 786.951 -5.49877 -1.27653 0
M  V30 8269 N 786.349 -0.21828 -1.56081 0
M  V30 8270 C 787.597 0.413488 -1.97825 0
M  V30 8271 C 787.918 1.60527 -1.10707 0
M  V30 8272 O 787.188 1.9504 -0.183378 0
M  V30 8273 H 785.768 0.155757 -0.730581 0
M  V30 8274 H 788.43 -0.310413 -1.92412 0
M  V30 8275 H 787.526 0.742024 -3.03151 0
M  V30 8276 N 787.827 1.57504 0.0551401 0
M  V30 8277 C 789.076 1.87237 0.750009 0
M  V30 8278 C 789.389 0.813268 1.77891 0
M  V30 8279 O 790.595 0.99898 2.52453 0
M  V30 8280 C 789.051 3.32187 1.38491 0
M  V30 8281 C 788.659 4.46267 0.393707 0
M  V30 8282 C 790.403 3.71101 2.06117 0
M  V30 8283 C 788.31 5.82265 1.03547 0
M  V30 8284 H 787.24 0.698524 0.283866 0
M  V30 8285 H 789.891 1.835 0.00365997 0
M  V30 8286 H 788.273 3.30588 2.18008 0
M  V30 8287 H 789.447 4.59289 -0.372865 0
M  V30 8288 H 787.762 4.16015 -0.17902 0
M  V30 8289 H 790.359 4.70012 2.54937 0
M  V30 8290 H 790.702 3.01751 2.86796 0
M  V30 8291 H 791.235 3.74762 1.33409 0
M  V30 8292 H 787.974 6.54949 0.268644 0
M  V30 8293 H 787.494 5.73012 1.7725 0
M  V30 8294 H 789.173 6.28148 1.55047 0
M  V30 8295 N 789.305 -0.326896 1.54172 0
M  V30 8296 C 790.552 -1.06523 1.72218 0
M  V30 8297 C 790.88 -1.88119 0.494114 0
M  V30 8298 O 790.135 -1.8855 -0.524147 0
M  V30 8299 C 790.434 -2.0208 2.94785 0
M  V30 8300 C 790.1 -1.36665 4.2969 0
M  V30 8301 C 788.762 -1.18556 4.66367 0
M  V30 8302 C 791.114 -0.896868 5.13425 0
M  V30 8303 C 788.442 -0.521113 5.84381 0
M  V30 8304 C 790.794 -0.246261 6.3212 0
M  V30 8305 C 789.458 -0.052987 6.67479 0
M  V30 8306 H 788.728 -0.389796 0.63019 0
M  V30 8307 H 791.375 -0.342725 1.88408 0
M  V30 8308 H 789.68 -2.8077 2.73268 0
M  V30 8309 H 791.377 -2.59231 3.05941 0
M  V30 8310 H 787.967 -1.51762 4.00832 0
M  V30 8311 H 792.151 -1.02458 4.85609 0
M  V30 8312 H 787.407 -0.36014 6.10338 0
M  V30 8313 H 791.581 0.125775 6.96286 0
M  V30 8314 H 789.208 0.463903 7.58783 0
M  V30 8315 N 790.784 -1.46188 -0.588786 0
M  V30 8316 C 792.033 -1.50452 -1.34339 0
M  V30 8317 C 792.346 -0.158096 -1.9496 0
M  V30 8318 O 793.552 -0.0784918 -2.71387 0
M  V30 8319 C 792.008 -2.65074 -2.43441 0
M  V30 8320 C 791.616 -4.06111 -1.8915 0
M  V30 8321 C 793.36 -2.78603 -3.20282 0
M  V30 8322 C 791.267 -5.12084 -2.95845 0
M  V30 8323 H 790.197 -0.559905 -0.504997 0
M  V30 8324 H 792.848 -1.72382 -0.629014 0
M  V30 8325 H 791.23 -2.36462 -3.1765 0
M  V30 8326 H 792.404 -4.44487 -1.21524 0
M  V30 8327 H 790.719 -3.97197 -1.24995 0
M  V30 8328 H 793.316 -3.54944 -3.99898 0
M  V30 8329 H 793.659 -1.85902 -3.72486 0
M  V30 8330 H 794.192 -3.06832 -2.53178 0
M  V30 8331 H 790.931 -6.06556 -2.48535 0
M  V30 8332 H 790.451 -4.78259 -3.61979 0
M  V30 8333 H 792.13 -5.37661 -3.59902 0
M  V30 8334 N 792.262 0.832906 -1.33792 0
M  V30 8335 C 793.509 1.58853 -1.25586 0
M  V30 8336 C 793.837 1.93695 0.176807 0
M  V30 8337 O 793.092 1.59386 1.13554 0
M  V30 8338 C 793.391 2.9047 -2.08235 0
M  V30 8339 C 793.057 2.74965 -3.57358 0
M  V30 8340 C 791.719 2.70444 -3.98012 0
M  V30 8341 C 794.071 2.59347 -4.52093 0
M  V30 8342 C 791.399 2.48212 -5.31608 0
M  V30 8343 C 793.751 2.38649 -5.85858 0
M  V30 8344 C 792.415 2.32533 -6.25687 0
M  V30 8345 H 791.685 0.581285 -0.459553 0
M  V30 8346 H 794.332 0.964501 -1.65438 0
M  V30 8347 H 792.637 3.57111 -1.6118 0
M  V30 8348 H 794.334 3.48001 -1.99239 0
M  V30 8349 H 790.924 2.79319 -3.25083 0
M  V30 8350 H 795.108 2.6187 -4.2159 0
M  V30 8351 H 790.364 2.41929 -5.61498 0
M  V30 8352 H 794.538 2.25549 -6.58863 0
M  V30 8353 H 792.165 2.15067 -7.29143 0
M  V30 8354 N 793.74 1.17359 1.05189 0
M  V30 8355 C 794.688 0.886527 2.15043 0
M  V30 8356 C 795.682 -0.148834 1.68745 0
M  V30 8357 O 796.888 -0.00175123 1.8 0
M  V30 8358 H 793.263 0.269147 0.702185 0
M  V30 8359 H 795.234 1.82016 2.36459 0
M  V30 8360 C 793.983 0.416333 3.45198 0
M  V30 8361 H 793.306 1.20449 3.81225 0
M  V30 8362 H 794.746 0.254362 4.23236 0
M  V30 8363 C 793.205 -0.866016 3.25579 0
M  V30 8364 O 793.735 -1.9328 3.52144 0
M  V30 8365 N 791.941 -0.814179 2.78961 0
M  V30 8366 H 791.488 0.0541618 2.57543 0
M  V30 8367 H 791.446 -1.67264 2.66214 0
M  V30 8368 N 795.218 -1.23913 0.973828 0
M  V30 8369 C 796.464 -1.92436 0.640026 0
M  V30 8370 C 796.797 -1.75875 -0.823512 0
M  V30 8371 O 796.072 -1.11563 -1.59323 0
M  V30 8372 C 796.355 -3.4526 1.0231 0
M  V30 8373 C 796.208 -3.70961 2.54378 0
M  V30 8374 C 797.527 -4.36495 0.562155 0
M  V30 8375 H 794.646 -0.698868 0.233992 0
M  V30 8376 H 797.288 -1.46163 1.21393 0
M  V30 8377 H 795.438 -3.84802 0.534751 0
M  V30 8378 H 797.11 -3.40941 3.10737 0
M  V30 8379 H 795.353 -3.15899 2.97305 0
M  V30 8380 H 796.024 -4.77912 2.76232 0
M  V30 8381 H 798.5 -4.04363 0.981333 0
M  V30 8382 H 797.376 -5.42142 0.858689 0
M  V30 8383 H 797.637 -4.38818 -0.537659 0
M  V30 8384 N 796.696 -0.74468 -1.38897 0
M  V30 8385 C 797.942 -0.297324 -2.00609 0
M  V30 8386 C 798.275 1.11547 -1.58968 0
M  V30 8387 O 797.55 1.76227 -0.823057 0
M  V30 8388 C 797.833 -0.410125 -3.57757 0
M  V30 8389 C 797.686 -1.86338 -4.09387 0
M  V30 8390 C 799.005 0.20176 -4.39637 0
M  V30 8391 H 796.124 -0.109509 -0.728819 0
M  V30 8392 H 798.766 -0.942653 -1.64967 0
M  V30 8393 H 796.916 0.139287 -3.8825 0
M  V30 8394 H 798.588 -2.47042 -3.89574 0
M  V30 8395 H 796.831 -2.38146 -3.62586 0
M  V30 8396 H 797.502 -1.89352 -5.18507 0
M  V30 8397 H 799.978 -0.266703 -4.15244 0
M  V30 8398 H 798.854 0.0925415 -5.48822 0
M  V30 8399 H 799.115 1.289 -4.22891 0
M  V30 8400 N 798.174 1.49689 -0.493057 0
M  V30 8401 C 799.404 2.06536 0.0512397 0
M  V30 8402 C 799.812 1.35459 1.32089 0
M  V30 8403 O 799.155 0.424145 1.78736 0
M  V30 8404 C 799.217 3.57452 0.383231 0
M  V30 8405 C 798.881 4.50163 -0.787555 0
M  V30 8406 C 799.878 4.92151 -1.67582 0
M  V30 8407 C 797.563 4.92565 -0.984109 0
M  V30 8408 C 799.557 5.7527 -2.74487 0
M  V30 8409 C 797.244 5.75463 -2.05634 0
M  V30 8410 C 798.242 6.16719 -2.93507 0
M  V30 8411 O 797.93 6.97961 -3.98881 0
M  V30 8412 H 797.662 0.675862 -0.0136516 0
M  V30 8413 H 800.216 1.9356 -0.687298 0
M  V30 8414 H 798.446 3.68408 1.17526 0
M  V30 8415 H 800.135 3.96572 0.8652 0
M  V30 8416 H 800.901 4.60043 -1.53575 0
M  V30 8417 H 796.78 4.5996 -0.309541 0
M  V30 8418 H 800.324 6.07392 -3.43104 0
M  V30 8419 H 796.221 6.06983 -2.19639 0
M  V30 8420 H 796.989 7.16253 -3.96137 0
M  V30 8421 N 799.652 0.226554 1.55963 0
M  V30 8422 C 800.882 -0.407915 2.02533 0
M  V30 8423 C 801.29 -1.53539 1.10554 0
M  V30 8424 O 800.633 -1.8338 0.108409 0
M  V30 8425 C 800.695 -0.996081 3.45425 0
M  V30 8426 C 800.359 -0.00341651 4.57 0
M  V30 8427 C 801.356 0.798782 5.13727 0
M  V30 8428 C 799.041 0.116786 5.02164 0
M  V30 8429 C 801.035 1.70784 6.14094 0
M  V30 8430 C 798.722 1.02937 6.02368 0
M  V30 8431 C 799.72 1.82344 6.5821 0
M  V30 8432 O 799.408 2.72067 7.56462 0
M  V30 8433 H 799.14 -0.103524 0.668026 0
M  V30 8434 H 801.694 0.341937 2.02534 0
M  V30 8435 H 799.924 -1.79512 3.42509 0
M  V30 8436 H 801.613 -1.53848 3.75614 0
M  V30 8437 H 802.379 0.716393 4.7968 0
M  V30 8438 H 798.258 -0.491172 4.58376 0
M  V30 8439 H 801.802 2.32807 6.57607 0
M  V30 8440 H 797.699 1.11276 6.35836 0
M  V30 8441 H 798.467 2.66199 7.74003 0
M  V30 8442 N 801.13 -1.57531 -0.0467866 0
M  V30 8443 C 802.04 -2.08768 -1.07018 0
M  V30 8444 C 803.056 -1.02245 -1.40791 0
M  V30 8445 O 804.232 -1.33873 -1.50466 0
M  V30 8446 C 801.297 -2.54221 -2.35738 0
M  V30 8447 C 800.358 -3.75152 -2.08709 0
M  V30 8448 C 799.591 -4.18428 -3.31291 0
M  V30 8449 O 799.814 -3.61365 -4.4133 0
M  V30 8450 O 798.748 -5.11018 -3.18032 0
M  V30 8451 H 802.574 -2.96334 -0.664812 0
M  V30 8452 H 800.159 -1.47074 -0.262605 0
M  V30 8453 H 802.041 -2.83866 -3.11445 0
M  V30 8454 H 800.716 -1.69774 -2.75605 0
M  V30 8455 H 799.623 -3.50553 -1.30627 0
M  V30 8456 H 800.956 -4.60528 -1.73708 0
M  V30 8457 N 802.608 0.318715 -1.54344 0
M  V30 8458 C 804.019 0.89285 -1.63967 0
M  V30 8459 C 804.37 1.88712 -0.536855 0
M  V30 8460 O 803.495 2.13877 0.329457 0
M  V30 8461 C 804.09 1.62618 -2.97222 0
M  V30 8462 C 802.649 2.14897 -3.09025 0
M  V30 8463 C 801.796 0.975909 -2.5956 0
M  V30 8464 H 804.747 0.0961687 -1.58408 0
M  V30 8465 H 804.768 2.4907 -2.87653 0
M  V30 8466 H 804.28 0.902286 -3.77466 0
M  V30 8467 H 802.381 2.90387 -2.33465 0
M  V30 8468 H 802.494 2.39565 -4.14904 0
M  V30 8469 H 800.858 1.35646 -2.15574 0
M  V30 8470 H 801.641 0.266253 -3.42266 0
M  V30 8471 N 804.086 1.46499 0.581025 0
M  V30 8472 C 805.016 1.60052 1.70017 0
M  V30 8473 C 805.997 0.450788 1.64018 0
M  V30 8474 O 807.182 0.677237 1.82009 0
M  V30 8475 C 804.312 1.5921 3.08658 0
M  V30 8476 C 803.266 2.73169 3.29488 0
M  V30 8477 C 802.592 2.57389 4.68674 0
M  V30 8478 C 803.892 4.14978 3.1716 0
M  V30 8479 H 805.586 2.53735 1.5893 0
M  V30 8480 H 803.132 1.22113 0.763173 0
M  V30 8481 H 805.085 1.67285 3.86773 0
M  V30 8482 H 803.809 0.620718 3.20647 0
M  V30 8483 H 802.468 2.64566 2.53773 0
M  V30 8484 H 802.116 1.58331 4.77431 0
M  V30 8485 H 801.816 3.33826 4.83564 0
M  V30 8486 H 803.34 2.67358 5.48956 0
M  V30 8487 H 804.754 4.24684 3.85119 0
M  V30 8488 H 803.151 4.92016 3.4357 0
M  V30 8489 H 804.221 4.35016 2.14218 0
M  V30 8490 N 805.565 -0.825799 1.34232 0
M  V30 8491 C 806.811 -1.58419 1.26614 0
M  V30 8492 C 807.144 -1.93503 -0.164341 0
M  V30 8493 O 806.419 -1.59785 -1.109 0
M  V30 8494 C 806.702 -2.8856 2.15418 0
M  V30 8495 C 806.555 -2.60075 3.66989 0
M  V30 8496 C 807.874 -3.90107 2.03726 0
M  V30 8497 H 804.993 -0.574794 0.461282 0
M  V30 8498 H 807.635 -0.951519 1.64457 0
M  V30 8499 H 805.785 -3.42553 1.83275 0
M  V30 8500 H 807.457 -2.12414 4.09485 0
M  V30 8501 H 805.7 -1.93565 3.88221 0
M  V30 8502 H 806.371 -3.52866 4.24488 0
M  V30 8503 H 808.847 -3.45459 2.31942 0
M  V30 8504 H 807.723 -4.78976 2.68092 0
M  V30 8505 H 807.984 -4.30329 1.01337 0
M  V30 8506 N 807.043 -1.17915 -1.04565 0
M  V30 8507 C 808.273 -0.994716 -1.81077 0
M  V30 8508 C 808.681 0.460146 -1.83519 0
M  V30 8509 O 808.024 1.33136 -1.26572 0
M  V30 8510 C 808.086 -1.46698 -3.28207 0
M  V30 8511 C 807.75 -2.94523 -3.49436 0
M  V30 8512 C 808.747 -3.92414 -3.41038 0
M  V30 8513 C 806.432 -3.32841 -3.76194 0
M  V30 8514 C 808.426 -5.2662 -3.59096 0
M  V30 8515 C 806.113 -4.67212 -3.93899 0
M  V30 8516 C 807.111 -5.6391 -3.8535 0
M  V30 8517 O 806.799 -6.95849 -4.02554 0
M  V30 8518 H 806.531 -0.351797 -0.577248 0
M  V30 8519 H 809.085 -1.56772 -1.32709 0
M  V30 8520 H 807.315 -0.837592 -3.7752 0
M  V30 8521 H 809.004 -1.24724 -3.86263 0
M  V30 8522 H 809.77 -3.64157 -3.20336 0
M  V30 8523 H 805.649 -2.58139 -3.81949 0
M  V30 8524 H 809.193 -6.02082 -3.52339 0
M  V30 8525 H 805.09 -4.95172 -4.14095 0
M  V30 8526 H 805.858 -7.02679 -4.19743 0
M  V30 8527 N 808.521 1.23394 -0.980386 0
M  V30 8528 C 809.469 2.26872 -0.513018 0
M  V30 8529 C 810.463 1.63853 0.429948 0
M  V30 8530 O 811.669 1.77417 0.303842 0
M  V30 8531 H 808.044 0.737398 -0.147473 0
M  V30 8532 H 810.015 2.63654 -1.39746 0
M  V30 8533 C 808.764 3.47289 0.168962 0
M  V30 8534 H 808.087 3.96033 -0.547546 0
M  V30 8535 H 809.527 4.21502 0.459616 0
M  V30 8536 C 807.986 3.06425 1.40019 0
M  V30 8537 O 808.516 3.14708 2.49643 0
M  V30 8538 N 806.722 2.61339 1.27084 0
M  V30 8539 H 806.269 2.54799 0.378872 0
M  V30 8540 H 806.227 2.34364 2.09573 0
M  V30 8541 N 809.999 0.752036 1.385 0
M  V30 8542 C 810.947 0.112634 2.32327 0
M  V30 8543 C 811.941 -0.707037 1.53939 0
M  V30 8544 O 813.147 -0.606309 1.69481 0
M  V30 8545 H 809.522 0.0176275 0.751793 0
M  V30 8546 H 811.493 0.920074 2.83861 0
M  V30 8547 C 810.242 -0.767458 3.39124 0
M  V30 8548 H 809.565 -0.146122 3.99533 0
M  V30 8549 H 811.005 -1.18216 4.07187 0
M  V30 8550 C 809.464 -1.90938 2.77568 0
M  V30 8551 O 809.994 -3.00342 2.66754 0
M  V30 8552 N 808.2 -1.70396 2.35401 0
M  V30 8553 H 807.747 -0.81413 2.44397 0
M  V30 8554 H 807.705 -2.46972 1.94557 0
M  V30 8555 N 811.477 -1.49425 0.500989 0
M  V30 8556 C 812.705 -2.06861 -0.0403443 0
M  V30 8557 C 813.12 -1.36132 -1.30819 0
M  V30 8558 O 812.477 -0.439647 -1.77125 0
M  V30 8559 C 812.528 -3.6027 -0.297902 0
M  V30 8560 O 812.249 -4.28338 0.919686 0
M  V30 8561 C 813.75 -4.34419 -0.882876 0
M  V30 8562 H 810.97 -0.670688 0.0204619 0
M  V30 8563 H 813.514 -1.92207 0.698342 0
M  V30 8564 H 811.669 -3.74627 -0.98657 0
M  V30 8565 H 812.083 -5.2004 0.682528 0
M  V30 8566 H 813.557 -5.42631 -1.01268 0
M  V30 8567 H 814.034 -3.96898 -1.88066 0
M  V30 8568 H 814.64 -4.24669 -0.231677 0
M  V30 8569 N 812.955 -0.234822 -1.55841 0
M  V30 8570 C 814.185 0.397168 -2.02746 0
M  V30 8571 C 814.593 1.52951 -1.11367 0
M  V30 8572 O 813.936 1.8332 -0.118133 0
M  V30 8573 C 813.998 0.977748 -3.45948 0
M  V30 8574 C 813.662 -0.0208193 -4.56995 0
M  V30 8575 C 814.659 -0.826015 -5.13296 0
M  V30 8576 C 812.344 -0.143416 -5.02095 0
M  V30 8577 C 814.338 -1.74038 -6.1318 0
M  V30 8578 C 812.025 -1.0613 -6.01814 0
M  V30 8579 C 813.023 -1.85832 -6.57233 0
M  V30 8580 O 812.711 -2.76075 -7.55008 0
M  V30 8581 H 812.443 0.0999802 -0.668566 0
M  V30 8582 H 814.997 -0.352673 -2.0235 0
M  V30 8583 H 813.227 1.77693 -3.43456 0
M  V30 8584 H 814.916 1.51854 -3.76424 0
M  V30 8585 H 815.682 -0.741822 -4.79293 0
M  V30 8586 H 811.561 0.466857 -4.5863 0
M  V30 8587 H 815.105 -2.36291 -6.56363 0
M  V30 8588 H 811.002 -1.14646 -6.35237 0
M  V30 8589 H 811.77 -2.703 -7.7258 0
M  V30 8590 N 814.433 1.57553 0.0384317 0
M  V30 8591 C 815.679 1.89121 0.732199 0
M  V30 8592 C 816.012 0.831404 1.75503 0
M  V30 8593 O 815.287 -0.154642 1.93884 0
M  V30 8594 C 815.57 3.31338 1.41021 0
M  V30 8595 C 815.423 4.48004 0.401532 0
M  V30 8596 C 816.742 3.72318 2.34665 0
M  V30 8597 H 813.861 0.687819 0.264715 0
M  V30 8598 H 816.503 1.89999 -0.00496279 0
M  V30 8599 H 814.653 3.3072 2.03854 0
M  V30 8600 H 816.325 4.60755 -0.224159 0
M  V30 8601 H 814.568 4.32895 -0.280092 0
M  V30 8602 H 815.239 5.44377 0.91423 0
M  V30 8603 H 817.715 3.74243 1.81883 0
M  V30 8604 H 816.591 4.72652 2.7909 0
M  V30 8605 H 816.852 3.04062 3.20934 0
M  V30 8606 N 815.911 -0.310526 1.54511 0
M  V30 8607 C 817.141 -1.06456 1.77061 0
M  V30 8608 C 817.549 -1.81755 0.525528 0
M  V30 8609 O 816.892 -1.76365 -0.513904 0
M  V30 8610 C 816.954 -2.09856 2.91892 0
M  V30 8611 C 816.618 -1.53838 4.30329 0
M  V30 8612 C 817.615 -0.973358 5.10707 0
M  V30 8613 C 815.3 -1.57688 4.76906 0
M  V30 8614 C 817.294 -0.454283 6.35779 0
M  V30 8615 C 814.981 -1.05393 6.01943 0
M  V30 8616 C 815.979 -0.493595 6.81214 0
M  V30 8617 O 815.667 0.0214506 8.03897 0
M  V30 8618 H 815.399 -0.321913 0.594431 0
M  V30 8619 H 817.953 -0.358289 2.02251 0
M  V30 8620 H 816.183 -2.84137 2.62304 0
M  V30 8621 H 817.872 -2.71085 3.02106 0
M  V30 8622 H 818.638 -0.936588 4.75871 0
M  V30 8623 H 814.517 -2.00242 4.1524 0
M  V30 8624 H 818.061 -0.0162657 6.97598 0
M  V30 8625 H 813.958 -1.08782 6.36268 0
M  V30 8626 H 814.726 -0.0927478 8.18447 0
M  V30 8627 N 817.389 -1.46805 -0.573248 0
M  V30 8628 C 818.8 -1.46655 -1.15539 0
M  V30 8629 C 819.151 -0.2125 -1.95046 0
M  V30 8630 O 818.276 0.683759 -2.05314 0
M  V30 8631 C 818.871 -2.65711 -2.10198 0
M  V30 8632 C 817.43 -2.68572 -2.63716 0
M  V30 8633 C 816.577 -2.39498 -1.39772 0
M  V30 8634 H 819.528 -1.54547 -0.36068 0
M  V30 8635 H 819.549 -2.41768 -2.93817 0
M  V30 8636 H 819.061 -3.56967 -1.52303 0
M  V30 8637 H 817.162 -1.81414 -3.25453 0
M  V30 8638 H 817.275 -3.68809 -3.05805 0
M  V30 8639 H 815.639 -1.89749 -1.69904 0
M  V30 8640 H 816.422 -3.32942 -0.836943 0
M  V30 8641 N 818.867 0.818669 -1.34668 0
M  V30 8642 C 820.113 1.577 -1.28461 0
M  V30 8643 C 820.468 1.91867 0.143057 0
M  V30 8644 O 819.761 1.57545 1.09041 0
M  V30 8645 C 819.955 2.88245 -2.11304 0
M  V30 8646 C 819.784 2.66831 -3.61982 0
M  V30 8647 C 818.554 2.63346 -4.3125 0
M  V30 8648 C 820.752 2.38049 -4.55892 0
M  V30 8649 N 818.734 2.33522 -5.67751 0
M  V30 8650 C 820.105 2.17957 -5.80426 0
M  V30 8651 C 822.16 2.23812 -4.44761 0
M  V30 8652 C 820.863 1.8507 -6.95084 0
M  V30 8653 C 822.889 1.92321 -5.59255 0
M  V30 8654 C 822.251 1.73056 -6.82811 0
M  V30 8655 H 818.35 0.579284 -0.525314 0
M  V30 8656 H 820.934 0.959336 -1.69425 0
M  V30 8657 H 819.105 3.47927 -1.7263 0
M  V30 8658 H 820.837 3.53677 -1.96709 0
M  V30 8659 H 817.592 2.7757 -3.83734 0
M  V30 8660 H 818.016 2.21438 -6.39761 0
M  V30 8661 H 822.658 2.3741 -3.49852 0
M  V30 8662 H 820.376 1.7021 -7.89971 0
M  V30 8663 H 823.962 1.82031 -5.5259 0
M  V30 8664 H 822.842 1.49042 -7.69907 0
M  V30 8665 N 820.346 1.18468 1.03938 0
M  V30 8666 C 821.592 0.992302 1.77553 0
M  V30 8667 C 821.947 -0.472959 1.86496 0
M  V30 8668 O 821.24 -1.34662 1.36296 0
M  V30 8669 C 821.434 1.58229 3.20466 0
M  V30 8670 C 821.263 3.1034 3.25452 0
M  V30 8671 C 820.033 3.79166 3.34008 0
M  V30 8672 C 822.231 4.07814 3.13357 0
M  V30 8673 N 820.213 5.18768 3.28258 0
M  V30 8674 C 821.584 5.33946 3.15121 0
M  V30 8675 C 823.639 3.99315 2.97409 0
M  V30 8676 C 822.342 6.52565 3.02574 0
M  V30 8677 C 824.368 5.17532 2.86208 0
M  V30 8678 C 823.73 6.42557 2.88617 0
M  V30 8679 H 819.829 0.417131 0.661457 0
M  V30 8680 H 822.413 1.50265 1.23808 0
M  V30 8681 H 820.584 1.0981 3.72554 0
M  V30 8682 H 822.316 1.32531 3.82384 0
M  V30 8683 H 819.071 3.29905 3.39794 0
M  V30 8684 H 819.495 5.91783 3.28818 0
M  V30 8685 H 824.137 3.03485 2.94375 0
M  V30 8686 H 821.855 7.48592 3.0436 0
M  V30 8687 H 825.441 5.12748 2.7492 0
M  V30 8688 H 824.321 7.32494 2.80039 0
M  V30 8689 N 821.824 -1.22873 0.986916 0
M  V30 8690 C 823.072 -1.91084 0.658121 0
M  V30 8691 C 823.393 -1.77304 -0.811675 0
M  V30 8692 O 822.663 -1.15649 -1.58121 0
M  V30 8693 H 821.243 -0.707251 0.240427 0
M  V30 8694 H 823.905 -1.49357 1.25213 0
M  V30 8695 H 823.001 -2.98373 0.915428 0
M  V30 8696 N 823.302 -0.75937 -1.38099 0
M  V30 8697 C 824.212 -0.13774 -2.34195 0
M  V30 8698 C 825.228 0.693985 -1.59561 0
M  V30 8699 O 826.404 0.616792 -1.91723 0
M  V30 8700 C 823.469 0.740535 -3.38699 0
M  V30 8701 C 822.53 -0.106225 -4.29169 0
M  V30 8702 C 821.763 0.730225 -5.28681 0
M  V30 8703 O 821.986 1.96796 -5.35376 0
M  V30 8704 O 820.92 0.145969 -6.01723 0
M  V30 8705 H 824.746 -0.931512 -2.89061 0
M  V30 8706 H 822.331 -0.520345 -1.40046 0
M  V30 8707 H 824.213 1.24232 -4.02672 0
M  V30 8708 H 822.888 1.51271 -2.8618 0
M  V30 8709 H 821.795 -0.654088 -3.68337 0
M  V30 8710 H 823.128 -0.841186 -4.84959 0
M  V30 8711 N 824.78 1.49157 -0.508906 0
M  V30 8712 C 825.743 2.27784 0.25434 0
M  V30 8713 C 826.743 1.34132 0.88686 0
M  V30 8714 O 827.933 1.5722 0.750168 0
M  V30 8715 C 825.065 3.12347 1.36573 0
M  V30 8716 H 826.258 2.96718 -0.435714 0
M  V30 8717 H 823.811 1.54052 -0.264128 0
M  V30 8718 H 824.546 2.47997 2.08969 0
M  V30 8719 H 824.331 3.81213 0.917543 0
M  V30 8720 H 825.821 3.71712 1.90315 0
M  V30 8721 N 826.258 0.243083 1.55714 0
M  V30 8722 C 827.191 -0.698623 2.17243 0
M  V30 8723 C 828.169 -1.1756 1.12331 0
M  V30 8724 O 829.353 -1.25444 1.40699 0
M  V30 8725 C 826.48 -1.94901 2.77004 0
M  V30 8726 C 825.526 -1.61022 3.94936 0
M  V30 8727 S 826.359 -0.716173 5.30689 0
M  V30 8728 C 827.515 -1.97565 5.93901 0
M  V30 8729 H 827.748 -0.175724 2.9678 0
M  V30 8730 H 825.281 0.0275727 1.54375 0
M  V30 8731 H 827.239 -2.66687 3.12071 0
M  V30 8732 H 825.9 -2.44304 1.9742 0
M  V30 8733 H 825.093 -2.5398 4.35328 0
M  V30 8734 H 824.695 -0.972829 3.61126 0
M  V30 8735 H 826.987 -2.92333 6.11186 0
M  V30 8736 H 827.93 -1.61528 6.8943 0
M  V30 8737 H 828.338 -2.126 5.22935 0
M  V30 8738 N 827.736 -1.57571 -0.0300757 0
M  V30 8739 C 828.984 -1.88852 -0.719666 0
M  V30 8740 C 829.305 -0.840645 -1.75949 0
M  V30 8741 O 828.575 0.125854 -1.95495 0
M  V30 8742 H 827.155 -0.696965 -0.268792 0
M  V30 8743 H 829.817 -1.949 0.00373285 0
M  V30 8744 H 828.913 -2.87695 -1.20987 0
M  V30 8745 N 829.214 0.302327 -1.54673 0
M  V30 8746 C 830.46 1.03532 -1.75079 0
M  V30 8747 C 830.815 1.84972 -0.52943 0
M  V30 8748 O 830.108 1.85537 0.478169 0
M  V30 8749 C 830.302 1.97365 -2.97963 0
M  V30 8750 C 830.131 1.25154 -4.31934 0
M  V30 8751 C 828.901 0.979243 -4.95721 0
M  V30 8752 C 831.099 0.656653 -5.10091 0
M  V30 8753 N 829.081 0.227265 -6.13479 0
M  V30 8754 C 830.452 0.0373759 -6.19989 0
M  V30 8755 C 832.507 0.561571 -4.94723 0
M  V30 8756 C 831.21 -0.667782 -7.16194 0
M  V30 8757 C 833.236 -0.12993 -5.91257 0
M  V30 8758 C 832.598 -0.738063 -7.00523 0
M  V30 8759 H 828.697 0.361824 -0.693258 0
M  V30 8760 H 831.281 0.314091 -1.9215 0
M  V30 8761 H 829.452 2.66739 -2.8232 0
M  V30 8762 H 831.184 2.63806 -3.06902 0
M  V30 8763 H 827.939 1.27706 -4.56057 0
M  V30 8764 H 828.363 -0.135199 -6.76865 0
M  V30 8765 H 833.005 1.01744 -4.10375 0
M  V30 8766 H 830.723 -1.13542 -8.00084 0
M  V30 8767 H 834.309 -0.203423 -5.81444 0
M  V30 8768 H 833.189 -1.26463 -7.73936 0
M  V30 8769 N 830.692 1.47107 0.565454 0
M  V30 8770 C 831.655 1.58535 1.65527 0
M  V30 8771 C 832.655 0.461081 1.54048 0
M  V30 8772 O 833.845 0.725911 1.58355 0
M  V30 8773 C 830.977 1.52204 3.05036 0
M  V30 8774 H 832.17 2.55676 1.56747 0
M  V30 8775 H 829.723 1.35174 0.78471 0
M  V30 8776 H 830.458 0.564071 3.19357 0
M  V30 8777 H 830.243 2.3379 3.14777 0
M  V30 8778 H 831.733 1.63322 3.84338 0
M  V30 8779 N 832.17 -0.811516 1.35101 0
M  V30 8780 C 833.417 -1.56835 1.28098 0
M  V30 8781 C 833.745 -1.93951 -0.14597 0
M  V30 8782 O 833 -1.61173 -1.11004 0
M  V30 8783 C 833.299 -2.87121 2.1283 0
M  V30 8784 C 832.965 -2.69245 3.61688 0
M  V30 8785 C 831.627 -2.64078 4.02264 0
M  V30 8786 C 833.979 -2.52122 4.56162 0
M  V30 8787 C 831.307 -2.39724 5.3549 0
M  V30 8788 C 833.659 -2.29298 5.89581 0
M  V30 8789 C 832.323 -2.2255 6.29307 0
M  V30 8790 H 831.593 -0.5739 0.468742 0
M  V30 8791 H 834.24 -0.93806 1.66951 0
M  V30 8792 H 832.545 -3.54502 1.66841 0
M  V30 8793 H 834.242 -3.44788 2.0475 0
M  V30 8794 H 830.832 -2.74112 3.29485 0
M  V30 8795 H 835.016 -2.5513 4.25702 0
M  V30 8796 H 830.272 -2.32965 5.65276 0
M  V30 8797 H 834.446 -2.15038 6.62368 0
M  V30 8798 H 832.073 -2.0344 7.32473 0
M  V30 8799 N 833.648 -1.19017 -1.03309 0
M  V30 8800 C 834.611 -0.926076 -2.09658 0
M  V30 8801 C 835.611 0.0917077 -1.60538 0
M  V30 8802 O 836.801 -0.142574 -1.73616 0
M  V30 8803 C 833.933 -0.390958 -3.38651 0
M  V30 8804 H 835.126 -1.86923 -2.3452 0
M  V30 8805 H 832.679 -1.00325 -1.19853 0
M  V30 8806 H 833.414 0.558446 -3.19456 0
M  V30 8807 H 833.199 -1.12474 -3.75622 0
M  V30 8808 H 834.689 -0.225131 -4.16993 0
M  V30 8809 N 835.127 1.22348 -0.993418 0
M  V30 8810 C 836.057 2.26584 -0.564088 0
M  V30 8811 C 837.038 1.65102 0.409298 0
M  V30 8812 O 838.223 1.91872 0.299819 0
M  V30 8813 C 835.353 3.47087 0.121554 0
M  V30 8814 C 834.307 4.21009 -0.770429 0
M  V30 8815 C 833.633 5.34678 0.0481586 0
M  V30 8816 C 834.933 4.79636 -2.06752 0
M  V30 8817 H 836.627 2.62749 -1.43538 0
M  V30 8818 H 834.173 1.26303 -0.691628 0
M  V30 8819 H 836.126 4.19166 0.433303 0
M  V30 8820 H 834.85 3.1002 1.0274 0
M  V30 8821 H 833.509 3.50764 -1.06583 0
M  V30 8822 H 833.157 4.93852 0.954933 0
M  V30 8823 H 832.857 5.85061 -0.545641 0
M  V30 8824 H 834.381 6.09573 0.353991 0
M  V30 8825 H 835.795 5.43654 -1.81969 0
M  V30 8826 H 834.192 5.4036 -2.61019 0
M  V30 8827 H 835.262 3.99659 -2.74592 0
M  V30 8828 N 836.605 0.766683 1.37694 0
M  V30 8829 C 837.83 0.338715 2.04615 0
M  V30 8830 C 838.255 -1.02918 1.57447 0
M  V30 8831 O 837.613 -1.65849 0.732386 0
M  V30 8832 C 837.661 0.385284 3.58536 0
M  V30 8833 O 836.765 -0.616081 4.07772 0
M  V30 8834 H 836.106 0.147527 0.647404 0
M  V30 8835 H 838.636 1.04146 1.7611 0
M  V30 8836 H 838.646 0.240782 4.07289 0
M  V30 8837 H 837.321 1.38325 3.92223 0
M  V30 8838 H 835.898 -0.435115 3.70353 0
M  V30 8839 N 838.083 -1.48885 0.516809 0
M  V30 8840 C 839.308 -2.0739 -0.0205201 0
M  V30 8841 C 839.733 -1.37259 -1.28614 0
M  V30 8842 O 839.091 -0.434304 -1.76021 0
M  V30 8843 C 839.139 -3.59793 -0.24104 0
M  V30 8844 O 838.243 -3.90957 -1.31251 0
M  V30 8845 H 837.584 -0.663167 0.0332564 0
M  V30 8846 H 840.114 -1.91477 0.720956 0
M  V30 8847 H 840.124 -4.0531 -0.467737 0
M  V30 8848 H 838.799 -4.10244 0.68356 0
M  V30 8849 H 837.376 -3.57234 -1.06951 0
M  V30 8850 N 839.561 -0.251338 -1.55583 0
M  V30 8851 C 840.494 0.687092 -2.1761 0
M  V30 8852 C 841.472 1.16963 -1.12953 0
M  V30 8853 O 842.656 1.24696 -1.41362 0
M  V30 8854 C 839.783 1.93429 -2.78034 0
M  V30 8855 C 838.829 1.58925 -3.95784 0
M  V30 8856 S 839.662 0.688019 -5.31062 0
M  V30 8857 C 840.818 1.94413 -5.94941 0
M  V30 8858 H 841.051 0.159982 -2.96869 0
M  V30 8859 H 838.584 -0.0357593 -1.54359 0
M  V30 8860 H 840.542 2.65028 -3.13481 0
M  V30 8861 H 839.203 2.43253 -1.98713 0
M  V30 8862 H 838.396 2.51668 -4.36668 0
M  V30 8863 H 837.998 0.953664 -3.61637 0
M  V30 8864 H 840.29 2.89087 -6.12727 0
M  V30 8865 H 841.233 1.5787 -6.90277 0
M  V30 8866 H 841.641 2.09824 -5.24056 0
M  V30 8867 N 841.039 1.57585 0.0217189 0
M  V30 8868 C 841.969 2.10073 1.01939 0
M  V30 8869 C 842.95 1.0049 1.37243 0
M  V30 8870 O 844.135 1.28055 1.45999 0
M  V30 8871 C 841.265 2.58618 2.31806 0
M  V30 8872 C 840.219 3.72531 2.10724 0
M  V30 8873 C 839.545 4.07309 3.46415 0
M  V30 8874 C 840.845 5.00672 1.48743 0
M  V30 8875 H 842.539 2.9368 0.582432 0
M  V30 8876 H 840.085 1.41277 0.278715 0
M  V30 8877 H 842.038 2.9396 3.01936 0
M  V30 8878 H 840.762 1.72104 2.77575 0
M  V30 8879 H 839.421 3.37549 1.43025 0
M  V30 8880 H 839.069 3.17851 3.89846 0
M  V30 8881 H 838.769 4.84042 3.33132 0
M  V30 8882 H 840.293 4.45192 4.17895 0
M  V30 8883 H 841.707 5.33925 2.088 0
M  V30 8884 H 840.104 5.82065 1.46013 0
M  V30 8885 H 841.174 4.82769 0.45408 0
M  V30 8886 N 842.517 -0.29412 1.54831 0
M  V30 8887 C 843.757 -1.03635 1.76179 0
M  V30 8888 C 844.121 -1.84251 0.539953 0
M  V30 8889 O 845.322 -2.61282 0.631295 0
M  V30 8890 C 843.593 -1.91275 3.01909 0
M  V30 8891 S 845.152 -2.7205 3.44288 0
M  V30 8892 H 841.97 -0.349403 0.619224 0
M  V30 8893 H 844.572 -0.309006 1.93042 0
M  V30 8894 H 843.276 -1.30937 3.88952 0
M  V30 8895 H 842.807 -2.68365 2.87652 0
M  V30 8896 H 844.822 -3.93791 3.01899 0
M  V30 8897 N 843.995 -1.47404 -0.557645 0
M  V30 8898 C 845.241 -1.54235 -1.31679 0
M  V30 8899 C 845.574 -0.203782 -1.93128 0
M  V30 8900 O 844.849 0.787536 -1.77843 0
M  V30 8901 C 845.132 -2.66003 -2.42723 0
M  V30 8902 C 844.985 -4.09475 -1.86145 0
M  V30 8903 C 846.304 -2.73685 -3.44652 0
M  V30 8904 H 843.423 -0.561466 -0.477415 0
M  V30 8905 H 846.065 -1.79459 -0.624067 0
M  V30 8906 H 844.215 -2.44627 -3.01811 0
M  V30 8907 H 845.887 -4.42213 -1.31321 0
M  V30 8908 H 844.13 -4.17774 -1.16823 0
M  V30 8909 H 844.801 -4.83451 -2.66418 0
M  V30 8910 H 847.277 -2.92968 -2.95481 0
M  V30 8911 H 846.153 -3.53665 -4.19777 0
M  V30 8912 H 846.414 -1.80726 -4.03473 0
M  V30 8913 N 845.473 0.80434 -1.35529 0
M  V30 8914 C 846.884 1.37849 -1.25915 0
M  V30 8915 C 847.235 1.95905 0.107495 0
M  V30 8916 O 846.36 1.91462 1.00852 0
M  V30 8917 C 846.955 2.50608 -2.27994 0
M  V30 8918 C 845.514 3.03879 -2.22114 0
M  V30 8919 C 844.661 1.76856 -2.13582 0
M  V30 8920 H 847.612 0.607192 -1.46625 0
M  V30 8921 H 847.633 3.29221 -1.90772 0
M  V30 8922 H 847.145 2.08323 -3.27449 0
M  V30 8923 H 845.246 3.50622 -1.26077 0
M  V30 8924 H 845.359 3.61707 -3.14173 0
M  V30 8925 H 843.723 1.98498 -1.59595 0
M  V30 8926 H 844.506 1.36721 -3.14901 0
M  V30 8927 N 846.951 1.19563 1.02676 0
M  V30 8928 C 847.881 0.959024 2.12897 0
M  V30 8929 C 848.862 -0.108382 1.69754 0
M  V30 8930 O 850.047 0.0470698 1.94143 0
M  V30 8931 C 847.177 0.499211 3.43693 0
M  V30 8932 C 846.131 1.5087 4.00528 0
M  V30 8933 C 845.457 0.905884 5.2697 0
M  V30 8934 C 846.757 2.88954 4.3509 0
M  V30 8935 H 848.451 1.88084 2.32948 0
M  V30 8936 H 845.997 0.905731 1.11949 0
M  V30 8937 H 847.95 0.320965 4.20176 0
M  V30 8938 H 846.674 -0.458205 3.2337 0
M  V30 8939 H 845.333 1.67413 3.26142 0
M  V30 8940 H 844.981 -0.0591506 5.02965 0
M  V30 8941 H 844.681 1.58 5.65959 0
M  V30 8942 H 846.205 0.73848 6.06118 0
M  V30 8943 H 847.619 2.75981 5.02501 0
M  V30 8944 H 846.016 3.53177 4.85166 0
M  V30 8945 H 847.086 3.41447 3.44299 0
M  V30 8946 N 848.429 -1.21819 0.999893 0
M  V30 8947 C 849.379 -2.21823 0.527104 0
M  V30 8948 C 850.363 -1.55628 -0.408515 0
M  V30 8949 O 851.555 -1.75444 -0.234196 0
M  V30 8950 C 848.684 -3.42972 -0.149986 0
M  V30 8951 C 847.77 -4.16364 0.806349 0
M  V30 8952 N 848.161 -4.66403 1.95708 0
M  V30 8953 C 846.459 -4.41618 0.623672 0
M  V30 8954 C 847.16 -5.22443 2.5579 0
M  V30 8955 N 846.136 -5.11514 1.83995 0
M  V30 8956 H 849.938 -2.58161 1.40464 0
M  V30 8957 H 847.452 -1.37569 0.863054 0
M  V30 8958 H 849.449 -4.13816 -0.50613 0
M  V30 8959 H 848.109 -3.08145 -1.02357 0
M  V30 8960 H 849.12 -4.62142 2.33763 0
M  V30 8961 H 845.797 -4.17005 -0.203257 0
M  V30 8962 H 847.187 -5.7165 3.5308 0
M  V30 8963 N 849.908 -0.773975 -1.37286 0
M  V30 8964 C 850.838 -0.175782 -2.32837 0
M  V30 8965 C 851.819 0.680603 -1.5589 0
M  V30 8966 O 853.004 0.617607 -1.84117 0
M  V30 8967 C 850.134 0.702388 -3.40123 0
M  V30 8968 C 849.088 -0.0528687 -4.27967 0
M  V30 8969 C 848.414 0.944891 -5.26285 0
M  V30 8970 C 849.714 -1.23316 -5.07534 0
M  V30 8971 H 851.408 -0.974016 -2.83114 0
M  V30 8972 H 848.954 -0.469826 -1.3612 0
M  V30 8973 H 850.907 1.13069 -4.05947 0
M  V30 8974 H 849.631 1.53316 -2.88378 0
M  V30 8975 H 848.29 -0.461978 -3.63678 0
M  V30 8976 H 847.938 1.77028 -4.70819 0
M  V30 8977 H 847.638 0.444079 -5.8592 0
M  V30 8978 H 849.162 1.37209 -5.94984 0
M  V30 8979 H 850.576 -0.881395 -5.66484 0
M  V30 8980 H 848.973 -1.66621 -5.76504 0
M  V30 8981 H 850.043 -2.03617 -4.40077 0
M  V30 8982 N 851.386 1.48609 -0.524698 0
M  V30 8983 C 852.316 2.32366 0.229837 0
M  V30 8984 C 853.297 1.41759 0.940129 0
M  V30 8985 O 854.482 1.7065 0.926936 0
M  V30 8986 C 851.612 3.22835 1.28043 0
M  V30 8987 C 850.566 4.22424 0.688603 0
M  V30 8988 C 849.892 5.0199 1.84146 0
M  V30 8989 C 851.192 5.21217 -0.336176 0
M  V30 8990 H 852.886 2.95698 -0.469339 0
M  V30 8991 H 850.432 1.42197 -0.227156 0
M  V30 8992 H 852.385 3.80253 1.8162 0
M  V30 8993 H 851.109 2.57492 2.00912 0
M  V30 8994 H 849.768 3.66185 0.174402 0
M  V30 8995 H 849.416 4.33076 2.5584 0
M  V30 8996 H 849.116 5.69392 1.45142 0
M  V30 8997 H 850.64 5.62259 2.38111 0
M  V30 8998 H 852.054 5.7319 0.112307 0
M  V30 8999 H 850.451 5.96642 -0.643324 0
M  V30 9000 H 851.521 4.68676 -1.24381 0
M  V30 9001 N 852.864 0.259585 1.55447 0
M  V30 9002 C 854.112 -0.360893 1.98852 0
M  V30 9003 C 854.433 -1.57535 1.14924 0
M  V30 9004 O 853.703 -1.94485 0.235025 0
M  V30 9005 H 852.283 -0.136332 0.734454 0
M  V30 9006 H 854.945 0.361319 1.91522 0
M  V30 9007 H 854.041 -0.661388 3.05012 0
M  V30 9008 N 854.342 -1.57594 -0.0133615 0
M  V30 9009 C 855.582 -1.91834 -0.705639 0
M  V30 9010 C 855.946 -0.859801 -1.71672 0
M  V30 9011 O 857.147 -1.08702 -2.4584 0
M  V30 9012 C 855.418 -3.31174 -1.34383 0
M  V30 9013 S 856.977 -3.87275 -2.06309 0
M  V30 9014 H 853.795 -0.671598 -0.233404 0
M  V30 9015 H 856.397 -1.95459 0.0401173 0
M  V30 9016 H 855.101 -4.06065 -0.594939 0
M  V30 9017 H 854.632 -3.3089 -2.12781 0
M  V30 9018 H 856.647 -3.67271 -3.33657 0
M  V30 9019 N 855.82 0.285905 -1.54985 0
M  V30 9020 C 856.75 1.35752 -1.89983 0
M  V30 9021 C 857.731 1.52163 -0.760295 0
M  V30 9022 O 858.916 1.65421 -1.01733 0
M  V30 9023 C 856.046 2.71925 -2.16042 0
M  V30 9024 C 855 2.70261 -3.31878 0
M  V30 9025 C 854.326 4.09864 -3.43388 0
M  V30 9026 C 855.626 2.30667 -4.68604 0
M  V30 9027 H 857.32 1.06709 -2.79738 0
M  V30 9028 H 854.866 0.511884 -1.34595 0
M  V30 9029 H 856.819 3.46992 -2.39113 0
M  V30 9030 H 855.543 3.02523 -1.23074 0
M  V30 9031 H 854.202 1.97651 -3.08755 0
M  V30 9032 H 853.85 4.37664 -2.47909 0
M  V30 9033 H 853.55 4.09648 -4.21262 0
M  V30 9034 H 855.074 4.86689 -3.68736 0
M  V30 9035 H 856.488 2.95453 -4.91305 0
M  V30 9036 H 854.885 2.41637 -5.49301 0
M  V30 9037 H 855.955 1.25793 -4.68299 0
M  V30 9038 N 857.298 1.47698 0.54982 0
M  V30 9039 C 858.228 1.63622 1.66583 0
M  V30 9040 C 859.209 0.485477 1.63025 0
M  V30 9041 O 860.394 0.715692 1.80531 0
M  V30 9042 C 857.524 1.65721 3.05211 0
M  V30 9043 C 856.478 2.80097 3.2362 0
M  V30 9044 C 855.804 2.67272 4.63109 0
M  V30 9045 C 857.104 4.21612 3.08286 0
M  V30 9046 H 858.798 2.57049 1.53512 0
M  V30 9047 H 856.344 1.23705 0.737099 0
M  V30 9048 H 858.297 1.75451 3.83138 0
M  V30 9049 H 857.021 0.688593 3.19258 0
M  V30 9050 H 855.68 2.69889 2.48104 0
M  V30 9051 H 855.328 1.68422 4.73965 0
M  V30 9052 H 855.028 3.44008 4.76374 0
M  V30 9053 H 856.552 2.78942 5.43161 0
M  V30 9054 H 857.966 4.32758 3.76024 0
M  V30 9055 H 856.363 4.99193 3.33057 0
M  V30 9056 H 857.433 4.39462 2.04942 0
M  V30 9057 N 858.776 -0.797141 1.35954 0
M  V30 9058 C 860.192 -1.09408 1.16198 0
M  V30 9059 C 860.392 -2.01491 -0.0191682 0
M  V30 9060 O 859.448 -2.42977 -0.686902 0
M  V30 9061 C 860.761 -1.71597 2.46931 0
M  V30 9062 C 862.309 -1.83974 2.53224 0
M  V30 9063 C 862.784 -2.49579 3.84024 0
M  V30 9064 N 864.275 -2.57055 3.85327 0
M  V30 9065 C 865.01 -3.08608 4.83268 0
M  V30 9066 N 864.506 -3.60527 5.91601 0
M  V30 9067 N 866.299 -3.07249 4.70696 0
M  V30 9068 H 858.45 -0.185209 2.11591 0
M  V30 9069 H 860.713 -0.144768 0.936881 0
M  V30 9070 H 860.419 -1.11404 3.3359 0
M  V30 9071 H 860.293 -2.71193 2.62172 0
M  V30 9072 H 862.68 -2.43308 1.66988 0
M  V30 9073 H 862.761 -0.83207 2.41889 0
M  V30 9074 H 862.405 -1.90892 4.70662 0
M  V30 9075 H 862.335 -3.50902 3.92651 0
M  V30 9076 H 864.826 -2.20283 3.07057 0
M  V30 9077 H 865.139 -3.98192 6.62317 0
M  V30 9078 H 863.484 -3.587 5.95281 0
M  V30 9079 H 866.675 -2.65972 3.85197 0
M  V30 9080 H 866.848 -3.47119 5.47186 0
M  V30 9081 N 860.254 -1.20106 -1.0204 0
M  V30 9082 C 861.217 -0.948261 -2.08664 0
M  V30 9083 C 862.217 0.0746753 -1.60627 0
M  V30 9084 O 863.407 -0.160981 -1.73455 0
M  V30 9085 C 860.539 -0.426854 -3.38217 0
M  V30 9086 H 861.732 -1.894 -2.32524 0
M  V30 9087 H 859.285 -1.0159 -1.18782 0
M  V30 9088 H 860.02 0.524532 -3.2003 0
M  V30 9089 H 859.805 -1.16451 -3.74408 0
M  V30 9090 H 861.295 -0.269346 -4.1673 0
M  V30 9091 N 861.732 1.21287 -1.00634 0
M  V30 9092 C 862.679 2.23705 -0.567876 0
M  V30 9093 C 863.649 1.61043 0.406753 0
M  V30 9094 O 864.834 1.88289 0.308499 0
M  V30 9095 C 861.974 3.44961 0.097996 0
M  V30 9096 C 861.087 4.22091 -0.919972 0
M  V30 9097 C 860.222 5.30718 -0.226222 0
M  V30 9098 C 859.261 5.99581 -1.23165 0
M  V30 9099 N 858.398 6.99821 -0.565278 0
M  V30 9100 H 863.238 2.60571 -1.44592 0
M  V30 9101 H 860.775 1.28049 -0.724006 0
M  V30 9102 H 862.733 4.1418 0.501097 0
M  V30 9103 H 861.363 3.08818 0.939744 0
M  V30 9104 H 860.415 3.52038 -1.44131 0
M  V30 9105 H 861.727 4.69476 -1.68505 0
M  V30 9106 H 860.881 6.06253 0.232917 0
M  V30 9107 H 859.62 4.84343 0.571247 0
M  V30 9108 H 858.625 5.22816 -1.70128 0
M  V30 9109 H 859.85 6.48042 -2.03022 0
M  V30 9110 H 857.796 6.55656 0.212508 0
M  V30 9111 H 857.713 7.4528 -1.26858 0
M  V30 9112 H 858.981 7.79393 -0.129389 0
M  V30 9113 N 863.21 0.781244 1.36873 0
M  V30 9114 C 864.458 0.349198 1.9906 0
M  V30 9115 C 864.779 -1.0806 1.62321 0
M  V30 9116 O 864.049 -1.74351 0.893229 0
M  V30 9117 H 862.629 0.126126 0.736275 0
M  V30 9118 H 865.291 1.00148 1.67202 0
M  V30 9119 H 864.387 0.434451 3.09061 0
M  V30 9120 N 864.689 -1.48329 0.532571 0
M  V30 9121 C 865.917 -2.069 0.00354299 0
M  V30 9122 C 866.332 -1.38876 -1.27902 0
M  V30 9123 O 865.689 -0.477119 -1.76153 0
M  V30 9124 C 865.74 -3.60821 -0.221416 0
M  V30 9125 O 865.461 -4.26291 1.01034 0
M  V30 9126 C 866.962 -4.36194 -0.790531 0
M  V30 9127 H 864.182 -0.670103 0.0346836 0
M  V30 9128 H 866.726 -1.90682 0.738955 0
M  V30 9129 H 864.881 -3.76636 -0.906884 0
M  V30 9130 H 865.295 -5.18475 0.792683 0
M  V30 9131 H 866.769 -5.44657 -0.897347 0
M  V30 9132 H 867.246 -4.00798 -1.79605 0
M  V30 9133 H 867.852 -4.25064 -0.141546 0
M  V30 9134 N 866.167 -0.267825 -1.55308 0
M  V30 9135 C 867.1 0.663973 -2.18327 0
M  V30 9136 C 868.078 1.15759 -1.14187 0
M  V30 9137 O 869.262 1.23189 -1.42677 0
M  V30 9138 C 866.389 1.9047 -2.8007 0
M  V30 9139 C 865.435 1.54718 -3.97447 0
M  V30 9140 S 866.268 0.631654 -5.31762 0
M  V30 9141 C 867.424 1.88092 -5.96969 0
M  V30 9142 H 867.657 0.128486 -2.97022 0
M  V30 9143 H 865.19 -0.052129 -1.54312 0
M  V30 9144 H 867.148 2.61688 -3.16275 0
M  V30 9145 H 865.809 2.41132 -2.01281 0
M  V30 9146 H 865.002 2.47022 -4.39313 0
M  V30 9147 H 864.604 0.915254 -3.62628 0
M  V30 9148 H 866.896 2.82572 -6.15759 0
M  V30 9149 H 867.839 1.50539 -6.91913 0
M  V30 9150 H 868.247 2.04254 -5.26252 0
M  V30 9151 N 867.645 1.57599 0.00500368 0
M  V30 9152 C 868.608 2.07058 0.982832 0
M  V30 9153 C 869.608 0.979045 1.27559 0
M  V30 9154 O 870.798 1.24187 1.22161 0
M  V30 9155 C 867.93 2.50782 2.30914 0
M  V30 9156 H 869.123 2.94718 0.555119 0
M  V30 9157 H 866.676 1.54249 0.25237 0
M  V30 9158 H 867.411 1.66351 2.78385 0
M  V30 9159 H 867.196 3.30495 2.10987 0
M  V30 9160 H 868.686 2.89391 3.0107 0
M  V30 9161 N 869.123 -0.277682 1.55134 0
M  V30 9162 C 870.033 -1.36524 1.90783 0
M  V30 9163 C 871.049 -1.54283 0.804542 0
M  V30 9164 O 872.225 -1.68499 1.10318 0
M  V30 9165 C 869.29 -2.70524 2.16835 0
M  V30 9166 C 868.351 -2.61552 3.40424 0
M  V30 9167 C 867.584 -3.89162 3.65224 0
M  V30 9168 O 867.807 -4.89624 2.92616 0
M  V30 9169 O 866.741 -3.89647 4.58758 0
M  V30 9170 H 870.567 -1.0929 2.83354 0
M  V30 9171 H 868.152 -0.475799 1.41621 0
M  V30 9172 H 870.034 -3.49765 2.35038 0
M  V30 9173 H 868.709 -2.97555 1.27448 0
M  V30 9174 H 867.616 -1.80704 3.27562 0
M  V30 9175 H 868.949 -2.39472 4.30016 0
M  V30 9176 N 870.601 -1.47988 -0.541979 0
M  V30 9177 C 872.017 -1.33843 -0.869383 0
M  V30 9178 C 872.217 -0.340374 -1.98604 0
M  V30 9179 O 871.273 0.242696 -2.51331 0
M  V30 9180 C 872.586 -2.73568 -1.24823 0
M  V30 9181 C 874.134 -2.81967 -1.3588 0
M  V30 9182 C 874.609 -4.22368 -1.77114 0
M  V30 9183 N 876.1 -4.24983 -1.84237 0
M  V30 9184 C 876.835 -5.30547 -2.17503 0
M  V30 9185 N 876.331 -6.46401 -2.49275 0
M  V30 9186 N 878.124 -5.17933 -2.18406 0
M  V30 9187 H 870.275 -2.11503 0.195001 0
M  V30 9188 H 872.538 -0.947681 0.0245862 0
M  V30 9189 H 872.244 -3.48107 -0.501435 0
M  V30 9190 H 872.118 -3.06322 -2.20106 0
M  V30 9191 H 874.505 -2.07692 -2.09638 0
M  V30 9192 H 874.586 -2.52848 -0.387478 0
M  V30 9193 H 874.23 -4.97155 -1.0392 0
M  V30 9194 H 874.16 -4.48922 -2.75275 0
M  V30 9195 H 876.651 -3.41411 -1.62009 0
M  V30 9196 H 876.964 -7.22698 -2.73729 0
M  V30 9197 H 875.309 -6.49696 -2.46821 0
M  V30 9198 H 878.5 -4.26445 -1.93034 0
M  V30 9199 H 878.673 -6.00307 -2.44 0
M  V30 9200 N 872.079 0.78992 -1.36375 0
M  V30 9201 C 873.325 1.54939 -1.31778 0
M  V30 9202 C 873.68 1.92128 0.102327 0
M  V30 9203 O 872.973 1.59823 1.05675 0
M  V30 9204 C 873.167 2.83698 -2.17371 0
M  V30 9205 C 872.996 2.59093 -3.67561 0
M  V30 9206 C 871.766 2.5414 -4.36739 0
M  V30 9207 C 873.964 2.28325 -4.60838 0
M  V30 9208 N 871.946 2.21427 -5.72576 0
M  V30 9209 C 873.317 2.05596 -5.84919 0
M  V30 9210 C 875.372 2.14328 -4.49409 0
M  V30 9211 C 874.075 1.70285 -6.98853 0
M  V30 9212 C 876.101 1.80415 -5.63209 0
M  V30 9213 C 875.463 1.58533 -6.86328 0
M  V30 9214 H 871.562 0.568011 -0.537483 0
M  V30 9215 H 874.146 0.923183 -1.71422 0
M  V30 9216 H 872.317 3.44187 -1.79972 0
M  V30 9217 H 874.049 3.49425 -2.04167 0
M  V30 9218 H 870.804 2.69368 -3.89535 0
M  V30 9219 H 871.228 2.07818 -6.44314 0
M  V30 9220 H 875.87 2.29935 -3.54809 0
M  V30 9221 H 873.588 1.53415 -7.93404 0
M  V30 9222 H 877.174 1.70269 -5.56327 0
M  V30 9223 H 876.054 1.32677 -7.72895 0
M  V30 9224 N 873.557 1.20646 1.01402 0
M  V30 9225 C 874.489 0.915392 2.10127 0
M  V30 9226 C 875.502 -0.0978705 1.62506 0
M  V30 9227 O 876.691 0.133477 1.78 0
M  V30 9228 C 873.791 0.351304 3.37074 0
M  V30 9229 C 872.964 1.41673 4.13821 0
M  V30 9230 C 872.023 0.8635 5.19067 0
M  V30 9231 O 871.049 1.54481 5.47836 0
M  V30 9232 N 872.251 -0.325799 5.79585 0
M  V30 9233 H 875.016 1.85132 2.35682 0
M  V30 9234 H 872.577 1.11048 1.17813 0
M  V30 9235 H 874.569 -0.032996 4.04687 0
M  V30 9236 H 873.139 -0.489242 3.08748 0
M  V30 9237 H 872.359 1.97526 3.41141 0
M  V30 9238 H 873.647 2.1342 4.61876 0
M  V30 9239 H 873.045 -0.896534 5.58551 0
M  V30 9240 H 871.602 -0.651708 6.48534 0
M  V30 9241 N 875.035 -1.20752 1.01276 0
M  V30 9242 C 875.985 -2.21252 0.550602 0
M  V30 9243 C 876.969 -1.56052 -0.391985 0
M  V30 9244 O 878.161 -1.75682 -0.215575 0
M  V30 9245 C 875.29 -3.43112 -0.113601 0
M  V30 9246 C 874.376 -4.15485 0.850465 0
M  V30 9247 N 874.767 -4.64301 2.00643 0
M  V30 9248 C 873.065 -4.40932 0.670476 0
M  V30 9249 C 873.766 -5.197 2.61317 0
M  V30 9250 N 872.742 -5.09534 1.8941 0
M  V30 9251 H 876.544 -2.56657 1.43194 0
M  V30 9252 H 874.058 -1.36646 0.877597 0
M  V30 9253 H 876.055 -4.1433 -0.462211 0
M  V30 9254 H 874.715 -3.09213 -0.990825 0
M  V30 9255 H 875.726 -4.59637 2.38651 0
M  V30 9256 H 872.403 -4.17197 -0.159016 0
M  V30 9257 H 873.793 -5.67873 3.59123 0
M  V30 9258 N 876.513 -0.788492 -1.36457 0
M  V30 9259 C 877.443 -0.200468 -2.32638 0
M  V30 9260 C 878.424 0.664031 -1.56603 0
M  V30 9261 O 879.609 0.598045 -1.84762 0
M  V30 9262 C 876.739 0.666274 -3.40849 0
M  V30 9263 C 875.693 -0.0982574 -4.27887 0
M  V30 9264 C 875.019 0.889018 -5.27258 0
M  V30 9265 C 876.319 -1.28692 -5.06197 0
M  V30 9266 H 878.013 -1.00399 -2.82065 0
M  V30 9267 H 875.559 -0.484237 -1.35614 0
M  V30 9268 H 877.512 1.08757 -4.07124 0
M  V30 9269 H 876.236 1.50249 -2.89987 0
M  V30 9270 H 874.895 -0.500525 -3.63167 0
M  V30 9271 H 874.543 1.72024 -4.7267 0
M  V30 9272 H 874.243 0.381909 -5.86358 0
M  V30 9273 H 875.767 1.30891 -5.96406 0
M  V30 9274 H 877.181 -0.941429 -5.65517 0
M  V30 9275 H 875.578 -1.72726 -5.74705 0
M  V30 9276 H 876.648 -2.08273 -4.37893 0
M  V30 9277 N 877.991 1.48044 -0.54043 0
M  V30 9278 C 879.219 2.06895 -0.0145153 0
M  V30 9279 C 879.634 1.39552 1.27164 0
M  V30 9280 O 878.991 0.486454 1.75897 0
M  V30 9281 C 879.042 3.60934 0.202278 0
M  V30 9282 O 878.763 4.25749 -1.03293 0
M  V30 9283 C 880.264 4.36607 0.767387 0
M  V30 9284 H 877.484 0.66991 -0.0382368 0
M  V30 9285 H 880.028 1.90288 -0.749057 0
M  V30 9286 H 878.183 3.77111 0.886897 0
M  V30 9287 H 878.597 5.18048 -0.820167 0
M  V30 9288 H 880.071 5.45126 0.86845 0
M  V30 9289 H 880.548 4.01745 1.77477 0
M  V30 9290 H 881.154 4.25133 0.119002 0
M  V30 9291 N 879.47 0.276058 1.55163 0
M  V30 9292 C 880.402 -0.644254 2.19959 0
M  V30 9293 C 881.415 -1.11675 1.18459 0
M  V30 9294 O 882.604 -1.0385 1.45181 0
M  V30 9295 C 879.704 -1.89093 2.81242 0
M  V30 9296 C 878.877 -1.56509 4.08441 0
M  V30 9297 C 877.936 -2.66433 4.53762 0
M  V30 9298 O 876.962 -2.32579 5.19515 0
M  V30 9299 N 878.164 -3.96509 4.23982 0
M  V30 9300 H 880.929 -0.0896808 2.99566 0
M  V30 9301 H 878.49 0.0971981 1.61608 0
M  V30 9302 H 880.482 -2.61929 3.08505 0
M  V30 9303 H 879.052 -2.35453 2.05622 0
M  V30 9304 H 878.272 -0.670522 3.88455 0
M  V30 9305 H 879.56 -1.32242 4.91314 0
M  V30 9306 H 878.958 -4.26834 3.71254 0
M  V30 9307 H 877.515 -4.6572 4.56014 0
M  V30 9308 N 880.948 -1.576 0.00335426 0
M  V30 9309 C 882.359 -1.7875 -0.539008 0
M  V30 9310 C 882.71 -0.911097 -1.73763 0
M  V30 9311 O 881.835 -0.114476 -2.16097 0
M  V30 9312 C 882.43 -3.24177 -0.984611 0
M  V30 9313 C 880.989 -3.46412 -1.47226 0
M  V30 9314 C 880.136 -2.74024 -0.425004 0
M  V30 9315 H 883.087 -1.57032 0.229511 0
M  V30 9316 H 883.108 -3.32474 -1.85044 0
M  V30 9317 H 882.62 -3.87938 -0.112035 0
M  V30 9318 H 880.721 -2.8787 -2.36562 0
M  V30 9319 H 880.834 -4.55098 -1.49741 0
M  V30 9320 H 879.198 -2.38741 -0.887394 0
M  V30 9321 H 879.981 -3.40486 0.438662 0
M  V30 9322 N 882.426 0.269451 -1.5528 0
M  V30 9323 C 883.675 0.998381 -1.75258 0
M  V30 9324 C 883.988 1.87321 -0.563034 0
M  V30 9325 O 885.194 2.63719 -0.645313 0
M  V30 9326 C 883.65 1.82505 -3.10193 0
M  V30 9327 C 883.258 0.99871 -4.36726 0
M  V30 9328 C 885.002 2.54807 -3.3952 0
M  V30 9329 C 882.909 1.81997 -5.627 0
M  V30 9330 H 881.839 0.376488 -0.653278 0
M  V30 9331 H 884.49 0.253909 -1.81735 0
M  V30 9332 H 882.872 2.61061 -2.97763 0
M  V30 9333 H 884.046 0.257064 -4.60082 0
M  V30 9334 H 882.361 0.390074 -4.14569 0
M  V30 9335 H 884.958 3.16662 -4.30847 0
M  V30 9336 H 885.301 3.25273 -2.59813 0
M  V30 9337 H 885.834 1.83278 -3.53064 0
M  V30 9338 H 882.573 1.15945 -6.45164 0
M  V30 9339 H 882.093 2.53749 -5.43481 0
M  V30 9340 H 883.772 2.39274 -6.0113 0
M  V30 9341 N 883.904 1.48273 0.534124 0
M  V30 9342 C 885.15 1.5729 1.28963 0
M  V30 9343 C 885.505 0.241854 1.90874 0
M  V30 9344 O 884.798 -0.754874 1.76103 0
M  V30 9345 C 884.992 2.64468 2.40398 0
M  V30 9346 C 884.821 4.07865 1.8941 0
M  V30 9347 C 883.591 4.75052 1.72202 0
M  V30 9348 C 885.789 4.94163 1.42505 0
M  V30 9349 N 883.771 6.0288 1.15795 0
M  V30 9350 C 885.142 6.12203 0.980176 0
M  V30 9351 C 887.197 4.8042 1.30769 0
M  V30 9352 C 885.9 7.18016 0.429591 0
M  V30 9353 C 887.926 5.86351 0.771107 0
M  V30 9354 C 887.288 7.03597 0.336287 0
M  V30 9355 H 883.387 0.630141 0.463083 0
M  V30 9356 H 885.971 1.85135 0.602767 0
M  V30 9357 H 884.142 2.38453 3.06586 0
M  V30 9358 H 885.874 2.63194 3.07426 0
M  V30 9359 H 882.629 4.3132 1.95603 0
M  V30 9360 H 883.053 6.71043 0.896141 0
M  V30 9361 H 887.695 3.90119 1.62993 0
M  V30 9362 H 885.413 8.08044 0.0950224 0
M  V30 9363 H 888.999 5.77771 0.68354 0
M  V30 9364 H 887.879 7.84167 -0.0724668 0
M  V30 9365 N 885.382 -0.782676 1.36792 0
M  V30 9366 C 886.63 -1.53778 1.31136 0
M  V30 9367 C 886.951 -1.94706 -0.107014 0
M  V30 9368 O 886.221 -1.65465 -1.04872 0
M  V30 9369 H 884.801 -0.570328 0.482426 0
M  V30 9370 H 887.463 -0.932181 1.71162 0
M  V30 9371 H 886.559 -2.44224 1.94321 0
M  V30 9372 N 886.86 -1.21182 -1.00761 0
M  V30 9373 C 887.79 -0.992773 -2.11344 0
M  V30 9374 C 888.771 0.0813618 -1.69905 0
M  V30 9375 O 889.956 -0.0779503 -1.94043 0
M  V30 9376 C 887.086 -0.553826 -3.42856 0
M  V30 9377 C 886.04 -1.57223 -3.98077 0
M  V30 9378 C 885.366 -0.989605 -5.25463 0
M  V30 9379 C 886.666 -2.95839 -4.30438 0
M  V30 9380 H 888.36 -1.91766 -2.29927 0
M  V30 9381 H 885.906 -0.923426 -1.10494 0
M  V30 9382 H 887.859 -0.387771 -4.19612 0
M  V30 9383 H 886.583 0.406702 -3.24058 0
M  V30 9384 H 885.242 -1.7258 -3.23437 0
M  V30 9385 H 884.89 -0.0208743 -5.02996 0
M  V30 9386 H 884.59 -1.66984 -5.63374 0
M  V30 9387 H 886.114 -0.834815 -6.04866 0
M  V30 9388 H 887.528 -2.8394 -4.98047 0
M  V30 9389 H 885.925 -3.60851 -4.79486 0
M  V30 9390 H 886.995 -3.46882 -3.38823 0
M  V30 9391 N 888.338 1.20213 -1.01915 0
M  V30 9392 C 889.288 2.20957 -0.562327 0
M  V30 9393 C 890.272 1.56258 0.383704 0
M  V30 9394 O 891.464 1.75794 0.206255 0
M  V30 9395 C 888.593 3.43167 0.0954035 0
M  V30 9396 C 887.679 4.15028 -0.872487 0
M  V30 9397 N 888.07 4.63231 -2.03103 0
M  V30 9398 C 886.368 4.4057 -0.69385 0
M  V30 9399 C 887.069 5.18307 -2.64069 0
M  V30 9400 N 886.045 5.08522 -1.9211 0
M  V30 9401 H 889.847 2.55894 -1.44553 0
M  V30 9402 H 887.361 1.36178 -0.884831 0
M  V30 9403 H 889.358 4.14569 0.440232 0
M  V30 9404 H 888.018 3.09734 0.974413 0
M  V30 9405 H 889.029 4.58365 -2.41086 0
M  V30 9406 H 885.706 4.17276 0.136889 0
M  V30 9407 H 887.096 5.65961 -3.6213 0
M  V30 9408 N 889.816 0.795718 1.36037 0
M  V30 9409 C 890.766 0.171437 2.27355 0
M  V30 9410 C 891.75 -0.648346 1.47259 0
M  V30 9411 O 892.942 -0.507386 1.69572 0
M  V30 9412 C 890.071 -0.687876 3.36338 0
M  V30 9413 C 889.157 0.141041 4.23865 0
M  V30 9414 N 889.548 1.19868 4.91391 0
M  V30 9415 C 887.846 -0.0791045 4.4593 0
M  V30 9416 C 888.547 1.70382 5.56188 0
M  V30 9417 N 887.523 1.01202 5.34097 0
M  V30 9418 H 891.325 0.980846 2.7705 0
M  V30 9419 H 888.839 0.635798 1.49437 0
M  V30 9420 H 890.836 -1.15107 4.00694 0
M  V30 9421 H 889.496 -1.49576 2.88196 0
M  V30 9422 H 890.507 1.58119 4.93172 0
M  V30 9423 H 887.184 -0.856993 4.0861 0
M  V30 9424 H 888.574 2.58715 6.20093 0
M  V30 9425 N 891.294 -1.47756 0.548274 0
M  V30 9426 C 892.224 -2.32702 -0.19284 0
M  V30 9427 C 893.205 -1.43237 -0.917457 0
M  V30 9428 O 894.39 -1.72103 -0.89967 0
M  V30 9429 C 891.52 -3.24831 -1.22891 0
M  V30 9430 C 890.474 -4.23466 -0.621312 0
M  V30 9431 C 889.8 -5.04856 -1.76137 0
M  V30 9432 C 891.1 -5.20616 0.419055 0
M  V30 9433 H 892.794 -2.94914 0.516323 0
M  V30 9434 H 890.34 -1.41818 0.24975 0
M  V30 9435 H 892.293 -3.83094 -1.75547 0
M  V30 9436 H 891.017 -2.60656 -1.9679 0
M  V30 9437 H 889.676 -3.66416 -0.116123 0
M  V30 9438 H 889.324 -4.37091 -2.48918 0
M  V30 9439 H 889.024 -5.71629 -1.36065 0
M  V30 9440 H 890.548 -5.65976 -2.29136 0
M  V30 9441 H 891.962 -5.73296 -0.0211034 0
M  V30 9442 H 890.359 -5.95543 0.738163 0
M  V30 9443 H 891.429 -4.66638 1.31822 0
M  V30 9444 N 892.772 -0.284283 -1.55015 0
M  V30 9445 C 893.682 0.60906 -2.26556 0
M  V30 9446 C 894.698 1.16246 -1.29472 0
M  V30 9447 O 895.874 1.1908 -1.62425 0
M  V30 9448 C 892.939 1.77246 -2.97968 0
M  V30 9449 C 892 1.25482 -4.10552 0
M  V30 9450 C 891.233 2.36277 -4.78549 0
M  V30 9451 O 891.456 3.55829 -4.45805 0
M  V30 9452 O 890.39 2.03914 -5.66306 0
M  V30 9453 H 894.216 0.0292298 -3.03686 0
M  V30 9454 H 891.801 -0.0513466 -1.49312 0
M  V30 9455 H 893.683 2.45062 -3.42815 0
M  V30 9456 H 892.358 2.33921 -2.23747 0
M  V30 9457 H 891.265 0.542859 -3.7014 0
M  V30 9458 H 892.598 0.733708 -4.86701 0
M  V30 9459 N 894.251 1.57596 -0.0117121 0
M  V30 9460 C 895.481 1.95077 0.680346 0
M  V30 9461 C 895.889 0.885793 1.67184 0
M  V30 9462 O 895.232 -0.142723 1.83145 0
M  V30 9463 C 895.294 3.28611 1.45791 0
M  V30 9464 C 894.958 4.52682 0.626706 0
M  V30 9465 C 895.955 5.19821 -0.0906223 0
M  V30 9466 C 893.64 4.99064 0.569229 0
M  V30 9467 C 895.634 6.31649 -0.854289 0
M  V30 9468 C 893.321 6.10779 -0.198155 0
M  V30 9469 C 894.319 6.76929 -0.908636 0
M  V30 9470 O 894.007 7.86501 -1.66348 0
M  V30 9471 H 893.739 0.647663 0.193672 0
M  V30 9472 H 896.293 2.05305 -0.0624969 0
M  V30 9473 H 894.523 3.14824 2.2455 0
M  V30 9474 H 896.212 3.51119 2.03642 0
M  V30 9475 H 896.978 4.84968 -0.0554421 0
M  V30 9476 H 892.857 4.47393 1.11178 0
M  V30 9477 H 896.401 6.83215 -1.40937 0
M  V30 9478 H 892.298 6.45072 -0.235114 0
M  V30 9479 H 893.066 8.03078 -1.58141 0
M  V30 9480 N 895.729 -0.261212 1.5542 0
M  V30 9481 C 897.145 -0.609012 1.47524 0
M  V30 9482 C 897.345 -1.88986 0.699042 0
M  V30 9483 O 896.401 -2.51517 0.222628 0
M  V30 9484 C 897.714 -0.725025 2.91828 0
M  V30 9485 C 899.262 -0.818302 3.02114 0
M  V30 9486 C 899.737 -0.965996 4.47697 0
M  V30 9487 N 901.228 -1.03123 4.51575 0
M  V30 9488 C 901.963 -1.16451 5.6145 0
M  V30 9489 N 901.459 -1.26425 6.81167 0
M  V30 9490 N 903.252 -1.19655 5.49217 0
M  V30 9491 H 895.403 0.579807 2.04333 0
M  V30 9492 H 897.666 0.198072 0.927077 0
M  V30 9493 H 897.372 0.145871 3.51397 0
M  V30 9494 H 897.246 -1.60156 3.41511 0
M  V30 9495 H 899.633 -1.67966 2.42634 0
M  V30 9496 H 899.714 0.0830895 2.55665 0
M  V30 9497 H 899.358 -0.109251 5.07782 0
M  V30 9498 H 899.288 -1.88221 4.91813 0
M  V30 9499 H 901.779 -0.966072 3.65343 0
M  V30 9500 H 902.092 -1.36462 7.60656 0
M  V30 9501 H 900.437 -1.23408 6.83956 0
M  V30 9502 H 903.628 -1.11501 4.54626 0
M  V30 9503 H 903.801 -1.29698 6.34888 0
M  V30 9504 N 897.207 -1.48554 -0.526253 0
M  V30 9505 C 898.17 -1.62868 -1.61266 0
M  V30 9506 C 899.17 -0.501762 -1.52771 0
M  V30 9507 O 900.36 -0.76764 -1.56374 0
M  V30 9508 C 897.492 -1.60238 -3.00893 0
M  V30 9509 H 898.685 -2.59742 -1.49913 0
M  V30 9510 H 896.238 -1.37207 -0.748595 0
M  V30 9511 H 896.973 -0.648545 -3.17749 0
M  V30 9512 H 896.758 -2.42054 -3.08468 0
M  V30 9513 H 898.248 -1.73455 -3.79872 0
M  V30 9514 N 898.685 0.775411 -1.37205 0
M  V30 9515 C 899.617 1.89761 -1.28544 0
M  V30 9516 C 900.63 1.61542 -0.201996 0
M  V30 9517 O 901.819 1.72528 -0.457848 0
M  V30 9518 C 898.919 3.24904 -0.963885 0
M  V30 9519 C 898.092 3.80796 -2.15205 0
M  V30 9520 C 897.151 4.94407 -1.80135 0
M  V30 9521 O 896.177 5.10185 -2.52388 0
M  V30 9522 N 897.379 5.75722 -0.743298 0
M  V30 9523 H 900.144 1.97708 -2.25237 0
M  V30 9524 H 897.705 0.954348 -1.30782 0
M  V30 9525 H 899.697 3.9842 -0.710182 0
M  V30 9526 H 898.267 3.12483 -0.085632 0
M  V30 9527 H 897.487 2.99101 -2.56773 0
M  V30 9528 H 898.775 4.1487 -2.94552 0
M  V30 9529 H 898.173 5.65518 -0.143655 0
M  V30 9530 H 896.73 6.4948 -0.549446 0
M  V30 9531 N 900.163 1.21714 1.00117 0
M  V30 9532 C 901.44 0.945391 1.71236 0
M  V30 9533 C 901.82 -0.541772 2.0403 0
M  V30 9534 O 901.168 -1.50763 1.71705 0
M  V30 9535 C 901.378 1.83444 2.96899 0
M  V30 9536 C 902.726 2.08558 3.69849 0
M  V30 9537 O 903.75 1.80824 3.06889 0
M  V30 9538 O 902.609 2.55485 4.83104 0
M  V30 9539 H 899.703 0.354834 0.747009 0
M  V30 9540 H 902.249 1.32661 1.05825 0
M  V30 9541 H 901.021 2.84075 2.69105 0
M  V30 9542 H 900.644 1.45428 3.70049 0
M  V30 9543 N 901.641 -1.19671 1.02551 0
M  V30 9544 C 902.604 -2.20987 0.608055 0
M  V30 9545 C 903.604 -1.5745 -0.326534 0
M  V30 9546 O 904.794 -1.73827 -0.114003 0
M  V30 9547 C 901.926 -3.4072 -0.11074 0
M  V30 9548 H 903.119 -2.59434 1.50446 0
M  V30 9549 H 900.672 -1.3329 0.816307 0
M  V30 9550 H 901.407 -3.07787 -1.02165 0
M  V30 9551 H 901.192 -3.88069 0.560772 0
M  V30 9552 H 902.682 -4.15776 -0.389848 0
M  V30 9553 N 903.119 -0.802921 -1.35613 0
M  V30 9554 C 904.396 -0.304993 -1.93208 0
M  V30 9555 C 904.776 1.20488 -1.73337 0
M  V30 9556 O 904.124 2.00268 -1.10022 0
M  V30 9557 C 904.334 -0.712383 -3.41652 0
M  V30 9558 C 905.682 -0.699785 -4.18794 0
M  V30 9559 O 906.706 -0.653698 -3.5015 0
M  V30 9560 O 905.565 -0.754842 -5.41262 0
M  V30 9561 H 902.659 -0.0789127 -0.823226 0
M  V30 9562 H 905.205 -0.886372 -1.44712 0
M  V30 9563 H 903.977 -1.75316 -3.49829 0
M  V30 9564 H 903.6 -0.105614 -3.9746 0
M  V30 9565 N 904.597 1.47463 -0.556102 0
M  V30 9566 C 905.843 2.02775 -0.0316806 0
M  V30 9567 C 906.176 1.42967 1.3143 0
M  V30 9568 O 905.451 0.584847 1.85499 0
M  V30 9569 C 905.734 3.60046 0.0625742 0
M  V30 9570 C 905.587 4.30288 -1.31043 0
M  V30 9571 C 906.906 4.33195 0.776553 0
M  V30 9572 H 904.025 0.736886 -0.0129869 0
M  V30 9573 H 906.667 1.75904 -0.718177 0
M  V30 9574 H 904.817 3.83071 0.647231 0
M  V30 9575 H 906.489 4.18607 -1.9382 0
M  V30 9576 H 904.732 3.90685 -1.8854 0
M  V30 9577 H 905.403 5.38861 -1.1972 0
M  V30 9578 H 907.879 4.15156 0.280147 0
M  V30 9579 H 906.755 5.42869 0.81146 0
M  V30 9580 H 907.016 4.02336 1.83244 0
M  V30 9581 N 906.075 0.2925 1.54862 0
M  V30 9582 C 907.491 -0.0611461 1.59483 0
M  V30 9583 C 907.691 -1.53141 1.30958 0
M  V30 9584 O 906.747 -2.28291 1.07887 0
M  V30 9585 C 908.06 0.329143 2.98893 0
M  V30 9586 C 909.608 0.2772 3.1177 0
M  V30 9587 C 910.083 0.642185 4.53475 0
M  V30 9588 N 911.574 0.594396 4.5937 0
M  V30 9589 C 912.309 0.849385 5.67074 0
M  V30 9590 N 911.805 1.1699 6.82851 0
M  V30 9591 N 913.598 0.777016 5.56704 0
M  V30 9592 H 905.749 1.25079 1.71665 0
M  V30 9593 H 908.012 0.506516 0.80134 0
M  V30 9594 H 907.718 1.35233 3.24661 0
M  V30 9595 H 907.592 -0.321442 3.75828 0
M  V30 9596 H 909.979 -0.736725 2.85756 0
M  V30 9597 H 910.06 0.962289 2.3701 0
M  V30 9598 H 909.704 1.65388 4.80218 0
M  V30 9599 H 909.634 -0.0648831 5.2656 0
M  V30 9600 H 912.125 0.357256 3.76208 0
M  V30 9601 H 912.438 1.35067 7.60905 0
M  V30 9602 H 910.783 1.20785 6.84424 0
M  V30 9603 H 913.974 0.526333 4.65132 0
M  V30 9604 H 914.147 0.979113 6.4056 0
M  V30 9605 N 907.553 -1.57587 0.0200696 0
M  V30 9606 C 908.801 -1.91046 -0.65922 0
M  V30 9607 C 909.122 -0.896197 -1.73186 0
M  V30 9608 O 908.392 0.0635952 -1.95797 0
M  V30 9609 H 906.972 -0.705163 -0.246483 0
M  V30 9610 H 909.634 -1.94789 0.0657368 0
M  V30 9611 H 908.73 -2.91399 -1.11773 0
M  V30 9612 N 909.032 0.252966 -1.55557 0
M  V30 9613 C 909.962 1.31691 -1.9282 0
M  V30 9614 C 910.943 1.50516 -0.7924 0
M  V30 9615 O 912.128 1.63225 -1.05219 0
M  V30 9616 C 909.258 2.67281 -2.21762 0
M  V30 9617 C 908.212 2.6316 -3.37536 0
M  V30 9618 C 907.538 4.02488 -3.52005 0
M  V30 9619 C 908.838 2.20675 -4.73392 0
M  V30 9620 H 910.532 1.00751 -2.81939 0
M  V30 9621 H 908.078 0.483219 -1.3565 0
M  V30 9622 H 910.031 3.41842 -2.46419 0
M  V30 9623 H 908.755 2.99845 -1.29463 0
M  V30 9624 H 907.414 1.91057 -3.12878 0
M  V30 9625 H 907.062 4.32307 -2.57137 0
M  V30 9626 H 906.762 4.00621 -4.29857 0
M  V30 9627 H 908.286 4.78758 -3.78977 0
M  V30 9628 H 909.7 2.84965 -4.97461 0
M  V30 9629 H 908.097 2.29931 -5.54303 0
M  V30 9630 H 909.167 1.15831 -4.70862 0
M  V30 9631 N 910.51 1.48831 0.518367 0
M  V30 9632 C 911.738 1.6112 1.298 0
M  V30 9633 C 912.153 0.275872 1.86774 0
M  V30 9634 O 911.51 -0.736416 1.66983 0
M  V30 9635 C 911.561 2.66675 2.44063 0
M  V30 9636 O 911.282 3.95027 1.89434 0
M  V30 9637 C 912.783 2.8951 3.35706 0
M  V30 9638 H 910.003 0.542916 0.394314 0
M  V30 9639 H 912.547 1.94743 0.624142 0
M  V30 9640 H 910.702 2.35879 3.07311 0
M  V30 9641 H 911.116 4.53031 2.64316 0
M  V30 9642 H 912.59 3.67142 4.12202 0
M  V30 9643 H 913.067 1.98768 3.91648 0
M  V30 9644 H 913.673 3.21656 2.7824 0
M  V30 9645 N 911.988 -0.768124 1.37614 0
M  V30 9646 C 913.216 -1.55726 1.36224 0
M  V30 9647 C 913.631 -1.8873 -0.0515357 0
M  V30 9648 O 912.988 -1.51718 -1.0143 0
M  V30 9649 C 913.039 -2.86533 2.20412 0
M  V30 9650 O 912.76 -2.54942 3.56281 0
M  V30 9651 C 914.261 -3.80745 2.27041 0
M  V30 9652 H 911.481 -0.482325 0.46648 0
M  V30 9653 H 914.025 -0.95176 1.81002 0
M  V30 9654 H 912.18 -3.43496 1.79134 0
M  V30 9655 H 912.594 -3.38732 4.00451 0
M  V30 9656 H 914.068 -4.69523 2.90263 0
M  V30 9657 H 914.545 -4.20138 1.27987 0
M  V30 9658 H 915.151 -3.2971 2.68647 0
M  V30 9659 N 913.466 -1.22244 -0.994698 0
M  V30 9660 C 914.396 -1.01513 -2.10279 0
M  V30 9661 C 915.377 0.0633365 -1.69982 0
M  V30 9662 O 916.562 -0.0985268 -1.9395 0
M  V30 9663 C 913.692 -0.59016 -3.42249 0
M  V30 9664 C 912.646 -1.61436 -3.96387 0
M  V30 9665 C 911.972 -1.04528 -5.24383 0
M  V30 9666 C 913.272 -3.00388 -4.27276 0
M  V30 9667 H 914.966 -1.94194 -2.2788 0
M  V30 9668 H 912.512 -0.935094 -1.09508 0
M  V30 9669 H 914.465 -0.432254 -4.19177 0
M  V30 9670 H 913.189 0.372308 -3.24471 0
M  V30 9671 H 911.848 -1.76001 -3.21589 0
M  V30 9672 H 911.496 -0.0742225 -5.02945 0
M  V30 9673 H 911.196 -1.72949 -5.61571 0
M  V30 9674 H 912.72 -0.898922 -6.03947 0
M  V30 9675 H 914.134 -2.89207 -4.95007 0
M  V30 9676 H 912.531 -3.65916 -4.75631 0
M  V30 9677 H 913.601 -3.50456 -3.35125 0
M  V30 9678 N 914.944 1.19125 -1.03184 0
M  V30 9679 C 916.172 1.92838 -0.74975 0
M  V30 9680 C 916.587 1.75667 0.691851 0
M  V30 9681 O 915.944 1.0805 1.47076 0
M  V30 9682 C 915.995 3.44509 -1.09525 0
M  V30 9683 O 915.716 3.6113 -2.48025 0
M  V30 9684 C 917.217 4.35338 -0.836397 0
M  V30 9685 H 914.437 0.61246 -0.274105 0
M  V30 9686 H 916.981 1.5118 -1.37712 0
M  V30 9687 H 915.136 3.83988 -0.513006 0
M  V30 9688 H 915.55 4.54959 -2.60984 0
M  V30 9689 H 917.024 5.4035 -1.12808 0
M  V30 9690 H 917.501 4.38602 0.229102 0
M  V30 9691 H 918.107 4.01544 -1.40152 0
M  V30 9692 N 916.422 0.810101 1.35185 0
M  V30 9693 C 917.833 0.452616 1.81131 0
M  V30 9694 C 918.184 -1.02573 1.67252 0
M  V30 9695 O 917.309 -1.79735 1.20516 0
M  V30 9696 C 917.904 0.814775 3.28857 0
M  V30 9697 C 916.463 0.509839 3.72931 0
M  V30 9698 C 915.61 1.03852 2.57119 0
M  V30 9699 H 918.561 1.00143 1.23114 0
M  V30 9700 H 918.582 0.113635 3.8033 0
M  V30 9701 H 918.094 1.89078 3.38926 0
M  V30 9702 H 916.195 -0.557289 3.68409 0
M  V30 9703 H 916.308 1.04493 4.67566 0
M  V30 9704 H 914.672 0.460671 2.50499 0
M  V30 9705 H 915.455 2.12071 2.69964 0
M  V30 9706 N 917.9 -1.47166 0.563914 0
M  V30 9707 C 919.146 -2.02756 0.0424338 0
M  V30 9708 C 919.479 -1.43662 -1.3067 0
M  V30 9709 O 918.754 -0.594676 -1.85186 0
M  V30 9710 C 919.037 -3.60074 -0.0434793 0
M  V30 9711 C 918.89 -4.29587 1.33323 0
M  V30 9712 C 920.209 -4.336 -0.753568 0
M  V30 9713 H 917.328 -0.736806 0.0168946 0
M  V30 9714 H 919.97 -1.75521 0.727496 0
M  V30 9715 H 918.12 -3.83409 -0.626906 0
M  V30 9716 H 919.792 -4.17573 1.96037 0
M  V30 9717 H 918.035 -3.8968 1.9061 0
M  V30 9718 H 918.706 -5.38218 1.22576 0
M  V30 9719 H 921.182 -4.15299 -0.258126 0
M  V30 9720 H 920.058 -5.43291 -0.782659 0
M  V30 9721 H 920.319 -4.03302 -1.81108 0
M  V30 9722 N 919.378 -0.300708 -1.54705 0
M  V30 9723 C 920.603 0.314073 -2.05008 0
M  V30 9724 C 921.028 1.46759 -1.17657 0
M  V30 9725 O 920.386 1.80398 -0.180598 0
M  V30 9726 C 920.434 0.748243 -3.52752 0
M  V30 9727 O 919.538 1.85305 -3.68424 0
M  V30 9728 H 918.879 0.0610139 -0.661191 0
M  V30 9729 H 921.409 -0.442467 -1.99758 0
M  V30 9730 H 921.419 1.03713 -3.94598 0
M  V30 9731 H 920.094 -0.095573 -4.1579 0
M  V30 9732 H 918.671 1.56473 -3.38483 0
M  V30 9733 N 920.856 1.57574 -0.0284266 0
M  V30 9734 C 921.766 2.13637 0.96936 0
M  V30 9735 C 922.782 1.08845 1.35752 0
M  V30 9736 O 923.958 1.40899 1.43908 0
M  V30 9737 C 921.023 2.65179 2.2334 0
M  V30 9738 C 920.084 3.84683 1.90572 0
M  V30 9739 C 919.317 4.33758 3.1095 0
M  V30 9740 O 919.54 3.82009 4.23586 0
M  V30 9741 O 918.474 5.2561 2.93288 0
M  V30 9742 H 922.3 2.99169 0.52267 0
M  V30 9743 H 919.885 1.48159 0.192135 0
M  V30 9744 H 921.767 2.98402 2.97547 0
M  V30 9745 H 920.442 1.82731 2.67191 0
M  V30 9746 H 919.349 3.56386 1.13753 0
M  V30 9747 H 920.682 4.68292 1.51538 0
M  V30 9748 N 922.334 -0.244713 1.55689 0
M  V30 9749 C 923.559 -0.994157 1.8202 0
M  V30 9750 C 923.984 -1.78079 0.60577 0
M  V30 9751 O 923.342 -1.75748 -0.445221 0
M  V30 9752 C 923.39 -1.90599 3.06111 0
M  V30 9753 O 922.494 -2.99804 2.8318 0
M  V30 9754 H 921.835 -0.282767 0.600782 0
M  V30 9755 H 924.365 -0.26504 2.02876 0
M  V30 9756 H 924.375 -2.32023 3.35603 0
M  V30 9757 H 923.05 -1.32763 3.9414 0
M  V30 9758 H 921.627 -2.62493 2.64862 0
M  V30 9759 N 923.813 -1.49104 -0.510467 0
M  V30 9760 C 925.038 -1.62068 -1.29417 0
M  V30 9761 C 925.463 -0.288432 -1.85875 0
M  V30 9762 O 924.821 0.742667 -1.65391 0
M  V30 9763 C 924.869 -2.68506 -2.40701 0
M  V30 9764 O 923.973 -2.27021 -3.4429 0
M  V30 9765 H 923.314 -0.542778 -0.382476 0
M  V30 9766 H 925.844 -1.95228 -0.612154 0
M  V30 9767 H 925.854 -2.90383 -2.86604 0
M  V30 9768 H 924.529 -3.65216 -1.98973 0
M  V30 9769 H 923.106 -2.15436 -3.04371 0
M  V30 9770 N 925.291 0.760815 -1.38019 0
M  V30 9771 C 926.238 1.8744 -1.34666 0
M  V30 9772 C 927.208 1.64762 -0.210386 0
M  V30 9773 O 928.393 1.86528 -0.401479 0
M  V30 9774 C 925.533 3.24648 -1.17037 0
M  V30 9775 C 924.646 3.59206 -2.3999 0
M  V30 9776 C 923.781 4.8568 -2.15148 0
M  V30 9777 C 922.82 5.13002 -3.3391 0
M  V30 9778 N 921.957 6.30668 -3.08549 0
M  V30 9779 H 926.797 1.8964 -2.29871 0
M  V30 9780 H 924.334 0.927004 -1.14215 0
M  V30 9781 H 926.292 4.03814 -1.04834 0
M  V30 9782 H 924.922 3.21793 -0.254758 0
M  V30 9783 H 923.974 2.74939 -2.62893 0
M  V30 9784 H 925.286 3.75328 -3.28527 0
M  V30 9785 H 924.44 5.72773 -2.00039 0
M  V30 9786 H 923.179 4.71682 -1.23965 0
M  V30 9787 H 922.184 4.2438 -3.49545 0
M  V30 9788 H 923.409 5.28901 -4.25958 0
M  V30 9789 H 921.355 6.18008 -2.20006 0
M  V30 9790 H 921.272 6.47257 -3.90633 0
M  V30 9791 H 922.54 7.20669 -2.9708 0
M  V30 9792 N 926.769 1.22769 0.988202 0
M  V30 9793 C 928.015 1.05665 1.73097 0
M  V30 9794 C 928.348 -0.406615 1.89895 0
M  V30 9795 O 927.623 -1.30132 1.44554 0
M  V30 9796 C 927.906 1.77381 3.13382 0
M  V30 9797 C 927.759 3.31332 3.04203 0
M  V30 9798 C 929.078 1.52999 4.12649 0
M  V30 9799 H 926.197 0.385258 0.628288 0
M  V30 9800 H 928.839 1.51171 1.15097 0
M  V30 9801 H 926.989 1.38696 3.62899 0
M  V30 9802 H 928.661 3.79489 2.6227 0
M  V30 9803 H 926.904 3.60767 2.40894 0
M  V30 9804 H 927.575 3.76692 4.03493 0
M  V30 9805 H 930.051 1.86611 3.71908 0
M  V30 9806 H 928.927 2.05666 5.08913 0
M  V30 9807 H 929.188 0.463615 4.39662 0
M  V30 9808 N 928.247 -1.18576 1.03814 0
M  V30 9809 C 929.493 -1.88773 0.741132 0
M  V30 9810 C 929.826 -1.79993 -0.729127 0
M  V30 9811 O 929.101 -1.19851 -1.53186 0
M  V30 9812 C 929.384 -3.39352 1.20468 0
M  V30 9813 C 929.237 -3.56955 2.73684 0
M  V30 9814 C 930.556 -4.32901 0.792741 0
M  V30 9815 H 927.675 -0.685482 0.270708 0
M  V30 9816 H 930.317 -1.39523 1.2897 0
M  V30 9817 H 928.467 -3.81427 0.737974 0
M  V30 9818 H 930.139 -3.2399 3.28372 0
M  V30 9819 H 928.382 -2.99696 3.13632 0
M  V30 9820 H 929.053 -4.62598 3.01176 0
M  V30 9821 H 931.529 -3.98592 1.1943 0
M  V30 9822 H 930.405 -5.36828 1.14486 0
M  V30 9823 H 930.666 -4.41052 -0.304295 0
M  V30 9824 N 929.725 -0.817259 -1.34754 0
M  V30 9825 C 930.971 -0.403244 -1.98751 0
M  V30 9826 C 931.304 1.02963 -1.64658 0
M  V30 9827 O 930.579 1.71617 -0.915314 0
M  V30 9828 C 930.862 -0.599188 -3.5508 0
M  V30 9829 C 930.715 -2.07777 -3.98934 0
M  V30 9830 C 932.034 -0.0315656 -4.40089 0
M  V30 9831 H 929.153 -0.147988 -0.721989 0
M  V30 9832 H 931.795 -1.02877 -1.59738 0
M  V30 9833 H 929.945 -0.0667116 -3.88443 0
M  V30 9834 H 931.617 -2.67345 -3.75931 0
M  V30 9835 H 929.86 -2.57031 -3.49453 0
M  V30 9836 H 930.531 -2.16571 -5.07741 0
M  V30 9837 H 933.007 -0.48644 -4.13247 0
M  V30 9838 H 931.883 -0.198507 -5.48541 0
M  V30 9839 H 932.144 1.06302 -4.2913 0
M  V30 9840 N 931.203 1.46865 -0.571711 0
M  V30 9841 C 932.449 2.0273 -0.0531858 0
M  V30 9842 C 932.782 1.44353 1.29907 0
M  V30 9843 O 932.057 0.604488 1.84868 0
M  V30 9844 C 932.34 3.60092 0.0243831 0
M  V30 9845 C 932.193 4.28874 -1.35599 0
M  V30 9846 C 933.512 4.33994 0.730563 0
M  V30 9847 H 930.631 0.736706 -0.0208018 0
M  V30 9848 H 933.273 1.75132 -0.736794 0
M  V30 9849 H 931.423 3.83736 0.606565 0
M  V30 9850 H 933.095 4.16527 -1.98249 0
M  V30 9851 H 931.338 3.88664 -1.92674 0
M  V30 9852 H 932.009 5.37561 -1.25429 0
M  V30 9853 H 934.485 4.1543 0.236098 0
M  V30 9854 H 933.361 5.43699 0.753836 0
M  V30 9855 H 933.622 4.04257 1.78967 0
M  V30 9856 N 932.681 0.308908 1.54543 0
M  V30 9857 C 933.591 -0.572939 2.27496 0
M  V30 9858 C 934.607 -1.14171 1.31305 0
M  V30 9859 O 935.783 -1.16481 1.64299 0
M  V30 9860 C 932.848 -1.72483 3.0075 0
M  V30 9861 C 931.909 -1.18934 4.12496 0
M  V30 9862 C 931.142 -2.28634 4.82247 0
M  V30 9863 O 931.365 -3.48691 4.5141 0
M  V30 9864 O 930.299 -1.94879 5.69478 0
M  V30 9865 H 934.125 0.0190877 3.03694 0
M  V30 9866 H 931.71 0.0750943 1.49211 0
M  V30 9867 H 933.592 -2.39578 3.46671 0
M  V30 9868 H 932.267 -2.30332 2.2744 0
M  V30 9869 H 931.174 -0.483904 3.70957 0
M  V30 9870 H 932.507 -0.656185 4.87806 0
M  V30 9871 N 934.159 -1.57557 0.0367827 0
M  V30 9872 C 935.384 -1.96828 -0.653707 0
M  V30 9873 C 935.809 -0.913559 -1.64425 0
M  V30 9874 O 935.167 0.124749 -1.8087 0
M  V30 9875 C 935.215 -3.35189 -1.32969 0
M  V30 9876 O 934.319 -3.32095 -2.44513 0
M  V30 9877 H 933.66 -0.64157 -0.171124 0
M  V30 9878 H 936.19 -2.04351 0.100912 0
M  V30 9879 H 936.2 -3.71593 -1.68472 0
M  V30 9880 H 934.875 -4.11496 -0.603654 0
M  V30 9881 H 933.452 -3.07418 -2.11065 0
M  V30 9882 N 935.637 0.236453 -1.55816 0
M  V30 9883 C 936.883 0.964439 -1.784 0
M  V30 9884 C 937.216 1.84573 -0.603868 0
M  V30 9885 O 936.491 1.90395 0.397473 0
M  V30 9886 C 936.774 1.81608 -3.10951 0
M  V30 9887 C 936.627 0.962283 -4.39386 0
M  V30 9888 C 937.946 2.79665 -3.39817 0
M  V30 9889 H 935.065 0.349192 -0.649026 0
M  V30 9890 H 937.707 0.234247 -1.8855 0
M  V30 9891 H 935.857 2.43864 -3.02428 0
M  V30 9892 H 937.529 0.35762 -4.59912 0
M  V30 9893 H 935.772 0.267062 -4.32977 0
M  V30 9894 H 936.443 1.59222 -5.28538 0
M  V30 9895 H 938.919 2.27546 -3.4837 0
M  V30 9896 H 937.795 3.36367 -4.33761 0
M  V30 9897 H 938.056 3.56657 -2.61244 0
M  V30 9898 N 937.115 1.49373 0.502552 0
M  V30 9899 C 938.048 1.60529 1.6219 0
M  V30 9900 C 939.026 0.454431 1.56121 0
M  V30 9901 O 940.21 0.669768 1.762 0
M  V30 9902 C 937.337 1.55879 3.00698 0
M  V30 9903 C 936.383 2.76143 3.25034 0
M  V30 9904 S 937.216 4.37831 3.08325 0
M  V30 9905 C 938.372 4.35824 4.49231 0
M  V30 9906 H 938.605 2.55219 1.52482 0
M  V30 9907 H 936.138 1.38244 0.687594 0
M  V30 9908 H 938.096 1.53882 3.80566 0
M  V30 9909 H 936.757 0.624791 3.07823 0
M  V30 9910 H 935.95 2.69104 4.26144 0
M  V30 9911 H 935.552 2.75544 2.52886 0
M  V30 9912 H 937.844 4.07447 5.41288 0
M  V30 9913 H 938.787 5.37206 4.6132 0
M  V30 9914 H 939.195 3.65923 4.29838 0
M  V30 9915 O 938.632 -0.647824 1.47937 0
M  V30 9916 H 939.323 -1.30144 1.43465 0
M  V30 END ATOM
M  V30 BEGIN BOND
M  V30 END BOND
M  V30 END CTAB
M  END
$$$$
