drugbank_target|P23284 Peptidyl-prolyl cis-trans isomerase B (DB00172; DB04447)
 OpenBabel12092120093D

  0  0  0     0  0            999 V3000
M  V30 BEGIN CTAB
M  V30 COUNTS 3392 3426 0 0 0
M  V30 BEGIN ATOM
M  V30 1 H -0.908 1.98254 -0.117106 0
M  V30 2 N 0 1.576 0 0
M  V30 3 C 0.933 2.03868 1.02534 0
M  V30 4 C 1.911 0.928543 1.3348 0
M  V30 5 O 3.095 1.19667 1.45644 0
M  V30 6 C 0.222 2.43627 2.35294 0
M  V30 7 C -0.732 3.65373 2.2001 0
M  V30 8 S 0.101 5.13292 1.52614 0
M  V30 9 C 1.257 5.56322 2.86805 0
M  V30 10 H 1.49 2.90518 0.631377 0
M  V30 11 H -0.977 1.52953 0.210867 0
M  V30 12 H 0.981 2.67203 3.11629 0
M  V30 13 H -0.358 1.57376 2.7183 0
M  V30 14 H -1.165 3.90944 3.18086 0
M  V30 15 H -1.563 3.418 1.51819 0
M  V30 16 H 0.729 5.58782 3.83104 0
M  V30 17 H 1.672 6.56266 2.65933 0
M  V30 18 H 2.08 4.83886 2.90714 0
M  V30 19 N 1.4781 -0.272755 1.55222 0
M  V30 20 C 2.4081 -1.34136 1.91127 0
M  V30 21 C 3.3891 -1.51513 0.773168 0
M  V30 22 O 4.5741 -1.64552 1.03132 0
M  V30 23 C 1.7041 -2.70083 2.1834 0
M  V30 24 C 0.6581 -2.67437 3.34158 0
M  V30 25 C -0.0159 -4.06938 3.46851 0
M  V30 26 C 1.2841 -2.26686 4.70543 0
M  V30 27 H 2.9781 -1.04333 2.80633 0
M  V30 28 H 0.5241 -0.500454 1.35024 0
M  V30 29 H 2.4771 -3.44952 2.42046 0
M  V30 30 H 1.2011 -3.01469 1.25634 0
M  V30 31 H -0.1399 -1.95026 3.1042 0
M  V30 32 H -0.4919 -4.35547 2.51611 0
M  V30 33 H -0.7919 -4.06062 4.2472 0
M  V30 34 H 0.7321 -4.83545 3.72849 0
M  V30 35 H 2.1461 -2.91277 4.93792 0
M  V30 36 H 0.5431 -2.36971 5.5133 0
M  V30 37 H 1.6131 -1.21818 4.69349 0
M  V30 38 N 2.9562 -1.48159 -0.537278 0
M  V30 39 C 4.3722 -1.34118 -0.865129 0
M  V30 40 C 4.5722 -0.346678 -1.98495 0
M  V30 41 O 3.6282 0.234715 -2.51407 0
M  V30 42 C 4.9412 -2.73963 -1.23954 0
M  V30 43 C 6.4892 -2.82397 -1.34984 0
M  V30 44 C 6.9642 -4.22928 -1.75772 0
M  V30 45 N 8.4552 -4.25566 -1.82887 0
M  V30 46 C 9.1902 -5.31235 -2.15817 0
M  V30 47 N 8.6862 -6.47189 -2.47222 0
M  V30 48 N 10.4792 -5.18624 -2.16761 0
M  V30 49 H 2.6302 -2.1144 0.201715 0
M  V30 50 H 4.8932 -0.947598 0.0275949 0
M  V30 51 H 4.5992 -3.48264 -0.490381 0
M  V30 52 H 4.4732 -3.0702 -2.19132 0
M  V30 53 H 6.8602 -2.08356 -2.08978 0
M  V30 54 H 6.9412 -2.5297 -0.379448 0
M  V30 55 H 6.5852 -4.97482 -1.02341 0
M  V30 56 H 6.5152 -4.49794 -2.73848 0
M  V30 57 H 9.0062 -3.41924 -1.60924 0
M  V30 58 H 9.3192 -7.23564 -2.71433 0
M  V30 59 H 7.6642 -6.50476 -2.44757 0
M  V30 60 H 10.8552 -4.27056 -1.91679 0
M  V30 61 H 11.0282 -6.01078 -2.42093 0
M  V30 62 N 4.4343 0.785586 -1.36625 0
M  V30 63 C 5.3643 1.91259 -1.33949 0
M  V30 64 C 6.3453 1.68795 -0.210325 0
M  V30 65 O 7.5303 1.89854 -0.408561 0
M  V30 66 C 4.6603 3.28339 -1.13186 0
M  V30 67 C 3.6143 3.65335 -2.22967 0
M  V30 68 C 2.9403 5.00806 -1.87342 0
M  V30 69 C 4.2403 3.7352 -3.65075 0
M  V30 70 H 5.9343 1.93755 -2.28253 0
M  V30 71 H 3.4803 0.930788 -1.09874 0
M  V30 72 H 5.4333 4.06804 -1.09948 0
M  V30 73 H 4.1573 3.2624 -0.153332 0
M  V30 74 H 2.8163 2.89169 -2.25337 0
M  V30 75 H 2.4643 4.95233 -0.880545 0
M  V30 76 H 2.1643 5.26529 -2.60846 0
M  V30 77 H 3.6883 5.81687 -1.85667 0
M  V30 78 H 5.1023 4.42168 -3.64911 0
M  V30 79 H 3.4993 4.10731 -4.37516 0
M  V30 80 H 4.5693 2.74527 -3.99703 0
M  V30 81 N 5.9124 1.20967 1.01018 0
M  V30 82 C 7.1374 1.0503 1.78839 0
M  V30 83 C 7.5624 -0.395752 1.8389 0
M  V30 84 O 6.9204 -1.28529 1.27867 0
M  V30 85 C 6.9684 1.64602 3.2084 0
M  V30 86 O 6.0724 0.887988 4.02726 0
M  V30 87 H 5.4134 0.369987 0.551367 0
M  V30 88 H 7.9434 1.60399 1.27018 0
M  V30 89 H 7.9534 1.68607 3.71532 0
M  V30 90 H 6.6284 2.69841 3.16479 0
M  V30 91 H 5.2054 0.922648 3.61305 0
M  V30 92 N 7.3905 -1.2043 1.01659 0
M  V30 93 C 8.3005 -2.2689 0.596484 0
M  V30 94 C 9.3165 -1.70107 -0.36599 0
M  V30 95 O 10.4925 -2.00117 -0.226942 0
M  V30 96 C 7.5575 -3.4665 -0.0586659 0
M  V30 97 C 6.6185 -4.18662 0.949751 0
M  V30 98 C 5.8515 -5.32705 0.32577 0
M  V30 99 O 6.0745 -5.63656 -0.874509 0
M  V30 100 O 5.0085 -5.92803 1.04249 0
M  V30 101 H 8.8345 -2.65041 1.4828 0
M  V30 102 H 6.4195 -1.27048 0.786082 0
M  V30 103 H 8.3015 -4.19256 -0.424564 0
M  V30 104 H 6.9765 -3.10375 -0.91918 0
M  V30 105 H 5.8835 -3.48229 1.36702 0
M  V30 106 H 7.2165 -4.58878 1.78023 0
M  V30 107 N 8.8686 -0.792821 -1.36206 0
M  V30 108 C 10.2846 -0.474903 -1.52371 0
M  V30 109 C 10.4846 1.00622 -1.74578 0
M  V30 110 O 9.5406 1.79162 -1.77924 0
M  V30 111 C 10.8536 -1.3083 -2.70747 0
M  V30 112 C 12.4016 -1.30234 -2.84619 0
M  V30 113 C 12.8766 -2.11956 -4.06004 0
M  V30 114 N 14.3676 -2.09419 -4.13156 0
M  V30 115 C 15.1026 -2.69419 -5.06163 0
M  V30 116 N 14.5986 -3.3829 -6.04592 0
M  V30 117 N 16.3916 -2.59134 -4.98804 0
M  V30 118 H 8.5426 -1.75222 -1.20046 0
M  V30 119 H 10.8056 -0.745024 -0.586211 0
M  V30 120 H 10.5116 -2.35881 -2.6087 0
M  V30 121 H 10.3856 -0.95196 -3.6499 0
M  V30 122 H 12.7726 -0.259748 -2.93955 0
M  V30 123 H 12.8536 -1.69847 -1.91274 0
M  V30 124 H 12.4976 -3.16248 -3.97429 0
M  V30 125 H 12.4276 -1.69711 -4.98503 0
M  V30 126 H 14.9186 -1.59297 -3.42685 0
M  V30 127 H 15.2316 -3.81394 -6.7213 0
M  V30 128 H 13.5766 -3.42393 -6.04807 0
M  V30 129 H 16.7676 -2.04927 -4.20859 0
M  V30 130 H 16.9406 -3.06185 -5.711 0
M  V30 131 N 10.3467 1.47872 -0.545128 0
M  V30 132 C 11.2947 2.31533 0.222512 0
M  V30 133 C 12.2887 1.42177 0.920985 0
M  V30 134 O 13.4947 1.59005 0.843645 0
M  V30 135 H 9.8697 0.746519 0.0906278 0
M  V30 136 H 11.8407 2.94139 -0.50246 0
M  V30 137 C 10.5897 3.2457 1.24699 0
M  V30 138 H 9.9127 3.93283 0.718944 0
M  V30 139 H 11.3527 3.85963 1.75523 0
M  V30 140 C 9.8117 2.47237 2.28856 0
M  V30 141 O 10.3417 2.20808 3.35569 0
M  V30 142 N 8.5477 2.08461 2.02466 0
M  V30 143 H 8.0947 2.30155 1.157 0
M  V30 144 H 8.0527 1.57033 2.72375 0
M  V30 145 N 11.8248 0.280983 1.55075 0
M  V30 146 C 12.7578 -0.645439 2.18882 0
M  V30 147 C 13.7358 -1.14786 1.15165 0
M  V30 148 O 14.9198 -1.21975 1.43716 0
M  V30 149 C 12.0468 -1.88088 2.81674 0
M  V30 150 C 11.0928 -1.51343 3.98745 0
M  V30 151 S 11.9258 -0.586548 5.32278 0
M  V30 152 C 13.0818 -1.83024 5.98543 0
M  V30 153 H 13.3148 -0.1033 2.9712 0
M  V30 154 H 10.8478 0.0652099 1.54262 0
M  V30 155 H 12.8058 -2.58997 3.18482 0
M  V30 156 H 11.4668 -2.39417 2.03318 0
M  V30 157 H 10.6598 -2.43289 4.41392 0
M  V30 158 H 10.2618 -0.884477 3.63391 0
M  V30 159 H 12.5538 -2.77342 6.18133 0
M  V30 160 H 13.4968 -1.44668 6.93164 0
M  V30 161 H 13.9048 -1.99785 5.27964 0
M  V30 162 N 13.3029 -1.57598 0.00835791 0
M  V30 163 C 14.2499 -2.08945 -0.980346 0
M  V30 164 C 15.2199 -0.986738 -1.33614 0
M  V30 165 O 16.4049 -1.25968 -1.43306 0
M  V30 166 C 13.5449 -2.60425 -2.26435 0
M  V30 167 C 12.6579 -3.84628 -1.96685 0
M  V30 168 C 11.7929 -4.24579 -3.19228 0
M  V30 169 C 10.8319 -5.41596 -2.85202 0
M  V30 170 N 9.9689 -5.768 -4.00307 0
M  V30 171 H 14.8089 -2.93148 -0.535551 0
M  V30 172 H 12.3459 -1.44912 -0.252776 0
M  V30 173 H 14.3039 -2.88354 -3.01509 0
M  V30 174 H 12.9339 -1.79083 -2.68568 0
M  V30 175 H 11.9859 -3.63556 -1.11942 0
M  V30 176 H 13.2979 -4.69796 -1.67611 0
M  V30 177 H 12.4519 -4.53834 -4.02641 0
M  V30 178 H 11.1909 -3.38137 -3.51447 0
M  V30 179 H 10.1959 -5.12056 -2.00198 0
M  V30 180 H 11.4209 -6.29721 -2.54222 0
M  V30 181 H 9.3669 -4.93316 -4.32407 0
M  V30 182 H 9.2839 -6.5656 -3.74786 0
M  V30 183 H 10.5519 -6.10652 -4.84484 0
M  V30 184 N 14.781 0.264519 -1.55364 0
M  V30 185 C 16.027 0.99646 -1.76631 0
M  V30 186 C 16.36 1.85632 -0.570478 0
M  V30 187 O 15.635 1.89647 0.43175 0
M  V30 188 C 15.918 1.87187 -3.07625 0
M  V30 189 C 15.771 1.04138 -4.37579 0
M  V30 190 C 17.09 2.85749 -3.34717 0
M  V30 191 H 14.209 0.360841 -0.642622 0
M  V30 192 H 16.851 0.268218 -1.88097 0
M  V30 193 H 15.001 2.49279 -2.9798 0
M  V30 194 H 16.673 0.440517 -4.59192 0
M  V30 195 H 14.916 0.345115 -4.32425 0
M  V30 196 H 15.587 1.68729 -5.2558 0
M  V30 197 H 18.063 2.33793 -3.4421 0
M  V30 198 H 16.939 3.44136 -4.27623 0
M  V30 199 H 17.2 3.61311 -2.54768 0
M  V30 200 N 16.2591 1.48442 0.529413 0
M  V30 201 C 17.1891 1.65902 1.64313 0
M  V30 202 C 18.1701 0.507897 1.6234 0
M  V30 203 O 19.3551 0.740503 1.79528 0
M  V30 204 C 16.4851 1.69911 3.02898 0
M  V30 205 C 15.4391 2.8453 3.19729 0
M  V30 206 C 14.7651 2.73629 4.59381 0
M  V30 207 C 16.0651 4.25821 3.02447 0
M  V30 208 H 17.7591 2.5914 1.49955 0
M  V30 209 H 15.3051 1.24709 0.719982 0
M  V30 210 H 17.2581 1.80715 3.80684 0
M  V30 211 H 15.9821 0.732524 3.18279 0
M  V30 212 H 14.6411 2.73283 2.44361 0
M  V30 213 H 14.2891 1.74938 4.71599 0
M  V30 214 H 13.9891 3.50541 4.71588 0
M  V30 215 H 15.5131 2.86401 5.39265 0
M  V30 216 H 16.9271 4.37898 3.70024 0
M  V30 217 H 15.3241 5.03735 3.26146 0
M  V30 218 H 16.3941 4.42244 1.98867 0
M  V30 219 N 17.7372 -0.778329 1.37039 0
M  V30 220 C 18.6672 -1.90546 1.34962 0
M  V30 221 C 19.6482 -1.68681 0.219274 0
M  V30 222 O 20.8332 -1.89634 0.418624 0
M  V30 223 C 17.9632 -3.27734 1.14925 0
M  V30 224 C 16.9172 -3.64147 2.24902 0
M  V30 225 C 16.2432 -4.99806 1.89996 0
M  V30 226 C 17.5432 -3.71579 3.67051 0
M  V30 227 H 19.2372 -1.92541 2.29277 0
M  V30 228 H 16.7832 -0.924948 1.10366 0
M  V30 229 H 18.7362 -4.06215 1.12104 0
M  V30 230 H 17.4602 -3.26154 0.170631 0
M  V30 231 H 16.1192 -2.8797 2.26868 0
M  V30 232 H 15.7672 -4.94759 0.906796 0
M  V30 233 H 15.4672 -5.25139 2.63634 0
M  V30 234 H 16.9912 -5.80694 1.88749 0
M  V30 235 H 18.4052 -4.40227 3.67251 0
M  V30 236 H 16.8022 -4.08405 4.39688 0
M  V30 237 H 17.8722 -2.72404 4.01154 0
M  V30 238 N 19.2153 -1.21501 -1.00376 0
M  V30 239 C 20.1783 -0.976927 -2.07337 0
M  V30 240 C 21.1783 0.0525322 -1.60714 0
M  V30 241 O 22.3683 -0.184869 -1.73216 0
M  V30 242 C 19.5003 -0.473423 -3.37597 0
M  V30 243 H 20.6933 -1.92587 -2.29892 0
M  V30 244 H 18.2463 -1.03217 -1.17371 0
M  V30 245 H 18.9813 0.480379 -3.20722 0
M  V30 246 H 18.7663 -1.216 -3.72768 0
M  V30 247 H 20.2563 -0.32675 -4.1632 0
M  V30 248 N 20.6934 1.19889 -1.02296 0
M  V30 249 C 21.6564 2.21116 -0.603351 0
M  V30 250 C 22.6564 1.5738 0.329884 0
M  V30 251 O 23.8464 1.73802 0.117702 0
M  V30 252 C 20.9784 3.40696 0.117992 0
M  V30 253 H 22.1714 2.59754 -1.49893 0
M  V30 254 H 19.7244 1.33463 -0.813468 0
M  V30 255 H 20.4594 3.07569 1.0282 0
M  V30 256 H 20.2444 3.88188 -0.552511 0
M  V30 257 H 21.7344 4.15692 0.398696 0
M  V30 258 N 22.1715 0.800033 1.35784 0
M  V30 259 C 23.1345 0.211565 2.28221 0
M  V30 260 C 24.1345 -0.59728 1.49296 0
M  V30 261 O 25.3245 -0.416721 1.69142 0
M  V30 262 C 22.4565 -0.705846 3.33513 0
M  V30 263 H 23.6495 1.02677 2.81776 0
M  V30 264 H 21.2025 0.570211 1.45528 0
M  V30 265 H 21.9375 -1.54498 2.85133 0
M  V30 266 H 21.7225 -0.127655 3.91892 0
M  V30 267 H 23.2125 -1.11211 4.02519 0
M  V30 268 N 23.6496 -1.47581 0.552962 0
M  V30 269 C 24.5796 -2.32762 -0.185451 0
M  V30 270 C 25.5606 -1.43527 -0.912905 0
M  V30 271 O 26.7456 -1.72388 -0.894201 0
M  V30 272 C 23.8756 -3.25219 -1.21859 0
M  V30 273 C 22.8296 -4.23661 -0.607864 0
M  V30 274 C 22.1556 -5.05413 -1.74533 0
M  V30 275 C 23.4556 -5.20481 0.435582 0
M  V30 276 H 25.1496 -2.94749 0.525684 0
M  V30 277 H 22.6956 -1.41738 0.254251 0
M  V30 278 H 24.6486 -3.8365 -1.7433 0
M  V30 279 H 23.3726 -2.61279 -1.95961 0
M  V30 280 H 22.0316 -3.66451 -0.104489 0
M  V30 281 H 21.6796 -4.3788 -2.47529 0
M  V30 282 H 21.3796 -5.72059 -1.34249 0
M  V30 283 H 22.9036 -5.66701 -2.27338 0
M  V30 284 H 24.3176 -5.733 -0.00290157 0
M  V30 285 H 22.7146 -5.95305 0.757067 0
M  V30 286 H 23.7846 -4.66217 1.33303 0
M  V30 287 N 25.1277 -0.289203 -1.54924 0
M  V30 288 C 26.3767 0.324231 -1.99077 0
M  V30 289 C 26.6897 1.5591 -1.18117 0
M  V30 290 O 27.8957 2.24637 -1.52481 0
M  V30 291 C 26.3517 0.628209 -3.54375 0
M  V30 292 C 25.9597 -0.587647 -4.44129 0
M  V30 293 C 27.7037 1.20349 -4.07083 0
M  V30 294 C 25.6107 -0.257475 -5.90839 0
M  V30 295 H 24.5407 0.124924 -0.743579 0
M  V30 296 H 27.1917 -0.396063 -1.79175 0
M  V30 297 H 25.5737 1.40778 -3.70132 0
M  V30 298 H 26.7477 -1.36418 -4.40144 0
M  V30 299 H 25.0627 -1.08074 -4.0213 0
M  V30 300 H 27.6597 1.46456 -5.14252 0
M  V30 301 H 28.0027 2.14195 -3.56968 0
M  V30 302 H 28.5357 0.485889 -3.94821 0
M  V30 303 H 25.2747 -1.16419 -6.45079 0
M  V30 304 H 24.7947 0.482018 -5.9786 0
M  V30 305 H 26.4737 0.145238 -6.46837 0
M  V30 306 N 26.6058 1.57591 -0.0167156 0
M  V30 307 C 27.5688 2.08393 0.954204 0
M  V30 308 C 28.5688 0.996531 1.26198 0
M  V30 309 O 29.7588 1.25858 1.20438 0
M  V30 310 C 26.8908 2.5394 2.27436 0
M  V30 311 H 28.0838 2.95455 0.514451 0
M  V30 312 H 25.6368 1.54582 0.231089 0
M  V30 313 H 26.3718 1.70171 2.76066 0
M  V30 314 H 26.1568 3.33371 2.06412 0
M  V30 315 H 27.6468 2.93512 2.97053 0
M  V30 316 N 28.0839 -0.256276 1.55502 0
M  V30 317 C 29.3319 -0.983672 1.76545 0
M  V30 318 C 29.6529 -1.86206 0.578982 0
M  V30 319 O 28.9229 -1.91656 -0.405577 0
M  V30 320 H 27.5029 -0.366191 0.651086 0
M  V30 321 H 30.1649 -0.276479 1.92929 0
M  V30 322 H 29.2609 -1.61087 2.67315 0
M  V30 323 N 29.562 -1.4872 -0.521534 0
M  V30 324 C 30.787 -1.61101 -1.30618 0
M  V30 325 C 31.212 -0.274611 -1.86085 0
M  V30 326 O 30.57 0.754937 -1.64834 0
M  V30 327 C 30.618 -2.66709 -2.4269 0
M  V30 328 O 29.722 -2.24456 -3.45967 0
M  V30 329 H 29.063 -0.539921 -0.386499 0
M  V30 330 H 31.593 -1.94767 -0.626645 0
M  V30 331 H 31.603 -2.88245 -2.88754 0
M  V30 332 H 30.278 -3.63727 -2.01682 0
M  V30 333 H 28.855 -2.13168 -3.05964 0
M  V30 334 N 31.0401 0.771051 -1.3745 0
M  V30 335 C 32.2861 1.5319 -1.32894 0
M  V30 336 C 32.6191 1.94008 0.0862511 0
M  V30 337 O 31.8941 1.64124 1.04373 0
M  V30 338 C 32.1771 2.79648 -2.26868 0
M  V30 339 C 32.0301 2.45079 -3.77169 0
M  V30 340 C 33.3491 3.81583 -2.19277 0
M  V30 341 H 30.4681 0.555744 -0.484064 0
M  V30 342 H 33.1101 0.884492 -1.68157 0
M  V30 343 H 31.2601 3.34891 -1.96926 0
M  V30 344 H 32.9321 1.95745 -4.1771 0
M  V30 345 H 31.1751 1.77767 -3.95704 0
M  V30 346 H 31.8461 3.35478 -4.38359 0
M  V30 347 H 34.3221 3.35835 -2.45671 0
M  V30 348 H 33.1981 4.67787 -2.87171 0
M  V30 349 H 33.4591 4.25897 -1.18592 0
M  V30 350 N 32.5182 1.22032 0.997298 0
M  V30 351 C 33.7652 1.04222 1.73621 0
M  V30 352 C 34.0932 -0.423264 1.89839 0
M  V30 353 O 33.3482 -1.3302 1.43542 0
M  V30 354 C 33.6472 1.69345 3.14733 0
M  V30 355 C 33.3132 3.19226 3.18442 0
M  V30 356 C 31.9752 3.60124 3.19161 0
M  V30 357 C 34.3272 4.15181 3.15078 0
M  V30 358 C 31.6552 4.95467 3.14212 0
M  V30 359 C 34.0072 5.50495 3.1167 0
M  V30 360 C 32.6712 5.90779 3.10703 0
M  V30 361 H 31.9412 0.381374 0.635323 0
M  V30 362 H 34.5882 1.51732 1.16831 0
M  V30 363 H 32.8932 1.14147 3.74803 0
M  V30 364 H 34.5902 1.53059 3.7064 0
M  V30 365 H 31.1802 2.86659 3.18629 0
M  V30 366 H 35.3642 3.84605 3.13676 0
M  V30 367 H 30.6202 5.25916 3.11805 0
M  V30 368 H 34.7942 6.24576 3.08022 0
M  V30 369 H 32.4212 6.9562 3.06622 0
M  V30 370 N 33.9963 -1.19345 1.0293 0
M  V30 371 C 35.2433 -1.89038 0.726008 0
M  V30 372 C 35.5713 -1.79649 -0.745427 0
M  V30 373 O 34.8263 -1.18354 -1.55855 0
M  V30 374 C 35.1253 -3.39292 1.12319 0
M  V30 375 C 34.7913 -3.68885 2.59297 0
M  V30 376 C 33.4533 -3.76671 2.99453 0
M  V30 377 C 35.8053 -3.82178 3.54386 0
M  V30 378 C 33.1333 -3.9522 4.33611 0
M  V30 379 C 35.4853 -4.0224 4.88248 0
M  V30 380 C 34.1493 -4.08259 5.28092 0
M  V30 381 H 33.4193 -0.691739 0.265665 0
M  V30 382 H 36.0663 -1.41328 1.29223 0
M  V30 383 H 34.3713 -3.88903 0.475584 0
M  V30 384 H 36.0683 -3.91536 0.866037 0
M  V30 385 H 32.6583 -3.63433 2.27189 0
M  V30 386 H 36.8423 -3.75505 3.24514 0
M  V30 387 H 32.0983 -3.98119 4.64016 0
M  V30 388 H 36.2723 -4.11468 5.61843 0
M  V30 389 H 33.8993 -4.22384 6.32057 0
M  V30 390 N 35.4744 -0.807222 -1.35358 0
M  V30 391 C 36.4044 -0.232509 -2.3234 0
M  V30 392 C 37.3854 0.642386 -1.57504 0
M  V30 393 O 38.5704 0.572526 -1.85569 0
M  V30 394 C 35.7004 0.619238 -3.41735 0
M  V30 395 C 34.6544 -0.157215 -4.27711 0
M  V30 396 C 33.9804 0.816273 -5.28433 0
M  V30 397 C 35.2804 -1.35656 -5.04376 0
M  V30 398 H 36.9744 -1.04276 -2.80654 0
M  V30 399 H 34.5204 -0.50288 -1.34934 0
M  V30 400 H 36.4734 1.03137 -4.08584 0
M  V30 401 H 35.1974 1.46239 -2.92031 0
M  V30 402 H 33.8564 -0.550525 -3.62443 0
M  V30 403 H 33.5044 1.65494 -4.74996 0
M  V30 404 H 33.2044 0.301067 -5.86828 0
M  V30 405 H 34.7284 1.22659 -5.98153 0
M  V30 406 H 36.1424 -1.01927 -5.64166 0
M  V30 407 H 34.5394 -1.8063 -5.7227 0
M  V30 408 H 35.6094 -2.14288 -4.34981 0
M  V30 409 N 36.9525 1.47285 -0.560781 0
M  V30 410 C 37.8825 2.32857 0.173105 0
M  V30 411 C 38.8635 1.44009 0.905281 0
M  V30 412 O 40.0485 1.7286 0.885046 0
M  V30 413 C 37.1785 3.25861 1.20133 0
M  V30 414 C 36.1325 4.23978 0.585388 0
M  V30 415 C 35.4585 5.06332 1.7185 0
M  V30 416 C 36.7585 5.20242 -0.463178 0
M  V30 417 H 38.4525 2.94466 -0.541307 0
M  V30 418 H 35.9985 1.41601 -0.261764 0
M  V30 419 H 37.9515 3.84569 1.72293 0
M  V30 420 H 36.6755 2.62315 1.94573 0
M  V30 421 H 35.3345 3.66501 0.085054 0
M  V30 422 H 34.9825 4.39186 2.45203 0
M  V30 423 H 34.6825 5.72762 1.31213 0
M  V30 424 H 36.2065 5.67899 2.24329 0
M  V30 425 H 37.6205 5.73293 -0.027502 0
M  V30 426 H 36.0175 5.94896 -0.788627 0
M  V30 427 H 37.0875 4.65504 -1.35773 0
M  V30 428 N 38.4306 0.297415 1.54768 0
M  V30 429 C 39.3606 -0.573494 2.26348 0
M  V30 430 C 40.3416 -1.14085 1.26169 0
M  V30 431 O 41.5266 -1.17086 1.54934 0
M  V30 432 C 38.6566 -1.74716 3.00153 0
M  V30 433 C 37.6106 -1.31032 4.07449 0
M  V30 434 C 36.9366 -2.56887 4.68949 0
M  V30 435 C 38.2366 -0.444183 5.20408 0
M  V30 436 H 39.9306 0.0235131 2.99391 0
M  V30 437 H 37.4766 0.0127488 1.43994 0
M  V30 438 H 39.4296 -2.3625 3.48947 0
M  V30 439 H 38.1536 -2.37035 2.24682 0
M  V30 440 H 36.8126 -0.718066 3.59499 0
M  V30 441 H 36.4606 -3.17512 3.90122 0
M  V30 442 H 36.1606 -2.2836 5.41411 0
M  V30 443 H 37.6846 -3.19229 5.20505 0
M  V30 444 H 39.0986 -0.9651 5.65118 0
M  V30 445 H 37.4956 -0.252846 5.99567 0
M  V30 446 H 38.5656 0.531609 4.81977 0
M  V30 447 N 39.9087 -1.5758 0.0250728 0
M  V30 448 C 41.3197 -1.79476 -0.514323 0
M  V30 449 C 41.6707 -0.934956 -1.72491 0
M  V30 450 O 40.7957 -0.144245 -2.15919 0
M  V30 451 C 41.3907 -3.25503 -0.939842 0
M  V30 452 C 39.9497 -3.48408 -1.42438 0
M  V30 453 C 39.0967 -2.74583 -0.387201 0
M  V30 454 H 42.0477 -1.567 0.25113 0
M  V30 455 H 42.0687 -3.34992 -1.80445 0
M  V30 456 H 41.5807 -3.88056 -0.0585628 0
M  V30 457 H 39.6817 -2.91103 -2.32572 0
M  V30 458 H 39.7947 -4.57119 -1.43455 0
M  V30 459 H 38.1587 -2.39942 -0.854409 0
M  V30 460 H 38.9417 -3.39849 0.485543 0
M  V30 461 N 41.3868 0.248026 -1.55636 0
M  V30 462 C 42.6348 0.974295 -1.77065 0
M  V30 463 C 42.9558 1.85897 -0.588849 0
M  V30 464 O 42.2258 1.91868 0.395407 0
M  V30 465 H 40.8058 0.362733 -0.653019 0
M  V30 466 H 43.4678 0.266244 -1.93073 0
M  V30 467 H 42.5638 1.59667 -2.68166 0
M  V30 468 N 42.8649 1.48995 0.513639 0
M  V30 469 C 44.2759 1.5119 1.09537 0
M  V30 470 C 44.6269 0.290906 1.94031 0
M  V30 471 O 43.7519 -0.60049 2.07902 0
M  V30 472 C 44.3469 2.73964 1.99322 0
M  V30 473 C 42.9059 2.78978 2.52682 0
M  V30 474 C 42.0529 2.44934 1.30009 0
M  V30 475 H 45.0039 1.55875 0.298125 0
M  V30 476 H 45.0249 2.53409 2.83838 0
M  V30 477 H 44.5369 3.62813 1.37799 0
M  V30 478 H 42.6379 1.94378 3.1788 0
M  V30 479 H 42.7509 3.8083 2.90698 0
M  V30 480 H 41.1149 1.9644 1.62122 0
M  V30 481 H 41.8979 3.36043 0.702131 0
M  V30 482 N 44.343 -0.763751 1.37857 0
M  V30 483 C 45.568 -1.55805 1.36893 0
M  V30 484 C 45.993 -1.88054 -0.0416135 0
M  V30 485 O 45.351 -1.49825 -1.02089 0
M  V30 486 C 45.399 -2.84012 2.22192 0
M  V30 487 O 44.503 -3.78732 1.63204 0
M  V30 488 H 43.844 -0.471638 0.46739 0
M  V30 489 H 46.374 -0.944657 1.81487 0
M  V30 490 H 46.384 -3.33037 2.35691 0
M  V30 491 H 45.059 -2.59869 3.24716 0
M  V30 492 H 43.636 -3.37402 1.58791 0
M  V30 493 N 45.8211 -1.22559 -0.990812 0
M  V30 494 C 46.7841 -0.998863 -2.0629 0
M  V30 495 C 47.7841 0.0354834 -1.60761 0
M  V30 496 O 48.9741 -0.203231 -1.7301 0
M  V30 497 C 46.1061 -0.509203 -3.37076 0
M  V30 498 H 47.2991 -1.95014 -2.27837 0
M  V30 499 H 44.8521 -1.04456 -1.16269 0
M  V30 500 H 45.5871 0.446335 -3.21214 0
M  V30 501 H 45.3721 -1.25547 -3.71457 0
M  V30 502 H 46.8621 -0.370888 -4.1595 0
M  V30 503 N 47.2992 1.18797 -1.03562 0
M  V30 504 C 48.2622 2.20464 -0.626769 0
M  V30 505 C 49.2622 1.57721 0.313173 0
M  V30 506 O 50.4522 1.73917 0.0992615 0
M  V30 507 C 47.5842 3.40802 0.0818498 0
M  V30 508 H 48.7772 2.58149 -1.5264 0
M  V30 509 H 46.3302 1.32593 -0.827578 0
M  V30 510 H 47.0652 3.08642 0.995518 0
M  V30 511 H 46.8502 3.8758 -0.593652 0
M  V30 512 H 48.3402 4.16092 0.354584 0
M  V30 513 N 48.7773 0.814389 1.34928 0
M  V30 514 C 50.0543 0.321363 1.92942 0
M  V30 515 C 50.4343 -1.19014 1.74353 0
M  V30 516 O 49.7823 -1.99328 1.11716 0
M  V30 517 C 49.9923 0.741323 3.41036 0
M  V30 518 C 51.3403 0.735266 4.18185 0
M  V30 519 O 52.3643 0.68336 3.49584 0
M  V30 520 O 51.2233 0.800703 5.40602 0
M  V30 521 H 48.3173 0.0858893 0.822528 0
M  V30 522 H 50.8633 0.898609 1.43955 0
M  V30 523 H 49.6353 1.78276 3.4833 0
M  V30 524 H 49.2583 0.139307 3.97356 0
M  V30 525 N 50.2554 -1.46986 0.568584 0
M  V30 526 C 51.1654 -2.33942 -0.17555 0
M  V30 527 C 52.1814 -1.48891 -0.90041 0
M  V30 528 O 53.3574 -1.81794 -0.86676 0
M  V30 529 C 50.4224 -3.25811 -1.18524 0
M  V30 530 C 49.4834 -4.26757 -0.466582 0
M  V30 531 C 48.7164 -5.14236 -1.42817 0
M  V30 532 O 48.9394 -5.04379 -2.66379 0
M  V30 533 O 47.8734 -5.94412 -0.946453 0
M  V30 534 H 51.6994 -2.98896 0.538036 0
M  V30 535 H 49.2844 -1.4573 0.329097 0
M  V30 536 H 51.1664 -3.82527 -1.76779 0
M  V30 537 H 49.8414 -2.63471 -1.88055 0
M  V30 538 H 48.7484 -3.73769 0.157451 0
M  V30 539 H 50.0814 -4.91843 0.187485 0
M  V30 540 N 51.7335 -0.305618 -1.54608 0
M  V30 541 C 52.6805 0.568421 -2.23691 0
M  V30 542 C 53.6505 1.12592 -1.22116 0
M  V30 543 O 54.8355 1.16959 -1.50749 0
M  V30 544 C 51.9755 1.7322 -2.98477 0
M  V30 545 C 51.0885 1.20566 -4.14835 0
M  V30 546 C 50.2235 2.33368 -4.77193 0
M  V30 547 C 49.2625 1.7787 -5.85686 0
M  V30 548 N 48.3995 2.84263 -6.4198 0
M  V30 549 H 53.2395 -0.0272867 -2.97988 0
M  V30 550 H 50.7765 -0.0252363 -1.47078 0
M  V30 551 H 52.7345 2.41675 -3.40072 0
M  V30 552 H 51.3645 2.29947 -2.26548 0
M  V30 553 H 50.4165 0.413223 -3.78149 0
M  V30 554 H 51.7285 0.759417 -4.92985 0
M  V30 555 H 50.8825 3.09761 -5.21664 0
M  V30 556 H 49.6215 2.8132 -3.98385 0
M  V30 557 H 48.6265 0.99968 -5.40635 0
M  V30 558 H 49.8515 1.30816 -6.66381 0
M  V30 559 H 47.7975 3.31541 -5.66053 0
M  V30 560 H 47.7145 2.44149 -7.15491 0
M  V30 561 H 48.9825 3.6054 -6.91109 0
M  V30 562 N 53.2116 1.57565 -0.0334293 0
M  V30 563 C 54.1586 2.10478 0.946981 0
M  V30 564 C 55.1286 1.00787 1.32027 0
M  V30 565 O 56.3136 1.28232 1.41284 0
M  V30 566 C 53.4536 2.63994 2.22263 0
M  V30 567 C 52.5666 3.87709 1.90541 0
M  V30 568 C 51.7016 4.29604 3.12433 0
M  V30 569 C 50.7406 5.46065 2.76549 0
M  V30 570 N 49.8776 5.83096 3.9108 0
M  V30 571 H 54.7176 2.93963 0.488846 0
M  V30 572 H 52.2546 1.45296 0.22969 0
M  V30 573 H 54.2126 2.93114 2.96884 0
M  V30 574 H 52.8426 1.83333 2.65685 0
M  V30 575 H 51.8946 3.65291 1.06144 0
M  V30 576 H 53.2066 4.72403 1.60116 0
M  V30 577 H 52.3606 4.60182 3.9537 0
M  V30 578 H 51.0996 3.43685 3.46023 0
M  V30 579 H 50.1046 5.15176 1.92026 0
M  V30 580 H 51.3296 6.33685 2.44171 0
M  V30 581 H 49.2756 5.00132 4.24504 0
M  V30 582 H 49.1926 6.6244 3.64293 0
M  V30 583 H 50.4606 6.18282 4.74708 0
M  V30 584 N 54.6897 -0.239769 1.55765 0
M  V30 585 C 55.6367 -1.29696 1.90913 0
M  V30 586 C 56.6067 -1.47478 0.764164 0
M  V30 587 O 57.7917 -1.61345 1.01845 0
M  V30 588 C 54.9317 -2.64598 2.21544 0
M  V30 589 C 54.0447 -2.54765 3.48882 0
M  V30 590 C 53.1797 -3.82069 3.69049 0
M  V30 591 C 52.2187 -3.66883 4.89963 0
M  V30 592 N 51.3557 -4.86094 5.06614 0
M  V30 593 H 56.1957 -0.990224 2.81067 0
M  V30 594 H 53.7327 -0.477684 1.39128 0
M  V30 595 H 55.6907 -3.43132 2.3731 0
M  V30 596 H 54.3207 -2.93405 1.34585 0
M  V30 597 H 53.3727 -1.67763 3.41409 0
M  V30 598 H 54.6847 -2.39457 4.37563 0
M  V30 599 H 53.8387 -4.69046 3.84812 0
M  V30 600 H 52.5777 -4.00282 2.78614 0
M  V30 601 H 51.5827 -2.78289 4.74168 0
M  V30 602 H 52.8077 -3.50157 5.81865 0
M  V30 603 H 50.7537 -5.04655 4.19117 0
M  V30 604 H 50.6707 -4.73443 5.89396 0
M  V30 605 H 51.9387 -5.74549 5.26795 0
M  V30 606 N 56.1678 -1.49265 -0.50573 0
M  V30 607 C 57.4158 -1.582 -1.25766 0
M  V30 608 C 57.7368 -0.268482 -1.93143 0
M  V30 609 O 57.0068 0.711833 -1.8251 0
M  V30 610 H 55.5868 -0.582873 -0.467191 0
M  V30 611 H 58.2488 -1.85865 -0.586525 0
M  V30 612 H 57.3448 -2.37563 -2.02412 0
M  V30 613 N 57.6459 0.756429 -1.3826 0
M  V30 614 C 59.0569 1.33359 -1.30661 0
M  V30 615 C 59.4079 1.96161 0.0388875 0
M  V30 616 O 58.5329 1.94874 0.940918 0
M  V30 617 C 59.1279 2.42477 -2.36622 0
M  V30 618 C 57.6869 2.95922 -2.3261 0
M  V30 619 C 56.8339 1.69275 -2.19639 0
M  V30 620 H 59.7849 0.55552 -1.4866 0
M  V30 621 H 59.8059 3.22345 -2.02174 0
M  V30 622 H 59.3179 1.96739 -3.34538 0
M  V30 623 H 57.4189 3.45996 -1.38267 0
M  V30 624 H 57.5319 3.50494 -3.26636 0
M  V30 625 H 55.8959 1.92793 -1.66442 0
M  V30 626 H 56.6789 1.25619 -3.19491 0
M  V30 627 N 59.124 1.23083 0.984299 0
M  V30 628 C 60.071 1.00854 2.07598 0
M  V30 629 C 61.041 -0.0726709 1.65941 0
M  V30 630 O 62.226 0.0786535 1.90638 0
M  V30 631 C 59.366 0.601645 3.39815 0
M  V30 632 C 58.479 1.75456 3.94765 0
M  V30 633 C 57.614 1.29482 5.15177 0
M  V30 634 C 56.653 2.41873 5.62284 0
M  V30 635 N 55.79 1.96885 6.73929 0
M  V30 636 H 60.63 1.943 2.25946 0
M  V30 637 H 58.167 0.968001 1.10762 0
M  V30 638 H 60.125 0.346854 4.15756 0
M  V30 639 H 58.755 -0.295803 3.21442 0
M  V30 640 H 57.807 2.12346 3.15616 0
M  V30 641 H 59.119 2.59965 4.25699 0
M  V30 642 H 58.273 0.997923 5.98437 0
M  V30 643 H 57.012 0.420046 4.85888 0
M  V30 644 H 56.017 2.72342 4.77608 0
M  V30 645 H 57.242 3.29881 5.93595 0
M  V30 646 H 55.188 1.11782 6.46406 0
M  V30 647 H 55.105 2.74956 7.04227 0
M  V30 648 H 56.373 1.70289 7.60672 0
M  V30 649 N 60.6021 -1.18246 1.0419 0
M  V30 650 C 61.8481 -1.88536 0.747122 0
M  V30 651 C 62.1811 -1.80223 -0.723409 0
M  V30 652 O 61.4561 -1.20337 -1.52804 0
M  V30 653 C 61.7391 -3.38968 1.21544 0
M  V30 654 C 61.5921 -3.56084 2.74816 0
M  V30 655 C 62.9111 -4.32648 0.806482 0
M  V30 656 H 60.0301 -0.684619 0.272883 0
M  V30 657 H 62.6721 -1.39113 1.29413 0
M  V30 658 H 60.8221 -3.8119 0.750081 0
M  V30 659 H 62.4941 -3.22946 3.29399 0
M  V30 660 H 60.7371 -2.98699 3.14582 0
M  V30 661 H 61.4081 -4.61639 3.02644 0
M  V30 662 H 63.8841 -3.98211 1.20695 0
M  V30 663 H 62.7601 -5.36462 1.1619 0
M  V30 664 H 63.0211 -4.41146 -0.29029 0
M  V30 665 N 62.0802 -0.821533 -1.34494 0
M  V30 666 C 63.3082 -0.421884 -2.02553 0
M  V30 667 C 63.7232 0.971745 -1.61872 0
M  V30 668 O 63.0802 1.62864 -0.823496 0
M  V30 669 C 63.1312 -0.51285 -3.57844 0
M  V30 670 O 62.8522 -1.85155 -3.97051 0
M  V30 671 C 64.3532 -0.107921 -4.43169 0
M  V30 672 H 61.5732 -0.169482 -0.649243 0
M  V30 673 H 64.1172 -1.1093 -1.71798 0
M  V30 674 H 62.2722 0.126474 -3.87193 0
M  V30 675 H 62.6862 -1.82482 -4.91732 0
M  V30 676 H 64.1602 -0.222657 -5.51551 0
M  V30 677 H 64.6372 0.948401 -4.28838 0
M  V30 678 H 65.2432 -0.720989 -4.19144 0
M  V30 679 N 63.5583 1.46682 -0.576371 0
M  V30 680 C 64.8043 2.02712 -0.0596221 0
M  V30 681 C 65.1373 1.44765 1.29448 0
M  V30 682 O 64.4123 0.610355 1.84675 0
M  V30 683 C 64.6953 3.60098 0.0129503 0
M  V30 684 C 64.5483 4.28441 -1.3696 0
M  V30 685 C 65.8673 4.34224 0.71678 0
M  V30 686 H 62.9863 0.736637 -0.0231407 0
M  V30 687 H 65.6283 1.74898 -0.742351 0
M  V30 688 H 63.7783 3.83926 0.594378 0
M  V30 689 H 65.4503 4.15896 -1.9957 0
M  V30 690 H 63.6933 3.8805 -1.93907 0
M  V30 691 H 64.3643 5.3716 -1.27135 0
M  V30 692 H 66.8403 4.15503 0.222908 0
M  V30 693 H 65.7163 5.43936 0.73657 0
M  V30 694 H 65.9773 4.04823 1.77682 0
M  V30 695 N 65.0364 0.313813 1.54444 0
M  V30 696 C 65.9834 -0.55655 2.23989 0
M  V30 697 C 66.9534 -1.11943 1.22711 0
M  V30 698 O 68.1384 -1.16158 1.51367 0
M  V30 699 C 65.2784 -1.71635 2.99392 0
M  V30 700 C 64.3914 -1.18364 4.15468 0
M  V30 701 C 63.5264 -2.30834 4.78424 0
M  V30 702 C 62.5654 -1.74762 5.86622 0
M  V30 703 N 61.7024 -2.80855 6.43479 0
M  V30 704 H 66.5424 0.0430893 2.97969 0
M  V30 705 H 64.0794 0.0330359 1.47063 0
M  V30 706 H 66.0374 -2.39868 3.41349 0
M  V30 707 H 64.6674 -2.28742 2.27765 0
M  V30 708 H 63.7194 -0.393163 3.78363 0
M  V30 709 H 65.0314 -0.733262 4.93381 0
M  V30 710 H 64.1854 -3.0699 5.23299 0
M  V30 711 H 62.9244 -2.79204 3.99871 0
M  V30 712 H 61.9294 -0.970995 5.41158 0
M  V30 713 H 63.1544 -1.2728 6.67066 0
M  V30 714 H 61.1004 -3.28535 5.67804 0
M  V30 715 H 61.0174 -2.40351 7.16776 0
M  V30 716 H 62.2854 -3.5687 6.93011 0
M  V30 717 N 66.5145 -1.57545 0.0417849 0
M  V30 718 C 67.7605 -1.92601 -0.635021 0
M  V30 719 C 68.0935 -0.919627 -1.71045 0
M  V30 720 O 67.3685 0.0557892 -1.9442 0
M  V30 721 C 67.6515 -3.38085 -1.23979 0
M  V30 722 C 67.5045 -4.49467 -0.173057 0
M  V30 723 C 68.8235 -3.83776 -2.15416 0
M  V30 724 H 65.9425 -0.700397 -0.229374 0
M  V30 725 H 68.5845 -1.89728 0.101633 0
M  V30 726 H 66.7345 -3.40664 -1.86762 0
M  V30 727 H 68.4065 -4.59018 0.458312 0
M  V30 728 H 66.6495 -4.30909 0.499996 0
M  V30 729 H 67.3205 -5.48323 -0.636054 0
M  V30 730 H 69.7965 -3.83013 -1.62605 0
M  V30 731 H 68.6725 -4.8624 -2.54679 0
M  V30 732 H 68.9335 -3.19998 -3.05047 0
M  V30 733 N 67.9926 0.231505 -1.5589 0
M  V30 734 C 69.2226 0.973092 -1.82248 0
M  V30 735 C 69.6306 1.78845 -0.617328 0
M  V30 736 O 68.9736 1.78752 0.423499 0
M  V30 737 C 69.0356 1.94732 -3.02192 0
M  V30 738 C 68.6996 1.31743 -4.37599 0
M  V30 739 C 69.6966 0.712238 -5.14998 0
M  V30 740 C 67.3816 1.33218 -4.84312 0
M  V30 741 C 69.3756 0.130195 -6.37267 0
M  V30 742 C 67.0626 0.746286 -6.06526 0
M  V30 743 C 68.0606 0.146337 -6.82843 0
M  V30 744 O 67.7486 -0.430465 -8.02747 0
M  V30 745 H 67.4806 0.29125 -0.61004 0
M  V30 746 H 70.0346 0.254915 -2.03812 0
M  V30 747 H 68.2646 2.70422 -2.76422 0
M  V30 748 H 69.9536 2.55362 -3.15508 0
M  V30 749 H 70.7196 0.69324 -4.8002 0
M  V30 750 H 66.5986 1.78854 -4.24891 0
M  V30 751 H 70.1426 -0.33871 -6.96777 0
M  V30 752 H 66.0396 0.762663 -6.40979 0
M  V30 753 H 66.8076 -0.323818 -8.17859 0
M  V30 754 N 69.4707 1.49531 0.497807 0
M  V30 755 C 70.7177 1.59179 1.25173 0
M  V30 756 C 71.0457 0.279932 1.92475 0
M  V30 757 O 70.3007 -0.732383 1.81479 0
M  V30 758 C 70.5997 2.70252 2.33878 0
M  V30 759 C 70.2657 4.11644 1.84012 0
M  V30 760 C 68.9277 4.50121 1.70132 0
M  V30 761 C 71.2797 5.00121 1.46725 0
M  V30 762 C 68.6077 5.74845 1.17348 0
M  V30 763 C 70.9597 6.25366 0.95392 0
M  V30 764 C 69.6237 6.6267 0.801538 0
M  V30 765 H 68.8937 0.582478 0.45804 0
M  V30 766 H 71.5407 1.83373 0.551948 0
M  V30 767 H 69.8457 2.40041 3.09657 0
M  V30 768 H 71.5427 2.74925 2.9192 0
M  V30 769 H 68.1327 3.81274 1.95775 0
M  V30 770 H 72.3167 4.71048 1.56294 0
M  V30 771 H 67.5727 6.02444 1.04264 0
M  V30 772 H 71.7467 6.93301 0.656225 0
M  V30 773 H 69.3737 7.59197 0.390351 0
M  V30 774 N 70.9488 -0.749086 1.3866 0
M  V30 775 C 72.2258 -1.4992 1.25632 0
M  V30 776 C 72.6058 -2.10633 -0.140317 0
M  V30 777 O 71.9538 -1.97437 -1.15025 0
M  V30 778 C 72.1638 -2.56195 2.36992 0
M  V30 779 C 73.5118 -3.22972 2.75634 0
M  V30 780 O 74.5358 -2.66502 2.36337 0
M  V30 781 O 73.3948 -4.25122 3.43415 0
M  V30 782 H 70.4888 -0.665067 0.491544 0
M  V30 783 H 73.0348 -0.784113 1.50498 0
M  V30 784 H 71.8068 -2.09612 3.30422 0
M  V30 785 H 71.4298 -3.35279 2.13714 0
M  V30 786 N 72.4269 -1.23603 -0.977757 0
M  V30 787 C 73.3569 -1.04401 -2.0886 0
M  V30 788 C 74.3379 0.0399052 -1.70053 0
M  V30 789 O 75.5229 -0.125246 -1.93796 0
M  V30 790 C 72.6529 -0.637269 -3.41403 0
M  V30 791 C 71.6069 -1.66883 -3.94124 0
M  V30 792 C 70.9329 -1.11745 -5.22893 0
M  V30 793 C 72.2329 -3.06247 -4.23096 0
M  V30 794 H 73.9269 -1.97316 -2.25182 0
M  V30 795 H 71.4729 -0.950096 -1.08209 0
M  V30 796 H 73.4259 -0.48998 -4.18542 0
M  V30 797 H 72.1499 0.327557 -3.24953 0
M  V30 798 H 70.8089 -1.80416 -3.19133 0
M  V30 799 H 70.4569 -0.143527 -5.02795 0
M  V30 800 H 70.1569 -1.80672 -5.59134 0
M  V30 801 H 71.6809 -0.982067 -6.02651 0
M  V30 802 H 73.0949 -2.96001 -4.90975 0
M  V30 803 H 71.4919 -3.72436 -4.70544 0
M  V30 804 H 72.5619 -3.55041 -3.30263 0
M  V30 805 N 73.905 1.17692 -1.04816 0
M  V30 806 C 75.321 1.39863 -0.768794 0
M  V30 807 C 75.521 1.91118 0.638451 0
M  V30 808 O 74.577 2.10036 1.40146 0
M  V30 809 C 75.89 2.39274 -1.82122 0
M  V30 810 C 77.438 2.52987 -1.843 0
M  V30 811 C 77.913 3.55669 -2.88555 0
M  V30 812 N 79.404 3.63183 -2.87493 0
M  V30 813 C 80.139 4.42381 -3.64811 0
M  V30 814 N 79.635 5.25125 -4.51903 0
M  V30 815 N 81.428 4.37217 -3.53267 0
M  V30 816 H 73.579 0.82752 -1.95617 0
M  V30 817 H 75.842 0.426123 -0.846831 0
M  V30 818 H 75.548 2.08678 -2.83102 0
M  V30 819 H 75.422 3.38725 -1.65967 0
M  V30 820 H 77.809 2.82896 -0.839869 0
M  V30 821 H 77.89 1.53623 -2.04532 0
M  V30 822 H 77.534 3.26499 -3.89051 0
M  V30 823 H 77.464 4.54728 -2.65575 0
M  V30 824 H 79.955 3.04103 -2.24343 0
M  V30 825 H 80.268 5.82728 -5.07591 0
M  V30 826 H 78.613 5.24519 -4.55966 0
M  V30 827 H 81.804 3.71626 -2.84625 0
M  V30 828 H 81.977 4.98696 -4.13771 0
M  V30 829 N 75.3831 0.828654 1.34056 0
M  V30 830 C 76.6321 0.415828 1.97367 0
M  V30 831 C 76.9451 -1.02796 1.6641 0
M  V30 832 O 78.1511 -1.54497 2.23255 0
M  V30 833 C 76.6071 0.692601 3.53173 0
M  V30 834 C 76.2151 2.15038 3.93017 0
M  V30 835 C 77.9591 0.346222 4.23086 0
M  V30 836 C 75.8661 2.37174 5.41758 0
M  V30 837 H 74.7961 0.151755 0.738571 0
M  V30 838 H 77.4471 1.01581 1.52819 0
M  V30 839 H 75.8291 0.0223764 3.95994 0
M  V30 840 H 77.0031 2.86024 3.61285 0
M  V30 841 H 75.3181 2.45875 3.36057 0
M  V30 842 H 77.9151 0.48937 5.32456 0
M  V30 843 H 78.2581 -0.709842 4.10204 0
M  V30 844 H 78.7911 0.971258 3.85761 0
M  V30 845 H 75.5301 3.41308 5.59633 0
M  V30 846 H 75.0501 1.70738 5.74986 0
M  V30 847 H 76.7291 2.19818 6.08514 0
M  V30 848 N 76.8612 -1.46375 0.584142 0
M  V30 849 C 78.1092 -2.01978 0.0701287 0
M  V30 850 C 78.4302 -1.4579 -1.295 0
M  V30 851 O 77.7002 -0.64314 -1.85042 0
M  V30 852 H 76.2802 -0.746648 0.0229345 0
M  V30 853 H 78.9422 -1.79461 0.760245 0
M  V30 854 H 78.0382 -3.121 0.0022064 0
M  V30 855 N 78.3393 -0.321999 -1.54275 0
M  V30 856 C 79.6163 0.335232 -1.92706 0
M  V30 857 C 79.9963 1.70006 -1.25145 0
M  V30 858 O 79.3443 2.25067 -0.394596 0
M  V30 859 C 79.5543 0.429008 -3.46353 0
M  V30 860 C 80.9023 0.690029 -4.18956 0
M  V30 861 O 81.9263 0.511992 -3.52501 0
M  V30 862 O 80.7853 1.03338 -5.36641 0
M  V30 863 H 77.8793 0.191143 -0.804608 0
M  V30 864 H 80.4253 -0.3716 -1.65581 0
M  V30 865 H 79.1973 -0.529611 -3.87699 0
M  V30 866 H 78.8203 1.18348 -3.79578 0
M  V30 867 N 79.8174 1.5752 -0.0501392 0
M  V30 868 C 80.7274 2.14952 0.939827 0
M  V30 869 C 81.7434 1.10706 1.34239 0
M  V30 870 O 82.9194 1.42869 1.41952 0
M  V30 871 C 79.9844 2.68232 2.19665 0
M  V30 872 C 79.0454 3.87272 1.85253 0
M  V30 873 C 78.2784 4.38002 3.04943 0
M  V30 874 O 78.5014 3.87811 4.18281 0
M  V30 875 O 77.4354 5.29602 2.86017 0
M  V30 876 H 81.2614 2.9986 0.481392 0
M  V30 877 H 78.8464 1.4841 0.171699 0
M  V30 878 H 80.7284 3.02475 2.93406 0
M  V30 879 H 79.4034 1.86395 2.64648 0
M  V30 880 H 78.3104 3.5792 1.0883 0
M  V30 881 H 79.6434 4.70336 1.4507 0
M  V30 882 N 81.2955 -0.223234 1.56011 0
M  V30 883 C 82.5725 -0.972108 1.69733 0
M  V30 884 C 82.9525 -2.02485 0.59691 0
M  V30 885 O 82.3005 -2.25037 -0.396324 0
M  V30 886 C 82.5105 -1.58407 3.10979 0
M  V30 887 C 83.8585 -2.07696 3.70334 0
M  V30 888 O 84.8825 -1.68304 3.1393 0
M  V30 889 O 83.7415 -2.80096 4.69264 0
M  V30 890 H 80.8355 -0.453993 0.691245 0
M  V30 891 H 83.3815 -0.215149 1.68331 0
M  V30 892 H 82.1535 -0.823831 3.82529 0
M  V30 893 H 81.7765 -2.40661 3.16493 0
M  V30 894 N 82.7736 -1.49793 -0.48987 0
M  V30 895 C 84.0196 -1.60078 -1.24511 0
M  V30 896 C 84.3526 -0.291608 -1.91998 0
M  V30 897 O 83.6276 0.705647 -1.81248 0
M  V30 898 C 83.9106 -2.76791 -2.30345 0
M  V30 899 C 83.7636 -4.17535 -1.67286 0
M  V30 900 C 85.0826 -2.89111 -3.31817 0
M  V30 901 H 82.2016 -0.582645 -0.451324 0
M  V30 902 H 84.8436 -1.82117 -0.541612 0
M  V30 903 H 82.9936 -2.5813 -2.90346 0
M  V30 904 H 84.6656 -4.4774 -1.11026 0
M  V30 905 H 82.9086 -4.22665 -0.976577 0
M  V30 906 H 83.5796 -4.95094 -2.44103 0
M  V30 907 H 86.0556 -3.06133 -2.81819 0
M  V30 908 H 84.9316 -3.72433 -4.03219 0
M  V30 909 H 85.1926 -1.9893 -3.94815 0
M  V30 910 N 84.2517 0.741722 -1.39055 0
M  V30 911 C 85.4997 1.49818 -1.35643 0
M  V30 912 C 85.8207 1.94938 0.0491642 0
M  V30 913 O 85.0907 1.68505 0.999141 0
M  V30 914 H 83.6707 0.555755 -0.499144 0
M  V30 915 H 86.3327 0.880957 -1.73854 0
M  V30 916 H 85.4287 2.38348 -2.01486 0
M  V30 917 N 85.7298 1.2412 0.971189 0
M  V30 918 C 87.1458 1.00584 1.23916 0
M  V30 919 C 87.3458 -0.287481 1.99439 0
M  V30 920 O 86.4018 -1.00454 2.31658 0
M  V30 921 C 87.7148 2.21864 2.0297 0
M  V30 922 C 89.2628 2.26452 2.16076 0
M  V30 923 C 89.7378 3.47343 2.98524 0
M  V30 924 N 91.2288 3.47639 3.06107 0
M  V30 925 C 91.9638 4.37837 3.70251 0
M  V30 926 N 91.4598 5.38286 4.36142 0
M  V30 927 N 93.2528 4.25558 3.67228 0
M  V30 928 H 85.4038 2.07236 0.465499 0
M  V30 929 H 87.6668 0.909236 0.268315 0
M  V30 930 H 87.3728 3.15771 1.54861 0
M  V30 931 H 87.2468 2.23698 3.03709 0
M  V30 932 H 89.6338 1.33078 2.6339 0
M  V30 933 H 89.7148 2.28645 1.14696 0
M  V30 934 H 89.3588 4.41029 2.51905 0
M  V30 935 H 89.2888 3.42393 4.00093 0
M  V30 936 H 91.7798 2.74966 2.59233 0
M  V30 937 H 92.0928 6.03352 4.82894 0
M  V30 938 H 90.4378 5.42176 4.34822 0
M  V30 939 H 93.6288 3.46322 3.14927 0
M  V30 940 H 93.8018 4.96054 4.16935 0
M  V30 941 N 87.2079 -1.17134 1.05439 0
M  V30 942 C 88.4539 -1.87733 0.767077 0
M  V30 943 C 88.7869 -1.8098 -0.704253 0
M  V30 944 O 88.0619 -1.21951 -1.5152 0
M  V30 945 C 88.3449 -3.37659 1.25133 0
M  V30 946 C 88.1979 -3.53149 2.78578 0
M  V30 947 C 89.5169 -4.31768 0.852324 0
M  V30 948 H 86.6359 -0.681687 0.280129 0
M  V30 949 H 89.2779 -1.37732 1.30881 0
M  V30 950 H 87.4279 -3.80373 0.790469 0
M  V30 951 H 89.0999 -3.19434 3.32806 0
M  V30 952 H 87.3429 -2.95345 3.17732 0
M  V30 953 H 88.0139 -4.58403 3.07523 0
M  V30 954 H 90.4899 -3.96909 1.24911 0
M  V30 955 H 89.3659 -5.35199 1.21873 0
M  V30 956 H 89.6269 -4.41429 -0.243485 0
M  V30 957 N 88.686 -0.835752 -1.33615 0
M  V30 958 C 89.935 -0.426289 -1.97144 0
M  V30 959 C 90.248 1.01912 -1.66953 0
M  V30 960 O 91.454 1.53311 -2.24072 0
M  V30 961 C 89.91 -0.711321 -3.52801 0
M  V30 962 C 89.518 -2.1712 -3.91871 0
M  V30 963 C 91.262 -0.368654 -4.22896 0
M  V30 964 C 89.169 -2.40044 -5.40493 0
M  V30 965 H 88.099 -0.15567 -0.737755 0
M  V30 966 H 90.75 -1.0239 -1.52278 0
M  V30 967 H 89.132 -0.0433766 -3.95976 0
M  V30 968 H 90.306 -2.87936 -3.59763 0
M  V30 969 H 88.621 -2.47654 -3.34749 0
M  V30 970 H 91.218 -0.517601 -5.32189 0
M  V30 971 H 91.561 0.688078 -4.10574 0
M  V30 972 H 92.094 -0.991702 -3.8524 0
M  V30 973 H 88.833 -3.44271 -5.57815 0
M  V30 974 H 88.353 -1.73785 -5.74072 0
M  V30 975 H 90.032 -2.23042 -6.0734 0
M  V30 976 N 90.1641 1.46063 -0.591896 0
M  V30 977 C 91.4111 2.02338 -0.0809991 0
M  V30 978 C 91.7391 1.46228 1.28249 0
M  V30 979 O 90.9941 0.620818 1.85592 0
M  V30 980 C 91.2931 3.57391 0.0249813 0
M  V30 981 C 90.9591 4.32583 -1.27211 0
M  V30 982 C 89.6211 4.52844 -1.62745 0
M  V30 983 C 91.9731 4.75687 -2.13005 0
M  V30 984 C 89.3011 5.13462 -2.83855 0
M  V30 985 C 91.6531 5.37644 -3.3335 0
M  V30 986 C 90.3171 5.5613 -3.69155 0
M  V30 987 H 89.5871 0.740407 -0.0296397 0
M  V30 988 H 92.2341 1.75321 -0.770374 0
M  V30 989 H 90.5391 3.83597 0.797537 0
M  V30 990 H 92.2361 3.98621 0.436184 0
M  V30 991 H 88.8261 4.17116 -0.985499 0
M  V30 992 H 93.0101 4.59782 -1.86855 0
M  V30 993 H 88.2661 5.25965 -3.11722 0
M  V30 994 H 92.4401 5.7 -4.00092 0
M  V30 995 H 90.0671 6.0287 -4.63089 0
M  V30 996 N 91.6422 0.330177 1.54103 0
M  V30 997 C 92.8902 -0.269871 2.0029 0
M  V30 998 C 93.2112 -1.52133 1.21986 0
M  V30 999 O 92.4812 -1.93212 0.323438 0
M  V30 1000 H 91.0612 -0.10271 0.739905 0
M  V30 1001 H 93.7232 0.448249 1.89675 0
M  V30 1002 H 92.8192 -0.52166 3.07709 0
M  V30 1003 N 93.1203 -1.57491 0.0584922 0
M  V30 1004 C 94.0503 -2.14988 -0.911178 0
M  V30 1005 C 95.0313 -1.07343 -1.31952 0
M  V30 1006 O 96.2163 -1.35318 -1.39294 0
M  V30 1007 C 93.3463 -2.70078 -2.18347 0
M  V30 1008 C 92.3003 -3.82771 -1.91495 0
M  V30 1009 C 91.6263 -4.24408 -3.25241 0
M  V30 1010 C 92.9263 -5.07592 -1.23075 0
M  V30 1011 H 94.6203 -2.96263 -0.432246 0
M  V30 1012 H 92.1663 -1.42512 -0.206469 0
M  V30 1013 H 94.1193 -3.08943 -2.86587 0
M  V30 1014 H 92.8433 -1.86005 -2.68458 0
M  V30 1015 H 91.5023 -3.44389 -1.25664 0
M  V30 1016 H 91.1503 -3.37275 -3.73168 0
M  V30 1017 H 90.8503 -5.00366 -3.08071 0
M  V30 1018 H 92.3743 -4.65879 -3.94701 0
M  V30 1019 H 93.7883 -5.43857 -1.81362 0
M  V30 1020 H 92.1853 -5.88741 -1.16207 0
M  V30 1021 H 93.2553 -4.84454 -0.207847 0
M  V30 1022 N 94.5984 0.214957 -1.56127 0
M  V30 1023 C 95.8454 0.938372 -1.79446 0
M  V30 1024 C 96.1734 1.8407 -0.628378 0
M  V30 1025 O 95.4284 1.91837 0.386925 0
M  V30 1026 C 95.7274 1.80314 -3.0858 0
M  V30 1027 C 95.3934 1.05349 -4.3842 0
M  V30 1028 C 94.0554 0.846435 -4.73697 0
M  V30 1029 C 96.4074 0.524588 -5.18553 0
M  V30 1030 C 93.7354 0.098683 -5.86617 0
M  V30 1031 C 96.0874 -0.209853 -6.32252 0
M  V30 1032 C 94.7514 -0.428102 -6.66126 0
M  V30 1033 H 94.0214 0.343375 -0.656639 0
M  V30 1034 H 96.6684 0.206077 -1.90388 0
M  V30 1035 H 94.9734 2.6035 -2.92789 0
M  V30 1036 H 96.6704 2.36513 -3.23825 0
M  V30 1037 H 93.2604 1.22486 -4.10725 0
M  V30 1038 H 97.4444 0.672008 -4.91729 0
M  V30 1039 H 92.7004 -0.0805753 -6.11347 0
M  V30 1040 H 96.8744 -0.627157 -6.9357 0
M  V30 1041 H 94.5014 -1.00944 -7.53468 0
M  V30 1042 N 96.0765 1.50051 0.48192 0
M  V30 1043 C 97.3245 1.60181 1.23234 0
M  V30 1044 C 97.6455 0.299176 1.92691 0
M  V30 1045 O 96.9155 -0.682708 1.83619 0
M  V30 1046 H 95.4955 0.590232 0.457859 0
M  V30 1047 H 98.1575 1.86775 0.556881 0
M  V30 1048 H 97.2535 2.40753 1.98607 0
M  V30 1049 N 97.5546 -0.734337 1.39446 0
M  V30 1050 C 98.5016 -1.84835 1.38219 0
M  V30 1051 C 99.4716 -1.64331 0.24179 0
M  V30 1052 O 100.657 -1.85728 0.437002 0
M  V30 1053 C 97.7966 -3.22355 1.23212 0
M  V30 1054 C 96.9096 -3.5456 2.46801 0
M  V30 1055 C 96.0446 -4.81485 2.24377 0
M  V30 1056 C 95.0836 -5.06536 3.43639 0
M  V30 1057 N 94.2206 -6.24665 3.20528 0
M  V30 1058 H 99.0606 -1.85219 2.33448 0
M  V30 1059 H 96.5976 -0.905039 1.15963 0
M  V30 1060 H 98.5556 -4.0174 1.12522 0
M  V30 1061 H 97.1856 -3.21248 0.316121 0
M  V30 1062 H 96.2376 -2.69872 2.68092 0
M  V30 1063 H 97.5496 -3.6899 3.3563 0
M  V30 1064 H 96.7036 -5.68852 2.10933 0
M  V30 1065 H 95.4426 -4.6923 1.32944 0
M  V30 1066 H 94.4476 -4.17632 3.5758 0
M  V30 1067 H 95.6726 -5.20676 4.35974 0
M  V30 1068 H 93.6186 -6.13696 2.3176 0
M  V30 1069 H 93.5356 -6.39685 4.02913 0
M  V30 1070 H 94.8036 -7.14868 3.10779 0
M  V30 1071 N 99.0327 -1.24633 -0.964593 0
M  V30 1072 C 100.261 -1.11501 -1.74285 0
M  V30 1073 C 100.676 0.332165 -1.85855 0
M  V30 1074 O 100.033 1.22903 -1.34911 0
M  V30 1075 C 100.084 -1.75258 -3.16175 0
M  V30 1076 O 99.8047 -3.14318 -3.05182 0
M  V30 1077 C 101.306 -1.67776 -4.10324 0
M  V30 1078 H 98.5257 -0.389407 -0.546446 0
M  V30 1079 H 101.07 -1.64801 -1.21083 0
M  V30 1080 H 99.2247 -1.25954 -3.66353 0
M  V30 1081 H 99.6387 -3.4551 -3.94618 0
M  V30 1082 H 101.113 -2.17064 -5.0753 0
M  V30 1083 H 101.59 -0.639584 -4.34518 0
M  V30 1084 H 102.196 -2.16522 -3.66058 0
M  V30 1085 N 100.511 1.16574 -1.06058 0
M  V30 1086 C 101.757 1.87324 -0.777022 0
M  V30 1087 C 102.09 1.81351 0.694645 0
M  V30 1088 O 101.365 1.22753 1.50871 0
M  V30 1089 C 101.648 3.36991 -1.26922 0
M  V30 1090 C 101.501 3.51667 -2.80447 0
M  V30 1091 C 102.82 4.3131 -0.87521 0
M  V30 1092 H 99.9388 0.680191 -0.28374 0
M  V30 1093 H 102.581 1.37036 -1.3161 0
M  V30 1094 H 100.731 3.79949 -0.81063 0
M  V30 1095 H 102.403 3.17664 -3.34495 0
M  V30 1096 H 100.646 2.93656 -3.19294 0
M  V30 1097 H 101.317 4.56766 -3.0995 0
M  V30 1098 H 103.793 3.9624 -1.27014 0
M  V30 1099 H 102.669 5.34545 -1.2471 0
M  V30 1100 H 102.93 4.41552 0.220071 0
M  V30 1101 N 101.989 0.842826 1.3317 0
M  V30 1102 C 103.4 0.496651 1.79973 0
M  V30 1103 C 103.751 -0.984641 1.69703 0
M  V30 1104 O 102.876 -1.76743 1.24863 0
M  V30 1105 C 103.471 0.894727 3.26772 0
M  V30 1106 C 102.03 0.600629 3.71577 0
M  V30 1107 C 101.177 1.10091 2.5451 0
M  V30 1108 H 104.128 1.03116 1.20635 0
M  V30 1109 H 104.149 0.206347 3.7994 0
M  V30 1110 H 103.661 1.97287 3.34215 0
M  V30 1111 H 101.762 -0.467284 3.69658 0
M  V30 1112 H 101.875 1.15863 4.64879 0
M  V30 1113 H 100.239 0.52162 2.49301 0
M  V30 1114 H 101.022 2.18591 2.64713 0
M  V30 1115 N 103.467 -1.45747 0.599634 0
M  V30 1116 C 104.414 -2.30467 -0.123849 0
M  V30 1117 C 105.384 -1.41632 -0.86774 0
M  V30 1118 O 106.569 -1.70568 -0.855056 0
M  V30 1119 C 103.709 -3.26402 -1.12051 0
M  V30 1120 C 102.822 -4.3034 -0.37832 0
M  V30 1121 C 101.957 -5.13389 -1.364 0
M  V30 1122 C 100.996 -6.09061 -0.609171 0
M  V30 1123 N 100.133 -6.84918 -1.54374 0
M  V30 1124 H 104.973 -2.91802 0.604627 0
M  V30 1125 H 102.51 -1.43797 0.309972 0
M  V30 1126 H 104.468 -3.80482 -1.7114 0
M  V30 1127 H 103.098 -2.66839 -1.8165 0
M  V30 1128 H 102.15 -3.78984 0.327929 0
M  V30 1129 H 103.462 -4.98354 0.210997 0
M  V30 1130 H 102.616 -5.7183 -2.02719 0
M  V30 1131 H 101.355 -4.45376 -1.98725 0
M  V30 1132 H 100.36 -5.49758 0.0676979 0
M  V30 1133 H 101.585 -6.79099 0.00891991 0
M  V30 1134 H 99.531 -6.19601 -2.15478 0
M  V30 1135 H 99.448 -7.49254 -1.00766 0
M  V30 1136 H 100.716 -7.47906 -2.19676 0
M  V30 1137 N 104.945 -0.338344 -1.53925 0
M  V30 1138 C 106.173 0.261298 -2.05243 0
M  V30 1139 C 106.588 1.44625 -1.21363 0
M  V30 1140 O 105.945 1.80811 -0.247736 0
M  V30 1141 C 105.996 0.681412 -3.5502 0
M  V30 1142 O 105.717 -0.456414 -4.35716 0
M  V30 1143 C 107.218 1.34232 -4.22489 0
M  V30 1144 H 104.438 0.0513685 -0.669031 0
M  V30 1145 H 106.982 -0.488822 -1.98572 0
M  V30 1146 H 105.137 1.38148 -3.61931 0
M  V30 1147 H 105.551 -0.122564 -5.24357 0
M  V30 1148 H 107.025 1.58708 -5.28693 0
M  V30 1149 H 107.502 2.29426 -3.74514 0
M  V30 1150 H 108.108 0.684424 -4.19757 0
M  V30 1151 N 106.423 1.57458 -0.0668435 0
M  V30 1152 C 107.669 1.93587 0.6043 0
M  V30 1153 C 108.002 0.946722 1.69561 0
M  V30 1154 O 107.277 -0.0248516 1.94484 0
M  V30 1155 C 107.56 3.40014 1.18585 0
M  V30 1156 C 107.413 4.49685 0.101529 0
M  V30 1157 C 108.732 3.87154 2.09284 0
M  V30 1158 H 105.851 0.703958 0.218202 0
M  V30 1159 H 108.493 1.89542 -0.131804 0
M  V30 1160 H 106.643 3.43592 1.81319 0
M  V30 1161 H 108.315 4.5823 -0.531279 0
M  V30 1162 H 106.558 4.30059 -0.568487 0
M  V30 1163 H 107.229 5.49266 0.54874 0
M  V30 1164 H 109.705 3.85551 1.56491 0
M  V30 1165 H 108.581 4.90231 2.46911 0
M  V30 1166 H 108.842 3.2481 2.99918 0
M  V30 1167 N 107.901 -0.206675 1.56239 0
M  V30 1168 C 109.178 -0.954051 1.70755 0
M  V30 1169 C 109.558 -2.01841 0.618353 0
M  V30 1170 O 108.906 -2.25444 -0.372434 0
M  V30 1171 C 109.116 -1.551 3.12642 0
M  V30 1172 C 110.464 -2.03757 3.72516 0
M  V30 1173 O 111.488 -1.64965 3.15698 0
M  V30 1174 O 110.347 -2.75103 4.72208 0
M  V30 1175 H 107.441 -0.446636 0.696021 0
M  V30 1176 H 109.987 -0.197283 1.68549 0
M  V30 1177 H 108.759 -0.783212 3.83382 0
M  V30 1178 H 108.382 -2.37291 3.19028 0
M  V30 1179 N 109.379 -1.50304 -0.473955 0
M  V30 1180 C 110.327 -1.69482 -1.59307 0
M  V30 1181 C 111.321 -0.560669 -1.59853 0
M  V30 1182 O 112.527 -0.741087 -1.64036 0
M  V30 1183 H 108.902 -0.534892 -0.528578 0
M  V30 1184 H 110.873 -2.63364 -1.40293 0
M  V30 1185 C 109.622 -1.80354 -2.97267 0
M  V30 1186 H 108.945 -2.67012 -2.97564 0
M  V30 1187 H 110.385 -1.97798 -3.75036 0
M  V30 1188 C 108.844 -0.55448 -3.32306 0
M  V30 1189 O 109.374 0.307661 -4.0052 0
M  V30 1190 N 107.58 -0.409354 -2.87702 0
M  V30 1191 H 107.127 -1.11196 -2.32364 0
M  V30 1192 H 107.085 0.425223 -3.11511 0
M  V30 1193 N 110.857 0.726932 -1.39834 0
M  V30 1194 C 112.104 1.48664 -1.37496 0
M  V30 1195 C 112.432 1.94482 0.0264678 0
M  V30 1196 O 111.687 1.67692 1.00886 0
M  V30 1197 C 111.986 2.73495 -2.30077 0
M  V30 1198 C 111.652 2.46502 -3.77555 0
M  V30 1199 C 110.314 2.3885 -4.17737 0
M  V30 1200 C 112.666 2.23604 -4.70798 0
M  V30 1201 C 109.994 2.06352 -5.49214 0
M  V30 1202 C 112.346 1.92622 -6.02561 0
M  V30 1203 C 111.01 1.83444 -6.41798 0
M  V30 1204 H 110.28 0.544001 -0.503135 0
M  V30 1205 H 112.927 0.833657 -1.72402 0
M  V30 1206 H 111.232 3.43575 -1.88317 0
M  V30 1207 H 112.929 3.31549 -2.25558 0
M  V30 1208 H 109.519 2.5334 -3.45712 0
M  V30 1209 H 113.703 2.28479 -4.40581 0
M  V30 1210 H 108.959 1.97776 -5.78528 0
M  V30 1211 H 113.133 1.73914 -6.74334 0
M  V30 1212 H 110.76 1.58029 -7.43593 0
M  V30 1213 N 112.336 1.25143 0.95797 0
M  V30 1214 C 113.582 1.09855 1.70469 0
M  V30 1215 C 113.915 -0.360187 1.90831 0
M  V30 1216 O 113.19 -1.26568 1.47685 0
M  V30 1217 C 113.473 1.8497 3.08963 0
M  V30 1218 C 113.326 3.38652 2.96032 0
M  V30 1219 C 114.645 1.63016 4.08795 0
M  V30 1220 H 111.764 0.400465 0.618706 0
M  V30 1221 H 114.406 1.53933 1.11376 0
M  V30 1222 H 112.556 1.47505 3.59409 0
M  V30 1223 H 114.228 3.85772 2.52938 0
M  V30 1224 H 112.471 3.66534 2.32025 0
M  V30 1225 H 113.142 3.8642 3.94187 0
M  V30 1226 H 115.618 1.95625 3.67247 0
M  V30 1227 H 114.494 2.18015 5.03747 0
M  V30 1228 H 114.755 0.570692 4.38401 0
M  V30 1229 N 113.814 -1.1601 1.06675 0
M  V30 1230 C 114.777 -2.18724 0.685001 0
M  V30 1231 C 115.777 -1.58496 -0.271246 0
M  V30 1232 O 116.967 -1.74119 -0.0531156 0
M  V30 1233 C 114.099 -3.40899 0.00853648 0
M  V30 1234 H 115.292 -2.54011 1.59431 0
M  V30 1235 H 112.845 -1.30352 0.862441 0
M  V30 1236 H 113.58 -3.11173 -0.913337 0
M  V30 1237 H 113.365 -3.8587 0.696204 0
M  V30 1238 H 114.855 -4.16886 -0.24414 0
M  V30 1239 N 115.292 -0.849877 -1.32721 0
M  V30 1240 C 116.222 -0.306308 -2.31482 0
M  V30 1241 C 117.203 0.591952 -1.59468 0
M  V30 1242 O 118.388 0.513199 -1.87296 0
M  V30 1243 C 115.518 0.510204 -3.43532 0
M  V30 1244 C 114.472 -0.293209 -4.26994 0
M  V30 1245 C 113.798 0.647743 -5.30762 0
M  V30 1246 C 115.098 -1.51634 -4.99804 0
M  V30 1247 H 116.792 -1.13153 -2.77195 0
M  V30 1248 H 114.338 -0.545553 -1.33266 0
M  V30 1249 H 116.291 0.900856 -4.11658 0
M  V30 1250 H 115.015 1.36874 -2.96535 0
M  V30 1251 H 113.674 -0.665555 -3.60508 0
M  V30 1252 H 113.322 1.50299 -4.8002 0
M  V30 1253 H 113.022 0.11422 -5.87489 0
M  V30 1254 H 114.546 1.03567 -6.01753 0
M  V30 1255 H 115.96 -1.19824 -5.60638 0
M  V30 1256 H 114.357 -1.98745 -5.66234 0
M  V30 1257 H 115.427 -2.28018 -4.27943 0
M  V30 1258 N 116.77 1.45427 -0.607355 0
M  V30 1259 C 117.733 2.28974 0.101693 0
M  V30 1260 C 118.733 1.39754 0.795329 0
M  V30 1261 O 119.923 1.61878 0.643527 0
M  V30 1262 C 117.055 3.20768 1.15414 0
M  V30 1263 H 118.248 2.93147 -0.632844 0
M  V30 1264 H 115.801 1.51945 -0.366391 0
M  V30 1265 H 116.536 2.61395 1.91945 0
M  V30 1266 H 116.321 3.86489 0.66098 0
M  V30 1267 H 117.811 3.83589 1.65073 0
M  V30 1268 N 118.248 0.346503 1.53744 0
M  V30 1269 C 119.476 -0.25041 2.05379 0
M  V30 1270 C 119.891 -1.43979 1.22129 0
M  V30 1271 O 119.248 -1.80677 0.257321 0
M  V30 1272 C 119.299 -0.662575 3.55376 0
M  V30 1273 O 119.02 0.479515 4.35468 0
M  V30 1274 C 120.521 -1.31989 4.23195 0
M  V30 1275 H 117.741 -0.0478198 0.669294 0
M  V30 1276 H 120.285 0.499346 1.9831 0
M  V30 1277 H 118.44 -1.36227 3.62658 0
M  V30 1278 H 118.854 0.15037 5.24284 0
M  V30 1279 H 120.328 -1.55902 5.29527 0
M  V30 1280 H 120.805 -2.27436 3.75725 0
M  V30 1281 H 121.411 -0.662154 4.20114 0
M  V30 1282 N 119.726 -1.57421 0.075193 0
M  V30 1283 C 120.974 -1.93236 -0.591974 0
M  V30 1284 C 121.295 -0.956241 -1.69944 0
M  V30 1285 O 120.565 -0.00494792 -1.95899 0
M  V30 1286 H 119.145 -0.713355 -0.22166 0
M  V30 1287 H 121.807 -1.9444 0.133848 0
M  V30 1288 H 120.903 -2.95131 -1.01509 0
M  V30 1289 N 121.204 0.198386 -1.56346 0
M  V30 1290 C 122.114 1.2664 -1.97483 0
M  V30 1291 C 123.13 1.49989 -0.882002 0
M  V30 1292 O 124.306 1.62668 -1.18748 0
M  V30 1293 C 121.371 2.59141 -2.30319 0
M  V30 1294 C 120.432 2.43892 -3.53292 0
M  V30 1295 C 119.665 3.70074 -3.84553 0
M  V30 1296 O 119.888 4.74101 -3.1715 0
M  V30 1297 O 118.822 3.658 -4.7799 0
M  V30 1298 H 122.648 0.947304 -2.88548 0
M  V30 1299 H 120.233 0.403123 -1.43859 0
M  V30 1300 H 122.115 3.37352 -2.5253 0
M  V30 1301 H 120.79 2.90684 -1.42423 0
M  V30 1302 H 119.697 1.63803 -3.36332 0
M  V30 1303 H 121.03 2.17282 -4.41644 0
M  V30 1304 N 122.682 1.50554 0.465978 0
M  V30 1305 C 123.629 1.6979 1.56333 0
M  V30 1306 C 124.599 0.539239 1.57103 0
M  V30 1307 O 125.784 0.770401 1.74555 0
M  V30 1308 C 122.924 1.80273 2.94271 0
M  V30 1309 C 122.037 3.07674 3.0325 0
M  V30 1310 C 121.172 3.08922 4.32135 0
M  V30 1311 C 120.211 4.30755 4.34875 0
M  V30 1312 N 119.348 4.29714 5.55239 0
M  V30 1313 H 124.188 2.63472 1.39235 0
M  V30 1314 H 121.725 1.30602 0.676873 0
M  V30 1315 H 123.683 1.84332 3.74269 0
M  V30 1316 H 122.313 0.900258 3.09992 0
M  V30 1317 H 121.365 3.13062 2.16094 0
M  V30 1318 H 122.677 3.97642 3.01135 0
M  V30 1319 H 121.831 3.11738 5.20485 0
M  V30 1320 H 120.57 2.16792 4.36866 0
M  V30 1321 H 119.575 4.28146 3.44922 0
M  V30 1322 H 120.8 5.24117 4.31831 0
M  V30 1323 H 118.746 3.4044 5.60746 0
M  V30 1324 H 118.663 5.13456 5.54886 0
M  V30 1325 H 119.931 4.36683 6.457 0
M  V30 1326 N 124.16 -0.719506 1.40217 0
M  V30 1327 C 125.408 -1.47641 1.3801 0
M  V30 1328 C 125.729 -1.94992 -0.018145 0
M  V30 1329 O 124.999 -1.70073 -0.972207 0
M  V30 1330 H 123.579 -0.547744 0.507923 0
M  V30 1331 H 126.241 -0.853187 1.75233 0
M  V30 1332 H 125.337 -2.35112 2.05253 0
M  V30 1333 N 125.638 -1.25649 -0.95132 0
M  V30 1334 C 126.885 -1.10594 -1.69633 0
M  V30 1335 C 127.213 0.352515 -1.91279 0
M  V30 1336 O 126.468 1.27601 -1.4838 0
M  V30 1337 C 126.767 -1.80909 -3.08231 0
M  V30 1338 C 126.433 -3.30825 -3.06375 0
M  V30 1339 C 125.095 -3.71722 -3.05576 0
M  V30 1340 C 127.447 -4.26589 -2.99452 0
M  V30 1341 C 124.775 -5.06788 -2.95606 0
M  V30 1342 C 127.127 -5.61683 -2.91024 0
M  V30 1343 C 125.791 -6.01904 -2.88562 0
M  V30 1344 H 125.061 -0.404691 -0.620731 0
M  V30 1345 H 127.708 -1.55964 -1.11119 0
M  V30 1346 H 126.013 -1.27979 -3.70309 0
M  V30 1347 H 127.71 -1.6671 -3.64704 0
M  V30 1348 H 124.3 -2.98287 -3.07771 0
M  V30 1349 H 128.484 -3.95982 -2.99185 0
M  V30 1350 H 123.74 -5.37126 -2.92071 0
M  V30 1351 H 127.914 -6.35578 -2.84629 0
M  V30 1352 H 125.541 -7.06521 -2.80593 0
M  V30 1353 N 127.117 1.15442 -1.07289 0
M  V30 1354 C 128.365 1.85845 -0.794096 0
M  V30 1355 C 128.686 1.82692 0.681809 0
M  V30 1356 O 127.956 1.26741 1.49377 0
M  V30 1357 H 126.536 0.688089 -0.290763 0
M  V30 1358 H 129.198 1.39947 -1.3565 0
M  V30 1359 H 128.294 2.91001 -1.12804 0
M  V30 1360 N 128.595 0.856903 1.32268 0
M  V30 1361 C 129.825 0.47475 2.01071 0
M  V30 1362 C 130.233 -0.933746 1.64553 0
M  V30 1363 O 129.576 -1.62114 0.863989 0
M  V30 1364 C 129.638 0.536746 3.55471 0
M  V30 1365 C 129.302 1.90453 4.15423 0
M  V30 1366 C 130.299 2.87029 4.33486 0
M  V30 1367 C 127.984 2.20229 4.51447 0
M  V30 1368 C 129.978 4.11532 4.86744 0
M  V30 1369 C 127.665 3.44984 5.0441 0
M  V30 1370 C 128.663 4.40452 5.22007 0
M  V30 1371 O 128.351 5.62998 5.73837 0
M  V30 1372 H 128.083 0.184778 0.650256 0
M  V30 1373 H 130.637 1.15615 1.69771 0
M  V30 1374 H 128.867 -0.20152 3.86175 0
M  V30 1375 H 130.556 0.169875 4.05544 0
M  V30 1376 H 131.322 2.6533 4.05986 0
M  V30 1377 H 127.201 1.46705 4.37034 0
M  V30 1378 H 130.745 4.86056 5.00395 0
M  V30 1379 H 126.642 3.66532 5.31342 0
M  V30 1380 H 127.41 5.64987 5.92226 0
M  V30 1381 N 130.073 -1.45103 0.615059 0
M  V30 1382 C 131.02 -2.30586 -0.0993978 0
M  V30 1383 C 131.99 -1.42544 -0.852669 0
M  V30 1384 O 133.175 -1.71465 -0.836917 0
M  V30 1385 C 130.315 -3.27572 -1.08583 0
M  V30 1386 C 129.428 -4.30717 -0.332656 0
M  V30 1387 C 128.563 -5.14807 -1.30947 0
M  V30 1388 C 127.602 -6.09673 -0.544538 0
M  V30 1389 N 126.739 -6.86517 -1.47101 0
M  V30 1390 H 131.579 -2.91144 0.635542 0
M  V30 1391 H 129.116 -1.4346 0.325206 0
M  V30 1392 H 131.074 -3.82276 -1.67095 0
M  V30 1393 H 129.704 -2.68751 -1.78809 0
M  V30 1394 H 128.756 -3.78615 0.368107 0
M  V30 1395 H 130.068 -4.98102 0.263842 0
M  V30 1396 H 129.222 -5.73948 -1.96643 0
M  V30 1397 H 127.961 -4.47458 -1.9399 0
M  V30 1398 H 126.966 -5.49656 0.126003 0
M  V30 1399 H 128.191 -6.79052 0.080947 0
M  V30 1400 H 126.137 -6.21851 -2.08895 0
M  V30 1401 H 126.054 -7.50281 -0.928137 0
M  V30 1402 H 127.322 -7.50194 -2.11731 0
M  V30 1403 N 131.551 -0.354651 -1.53558 0
M  V30 1404 C 132.499 0.512195 -2.26891 0
M  V30 1405 C 133.493 1.09263 -1.29452 0
M  V30 1406 O 134.699 1.03709 -1.47121 0
M  V30 1407 H 131.074 0.183878 -0.729173 0
M  V30 1408 H 133.045 -0.128202 -2.98124 0
M  V30 1409 C 131.794 1.64563 -3.06291 0
M  V30 1410 H 131.117 1.20829 -3.81104 0
M  V30 1411 H 132.557 2.22711 -3.60799 0
M  V30 1412 C 131.016 2.58158 -2.16462 0
M  V30 1413 O 131.546 3.60695 -1.76811 0
M  V30 1414 N 129.752 2.27096 -1.81317 0
M  V30 1415 H 129.299 1.43751 -2.1376 0
M  V30 1416 H 129.257 2.89975 -1.21498 0
M  V30 1417 N 133.029 1.57378 -0.0835403 0
M  V30 1418 C 134.254 1.98682 0.594987 0
M  V30 1419 C 134.679 0.961969 1.61641 0
M  V30 1420 O 134.037 -0.0709989 1.81161 0
M  V30 1421 C 134.085 3.38988 1.2296 0
M  V30 1422 O 133.189 3.39208 2.34546 0
M  V30 1423 H 132.53 0.646368 0.152002 0
M  V30 1424 H 135.06 2.03961 -0.161533 0
M  V30 1425 H 135.07 3.76431 1.57366 0
M  V30 1426 H 133.745 4.13107 0.481228 0
M  V30 1427 H 132.322 3.13548 2.01846 0
M  V30 1428 N 134.507 -0.190092 1.56449 0
M  V30 1429 C 135.454 -1.23557 1.94942 0
M  V30 1430 C 136.424 -1.44972 0.810696 0
M  V30 1431 O 137.609 -1.58023 1.06927 0
M  V30 1432 C 134.749 -2.57416 2.2985 0
M  V30 1433 C 133.862 -2.43537 3.5681 0
M  V30 1434 C 132.997 -3.70134 3.81017 0
M  V30 1435 C 132.036 -3.51109 5.01387 0
M  V30 1436 N 131.173 -4.6973 5.21822 0
M  V30 1437 H 136.013 -0.900304 2.84075 0
M  V30 1438 H 133.55 -0.43318 1.40577 0
M  V30 1439 H 135.508 -3.35409 2.48106 0
M  V30 1440 H 134.138 -2.88975 1.43852 0
M  V30 1441 H 133.19 -1.56816 3.46573 0
M  V30 1442 H 134.502 -2.25415 4.4496 0
M  V30 1443 H 133.656 -4.56566 3.9954 0
M  V30 1444 H 132.395 -3.91215 2.91207 0
M  V30 1445 H 131.4 -2.63063 4.82782 0
M  V30 1446 H 132.625 -3.31468 5.9271 0
M  V30 1447 H 130.571 -4.91065 4.34961 0
M  V30 1448 H 130.488 -4.54452 6.0416 0
M  V30 1449 H 131.756 -5.57499 5.44808 0
M  V30 1450 N 135.985 -1.50799 -0.457987 0
M  V30 1451 C 137.232 -1.62442 -1.20908 0
M  V30 1452 C 137.56 -0.330865 -1.91665 0
M  V30 1453 O 136.815 0.68401 -1.83357 0
M  V30 1454 C 137.114 -2.76358 -2.2663 0
M  V30 1455 C 136.78 -4.16378 -1.73033 0
M  V30 1456 C 135.442 -4.54473 -1.58138 0
M  V30 1457 C 137.794 -5.03836 -1.33413 0
M  V30 1458 C 135.122 -5.77754 -1.02065 0
M  V30 1459 C 137.474 -6.27676 -0.78778 0
M  V30 1460 C 136.138 -6.64562 -0.625561 0
M  V30 1461 H 135.408 -0.594417 -0.442435 0
M  V30 1462 H 138.055 -1.84772 -0.503136 0
M  V30 1463 H 136.36 -2.48167 -3.03184 0
M  V30 1464 H 138.057 -2.82568 -2.84528 0
M  V30 1465 H 134.647 -3.86331 -1.85598 0
M  V30 1466 H 138.831 -4.75026 -1.4375 0
M  V30 1467 H 134.087 -6.04997 -0.882547 0
M  V30 1468 H 138.261 -6.94797 -0.472177 0
M  V30 1469 H 135.888 -7.59965 -0.188926 0
M  V30 1470 N 137.463 0.71206 -1.40597 0
M  V30 1471 C 138.413 1.81783 -1.37619 0
M  V30 1472 C 139.397 1.58896 -0.253162 0
M  V30 1473 O 140.589 1.70009 -0.492547 0
M  V30 1474 C 137.718 3.19944 -1.24462 0
M  V30 1475 C 136.804 3.48582 -2.4156 0
M  V30 1476 N 137.195 3.48016 -3.67041 0
M  V30 1477 C 135.493 3.79056 -2.35016 0
M  V30 1478 C 136.194 3.75096 -4.44609 0
M  V30 1479 N 135.17 3.94022 -3.74497 0
M  V30 1480 H 138.972 1.79683 -2.32575 0
M  V30 1481 H 136.486 0.91134 -1.34419 0
M  V30 1482 H 138.483 3.99133 -1.20411 0
M  V30 1483 H 137.143 3.23267 -0.304762 0
M  V30 1484 H 138.154 3.28782 -4.00153 0
M  V30 1485 H 134.831 3.89848 -1.49415 0
M  V30 1486 H 136.221 3.80934 -5.53479 0
M  V30 1487 N 138.941 1.26152 0.944643 0
M  V30 1488 C 140.357 1.03189 1.21754 0
M  V30 1489 C 140.557 -0.245112 2.00004 0
M  V30 1490 O 139.613 -0.955176 2.33736 0
M  V30 1491 C 140.926 2.26119 1.98219 0
M  V30 1492 C 142.474 2.30984 2.11224 0
M  V30 1493 C 142.949 3.53597 2.91089 0
M  V30 1494 N 144.44 3.54053 2.98664 0
M  V30 1495 C 145.175 4.45593 3.60881 0
M  V30 1496 N 144.671 5.47416 4.24626 0
M  V30 1497 N 146.464 4.33252 3.58119 0
M  V30 1498 H 138.615 2.08177 0.421437 0
M  V30 1499 H 140.878 0.914723 0.248969 0
M  V30 1500 H 140.584 3.18984 1.48128 0
M  V30 1501 H 140.458 2.3009 2.98895 0
M  V30 1502 H 142.845 1.38635 2.60508 0
M  V30 1503 H 142.926 2.31026 1.09821 0
M  V30 1504 H 142.57 4.46273 2.42493 0
M  V30 1505 H 142.5 3.50802 3.92741 0
M  V30 1506 H 144.991 2.80403 2.53343 0
M  V30 1507 H 145.304 6.13459 4.69987 0
M  V30 1508 H 143.649 5.51278 4.23223 0
M  V30 1509 H 146.84 3.52924 3.0751 0
M  V30 1510 H 147.013 5.04786 4.06319 0
M  V30 1511 N 140.419 -1.14872 1.07899 0
M  V30 1512 C 141.665 -1.86064 0.806725 0
M  V30 1513 C 141.998 -1.82434 -0.665706 0
M  V30 1514 O 141.273 -1.25138 -1.48899 0
M  V30 1515 C 141.556 -3.34929 1.32267 0
M  V30 1516 C 141.409 -3.47161 2.86006 0
M  V30 1517 C 142.728 -4.29863 0.943717 0
M  V30 1518 H 139.847 -0.675591 0.294526 0
M  V30 1519 H 142.489 -1.34925 1.33773 0
M  V30 1520 H 140.639 -3.78611 0.870974 0
M  V30 1521 H 142.311 -3.12302 3.39507 0
M  V30 1522 H 140.554 -2.88539 3.23925 0
M  V30 1523 H 141.225 -4.51777 3.17177 0
M  V30 1524 H 143.701 -3.9417 1.33302 0
M  V30 1525 H 142.577 -5.32494 1.33198 0
M  V30 1526 H 142.838 -4.41846 -0.149796 0
M  V30 1527 N 141.898 -0.863906 -1.31812 0
M  V30 1528 C 143.147 -0.46801 -1.96195 0
M  V30 1529 C 143.46 0.983474 -1.69077 0
M  V30 1530 O 144.666 1.48523 -2.27273 0
M  V30 1531 C 143.122 -0.785995 -3.51212 0
M  V30 1532 C 142.73 -2.25383 -3.87178 0
M  V30 1533 C 144.474 -0.458274 -4.22019 0
M  V30 1534 C 142.381 -2.51455 -5.3528 0
M  V30 1535 H 141.311 -0.171283 -0.734287 0
M  V30 1536 H 143.962 -1.05597 -1.50072 0
M  V30 1537 H 142.344 -0.127359 -3.95795 0
M  V30 1538 H 143.518 -2.95502 -3.53575 0
M  V30 1539 H 141.833 -2.54698 -3.2942 0
M  V30 1540 H 144.43 -0.630369 -5.30971 0
M  V30 1541 H 144.773 0.600834 -4.11941 0
M  V30 1542 H 145.306 -1.07319 -3.8305 0
M  V30 1543 H 142.045 -3.56025 -5.50387 0
M  V30 1544 H 141.565 -1.85923 -5.70257 0
M  V30 1545 H 143.244 -2.35874 -6.02472 0
M  V30 1546 N 143.376 1.44774 -0.622745 0
M  V30 1547 C 144.323 2.30635 0.0871679 0
M  V30 1548 C 145.293 1.42994 0.845097 0
M  V30 1549 O 146.478 1.71907 0.827812 0
M  V30 1550 C 143.618 3.28144 1.06844 0
M  V30 1551 C 142.731 4.30888 0.309809 0
M  V30 1552 C 141.866 5.15494 1.28215 0
M  V30 1553 C 140.905 6.09953 0.512198 0
M  V30 1554 N 140.042 6.87287 1.43458 0
M  V30 1555 H 144.882 2.90803 -0.650974 0
M  V30 1556 H 142.419 1.43286 -0.33281 0
M  V30 1557 H 144.377 3.83157 1.65066 0
M  V30 1558 H 143.007 2.69695 1.77382 0
M  V30 1559 H 142.059 3.78414 -0.388181 0
M  V30 1560 H 143.371 4.97955 -0.290254 0
M  V30 1561 H 142.525 5.74983 1.93596 0
M  V30 1562 H 141.264 4.48481 1.91614 0
M  V30 1563 H 140.269 5.49581 -0.155151 0
M  V30 1564 H 141.494 6.78999 -0.116958 0
M  V30 1565 H 139.44 6.2295 2.05594 0
M  V30 1566 H 139.357 7.50763 0.888335 0
M  V30 1567 H 140.625 7.51306 2.07749 0
M  V30 1568 N 144.854 0.36279 1.53368 0
M  V30 1569 C 146.131 -0.284021 1.93527 0
M  V30 1570 C 146.511 -1.66628 1.29608 0
M  V30 1571 O 145.859 -2.23942 0.45413 0
M  V30 1572 C 146.069 -0.337028 3.47369 0
M  V30 1573 C 147.417 -0.578708 4.20638 0
M  V30 1574 O 148.441 -0.418352 3.53735 0
M  V30 1575 O 147.3 -0.89074 5.39192 0
M  V30 1576 H 144.394 -0.169743 0.809393 0
M  V30 1577 H 146.94 0.41537 1.64538 0
M  V30 1578 H 145.712 0.632217 3.86159 0
M  V30 1579 H 145.335 -1.08243 3.82582 0
M  V30 1580 N 146.332 -1.57332 0.0918853 0
M  V30 1581 C 147.579 -1.94236 -0.572577 0
M  V30 1582 C 147.907 -0.973398 -1.6839 0
M  V30 1583 O 147.162 0.00756912 -1.95699 0
M  V30 1584 C 147.461 -3.37689 -1.17051 0
M  V30 1585 C 147.127 -4.50527 -0.183304 0
M  V30 1586 C 145.789 -4.81119 0.0882276 0
M  V30 1587 C 148.141 -5.18883 0.49095 0
M  V30 1588 C 145.469 -5.77395 1.04076 0
M  V30 1589 C 147.821 -6.1618 1.43193 0
M  V30 1590 C 146.485 -6.45179 1.71173 0
M  V30 1591 H 145.755 -0.710762 -0.209521 0
M  V30 1592 H 148.402 -1.9077 0.167036 0
M  V30 1593 H 146.707 -3.37718 -1.9863 0
M  V30 1594 H 148.404 -3.63543 -1.69227 0
M  V30 1595 H 144.994 -4.26681 -0.405124 0
M  V30 1596 H 149.178 -4.95427 0.294312 0
M  V30 1597 H 144.434 -5.98179 1.26457 0
M  V30 1598 H 148.608 -6.68243 1.96023 0
M  V30 1599 H 146.235 -7.1959 2.4514 0
M  V30 1600 N 147.81 0.181792 -1.56548 0
M  V30 1601 C 148.743 1.25366 -1.90679 0
M  V30 1602 C 149.721 1.43299 -0.768376 0
M  V30 1603 O 150.905 1.58475 -1.02068 0
M  V30 1604 C 148.032 2.61826 -2.1486 0
M  V30 1605 C 147.078 2.60688 -3.37556 0
M  V30 1606 S 147.911 2.10804 -4.92262 0
M  V30 1607 C 149.067 3.49062 -5.19525 0
M  V30 1608 H 149.3 0.962277 -2.81296 0
M  V30 1609 H 146.833 0.385892 -1.495 0
M  V30 1610 H 148.791 3.40371 -2.29473 0
M  V30 1611 H 147.452 2.88169 -1.24969 0
M  V30 1612 H 146.645 3.61058 -3.51643 0
M  V30 1613 H 146.247 1.90232 -3.22006 0
M  V30 1614 H 148.539 4.45003 -5.10861 0
M  V30 1615 H 149.482 3.39859 -6.2121 0
M  V30 1616 H 149.89 3.4459 -4.47122 0
M  V30 1617 N 149.288 1.51039 0.449983 0
M  V30 1618 C 150.537 1.62317 1.19733 0
M  V30 1619 C 150.85 0.339101 1.92638 0
M  V30 1620 O 152.056 0.331069 2.69474 0
M  V30 1621 C 150.512 2.86608 2.17678 0
M  V30 1622 C 150.12 4.21972 1.50479 0
M  V30 1623 C 151.864 3.07239 2.92924 0
M  V30 1624 C 149.771 5.37426 2.46834 0
M  V30 1625 H 148.701 0.604532 0.450619 0
M  V30 1626 H 151.352 1.77494 0.465625 0
M  V30 1627 H 149.734 2.65037 2.94231 0
M  V30 1628 H 150.908 4.53878 0.795716 0
M  V30 1629 H 149.223 4.07117 0.874344 0
M  V30 1630 H 151.82 3.90668 3.65079 0
M  V30 1631 H 152.163 2.19807 3.5354 0
M  V30 1632 H 152.696 3.29091 2.23481 0
M  V30 1633 H 149.435 6.27079 1.90926 0
M  V30 1634 H 148.955 5.09912 3.15832 0
M  V30 1635 H 150.634 5.68862 3.08228 0
M  V30 1636 N 150.766 -0.704594 1.40972 0
M  V30 1637 C 151.698 -1.82974 1.38033 0
M  V30 1638 C 152.711 -1.60305 0.283931 0
M  V30 1639 O 153.9 -1.69975 0.545042 0
M  V30 1640 C 151 -3.19578 1.12795 0
M  V30 1641 C 150.173 -3.69352 2.34302 0
M  V30 1642 C 149.232 -4.84601 2.05058 0
M  V30 1643 O 148.258 -4.96682 2.7802 0
M  V30 1644 N 149.46 -5.71194 1.03528 0
M  V30 1645 H 152.225 -1.85991 2.35005 0
M  V30 1646 H 149.786 -0.886567 1.35468 0
M  V30 1647 H 151.778 -3.9429 0.911987 0
M  V30 1648 H 150.348 -3.11642 0.24452 0
M  V30 1649 H 149.568 -2.85649 2.71659 0
M  V30 1650 H 150.856 -3.99345 3.1528 0
M  V30 1651 H 150.254 -5.64054 0.431217 0
M  V30 1652 H 148.811 -6.45843 0.879205 0
M  V30 1653 N 152.244 -1.26651 -0.937939 0
M  V30 1654 C 153.492 -1.12165 -1.68118 0
M  V30 1655 C 153.813 0.334983 -1.92101 0
M  V30 1656 O 153.083 1.23583 -1.52 0
M  V30 1657 H 151.663 -0.412093 -0.623048 0
M  V30 1658 H 154.325 -1.59027 -1.12678 0
M  V30 1659 H 153.421 -1.64289 -2.6536 0
M  V30 1660 N 153.722 1.14298 -1.08507 0
M  V30 1661 C 154.97 1.84993 -0.813763 0
M  V30 1662 C 155.291 1.83405 0.662393 0
M  V30 1663 O 154.561 1.28319 1.48024 0
M  V30 1664 H 153.141 0.684966 -0.298045 0
M  V30 1665 H 155.803 1.385 -1.37126 0
M  V30 1666 H 154.899 2.89788 -1.15884 0
M  V30 1667 N 155.201 0.870884 1.31352 0
M  V30 1668 C 156.478 0.402907 1.91405 0
M  V30 1669 C 156.858 -1.11512 1.79244 0
M  V30 1670 O 156.206 -1.94411 1.2007 0
M  V30 1671 C 156.416 0.885301 3.37585 0
M  V30 1672 C 157.764 0.911971 4.14691 0
M  V30 1673 O 158.788 0.831016 3.46371 0
M  V30 1674 O 157.647 1.02927 5.3672 0
M  V30 1675 H 154.741 0.120698 0.818145 0
M  V30 1676 H 157.287 0.958857 1.40014 0
M  V30 1677 H 156.059 1.92889 3.40455 0
M  V30 1678 H 155.682 0.307714 3.96407 0
M  V30 1679 N 156.679 -1.44442 0.630414 0
M  V30 1680 C 157.926 -2.02052 0.134617 0
M  V30 1681 C 158.254 -1.49576 -1.24327 0
M  V30 1682 O 157.509 -0.669806 -1.83881 0
M  V30 1683 C 157.808 -3.57332 0.0697835 0
M  V30 1684 C 157.474 -4.29058 1.38635 0
M  V30 1685 C 156.136 -4.4837 1.74694 0
M  V30 1686 C 158.488 -4.69872 2.25543 0
M  V30 1687 C 155.816 -5.05756 2.97369 0
M  V30 1688 C 158.168 -5.28616 3.47487 0
M  V30 1689 C 156.832 -5.46147 3.8377 0
M  V30 1690 H 156.102 -0.739361 0.0492598 0
M  V30 1691 H 158.749 -1.73217 0.816586 0
M  V30 1692 H 157.054 -3.85577 -0.695553 0
M  V30 1693 H 158.751 -3.99637 -0.330344 0
M  V30 1694 H 155.341 -4.14357 1.09574 0
M  V30 1695 H 159.525 -4.54666 1.98979 0
M  V30 1696 H 154.781 -5.17515 3.25558 0
M  V30 1697 H 158.955 -5.59192 4.15063 0
M  V30 1698 H 156.582 -5.9038 4.7891 0
M  V30 1699 N 158.157 -0.370918 -1.53173 0
M  V30 1700 C 159.385 0.217704 -2.05751 0
M  V30 1701 C 159.8 1.42018 -1.24404 0
M  V30 1702 O 159.157 1.80245 -0.286033 0
M  V30 1703 C 159.208 0.605954 -3.56385 0
M  V30 1704 O 158.929 -0.548734 -4.3465 0
M  V30 1705 C 160.43 1.2524 -4.25241 0
M  V30 1706 H 157.65 0.0371659 -0.66997 0
M  V30 1707 H 160.194 -0.530832 -1.9749 0
M  V30 1708 H 158.349 1.3044 -3.6478 0
M  V30 1709 H 158.763 -0.23376 -5.23979 0
M  V30 1710 H 160.237 1.47458 -5.3194 0
M  V30 1711 H 160.714 2.2143 -3.79296 0
M  V30 1712 H 161.32 0.595233 -4.21114 0
M  V30 1713 N 159.635 1.57281 -0.100228 0
M  V30 1714 C 161.051 1.57527 0.256416 0
M  V30 1715 C 161.251 1.11173 1.68056 0
M  V30 1716 O 160.307 0.79053 2.39806 0
M  V30 1717 C 161.62 3.00673 0.0401747 0
M  V30 1718 C 163.168 3.12815 0.107528 0
M  V30 1719 C 163.643 4.57929 -0.0807834 0
M  V30 1720 N 165.134 4.63193 -0.0261207 0
M  V30 1721 C 165.869 5.73212 -0.146999 0
M  V30 1722 N 165.365 6.92047 -0.322999 0
M  V30 1723 N 167.158 5.62031 -0.0879044 0
M  V30 1724 H 159.309 1.85718 -1.03065 0
M  V30 1725 H 161.572 0.857446 -0.404339 0
M  V30 1726 H 161.278 3.38804 -0.943649 0
M  V30 1727 H 161.152 3.69042 0.780262 0
M  V30 1728 H 163.539 2.74554 1.08186 0
M  V30 1729 H 163.62 2.47028 -0.664134 0
M  V30 1730 H 163.264 4.96886 -1.05201 0
M  V30 1731 H 163.194 5.21783 0.710635 0
M  V30 1732 H 165.685 3.77748 0.107161 0
M  V30 1733 H 165.998 7.7173 -0.406608 0
M  V30 1734 H 164.343 6.94074 -0.358733 0
M  V30 1735 H 167.534 4.68075 0.048498 0
M  V30 1736 H 167.707 6.47734 -0.185557 0
M  V30 1737 N 161.113 -0.173488 1.56642 0
M  V30 1738 C 162.361 -0.888706 1.81512 0
M  V30 1739 C 162.682 -1.82875 0.676872 0
M  V30 1740 O 161.952 -1.93536 -0.303414 0
M  V30 1741 H 160.532 -0.331164 0.669582 0
M  V30 1742 H 163.194 -0.173823 1.94123 0
M  V30 1743 H 162.29 -1.46691 2.75478 0
M  V30 1744 N 162.591 -1.51276 -0.441967 0
M  V30 1745 C 163.868 -1.54252 -1.20273 0
M  V30 1746 C 164.248 -0.30408 -2.08898 0
M  V30 1747 O 163.596 0.711084 -2.17154 0
M  V30 1748 C 163.806 -2.85406 -2.00859 0
M  V30 1749 C 165.154 -3.37181 -2.58059 0
M  V30 1750 O 166.178 -2.86925 -2.11074 0
M  V30 1751 O 165.037 -4.24858 -3.43741 0
M  V30 1752 H 162.131 -0.619969 -0.547328 0
M  V30 1753 H 164.677 -1.63586 -0.451413 0
M  V30 1754 H 163.449 -3.67003 -1.35736 0
M  V30 1755 H 163.072 -2.79213 -2.83065 0
M  V30 1756 N 164.069 0.697108 -1.41344 0
M  V30 1757 C 165.317 1.45426 -1.40341 0
M  V30 1758 C 165.638 1.94996 -0.0128787 0
M  V30 1759 O 164.908 1.71599 0.945027 0
M  V30 1760 H 163.488 0.539594 -0.516573 0
M  V30 1761 H 166.15 0.825201 -1.76569 0
M  V30 1762 H 165.246 2.31817 -2.08967 0
M  V30 1763 N 165.547 1.27147 0.931209 0
M  V30 1764 C 166.775 1.16082 1.71267 0
M  V30 1765 C 167.19 -0.282772 1.8667 0
M  V30 1766 O 166.547 -1.19283 1.38122 0
M  V30 1767 C 166.598 1.8358 3.11417 0
M  V30 1768 O 166.319 3.22299 2.96741 0
M  V30 1769 C 167.82 1.78597 4.05732 0
M  V30 1770 H 165.04 0.403758 0.535929 0
M  V30 1771 H 167.584 1.67953 1.16671 0
M  V30 1772 H 165.739 1.35623 3.62885 0
M  V30 1773 H 166.153 3.55851 3.85319 0
M  V30 1774 H 167.627 2.30444 5.01597 0
M  V30 1775 H 168.104 0.754564 4.3267 0
M  V30 1776 H 168.71 2.26152 3.60188 0
M  V30 1777 N 167.025 -1.13721 1.09112 0
M  V30 1778 C 168.273 -1.84559 0.823562 0
M  V30 1779 C 168.594 -1.83754 -0.652658 0
M  V30 1780 O 167.864 -1.29102 -1.47342 0
M  V30 1781 H 166.444 -0.683376 0.301673 0
M  V30 1782 H 169.106 -1.37771 1.37859 0
M  V30 1783 H 168.202 -2.8917 1.17419 0
M  V30 1784 N 168.503 -0.877838 -1.30888 0
M  V30 1785 C 169.751 -0.491723 -1.96027 0
M  V30 1786 C 170.072 0.960827 -1.69685 0
M  V30 1787 O 169.342 1.67462 -1.01654 0
M  V30 1788 H 167.922 -0.17885 -0.725273 0
M  V30 1789 H 170.584 -1.11935 -1.59551 0
M  V30 1790 H 169.68 -0.656016 -3.05128 0
M  V30 1791 N 169.982 1.44106 -0.638065 0
M  V30 1792 C 170.929 2.30715 0.062701 0
M  V30 1793 C 171.899 1.43882 0.829883 0
M  V30 1794 O 173.084 1.72775 0.809532 0
M  V30 1795 C 170.224 3.29258 1.03358 0
M  V30 1796 C 169.337 4.31192 0.26409 0
M  V30 1797 C 168.472 5.16825 1.22741 0
M  V30 1798 C 167.511 6.10462 0.447475 0
M  V30 1799 N 166.648 6.8877 1.36161 0
M  V30 1800 H 171.488 2.90096 -0.681781 0
M  V30 1801 H 169.025 1.42925 -0.347988 0
M  V30 1802 H 170.983 3.84886 1.60992 0
M  V30 1803 H 169.613 2.71562 1.74511 0
M  V30 1804 H 168.665 3.77981 -0.428295 0
M  V30 1805 H 169.977 4.97619 -0.343052 0
M  V30 1806 H 169.131 5.77004 1.87487 0
M  V30 1807 H 167.87 4.50488 1.86847 0
M  V30 1808 H 166.875 5.49386 -0.213433 0
M  V30 1809 H 168.1 6.78837 -0.188968 0
M  V30 1810 H 166.046 6.25096 1.98975 0
M  V30 1811 H 165.963 7.51663 0.808656 0
M  V30 1812 H 167.231 7.53467 1.99769 0
M  V30 1813 N 171.46 0.379036 1.52974 0
M  V30 1814 C 172.685 -0.209353 2.06341 0
M  V30 1815 C 173.11 -1.40583 1.24972 0
M  V30 1816 O 172.468 -1.79246 0.272155 0
M  V30 1817 C 172.516 -0.567786 3.56102 0
M  V30 1818 O 171.62 -1.66318 3.77375 0
M  V30 1819 H 170.961 -0.0272919 0.663439 0
M  V30 1820 H 173.491 0.543536 1.97248 0
M  V30 1821 H 173.501 -0.835003 3.99364 0
M  V30 1822 H 172.176 0.307013 4.14765 0
M  V30 1823 H 170.753 -1.39048 3.46006 0
M  V30 1824 N 172.938 -1.57226 0.108567 0
M  V30 1825 C 174.187 -1.94008 -0.551703 0
M  V30 1826 C 174.5 -0.993442 -1.68494 0
M  V30 1827 O 175.706 -1.25551 -2.40726 0
M  V30 1828 C 174.162 -3.44763 -1.03279 0
M  V30 1829 C 173.77 -4.47943 0.0714193 0
M  V30 1830 C 175.514 -3.90483 -1.66503 0
M  V30 1831 C 173.421 -5.89865 -0.425779 0
M  V30 1832 H 172.351 -0.724206 -0.209863 0
M  V30 1833 H 175.002 -1.82547 0.186741 0
M  V30 1834 H 173.384 -3.51422 -1.82533 0
M  V30 1835 H 174.558 -4.52942 0.847365 0
M  V30 1836 H 172.873 -4.11913 0.609669 0
M  V30 1837 H 175.47 -4.93925 -2.04798 0
M  V30 1838 H 175.813 -3.29877 -2.53942 0
M  V30 1839 H 176.346 -3.86581 -0.938074 0
M  V30 1840 H 173.085 -6.54202 0.412316 0
M  V30 1841 H 172.605 -5.88309 -1.16843 0
M  V30 1842 H 174.284 -6.40844 -0.890397 0
M  V30 1843 N 174.416 0.165178 -1.56732 0
M  V30 1844 C 175.646 0.894919 -1.86212 0
M  V30 1845 C 176.054 1.76066 -0.692627 0
M  V30 1846 O 175.397 1.80387 0.347303 0
M  V30 1847 C 175.459 1.8174 -3.10179 0
M  V30 1848 C 175.123 1.13064 -4.42793 0
M  V30 1849 C 176.12 0.493169 -5.17556 0
M  V30 1850 C 173.805 1.12556 -4.89527 0
M  V30 1851 C 175.799 -0.140209 -6.37246 0
M  V30 1852 C 173.486 0.488366 -6.09145 0
M  V30 1853 C 174.484 -0.143411 -6.82849 0
M  V30 1854 O 174.172 -0.77055 -8.00199 0
M  V30 1855 H 173.904 0.265114 -0.621844 0
M  V30 1856 H 176.458 0.168242 -2.0471 0
M  V30 1857 H 174.688 2.58455 -2.87642 0
M  V30 1858 H 176.377 2.4175 -3.26055 0
M  V30 1859 H 177.143 0.489023 -4.82528 0
M  V30 1860 H 173.022 1.60672 -4.32094 0
M  V30 1861 H 176.566 -0.633932 -6.94714 0
M  V30 1862 H 172.463 0.490116 -6.43637 0
M  V30 1863 H 173.231 -0.670408 -8.1575 0
M  V30 1864 N 175.894 1.51508 0.433938 0
M  V30 1865 C 177.142 1.6402 1.18075 0
M  V30 1866 C 177.463 0.360328 1.91642 0
M  V30 1867 O 176.733 -0.623945 1.85698 0
M  V30 1868 H 175.313 0.6045 0.43885 0
M  V30 1869 H 177.975 1.88452 0.497178 0
M  V30 1870 H 177.071 2.46949 1.90847 0
M  V30 1871 N 177.372 -0.689602 1.41712 0
M  V30 1872 C 178.282 -1.83314 1.46401 0
M  V30 1873 C 179.298 -1.7036 0.35405 0
M  V30 1874 O 180.474 -1.92171 0.602692 0
M  V30 1875 C 177.539 -3.19344 1.34982 0
M  V30 1876 C 176.6 -3.44363 2.56344 0
M  V30 1877 C 175.833 -4.73904 2.45461 0
M  V30 1878 O 176.056 -5.508 1.48241 0
M  V30 1879 O 174.99 -4.99839 3.35328 0
M  V30 1880 H 178.816 -1.82314 2.42889 0
M  V30 1881 H 176.401 -0.843438 1.23315 0
M  V30 1882 H 178.283 -4.00547 1.3092 0
M  V30 1883 H 176.958 -3.21014 0.41612 0
M  V30 1884 H 175.865 -2.63067 2.65982 0
M  V30 1885 H 177.198 -3.47512 3.48563 0
M  V30 1886 N 178.85 -1.27639 -0.924453 0
M  V30 1887 C 180.266 -1.05113 -1.20097 0
M  V30 1888 C 180.466 0.213262 -2.00368 0
M  V30 1889 O 179.522 0.91787 -2.35226 0
M  V30 1890 C 180.835 -2.29244 -1.94596 0
M  V30 1891 C 182.383 -2.34315 -2.07522 0
M  V30 1892 C 182.858 -3.58183 -2.85427 0
M  V30 1893 N 184.349 -3.5876 -2.92994 0
M  V30 1894 C 185.084 -4.51277 -3.53746 0
M  V30 1895 N 184.58 -5.54102 -4.15863 0
M  V30 1896 N 186.373 -4.38894 -3.51181 0
M  V30 1897 H 178.524 -2.08821 -0.388264 0
M  V30 1898 H 180.787 -0.918568 -0.234385 0
M  V30 1899 H 180.493 -3.21301 -1.43034 0
M  V30 1900 H 180.367 -2.34816 -2.95197 0
M  V30 1901 H 182.754 -1.42762 -2.58269 0
M  V30 1902 H 182.835 -2.32744 -1.06131 0
M  V30 1903 H 182.479 -4.50074 -2.35363 0
M  V30 1904 H 182.409 -3.57006 -3.8711 0
M  V30 1905 H 184.9 -2.84398 -2.4885 0
M  V30 1906 H 185.213 -6.20859 -4.60168 0
M  V30 1907 H 183.558 -5.57941 -4.144 0
M  V30 1908 H 186.749 -3.57772 -3.01856 0
M  V30 1909 H 186.922 -5.11186 -3.98237 0
M  V30 1910 N 180.328 1.1314 -1.09713 0
M  V30 1911 C 181.575 1.84484 -0.834987 0
M  V30 1912 C 181.903 1.83689 0.639418 0
M  V30 1913 O 181.158 1.2724 1.4869 0
M  V30 1914 C 181.457 3.32167 -1.3191 0
M  V30 1915 C 181.123 3.53139 -2.80363 0
M  V30 1916 C 179.785 3.58571 -3.20905 0
M  V30 1917 C 182.137 3.60866 -3.76065 0
M  V30 1918 C 179.465 3.69267 -4.55916 0
M  V30 1919 C 181.817 3.73089 -5.10869 0
M  V30 1920 C 180.481 3.76775 -5.50996 0
M  V30 1921 H 179.751 0.675073 -0.305544 0
M  V30 1922 H 182.398 1.33554 -1.37243 0
M  V30 1923 H 180.703 3.85469 -0.701517 0
M  V30 1924 H 182.4 3.85821 -1.09284 0
M  V30 1925 H 178.99 3.49569 -2.47991 0
M  V30 1926 H 183.174 3.55946 -3.45855 0
M  V30 1927 H 178.43 3.70388 -4.86438 0
M  V30 1928 H 182.604 3.78011 -5.84877 0
M  V30 1929 H 180.231 3.84815 -6.55608 0
M  V30 1930 N 181.806 0.884767 1.30421 0
M  V30 1931 C 183.217 0.553656 1.78302 0
M  V30 1932 C 183.568 -0.930153 1.7275 0
M  V30 1933 O 182.693 -1.72681 1.30423 0
M  V30 1934 C 183.288 0.998234 3.2376 0
M  V30 1935 C 181.847 0.71854 3.69478 0
M  V30 1936 C 180.994 1.18132 2.50879 0
M  V30 1937 H 183.945 1.06901 1.17294 0
M  V30 1938 H 183.966 0.327118 3.79091 0
M  V30 1939 H 183.478 2.0782 3.27769 0
M  V30 1940 H 181.579 -0.349444 3.70958 0
M  V30 1941 H 181.692 1.30595 4.60958 0
M  V30 1942 H 180.056 0.600669 2.47516 0
M  V30 1943 H 180.839 2.26902 2.57624 0
M  V30 1944 N 183.284 -1.43765 0.645699 0
M  V30 1945 C 184.561 -1.9541 0.0862963 0
M  V30 1946 C 184.941 -1.58725 -1.39175 0
M  V30 1947 O 184.289 -0.868581 -2.11348 0
M  V30 1948 C 184.499 -3.47488 0.324565 0
M  V30 1949 C 185.847 -4.24001 0.225497 0
M  V30 1950 O 186.871 -3.55274 0.256715 0
M  V30 1951 O 185.73 -5.46313 0.142801 0
M  V30 1952 H 182.824 -0.826882 -0.0139483 0
M  V30 1953 H 185.37 -1.53743 0.718415 0
M  V30 1954 H 184.142 -3.67289 1.3496 0
M  V30 1955 H 183.765 -3.96135 -0.340987 0
M  V30 1956 N 184.763 -0.387143 -1.52771 0
M  V30 1957 C 185.673 0.456442 -2.30117 0
M  V30 1958 C 186.689 1.07342 -1.36944 0
M  V30 1959 O 187.865 1.07971 -1.70013 0
M  V30 1960 C 184.93 1.56957 -3.09136 0
M  V30 1961 C 183.991 0.977916 -4.18014 0
M  V30 1962 C 183.224 2.038 -4.93256 0
M  V30 1963 O 183.447 3.25271 -4.68567 0
M  V30 1964 O 182.381 1.6565 -5.78657 0
M  V30 1965 H 186.207 -0.17359 -3.03203 0
M  V30 1966 H 183.792 -0.150919 -1.48636 0
M  V30 1967 H 185.674 2.21628 -3.58412 0
M  V30 1968 H 184.349 2.18461 -2.38865 0
M  V30 1969 H 183.256 0.294525 -3.72939 0
M  V30 1970 H 184.589 0.407128 -4.90513 0
M  V30 1971 N 186.241 1.57166 -0.116904 0
M  V30 1972 C 187.189 2.16457 0.851418 0
M  V30 1973 C 188.183 1.11323 1.27686 0
M  V30 1974 O 189.389 1.2963 1.24884 0
M  V30 1975 H 185.764 0.69271 0.292672 0
M  V30 1976 H 187.735 2.96605 0.32685 0
M  V30 1977 C 186.484 2.77689 2.09246 0
M  V30 1978 H 185.807 3.58285 1.77402 0
M  V30 1979 H 187.247 3.22716 2.7501 0
M  V30 1980 C 185.706 1.74667 2.88085 0
M  V30 1981 O 186.236 1.19877 3.83396 0
M  V30 1982 N 184.442 1.44656 2.52038 0
M  V30 1983 H 183.989 1.89402 1.74599 0
M  V30 1984 H 183.947 0.759675 3.05084 0
M  V30 1985 N 187.719 -0.156864 1.56817 0
M  V30 1986 C 188.966 -0.871125 1.82805 0
M  V30 1987 C 189.294 -1.81611 0.696262 0
M  V30 1988 O 188.549 -1.93141 -0.315459 0
M  V30 1989 C 188.848 -1.68737 3.1506 0
M  V30 1990 C 188.514 -0.890045 4.42028 0
M  V30 1991 C 187.176 -0.670042 4.76512 0
M  V30 1992 C 189.528 -0.331769 5.20143 0
M  V30 1993 C 186.856 0.119104 5.86579 0
M  V30 1994 C 189.208 0.444365 6.31037 0
M  V30 1995 C 187.872 0.675035 6.64078 0
M  V30 1996 H 187.142 -0.318767 0.668931 0
M  V30 1997 H 189.789 -0.135274 1.91022 0
M  V30 1998 H 188.094 -2.49304 3.0225 0
M  V30 1999 H 189.791 -2.24331 3.3238 0
M  V30 2000 H 186.381 -1.07157 4.14988 0
M  V30 2001 H 190.565 -0.489043 4.93885 0
M  V30 2002 H 185.821 0.307417 6.10627 0
M  V30 2003 H 189.995 0.884139 6.90765 0
M  V30 2004 H 187.622 1.28839 7.49203 0
M  V30 2005 N 189.197 -1.51736 -0.425897 0
M  V30 2006 C 190.144 -1.73875 -1.51776 0
M  V30 2007 C 191.114 -0.580702 -1.55618 0
M  V30 2008 O 192.299 -0.81641 -1.72451 0
M  V30 2009 C 189.439 -1.88012 -2.89388 0
M  V30 2010 C 188.552 -3.15606 -2.94986 0
M  V30 2011 C 187.687 -3.20271 -4.23793 0
M  V30 2012 C 186.726 -4.42134 -4.23302 0
M  V30 2013 N 185.863 -4.44284 -5.43651 0
M  V30 2014 H 190.703 -2.67071 -1.32201 0
M  V30 2015 H 188.24 -1.32351 -0.642008 0
M  V30 2016 H 190.198 -1.9419 -3.69251 0
M  V30 2017 H 188.828 -0.98213 -3.07496 0
M  V30 2018 H 187.88 -3.18681 -2.07717 0
M  V30 2019 H 189.192 -4.05486 -2.90486 0
M  V30 2020 H 188.346 -3.25428 -5.12036 0
M  V30 2021 H 187.085 -2.28299 -4.30965 0
M  V30 2022 H 186.09 -4.3714 -3.3345 0
M  V30 2023 H 187.315 -5.35382 -4.17783 0
M  V30 2024 H 185.261 -3.55188 -5.51523 0
M  V30 2025 H 185.178 -5.27988 -5.41078 0
M  V30 2026 H 186.446 -4.53649 -6.33895 0
M  V30 2027 N 190.675 0.682077 -1.42076 0
M  V30 2028 C 191.605 1.80796 -1.47767 0
M  V30 2029 C 192.586 1.6677 -0.334954 0
M  V30 2030 O 193.771 1.863 -0.548264 0
M  V30 2031 C 190.901 3.19038 -1.37229 0
M  V30 2032 C 189.855 3.47789 -2.49453 0
M  V30 2033 C 189.181 4.8553 -2.23975 0
M  V30 2034 C 190.481 3.45411 -3.91776 0
M  V30 2035 H 192.175 1.7629 -2.41997 0
M  V30 2036 H 189.721 0.846721 -1.16476 0
M  V30 2037 H 191.674 3.97528 -1.39821 0
M  V30 2038 H 190.398 3.24204 -0.394907 0
M  V30 2039 H 189.057 2.71657 -2.46166 0
M  V30 2040 H 188.705 4.87337 -1.24547 0
M  V30 2041 H 188.405 5.0573 -2.99184 0
M  V30 2042 H 189.929 5.66312 -2.28304 0
M  V30 2043 H 191.343 4.13882 -3.96705 0
M  V30 2044 H 189.74 3.77145 -4.66778 0
M  V30 2045 H 190.81 2.44122 -4.18966 0
M  V30 2046 N 192.153 1.28127 0.917671 0
M  V30 2047 C 193.1 1.11717 2.0196 0
M  V30 2048 C 194.07 0.0153929 1.66093 0
M  V30 2049 O 195.255 0.179596 1.89953 0
M  V30 2050 C 192.395 0.780927 3.36148 0
M  V30 2051 C 191.508 1.96135 3.84909 0
M  V30 2052 C 190.643 1.56609 5.0759 0
M  V30 2053 C 189.682 2.71339 5.48673 0
M  V30 2054 N 188.819 2.32332 6.62545 0
M  V30 2055 H 193.659 2.06003 2.15329 0
M  V30 2056 H 191.196 1.02535 1.05475 0
M  V30 2057 H 193.154 0.56675 4.13333 0
M  V30 2058 H 191.784 -0.124998 3.22558 0
M  V30 2059 H 190.836 2.28777 3.03916 0
M  V30 2060 H 192.148 2.82165 4.1132 0
M  V30 2061 H 191.302 1.31374 5.92305 0
M  V30 2062 H 190.041 0.677014 4.82978 0
M  V30 2063 H 189.046 2.97276 4.62501 0
M  V30 2064 H 190.271 3.60882 5.75274 0
M  V30 2065 H 188.217 1.45889 6.39572 0
M  V30 2066 H 188.134 3.11899 6.88662 0
M  V30 2067 H 189.402 2.10371 7.50576 0
M  V30 2068 N 193.631 -1.12557 1.10312 0
M  V30 2069 C 194.581 -2.16331 0.720076 0
M  V30 2070 C 195.565 -1.58616 -0.270115 0
M  V30 2071 O 196.757 -1.76823 -0.0790507 0
M  V30 2072 C 193.886 -3.42963 0.152113 0
M  V30 2073 C 192.972 -4.07663 1.16927 0
M  V30 2074 N 193.363 -4.47392 2.35953 0
M  V30 2075 C 191.661 -4.34425 1.0095 0
M  V30 2076 C 192.362 -4.97932 3.0073 0
M  V30 2077 N 191.338 -4.93358 2.28252 0
M  V30 2078 H 195.14 -2.44813 1.62616 0
M  V30 2079 H 192.654 -1.29449 0.980654 0
M  V30 2080 H 194.651 -4.16664 -0.14037 0
M  V30 2081 H 193.311 -3.1595 -0.748701 0
M  V30 2082 H 194.322 -4.39802 2.73486 0
M  V30 2083 H 190.999 -4.17177 0.164134 0
M  V30 2084 H 192.389 -5.38397 4.01969 0
M  V30 2085 N 195.109 -0.891671 -1.2995 0
M  V30 2086 C 196.339 -0.527893 -1.99742 0
M  V30 2087 C 196.747 0.88979 -1.66971 0
M  V30 2088 O 196.09 1.59766 -0.906667 0
M  V30 2089 C 196.152 -0.630804 -3.53922 0
M  V30 2090 C 195.816 -2.01401 -4.10228 0
M  V30 2091 C 196.813 -2.98422 -4.25724 0
M  V30 2092 C 194.498 -2.32121 -4.45449 0
M  V30 2093 C 196.492 -4.24293 -4.75662 0
M  V30 2094 C 194.179 -3.58237 -4.95086 0
M  V30 2095 C 195.177 -4.54137 -5.10146 0
M  V30 2096 O 194.865 -5.78014 -5.58708 0
M  V30 2097 H 194.597 -0.201953 -0.645129 0
M  V30 2098 H 197.151 -1.20076 -1.66646 0
M  V30 2099 H 195.381 0.0990616 -3.86573 0
M  V30 2100 H 197.07 -0.277338 -4.04951 0
M  V30 2101 H 197.836 -2.76001 -3.98809 0
M  V30 2102 H 193.715 -1.5824 -4.32991 0
M  V30 2103 H 197.259 -4.99153 -4.87332 0
M  V30 2104 H 193.156 -3.80491 -5.21437 0
M  V30 2105 H 193.924 -5.8049 -5.77039 0
M  V30 2106 N 196.587 1.43421 -0.653314 0
M  V30 2107 C 197.835 2.01414 -0.166415 0
M  V30 2108 C 198.156 1.51803 1.22397 0
M  V30 2109 O 197.426 0.730693 1.81763 0
M  V30 2110 H 196.006 0.744703 -0.0585319 0
M  V30 2111 H 198.668 1.75629 -0.845003 0
M  V30 2112 H 197.764 3.11734 -0.151111 0
M  V30 2113 N 198.065 0.39524 1.52563 0
M  V30 2114 C 199.476 -0.0774719 1.86539 0
M  V30 2115 C 199.827 -1.45641 1.31466 0
M  V30 2116 O 198.952 -2.06459 0.648367 0
M  V30 2117 C 199.547 -0.147356 3.38479 0
M  V30 2118 C 198.106 -0.564373 3.72145 0
M  V30 2119 C 197.253 0.269919 2.75983 0
M  V30 2120 H 200.204 0.612876 1.46388 0
M  V30 2121 H 200.225 -0.965343 3.68051 0
M  V30 2122 H 199.737 0.856387 3.78534 0
M  V30 2123 H 197.838 -1.57527 3.37663 0
M  V30 2124 H 197.951 -0.318402 4.78041 0
M  V30 2125 H 196.315 -0.265696 2.5331 0
M  V30 2126 H 197.098 1.27175 3.18875 0
M  V30 2127 N 199.544 -1.57102 0.125237 0
M  V30 2128 C 200.792 -1.95021 -0.530198 0
M  V30 2129 C 201.113 -1.00982 -1.66816 0
M  V30 2130 O 200.383 -0.0672693 -1.95784 0
M  V30 2131 H 198.963 -0.720046 -0.198853 0
M  V30 2132 H 201.625 -1.93916 0.19564 0
M  V30 2133 H 200.721 -2.98211 -0.920681 0
M  V30 2134 N 201.022 0.148545 -1.56898 0
M  V30 2135 C 202.268 0.857877 -1.84424 0
M  V30 2136 C 202.623 1.7886 -0.709006 0
M  V30 2137 O 201.916 1.89344 0.293139 0
M  V30 2138 C 202.11 1.67064 -3.1595 0
M  V30 2139 C 201.939 0.82011 -4.42159 0
M  V30 2140 C 200.709 0.486328 -5.02954 0
M  V30 2141 C 202.907 0.151155 -5.14078 0
M  V30 2142 N 200.889 -0.377956 -6.12735 0
M  V30 2143 C 202.26 -0.573333 -6.17343 0
M  V30 2144 C 204.315 0.0716685 -4.97848 0
M  V30 2145 C 203.018 -1.3698 -7.06137 0
M  V30 2146 C 205.044 -0.711532 -5.87104 0
M  V30 2147 C 204.406 -1.42431 -6.8985 0
M  V30 2148 H 200.505 0.291798 -0.725519 0
M  V30 2149 H 203.089 0.123347 -1.94309 0
M  V30 2150 H 201.26 2.37642 -3.07215 0
M  V30 2151 H 202.992 2.32302 -3.31388 0
M  V30 2152 H 199.747 0.821753 -4.66416 0
M  V30 2153 H 200.171 -0.801077 -6.72244 0
M  V30 2154 H 204.813 0.608381 -4.184 0
M  V30 2155 H 202.531 -1.91778 -7.85014 0
M  V30 2156 H 206.117 -0.775005 -5.76615 0
M  V30 2157 H 204.997 -2.02061 -7.57721 0
M  V30 2158 N 202.5 1.5196 0.417844 0
M  V30 2159 C 203.746 1.65836 1.16732 0
M  V30 2160 C 204.079 0.382881 1.90388 0
M  V30 2161 O 203.354 -0.618368 1.84408 0
M  V30 2162 C 203.637 2.87466 2.16876 0
M  V30 2163 C 203.49 4.25041 1.47174 0
M  V30 2164 C 204.809 3.04613 3.17646 0
M  V30 2165 H 201.928 0.603515 0.423011 0
M  V30 2166 H 204.57 1.84494 0.454105 0
M  V30 2167 H 202.72 2.71689 2.777 0
M  V30 2168 H 204.392 4.52527 0.895376 0
M  V30 2169 H 202.635 4.26843 0.773806 0
M  V30 2170 H 203.306 5.06176 2.20204 0
M  V30 2171 H 205.782 3.1923 2.66892 0
M  V30 2172 H 204.658 3.91247 3.8499 0
M  V30 2173 H 204.919 2.17541 3.84874 0
M  V30 2174 N 203.978 -0.674533 1.42435 0
M  V30 2175 C 205.203 -1.46784 1.46524 0
M  V30 2176 C 205.628 -1.87938 0.078066 0
M  V30 2177 O 204.986 -1.56014 -0.92354 0
M  V30 2178 C 205.034 -2.69307 2.39805 0
M  V30 2179 O 204.138 -3.67587 1.86959 0
M  V30 2180 H 203.479 -0.440959 0.496439 0
M  V30 2181 H 206.009 -0.827326 1.87127 0
M  V30 2182 H 206.019 -3.17374 2.56393 0
M  V30 2183 H 204.694 -2.38692 3.40586 0
M  V30 2184 H 203.271 -3.2662 1.79927 0
M  V30 2185 N 205.456 -1.28612 -0.910864 0
M  V30 2186 C 206.389 -1.07109 -2.01502 0
M  V30 2187 C 207.367 0.013706 -1.62594 0
M  V30 2188 O 208.551 -0.134796 -1.88017 0
M  V30 2189 C 205.678 -0.628255 -3.32822 0
M  V30 2190 C 204.724 -1.71012 -3.90714 0
M  V30 2191 S 205.557 -3.30676 -4.21205 0
M  V30 2192 C 206.713 -2.88234 -5.55583 0
M  V30 2193 H 206.946 -2.00591 -2.19432 0
M  V30 2194 H 204.479 -1.12633 -1.05609 0
M  V30 2195 H 206.437 -0.37946 -4.08742 0
M  V30 2196 H 205.098 0.28678 -3.12788 0
M  V30 2197 H 204.291 -1.35195 -4.85529 0
M  V30 2198 H 203.893 -1.91186 -3.21441 0
M  V30 2199 H 206.185 -2.34584 -6.35591 0
M  V30 2200 H 207.128 -3.81857 -5.96314 0
M  V30 2201 H 207.536 -2.26862 -5.16908 0
M  V30 2202 N 206.934 1.1197 -1.10907 0
M  V30 2203 C 207.897 2.16031 -0.765707 0
M  V30 2204 C 208.897 1.59393 0.212235 0
M  V30 2205 O 210.087 1.74196 -0.0115441 0
M  V30 2206 C 207.219 3.40632 -0.135053 0
M  V30 2207 H 208.412 2.47919 -1.68748 0
M  V30 2208 H 205.965 1.27061 -0.910226 0
M  V30 2209 H 206.7 3.14348 0.797218 0
M  V30 2210 H 206.485 3.8302 -0.838937 0
M  V30 2211 H 207.975 4.17505 0.0892469 0
M  V30 2212 N 208.412 0.89855 1.29475 0
M  V30 2213 C 209.36 0.365253 2.29714 0
M  V30 2214 C 210.354 -0.534993 1.6073 0
M  V30 2215 O 211.56 -0.417921 1.75081 0
M  V30 2216 H 207.935 0.0994853 0.74539 0
M  V30 2217 H 209.906 1.22406 2.72138 0
M  V30 2218 C 208.655 -0.393159 3.4547 0
M  V30 2219 H 207.978 0.290332 3.98744 0
M  V30 2220 H 209.418 -0.731189 4.17648 0
M  V30 2221 C 207.877 -1.59539 2.9673 0
M  V30 2222 O 208.407 -2.69469 2.97908 0
M  V30 2223 N 206.613 -1.43716 2.52575 0
M  V30 2224 H 206.16 -0.542828 2.51816 0
M  V30 2225 H 206.118 -2.24288 2.20323 0
M  V30 2226 N 209.89 -1.43072 0.660911 0
M  V30 2227 C 210.853 -2.29194 -0.0166406 0
M  V30 2228 C 211.853 -1.42609 -0.742912 0
M  V30 2229 O 213.043 -1.64155 -0.583004 0
M  V30 2230 C 210.175 -3.24831 -1.0343 0
M  V30 2231 H 211.368 -2.90596 0.741208 0
M  V30 2232 H 208.921 -1.5048 0.422532 0
M  V30 2233 H 209.656 -2.68339 -1.82111 0
M  V30 2234 H 209.441 -3.88676 -0.517082 0
M  V30 2235 H 210.931 -3.89451 -1.50723 0
M  V30 2236 N 211.368 -0.403325 -1.52352 0
M  V30 2237 C 212.616 0.174003 -2.0135 0
M  V30 2238 C 212.937 1.46139 -1.29106 0
M  V30 2239 O 212.207 1.91448 -0.415253 0
M  V30 2240 H 210.787 0.0672911 -0.743963 0
M  V30 2241 H 213.449 -0.538235 -1.87321 0
M  V30 2242 H 212.545 0.374254 -3.09848 0
M  V30 2243 N 212.846 1.57033 -0.133567 0
M  V30 2244 C 213.793 2.16074 0.811208 0
M  V30 2245 C 214.763 1.08979 1.2535 0
M  V30 2246 O 215.948 1.36958 1.32843 0
M  V30 2247 C 213.088 2.77595 2.05024 0
M  V30 2248 C 212.201 3.99042 1.65498 0
M  V30 2249 C 211.336 4.48603 2.84479 0
M  V30 2250 C 210.375 5.62547 2.41262 0
M  V30 2251 N 209.512 6.06787 3.53206 0
M  V30 2252 H 214.352 2.96477 0.300906 0
M  V30 2253 H 211.889 1.46462 0.136822 0
M  V30 2254 H 213.847 3.11402 2.77642 0
M  V30 2255 H 212.477 1.99859 2.53488 0
M  V30 2256 H 211.529 3.71302 0.826981 0
M  V30 2257 H 212.841 4.81629 1.29748 0
M  V30 2258 H 211.995 4.84395 3.65303 0
M  V30 2259 H 210.734 3.64995 3.23465 0
M  V30 2260 H 209.739 5.26345 1.58874 0
M  V30 2261 H 210.964 6.47931 2.03377 0
M  V30 2262 H 208.91 5.26117 3.91838 0
M  V30 2263 H 208.827 6.84266 3.21427 0
M  V30 2264 H 210.095 6.4722 4.34427 0
M  V30 2265 N 214.325 -0.140222 1.56975 0
M  V30 2266 C 215.602 -0.880769 1.74648 0
M  V30 2267 C 215.982 -1.99036 0.703404 0
M  V30 2268 O 215.33 -2.26821 -0.27648 0
M  V30 2269 C 215.54 -1.417 3.18939 0
M  V30 2270 C 216.888 -1.87774 3.80823 0
M  V30 2271 O 217.912 -1.51427 3.2241 0
M  V30 2272 O 216.771 -2.54827 4.83452 0
M  V30 2273 H 213.865 -0.416713 0.714338 0
M  V30 2274 H 216.411 -0.125618 1.69234 0
M  V30 2275 H 215.183 -0.619902 3.86359 0
M  V30 2276 H 214.806 -2.23546 3.28805 0
M  V30 2277 N 215.803 -1.52179 -0.40978 0
M  V30 2278 C 217.031 -1.70054 -1.17853 0
M  V30 2279 C 217.446 -0.409735 -1.843 0
M  V30 2280 O 216.803 0.614183 -1.71855 0
M  V30 2281 C 216.854 -2.83568 -2.24213 0
M  V30 2282 O 216.575 -4.0765 -1.60478 0
M  V30 2283 C 218.076 -3.12947 -3.13973 0
M  V30 2284 H 215.296 -0.569917 -0.354169 0
M  V30 2285 H 217.84 -1.98734 -0.482198 0
M  V30 2286 H 215.995 -2.57409 -2.89516 0
M  V30 2287 H 216.409 -4.70899 -2.30986 0
M  V30 2288 H 217.883 -3.95889 -3.84677 0
M  V30 2289 H 218.36 -2.26472 -3.76307 0
M  V30 2290 H 218.966 -3.40868 -2.5434 0
M  V30 2291 N 217.281 0.66697 -1.42791 0
M  V30 2292 C 218.229 1.80157 -1.47127 0
M  V30 2293 C 219.223 1.65825 -0.346199 0
M  V30 2294 O 220.429 1.72338 -0.519572 0
M  V30 2295 H 216.804 0.594158 -0.460956 0
M  V30 2296 H 218.775 1.73619 -2.42692 0
M  V30 2297 C 217.524 3.18351 -1.39813 0
M  V30 2298 H 216.847 3.3001 -2.25684 0
M  V30 2299 H 218.287 3.97736 -1.46908 0
M  V30 2300 C 216.746 3.36707 -0.11391 0
M  V30 2301 O 217.276 3.93027 0.830241 0
M  V30 2302 N 215.482 2.90586 -0.0285295 0
M  V30 2303 H 215.029 2.4494 -0.79764 0
M  V30 2304 H 214.987 3.03245 0.830063 0
M  V30 2305 N 218.759 1.29093 0.90403 0
M  V30 2306 C 220.007 1.16583 1.65085 0
M  V30 2307 C 220.328 -0.283933 1.92922 0
M  V30 2308 O 219.598 -1.19509 1.55224 0
M  V30 2309 H 218.178 0.428467 0.611903 0
M  V30 2310 H 220.84 1.61959 1.08422 0
M  V30 2311 H 219.936 1.71266 2.6091 0
M  V30 2312 N 220.237 -1.11381 1.11499 0
M  V30 2313 C 221.462 -1.87475 0.887019 0
M  V30 2314 C 221.887 -1.79639 -0.557796 0
M  V30 2315 O 221.245 -1.15924 -1.39396 0
M  V30 2316 C 221.293 -3.34213 1.35403 0
M  V30 2317 O 220.397 -4.0903 0.526146 0
M  V30 2318 H 219.738 -0.582099 0.319463 0
M  V30 2319 H 222.268 -1.40785 1.48461 0
M  V30 2320 H 222.278 -3.8506 1.34881 0
M  V30 2321 H 220.953 -3.39232 2.40612 0
M  V30 2322 H 219.53 -3.68082 0.597522 0
M  V30 2323 N 221.715 -0.905404 -1.28997 0
M  V30 2324 C 222.647 -0.344748 -2.26592 0
M  V30 2325 C 223.66 0.512135 -1.54535 0
M  V30 2326 O 224.849 0.328368 -1.75454 0
M  V30 2327 C 221.949 0.526587 -3.34784 0
M  V30 2328 C 221.122 -0.305871 -4.36329 0
M  V30 2329 C 220.181 0.499209 -5.23827 0
M  V30 2330 O 219.207 -0.0853004 -5.69136 0
M  V30 2331 N 220.409 1.80408 -5.51755 0
M  V30 2332 H 223.174 -1.18359 -2.75338 0
M  V30 2333 H 220.735 -0.770481 -1.42391 0
M  V30 2334 H 222.727 1.07171 -3.90252 0
M  V30 2335 H 221.297 1.26613 -2.85811 0
M  V30 2336 H 220.517 -1.0324 -3.80441 0
M  V30 2337 H 221.805 -0.875773 -5.01206 0
M  V30 2338 H 221.203 2.3016 -5.16762 0
M  V30 2339 H 219.76 2.29621 -6.10014 0
M  V30 2340 N 223.193 1.4272 -0.668489 0
M  V30 2341 C 224.44 2.01624 -0.18814 0
M  V30 2342 C 224.768 1.5282 1.20317 0
M  V30 2343 O 224.023 0.718323 1.8204 0
M  V30 2344 C 224.322 3.57021 -0.164499 0
M  V30 2345 C 223.988 4.25232 -1.49962 0
M  V30 2346 C 222.65 4.4358 -1.8652 0
M  V30 2347 C 225.002 4.63727 -2.37921 0
M  V30 2348 C 222.33 4.97694 -3.10674 0
M  V30 2349 C 224.682 5.19218 -3.6138 0
M  V30 2350 C 223.346 5.3578 -3.98115 0
M  V30 2351 H 222.616 0.737795 -0.0688454 0
M  V30 2352 H 225.263 1.70991 -0.862225 0
M  V30 2353 H 223.568 3.87285 0.593079 0
M  V30 2354 H 225.265 4.00372 0.224271 0
M  V30 2355 H 221.855 4.11306 -1.20522 0
M  V30 2356 H 226.039 4.4923 -2.10964 0
M  V30 2357 H 221.295 5.08702 -3.39164 0
M  V30 2358 H 225.469 5.4799 -4.29743 0
M  V30 2359 H 223.096 5.77475 -4.94395 0
M  V30 2360 N 224.671 0.411399 1.52136 0
M  V30 2361 C 225.918 -0.163645 2.01838 0
M  V30 2362 C 226.246 -1.4495 1.29691 0
M  V30 2363 O 225.501 -1.91725 0.392431 0
M  V30 2364 C 225.8 -0.455872 3.54481 0
M  V30 2365 C 225.466 0.741055 4.44769 0
M  V30 2366 C 224.128 1.06936 4.69167 0
M  V30 2367 C 226.48 1.54075 4.97906 0
M  V30 2368 C 223.808 2.19851 5.43951 0
M  V30 2369 C 226.16 2.66067 5.73926 0
M  V30 2370 C 224.824 2.99381 5.96596 0
M  V30 2371 H 224.094 -0.0598821 0.738576 0
M  V30 2372 H 226.741 0.553283 1.83333 0
M  V30 2373 H 225.046 -1.2544 3.71177 0
M  V30 2374 H 226.743 -0.913802 3.90449 0
M  V30 2375 H 223.333 0.475192 4.25958 0
M  V30 2376 H 227.517 1.30033 4.78963 0
M  V30 2377 H 222.773 2.46006 5.59724 0
M  V30 2378 H 226.947 3.28419 6.14096 0
M  V30 2379 H 224.574 3.86992 6.54325 0
M  V30 2380 N 226.149 -1.5696 0.141893 0
M  V30 2381 C 227.398 -1.95135 -0.510427 0
M  V30 2382 C 227.711 -1.02896 -1.66348 0
M  V30 2383 O 228.917 -1.30629 -2.38009 0
M  V30 2384 C 227.373 -3.46876 -0.959427 0
M  V30 2385 C 226.981 -4.47691 0.166419 0
M  V30 2386 C 228.725 -3.93927 -1.58183 0
M  V30 2387 C 226.632 -5.90636 -0.300565 0
M  V30 2388 H 225.562 -0.728494 -0.194454 0
M  V30 2389 H 228.213 -1.8211 0.22542 0
M  V30 2390 H 226.595 -3.55215 -1.75038 0
M  V30 2391 H 227.769 -4.51043 0.94325 0
M  V30 2392 H 226.084 -4.10527 0.696905 0
M  V30 2393 H 228.681 -4.98158 -1.94275 0
M  V30 2394 H 229.024 -3.3519 -2.46888 0
M  V30 2395 H 229.557 -3.88484 -0.855863 0
M  V30 2396 H 226.296 -6.5318 0.550989 0
M  V30 2397 H 225.816 -5.90655 -1.04338 0
M  V30 2398 H 227.495 -6.42588 -0.754265 0
M  V30 2399 N 227.627 0.131896 -1.57047 0
M  V30 2400 C 228.855 0.856461 -1.88341 0
M  V30 2401 C 229.27 1.74042 -0.731757 0
M  V30 2402 O 228.627 1.80051 0.297945 0
M  V30 2403 C 228.678 1.70064 -3.18999 0
M  V30 2404 O 228.399 0.852278 -4.2973 0
M  V30 2405 C 229.9 2.53148 -3.63911 0
M  V30 2406 H 227.12 0.246885 -0.62393 0
M  V30 2407 H 229.664 0.120152 -2.04147 0
M  V30 2408 H 227.819 2.38984 -3.04902 0
M  V30 2409 H 228.233 1.43329 -5.04537 0
M  V30 2410 H 229.707 3.07931 -4.58129 0
M  V30 2411 H 230.184 3.29901 -2.89935 0
M  V30 2412 H 230.79 1.89492 -3.80753 0
M  V30 2413 N 229.106 1.52395 0.401703 0
M  V30 2414 C 230.334 1.70676 1.16949 0
M  V30 2415 C 230.749 0.419503 1.8408 0
M  V30 2416 O 230.106 -0.605061 1.72178 0
M  V30 2417 C 230.157 2.84753 2.22706 0
M  V30 2418 O 229.878 4.08495 1.58314 0
M  V30 2419 C 231.379 3.14608 3.12309 0
M  V30 2420 H 228.599 0.571787 0.351142 0
M  V30 2421 H 231.143 1.98987 0.471652 0
M  V30 2422 H 229.298 2.58941 2.88147 0
M  V30 2423 H 229.712 4.72117 2.28485 0
M  V30 2424 H 231.186 3.97923 3.82572 0
M  V30 2425 H 231.663 2.28464 3.75101 0
M  V30 2426 H 232.269 3.42212 2.52529 0
M  V30 2427 N 230.584 -0.659388 1.43143 0
M  V30 2428 C 231.83 -1.42145 1.44647 0
M  V30 2429 C 232.163 -1.9408 0.0681907 0
M  V30 2430 O 231.438 -1.71899 -0.910007 0
M  V30 2431 C 231.721 -2.60735 2.48373 0
M  V30 2432 C 231.574 -2.14332 3.95451 0
M  V30 2433 C 232.893 -3.62951 2.48906 0
M  V30 2434 H 230.012 -0.51552 0.526696 0
M  V30 2435 H 232.654 -0.748069 1.74654 0
M  V30 2436 H 230.804 -3.18184 2.22916 0
M  V30 2437 H 232.476 -1.61932 4.31944 0
M  V30 2438 H 230.719 -1.4576 4.08578 0
M  V30 2439 H 231.39 -2.99583 4.63631 0
M  V30 2440 H 233.866 -3.1525 2.71582 0
M  V30 2441 H 232.742 -4.43487 3.23435 0
M  V30 2442 H 233.003 -4.15126 1.52061 0
M  V30 2443 N 232.062 -1.29571 -0.897171 0
M  V30 2444 C 233.009 -1.14916 -2.00158 0
M  V30 2445 C 233.979 -0.0418149 -1.66047 0
M  V30 2446 O 235.164 -0.209793 -1.89643 0
M  V30 2447 C 232.304 -0.834307 -3.34863 0
M  V30 2448 C 231.417 -2.02234 -3.8174 0
M  V30 2449 C 230.552 -1.64664 -5.05034 0
M  V30 2450 C 229.591 -2.80033 -5.44286 0
M  V30 2451 N 228.728 -2.42843 -6.58765 0
M  V30 2452 H 233.568 -2.09403 -2.12025 0
M  V30 2453 H 231.105 -1.042 -1.0383 0
M  V30 2454 H 233.063 -0.632436 -4.12379 0
M  V30 2455 H 231.693 0.0736656 -3.22716 0
M  V30 2456 H 230.745 -2.33583 -3.00238 0
M  V30 2457 H 232.057 -2.88673 -4.06779 0
M  V30 2458 H 231.211 -1.4078 -5.9014 0
M  V30 2459 H 229.95 -0.753766 -4.8184 0
M  V30 2460 H 228.955 -3.04596 -4.57713 0
M  V30 2461 H 230.18 -3.69989 -5.6946 0
M  V30 2462 H 228.126 -1.56046 -6.3717 0
M  V30 2463 H 228.043 -3.22815 -6.83613 0
M  V30 2464 H 229.311 -2.22285 -7.47134 0
M  V30 2465 N 233.54 1.10788 -1.12088 0
M  V30 2466 C 234.768 1.86461 -0.896651 0
M  V30 2467 C 235.183 1.80492 0.553912 0
M  V30 2468 O 234.54 1.19102 1.38278 0
M  V30 2469 C 234.591 3.35006 -1.35843 0
M  V30 2470 O 234.312 3.40866 -2.75213 0
M  V30 2471 C 235.813 4.27565 -1.1706 0
M  V30 2472 H 233.033 0.589425 -0.320654 0
M  V30 2473 H 235.577 1.40076 -1.48993 0
M  V30 2474 H 233.732 3.7887 -0.808458 0
M  V30 2475 H 234.146 4.33411 -2.9539 0
M  V30 2476 H 235.62 5.30007 -1.54263 0
M  V30 2477 H 236.097 4.3906 -0.110814 0
M  V30 2478 H 236.703 3.89501 -1.70789 0
M  V30 2479 N 235.018 0.912232 1.28515 0
M  V30 2480 C 235.981 0.404223 2.25607 0
M  V30 2481 C 236.981 -0.468602 1.53821 0
M  V30 2482 O 238.171 -0.271873 1.72065 0
M  V30 2483 C 235.303 -0.420653 3.38295 0
M  V30 2484 H 236.496 1.26188 2.7206 0
M  V30 2485 H 234.049 0.691495 1.40171 0
M  V30 2486 H 234.784 -1.29777 2.97201 0
M  V30 2487 H 234.569 0.204935 3.91564 0
M  V30 2488 H 236.059 -0.766971 4.10496 0
M  V30 2489 N 236.496 -1.42363 0.676048 0
M  V30 2490 C 237.742 -2.02336 0.207809 0
M  V30 2491 C 238.097 -1.52506 -1.17302 0
M  V30 2492 O 237.39 -0.718048 -1.77636 0
M  V30 2493 C 237.584 -3.56929 0.183431 0
M  V30 2494 C 237.413 -4.21762 1.56036 0
M  V30 2495 C 236.183 -4.56881 2.15842 0
M  V30 2496 C 238.381 -4.49267 2.50327 0
M  V30 2497 N 236.363 -5.069 3.46303 0
M  V30 2498 C 237.734 -5.00851 3.65443 0
M  V30 2499 C 239.789 -4.31257 2.48841 0
M  V30 2500 C 238.492 -5.36317 4.79329 0
M  V30 2501 C 240.518 -4.678 3.61824 0
M  V30 2502 C 239.88 -5.19537 4.75668 0
M  V30 2503 H 235.979 -0.772583 0.120993 0
M  V30 2504 H 238.563 -1.73203 0.889306 0
M  V30 2505 H 236.734 -3.85576 -0.467483 0
M  V30 2506 H 238.466 -4.03603 -0.297808 0
M  V30 2507 H 235.221 -4.4268 1.68319 0
M  V30 2508 H 235.645 -5.36338 4.13123 0
M  V30 2509 H 240.287 -3.90511 1.62051 0
M  V30 2510 H 238.005 -5.75995 5.66794 0
M  V30 2511 H 241.591 -4.55541 3.61903 0
M  V30 2512 H 240.471 -5.47287 5.61646 0
M  V30 2513 N 237.974 -0.419461 -1.51915 0
M  V30 2514 C 238.904 0.391813 -2.30189 0
M  V30 2515 C 239.885 1.03699 -1.34836 0
M  V30 2516 O 241.07 1.04403 -1.63748 0
M  V30 2517 C 238.2 1.50312 -3.13087 0
M  V30 2518 C 237.154 0.9824 -4.16573 0
M  V30 2519 C 236.48 2.18809 -4.8788 0
M  V30 2520 C 237.78 0.0292356 -5.22292 0
M  V30 2521 H 239.474 -0.26135 -2.98257 0
M  V30 2522 H 237.02 -0.127134 -1.43438 0
M  V30 2523 H 238.973 2.07773 -3.66617 0
M  V30 2524 H 237.697 2.18431 -2.42807 0
M  V30 2525 H 236.356 0.430119 -3.64068 0
M  V30 2526 H 236.004 2.85507 -4.14119 0
M  V30 2527 H 235.704 1.84615 -5.57845 0
M  V30 2528 H 237.228 2.76858 -5.44226 0
M  V30 2529 H 238.642 0.512976 -5.71 0
M  V30 2530 H 237.039 -0.2244 -5.9968 0
M  V30 2531 H 238.109 -0.912931 -4.76228 0
M  V30 2532 N 239.452 1.56882 -0.150215 0
M  V30 2533 C 240.729 1.87844 0.545327 0
M  V30 2534 C 241.109 1.0567 1.82749 0
M  V30 2535 O 240.457 0.144442 2.28043 0
M  V30 2536 C 240.667 3.39526 0.80767 0
M  V30 2537 C 242.015 4.08814 1.14703 0
M  V30 2538 O 243.039 3.44723 0.896917 0
M  V30 2539 O 241.898 5.22004 1.61784 0
M  V30 2540 H 238.992 0.778677 0.278553 0
M  V30 2541 H 241.538 1.68666 -0.187068 0
M  V30 2542 H 240.31 3.91173 -0.0996096 0
M  V30 2543 H 239.933 3.64243 1.59413 0
M  V30 2544 N 240.93 -0.123565 1.57115 0
M  V30 2545 C 242.178 -0.83051 1.84247 0
M  V30 2546 C 242.499 -1.80629 0.73471 0
M  V30 2547 O 241.769 -1.94403 -0.241688 0
M  V30 2548 H 240.349 -0.309694 0.679778 0
M  V30 2549 H 243.011 -0.111976 1.94578 0
M  V30 2550 H 242.107 -1.37852 2.80006 0
M  V30 2551 N 242.408 -1.52605 -0.393616 0
M  V30 2552 C 243.355 -1.77055 -1.48054 0
M  V30 2553 C 244.325 -0.61358 -1.54352 0
M  V30 2554 O 245.51 -0.852806 -1.70681 0
M  V30 2555 C 242.65 -1.94108 -2.85335 0
M  V30 2556 C 241.763 -3.21792 -2.88226 0
M  V30 2557 C 240.898 -3.29188 -4.16904 0
M  V30 2558 C 239.937 -4.51013 -4.13828 0
M  V30 2559 N 239.074 -4.55716 -5.34105 0
M  V30 2560 H 243.914 -2.69815 -1.26506 0
M  V30 2561 H 241.451 -1.33683 -0.61379 0
M  V30 2562 H 243.409 -2.01979 -3.65049 0
M  V30 2563 H 242.039 -1.04713 -3.05344 0
M  V30 2564 H 241.091 -3.23015 -2.00911 0
M  V30 2565 H 242.403 -4.11557 -2.8182 0
M  V30 2566 H 241.557 -3.36216 -5.05018 0
M  V30 2567 H 240.296 -2.37389 -4.26026 0
M  V30 2568 H 239.301 -4.44115 -3.24102 0
M  V30 2569 H 240.526 -5.44123 -4.06333 0
M  V30 2570 H 238.472 -3.66807 -5.43865 0
M  V30 2571 H 238.389 -5.39346 -5.29756 0
M  V30 2572 H 239.657 -4.66993 -6.2413 0
M  V30 2573 N 243.887 0.651787 -1.4349 0
M  V30 2574 C 244.837 1.75783 -1.45205 0
M  V30 2575 C 245.821 1.57679 -0.320328 0
M  V30 2576 O 247.013 1.67767 -0.564211 0
M  V30 2577 C 244.142 3.14377 -1.3792 0
M  V30 2578 C 243.228 3.38023 -2.56127 0
M  V30 2579 N 243.619 3.32135 -3.81471 0
M  V30 2580 C 241.917 3.68747 -2.50882 0
M  V30 2581 C 242.618 3.55902 -4.60118 0
M  V30 2582 N 241.594 3.77783 -3.90872 0
M  V30 2583 H 245.396 1.69657 -2.39987 0
M  V30 2584 H 242.91 0.853508 -1.38163 0
M  V30 2585 H 244.907 3.93666 -1.37231 0
M  V30 2586 H 243.567 3.21683 -0.441596 0
M  V30 2587 H 244.578 3.11515 -4.13738 0
M  V30 2588 H 241.255 3.8316 -1.65816 0
M  V30 2589 H 242.645 3.57116 -5.69138 0
M  V30 2590 N 245.365 1.30045 0.890287 0
M  V30 2591 C 246.611 1.18737 1.64406 0
M  V30 2592 C 246.944 -0.258525 1.92472 0
M  V30 2593 O 246.219 -1.18562 1.54186 0
M  V30 2594 C 246.502 2.01087 2.98724 0
M  V30 2595 C 246.355 3.53867 2.77665 0
M  V30 2596 C 247.674 1.84457 3.9958 0
M  V30 2597 H 244.793 0.432698 0.596608 0
M  V30 2598 H 247.435 1.5962 1.0306 0
M  V30 2599 H 245.585 1.66349 3.51084 0
M  V30 2600 H 247.257 3.98637 2.32133 0
M  V30 2601 H 245.5 3.78318 2.12269 0
M  V30 2602 H 246.171 4.06772 3.7315 0
M  V30 2603 H 248.647 2.14817 3.56361 0
M  V30 2604 H 247.523 2.44411 4.91482 0
M  V30 2605 H 247.784 0.802276 4.3476 0
M  V30 2606 N 246.843 -1.10192 1.12674 0
M  V30 2607 C 248.089 -1.82475 0.884915 0
M  V30 2608 C 248.422 -1.85093 -0.58773 0
M  V30 2609 O 247.697 -1.3134 -1.43457 0
M  V30 2610 C 247.98 -3.29018 1.46353 0
M  V30 2611 C 247.833 -3.34718 3.00473 0
M  V30 2612 C 249.152 -4.25473 1.12519 0
M  V30 2613 H 246.271 -0.662492 0.322915 0
M  V30 2614 H 248.913 -1.2913 1.39375 0
M  V30 2615 H 247.063 -3.74576 1.03077 0
M  V30 2616 H 248.735 -2.97622 3.52447 0
M  V30 2617 H 246.978 -2.74541 3.35872 0
M  V30 2618 H 247.649 -4.37918 3.36053 0
M  V30 2619 H 250.125 -3.88161 1.499 0
M  V30 2620 H 249.001 -5.26365 1.55663 0
M  V30 2621 H 249.262 -4.42084 0.0377407 0
M  V30 2622 N 248.321 -0.919034 -1.28029 0
M  V30 2623 C 249.568 -0.554934 -1.94748 0
M  V30 2624 C 249.896 0.90231 -1.72304 0
M  V30 2625 O 249.151 1.65767 -1.04018 0
M  V30 2626 C 249.45 -0.816855 -3.4794 0
M  V30 2627 C 249.116 -2.25448 -3.90492 0
M  V30 2628 C 247.778 -2.64752 -4.01821 0
M  V30 2629 C 250.13 -3.18977 -4.12193 0
M  V30 2630 C 247.458 -3.96727 -4.32232 0
M  V30 2631 C 249.81 -4.50523 -4.44086 0
M  V30 2632 C 248.474 -4.89673 -4.53626 0
M  V30 2633 H 247.744 -0.203065 -0.712633 0
M  V30 2634 H 250.391 -1.16136 -1.52265 0
M  V30 2635 H 248.696 -0.127677 -3.91592 0
M  V30 2636 H 250.393 -0.514238 -3.97689 0
M  V30 2637 H 246.983 -1.93952 -3.82205 0
M  V30 2638 H 251.167 -2.89817 -4.02889 0
M  V30 2639 H 246.423 -4.26754 -4.37825 0
M  V30 2640 H 250.597 -5.23005 -4.59825 0
M  V30 2641 H 248.224 -5.91969 -4.76946 0
M  V30 2642 N 249.799 1.42003 -0.683588 0
M  V30 2643 C 251.047 2.01015 -0.209101 0
M  V30 2644 C 251.368 1.54365 1.19149 0
M  V30 2645 O 250.638 0.769083 1.80172 0
M  V30 2646 H 249.218 0.743294 -0.074315 0
M  V30 2647 H 251.88 1.73798 -0.882066 0
M  V30 2648 H 250.976 3.11343 -0.2172 0
M  V30 2649 N 251.277 0.427512 1.51691 0
M  V30 2650 C 252.224 -0.388867 2.275 0
M  V30 2651 C 253.194 -1.02532 1.30677 0
M  V30 2652 O 254.379 -1.0461 1.59566 0
M  V30 2653 C 251.519 -1.48954 3.11298 0
M  V30 2654 C 250.632 -0.872194 4.23104 0
M  V30 2655 C 249.767 -1.94709 4.94228 0
M  V30 2656 C 248.806 -1.30766 5.97969 0
M  V30 2657 N 247.943 -2.32349 6.62539 0
M  V30 2658 H 252.783 0.263997 2.96828 0
M  V30 2659 H 250.32 0.142033 1.46413 0
M  V30 2660 H 252.278 -2.13887 3.58201 0
M  V30 2661 H 250.908 -2.11217 2.44105 0
M  V30 2662 H 249.96 -0.111419 3.80237 0
M  V30 2663 H 251.272 -0.365264 4.97461 0
M  V30 2664 H 250.426 -2.67327 5.44629 0
M  V30 2665 H 249.165 -2.48773 4.1948 0
M  V30 2666 H 248.17 -0.566902 5.4687 0
M  V30 2667 H 249.395 -0.774483 6.74669 0
M  V30 2668 H 247.341 -2.85511 5.90609 0
M  V30 2669 H 247.258 -1.8652 7.3263 0
M  V30 2670 H 248.526 -3.04481 7.17574 0
M  V30 2671 N 252.755 -1.56801 0.158532 0
M  V30 2672 C 254.001 -1.96781 -0.490405 0
M  V30 2673 C 254.334 -1.04397 -1.63753 0
M  V30 2674 O 253.609 -0.0885805 -1.94298 0
M  V30 2675 C 253.892 -3.4635 -0.985594 0
M  V30 2676 C 253.745 -4.49512 0.160824 0
M  V30 2677 C 255.064 -3.98697 -1.86355 0
M  V30 2678 H 252.183 -0.715482 -0.176788 0
M  V30 2679 H 254.825 -1.88451 0.242088 0
M  V30 2680 H 252.975 -3.53579 -1.60978 0
M  V30 2681 H 254.647 -4.54353 0.797537 0
M  V30 2682 H 252.89 -4.26013 0.818256 0
M  V30 2683 H 253.561 -5.51531 -0.227569 0
M  V30 2684 H 256.037 -3.94019 -1.33746 0
M  V30 2685 H 254.913 -5.03792 -2.17909 0
M  V30 2686 H 255.174 -3.41744 -2.8047 0
M  V30 2687 N 254.233 0.115231 -1.57178 0
M  V30 2688 C 255.163 1.1423 -2.03651 0
M  V30 2689 C 256.144 1.42967 -0.921655 0
M  V30 2690 O 257.329 1.53343 -1.19162 0
M  V30 2691 C 254.459 2.4675 -2.44401 0
M  V30 2692 C 253.413 2.32467 -3.59365 0
M  V30 2693 C 252.739 3.69984 -3.86026 0
M  V30 2694 C 254.039 1.78203 -4.90959 0
M  V30 2695 H 255.733 0.755749 -2.89705 0
M  V30 2696 H 253.279 0.362093 -1.39373 0
M  V30 2697 H 255.232 3.18854 -2.75517 0
M  V30 2698 H 253.956 2.87302 -1.55322 0
M  V30 2699 H 252.615 1.62811 -3.28463 0
M  V30 2700 H 252.263 4.08028 -2.94147 0
M  V30 2701 H 251.963 3.61279 -4.63412 0
M  V30 2702 H 253.487 4.43587 -4.19599 0
M  V30 2703 H 254.901 2.40128 -5.20587 0
M  V30 2704 H 253.298 1.8031 -5.72371 0
M  V30 2705 H 254.368 0.739876 -4.79222 0
M  V30 2706 N 255.711 1.52812 0.385517 0
M  V30 2707 C 256.621 1.80766 1.49535 0
M  V30 2708 C 257.637 0.694651 1.59532 0
M  V30 2709 O 258.813 0.982611 1.75803 0
M  V30 2710 C 255.878 1.97381 2.85029 0
M  V30 2711 C 254.939 3.21295 2.84724 0
M  V30 2712 C 254.172 3.37108 4.13756 0
M  V30 2713 O 254.395 2.5765 5.08893 0
M  V30 2714 O 253.329 4.30378 4.20783 0
M  V30 2715 H 257.155 2.75015 1.28842 0
M  V30 2716 H 254.74 1.37946 0.573697 0
M  V30 2717 H 256.622 2.09996 3.65349 0
M  V30 2718 H 255.297 1.06322 3.05741 0
M  V30 2719 H 254.204 3.1412 2.03174 0
M  V30 2720 H 255.537 4.12212 2.68965 0
M  V30 2721 N 257.189 -0.644168 1.43834 0
M  V30 2722 C 258.437 -1.40117 1.45642 0
M  V30 2723 C 258.758 -1.94814 0.0852413 0
M  V30 2724 O 258.028 -1.74988 -0.880688 0
M  V30 2725 H 256.608 -0.52005 0.536243 0
M  V30 2726 H 259.27 -0.7591 1.7951 0
M  V30 2727 H 258.366 -2.23902 2.17427 0
M  V30 2728 N 258.668 -1.30515 -0.883378 0
M  V30 2729 C 259.601 -1.11359 -1.99184 0
M  V30 2730 C 260.579 -0.0207858 -1.62587 0
M  V30 2731 O 261.763 -0.174646 -1.87689 0
M  V30 2732 C 258.89 -0.69871 -3.31415 0
M  V30 2733 C 257.936 -1.79261 -3.86998 0
M  V30 2734 S 258.769 -3.39536 -4.14096 0
M  V30 2735 C 259.925 -2.99954 -5.49344 0
M  V30 2736 H 260.158 -2.052 -2.15128 0
M  V30 2737 H 257.691 -1.14847 -1.03196 0
M  V30 2738 H 259.649 -0.466075 -4.07846 0
M  V30 2739 H 258.31 0.220368 -3.13326 0
M  V30 2740 H 257.503 -1.45464 -4.82552 0
M  V30 2741 H 257.105 -1.97961 -3.17313 0
M  V30 2742 H 259.397 -2.48013 -6.30473 0
M  V30 2743 H 260.34 -3.9442 -5.8808 0
M  V30 2744 H 260.748 -2.37775 -5.1198 0
M  V30 2745 N 260.146 1.09593 -1.13257 0
M  V30 2746 C 261.056 2.19739 -0.821691 0
M  V30 2747 C 262.072 1.72926 0.19302 0
M  V30 2748 O 263.248 2.01385 0.0244895 0
M  V30 2749 C 260.313 3.45482 -0.290333 0
M  V30 2750 C 259.374 4.06985 -1.36607 0
M  V30 2751 C 258.607 5.26726 -0.859975 0
M  V30 2752 O 258.83 5.69594 0.303082 0
M  V30 2753 O 257.764 5.7931 -1.63351 0
M  V30 2754 H 261.59 2.48781 -1.74189 0
M  V30 2755 H 259.175 1.18496 -0.909894 0
M  V30 2756 H 261.057 4.214 0.000674022 0
M  V30 2757 H 259.732 3.18047 0.602306 0
M  V30 2758 H 258.639 3.32712 -1.71037 0
M  V30 2759 H 259.972 4.38643 -2.23279 0
M  V30 2760 N 261.624 0.925811 1.2754 0
M  V30 2761 C 262.87 0.566092 1.94739 0
M  V30 2762 C 263.203 -0.890057 1.72603 0
M  V30 2763 O 262.478 -1.63467 1.05399 0
M  V30 2764 C 262.761 0.89054 3.48915 0
M  V30 2765 C 262.614 2.4003 3.80402 0
M  V30 2766 C 263.933 0.395101 4.38323 0
M  V30 2767 H 261.052 0.20714 0.707292 0
M  V30 2768 H 263.694 1.15725 1.50691 0
M  V30 2769 H 261.844 0.387452 3.86563 0
M  V30 2770 H 263.516 2.97494 3.52555 0
M  V30 2771 H 261.759 2.85028 3.2702 0
M  V30 2772 H 262.43 2.57785 4.8811 0
M  V30 2773 H 264.906 0.826241 4.07814 0
M  V30 2774 H 263.782 0.651086 5.45025 0
M  V30 2775 H 264.043 -0.704798 4.36446 0
M  V30 2776 N 263.102 -1.41638 0.69111 0
M  V30 2777 C 264.348 -2.01598 0.220519 0
M  V30 2778 C 264.681 -1.54594 -1.17535 0
M  V30 2779 O 263.956 -0.755177 -1.79241 0
M  V30 2780 C 264.239 -3.59062 0.273243 0
M  V30 2781 C 264.092 -4.16203 1.70573 0
M  V30 2782 C 265.411 -4.38546 -0.369457 0
M  V30 2783 H 262.53 -0.732468 0.0816045 0
M  V30 2784 H 265.172 -1.68445 0.878986 0
M  V30 2785 H 263.322 -3.87435 -0.287411 0
M  V30 2786 H 264.994 -3.98722 2.31989 0
M  V30 2787 H 263.237 -3.71414 2.2413 0
M  V30 2788 H 263.908 -5.25358 1.69419 0
M  V30 2789 H 266.384 -4.1596 0.107977 0
M  V30 2790 H 265.26 -5.48069 -0.302002 0
M  V30 2791 H 265.521 -4.17662 -1.44951 0
M  V30 2792 N 264.58 -0.43555 -1.51462 0
M  V30 2793 C 265.996 -0.0877501 -1.59359 0
M  V30 2794 C 266.196 1.4027 -1.4466 0
M  V30 2795 O 265.252 2.17243 -1.28693 0
M  V30 2796 C 266.565 -0.606264 -2.94525 0
M  V30 2797 C 268.113 -0.566548 -3.0783 0
M  V30 2798 C 268.588 -1.06201 -4.45517 0
M  V30 2799 N 270.079 -1.01992 -4.51832 0
M  V30 2800 C 270.814 -1.37417 -5.5669 0
M  V30 2801 N 270.31 -1.80119 -6.68976 0
M  V30 2802 N 272.103 -1.29245 -5.47039 0
M  V30 2803 H 264.254 -1.40533 -1.59261 0
M  V30 2804 H 266.517 -0.578992 -0.750648 0
M  V30 2805 H 266.223 -1.64901 -3.10645 0
M  V30 2806 H 266.097 -0.0302097 -3.77188 0
M  V30 2807 H 268.484 0.467208 -2.91378 0
M  V30 2808 H 268.565 -1.17898 -2.2701 0
M  V30 2809 H 268.209 -2.09422 -4.62715 0
M  V30 2810 H 268.139 -0.426127 -5.24873 0
M  V30 2811 H 270.63 -0.706308 -3.71241 0
M  V30 2812 H 270.943 -2.05392 -7.45006 0
M  V30 2813 H 269.288 -1.84044 -6.70189 0
M  V30 2814 H 272.479 -0.957522 -4.58202 0
M  V30 2815 H 272.652 -1.57182 -6.28648 0
M  V30 2816 N 266.058 1.56714 -0.166846 0
M  V30 2817 C 267.005 2.17746 0.765193 0
M  V30 2818 C 267.975 1.11614 1.23011 0
M  V30 2819 O 269.16 1.39745 1.29908 0
M  V30 2820 C 266.3 2.81882 1.9909 0
M  V30 2821 C 265.413 4.02462 1.56997 0
M  V30 2822 C 264.548 4.54537 2.749 0
M  V30 2823 C 263.587 5.67538 2.29275 0
M  V30 2824 N 262.724 6.14142 3.40255 0
M  V30 2825 H 267.564 2.97048 0.237952 0
M  V30 2826 H 265.101 1.4672 0.105725 0
M  V30 2827 H 267.059 3.17221 2.70974 0
M  V30 2828 H 265.689 2.05191 2.49192 0
M  V30 2829 H 264.741 3.72973 0.748037 0
M  V30 2830 H 266.053 4.84273 1.19503 0
M  V30 2831 H 265.207 4.92035 3.54946 0
M  V30 2832 H 263.946 3.71774 3.1565 0
M  V30 2833 H 262.951 5.29597 1.47674 0
M  V30 2834 H 264.176 6.52099 1.89588 0
M  V30 2835 H 262.122 5.3431 3.8059 0
M  V30 2836 H 262.039 6.9093 3.06841 0
M  V30 2837 H 263.307 6.56289 4.206 0
M  V30 2838 N 267.536 -0.106894 1.57237 0
M  V30 2839 C 268.782 -0.81373 1.85759 0
M  V30 2840 C 269.115 -1.78952 0.754315 0
M  V30 2841 O 268.39 -1.93029 -0.23879 0
M  V30 2842 C 268.673 -1.55293 3.24894 0
M  V30 2843 C 268.526 -0.595929 4.45835 0
M  V30 2844 C 269.845 -2.5063 3.61763 0
M  V30 2845 H 266.964 -0.294369 0.67566 0
M  V30 2846 H 269.606 -0.0776472 1.89841 0
M  V30 2847 H 267.756 -2.1804 3.21544 0
M  V30 2848 H 269.428 0.0236262 4.61294 0
M  V30 2849 H 267.671 0.0916191 4.33703 0
M  V30 2850 H 268.342 -1.15004 5.39887 0
M  V30 2851 H 270.818 -1.97982 3.65981 0
M  V30 2852 H 269.694 -2.99376 4.60071 0
M  V30 2853 H 269.955 -3.3385 2.89821 0
M  V30 2854 N 269.014 -1.53014 -0.377408 0
M  V30 2855 C 269.924 -1.81557 -1.48574 0
M  V30 2856 C 270.94 -0.703102 -1.59162 0
M  V30 2857 O 272.116 -0.99192 -1.75279 0
M  V30 2858 C 269.181 -1.9889 -2.83978 0
M  V30 2859 C 268.242 -3.22801 -2.83016 0
M  V30 2860 C 267.475 -3.39298 -4.11962 0
M  V30 2861 O 267.698 -2.60345 -5.0752 0
M  V30 2862 O 266.632 -4.32604 -4.18494 0
M  V30 2863 H 270.458 -2.75695 -1.27382 0
M  V30 2864 H 268.043 -1.38248 -0.566373 0
M  V30 2865 H 269.925 -2.11931 -3.6423 0
M  V30 2866 H 268.6 -1.07942 -3.05172 0
M  V30 2867 H 267.507 -3.15193 -2.01505 0
M  V30 2868 H 268.84 -4.13632 -2.66775 0
M  V30 2869 N 270.492 0.636531 -1.44174 0
M  V30 2870 C 271.717 1.42847 -1.50364 0
M  V30 2871 C 272.142 1.87665 -0.127867 0
M  V30 2872 O 271.5 1.58408 0.88185 0
M  V30 2873 C 271.548 2.62854 -2.4686 0
M  V30 2874 O 270.652 3.62501 -1.9664 0
M  V30 2875 H 269.993 0.427642 -0.507955 0
M  V30 2876 H 272.523 0.777422 -1.89255 0
M  V30 2877 H 272.533 3.10465 -2.64718 0
M  V30 2878 H 271.208 2.29578 -3.46795 0
M  V30 2879 H 269.785 3.21735 -1.88523 0
M  V30 2880 N 271.97 1.30982 0.876444 0
M  V30 2881 C 273.198 1.23242 1.6619 0
M  V30 2882 C 273.613 -0.203345 1.87702 0
M  V30 2883 O 272.97 -1.13317 1.43057 0
M  V30 2884 C 273.021 1.96623 3.03351 0
M  V30 2885 O 272.742 3.34594 2.82804 0
M  V30 2886 C 274.243 1.95644 3.97792 0
M  V30 2887 H 271.463 0.426126 0.518322 0
M  V30 2888 H 274.007 1.7275 1.09442 0
M  V30 2889 H 272.162 1.50892 3.56806 0
M  V30 2890 H 272.576 3.71873 3.69879 0
M  V30 2891 H 274.05 2.51511 4.91372 0
M  V30 2892 H 274.527 0.937395 4.2908 0
M  V30 2893 H 275.133 2.41225 3.50272 0
M  V30 2894 N 273.449 -1.08991 1.13837 0
M  V30 2895 C 274.396 -2.15748 0.819835 0
M  V30 2896 C 275.366 -1.64636 -0.220026 0
M  V30 2897 O 276.551 -1.90582 -0.0912757 0
M  V30 2898 C 273.691 -3.4382 0.296913 0
M  V30 2899 C 272.804 -4.0881 1.39636 0
M  V30 2900 C 271.939 -5.24655 0.831314 0
M  V30 2901 C 270.978 -5.81575 1.90886 0
M  V30 2902 N 270.115 -6.88774 1.36142 0
M  V30 2903 H 274.955 -2.42338 1.73426 0
M  V30 2904 H 272.492 -1.18935 0.865613 0
M  V30 2905 H 274.45 -4.17193 -0.0244339 0
M  V30 2906 H 273.08 -3.17535 -0.580628 0
M  V30 2907 H 272.132 -3.33258 1.83422 0
M  V30 2908 H 273.444 -4.47141 2.21058 0
M  V30 2909 H 272.598 -6.04942 0.461515 0
M  V30 2910 H 271.337 -4.87698 -0.013932 0
M  V30 2911 H 270.342 -4.99946 2.28767 0
M  V30 2912 H 271.567 -6.20592 2.75758 0
M  V30 2913 H 269.513 -6.53788 0.538254 0
M  V30 2914 H 269.43 -7.25898 2.11208 0
M  V30 2915 H 270.698 -7.72806 1.01933 0
M  V30 2916 N 274.927 -0.932562 -1.27047 0
M  V30 2917 C 276.155 -0.592031 -1.98249 0
M  V30 2918 C 276.57 0.831062 -1.69525 0
M  V30 2919 O 275.927 1.55299 -0.958561 0
M  V30 2920 C 275.978 -0.814279 -3.5221 0
M  V30 2921 O 275.699 -2.18139 -3.7993 0
M  V30 2922 C 277.2 -0.483121 -4.4066 0
M  V30 2923 H 274.42 -0.223896 -0.632544 0
M  V30 2924 H 276.964 -1.25091 -1.61779 0
M  V30 2925 H 275.119 -0.20213 -3.86872 0
M  V30 2926 H 275.533 -2.235 -4.74498 0
M  V30 2927 H 277.007 -0.689298 -5.47679 0
M  V30 2928 H 277.484 0.581546 -4.35333 0
M  V30 2929 H 278.09 -1.07362 -4.11526 0
M  V30 2930 N 276.405 1.4127 -0.698611 0
M  V30 2931 C 277.682 1.94955 -0.158762 0
M  V30 2932 C 278.062 1.63781 1.33188 0
M  V30 2933 O 277.41 0.946423 2.07979 0
M  V30 2934 C 277.62 3.46044 -0.453309 0
M  V30 2935 C 278.968 4.22872 -0.382707 0
M  V30 2936 O 279.992 3.54076 -0.388396 0
M  V30 2937 O 278.851 5.45407 -0.345463 0
M  V30 2938 H 275.945 0.82683 -0.0167505 0
M  V30 2939 H 278.491 1.50971 -0.77498 0
M  V30 2940 H 277.263 3.62028 -1.48498 0
M  V30 2941 H 276.886 3.97128 0.19373 0
M  V30 2942 N 277.883 0.443576 1.51229 0
M  V30 2943 C 279.108 -0.121648 2.07043 0
M  V30 2944 C 279.533 -1.35156 1.30823 0
M  V30 2945 O 278.891 -1.7793 0.347934 0
M  V30 2946 C 278.939 -0.41624 3.5819 0
M  V30 2947 O 278.043 -1.50163 3.8409 0
M  V30 2948 H 277.384 0.000871367 0.663999 0
M  V30 2949 H 279.914 0.626706 1.94765 0
M  V30 2950 H 279.924 -0.664867 4.02546 0
M  V30 2951 H 278.599 0.482653 4.1309 0
M  V30 2952 H 277.176 -1.24248 3.51592 0
M  V30 2953 N 279.361 -1.56624 0.175154 0
M  V30 2954 C 280.777 -1.58571 -0.180966 0
M  V30 2955 C 280.977 -1.19065 -1.6256 0
M  V30 2956 O 280.033 -0.904044 -2.35761 0
M  V30 2957 C 281.346 -3.00522 0.103326 0
M  V30 2958 C 282.894 -3.12972 0.0418426 0
M  V30 2959 C 283.369 -4.57022 0.299175 0
M  V30 2960 N 284.86 -4.62541 0.247086 0
M  V30 2961 C 285.595 -5.71857 0.420318 0
M  V30 2962 N 285.091 -6.89717 0.652816 0
M  V30 2963 N 286.884 -5.60972 0.355957 0
M  V30 2964 H 279.035 -1.80589 1.11809 0
M  V30 2965 H 281.298 -0.837178 0.444788 0
M  V30 2966 H 281.004 -3.33916 1.10422 0
M  V30 2967 H 280.878 -3.72344 -0.603299 0
M  V30 2968 H 283.265 -2.79403 -0.949636 0
M  V30 2969 H 283.346 -2.43578 0.781238 0
M  V30 2970 H 282.99 -4.913 1.28788 0
M  V30 2971 H 282.92 -5.24579 -0.460876 0
M  V30 2972 H 285.411 -3.77829 0.0731895 0
M  V30 2973 H 285.724 -7.68911 0.774347 0
M  V30 2974 H 284.069 -6.91572 0.689476 0
M  V30 2975 H 287.26 -4.67773 0.174882 0
M  V30 2976 H 287.433 -6.46111 0.494388 0
M  V30 2977 N 280.839 0.0985539 -1.57292 0
M  V30 2978 C 282.116 0.834155 -1.76921 0
M  V30 2979 C 282.496 1.97101 -0.755928 0
M  V30 2980 O 281.844 2.27474 0.216245 0
M  V30 2981 C 282.054 1.33194 -3.22584 0
M  V30 2982 C 283.402 1.77611 -3.85668 0
M  V30 2983 O 284.426 1.42825 -3.26312 0
M  V30 2984 O 283.285 2.4192 -4.90038 0
M  V30 2985 H 280.379 0.397628 -0.725135 0
M  V30 2986 H 282.925 0.0807044 -1.69508 0
M  V30 2987 H 281.697 0.517248 -3.87866 0
M  V30 2988 H 281.32 2.1475 -3.34616 0
M  V30 2989 N 282.317 1.53212 0.369288 0
M  V30 2990 C 283.264 1.79388 1.45219 0
M  V30 2991 C 284.234 0.638059 1.53356 0
M  V30 2992 O 285.419 0.879852 1.69302 0
M  V30 2993 C 282.559 1.98623 2.82211 0
M  V30 2994 C 281.672 3.26337 2.8307 0
M  V30 2995 C 280.807 3.35779 4.11614 0
M  V30 2996 C 279.846 4.5754 4.06601 0
M  V30 2997 N 278.983 4.64155 5.26787 0
M  V30 2998 H 283.823 2.71794 1.22198 0
M  V30 2999 H 281.36 1.34642 0.592444 0
M  V30 3000 H 283.318 2.07761 3.61789 0
M  V30 3001 H 281.948 1.09558 3.03639 0
M  V30 3002 H 281 3.26171 1.95747 0
M  V30 3003 H 282.312 4.15988 2.75237 0
M  V30 3004 H 281.466 3.44208 4.99606 0
M  V30 3005 H 280.205 2.44137 4.22195 0
M  V30 3006 H 279.21 4.49215 3.16996 0
M  V30 3007 H 280.435 5.50519 3.97625 0
M  V30 3008 H 278.381 3.75413 5.3796 0
M  V30 3009 H 278.298 5.47706 5.21109 0
M  V30 3010 H 279.566 4.76863 6.16621 0
M  V30 3011 N 283.795 -0.628877 1.44509 0
M  V30 3012 C 285.206 -1.21054 1.42137 0
M  V30 3013 C 285.557 -1.95715 0.137881 0
M  V30 3014 O 284.682 -2.02554 -0.761645 0
M  V30 3015 C 285.277 -2.20189 2.57493 0
M  V30 3016 C 283.836 -2.73777 2.58308 0
M  V30 3017 C 282.983 -1.48813 2.33987 0
M  V30 3018 H 285.934 -0.41942 1.53057 0
M  V30 3019 H 285.955 -3.02833 2.30375 0
M  V30 3020 H 285.467 -1.6582 3.50892 0
M  V30 3021 H 283.568 -3.32142 1.68856 0
M  V30 3022 H 283.681 -3.19662 3.56865 0
M  V30 3023 H 282.045 -1.77024 1.83124 0
M  V30 3024 H 282.828 -0.963442 3.29504 0
M  V30 3025 N 285.273 -1.31445 -0.869486 0
M  V30 3026 C 286.203 -1.21727 -1.99261 0
M  V30 3027 C 287.184 -0.104359 -1.6978 0
M  V30 3028 O 288.369 -0.289038 -1.92037 0
M  V30 3029 C 285.499 -0.924317 -3.34774 0
M  V30 3030 C 284.453 -1.99685 -3.78563 0
M  V30 3031 C 283.779 -1.55658 -5.11541 0
M  V30 3032 C 285.079 -3.41003 -3.95619 0
M  V30 3033 H 286.773 -2.1569 -2.07649 0
M  V30 3034 H 284.319 -1.03839 -0.997675 0
M  V30 3035 H 286.272 -0.842934 -4.12883 0
M  V30 3036 H 284.996 0.0509793 -3.2656 0
M  V30 3037 H 283.655 -2.06813 -3.02694 0
M  V30 3038 H 283.303 -0.569132 -4.9977 0
M  V30 3039 H 283.003 -2.27409 -5.41811 0
M  V30 3040 H 284.527 -1.48928 -5.92159 0
M  V30 3041 H 285.941 -3.36547 -4.64122 0
M  V30 3042 H 284.338 -4.10975 -4.37286 0
M  V30 3043 H 285.408 -3.81754 -2.98985 0
M  V30 3044 N 286.751 1.08385 -1.14413 0
M  V30 3045 C 287.698 2.15311 -0.831265 0
M  V30 3046 C 288.668 1.64751 0.211292 0
M  V30 3047 O 289.853 1.90627 0.0811674 0
M  V30 3048 C 286.993 3.43658 -0.315143 0
M  V30 3049 C 286.106 4.08064 -1.41802 0
M  V30 3050 C 285.241 5.24207 -0.859126 0
M  V30 3051 C 284.28 5.80554 -1.93967 0
M  V30 3052 N 283.417 6.88042 -1.39793 0
M  V30 3053 H 288.257 2.41415 -1.74708 0
M  V30 3054 H 285.794 1.18474 -0.871909 0
M  V30 3055 H 287.752 4.172 0.00230884 0
M  V30 3056 H 286.382 3.17839 0.56378 0
M  V30 3057 H 285.434 3.3228 -1.85187 0
M  V30 3058 H 286.746 4.45962 -2.23427 0
M  V30 3059 H 285.9 6.04689 -0.49359 0
M  V30 3060 H 284.639 4.87699 -0.011932 0
M  V30 3061 H 283.644 4.98725 -2.31415 0
M  V30 3062 H 284.869 6.19121 -2.79046 0
M  V30 3063 H 282.815 6.53493 -0.572919 0
M  V30 3064 H 282.732 7.24767 -2.15054 0
M  V30 3065 H 284 7.72255 -1.0603 0
M  V30 3066 N 288.23 0.939286 1.26551 0
M  V30 3067 C 289.507 0.5038 1.89001 0
M  V30 3068 C 289.887 -1.01854 1.84903 0
M  V30 3069 O 289.235 -1.87773 1.30206 0
M  V30 3070 C 289.445 1.063 3.32417 0
M  V30 3071 C 290.793 1.13051 4.09273 0
M  V30 3072 O 291.817 1.01345 3.41479 0
M  V30 3073 O 290.676 1.31233 5.30509 0
M  V30 3074 H 287.77 0.163897 0.810597 0
M  V30 3075 H 290.316 1.03173 1.34735 0
M  V30 3076 H 289.088 2.10665 3.29752 0
M  V30 3077 H 288.711 0.517408 3.94219 0
M  V30 3078 N 289.708 -1.40897 0.706093 0
M  V30 3079 C 290.954 -2.01352 0.241889 0
M  V30 3080 C 291.287 -1.55832 -1.15888 0
M  V30 3081 O 290.562 -0.774145 -1.7843 0
M  V30 3082 C 290.845 -3.58752 0.311311 0
M  V30 3083 C 290.698 -4.1437 1.74978 0
M  V30 3084 C 292.017 -4.38914 -0.322922 0
M  V30 3085 H 289.136 -0.731562 0.0893687 0
M  V30 3086 H 291.778 -1.67504 0.896802 0
M  V30 3087 H 289.928 -3.87718 -0.246302 0
M  V30 3088 H 291.6 -3.96239 2.36205 0
M  V30 3089 H 289.843 -3.69016 2.28057 0
M  V30 3090 H 290.514 -5.23532 1.74981 0
M  V30 3091 H 292.99 -4.15822 0.152089 0
M  V30 3092 H 291.866 -5.48358 -0.243855 0
M  V30 3093 H 292.127 -4.19176 -1.40513 0
M  V30 3094 N 291.186 -0.45159 -1.50991 0
M  V30 3095 C 292.435 0.111653 -2.01391 0
M  V30 3096 C 292.748 1.42529 -1.33959 0
M  V30 3097 O 293.954 2.07232 -1.75405 0
M  V30 3098 C 292.41 0.249514 -3.59034 0
M  V30 3099 C 292.018 -1.05453 -4.35412 0
M  V30 3100 C 293.762 0.765762 -4.17536 0
M  V30 3101 C 291.669 -0.881529 -5.84793 0
M  V30 3102 H 290.599 0.0455022 -0.752626 0
M  V30 3103 H 293.25 -0.583524 -1.73975 0
M  V30 3104 H 291.632 1.00803 -3.82955 0
M  V30 3105 H 292.806 -1.82248 -4.23229 0
M  V30 3106 H 291.121 -1.50039 -3.88429 0
M  V30 3107 H 293.718 0.911913 -5.26866 0
M  V30 3108 H 294.061 1.75201 -3.77638 0
M  V30 3109 H 294.594 0.0651744 -3.97747 0
M  V30 3110 H 291.333 -1.84057 -6.29129 0
M  V30 3111 H 290.853 -0.153625 -5.99603 0
M  V30 3112 H 292.532 -0.540363 -6.4474 0
M  V30 3113 N 292.664 1.56529 -0.183458 0
M  V30 3114 C 293.913 1.96419 0.458511 0
M  V30 3115 C 294.226 1.0727 1.63562 0
M  V30 3116 O 295.432 1.36893 2.34462 0
M  V30 3117 C 293.888 3.49298 0.867122 0
M  V30 3118 C 293.496 4.47092 -0.285057 0
M  V30 3119 C 295.24 3.97983 1.47683 0
M  V30 3120 C 293.147 5.91225 0.143862 0
M  V30 3121 H 292.077 0.733394 0.175071 0
M  V30 3122 H 294.728 1.81448 -0.273624 0
M  V30 3123 H 293.11 3.59731 1.65559 0
M  V30 3124 H 294.284 4.48383 -1.0625 0
M  V30 3125 H 292.599 4.08535 -0.805503 0
M  V30 3126 H 295.196 5.03134 1.80999 0
M  V30 3127 H 295.539 3.41618 2.37914 0
M  V30 3128 H 296.072 3.90617 0.752562 0
M  V30 3129 H 292.811 6.5149 -0.723974 0
M  V30 3130 H 292.331 5.93214 0.886413 0
M  V30 3131 H 294.01 6.44362 0.583628 0
M  V30 3132 N 294.142 -0.090211 1.57342 0
M  V30 3133 C 295.105 -1.09335 2.01441 0
M  V30 3134 C 296.105 -1.32666 0.908641 0
M  V30 3135 O 297.295 -1.28697 1.174 0
M  V30 3136 C 294.427 -2.44136 2.3793 0
M  V30 3137 H 295.62 -0.713662 2.91285 0
M  V30 3138 H 293.173 -0.335404 1.52659 0
M  V30 3139 H 293.908 -2.86972 1.51055 0
M  V30 3140 H 293.693 -2.28548 3.18603 0
M  V30 3141 H 295.183 -3.16277 2.72688 0
M  V30 3142 N 295.62 -1.53406 -0.361157 0
M  V30 3143 C 296.897 -1.60411 -1.11927 0
M  V30 3144 C 297.277 -0.414385 -2.06993 0
M  V30 3145 O 296.625 0.594976 -2.20618 0
M  V30 3146 C 296.835 -2.95652 -1.85448 0
M  V30 3147 C 298.183 -3.50386 -2.39823 0
M  V30 3148 O 299.207 -2.97711 -1.95568 0
M  V30 3149 O 298.066 -4.42482 -3.20737 0
M  V30 3150 H 295.16 -0.64811 -0.513695 0
M  V30 3151 H 297.706 -1.65749 -0.364065 0
M  V30 3152 H 296.478 -3.73682 -1.16091 0
M  V30 3153 H 296.101 -2.93825 -2.67866 0
M  V30 3154 N 297.098 0.621204 -1.44841 0
M  V30 3155 C 298.338 1.39201 -1.49674 0
M  V30 3156 C 298.702 1.91561 -0.129764 0
M  V30 3157 O 299.903 2.68748 -0.0527814 0
M  V30 3158 C 298.174 2.519 -2.53537 0
M  V30 3159 S 299.733 3.39916 -2.77494 0
M  V30 3160 H 296.551 0.474758 -0.529269 0
M  V30 3161 H 299.153 0.718171 -1.81831 0
M  V30 3162 H 297.857 2.11761 -3.51547 0
M  V30 3163 H 297.388 3.241 -2.22986 0
M  V30 3164 H 299.403 4.49646 -2.0984 0
M  V30 3165 N 298.576 1.31904 0.862503 0
M  V30 3166 C 299.824 1.21776 1.61292 0
M  V30 3167 C 300.145 -0.222413 1.93727 0
M  V30 3168 O 299.415 -1.1451 1.58947 0
M  V30 3169 H 297.995 0.447717 0.597962 0
M  V30 3170 H 300.657 1.65326 1.03215 0
M  V30 3171 H 299.753 1.7948 2.5533 0
M  V30 3172 N 300.054 -1.07777 1.14986 0
M  V30 3173 C 301.001 -2.14867 0.842672 0
M  V30 3174 C 301.971 -1.6486 -0.202552 0
M  V30 3175 O 303.156 -1.90668 -0.0710568 0
M  V30 3176 C 300.296 -3.43486 0.333363 0
M  V30 3177 C 299.409 -4.07306 1.43965 0
M  V30 3178 C 298.544 -5.23744 0.886914 0
M  V30 3179 C 297.583 -5.79517 1.97043 0
M  V30 3180 N 296.72 -6.87291 1.4344 0
M  V30 3181 H 301.56 -2.40485 1.75986 0
M  V30 3182 H 299.097 -1.1801 0.878179 0
M  V30 3183 H 301.055 -4.17195 0.0198163 0
M  V30 3184 H 299.685 -3.18133 -0.546916 0
M  V30 3185 H 298.737 -3.31293 1.86946 0
M  V30 3186 H 300.049 -4.44771 2.25788 0
M  V30 3187 H 299.203 -6.04419 0.525651 0
M  V30 3188 H 297.942 -4.87685 0.0377957 0
M  V30 3189 H 296.947 -4.97491 2.34057 0
M  V30 3190 H 298.172 -6.17632 2.82325 0
M  V30 3191 H 296.118 -6.5318 0.607567 0
M  V30 3192 H 296.035 -7.23617 2.18895 0
M  V30 3193 H 297.303 -7.71682 1.10124 0
M  V30 3194 N 301.532 -0.945985 -1.26051 0
M  V30 3195 C 302.781 -0.591836 -1.92822 0
M  V30 3196 C 303.094 0.873956 -1.7499 0
M  V30 3197 O 304.3 1.33769 -2.36259 0
M  V30 3198 C 302.756 -1.00776 -3.45503 0
M  V30 3199 C 302.364 -2.4955 -3.7206 0
M  V30 3200 C 304.108 -0.725735 -4.1825 0
M  V30 3201 C 302.015 -2.84988 -5.18205 0
M  V30 3202 H 300.945 -0.217635 -0.721908 0
M  V30 3203 H 303.596 -1.14927 -1.43052 0
M  V30 3204 H 301.978 -0.378812 -3.94184 0
M  V30 3205 H 303.152 -3.1739 -3.34066 0
M  V30 3206 H 301.467 -2.75133 -3.12555 0
M  V30 3207 H 304.064 -0.966771 -5.25887 0
M  V30 3208 H 304.407 0.337639 -4.14929 0
M  V30 3209 H 304.94 -1.31463 -3.7545 0
M  V30 3210 H 301.679 -3.90307 -5.26631 0
M  V30 3211 H 301.199 -2.21813 -5.57278 0
M  V30 3212 H 302.878 -2.73712 -5.86252 0
M  V30 3213 N 303.011 1.40521 -0.713556 0
M  V30 3214 C 303.921 2.34522 -0.0606667 0
M  V30 3215 C 304.937 1.57193 0.74607 0
M  V30 3216 O 306.113 1.89591 0.679493 0
M  V30 3217 C 303.178 3.36081 0.851491 0
M  V30 3218 C 302.239 4.29286 0.0349339 0
M  V30 3219 C 301.472 5.25994 0.903649 0
M  V30 3220 O 301.695 5.28616 2.14292 0
M  V30 3221 O 300.629 6.00918 0.343723 0
M  V30 3222 H 304.455 2.91968 -0.835972 0
M  V30 3223 H 302.04 1.41681 -0.47402 0
M  V30 3224 H 303.922 3.98369 1.37404 0
M  V30 3225 H 302.597 2.81052 1.60598 0
M  V30 3226 H 301.504 3.70289 -0.532633 0
M  V30 3227 H 302.837 4.87462 -0.681287 0
M  V30 3228 N 304.489 0.459591 1.5075 0
M  V30 3229 C 305.735 -0.0994966 2.02556 0
M  V30 3230 C 306.068 -1.40399 1.3417 0
M  V30 3231 O 305.343 -1.88892 0.463683 0
M  V30 3232 C 305.626 -0.295242 3.58888 0
M  V30 3233 C 305.479 1.02947 4.37861 0
M  V30 3234 C 306.798 -1.05502 4.27267 0
M  V30 3235 H 303.917 -0.034686 0.736183 0
M  V30 3236 H 306.559 0.602938 1.8018 0
M  V30 3237 H 304.709 -0.893563 3.78084 0
M  V30 3238 H 306.381 1.66348 4.30263 0
M  V30 3239 H 304.624 1.62885 4.02058 0
M  V30 3240 H 305.295 0.846281 5.45474 0
M  V30 3241 H 307.771 -0.547993 4.12476 0
M  V30 3242 H 306.647 -1.16077 5.36486 0
M  V30 3243 H 306.908 -2.08875 3.89645 0
M  V30 3244 N 305.967 -1.56429 0.191757 0
M  V30 3245 C 306.877 -2.22541 -0.742481 0
M  V30 3246 C 307.893 -1.22342 -1.23727 0
M  V30 3247 O 309.069 -1.55069 -1.28513 0
M  V30 3248 C 306.134 -2.8692 -1.94623 0
M  V30 3249 C 305.195 -4.02378 -1.49633 0
M  V30 3250 C 304.428 -4.63678 -2.6427 0
M  V30 3251 O 304.651 -4.23895 -3.81666 0
M  V30 3252 O 303.585 -5.53202 -2.37174 0
M  V30 3253 H 307.411 -3.02977 -0.209462 0
M  V30 3254 H 304.996 -1.49353 -0.0373832 0
M  V30 3255 H 306.878 -3.27663 -2.64982 0
M  V30 3256 H 305.553 -2.09466 -2.46791 0
M  V30 3257 H 304.46 -3.66265 -0.761636 0
M  V30 3258 H 305.793 -4.81487 -1.02134 0
M  V30 3259 N 307.445 0.0818655 -1.57387 0
M  V30 3260 C 308.392 1.09834 -2.0299 0
M  V30 3261 C 309.362 1.39043 -0.908639 0
M  V30 3262 O 310.547 1.50282 -1.17559 0
M  V30 3263 C 307.687 2.40971 -2.47037 0
M  V30 3264 C 306.8 2.18379 -3.7274 0
M  V30 3265 C 305.935 3.43008 -4.0561 0
M  V30 3266 C 304.974 3.15736 -5.24383 0
M  V30 3267 N 304.111 4.32667 -5.52941 0
M  V30 3268 H 308.951 0.702472 -2.89602 0
M  V30 3269 H 306.488 0.33531 -1.43227 0
M  V30 3270 H 308.446 3.1752 -2.70623 0
M  V30 3271 H 307.076 2.78379 -1.63417 0
M  V30 3272 H 306.128 1.32569 -3.56552 0
M  V30 3273 H 307.44 1.94227 -4.59431 0
M  V30 3274 H 306.594 4.27958 -4.30043 0
M  V30 3275 H 305.333 3.70225 -3.17466 0
M  V30 3276 H 304.338 2.2918 -4.99757 0
M  V30 3277 H 305.563 2.8985 -6.14136 0
M  V30 3278 H 303.509 4.59935 -4.67756 0
M  V30 3279 H 303.426 4.11753 -6.34031 0
M  V30 3280 H 304.694 5.18644 -5.81918 0
M  V30 3281 N 308.923 1.53595 0.353017 0
M  V30 3282 C 310.334 1.61937 0.929153 0
M  V30 3283 C 310.685 0.494686 1.89861 0
M  V30 3284 O 309.81 -0.377017 2.1309 0
M  V30 3285 C 310.405 2.93526 1.69199 0
M  V30 3286 C 308.964 3.04161 2.21727 0
M  V30 3287 C 308.111 2.57322 1.03348 0
M  V30 3288 H 311.062 1.58155 0.131431 0
M  V30 3289 H 311.083 2.82034 2.55416 0
M  V30 3290 H 310.595 3.75362 0.986144 0
M  V30 3291 H 308.696 2.26938 2.95516 0
M  V30 3292 H 308.809 4.09465 2.48748 0
M  V30 3293 H 307.173 2.12499 1.40414 0
M  V30 3294 H 307.956 3.41588 0.342428 0
M  V30 3295 N 310.401 -0.613514 1.45168 0
M  V30 3296 C 311.648 -1.37268 1.48875 0
M  V30 3297 C 311.976 -1.94077 0.128161 0
M  V30 3298 O 311.231 -1.75178 -0.872416 0
M  V30 3299 C 311.53 -2.54347 2.51083 0
M  V30 3300 C 311.196 -2.1572 3.95949 0
M  V30 3301 C 309.858 -2.04899 4.35396 0
M  V30 3302 C 312.21 -1.85485 4.87078 0
M  V30 3303 C 309.538 -1.62057 5.63875 0
M  V30 3304 C 311.89 -1.4413 6.15962 0
M  V30 3305 C 310.554 -1.31863 6.54346 0
M  V30 3306 H 309.824 -0.502299 0.544773 0
M  V30 3307 H 312.471 -0.694021 1.78481 0
M  V30 3308 H 310.776 -3.27524 2.15024 0
M  V30 3309 H 312.473 -3.12577 2.51191 0
M  V30 3310 H 309.063 -2.25066 3.64751 0
M  V30 3311 H 313.247 -1.92745 4.57343 0
M  V30 3312 H 308.503 -1.51177 5.92415 0
M  V30 3313 H 312.677 -1.19778 6.86022 0
M  V30 3314 H 310.304 -0.984392 7.538 0
M  V30 3315 N 311.879 -1.3236 -0.855495 0
M  V30 3316 C 312.842 -1.21164 -1.94556 0
M  V30 3317 C 313.842 -0.134908 -1.60233 0
M  V30 3318 O 315.032 -0.385249 -1.69887 0
M  V30 3319 C 312.164 -0.863192 -3.29791 0
M  V30 3320 H 313.357 -2.18038 -2.05911 0
M  V30 3321 H 310.91 -1.16179 -1.04557 0
M  V30 3322 H 311.645 0.103769 -3.24134 0
M  V30 3323 H 311.43 -1.64166 -3.56078 0
M  V30 3324 H 312.92 -0.809156 -4.09686 0
M  V30 3325 N 313.357 1.07166 -1.15556 0
M  V30 3326 C 314.606 1.79181 -0.926132 0
M  V30 3327 C 314.919 1.87768 0.547967 0
M  V30 3328 O 316.125 2.56323 0.895036 0
M  V30 3329 C 314.581 3.22 -1.60761 0
M  V30 3330 C 314.189 3.21607 -3.11886 0
M  V30 3331 C 315.933 3.9861 -1.4598 0
M  V30 3332 C 313.84 4.59092 -3.72812 0
M  V30 3333 H 312.77 0.67154 -0.342856 0
M  V30 3334 H 315.421 1.2027 -1.3859 0
M  V30 3335 H 313.803 3.81115 -1.07553 0
M  V30 3336 H 314.977 2.72127 -3.71865 0
M  V30 3337 H 313.292 2.58495 -3.2645 0
M  V30 3338 H 315.889 5.00225 -1.88888 0
M  V30 3339 H 316.232 4.143 -0.407541 0
M  V30 3340 H 316.765 3.45996 -1.96295 0
M  V30 3341 H 313.504 4.48606 -4.77946 0
M  V30 3342 H 313.024 5.08803 -3.17616 0
M  V30 3343 H 314.703 5.28059 -3.73848 0
M  V30 3344 N 314.835 0.952656 1.25548 0
M  V30 3345 C 315.798 0.475794 2.24207 0
M  V30 3346 C 316.798 -0.419428 1.55234 0
M  V30 3347 O 317.988 -0.216994 1.72843 0
M  V30 3348 C 315.12 -0.312814 3.39462 0
M  V30 3349 H 316.313 1.34779 2.67908 0
M  V30 3350 H 313.866 0.735739 1.37901 0
M  V30 3351 H 314.601 -1.20257 3.01179 0
M  V30 3352 H 314.386 0.329404 3.90714 0
M  V30 3353 H 315.876 -0.635986 4.12729 0
M  V30 3354 N 316.313 -1.40141 0.720998 0
M  V30 3355 C 317.26 -2.30688 0.071919 0
M  V30 3356 C 318.23 -1.48476 -0.744584 0
M  V30 3357 O 319.415 -1.77201 -0.707423 0
M  V30 3358 C 316.555 -3.34724 -0.839855 0
M  V30 3359 C 315.668 -4.31998 -0.0122438 0
M  V30 3360 C 314.803 -5.23102 -0.923995 0
M  V30 3361 C 313.842 -6.12033 -0.0907969 0
M  V30 3362 N 312.979 -6.95537 -0.957718 0
M  V30 3363 H 317.819 -2.85628 0.849755 0
M  V30 3364 H 315.356 -1.40653 0.430726 0
M  V30 3365 H 317.314 -3.93618 -1.38279 0
M  V30 3366 H 315.944 -2.81274 -1.58381 0
M  V30 3367 H 314.996 -3.74841 0.64794 0
M  V30 3368 H 316.308 -4.94772 0.632595 0
M  V30 3369 H 315.462 -5.86953 -1.53527 0
M  V30 3370 H 314.201 -4.60615 -1.60264 0
M  V30 3371 H 313.206 -5.47207 0.533377 0
M  V30 3372 H 314.431 -6.76581 0.584428 0
M  V30 3373 H 312.377 -6.35633 -1.62192 0
M  V30 3374 H 312.294 -7.55099 -0.36904 0
M  V30 3375 H 313.562 -7.63832 -1.555 0
M  V30 3376 N 317.792 -0.46758 -1.50504 0
M  V30 3377 C 318.702 0.33382 -2.32213 0
M  V30 3378 C 319.718 0.999323 -1.42441 0
M  V30 3379 O 320.894 0.988068 -1.75497 0
M  V30 3380 C 317.959 1.4035 -3.17022 0
M  V30 3381 C 317.02 0.754961 -4.2261 0
M  V30 3382 C 316.253 1.77367 -5.03365 0
M  V30 3383 O 316.476 2.99976 -4.8515 0
M  V30 3384 O 315.41 1.34744 -5.86624 0
M  V30 3385 H 319.236 -0.334067 -3.01857 0
M  V30 3386 H 316.821 -0.229496 -1.47627 0
M  V30 3387 H 318.703 2.02318 -3.69656 0
M  V30 3388 H 317.378 2.05492 -2.5011 0
M  V30 3389 H 316.285 0.0964244 -3.73976 0
M  V30 3390 H 317.618 0.146545 -4.91982 0
M  V30 3391 O 319.309 1.5785 -0.341429 0
M  V30 3392 H 320 1.92508 0.21453 0
M  V30 END ATOM
M  V30 BEGIN BOND
M  V30 END BOND
M  V30 END CTAB
M  END
$$$$
