drugbank_target|P14735 Insulin-degrading enzyme (DB00071; DB00626)
 OpenBabel12092119493D

  0  0  0     0  0            999 V3000
M  V30 BEGIN CTAB
M  V30 COUNTS 16590 16802 0 0 0
M  V30 BEGIN ATOM
M  V30 1 H -0.908 1.98254 -0.117106 0
M  V30 2 N 0 1.576 0 0
M  V30 3 C 0.933 2.03868 1.02534 0
M  V30 4 C 1.911 0.928543 1.3348 0
M  V30 5 O 3.095 1.19667 1.45644 0
M  V30 6 C 0.222 2.43627 2.35294 0
M  V30 7 C -0.732 3.65373 2.2001 0
M  V30 8 S 0.101 5.13292 1.52614 0
M  V30 9 C 1.257 5.56322 2.86805 0
M  V30 10 H 1.49 2.90518 0.631377 0
M  V30 11 H -0.977 1.52953 0.210867 0
M  V30 12 H 0.981 2.67203 3.11629 0
M  V30 13 H -0.358 1.57376 2.7183 0
M  V30 14 H -1.165 3.90944 3.18086 0
M  V30 15 H -1.563 3.418 1.51819 0
M  V30 16 H 0.729 5.58782 3.83104 0
M  V30 17 H 1.672 6.56266 2.65933 0
M  V30 18 H 2.08 4.83886 2.90714 0
M  V30 19 N 1.4781 -0.272755 1.55222 0
M  V30 20 C 2.8941 -0.619959 1.47067 0
M  V30 21 C 3.0941 -1.895 0.684978 0
M  V30 22 O 2.1501 -2.51675 0.203931 0
M  V30 23 C 3.4631 -0.746693 2.91282 0
M  V30 24 C 5.0111 -0.840731 3.01497 0
M  V30 25 C 5.4861 -0.99924 4.46967 0
M  V30 26 N 6.9771 -1.06476 4.50796 0
M  V30 27 C 7.7121 -1.20621 5.6057 0
M  V30 28 N 7.2081 -1.31483 6.80209 0
M  V30 29 N 9.0011 -1.23733 5.48312 0
M  V30 30 H 1.1521 0.564606 2.04758 0
M  V30 31 H 3.4151 0.191177 0.928523 0
M  V30 32 H 3.1211 0.119753 3.51496 0
M  V30 33 H 2.9951 -1.6269 3.40311 0
M  V30 34 H 5.3821 -1.69764 2.41379 0
M  V30 35 H 5.4631 0.0640874 2.5572 0
M  V30 36 H 5.1071 -0.146984 5.07687 0
M  V30 37 H 5.0371 -1.91871 4.90401 0
M  V30 38 H 7.5281 -0.993196 3.64615 0
M  V30 39 H 7.8411 -1.42111 7.59621 0
M  V30 40 H 6.1861 -1.28487 6.8302 0
M  V30 41 H 9.3771 -1.14877 4.53785 0
M  V30 42 H 9.5501 -1.34412 6.33906 0
M  V30 43 N 2.9562 -1.48159 -0.537278 0
M  V30 44 C 4.1862 -1.59223 -1.3165 0
M  V30 45 C 4.5942 -0.248849 -1.87556 0
M  V30 46 O 3.9372 0.770949 -1.6674 0
M  V30 47 C 3.9992 -2.57365 -2.51005 0
M  V30 48 C 3.6632 -4.02603 -2.16239 0
M  V30 49 C 4.6602 -4.90503 -1.72344 0
M  V30 50 C 2.3452 -4.48088 -2.26986 0
M  V30 51 C 4.3392 -6.21913 -1.39651 0
M  V30 52 C 2.0262 -5.7952 -1.93906 0
M  V30 53 C 3.0242 -6.66255 -1.50309 0
M  V30 54 O 2.7122 -7.95243 -1.17659 0
M  V30 55 H 2.4442 -0.539831 -0.406889 0
M  V30 56 H 4.9982 -1.94655 -0.655641 0
M  V30 57 H 3.2282 -2.1704 -3.20048 0
M  V30 58 H 4.9172 -2.58342 -3.13072 0
M  V30 59 H 5.6832 -4.56604 -1.63517 0
M  V30 60 H 1.5622 -3.80769 -2.59877 0
M  V30 61 H 5.1062 -6.89569 -1.0555 0
M  V30 62 H 1.0032 -6.12957 -2.02371 0
M  V30 63 H 1.7712 -8.0793 -1.31119 0
M  V30 64 N 4.4343 0.785586 -1.36625 0
M  V30 65 C 5.8503 1.08419 -1.17122 0
M  V30 66 C 6.0503 2.015 0.00208491 0
M  V30 67 O 5.1063 2.43551 0.666278 0
M  V30 68 C 6.4193 1.69498 -2.48377 0
M  V30 69 C 7.9673 1.81821 -2.54775 0
M  V30 70 C 8.4423 2.46315 -3.86126 0
M  V30 71 N 9.9333 2.53779 -3.87492 0
M  V30 72 C 10.6683 3.045 -4.85868 0
M  V30 73 N 10.1643 3.55499 -5.94637 0
M  V30 74 N 11.9573 3.03247 -4.73284 0
M  V30 75 H 4.1083 0.167264 -2.1174 0
M  V30 76 H 6.3713 0.13682 -0.938075 0
M  V30 77 H 6.0773 1.08571 -3.34522 0
M  V30 78 H 5.9513 2.6896 -2.64462 0
M  V30 79 H 8.3383 2.41884 -1.69045 0
M  V30 80 H 8.4193 0.811532 -2.42586 0
M  V30 81 H 8.0633 1.86895 -4.72263 0
M  V30 82 H 7.9933 3.47561 -3.95612 0
M  V30 83 H 10.4843 2.17672 -3.08913 0
M  V30 84 H 10.7973 3.92562 -6.65669 0
M  V30 85 H 9.1423 3.5364 -5.98301 0
M  V30 86 H 12.3333 2.62696 -3.87438 0
M  V30 87 H 12.5063 3.42467 -5.50109 0
M  V30 88 N 5.9124 1.20967 1.01018 0
M  V30 89 C 6.8424 0.988272 2.11555 0
M  V30 90 C 7.8234 -0.0849778 1.69888 0
M  V30 91 O 9.0084 0.0738202 1.9406 0
M  V30 92 C 6.1384 0.546528 3.42973 0
M  V30 93 C 5.0924 1.56375 3.9841 0
M  V30 94 C 4.4184 0.97842 5.25672 0
M  V30 95 C 5.7184 2.94922 4.31066 0
M  V30 96 H 7.4124 1.91276 2.30334 0
M  V30 97 H 4.9584 0.921073 1.1069 0
M  V30 98 H 6.9114 0.378839 4.19694 0
M  V30 99 H 5.6354 -0.413598 3.23971 0
M  V30 100 H 4.2944 1.71891 3.23804 0
M  V30 101 H 3.9424 0.0101688 5.02999 0
M  V30 102 H 3.6424 1.65784 5.63728 0
M  V30 103 H 5.1664 0.821939 6.05043 0
M  V30 104 H 6.5804 2.8288 4.9865 0
M  V30 105 H 4.9774 3.5983 4.80253 0
M  V30 106 H 6.0474 3.4616 3.39561 0
M  V30 107 N 7.3905 -1.2043 1.01659 0
M  V30 108 C 8.3535 -2.21433 0.591616 0
M  V30 109 C 9.3535 -1.57203 -0.338226 0
M  V30 110 O 10.5435 -1.73737 -0.126918 0
M  V30 111 C 7.6755 -3.40628 -0.136058 0
M  V30 112 H 8.8685 -2.60545 1.48514 0
M  V30 113 H 6.4215 -1.33893 0.806379 0
M  V30 114 H 7.1565 -3.07019 -1.04449 0
M  V30 115 H 6.9415 -3.88475 0.531917 0
M  V30 116 H 8.4315 -4.15475 -0.420735 0
M  V30 117 N 8.8686 -0.792821 -1.36206 0
M  V30 118 C 10.1146 -0.376415 -1.99887 0
M  V30 119 C 10.4696 1.04127 -1.61788 0
M  V30 120 O 9.7626 1.71004 -0.864193 0
M  V30 121 C 9.9566 -0.481501 -3.54142 0
M  V30 122 C 9.7856 -1.90786 -4.07223 0
M  V30 123 C 8.5556 -2.53322 -4.37214 0
M  V30 124 C 10.7536 -2.87048 -4.26741 0
M  V30 125 N 8.7356 -3.8751 -4.7614 0
M  V30 126 C 10.1066 -4.06077 -4.6851 0
M  V30 127 C 12.1616 -2.8406 -4.08918 0
M  V30 128 C 10.8646 -5.22532 -4.94321 0
M  V30 129 C 12.8906 -3.99705 -4.35878 0
M  V30 130 C 12.2526 -5.1748 -4.77906 0
M  V30 131 H 8.3516 -0.185226 -0.759747 0
M  V30 132 H 10.9356 -1.03114 -1.65153 0
M  V30 133 H 9.1066 0.143154 -3.88136 0
M  V30 134 H 10.8386 -0.0410128 -4.04679 0
M  V30 135 H 7.5936 -2.04777 -4.2704 0
M  V30 136 H 8.0176 -4.5656 -4.99882 0
M  V30 137 H 12.6596 -1.94165 -3.75579 0
M  V30 138 H 10.3776 -6.1301 -5.2654 0
M  V30 139 H 13.9636 -3.98758 -4.23655 0
M  V30 140 H 12.8436 -6.05478 -4.98363 0
M  V30 141 N 10.3467 1.47872 -0.545128 0
M  V30 142 C 11.2767 2.32661 0.197793 0
M  V30 143 C 12.2577 1.43041 0.920504 0
M  V30 144 O 13.4427 1.71912 0.90333 0
M  V30 145 C 10.5727 3.24569 1.23582 0
M  V30 146 C 9.5267 4.23333 0.630323 0
M  V30 147 C 8.8527 5.0448 1.77211 0
M  V30 148 C 10.1527 5.20704 -0.407974 0
M  V30 149 H 11.8467 2.95024 -0.510045 0
M  V30 150 H 9.3927 1.4187 -0.246731 0
M  V30 151 H 11.3457 3.8272 1.76362 0
M  V30 152 H 10.0697 2.60236 1.97344 0
M  V30 153 H 8.7287 3.6639 0.123922 0
M  V30 154 H 8.3767 4.36561 2.49847 0
M  V30 155 H 8.0767 5.71339 1.37281 0
M  V30 156 H 9.6007 5.65487 2.3034 0
M  V30 157 H 11.0147 5.7329 0.033305 0
M  V30 158 H 9.4117 5.95699 -0.725486 0
M  V30 159 H 10.4817 4.66917 -1.30828 0
M  V30 160 N 11.8248 0.280983 1.55075 0
M  V30 161 C 12.7548 -0.597469 2.25727 0
M  V30 162 C 13.7358 -1.15417 1.24952 0
M  V30 163 O 14.9208 -1.18722 1.53684 0
M  V30 164 C 12.0508 -1.7789 2.98283 0
M  V30 165 C 11.0048 -1.35347 4.06036 0
M  V30 166 C 10.3308 -2.61846 4.66198 0
M  V30 167 C 11.6308 -0.499354 5.19907 0
M  V30 168 H 13.3248 -0.00824265 2.99399 0
M  V30 169 H 10.8708 -0.0025244 1.44 0
M  V30 170 H 12.8238 -2.39937 3.46422 0
M  V30 171 H 11.5478 -2.39405 2.22155 0
M  V30 172 H 10.2068 -0.756156 3.58717 0
M  V30 173 H 9.8548 -3.21632 3.86732 0
M  V30 174 H 9.5548 -2.3409 5.38958 0
M  V30 175 H 11.0788 -3.24732 5.1709 0
M  V30 176 H 12.4928 -1.02498 5.64063 0
M  V30 177 H 10.8898 -0.316424 5.99265 0
M  V30 178 H 11.9598 0.480459 4.82514 0
M  V30 179 N 13.3029 -1.57598 0.00835791 0
M  V30 180 C 14.2529 -2.05431 -0.989045 0
M  V30 181 C 15.2369 -0.950662 -1.29812 0
M  V30 182 O 16.4289 -1.21438 -1.28771 0
M  V30 183 C 13.5579 -2.56801 -2.27833 0
M  V30 184 C 12.6439 -3.74058 -1.99853 0
M  V30 185 N 13.0349 -4.8544 -1.42062 0
M  V30 186 C 11.3329 -3.82148 -2.29953 0
M  V30 187 C 12.0339 -5.66817 -1.30743 0
M  V30 188 N 11.0099 -5.13077 -1.7959 0
M  V30 189 H 14.8119 -2.88955 -0.536853 0
M  V30 190 H 12.3259 -1.61199 -0.197148 0
M  V30 191 H 14.3229 -2.89349 -3.00137 0
M  V30 192 H 12.9829 -1.74699 -2.73698 0
M  V30 193 H 13.9939 -5.0612 -1.09833 0
M  V30 194 H 10.6709 -3.10916 -2.78635 0
M  V30 195 H 12.0609 -6.66343 -0.862328 0
M  V30 196 N 14.781 0.264519 -1.55364 0
M  V30 197 C 16.192 0.834936 -1.6699 0
M  V30 198 C 16.543 1.86718 -0.602552 0
M  V30 199 O 15.668 2.14899 0.254425 0
M  V30 200 C 16.263 1.5212 -3.02729 0
M  V30 201 C 14.822 2.03954 -3.16354 0
M  V30 202 C 13.969 0.884498 -2.62815 0
M  V30 203 H 16.92 0.0406869 -1.58648 0
M  V30 204 H 16.941 2.38853 -2.96191 0
M  V30 205 H 16.453 0.769668 -3.80392 0
M  V30 206 H 14.554 2.82041 -2.43482 0
M  V30 207 H 14.667 2.24902 -4.23032 0
M  V30 208 H 13.031 1.2802 -2.20188 0
M  V30 209 H 13.814 0.14634 -3.42988 0
M  V30 210 N 16.2591 1.48442 0.529413 0
M  V30 211 C 17.2221 1.62524 1.61612 0
M  V30 212 C 18.2221 0.498509 1.52877 0
M  V30 213 O 19.4121 0.76431 1.56537 0
M  V30 214 C 16.5441 1.59597 3.01233 0
M  V30 215 H 17.7371 2.59423 1.50465 0
M  V30 216 H 15.2901 1.37047 0.751514 0
M  V30 217 H 16.0251 0.641781 3.17886 0
M  V30 218 H 15.8101 2.41397 3.08982 0
M  V30 219 H 17.3001 1.72646 3.80241 0
M  V30 220 N 17.7372 -0.778329 1.37039 0
M  V30 221 C 18.6672 -1.90546 1.34962 0
M  V30 222 C 19.6482 -1.68681 0.219274 0
M  V30 223 O 20.8332 -1.89634 0.418624 0
M  V30 224 C 17.9632 -3.27734 1.14925 0
M  V30 225 C 16.9172 -3.64147 2.24902 0
M  V30 226 C 16.2432 -4.99806 1.89996 0
M  V30 227 C 17.5432 -3.71579 3.67051 0
M  V30 228 H 19.2372 -1.92541 2.29277 0
M  V30 229 H 16.7832 -0.924948 1.10366 0
M  V30 230 H 18.7362 -4.06215 1.12104 0
M  V30 231 H 17.4602 -3.26154 0.170631 0
M  V30 232 H 16.1192 -2.8797 2.26868 0
M  V30 233 H 15.7672 -4.94759 0.906796 0
M  V30 234 H 15.4672 -5.25139 2.63634 0
M  V30 235 H 16.9912 -5.80694 1.88749 0
M  V30 236 H 18.4052 -4.40227 3.67251 0
M  V30 237 H 16.8022 -4.08405 4.39688 0
M  V30 238 H 17.8722 -2.72404 4.01154 0
M  V30 239 N 19.2153 -1.21501 -1.00376 0
M  V30 240 C 20.6263 -1.03146 -1.55621 0
M  V30 241 C 20.9773 0.408375 -1.91903 0
M  V30 242 O 20.1023 1.29177 -1.73616 0
M  V30 243 C 20.6973 -1.86612 -2.82775 0
M  V30 244 C 19.2563 -1.72586 -3.34501 0
M  V30 245 C 18.4033 -1.83747 -2.07683 0
M  V30 246 H 21.3543 -1.35505 -0.826081 0
M  V30 247 H 21.3753 -1.3771 -3.54706 0
M  V30 248 H 20.8873 -2.91399 -2.56336 0
M  V30 249 H 18.9883 -0.704877 -3.65872 0
M  V30 250 H 19.1013 -2.54623 -4.05837 0
M  V30 251 H 17.4653 -1.27069 -2.20739 0
M  V30 252 H 18.2483 -2.90044 -1.83655 0
M  V30 253 N 20.6934 1.19889 -1.02296 0
M  V30 254 C 21.9184 1.9393 -0.735237 0
M  V30 255 C 22.3434 1.74639 0.698782 0
M  V30 256 O 21.7014 1.04481 1.48167 0
M  V30 257 C 21.7494 3.43916 -1.08417 0
M  V30 258 O 20.8534 4.11917 -0.199446 0
M  V30 259 H 20.1944 0.605645 -0.272196 0
M  V30 260 H 22.7244 1.52137 -1.36804 0
M  V30 261 H 22.7344 3.9456 -1.03856 0
M  V30 262 H 21.4094 3.5728 -2.12894 0
M  V30 263 H 19.9864 3.71666 -0.303136 0
M  V30 264 N 22.1715 0.800033 1.35784 0
M  V30 265 C 23.3995 0.389606 2.03199 0
M  V30 266 C 23.8145 -0.997375 1.60306 0
M  V30 267 O 23.1715 -1.64154 0.797481 0
M  V30 268 C 23.2225 0.455855 3.58614 0
M  V30 269 O 22.9435 1.78815 3.99946 0
M  V30 270 C 24.4445 0.0374032 4.43284 0
M  V30 271 H 21.6645 0.159132 0.651857 0
M  V30 272 H 24.2085 1.08183 1.73541 0
M  V30 273 H 22.3635 -0.188057 3.86943 0
M  V30 274 H 22.7775 1.74636 4.94573 0
M  V30 275 H 24.2515 0.134882 5.51835 0
M  V30 276 H 24.7285 -1.01651 4.27275 0
M  V30 277 H 25.3345 0.654215 4.20238 0
M  V30 278 N 23.6496 -1.47581 0.552962 0
M  V30 279 C 24.8966 -2.02482 0.0273243 0
M  V30 280 C 25.2246 -1.42776 -1.32081 0
M  V30 281 O 24.4796 -0.571393 -1.87173 0
M  V30 282 C 24.7786 -3.57199 -0.119728 0
M  V30 283 C 24.4446 -4.35804 1.15697 0
M  V30 284 C 23.1066 -4.57 1.50681 0
M  V30 285 C 25.4586 -4.81167 2.00319 0
M  V30 286 C 22.7866 -5.20807 2.70142 0
M  V30 287 C 25.1386 -5.46293 3.18978 0
M  V30 288 C 23.8026 -5.65722 3.54281 0
M  V30 289 H 23.0726 -0.740933 0.00999866 0
M  V30 290 H 25.7196 -1.77302 0.72362 0
M  V30 291 H 24.0246 -3.81348 -0.89896 0
M  V30 292 H 25.7216 -3.97324 -0.541718 0
M  V30 293 H 22.3116 -4.19582 0.874561 0
M  V30 294 H 26.4956 -4.64574 1.74599 0
M  V30 295 H 21.7516 -5.34045 2.97668 0
M  V30 296 H 25.9256 -5.80407 3.84838 0
M  V30 297 H 23.5526 -6.14936 4.46942 0
M  V30 298 N 25.1277 -0.289203 -1.54924 0
M  V30 299 C 26.5437 0.0645403 -1.59469 0
M  V30 300 C 26.7437 1.53419 -1.30632 0
M  V30 301 O 25.7997 2.2852 -1.074 0
M  V30 302 C 27.1127 -0.32278 -2.98963 0
M  V30 303 C 28.6607 -0.270564 -3.11828 0
M  V30 304 C 29.1357 -0.632532 -4.53611 0
M  V30 305 N 30.6267 -0.584617 -4.59496 0
M  V30 306 C 31.3617 -0.837314 -5.67254 0
M  V30 307 N 30.8577 -1.15536 -6.83098 0
M  V30 308 N 32.6507 -0.765166 -5.56868 0
M  V30 309 H 24.8017 -1.24714 -1.71931 0
M  V30 310 H 27.0647 -0.504809 -0.802416 0
M  V30 311 H 26.7707 -1.34541 -3.24948 0
M  V30 312 H 26.6447 0.32944 -3.75759 0
M  V30 313 H 29.0317 0.742805 -2.85598 0
M  V30 314 H 29.1127 -0.957242 -2.37214 0
M  V30 315 H 28.7567 -1.64365 -4.80569 0
M  V30 316 H 28.6867 0.07609 -5.26545 0
M  V30 317 H 31.1777 -0.349248 -3.76283 0
M  V30 318 H 31.4907 -1.33447 -7.61191 0
M  V30 319 H 29.8357 -1.19328 -6.84679 0
M  V30 320 H 33.0267 -0.516432 -4.65243 0
M  V30 321 H 33.1997 -0.965477 -6.40767 0
M  V30 322 N 26.6058 1.57591 -0.0167156 0
M  V30 323 C 27.8308 1.9598 0.67872 0
M  V30 324 C 28.2558 0.892546 1.65575 0
M  V30 325 O 27.6138 -0.147772 1.80697 0
M  V30 326 C 27.6618 3.33468 1.37227 0
M  V30 327 O 26.7658 3.28954 2.48722 0
M  V30 328 H 26.1068 0.639339 0.17928 0
M  V30 329 H 28.6368 2.04463 -0.0748802 0
M  V30 330 H 28.6468 3.69417 1.7319 0
M  V30 331 H 27.3218 4.10694 0.656007 0
M  V30 332 H 25.8988 3.04705 2.14963 0
M  V30 333 N 28.0839 -0.256276 1.55502 0
M  V30 334 C 29.3299 -0.987079 1.77157 0
M  V30 335 C 29.6629 -1.85327 0.580315 0
M  V30 336 O 28.9379 -1.89874 -0.421686 0
M  V30 337 C 29.2209 -1.85553 3.08613 0
M  V30 338 C 29.0739 -1.01816 4.38125 0
M  V30 339 C 30.3929 -2.8397 3.36228 0
M  V30 340 H 27.5119 -0.357428 0.644526 0
M  V30 341 H 30.1539 -0.258239 1.88237 0
M  V30 342 H 28.3039 -2.47695 2.99298 0
M  V30 343 H 29.9759 -0.416159 4.59419 0
M  V30 344 H 28.2189 -0.322178 4.32602 0
M  V30 345 H 28.8899 -1.65939 5.26468 0
M  V30 346 H 31.3659 -2.31964 3.45445 0
M  V30 347 H 30.2419 -3.41864 4.29442 0
M  V30 348 H 30.5029 -3.59955 2.56681 0
M  V30 349 N 29.562 -1.4872 -0.521534 0
M  V30 350 C 30.492 -1.66771 -1.63431 0
M  V30 351 C 31.473 -0.516499 -1.62069 0
M  V30 352 O 32.658 -0.750013 -1.79132 0
M  V30 353 C 29.788 -1.71515 -3.01993 0
M  V30 354 C 28.742 -2.86222 -3.18216 0
M  V30 355 C 28.068 -2.76061 -4.57924 0
M  V30 356 C 29.368 -4.27419 -3.00184 0
M  V30 357 H 31.062 -2.59932 -1.48579 0
M  V30 358 H 28.608 -1.25089 -0.713358 0
M  V30 359 H 30.561 -1.82731 -3.7972 0
M  V30 360 H 29.285 -0.749393 -3.17886 0
M  V30 361 H 27.944 -2.74575 -2.42908 0
M  V30 362 H 27.592 -1.77437 -4.70665 0
M  V30 363 H 27.292 -3.53037 -4.69722 0
M  V30 364 H 28.816 -2.89256 -5.37739 0
M  V30 365 H 30.23 -4.39855 -3.67697 0
M  V30 366 H 28.627 -5.05458 -3.2347 0
M  V30 367 H 29.697 -4.43293 -1.96518 0
M  V30 368 N 31.0401 0.771051 -1.3745 0
M  V30 369 C 32.2881 1.52661 -1.32435 0
M  V30 370 C 32.6091 1.9479 0.0905024 0
M  V30 371 O 31.8791 1.66348 1.03466 0
M  V30 372 H 30.4591 0.566218 -0.487244 0
M  V30 373 H 33.1211 0.917636 -1.71946 0
M  V30 374 H 32.2171 2.42568 -1.96385 0
M  V30 375 N 32.5182 1.22032 0.997298 0
M  V30 376 C 33.4812 0.987909 2.06816 0
M  V30 377 C 34.4812 -0.0440084 1.6074 0
M  V30 378 O 35.6712 0.194053 1.73116 0
M  V30 379 C 32.8032 0.49132 3.37341 0
M  V30 380 H 33.9962 1.93803 2.28868 0
M  V30 381 H 31.5492 1.03838 1.16822 0
M  V30 382 H 32.2842 -0.463364 3.20973 0
M  V30 383 H 32.0692 1.23575 3.72118 0
M  V30 384 H 33.5592 0.348824 4.16141 0
M  V30 385 N 33.9963 -1.19345 1.0293 0
M  V30 386 C 35.4123 -1.41069 0.746446 0
M  V30 387 C 35.6123 -1.90078 -0.668776 0
M  V30 388 O 34.6683 -2.0778 -1.4347 0
M  V30 389 C 35.9813 -2.42141 1.78292 0
M  V30 390 C 37.5293 -2.55887 1.80252 0
M  V30 391 C 38.0043 -3.60214 2.8286 0
M  V30 392 N 39.4953 -3.67711 2.81679 0
M  V30 393 C 40.2303 -4.48128 3.57727 0
M  V30 394 N 39.7263 -5.32248 4.43491 0
M  V30 395 N 41.5193 -4.42782 3.46267 0
M  V30 396 H 33.6703 -0.858536 1.94275 0
M  V30 397 H 35.9333 -0.439541 0.839945 0
M  V30 398 H 35.6393 -2.13155 2.79746 0
M  V30 399 H 35.5133 -3.41323 1.60557 0
M  V30 400 H 37.9003 -2.84196 0.794757 0
M  V30 401 H 37.9813 -1.56858 2.02062 0
M  V30 402 H 37.6253 -3.32647 3.83807 0
M  V30 403 H 37.5553 -4.58895 2.58307 0
M  V30 404 H 40.0463 -3.07634 2.19476 0
M  V30 405 H 40.3593 -5.90729 4.98256 0
M  V30 406 H 38.7043 -5.31707 4.47564 0
M  V30 407 H 41.8953 -3.76107 2.78677 0
M  V30 408 H 42.0683 -5.05215 4.05785 0
M  V30 409 N 35.4744 -0.807222 -1.35358 0
M  V30 410 C 36.4044 -0.232509 -2.3234 0
M  V30 411 C 37.3854 0.642386 -1.57504 0
M  V30 412 O 38.5704 0.572526 -1.85569 0
M  V30 413 C 35.7004 0.619238 -3.41735 0
M  V30 414 C 34.6544 -0.157215 -4.27711 0
M  V30 415 C 33.9804 0.816273 -5.28433 0
M  V30 416 C 35.2804 -1.35656 -5.04376 0
M  V30 417 H 36.9744 -1.04276 -2.80654 0
M  V30 418 H 34.5204 -0.50288 -1.34934 0
M  V30 419 H 36.4734 1.03137 -4.08584 0
M  V30 420 H 35.1974 1.46239 -2.92031 0
M  V30 421 H 33.8564 -0.550525 -3.62443 0
M  V30 422 H 33.5044 1.65494 -4.74996 0
M  V30 423 H 33.2044 0.301067 -5.86828 0
M  V30 424 H 34.7284 1.22659 -5.98153 0
M  V30 425 H 36.1424 -1.01927 -5.64166 0
M  V30 426 H 34.5394 -1.8063 -5.7227 0
M  V30 427 H 35.6094 -2.14288 -4.34981 0
M  V30 428 N 36.9525 1.47285 -0.560781 0
M  V30 429 C 38.3635 1.86258 -0.128343 0
M  V30 430 C 38.7145 1.46699 1.30284 0
M  V30 431 O 37.8395 0.871698 1.98067 0
M  V30 432 C 38.4345 3.38044 -0.22614 0
M  V30 433 C 36.9935 3.76096 0.151283 0
M  V30 434 C 36.1405 2.71335 -0.572084 0
M  V30 435 H 39.0915 1.38752 -0.770297 0
M  V30 436 H 39.1125 3.76441 0.554322 0
M  V30 437 H 38.6245 3.66806 -1.26788 0
M  V30 438 H 36.7255 3.52951 1.19399 0
M  V30 439 H 36.8385 4.78641 -0.209765 0
M  V30 440 H 35.2025 2.54696 -0.0147653 0
M  V30 441 H 35.9855 3.02938 -1.61504 0
M  V30 442 N 38.4306 0.297415 1.54768 0
M  V30 443 C 39.8416 -0.195947 1.85669 0
M  V30 444 C 40.1926 -1.53707 1.21937 0
M  V30 445 O 39.3176 -2.10164 0.515754 0
M  V30 446 C 39.9126 -0.362318 3.36857 0
M  V30 447 C 38.4716 -0.799901 3.67802 0
M  V30 448 C 37.6186 0.0938578 2.77141 0
M  V30 449 H 40.5696 0.518538 1.4999 0
M  V30 450 H 40.5906 -1.19745 3.61167 0
M  V30 451 H 40.1026 0.613921 3.83214 0
M  V30 452 H 38.2036 -1.78682 3.26961 0
M  V30 453 H 38.3166 -0.621773 4.75048 0
M  V30 454 H 36.6806 -0.426254 2.51108 0
M  V30 455 H 37.4636 1.06639 3.26318 0
M  V30 456 N 39.9087 -1.5758 0.0250728 0
M  V30 457 C 41.3197 -1.79476 -0.514323 0
M  V30 458 C 41.6707 -0.934956 -1.72491 0
M  V30 459 O 40.7957 -0.144245 -2.15919 0
M  V30 460 C 41.3907 -3.25503 -0.939842 0
M  V30 461 C 39.9497 -3.48408 -1.42438 0
M  V30 462 C 39.0967 -2.74583 -0.387201 0
M  V30 463 H 42.0477 -1.567 0.25113 0
M  V30 464 H 42.0687 -3.34992 -1.80445 0
M  V30 465 H 41.5807 -3.88056 -0.0585628 0
M  V30 466 H 39.6817 -2.91103 -2.32572 0
M  V30 467 H 39.7947 -4.57119 -1.43455 0
M  V30 468 H 38.1587 -2.39942 -0.854409 0
M  V30 469 H 38.9417 -3.39849 0.485543 0
M  V30 470 N 41.3868 0.248026 -1.55636 0
M  V30 471 C 42.2968 1.32859 -1.93354 0
M  V30 472 C 43.3128 1.52719 -0.833838 0
M  V30 473 O 44.4888 1.66363 -1.13513 0
M  V30 474 C 41.5538 2.66337 -2.21958 0
M  V30 475 C 40.6148 2.55008 -3.45354 0
M  V30 476 C 39.8478 3.82121 -3.72584 0
M  V30 477 O 40.0708 4.83951 -3.01907 0
M  V30 478 O 39.0048 3.80822 -4.6611 0
M  V30 479 H 42.8308 1.03862 -2.85388 0
M  V30 480 H 40.4158 0.448686 -1.42503 0
M  V30 481 H 42.2978 3.45216 -2.4167 0
M  V30 482 H 40.9728 2.95068 -1.33103 0
M  V30 483 H 39.8798 1.7442 -3.30951 0
M  V30 484 H 41.2128 2.31222 -4.34508 0
M  V30 485 N 42.8649 1.48995 0.513639 0
M  V30 486 C 44.2809 1.35478 0.843682 0
M  V30 487 C 44.4809 0.378213 1.97919 0
M  V30 488 O 43.5369 -0.194689 2.51748 0
M  V30 489 C 44.8499 2.75901 1.1958 0
M  V30 490 C 46.3979 2.84509 1.30474 0
M  V30 491 C 46.8729 4.25671 1.69021 0
M  V30 492 N 48.3639 4.28422 1.76094 0
M  V30 493 C 49.0989 5.34601 2.07338 0
M  V30 494 N 48.5949 6.5104 2.36894 0
M  V30 495 N 50.3879 5.22007 2.08483 0
M  V30 496 H 42.5389 2.11092 -0.235328 0
M  V30 497 H 44.8019 0.947039 -0.0426669 0
M  V30 498 H 44.5079 3.49001 0.434913 0
M  V30 499 H 44.3819 3.10467 2.1422 0
M  V30 500 H 46.7689 2.11655 2.05637 0
M  V30 501 H 46.8499 2.53542 0.339155 0
M  V30 502 H 46.4939 4.99048 0.944135 0
M  V30 503 H 46.4239 4.54094 2.66658 0
M  V30 504 H 48.9149 3.44441 1.55464 0
M  V30 505 H 49.2279 7.2779 2.59887 0
M  V30 506 H 47.5729 6.54287 2.34378 0
M  V30 507 H 50.7639 4.30051 1.84861 0
M  V30 508 H 50.9369 6.04854 2.325 0
M  V30 509 N 44.343 -0.763751 1.37857 0
M  V30 510 C 45.273 -1.89103 1.36975 0
M  V30 511 C 46.254 -1.68439 0.237152 0
M  V30 512 O 47.439 -1.8918 0.438713 0
M  V30 513 C 44.569 -3.26496 1.18395 0
M  V30 514 C 43.523 -3.61741 2.28751 0
M  V30 515 C 42.849 -4.97762 1.95286 0
M  V30 516 C 44.149 -3.67665 3.70972 0
M  V30 517 H 45.843 -1.90099 2.31307 0
M  V30 518 H 43.389 -0.91319 1.11341 0
M  V30 519 H 45.342 -4.05003 1.16406 0
M  V30 520 H 44.066 -3.25955 0.205215 0
M  V30 521 H 42.725 -2.85547 2.29909 0
M  V30 522 H 42.373 -4.93769 0.959221 0
M  V30 523 H 42.073 -5.22313 2.69189 0
M  V30 524 H 43.597 -5.7866 1.94898 0
M  V30 525 H 45.011 -4.36307 3.719 0
M  V30 526 H 43.408 -4.03718 4.43995 0
M  V30 527 H 44.478 -2.68134 4.0402 0
M  V30 528 N 45.8211 -1.22559 -0.990812 0
M  V30 529 C 47.0611 -1.06302 -1.74583 0
M  V30 530 C 47.4251 0.394737 -1.87898 0
M  V30 531 O 48.6261 0.678214 -2.60103 0
M  V30 532 C 46.8971 -1.75699 -3.11231 0
M  V30 533 S 48.4561 -1.74882 -4.02445 0
M  V30 534 H 45.2741 -0.380639 -0.600529 0
M  V30 535 H 47.8761 -1.55532 -1.18449 0
M  V30 536 H 46.5801 -2.80923 -2.99183 0
M  V30 537 H 46.1111 -1.26708 -3.72436 0
M  V30 538 H 48.1261 -0.799997 -4.89709 0
M  V30 539 N 47.2992 1.18797 -1.03562 0
M  V30 540 C 48.5472 1.88278 -0.734569 0
M  V30 541 C 48.8682 1.8043 0.739586 0
M  V30 542 O 48.1382 1.21925 1.53333 0
M  V30 543 H 46.7182 0.696991 -0.268725 0
M  V30 544 H 49.3802 1.44192 -1.31129 0
M  V30 545 H 48.4762 2.94443 -1.03489 0
M  V30 546 N 48.7773 0.814389 1.34928 0
M  V30 547 C 50.0243 0.398423 1.98542 0
M  V30 548 C 50.3523 -1.03638 1.64589 0
M  V30 549 O 49.6073 -1.73509 0.90516 0
M  V30 550 C 49.9063 0.537781 3.53331 0
M  V30 551 C 49.5723 1.93704 4.07172 0
M  V30 552 C 48.2343 2.31984 4.21589 0
M  V30 553 C 50.5863 2.85213 4.36237 0
M  V30 554 C 47.9143 3.61125 4.62391 0
M  V30 555 C 50.2663 4.13809 4.78482 0
M  V30 556 C 48.9303 4.52077 4.91104 0
M  V30 557 H 48.2003 0.145793 0.726516 0
M  V30 558 H 50.8473 1.03669 1.61012 0
M  V30 559 H 49.1523 -0.183906 3.91368 0
M  V30 560 H 50.8493 0.196588 4.00518 0
M  V30 561 H 47.4393 1.62966 3.96409 0
M  V30 562 H 51.6233 2.56885 4.24645 0
M  V30 563 H 46.8793 3.90612 4.70353 0
M  V30 564 H 51.0533 4.84811 4.99932 0
M  V30 565 H 48.6803 5.52196 5.22478 0
M  V30 566 N 50.2554 -1.46986 0.568584 0
M  V30 567 C 51.1874 -2.28233 -0.210337 0
M  V30 568 C 52.2004 -1.37682 -0.868767 0
M  V30 569 O 53.3894 -1.62406 -0.740705 0
M  V30 570 C 50.4894 -3.12293 -1.3163 0
M  V30 571 C 49.6624 -4.30878 -0.7525 0
M  V30 572 C 48.7214 -4.96445 -1.74439 0
M  V30 573 O 47.7474 -5.54482 -1.286 0
M  V30 574 N 48.9494 -4.92171 -3.07812 0
M  V30 575 H 51.7144 -2.95723 0.486648 0
M  V30 576 H 49.2754 -1.56742 0.405409 0
M  V30 577 H 51.2674 -3.53022 -1.97883 0
M  V30 578 H 49.8374 -2.46971 -1.91636 0
M  V30 579 H 49.0574 -3.94104 0.0871128 0
M  V30 580 H 50.3454 -5.07558 -0.35536 0
M  V30 581 H 49.7434 -4.46239 -3.47688 0
M  V30 582 H 48.3004 -5.36884 -3.69592 0
M  V30 583 N 51.7335 -0.305618 -1.54608 0
M  V30 584 C 52.6805 0.568421 -2.23691 0
M  V30 585 C 53.6505 1.12592 -1.22116 0
M  V30 586 O 54.8355 1.16959 -1.50749 0
M  V30 587 C 51.9755 1.7322 -2.98477 0
M  V30 588 C 51.0885 1.20566 -4.14835 0
M  V30 589 C 50.2235 2.33368 -4.77193 0
M  V30 590 C 49.2625 1.7787 -5.85686 0
M  V30 591 N 48.3995 2.84263 -6.4198 0
M  V30 592 H 53.2395 -0.0272867 -2.97988 0
M  V30 593 H 50.7765 -0.0252363 -1.47078 0
M  V30 594 H 52.7345 2.41675 -3.40072 0
M  V30 595 H 51.3645 2.29947 -2.26548 0
M  V30 596 H 50.4165 0.413223 -3.78149 0
M  V30 597 H 51.7285 0.759417 -4.92985 0
M  V30 598 H 50.8825 3.09761 -5.21664 0
M  V30 599 H 49.6215 2.8132 -3.98385 0
M  V30 600 H 48.6265 0.99968 -5.40635 0
M  V30 601 H 49.8515 1.30816 -6.66381 0
M  V30 602 H 47.7975 3.31541 -5.66053 0
M  V30 603 H 47.7145 2.44149 -7.15491 0
M  V30 604 H 48.9825 3.6054 -6.91109 0
M  V30 605 N 53.2116 1.57565 -0.0334293 0
M  V30 606 C 54.1586 2.10478 0.946981 0
M  V30 607 C 55.1286 1.00787 1.32027 0
M  V30 608 O 56.3136 1.28232 1.41284 0
M  V30 609 C 53.4536 2.63994 2.22263 0
M  V30 610 C 52.5666 3.87709 1.90541 0
M  V30 611 C 51.7016 4.29604 3.12433 0
M  V30 612 C 50.7406 5.46065 2.76549 0
M  V30 613 N 49.8776 5.83096 3.9108 0
M  V30 614 H 54.7176 2.93963 0.488846 0
M  V30 615 H 52.2546 1.45296 0.22969 0
M  V30 616 H 54.2126 2.93114 2.96884 0
M  V30 617 H 52.8426 1.83333 2.65685 0
M  V30 618 H 51.8946 3.65291 1.06144 0
M  V30 619 H 53.2066 4.72403 1.60116 0
M  V30 620 H 52.3606 4.60182 3.9537 0
M  V30 621 H 51.0996 3.43685 3.46023 0
M  V30 622 H 50.1046 5.15176 1.92026 0
M  V30 623 H 51.3296 6.33685 2.44171 0
M  V30 624 H 49.2756 5.00132 4.24504 0
M  V30 625 H 49.1926 6.6244 3.64293 0
M  V30 626 H 50.4606 6.18282 4.74708 0
M  V30 627 N 54.6897 -0.239769 1.55765 0
M  V30 628 C 55.9177 -0.98417 1.81994 0
M  V30 629 C 56.3327 -1.7867 0.610124 0
M  V30 630 O 55.6897 -1.77571 -0.421271 0
M  V30 631 C 55.7407 -1.91635 3.06526 0
M  V30 632 O 55.4617 -1.14629 4.22838 0
M  V30 633 C 56.9627 -2.77616 3.45607 0
M  V30 634 H 54.1827 -0.28928 0.605441 0
M  V30 635 H 56.7267 -0.260499 2.02834 0
M  V30 636 H 54.8817 -2.5942 2.87715 0
M  V30 637 H 55.2957 -1.77745 4.93464 0
M  V30 638 H 56.7697 -3.38759 4.35828 0
M  V30 639 H 57.2467 -3.4909 2.6652 0
M  V30 640 H 57.8527 -2.15271 3.66795 0
M  V30 641 N 56.1678 -1.49265 -0.50573 0
M  V30 642 C 57.3978 -1.61979 -1.28243 0
M  V30 643 C 57.8058 -0.288576 -1.86986 0
M  V30 644 O 57.1488 0.735408 -1.68337 0
M  V30 645 C 57.2108 -2.62632 -2.45489 0
M  V30 646 C 56.8748 -4.071 -2.07651 0
M  V30 647 C 57.8718 -4.94049 -1.61901 0
M  V30 648 C 55.5568 -4.52801 -2.17431 0
M  V30 649 C 57.5508 -6.24736 -1.26428 0
M  V30 650 C 55.2378 -5.83503 -1.8157 0
M  V30 651 C 56.2358 -6.69294 -1.36142 0
M  V30 652 O 55.9238 -7.9756 -1.00764 0
M  V30 653 H 55.6558 -0.54834 -0.395347 0
M  V30 654 H 58.2098 -1.96002 -0.614204 0
M  V30 655 H 56.4398 -2.2378 -3.15372 0
M  V30 656 H 58.1288 -2.64925 -3.07522 0
M  V30 657 H 58.8948 -4.5997 -1.53795 0
M  V30 658 H 54.7738 -3.86196 -2.51742 0
M  V30 659 H 58.3178 -6.91652 -0.908992 0
M  V30 660 H 54.2148 -6.17112 -1.89324 0
M  V30 661 H 54.9828 -8.10529 -1.13952 0
M  V30 662 N 57.6459 0.756429 -1.3826 0
M  V30 663 C 58.8709 1.55077 -1.37717 0
M  V30 664 C 59.2959 1.88073 0.03164 0
M  V30 665 O 58.6539 1.50364 1.01293 0
M  V30 666 C 58.7019 2.8283 -2.23695 0
M  V30 667 O 57.8059 3.77862 -1.6521 0
M  V30 668 H 57.1469 0.469152 -0.469885 0
M  V30 669 H 59.6769 0.935019 -1.81985 0
M  V30 670 H 59.6869 3.31783 -2.37453 0
M  V30 671 H 58.3619 2.58144 -3.2609 0
M  V30 672 H 56.9389 3.36555 -1.60578 0
M  V30 673 N 59.124 1.23083 0.984299 0
M  V30 674 C 60.071 1.00854 2.07598 0
M  V30 675 C 61.041 -0.0726709 1.65941 0
M  V30 676 O 62.226 0.0786535 1.90638 0
M  V30 677 C 59.366 0.601645 3.39815 0
M  V30 678 C 58.479 1.75456 3.94765 0
M  V30 679 C 57.614 1.29482 5.15177 0
M  V30 680 C 56.653 2.41873 5.62284 0
M  V30 681 N 55.79 1.96885 6.73929 0
M  V30 682 H 60.63 1.943 2.25946 0
M  V30 683 H 58.167 0.968001 1.10762 0
M  V30 684 H 60.125 0.346854 4.15756 0
M  V30 685 H 58.755 -0.295803 3.21442 0
M  V30 686 H 57.807 2.12346 3.15616 0
M  V30 687 H 59.119 2.59965 4.25699 0
M  V30 688 H 58.273 0.997923 5.98437 0
M  V30 689 H 57.012 0.420046 4.85888 0
M  V30 690 H 56.017 2.72342 4.77608 0
M  V30 691 H 57.242 3.29881 5.93595 0
M  V30 692 H 55.188 1.11782 6.46406 0
M  V30 693 H 55.105 2.74956 7.04227 0
M  V30 694 H 56.373 1.70289 7.60672 0
M  V30 695 N 60.6021 -1.18246 1.0419 0
M  V30 696 C 61.5351 -2.20746 0.578474 0
M  V30 697 C 62.5131 -1.57912 -0.387624 0
M  V30 698 O 63.6971 -1.86071 -0.301634 0
M  V30 699 C 60.8241 -3.38346 -0.154762 0
M  V30 700 C 59.8701 -4.19587 0.764782 0
M  V30 701 S 60.7031 -4.86014 2.24835 0
M  V30 702 C 61.8591 -6.07012 1.526 0
M  V30 703 H 62.0921 -2.59715 1.44691 0
M  V30 704 H 59.6251 -1.287 0.85297 0
M  V30 705 H 61.5831 -4.065 -0.571641 0
M  V30 706 H 60.2441 -2.97786 -0.999105 0
M  V30 707 H 59.4371 -5.03611 0.197976 0
M  V30 708 H 59.0391 -3.56818 1.12057 0
M  V30 709 H 61.3311 -6.72523 0.819733 0
M  V30 710 H 62.2741 -6.68202 2.34333 0
M  V30 711 H 62.6821 -5.55249 1.01779 0
M  V30 712 N 62.0802 -0.821533 -1.34494 0
M  V30 713 C 63.0282 -0.230702 -2.31453 0
M  V30 714 C 64.0222 0.627793 -1.57338 0
M  V30 715 O 65.2282 0.519288 -1.72347 0
M  V30 716 H 61.6032 -0.0558577 -0.749923 0
M  V30 717 H 63.5742 -1.06332 -2.78812 0
M  V30 718 C 62.3232 0.59391 -3.4259 0
M  V30 719 H 61.6462 -0.0573588 -3.99759 0
M  V30 720 H 63.0862 0.973446 -4.12674 0
M  V30 721 C 61.5452 1.76568 -2.86924 0
M  V30 722 O 62.0752 2.8638 -2.81691 0
M  V30 723 N 60.2812 1.58198 -2.43766 0
M  V30 724 H 59.8282 0.68872 -2.48222 0
M  V30 725 H 59.7862 2.36752 -2.06871 0
M  V30 726 N 63.5583 1.46682 -0.576371 0
M  V30 727 C 64.5063 2.31953 0.17335 0
M  V30 728 C 65.5003 1.44098 0.89062 0
M  V30 729 O 66.7063 1.60759 0.809728 0
M  V30 730 H 63.0813 0.748273 0.0747727 0
M  V30 731 H 65.0523 2.93007 -0.564738 0
M  V30 732 C 63.8013 3.27142 1.17786 0
M  V30 733 H 63.1243 3.94719 0.635361 0
M  V30 734 H 64.5643 3.896 1.67296 0
M  V30 735 C 63.0233 2.52036 2.23561 0
M  V30 736 O 63.5533 2.27877 3.3081 0
M  V30 737 N 61.7593 2.12709 1.97998 0
M  V30 738 H 61.3063 2.32557 1.10792 0
M  V30 739 H 61.2643 1.62776 2.68982 0
M  V30 740 N 65.0364 0.313813 1.54444 0
M  V30 741 C 66.4474 -0.176243 1.85866 0
M  V30 742 C 66.7984 -1.52405 1.23561 0
M  V30 743 O 65.9234 -2.09605 0.538016 0
M  V30 744 C 66.5184 -0.32657 3.37222 0
M  V30 745 C 65.0774 -0.760846 3.6863 0
M  V30 746 C 64.2244 0.123247 2.77026 0
M  V30 747 H 67.1754 0.534418 1.49431 0
M  V30 748 H 67.1964 -1.15908 3.62416 0
M  V30 749 H 66.7084 0.654531 3.82541 0
M  V30 750 H 64.8094 -1.75204 3.28838 0
M  V30 751 H 64.9224 -0.571353 4.75681 0
M  V30 752 H 63.2864 -0.399597 2.51546 0
M  V30 753 H 64.0694 1.10094 3.25168 0
M  V30 754 N 66.5145 -1.57545 0.0417849 0
M  V30 755 C 67.4775 -2.09885 -0.92093 0
M  V30 756 C 68.4775 -1.01648 -1.24596 0
M  V30 757 O 69.6675 -1.27759 -1.1842 0
M  V30 758 C 66.7995 -2.57527 -2.23367 0
M  V30 759 H 67.9925 -2.96236 -0.467382 0
M  V30 760 H 65.5455 -1.5493 -0.206467 0
M  V30 761 H 66.2805 -1.74542 -2.73323 0
M  V30 762 H 66.0655 -3.36613 -2.01083 0
M  V30 763 H 67.5555 -2.98201 -2.92346 0
M  V30 764 N 67.9926 0.231505 -1.5589 0
M  V30 765 C 69.2416 0.955346 -1.7764 0
M  V30 766 C 69.5546 1.85893 -0.608546 0
M  V30 767 O 70.7606 2.62067 -0.70943 0
M  V30 768 C 69.2166 1.74886 -3.14552 0
M  V30 769 C 68.8246 0.891915 -4.39032 0
M  V30 770 C 70.5686 2.46452 -3.45633 0
M  V30 771 C 68.4756 1.68221 -5.66971 0
M  V30 772 H 67.4056 0.360446 -0.662265 0
M  V30 773 H 70.0566 0.209516 -1.823 0
M  V30 774 H 68.4386 2.53723 -3.04041 0
M  V30 775 H 69.6126 0.144793 -4.60572 0
M  V30 776 H 67.9276 0.288863 -4.15397 0
M  V30 777 H 70.5246 3.06061 -4.38441 0
M  V30 778 H 70.8676 3.18841 -2.67668 0
M  V30 779 H 71.4006 1.74613 -3.57428 0
M  V30 780 H 68.1396 1.00178 -6.478 0
M  V30 781 H 67.6596 2.4042 -5.49507 0
M  V30 782 H 69.3386 2.24544 -6.06786 0
M  V30 783 N 69.4707 1.49531 0.497807 0
M  V30 784 C 70.4177 1.66436 1.59899 0
M  V30 785 C 71.3877 0.505793 1.58212 0
M  V30 786 O 72.5727 0.733202 1.7615 0
M  V30 787 C 69.7127 1.7399 2.98029 0
M  V30 788 C 68.8257 3.01172 3.09708 0
M  V30 789 C 67.9607 2.99686 4.38591 0
M  V30 790 C 66.9997 4.21434 4.43914 0
M  V30 791 N 66.1367 4.1784 5.64229 0
M  V30 792 H 70.9767 2.60459 1.44793 0
M  V30 793 H 68.5137 1.29137 0.704423 0
M  V30 794 H 70.4717 1.76352 3.78095 0
M  V30 795 H 69.1017 0.834301 3.11832 0
M  V30 796 H 68.1537 3.08408 2.22685 0
M  V30 797 H 69.4657 3.91165 3.09502 0
M  V30 798 H 68.6197 3.00628 5.2698 0
M  V30 799 H 67.3587 2.07477 4.41367 0
M  V30 800 H 66.3637 4.20733 3.53926 0
M  V30 801 H 67.5887 5.14839 4.42851 0
M  V30 802 H 65.5347 3.28469 5.67841 0
M  V30 803 H 65.4517 5.01571 5.65652 0
M  V30 804 H 66.7197 4.22889 6.54817 0
M  V30 805 N 70.9488 -0.749086 1.3866 0
M  V30 806 C 72.3648 -1.05276 1.19955 0
M  V30 807 C 72.5648 -2.01435 0.05134 0
M  V30 808 O 71.6208 -2.45232 -0.60147 0
M  V30 809 C 72.9338 -1.62853 2.52783 0
M  V30 810 C 74.4818 -1.75002 2.59506 0
M  V30 811 C 74.9568 -2.35991 3.92521 0
M  V30 812 N 76.4478 -2.43416 3.94085 0
M  V30 813 C 77.1828 -2.91511 4.9377 0
M  V30 814 N 76.6788 -3.39608 6.03853 0
M  V30 815 N 78.4718 -2.90592 4.81157 0
M  V30 816 H 70.6228 -0.111066 2.12109 0
M  V30 817 H 72.8858 -0.111901 0.941373 0
M  V30 818 H 72.5918 -0.99664 3.37283 0
M  V30 819 H 72.4658 -2.61854 2.715 0
M  V30 820 H 74.8528 -2.37317 1.75398 0
M  V30 821 H 74.9338 -0.74693 2.44652 0
M  V30 822 H 74.5778 -1.74308 4.77053 0
M  V30 823 H 74.5078 -3.3695 4.04688 0
M  V30 824 H 76.9988 -2.09405 3.14576 0
M  V30 825 H 77.3118 -3.74775 6.75843 0
M  V30 826 H 75.6568 -3.37653 6.07466 0
M  V30 827 H 78.8478 -2.52332 3.94267 0
M  V30 828 H 79.0208 -3.27762 5.58996 0
M  V30 829 N 72.4269 -1.23603 -0.977757 0
M  V30 830 C 73.6759 -1.06377 -1.71368 0
M  V30 831 C 73.9889 0.399062 -1.91486 0
M  V30 832 O 75.1949 0.691312 -2.62551 0
M  V30 833 C 73.6509 -1.85512 -3.08404 0
M  V30 834 C 73.2589 -3.36141 -2.96164 0
M  V30 835 C 75.0029 -1.76783 -3.85938 0
M  V30 836 C 72.9099 -4.07659 -4.28449 0
M  V30 837 H 71.8399 -0.394452 -0.642591 0
M  V30 838 H 74.4909 -1.47594 -1.09034 0
M  V30 839 H 72.8729 -1.37103 -3.71509 0
M  V30 840 H 74.0469 -3.92056 -2.42133 0
M  V30 841 H 72.3619 -3.45712 -2.32104 0
M  V30 842 H 74.9589 -2.27526 -4.83876 0
M  V30 843 H 75.3019 -0.731116 -4.0983 0
M  V30 844 H 75.8349 -2.22818 -3.2954 0
M  V30 845 H 72.5739 -5.11648 -4.09752 0
M  V30 846 H 72.0939 -3.5653 -4.82334 0
M  V30 847 H 73.7729 -4.141 -4.97122 0
M  V30 848 N 73.905 1.17692 -1.04816 0
M  V30 849 C 75.153 1.87488 -0.754497 0
M  V30 850 C 75.474 1.81205 0.720407 0
M  V30 851 O 74.744 1.23544 1.52032 0
M  V30 852 H 73.324 0.694101 -0.276102 0
M  V30 853 H 75.986 1.42793 -1.32651 0
M  V30 854 H 75.082 2.93328 -1.06606 0
M  V30 855 N 75.3831 0.828654 1.34056 0
M  V30 856 C 76.3311 0.242973 2.31327 0
M  V30 857 C 77.3251 -0.61944 1.57668 0
M  V30 858 O 78.5311 -0.51014 1.7262 0
M  V30 859 H 74.9061 0.059834 0.749616 0
M  V30 860 H 76.8771 1.07809 2.78244 0
M  V30 861 C 75.6261 -0.575733 3.429 0
M  V30 862 H 74.9491 0.0785582 3.99723 0
M  V30 863 H 76.3891 -0.951547 4.13185 0
M  V30 864 C 74.8481 -1.75044 2.87856 0
M  V30 865 O 75.3781 -2.84882 2.83205 0
M  V30 866 N 73.5841 -1.56903 2.44602 0
M  V30 867 H 73.1311 -0.675547 2.48584 0
M  V30 868 H 73.0891 -2.35652 2.08124 0
M  V30 869 N 76.8612 -1.46375 0.584142 0
M  V30 870 C 77.8112 -2.27371 -0.169232 0
M  V30 871 C 78.7952 -1.35955 -0.860523 0
M  V30 872 O 79.9872 -1.60119 -0.754382 0
M  V30 873 C 77.1162 -3.22334 -1.18134 0
M  V30 874 C 76.2022 -4.21235 -0.492088 0
M  V30 875 N 76.5932 -5.03766 0.453129 0
M  V30 876 C 74.8912 -4.39773 -0.742652 0
M  V30 877 C 75.5922 -5.75366 0.85609 0
M  V30 878 N 74.5682 -5.43214 0.204926 0
M  V30 879 H 78.3702 -2.88572 0.557097 0
M  V30 880 H 75.8842 -1.57242 0.406042 0
M  V30 881 H 77.8812 -3.79071 -1.73525 0
M  V30 882 H 76.5412 -2.62693 -1.90847 0
M  V30 883 H 77.5522 -5.11227 0.828723 0
M  V30 884 H 74.2292 -3.91279 -1.45625 0
M  V30 885 H 75.6192 -6.5172 1.63434 0
M  V30 886 N 78.3393 -0.321999 -1.54275 0
M  V30 887 C 79.5883 0.281931 -1.9972 0
M  V30 888 C 79.9013 1.53369 -1.21397 0
M  V30 889 O 81.1073 2.21352 -1.57211 0
M  V30 890 C 79.5633 0.5529 -3.55628 0
M  V30 891 C 79.1713 -0.681721 -4.42783 0
M  V30 892 C 80.9153 1.11687 -4.09544 0
M  V30 893 C 78.8223 -0.382742 -5.9016 0
M  V30 894 H 77.7523 0.109124 -0.746062 0
M  V30 895 H 80.4033 -0.43398 -1.78294 0
M  V30 896 H 78.7853 1.32896 -3.73035 0
M  V30 897 H 79.9593 -1.45723 -4.37151 0
M  V30 898 H 78.2743 -1.1658 -3.99748 0
M  V30 899 H 80.8713 1.35515 -5.17242 0
M  V30 900 H 81.2143 2.06575 -3.61431 0
M  V30 901 H 81.7473 0.402032 -3.95763 0
M  V30 902 H 78.4863 -1.30076 -6.42464 0
M  V30 903 H 78.0063 0.355094 -5.98748 0
M  V30 904 H 79.6853 0.00800157 -6.47 0
M  V30 905 N 79.8174 1.5752 -0.0501392 0
M  V30 906 C 81.0454 1.96963 0.633492 0
M  V30 907 C 81.4604 0.927631 1.6444 0
M  V30 908 O 80.8174 -0.0882665 1.82286 0
M  V30 909 C 80.8684 3.36487 1.32132 0
M  V30 910 O 80.5894 4.36693 0.350894 0
M  V30 911 C 82.0904 3.90682 2.09481 0
M  V30 912 H 79.3104 0.648244 0.173266 0
M  V30 913 H 81.8544 2.0417 -0.116134 0
M  V30 914 H 80.0094 3.30434 2.02218 0
M  V30 915 H 80.4234 5.17702 0.841735 0
M  V30 916 H 81.8974 4.90591 2.5303 0
M  V30 917 H 82.3744 3.26053 2.94255 0
M  V30 918 H 82.9804 4.00069 1.44307 0
M  V30 919 N 81.2955 -0.223234 1.56011 0
M  V30 920 C 82.2425 -1.27664 1.92277 0
M  V30 921 C 83.2125 -1.46659 0.779763 0
M  V30 922 O 84.3975 -1.60256 1.03551 0
M  V30 923 C 81.5375 -2.62234 2.24338 0
M  V30 924 C 80.6505 -2.51051 3.51564 0
M  V30 925 C 79.7855 -3.78133 3.7308 0
M  V30 926 C 78.8245 -3.61665 4.93827 0
M  V30 927 N 77.9615 -4.80693 5.11741 0
M  V30 928 H 82.8015 -0.960358 2.82101 0
M  V30 929 H 80.3385 -0.462901 1.39627 0
M  V30 930 H 82.2965 -3.40596 2.40936 0
M  V30 931 H 80.9265 -2.91961 1.3769 0
M  V30 932 H 79.9785 -1.64132 3.43169 0
M  V30 933 H 81.2905 -2.34803 4.40079 0
M  V30 934 H 80.4445 -4.64938 3.89766 0
M  V30 935 H 79.1835 -3.97304 2.82844 0
M  V30 936 H 78.1885 -2.73244 4.77093 0
M  V30 937 H 79.4135 -3.43966 5.85546 0
M  V30 938 H 77.3595 -5.00181 4.24446 0
M  V30 939 H 77.2765 -4.67165 5.94384 0
M  V30 940 H 78.5445 -5.6893 5.3286 0
M  V30 941 N 82.7736 -1.49793 -0.48987 0
M  V30 942 C 83.9986 -1.63836 -1.27172 0
M  V30 943 C 84.4236 -0.31402 -1.8546 0
M  V30 944 O 83.7816 0.719803 -1.66399 0
M  V30 945 C 83.8296 -2.71797 -2.36978 0
M  V30 946 O 82.9336 -2.31744 -3.41128 0
M  V30 947 H 82.2746 -0.547997 -0.37496 0
M  V30 948 H 84.8046 -1.96053 -0.585191 0
M  V30 949 H 84.8146 -2.94305 -2.82575 0
M  V30 950 H 83.4896 -3.67923 -1.93921 0
M  V30 951 H 82.0666 -2.1961 -3.01373 0
M  V30 952 N 84.2517 0.741722 -1.39055 0
M  V30 953 C 85.6627 1.31966 -1.32068 0
M  V30 954 C 86.0137 1.96192 0.0180797 0
M  V30 955 O 85.1387 1.95861 0.920196 0
M  V30 956 C 85.7337 2.39954 -2.39181 0
M  V30 957 C 84.2927 2.93438 -2.35735 0
M  V30 958 C 83.4397 1.66936 -2.21422 0
M  V30 959 H 86.3907 0.539721 -1.4924 0
M  V30 960 H 86.4117 3.20182 -2.05581 0
M  V30 961 H 85.9237 1.9318 -3.36605 0
M  V30 962 H 84.0247 3.4451 -1.41929 0
M  V30 963 H 84.1377 3.4701 -3.30335 0
M  V30 964 H 82.5017 1.91016 -1.68478 0
M  V30 965 H 83.2847 1.22224 -3.20806 0
M  V30 966 N 85.7298 1.2412 0.971189 0
M  V30 967 C 86.6398 1.04747 2.09917 0
M  V30 968 C 87.6558 -0.0107162 1.73997 0
M  V30 969 O 88.8318 0.186714 2.00533 0
M  V30 970 C 85.8968 0.650828 3.40537 0
M  V30 971 C 84.9578 1.7851 3.90426 0
M  V30 972 C 84.1908 1.40729 5.14812 0
M  V30 973 O 84.4138 0.29557 5.69634 0
M  V30 974 O 83.3478 2.23168 5.58999 0
M  V30 975 H 87.1738 1.99304 2.29154 0
M  V30 976 H 84.7588 1.02908 1.08307 0
M  V30 977 H 86.6408 0.440992 4.19086 0
M  V30 978 H 85.3158 -0.265649 3.22608 0
M  V30 979 H 84.2228 2.04966 3.12953 0
M  V30 980 H 85.5558 2.68023 4.12825 0
M  V30 981 N 87.2079 -1.17134 1.05439 0
M  V30 982 C 88.4849 -1.83411 0.679699 0
M  V30 983 C 88.8649 -1.9368 -0.839726 0
M  V30 984 O 88.2129 -1.47325 -1.74664 0
M  V30 985 C 88.4229 -3.20918 1.37159 0
M  V30 986 C 89.7709 -3.96796 1.51123 0
M  V30 987 O 90.7949 -3.30406 1.3308 0
M  V30 988 O 89.6539 -5.15778 1.80651 0
M  V30 989 H 86.7479 -0.79154 0.239569 0
M  V30 990 H 89.2939 -1.24411 1.15413 0
M  V30 991 H 88.0659 -3.08428 2.40807 0
M  V30 992 H 87.6889 -3.87587 0.886674 0
M  V30 993 N 88.686 -0.835752 -1.33615 0
M  V30 994 C 89.633 -0.26473 -2.29277 0
M  V30 995 C 90.603 0.617712 -1.54187 0
M  V30 996 O 91.788 0.556641 -1.825 0
M  V30 997 C 88.928 0.556777 -3.40579 0
M  V30 998 C 88.041 -0.349339 -4.30585 0
M  V30 999 C 87.176 0.482969 -5.29 0
M  V30 1000 C 86.215 -0.421732 -6.10645 0
M  V30 1001 N 85.352 0.372262 -7.01112 0
M  V30 1002 H 90.192 -1.08582 -2.77514 0
M  V30 1003 H 87.729 -0.546927 -1.36554 0
M  V30 1004 H 89.687 1.04852 -4.03809 0
M  V30 1005 H 88.317 1.34286 -2.93542 0
M  V30 1006 H 87.369 -0.959372 -3.68104 0
M  V30 1007 H 88.681 -1.04445 -4.87742 0
M  V30 1008 H 87.835 1.03866 -5.97743 0
M  V30 1009 H 86.574 1.21153 -4.72412 0
M  V30 1010 H 85.579 -0.989464 -5.40823 0
M  V30 1011 H 86.804 -1.14861 -6.69316 0
M  V30 1012 H 84.75 1.08426 -6.46977 0
M  V30 1013 H 84.667 -0.264198 -7.55538 0
M  V30 1014 H 85.935 0.910293 -7.74167 0
M  V30 1015 N 90.1641 1.46063 -0.591896 0
M  V30 1016 C 91.5801 1.57561 -0.254288 0
M  V30 1017 C 91.7801 1.58565 1.24336 0
M  V30 1018 O 90.8361 1.50753 2.02558 0
M  V30 1019 C 92.1491 2.86549 -0.911611 0
M  V30 1020 C 93.6971 3.00197 -0.886059 0
M  V30 1021 C 94.1721 4.31933 -1.5231 0
M  V30 1022 N 95.6631 4.38654 -1.48786 0
M  V30 1023 C 96.3981 5.39222 -1.95006 0
M  V30 1024 N 95.8941 6.46414 -2.49241 0
M  V30 1025 N 97.6871 5.3048 -1.85868 0
M  V30 1026 H 89.8381 1.43655 -1.56451 0
M  V30 1027 H 92.1011 0.68583 -0.654478 0
M  V30 1028 H 91.8071 2.91651 -1.96551 0
M  V30 1029 H 91.6811 3.74794 -0.425368 0
M  V30 1030 H 94.0681 2.9467 0.159246 0
M  V30 1031 H 94.1491 2.13403 -1.41041 0
M  V30 1032 H 93.7931 4.38217 -2.56765 0
M  V30 1033 H 93.7231 5.17516 -0.973891 0
M  V30 1034 H 96.2141 3.61793 -1.09151 0
M  V30 1035 H 96.5271 7.19376 -2.82344 0
M  V30 1036 H 94.8721 6.47208 -2.53272 0
M  V30 1037 H 98.0631 4.45643 -1.43248 0
M  V30 1038 H 98.2361 6.08711 -2.22204 0
M  V30 1039 N 91.6422 0.330177 1.54103 0
M  V30 1040 C 92.5522 -0.541534 2.28264 0
M  V30 1041 C 93.5682 -1.12351 1.32866 0
M  V30 1042 O 94.7442 -1.14206 1.65888 0
M  V30 1043 C 91.8092 -1.68322 3.03098 0
M  V30 1044 C 90.8702 -1.13238 4.14096 0
M  V30 1045 C 90.1032 -2.21966 4.85352 0
M  V30 1046 O 90.3262 -3.42437 4.56172 0
M  V30 1047 O 89.2602 -1.87013 5.7211 0
M  V30 1048 H 93.0862 0.060938 3.03639 0
M  V30 1049 H 90.6712 0.09565 1.49093 0
M  V30 1050 H 92.5532 -2.34777 3.49939 0
M  V30 1051 H 91.2282 -2.27176 2.30593 0
M  V30 1052 H 90.1352 -0.432736 3.71589 0
M  V30 1053 H 91.4682 -0.588898 4.88664 0
M  V30 1054 N 93.1203 -1.57491 0.0584922 0
M  V30 1055 C 94.3503 -1.9701 -0.622134 0
M  V30 1056 C 94.7583 -0.935034 -1.6448 0
M  V30 1057 O 94.1013 0.0882904 -1.83488 0
M  V30 1058 C 94.1633 -3.32794 -1.35972 0
M  V30 1059 C 93.8273 -4.54343 -0.492043 0
M  V30 1060 C 94.8243 -5.19323 0.244901 0
M  V30 1061 C 92.5093 -5.00534 -0.420821 0
M  V30 1062 C 94.5033 -6.28835 1.04143 0
M  V30 1063 C 92.1903 -6.09921 0.379389 0
M  V30 1064 C 93.1883 -6.73933 1.10919 0
M  V30 1065 O 92.8763 -7.81216 1.89623 0
M  V30 1066 H 92.6083 -0.653127 -0.174359 0
M  V30 1067 H 95.1623 -2.05029 0.123418 0
M  V30 1068 H 93.3923 -3.21351 -2.15105 0
M  V30 1069 H 95.0813 -3.5701 -1.93129 0
M  V30 1070 H 95.8473 -4.8459 0.19939 0
M  V30 1071 H 91.7263 -4.50496 -0.978474 0
M  V30 1072 H 95.2703 -6.7873 1.61157 0
M  V30 1073 H 91.1673 -6.44089 0.426512 0
M  V30 1074 H 91.9353 -7.98029 1.81913 0
M  V30 1075 N 94.5984 0.214957 -1.56127 0
M  V30 1076 C 96.0144 0.564948 -1.49267 0
M  V30 1077 C 96.2144 1.86827 -0.754838 0
M  V30 1078 O 95.2704 2.50745 -0.297198 0
M  V30 1079 C 96.5834 0.638071 -2.93852 0
M  V30 1080 C 98.1314 0.728253 -3.0441 0
M  V30 1081 C 98.6064 0.832663 -4.50367 0
M  V30 1082 N 100.097 0.896712 -4.54437 0
M  V30 1083 C 100.832 0.997324 -5.6466 0
M  V30 1084 N 100.328 1.06147 -6.8462 0
M  V30 1085 N 102.121 1.03297 -5.52527 0
M  V30 1086 H 94.2724 -0.640211 -2.02522 0
M  V30 1087 H 96.5354 -0.225507 -0.920788 0
M  V30 1088 H 96.2414 -0.250126 -3.50809 0
M  V30 1089 H 96.1154 1.49947 -3.46115 0
M  V30 1090 H 98.5024 1.60689 -2.47514 0
M  V30 1091 H 98.5834 -0.158952 -2.55306 0
M  V30 1092 H 98.2274 -0.0415417 -5.07883 0
M  V30 1093 H 98.1574 1.73538 -4.97184 0
M  V30 1094 H 100.648 0.857188 -3.6805 0
M  V30 1095 H 100.961 1.1382 -7.64372 0
M  V30 1096 H 99.3064 1.03049 -6.87318 0
M  V30 1097 H 102.497 0.979558 -4.57736 0
M  V30 1098 H 102.67 1.10793 -6.38458 0
M  V30 1099 N 96.0765 1.50051 0.48192 0
M  V30 1100 C 97.3245 1.60181 1.23234 0
M  V30 1101 C 97.6455 0.299176 1.92691 0
M  V30 1102 O 96.9155 -0.682708 1.83619 0
M  V30 1103 H 95.4955 0.590232 0.457859 0
M  V30 1104 H 98.1575 1.86775 0.556881 0
M  V30 1105 H 97.2535 2.40753 1.98607 0
M  V30 1106 N 97.5546 -0.734337 1.39446 0
M  V30 1107 C 98.4846 -1.86155 1.40955 0
M  V30 1108 C 99.4656 -1.67898 0.272827 0
M  V30 1109 O 100.651 -1.88207 0.478743 0
M  V30 1110 C 97.7806 -3.23912 1.25294 0
M  V30 1111 C 96.7346 -3.56808 2.36373 0
M  V30 1112 C 96.0606 -4.93508 2.058 0
M  V30 1113 C 97.3606 -3.59713 3.78687 0
M  V30 1114 H 99.0546 -1.8515 2.35287 0
M  V30 1115 H 96.6006 -0.889367 1.13253 0
M  V30 1116 H 98.5536 -4.02443 1.2497 0
M  V30 1117 H 97.2776 -3.25446 0.274308 0
M  V30 1118 H 95.9366 -2.80606 2.35914 0
M  V30 1119 H 95.5846 -4.91623 1.06374 0
M  V30 1120 H 95.2846 -5.16486 2.80208 0
M  V30 1121 H 96.8086 -5.74396 2.07128 0
M  V30 1122 H 98.2226 -4.2832 3.81071 0
M  V30 1123 H 96.6196 -3.94209 4.52459 0
M  V30 1124 H 97.6896 -2.59504 4.09617 0
M  V30 1125 N 99.0327 -1.24633 -0.964593 0
M  V30 1126 C 99.9427 -1.05859 -2.09359 0
M  V30 1127 C 100.959 0.00148855 -1.74 0
M  V30 1128 O 102.135 -0.197346 -2.00431 0
M  V30 1129 C 99.1997 -0.668879 -3.40187 0
M  V30 1130 C 98.2607 -1.80578 -3.89474 0
M  V30 1131 C 97.4937 -1.43457 -5.14058 0
M  V30 1132 O 97.7167 -0.325775 -5.69469 0
M  V30 1133 O 96.6507 -2.2613 -5.57807 0
M  V30 1134 H 100.477 -2.00516 -2.28094 0
M  V30 1135 H 98.0617 -1.03481 -1.0776 0
M  V30 1136 H 99.9437 -0.463211 -4.18846 0
M  V30 1137 H 98.6187 0.248536 -3.22744 0
M  V30 1138 H 97.5257 -2.06623 -3.11862 0
M  V30 1139 H 98.8587 -2.70208 -4.11398 0
M  V30 1140 N 100.511 1.16574 -1.06058 0
M  V30 1141 C 101.441 2.23057 -0.690488 0
M  V30 1142 C 102.422 1.67141 0.315901 0
M  V30 1143 O 103.607 1.93253 0.191556 0
M  V30 1144 C 100.737 3.47222 -0.073625 0
M  V30 1145 C 99.6908 4.16016 -1.00573 0
M  V30 1146 C 99.0168 5.34104 -0.252289 0
M  V30 1147 C 100.317 4.67264 -2.33371 0
M  V30 1148 H 102.011 2.54271 -1.58072 0
M  V30 1149 H 99.5568 1.22218 -0.76149 0
M  V30 1150 H 101.51 4.20939 0.19714 0
M  V30 1151 H 100.234 3.15302 0.85161 0
M  V30 1152 H 98.8928 3.44223 -1.2612 0
M  V30 1153 H 98.5408 4.98437 0.675988 0
M  V30 1154 H 98.2408 5.81072 -0.873455 0
M  V30 1155 H 99.7648 6.10599 0.0109857 0
M  V30 1156 H 101.179 5.32573 -2.12223 0
M  V30 1157 H 99.5758 5.24843 -2.90963 0
M  V30 1158 H 100.646 3.83602 -2.96611 0
M  V30 1159 N 101.989 0.842826 1.3317 0
M  V30 1160 C 102.952 0.284065 2.27433 0
M  V30 1161 C 103.952 -0.54948 1.5112 0
M  V30 1162 O 105.142 -0.362699 1.70382 0
M  V30 1163 C 102.274 -0.599384 3.35589 0
M  V30 1164 H 103.467 1.11589 2.78366 0
M  V30 1165 H 101.02 0.616221 1.4364 0
M  V30 1166 H 101.755 -1.45349 2.89904 0
M  V30 1167 H 101.54 -0.00291266 3.921 0
M  V30 1168 H 103.03 -0.983488 4.05854 0
M  V30 1169 N 103.467 -1.45747 0.599634 0
M  V30 1170 C 104.415 -2.322 -0.136426 0
M  V30 1171 C 105.409 -1.45497 -0.867583 0
M  V30 1172 O 106.615 -1.62027 -0.78405 0
M  V30 1173 H 102.99 -0.749368 -0.0628588 0
M  V30 1174 H 104.961 -2.92072 0.611281 0
M  V30 1175 C 103.71 -3.28974 -1.12567 0
M  V30 1176 H 103.033 -3.9568 -0.572484 0
M  V30 1177 H 104.473 -3.92212 -1.61077 0
M  V30 1178 C 102.932 -2.55561 -2.19523 0
M  V30 1179 O 103.462 -2.33111 -3.27143 0
M  V30 1180 N 101.668 -2.15832 -1.94589 0
M  V30 1181 H 101.215 -2.3429 -1.07078 0
M  V30 1182 H 101.173 -1.67034 -2.66359 0
M  V30 1183 N 104.945 -0.338344 -1.53925 0
M  V30 1184 C 106.193 0.259245 -2.0043 0
M  V30 1185 C 106.514 1.51484 -1.22791 0
M  V30 1186 O 105.784 1.93037 -0.33368 0
M  V30 1187 H 104.364 0.0987845 -0.740439 0
M  V30 1188 H 107.026 -0.458302 -1.89435 0
M  V30 1189 H 106.122 0.505334 -3.07982 0
M  V30 1190 N 106.423 1.57458 -0.0668435 0
M  V30 1191 C 107.672 1.92477 0.602947 0
M  V30 1192 C 107.985 0.948419 1.71068 0
M  V30 1193 O 109.191 1.19124 2.43971 0
M  V30 1194 C 107.647 3.41903 1.12383 0
M  V30 1195 C 107.255 4.47975 0.04737 0
M  V30 1196 C 108.999 3.85931 1.76797 0
M  V30 1197 C 106.906 5.88529 0.582022 0
M  V30 1198 H 105.836 0.718387 0.22899 0
M  V30 1199 H 108.487 1.82978 -0.138276 0
M  V30 1200 H 106.869 3.46459 1.91787 0
M  V30 1201 H 108.043 4.55029 -0.726978 0
M  V30 1202 H 106.358 4.13384 -0.500243 0
M  V30 1203 H 108.955 4.88322 2.17821 0
M  V30 1204 H 109.298 3.23029 2.62599 0
M  V30 1205 H 109.831 3.83958 1.04024 0
M  V30 1206 H 106.57 6.55065 -0.238721 0
M  V30 1207 H 106.09 5.85004 1.324 0
M  V30 1208 H 107.769 6.38258 1.05999 0
M  V30 1209 N 107.901 -0.206675 1.56239 0
M  V30 1210 C 108.848 -1.25617 1.93621 0
M  V30 1211 C 109.818 -1.45824 0.795274 0
M  V30 1212 O 111.003 -1.59148 1.05245 0
M  V30 1213 C 108.143 -2.59839 2.27107 0
M  V30 1214 C 107.256 -2.47308 3.54207 0
M  V30 1215 C 106.391 -3.74155 3.7707 0
M  V30 1216 C 105.43 -3.56407 4.97635 0
M  V30 1217 N 104.567 -4.75238 5.1681 0
M  V30 1218 H 109.407 -0.930383 2.83104 0
M  V30 1219 H 106.944 -0.448065 1.4011 0
M  V30 1220 H 108.902 -3.38021 2.44535 0
M  V30 1221 H 107.532 -2.90485 1.40778 0
M  V30 1222 H 106.584 -1.60483 3.4489 0
M  V30 1223 H 107.896 -2.30122 4.42544 0
M  V30 1224 H 107.05 -4.60778 3.94675 0
M  V30 1225 H 105.789 -3.94282 2.87042 0
M  V30 1226 H 104.794 -2.68168 4.79964 0
M  V30 1227 H 106.019 -3.37736 5.89161 0
M  V30 1228 H 103.965 -4.95651 4.29728 0
M  V30 1229 H 103.882 -4.60835 5.99306 0
M  V30 1230 H 105.15 -5.63246 5.38864 0
M  V30 1231 N 109.379 -1.50304 -0.473955 0
M  V30 1232 C 110.625 -1.61389 -1.22806 0
M  V30 1233 C 110.958 -0.311955 -1.91678 0
M  V30 1234 O 110.233 0.686384 -1.81986 0
M  V30 1235 C 110.516 -2.79219 -2.27396 0
M  V30 1236 C 110.369 -4.19286 -1.62848 0
M  V30 1237 C 111.688 -2.92614 -3.28732 0
M  V30 1238 H 108.807 -0.587399 -0.445119 0
M  V30 1239 H 111.449 -1.82681 -0.522265 0
M  V30 1240 H 109.599 -2.61195 -2.87592 0
M  V30 1241 H 111.271 -4.48892 -1.06271 0
M  V30 1242 H 109.514 -4.23677 -0.931693 0
M  V30 1243 H 110.185 -4.97655 -2.38838 0
M  V30 1244 H 112.661 -3.09105 -2.78556 0
M  V30 1245 H 111.537 -3.76688 -3.99246 0
M  V30 1246 H 111.798 -2.03107 -3.92683 0
M  V30 1247 N 110.857 0.726932 -1.39834 0
M  V30 1248 C 111.787 1.85405 -1.41941 0
M  V30 1249 C 112.768 1.67751 -0.281728 0
M  V30 1250 O 113.953 1.8795 -0.488717 0
M  V30 1251 C 111.083 3.23243 -1.2701 0
M  V30 1252 C 110.037 3.55549 -2.38262 0
M  V30 1253 C 109.363 4.9241 -2.08415 0
M  V30 1254 C 110.663 3.577 -3.80589 0
M  V30 1255 H 112.357 1.83899 -2.36266 0
M  V30 1256 H 109.903 0.883349 -1.13723 0
M  V30 1257 H 111.856 4.01775 -1.27103 0
M  V30 1258 H 110.58 3.25296 -0.291564 0
M  V30 1259 H 109.239 2.79351 -2.37399 0
M  V30 1260 H 108.887 4.91052 -1.0898 0
M  V30 1261 H 108.587 5.14992 -2.82943 0
M  V30 1262 H 110.111 5.73289 -2.10171 0
M  V30 1263 H 111.525 4.26293 -3.83337 0
M  V30 1264 H 109.922 3.91804 -4.54543 0
M  V30 1265 H 110.992 2.57328 -4.10987 0
M  V30 1266 N 112.336 1.25143 0.95797 0
M  V30 1267 C 113.266 1.07711 2.07173 0
M  V30 1268 C 114.247 -0.0128462 1.70095 0
M  V30 1269 O 115.432 0.156061 1.93572 0
M  V30 1270 C 112.562 0.691503 3.40346 0
M  V30 1271 C 111.516 1.73132 3.9142 0
M  V30 1272 C 110.842 1.20049 5.21049 0
M  V30 1273 C 112.142 3.1294 4.1817 0
M  V30 1274 H 113.836 2.00873 2.22014 0
M  V30 1275 H 111.382 0.967191 1.06684 0
M  V30 1276 H 113.335 0.556505 4.17709 0
M  V30 1277 H 112.059 -0.275819 3.25433 0
M  V30 1278 H 110.718 1.8547 3.16222 0
M  V30 1279 H 110.366 0.223499 5.02503 0
M  V30 1280 H 110.066 1.89545 5.56189 0
M  V30 1281 H 111.59 1.07782 6.01012 0
M  V30 1282 H 113.004 3.03775 4.86203 0
M  V30 1283 H 111.401 3.79875 4.64559 0
M  V30 1284 H 112.471 3.6025 3.24573 0
M  V30 1285 N 113.814 -1.1601 1.06675 0
M  V30 1286 C 115.063 -1.85973 0.780818 0
M  V30 1287 C 115.376 -1.82819 -0.695444 0
M  V30 1288 O 116.582 -2.484 -1.09589 0
M  V30 1289 C 115.038 -3.33757 1.34665 0
M  V30 1290 C 114.646 -3.45374 2.85343 0
M  V30 1291 C 116.39 -4.0895 1.13843 0
M  V30 1292 C 114.297 -4.87266 3.35151 0
M  V30 1293 H 113.227 -0.696661 0.288407 0
M  V30 1294 H 115.878 -1.30903 1.28595 0
M  V30 1295 H 114.26 -3.88456 0.769274 0
M  V30 1296 H 115.434 -3.00816 3.49065 0
M  V30 1297 H 113.749 -2.83619 3.04876 0
M  V30 1298 H 116.346 -5.13654 1.4854 0
M  V30 1299 H 116.689 -4.16229 0.0770282 0
M  V30 1300 H 117.222 -3.605 1.68179 0
M  V30 1301 H 113.961 -4.85168 4.40786 0
M  V30 1302 H 113.481 -5.32433 2.76179 0
M  V30 1303 H 115.16 -5.56097 3.30704 0
M  V30 1304 N 115.292 -0.849877 -1.32721 0
M  V30 1305 C 116.517 -0.463856 -2.02146 0
M  V30 1306 C 116.942 0.930449 -1.63476 0
M  V30 1307 O 116.3 1.61033 -0.832952 0
M  V30 1308 C 116.348 -0.604955 -3.55489 0
M  V30 1309 O 115.452 0.36425 -4.10788 0
M  V30 1310 H 114.793 -0.187046 -0.637111 0
M  V30 1311 H 117.323 -1.14775 -1.69375 0
M  V30 1312 H 117.333 -0.490696 -4.05038 0
M  V30 1313 H 116.008 -1.62174 -3.82978 0
M  V30 1314 H 114.585 0.206628 -3.72327 0
M  V30 1315 N 116.77 1.45427 -0.607355 0
M  V30 1316 C 118.047 1.9557 -0.0344566 0
M  V30 1317 C 118.427 1.54979 1.43334 0
M  V30 1318 O 117.775 0.812241 2.13576 0
M  V30 1319 C 117.985 3.48226 -0.232321 0
M  V30 1320 C 119.333 4.2445 -0.113001 0
M  V30 1321 O 120.357 3.55829 -0.162431 0
M  V30 1322 O 119.216 5.465 0.00209442 0
M  V30 1323 H 116.31 0.826222 0.0358667 0
M  V30 1324 H 118.856 1.55594 -0.6774 0
M  V30 1325 H 117.628 3.70739 -1.25174 0
M  V30 1326 H 117.251 3.95092 0.445896 0
M  V30 1327 N 118.248 0.346503 1.53744 0
M  V30 1328 C 119.659 -0.136779 1.86198 0
M  V30 1329 C 120.01 -1.49749 1.26766 0
M  V30 1330 O 119.135 -2.08417 0.582355 0
M  V30 1331 C 119.73 -0.254966 3.37839 0
M  V30 1332 C 118.289 -0.682482 3.70161 0
M  V30 1333 C 117.436 0.181981 2.76702 0
M  V30 1334 H 120.387 0.565994 1.48264 0
M  V30 1335 H 120.408 -1.08195 3.64793 0
M  V30 1336 H 119.92 0.735526 3.81066 0
M  V30 1337 H 118.021 -1.68189 3.3248 0
M  V30 1338 H 118.134 -0.470326 4.76786 0
M  V30 1339 H 116.498 -0.34615 2.52337 0
M  V30 1340 H 117.281 1.16966 3.2276 0
M  V30 1341 N 119.726 -1.57421 0.075193 0
M  V30 1342 C 120.954 -1.97946 -0.602076 0
M  V30 1343 C 121.369 -0.953674 -1.62943 0
M  V30 1344 O 120.726 0.0592551 -1.82404 0
M  V30 1345 C 120.777 -3.38546 -1.26762 0
M  V30 1346 O 120.498 -4.37195 -0.281376 0
M  V30 1347 C 121.999 -3.93966 -2.03239 0
M  V30 1348 H 119.219 -0.650918 -0.162931 0
M  V30 1349 H 121.763 -2.03959 0.148601 0
M  V30 1350 H 119.918 -3.33609 -1.96936 0
M  V30 1351 H 120.332 -5.18975 -0.759267 0
M  V30 1352 H 121.806 -4.94555 -2.45193 0
M  V30 1353 H 122.283 -3.30693 -2.8903 0
M  V30 1354 H 122.889 -4.02315 -1.37924 0
M  V30 1355 N 121.204 0.198386 -1.56346 0
M  V30 1356 C 122.432 0.935572 -1.84539 0
M  V30 1357 C 122.847 1.76989 -0.657281 0
M  V30 1358 O 122.204 1.78626 0.374043 0
M  V30 1359 C 122.255 1.8344 -3.11499 0
M  V30 1360 O 121.976 1.03377 -4.25728 0
M  V30 1361 C 123.477 2.68355 -3.52846 0
M  V30 1362 H 120.697 0.273126 -0.612897 0
M  V30 1363 H 123.241 0.20663 -2.03453 0
M  V30 1364 H 121.396 2.51701 -2.94492 0
M  V30 1365 H 121.81 1.64599 -4.98003 0
M  V30 1366 H 123.284 3.27085 -4.44657 0
M  V30 1367 H 123.761 3.41901 -2.75681 0
M  V30 1368 H 124.367 2.05471 -3.72373 0
M  V30 1369 N 122.682 1.50554 0.465978 0
M  V30 1370 C 123.959 1.5232 1.22712 0
M  V30 1371 C 124.339 0.270807 2.09356 0
M  V30 1372 O 123.687 -0.745541 2.15995 0
M  V30 1373 C 123.897 2.82175 2.05374 0
M  V30 1374 C 125.245 3.33033 2.6339 0
M  V30 1375 O 126.269 2.83531 2.15612 0
M  V30 1376 O 125.128 4.19336 3.50456 0
M  V30 1377 H 122.222 0.611183 0.557122 0
M  V30 1378 H 124.768 1.62847 0.477381 0
M  V30 1379 H 123.54 3.64797 1.41558 0
M  V30 1380 H 123.163 2.74675 2.87471 0
M  V30 1381 N 124.16 -0.719506 1.40217 0
M  V30 1382 C 125.107 -1.83359 1.40172 0
M  V30 1383 C 126.077 -1.64065 0.259206 0
M  V30 1384 O 127.262 -1.85254 0.456677 0
M  V30 1385 C 124.402 -3.2103 1.26624 0
M  V30 1386 C 123.515 -3.51923 2.50548 0
M  V30 1387 C 122.65 -4.79079 2.29471 0
M  V30 1388 C 121.689 -5.02863 3.48992 0
M  V30 1389 N 120.826 -6.2123 3.27135 0
M  V30 1390 H 125.666 -1.82733 2.35399 0
M  V30 1391 H 123.203 -0.892688 1.16917 0
M  V30 1392 H 125.161 -4.00524 1.16776 0
M  V30 1393 H 123.791 -3.20895 0.350176 0
M  V30 1394 H 122.843 -2.67014 2.70939 0
M  V30 1395 H 124.155 -3.6541 3.39525 0
M  V30 1396 H 123.309 -5.66582 2.16955 0
M  V30 1397 H 122.048 -4.67794 1.37913 0
M  V30 1398 H 121.053 -4.13816 3.6199 0
M  V30 1399 H 122.278 -5.16023 4.41472 0
M  V30 1400 H 120.224 -6.11204 2.38256 0
M  V30 1401 H 120.141 -6.35375 4.09675 0
M  V30 1402 H 121.409 -7.11532 3.18344 0
M  V30 1403 N 125.638 -1.25649 -0.95132 0
M  V30 1404 C 126.863 -1.13443 -1.73624 0
M  V30 1405 C 127.288 0.307565 -1.85568 0
M  V30 1406 O 126.646 1.22282 -1.33854 0
M  V30 1407 C 126.694 -1.79723 -3.12621 0
M  V30 1408 O 125.798 -1.07912 -3.98031 0
M  V30 1409 H 125.139 -0.395872 -0.533086 0
M  V30 1410 H 127.669 -1.66276 -1.1922 0
M  V30 1411 H 127.679 -1.86141 -3.63064 0
M  V30 1412 H 126.354 -2.84633 -3.03244 0
M  V30 1413 H 124.931 -1.09398 -3.56492 0
M  V30 1414 N 127.117 1.15442 -1.07289 0
M  V30 1415 C 128.342 1.90638 -0.816828 0
M  V30 1416 C 128.767 1.77445 0.624083 0
M  V30 1417 O 128.125 1.10671 1.43602 0
M  V30 1418 C 128.173 3.39008 -1.22906 0
M  V30 1419 O 127.277 4.10701 -0.373975 0
M  V30 1420 H 126.618 0.593555 -0.297638 0
M  V30 1421 H 129.148 1.46198 -1.43134 0
M  V30 1422 H 129.158 3.89801 -1.20497 0
M  V30 1423 H 127.833 3.47929 -2.27856 0
M  V30 1424 H 126.41 3.70046 -0.460499 0
M  V30 1425 N 128.595 0.856903 1.32268 0
M  V30 1426 C 129.558 0.308171 2.27119 0
M  V30 1427 C 130.558 -0.533421 1.51695 0
M  V30 1428 O 131.748 -0.344607 1.70757 0
M  V30 1429 C 128.88 -0.563757 3.36206 0
M  V30 1430 H 130.073 1.14535 2.77167 0
M  V30 1431 H 127.626 0.631421 1.42978 0
M  V30 1432 H 128.361 -1.42266 2.91429 0
M  V30 1433 H 128.146 0.0386749 3.92081 0
M  V30 1434 H 129.636 -0.940386 4.06874 0
M  V30 1435 N 130.073 -1.45103 0.615059 0
M  V30 1436 C 131.036 -2.29025 -0.0895485 0
M  V30 1437 C 132.036 -1.40174 -0.787906 0
M  V30 1438 O 133.226 -1.62217 -0.634933 0
M  V30 1439 C 130.358 -3.21376 -1.13711 0
M  V30 1440 H 131.551 -2.92807 0.648382 0
M  V30 1441 H 129.104 -1.51749 0.374444 0
M  V30 1442 H 129.839 -2.6241 -1.90556 0
M  V30 1443 H 129.624 -3.86834 -0.640475 0
M  V30 1444 H 131.114 -3.84459 -1.63036 0
M  V30 1445 N 131.551 -0.354651 -1.53558 0
M  V30 1446 C 132.481 0.489091 -2.2832 0
M  V30 1447 C 133.462 1.09324 -1.30316 0
M  V30 1448 O 134.647 1.11255 -1.59173 0
M  V30 1449 C 131.777 1.63456 -3.0643 0
M  V30 1450 C 130.731 1.1582 -4.12031 0
M  V30 1451 C 130.057 2.39305 -4.7816 0
M  V30 1452 C 131.357 0.250731 -5.21698 0
M  V30 1453 H 133.051 -0.134614 -2.99097 0
M  V30 1454 H 130.597 -0.0661826 -1.43848 0
M  V30 1455 H 132.55 2.23136 -3.57475 0
M  V30 1456 H 131.274 2.28533 -2.33325 0
M  V30 1457 H 129.933 0.584146 -3.61916 0
M  V30 1458 H 129.581 3.02814 -4.01637 0
M  V30 1459 H 129.281 2.08109 -5.49513 0
M  V30 1460 H 130.805 2.99691 -5.31994 0
M  V30 1461 H 132.219 0.754695 -5.68311 0
M  V30 1462 H 130.616 0.0301468 -6.00092 0
M  V30 1463 H 131.686 -0.710125 -4.79672 0
M  V30 1464 N 133.029 1.57378 -0.0835403 0
M  V30 1465 C 134.306 1.85363 0.624507 0
M  V30 1466 C 134.686 0.978239 1.87066 0
M  V30 1467 O 134.034 0.0475908 2.2845 0
M  V30 1468 C 134.244 3.35795 0.950947 0
M  V30 1469 C 135.592 4.03581 1.31939 0
M  V30 1470 O 136.616 3.40609 1.04232 0
M  V30 1471 O 135.475 5.14672 1.83779 0
M  V30 1472 H 132.569 0.766162 0.311329 0
M  V30 1473 H 135.115 1.69307 -0.115362 0
M  V30 1474 H 133.887 3.91244 0.0663899 0
M  V30 1475 H 133.51 3.57154 1.74719 0
M  V30 1476 N 134.507 -0.190092 1.56449 0
M  V30 1477 C 135.753 -0.911052 1.81184 0
M  V30 1478 C 136.086 -1.82699 0.658396 0
M  V30 1479 O 135.361 -1.91491 -0.340775 0
M  V30 1480 C 135.644 -1.72297 3.16205 0
M  V30 1481 C 135.497 -0.831419 4.42049 0
M  V30 1482 C 136.816 -2.69454 3.47969 0
M  V30 1483 H 133.935 -0.32977 0.659106 0
M  V30 1484 H 136.577 -0.178169 1.89163 0
M  V30 1485 H 134.727 -2.34778 3.09534 0
M  V30 1486 H 136.399 -0.220929 4.60771 0
M  V30 1487 H 134.642 -0.138406 4.33579 0
M  V30 1488 H 135.313 -1.43461 5.33032 0
M  V30 1489 H 137.789 -2.17104 3.54972 0
M  V30 1490 H 136.665 -3.23342 4.43555 0
M  V30 1491 H 136.926 -3.48744 2.71717 0
M  V30 1492 N 135.985 -1.50799 -0.457987 0
M  V30 1493 C 136.935 -1.67003 -1.55222 0
M  V30 1494 C 137.919 -0.52434 -1.52117 0
M  V30 1495 O 139.111 -0.779345 -1.58919 0
M  V30 1496 C 136.24 -1.77956 -2.93576 0
M  V30 1497 C 135.326 -2.98243 -3.01516 0
M  V30 1498 N 135.717 -4.21732 -2.79241 0
M  V30 1499 C 134.015 -2.97072 -3.32662 0
M  V30 1500 C 134.716 -5.02817 -2.92489 0
M  V30 1501 N 133.692 -4.37038 -3.23262 0
M  V30 1502 H 137.494 -2.60163 -1.36721 0
M  V30 1503 H 135.008 -1.48163 -0.664952 0
M  V30 1504 H 137.005 -1.87671 -3.72271 0
M  V30 1505 H 135.665 -0.859634 -3.13114 0
M  V30 1506 H 136.676 -4.51016 -2.54567 0
M  V30 1507 H 133.353 -2.14631 -3.58106 0
M  V30 1508 H 134.743 -6.11054 -2.79396 0
M  V30 1509 N 137.463 0.71206 -1.40597 0
M  V30 1510 C 138.712 1.46754 -1.38369 0
M  V30 1511 C 139.025 1.95598 0.0097839 0
M  V30 1512 O 140.231 2.71059 0.154677 0
M  V30 1513 C 138.687 2.65289 -2.43207 0
M  V30 1514 C 138.295 2.23301 -3.88382 0
M  V30 1515 C 140.039 3.43008 -2.50091 0
M  V30 1516 C 137.946 3.38696 -4.84808 0
M  V30 1517 H 136.876 0.55118 -0.514506 0
M  V30 1518 H 139.527 0.774616 -1.66349 0
M  V30 1519 H 137.909 3.36769 -2.08332 0
M  V30 1520 H 139.083 1.59218 -4.32419 0
M  V30 1521 H 137.398 1.58618 -3.85006 0
M  V30 1522 H 139.995 4.28881 -3.1932 0
M  V30 1523 H 140.338 3.87065 -1.53253 0
M  V30 1524 H 140.871 2.78574 -2.83974 0
M  V30 1525 H 137.61 2.99668 -5.82992 0
M  V30 1526 H 137.13 4.01683 -4.45433 0
M  V30 1527 H 138.809 4.04712 -5.04794 0
M  V30 1528 N 138.941 1.26152 0.944643 0
M  V30 1529 C 140.189 1.11271 1.6871 0
M  V30 1530 C 140.51 -0.345166 1.91921 0
M  V30 1531 O 139.78 -1.24387 1.51343 0
M  V30 1532 H 138.36 0.408783 0.625224 0
M  V30 1533 H 141.022 1.58427 1.1352 0
M  V30 1534 H 140.118 1.62879 2.66227 0
M  V30 1535 N 140.419 -1.14872 1.07899 0
M  V30 1536 C 141.644 -1.90202 0.826926 0
M  V30 1537 C 142.069 -1.77774 -0.614664 0
M  V30 1538 O 141.427 -1.11431 -1.43013 0
M  V30 1539 C 141.475 -3.38352 1.24702 0
M  V30 1540 O 140.579 -4.10497 0.39575 0
M  V30 1541 H 139.92 -0.591968 0.300782 0
M  V30 1542 H 142.45 -1.45437 1.43907 0
M  V30 1543 H 142.46 -3.89156 1.22563 0
M  V30 1544 H 141.135 -3.46715 2.29698 0
M  V30 1545 H 139.712 -3.69796 0.480117 0
M  V30 1546 N 141.898 -0.863906 -1.31812 0
M  V30 1547 C 142.828 -0.330843 -2.31144 0
M  V30 1548 C 143.809 0.575005 -1.60087 0
M  V30 1549 O 144.994 0.493304 -1.8783 0
M  V30 1550 C 142.124 0.47374 -3.44054 0
M  V30 1551 C 141.078 -0.338481 -4.26659 0
M  V30 1552 C 140.404 0.591412 -5.31419 0
M  V30 1553 C 141.704 -1.56926 -4.98168 0
M  V30 1554 H 143.398 -1.16086 -2.75979 0
M  V30 1555 H 140.944 -0.559657 -1.32679 0
M  V30 1556 H 142.897 0.857143 -4.12591 0
M  V30 1557 H 141.621 1.33721 -2.9797 0
M  V30 1558 H 140.28 -0.703754 -3.59782 0
M  V30 1559 H 139.928 1.45199 -4.81587 0
M  V30 1560 H 139.628 0.0519022 -5.87577 0
M  V30 1561 H 141.152 0.97179 -6.02817 0
M  V30 1562 H 142.566 -1.25764 -5.59336 0
M  V30 1563 H 140.963 -2.04739 -5.64094 0
M  V30 1564 H 142.033 -2.32544 -4.25501 0
M  V30 1565 N 143.376 1.44774 -0.622745 0
M  V30 1566 C 144.601 2.06999 -0.128968 0
M  V30 1567 C 145.026 1.4617 1.1839 0
M  V30 1568 O 144.384 0.560007 1.72434 0
M  V30 1569 C 144.432 3.60595 -0.0188351 0
M  V30 1570 O 143.536 3.99398 1.02739 0
M  V30 1571 H 142.877 0.659047 -0.0809544 0
M  V30 1572 H 145.407 1.85784 -0.85705 0
M  V30 1573 H 145.417 4.07627 0.174476 0
M  V30 1574 H 144.092 4.04252 -0.977384 0
M  V30 1575 H 142.669 3.64011 0.809326 0
M  V30 1576 N 144.854 0.36279 1.53368 0
M  V30 1577 C 146.131 -0.284021 1.93527 0
M  V30 1578 C 146.511 -1.66628 1.29608 0
M  V30 1579 O 145.859 -2.23942 0.45413 0
M  V30 1580 C 146.069 -0.337028 3.47369 0
M  V30 1581 C 147.417 -0.578708 4.20638 0
M  V30 1582 O 148.441 -0.418352 3.53735 0
M  V30 1583 O 147.3 -0.89074 5.39192 0
M  V30 1584 H 144.394 -0.169743 0.809393 0
M  V30 1585 H 146.94 0.41537 1.64538 0
M  V30 1586 H 145.712 0.632217 3.86159 0
M  V30 1587 H 145.335 -1.08243 3.82582 0
M  V30 1588 N 146.332 -1.57332 0.0918853 0
M  V30 1589 C 147.743 -1.81496 -0.437739 0
M  V30 1590 C 148.094 -1.00727 -1.6837 0
M  V30 1591 O 147.219 -0.235694 -2.15113 0
M  V30 1592 C 147.814 -3.29197 -0.800939 0
M  V30 1593 C 146.373 -3.54136 -1.27532 0
M  V30 1594 C 145.52 -2.75979 -0.270392 0
M  V30 1595 H 148.471 -1.55494 0.317366 0
M  V30 1596 H 148.492 -3.42344 -1.66074 0
M  V30 1597 H 148.004 -3.87955 0.106078 0
M  V30 1598 H 146.105 -3.00705 -2.20016 0
M  V30 1599 H 146.218 -4.62792 -1.23938 0
M  V30 1600 H 144.582 -2.43349 -0.751872 0
M  V30 1601 H 145.365 -3.37484 0.629248 0
M  V30 1602 N 147.81 0.181792 -1.56548 0
M  V30 1603 C 149.221 0.745244 -1.71181 0
M  V30 1604 C 149.572 1.83262 -0.70068 0
M  V30 1605 O 148.697 2.15946 0.140154 0
M  V30 1606 C 149.292 1.35859 -3.10367 0
M  V30 1607 C 147.851 1.86898 -3.2672 0
M  V30 1608 C 146.998 0.743942 -2.67134 0
M  V30 1609 H 149.949 -0.0434661 -1.5864 0
M  V30 1610 H 149.97 2.22817 -3.08436 0
M  V30 1611 H 149.482 0.566948 -3.83937 0
M  V30 1612 H 147.583 2.68738 -2.5809 0
M  V30 1613 H 147.696 2.02162 -4.34359 0
M  V30 1614 H 146.06 1.16169 -2.26665 0
M  V30 1615 H 146.843 -0.035676 -3.43281 0
M  V30 1616 N 149.288 1.51039 0.449983 0
M  V30 1617 C 150.236 1.71995 1.5659 0
M  V30 1618 C 151.23 0.586029 1.5894 0
M  V30 1619 O 152.436 0.76709 1.62837 0
M  V30 1620 H 148.811 0.543233 0.520001 0
M  V30 1621 H 150.782 2.65562 1.36085 0
M  V30 1622 C 149.531 1.8506 2.9436 0
M  V30 1623 H 148.854 2.71712 2.93279 0
M  V30 1624 H 150.294 2.0374 3.71842 0
M  V30 1625 C 148.753 0.607277 3.31382 0
M  V30 1626 O 149.283 -0.243903 4.00959 0
M  V30 1627 N 147.489 0.455073 2.87015 0
M  V30 1628 H 147.036 1.14879 2.30566 0
M  V30 1629 H 146.994 -0.375611 3.12148 0
M  V30 1630 N 150.766 -0.704594 1.40972 0
M  V30 1631 C 152.015 -1.46018 1.39146 0
M  V30 1632 C 152.328 -1.956 0.000589254 0
M  V30 1633 O 153.534 -2.71137 -0.1403 0
M  V30 1634 C 151.99 -2.63996 2.4461 0
M  V30 1635 C 151.598 -2.21238 3.89561 0
M  V30 1636 C 153.342 -3.41677 2.51907 0
M  V30 1637 C 151.249 -3.3612 4.86598 0
M  V30 1638 H 150.179 -0.548444 0.517422 0
M  V30 1639 H 152.83 -0.765784 1.66757 0
M  V30 1640 H 151.212 -3.3566 2.10115 0
M  V30 1641 H 152.386 -1.56923 4.33257 0
M  V30 1642 H 150.701 -1.56574 3.85841 0
M  V30 1643 H 153.298 -4.27182 3.2159 0
M  V30 1644 H 153.641 -3.86247 1.55303 0
M  V30 1645 H 154.174 -2.77064 2.85448 0
M  V30 1646 H 150.913 -2.96572 5.84573 0
M  V30 1647 H 150.433 -3.99315 4.47557 0
M  V30 1648 H 152.112 -4.02029 5.06934 0
M  V30 1649 N 152.244 -1.26651 -0.937939 0
M  V30 1650 C 153.207 -1.08546 -2.01867 0
M  V30 1651 C 154.207 -0.0327327 -1.60767 0
M  V30 1652 O 155.397 -0.276427 -1.71993 0
M  V30 1653 C 152.529 -0.651711 -3.34613 0
M  V30 1654 H 153.722 -2.04502 -2.1936 0
M  V30 1655 H 151.275 -1.09294 -1.11734 0
M  V30 1656 H 152.01 0.309696 -3.22818 0
M  V30 1657 H 151.795 -1.41189 -3.65798 0
M  V30 1658 H 153.285 -0.546973 -4.14002 0
M  V30 1659 N 153.722 1.14298 -1.08507 0
M  V30 1660 C 154.97 1.84993 -0.813763 0
M  V30 1661 C 155.291 1.83405 0.662393 0
M  V30 1662 O 154.561 1.28319 1.48024 0
M  V30 1663 H 153.141 0.684966 -0.298045 0
M  V30 1664 H 155.803 1.385 -1.37126 0
M  V30 1665 H 154.899 2.89788 -1.15884 0
M  V30 1666 N 155.201 0.870884 1.31352 0
M  V30 1667 C 156.131 0.343096 2.30966 0
M  V30 1668 C 157.112 -0.566507 1.60389 0
M  V30 1669 O 158.297 -0.483336 1.88089 0
M  V30 1670 C 155.427 -0.455487 3.443 0
M  V30 1671 C 154.381 0.361103 4.26474 0
M  V30 1672 C 153.707 -0.563221 5.31725 0
M  V30 1673 C 155.007 1.59566 4.97329 0
M  V30 1674 H 156.701 1.17548 2.75359 0
M  V30 1675 H 154.247 0.566686 1.32381 0
M  V30 1676 H 156.2 -0.83525 4.13039 0
M  V30 1677 H 154.924 -1.32139 2.98675 0
M  V30 1678 H 153.583 0.722825 3.59403 0
M  V30 1679 H 153.231 -1.42643 4.82351 0
M  V30 1680 H 152.931 -0.0207409 5.87596 0
M  V30 1681 H 154.455 -0.939808 6.03324 0
M  V30 1682 H 155.869 1.28728 5.58661 0
M  V30 1683 H 154.266 2.07728 5.63 0
M  V30 1684 H 155.336 2.34798 4.24262 0
M  V30 1685 N 156.679 -1.44442 0.630414 0
M  V30 1686 C 157.904 -2.06927 0.139944 0
M  V30 1687 C 158.329 -1.46795 -1.17613 0
M  V30 1688 O 157.687 -0.569144 -1.72135 0
M  V30 1689 C 157.735 -3.6058 0.0379581 0
M  V30 1690 O 156.839 -3.99937 -1.0062 0
M  V30 1691 H 156.18 -0.658608 0.0844483 0
M  V30 1692 H 158.71 -1.85327 0.866891 0
M  V30 1693 H 158.72 -4.07714 -0.152856 0
M  V30 1694 H 157.395 -4.03728 0.998809 0
M  V30 1695 H 155.972 -3.64436 -0.79001 0
M  V30 1696 N 158.157 -0.370918 -1.53173 0
M  V30 1697 C 159.107 0.489588 -2.22681 0
M  V30 1698 C 160.091 1.04442 -1.22395 0
M  V30 1699 O 161.283 0.973578 -1.47819 0
M  V30 1700 C 158.412 1.626 -3.02351 0
M  V30 1701 C 157.498 1.08379 -4.10018 0
M  V30 1702 N 157.889 0.265004 -5.05105 0
M  V30 1703 C 156.187 1.35809 -4.2482 0
M  V30 1704 C 156.888 -0.0324755 -5.81691 0
M  V30 1705 N 155.864 0.566581 -5.40639 0
M  V30 1706 H 159.666 -0.142729 -2.93553 0
M  V30 1707 H 157.18 -0.179221 -1.61408 0
M  V30 1708 H 159.177 2.2547 -3.50669 0
M  V30 1709 H 157.837 2.26132 -2.33011 0
M  V30 1710 H 158.848 -0.0962352 -5.17811 0
M  V30 1711 H 155.525 1.9958 -3.66707 0
M  V30 1712 H 156.915 -0.69473 -6.68299 0
M  V30 1713 N 159.635 1.57281 -0.100228 0
M  V30 1714 C 160.882 1.94537 0.562268 0
M  V30 1715 C 161.21 0.982315 1.67871 0
M  V30 1716 O 160.465 0.00280936 1.957 0
M  V30 1717 C 160.764 3.38305 1.15259 0
M  V30 1718 C 160.43 4.50618 0.159409 0
M  V30 1719 C 159.092 4.81066 -0.113741 0
M  V30 1720 C 161.444 5.18615 -0.518461 0
M  V30 1721 C 158.772 5.76835 -1.07137 0
M  V30 1722 C 161.124 6.15412 -1.46459 0
M  V30 1723 C 159.788 6.44262 -1.74592 0
M  V30 1724 H 159.058 0.711863 0.205748 0
M  V30 1725 H 161.705 1.90679 -0.17715 0
M  V30 1726 H 160.01 3.38766 1.96836 0
M  V30 1727 H 161.707 3.64435 1.67297 0
M  V30 1728 H 158.297 4.2689 0.382491 0
M  V30 1729 H 162.481 4.95264 -0.320581 0
M  V30 1730 H 157.737 5.975 -1.29628 0
M  V30 1731 H 161.911 6.67194 -1.99564 0
M  V30 1732 H 159.538 7.1828 -2.48953 0
M  V30 1733 N 161.113 -0.173488 1.56642 0
M  V30 1734 C 162.353 -0.896984 1.83667 0
M  V30 1735 C 162.717 -1.79523 0.680842 0
M  V30 1736 O 163.918 -2.55616 0.831488 0
M  V30 1737 C 162.189 -1.67351 3.15798 0
M  V30 1738 S 163.748 -2.44607 3.64298 0
M  V30 1739 H 160.566 -0.300464 0.644393 0
M  V30 1740 H 163.168 -0.158775 1.94854 0
M  V30 1741 H 161.872 -1.00462 3.97914 0
M  V30 1742 H 161.403 -2.45313 3.07546 0
M  V30 1743 H 163.418 -3.69261 3.31452 0
M  V30 1744 N 162.591 -1.51276 -0.441967 0
M  V30 1745 C 163.501 -1.75092 -1.56141 0
M  V30 1746 C 164.517 -0.634963 -1.62001 0
M  V30 1747 O 165.693 -0.916686 -1.79329 0
M  V30 1748 C 162.758 -1.86666 -2.92158 0
M  V30 1749 C 161.819 -3.10506 -2.96453 0
M  V30 1750 C 161.052 -3.21519 -4.25982 0
M  V30 1751 O 161.275 -2.38586 -5.18105 0
M  V30 1752 O 160.209 -4.14465 -4.36466 0
M  V30 1753 H 164.035 -2.70044 -1.38961 0
M  V30 1754 H 161.62 -1.35722 -0.624499 0
M  V30 1755 H 163.502 -1.96292 -3.72891 0
M  V30 1756 H 162.177 -0.949014 -3.09476 0
M  V30 1757 H 161.084 -3.06363 -2.14692 0
M  V30 1758 H 162.417 -4.01945 -2.84079 0
M  V30 1759 N 164.069 0.697108 -1.41344 0
M  V30 1760 C 165.019 1.80313 -1.39539 0
M  V30 1761 C 166.003 1.58618 -0.270001 0
M  V30 1762 O 167.195 1.69477 -0.510551 0
M  V30 1763 C 164.324 3.18606 -1.27848 0
M  V30 1764 C 163.41 3.46001 -2.45244 0
M  V30 1765 N 163.801 3.44103 -3.70711 0
M  V30 1766 C 162.099 3.76542 -2.39023 0
M  V30 1767 C 162.8 3.7036 -4.48563 0
M  V30 1768 N 161.776 3.90027 -3.78655 0
M  V30 1769 H 165.578 1.77207 -2.34468 0
M  V30 1770 H 163.092 0.897031 -1.35378 0
M  V30 1771 H 165.089 3.97833 -1.24637 0
M  V30 1772 H 163.749 3.22925 -0.339032 0
M  V30 1773 H 164.76 3.2452 -4.03618 0
M  V30 1774 H 161.437 3.88241 -1.53542 0
M  V30 1775 H 162.827 3.75042 -5.57488 0
M  V30 1776 N 165.547 1.27147 0.931209 0
M  V30 1777 C 166.48 1.0389 2.0318 0
M  V30 1778 C 167.458 -0.0395716 1.62552 0
M  V30 1779 O 168.642 0.104867 1.88208 0
M  V30 1780 C 165.769 0.575227 3.3378 0
M  V30 1781 C 164.815 1.64774 3.93385 0
M  V30 1782 S 165.648 3.23933 4.26413 0
M  V30 1783 C 166.804 2.79358 5.60098 0
M  V30 1784 H 167.037 1.97075 2.22596 0
M  V30 1785 H 164.57 1.10938 1.07387 0
M  V30 1786 H 166.528 0.314385 4.09294 0
M  V30 1787 H 165.189 -0.336505 3.12292 0
M  V30 1788 H 164.382 1.27454 4.87618 0
M  V30 1789 H 163.984 1.86048 3.24441 0
M  V30 1790 H 166.276 2.24443 6.39243 0
M  V30 1791 H 167.219 3.72322 6.02314 0
M  V30 1792 H 167.627 2.1861 5.20452 0
M  V30 1793 N 167.025 -1.13721 1.09112 0
M  V30 1794 C 167.955 -2.21148 0.749385 0
M  V30 1795 C 168.936 -1.6792 -0.271475 0
M  V30 1796 O 170.121 -1.93693 -0.140251 0
M  V30 1797 C 167.251 -3.46905 0.165659 0
M  V30 1798 C 166.205 -4.13203 1.11567 0
M  V30 1799 C 165.531 -5.33248 0.393809 0
M  V30 1800 C 166.831 -4.60912 2.45678 0
M  V30 1801 H 168.525 -2.4999 1.64758 0
M  V30 1802 H 166.071 -1.20156 0.793626 0
M  V30 1803 H 168.024 -4.21313 -0.085466 0
M  V30 1804 H 166.748 -3.17449 -0.767714 0
M  V30 1805 H 165.407 -3.40758 1.35202 0
M  V30 1806 H 165.055 -5.00054 -0.543599 0
M  V30 1807 H 164.755 -5.78552 1.02721 0
M  V30 1808 H 166.279 -6.10413 0.150908 0
M  V30 1809 H 167.693 -5.26759 2.26269 0
M  V30 1810 H 166.09 -5.16944 3.04776 0
M  V30 1811 H 167.16 -3.75603 3.06677 0
M  V30 1812 N 168.503 -0.877838 -1.30888 0
M  V30 1813 C 169.75 -0.492696 -1.96415 0
M  V30 1814 C 170.078 0.956671 -1.69346 0
M  V30 1815 O 169.333 1.68993 -0.986913 0
M  V30 1816 C 169.632 -0.705748 -3.50363 0
M  V30 1817 C 169.298 -2.1291 -3.97467 0
M  V30 1818 C 167.96 -2.51834 -4.1004 0
M  V30 1819 C 170.312 -3.05702 -4.22132 0
M  V30 1820 C 167.64 -3.82775 -4.44635 0
M  V30 1821 C 169.992 -4.36166 -4.58194 0
M  V30 1822 C 168.656 -4.74993 -4.68975 0
M  V30 1823 H 167.926 -0.18029 -0.718733 0
M  V30 1824 H 170.573 -1.11233 -1.55883 0
M  V30 1825 H 168.878 -0.00303058 -3.918 0
M  V30 1826 H 170.575 -0.387456 -3.99124 0
M  V30 1827 H 167.165 -1.81694 -3.88182 0
M  V30 1828 H 171.349 -2.76853 -4.11906 0
M  V30 1829 H 166.605 -4.12609 -4.51181 0
M  V30 1830 H 170.779 -5.08111 -4.76231 0
M  V30 1831 H 168.406 -5.76495 -4.95537 0
M  V30 1832 N 169.982 1.44106 -0.638065 0
M  V30 1833 C 170.912 2.33448 0.0494287 0
M  V30 1834 C 171.893 1.48606 0.827672 0
M  V30 1835 O 173.078 1.77308 0.792173 0
M  V30 1836 C 170.208 3.31771 1.02691 0
M  V30 1837 C 169.162 4.26485 0.359823 0
M  V30 1838 C 168.488 5.14729 1.44769 0
M  V30 1839 C 169.788 5.17056 -0.738296 0
M  V30 1840 H 171.482 2.91183 -0.696636 0
M  V30 1841 H 169.028 1.40014 -0.336456 0
M  V30 1842 H 170.981 3.93161 1.51666 0
M  V30 1843 H 169.705 2.7226 1.80395 0
M  V30 1844 H 168.364 3.66437 -0.10934 0
M  V30 1845 H 168.012 4.51566 2.21578 0
M  V30 1846 H 167.712 5.78913 1.00668 0
M  V30 1847 H 169.236 5.78991 1.93911 0
M  V30 1848 H 170.65 5.72342 -0.331354 0
M  V30 1849 H 169.047 5.89879 -1.10286 0
M  V30 1850 H 170.117 4.57652 -1.60258 0
M  V30 1851 N 171.46 0.379036 1.52974 0
M  V30 1852 C 172.708 -0.206014 2.01047 0
M  V30 1853 C 173.029 -1.48175 1.26765 0
M  V30 1854 O 172.299 -1.92085 0.384743 0
M  V30 1855 H 170.879 -0.0791184 0.742798 0
M  V30 1856 H 173.541 0.508366 1.88153 0
M  V30 1857 H 172.637 -0.423501 3.09213 0
M  V30 1858 N 172.938 -1.57226 0.108567 0
M  V30 1859 C 174.166 -1.99179 -0.559954 0
M  V30 1860 C 174.581 -0.988022 -1.60884 0
M  V30 1861 O 173.938 0.0205512 -1.82488 0
M  V30 1862 C 173.989 -3.41159 -1.19552 0
M  V30 1863 O 173.71 -4.37694 -0.188577 0
M  V30 1864 C 175.211 -3.98188 -1.94837 0
M  V30 1865 H 172.431 -0.654228 -0.149088 0
M  V30 1866 H 174.975 -2.03598 0.19183 0
M  V30 1867 H 173.13 -3.37711 -1.89815 0
M  V30 1868 H 173.544 -5.20469 -0.649014 0
M  V30 1869 H 175.018 -4.99644 -2.34648 0
M  V30 1870 H 175.495 -3.3675 -2.81951 0
M  V30 1871 H 176.101 -4.0515 -1.2936 0
M  V30 1872 N 174.416 0.165178 -1.56732 0
M  V30 1873 C 175.363 1.2044 -1.96883 0
M  V30 1874 C 176.333 1.43664 -0.833657 0
M  V30 1875 O 177.518 1.56302 -1.09427 0
M  V30 1876 C 174.658 2.53727 -2.33916 0
M  V30 1877 C 173.771 2.3783 -3.6064 0
M  V30 1878 C 172.906 3.64026 -3.86857 0
M  V30 1879 C 171.945 3.43088 -5.06909 0
M  V30 1880 N 171.082 4.61369 -5.29229 0
M  V30 1881 H 175.922 0.854996 -2.85471 0
M  V30 1882 H 173.459 0.41076 -1.41249 0
M  V30 1883 H 175.417 3.31419 -2.53411 0
M  V30 1884 H 174.047 2.8665 -1.48431 0
M  V30 1885 H 173.099 1.51282 -3.49024 0
M  V30 1886 H 174.411 2.18308 -4.4849 0
M  V30 1887 H 173.565 4.50152 -4.06753 0
M  V30 1888 H 172.304 3.86533 -2.97394 0
M  V30 1889 H 171.309 2.55349 -4.86906 0
M  V30 1890 H 172.534 3.21997 -5.97909 0
M  V30 1891 H 170.48 4.84084 -4.42718 0
M  V30 1892 H 170.397 4.44783 -6.11313 0
M  V30 1893 H 171.665 5.48761 -5.53608 0
M  V30 1894 N 175.894 1.51508 0.433938 0
M  V30 1895 C 176.841 1.73068 1.52696 0
M  V30 1896 C 177.811 0.572441 1.55924 0
M  V30 1897 O 178.996 0.807253 1.72882 0
M  V30 1898 C 176.136 1.86474 2.90381 0
M  V30 1899 C 175.249 3.14037 2.96656 0
M  V30 1900 C 174.384 3.18019 4.25485 0
M  V30 1901 C 173.423 4.39882 4.2564 0
M  V30 1902 N 172.56 4.41394 5.45999 0
M  V30 1903 H 177.4 2.66366 1.33615 0
M  V30 1904 H 174.937 1.32008 0.649018 0
M  V30 1905 H 176.895 1.92229 3.70275 0
M  V30 1906 H 175.525 0.965809 3.08013 0
M  V30 1907 H 174.577 3.17575 2.09404 0
M  V30 1908 H 175.889 4.0394 2.92633 0
M  V30 1909 H 175.043 3.22708 5.13755 0
M  V30 1910 H 173.782 2.2601 4.3217 0
M  V30 1911 H 172.787 4.35366 3.35763 0
M  V30 1912 H 174.012 5.33159 4.20617 0
M  V30 1913 H 171.958 3.52258 5.53399 0
M  V30 1914 H 171.875 5.25111 5.4387 0
M  V30 1915 H 173.143 4.50281 6.36292 0
M  V30 1916 N 177.372 -0.689602 1.41712 0
M  V30 1917 C 178.602 -1.47613 1.44548 0
M  V30 1918 C 179.01 -1.89132 0.0509034 0
M  V30 1919 O 178.353 -1.57741 -0.94146 0
M  V30 1920 C 178.415 -2.76596 2.2964 0
M  V30 1921 C 178.079 -2.57245 3.77722 0
M  V30 1922 C 179.076 -2.22804 4.69739 0
M  V30 1923 C 176.761 -2.727 4.2183 0
M  V30 1924 C 178.755 -2.04064 6.03851 0
M  V30 1925 C 176.442 -2.53576 5.56006 0
M  V30 1926 C 177.44 -2.1931 6.46832 0
M  V30 1927 O 177.128 -2.00359 7.78532 0
M  V30 1928 H 176.86 -0.461227 0.494212 0
M  V30 1929 H 179.414 -0.856045 1.86711 0
M  V30 1930 H 177.644 -3.41033 1.82301 0
M  V30 1931 H 179.333 -3.38424 2.24107 0
M  V30 1932 H 180.099 -2.10473 4.36951 0
M  V30 1933 H 175.978 -2.98353 3.51435 0
M  V30 1934 H 179.522 -1.77241 6.74708 0
M  V30 1935 H 175.419 -2.65499 5.88371 0
M  V30 1936 H 176.187 -2.15075 7.89737 0
M  V30 1937 N 178.85 -1.27639 -0.924453 0
M  V30 1938 C 180.261 -1.12834 -1.48746 0
M  V30 1939 C 180.612 0.285505 -1.94112 0
M  V30 1940 O 179.737 1.17874 -1.81479 0
M  V30 1941 C 180.332 -2.04217 -2.70334 0
M  V30 1942 C 178.891 -1.93509 -3.22848 0
M  V30 1943 C 178.038 -1.96583 -1.95577 0
M  V30 1944 H 180.989 -1.40484 -0.738233 0
M  V30 1945 H 181.01 -1.59989 -3.4523 0
M  V30 1946 H 180.522 -3.07111 -2.37285 0
M  V30 1947 H 178.623 -0.936131 -3.60649 0
M  V30 1948 H 178.736 -2.79917 -3.88823 0
M  V30 1949 H 177.1 -1.4085 -2.12211 0
M  V30 1950 H 177.883 -3.01137 -1.64837 0
M  V30 1951 N 180.328 1.1314 -1.09713 0
M  V30 1952 C 181.275 2.18642 -0.739196 0
M  V30 1953 C 182.245 1.63706 0.280978 0
M  V30 1954 O 183.43 1.90111 0.161946 0
M  V30 1955 C 180.57 3.44685 -0.169102 0
M  V30 1956 C 179.683 4.13711 -1.24367 0
M  V30 1957 C 178.818 5.27379 -0.636019 0
M  V30 1958 C 177.857 5.88259 -1.69169 0
M  V30 1959 N 176.994 6.93352 -1.10485 0
M  V30 1960 H 181.834 2.48607 -1.64312 0
M  V30 1961 H 179.371 1.22066 -0.820875 0
M  V30 1962 H 181.329 4.16815 0.179256 0
M  V30 1963 H 179.959 3.15161 0.698079 0
M  V30 1964 H 179.011 3.39835 -1.70927 0
M  V30 1965 H 180.323 4.55037 -2.04311 0
M  V30 1966 H 179.477 6.06238 -0.236677 0
M  V30 1967 H 178.216 4.8731 0.194928 0
M  V30 1968 H 177.221 5.08092 -2.10055 0
M  V30 1969 H 178.446 6.30399 -2.52536 0
M  V30 1970 H 176.392 6.55335 -0.295234 0
M  V30 1971 H 176.309 7.33236 -1.84121 0
M  V30 1972 H 177.577 7.76057 -0.73181 0
M  V30 1973 N 181.806 0.884767 1.30421 0
M  V30 1974 C 182.716 0.355398 2.31892 0
M  V30 1975 C 183.732 -0.542261 1.65335 0
M  V30 1976 O 184.908 -0.435432 1.96637 0
M  V30 1977 C 181.973 -0.421661 3.44126 0
M  V30 1978 C 181.034 0.505727 4.26311 0
M  V30 1979 C 180.267 -0.234343 5.33185 0
M  V30 1980 O 180.49 -1.46045 5.51386 0
M  V30 1981 O 179.424 0.415443 6.00465 0
M  V30 1982 H 183.25 1.19685 2.79122 0
M  V30 1983 H 180.835 0.648596 1.34587 0
M  V30 1984 H 182.717 -0.861641 4.12497 0
M  V30 1985 H 181.392 -1.23942 2.99032 0
M  V30 1986 H 180.299 0.994513 3.60639 0
M  V30 1987 H 181.632 1.28948 4.75009 0
M  V30 1988 N 183.284 -1.43765 0.645699 0
M  V30 1989 C 184.232 -2.32516 -0.0624849 0
M  V30 1990 C 185.226 -1.48183 -0.820855 0
M  V30 1991 O 186.432 -1.64439 -0.732106 0
M  V30 1992 H 182.807 -0.750989 -0.0389864 0
M  V30 1993 H 184.778 -2.89979 0.703892 0
M  V30 1994 C 183.527 -3.32389 -1.02044 0
M  V30 1995 H 182.85 -3.97301 -0.446312 0
M  V30 1996 H 184.29 -3.97138 -1.48517 0
M  V30 1997 C 182.749 -2.62416 -2.11281 0
M  V30 1998 O 183.279 -2.434 -3.19561 0
M  V30 1999 N 181.485 -2.21913 -1.87624 0
M  V30 2000 H 181.032 -2.37578 -0.995703 0
M  V30 2001 H 180.99 -1.75424 -2.6091 0
M  V30 2002 N 184.763 -0.387143 -1.52771 0
M  V30 2003 C 185.673 0.456442 -2.30117 0
M  V30 2004 C 186.689 1.07342 -1.36944 0
M  V30 2005 O 187.865 1.07971 -1.70013 0
M  V30 2006 C 184.93 1.56957 -3.09136 0
M  V30 2007 C 183.991 0.977916 -4.18014 0
M  V30 2008 C 183.224 2.038 -4.93256 0
M  V30 2009 O 183.447 3.25271 -4.68567 0
M  V30 2010 O 182.381 1.6565 -5.78657 0
M  V30 2011 H 186.207 -0.17359 -3.03203 0
M  V30 2012 H 183.792 -0.150919 -1.48636 0
M  V30 2013 H 185.674 2.21628 -3.58412 0
M  V30 2014 H 184.349 2.18461 -2.38865 0
M  V30 2015 H 183.256 0.294525 -3.72939 0
M  V30 2016 H 184.589 0.407128 -4.90513 0
M  V30 2017 N 186.241 1.57166 -0.116904 0
M  V30 2018 C 187.471 1.99184 0.548586 0
M  V30 2019 C 187.879 0.995436 1.60897 0
M  V30 2020 O 187.222 -0.0201293 1.83689 0
M  V30 2021 C 187.284 3.37611 1.23526 0
M  V30 2022 C 186.948 4.55857 0.323077 0
M  V30 2023 C 187.945 5.18056 -0.437476 0
M  V30 2024 C 185.63 5.01751 0.234761 0
M  V30 2025 C 187.624 6.24536 -1.2741 0
M  V30 2026 C 185.311 6.08093 -0.605496 0
M  V30 2027 C 186.309 6.69352 -1.35856 0
M  V30 2028 O 185.997 7.7364 -2.18487 0
M  V30 2029 H 185.729 0.659148 0.149999 0
M  V30 2030 H 188.283 2.0443 -0.199428 0
M  V30 2031 H 186.513 3.29113 2.0303 0
M  V30 2032 H 188.202 3.63932 1.79745 0
M  V30 2033 H 188.968 4.83516 -0.379105 0
M  V30 2034 H 184.847 4.53817 0.810601 0
M  V30 2035 H 188.391 6.72281 -1.86237 0
M  V30 2036 H 184.288 6.42063 -0.665268 0
M  V30 2037 H 185.056 7.90727 -2.11406 0
M  V30 2038 N 187.719 -0.156864 1.56817 0
M  V30 2039 C 188.944 -0.890331 1.87318 0
M  V30 2040 C 189.369 -1.74394 0.704855 0
M  V30 2041 O 188.727 -1.77972 -0.345786 0
M  V30 2042 C 188.775 -1.73102 3.16336 0
M  V30 2043 O 187.879 -2.83422 2.99576 0
M  V30 2044 H 187.22 -0.24857 0.615718 0
M  V30 2045 H 189.75 -0.150649 2.04045 0
M  V30 2046 H 189.76 -2.12803 3.48107 0
M  V30 2047 H 188.435 -1.10412 4.00976 0
M  V30 2048 H 187.012 -2.47199 2.7919 0
M  V30 2049 N 189.197 -1.51736 -0.425897 0
M  V30 2050 C 190.129 -1.70083 -1.53638 0
M  V30 2051 C 191.142 -0.581349 -1.52066 0
M  V30 2052 O 192.331 -0.856017 -1.56635 0
M  V30 2053 C 189.431 -1.71078 -2.9255 0
M  V30 2054 C 188.604 -2.99795 -3.185 0
M  V30 2055 C 187.663 -2.92825 -4.37196 0
M  V30 2056 O 186.689 -3.66756 -4.35291 0
M  V30 2057 N 187.891 -2.0946 -5.41393 0
M  V30 2058 H 190.656 -2.65882 -1.383 0
M  V30 2059 H 188.217 -1.49765 -0.614988 0
M  V30 2060 H 190.209 -1.63969 -3.69995 0
M  V30 2061 H 188.779 -0.828242 -3.01428 0
M  V30 2062 H 187.999 -3.20684 -2.2925 0
M  V30 2063 H 189.287 -3.84977 -3.32671 0
M  V30 2064 H 188.685 -1.48792 -5.45781 0
M  V30 2065 H 187.242 -2.08221 -6.17647 0
M  V30 2066 N 190.675 0.682077 -1.42076 0
M  V30 2067 C 191.922 1.44215 -1.42156 0
M  V30 2068 C 192.25 1.94468 -0.0354186 0
M  V30 2069 O 191.505 1.70816 0.955002 0
M  V30 2070 C 191.804 2.66036 -2.38662 0
M  V30 2071 C 191.47 2.34366 -3.85206 0
M  V30 2072 C 190.132 2.25439 -4.25124 0
M  V30 2073 C 192.484 2.08513 -4.77673 0
M  V30 2074 C 189.812 1.88775 -5.55501 0
M  V30 2075 C 192.164 1.73354 -6.08384 0
M  V30 2076 C 190.828 1.62933 -6.47309 0
M  V30 2077 H 190.098 0.527718 -0.520187 0
M  V30 2078 H 192.745 0.778387 -1.74967 0
M  V30 2079 H 191.05 3.3741 -1.99152 0
M  V30 2080 H 192.747 3.24205 -2.35991 0
M  V30 2081 H 189.337 2.42213 -3.53597 0
M  V30 2082 H 193.521 2.14346 -4.47626 0
M  V30 2083 H 188.777 1.7927 -5.84527 0
M  V30 2084 H 192.951 1.52373 -6.79526 0
M  V30 2085 H 190.578 1.34292 -7.48244 0
M  V30 2086 N 192.153 1.28127 0.917671 0
M  V30 2087 C 193.083 1.14248 2.03641 0
M  V30 2088 C 194.064 0.0412748 1.7005 0
M  V30 2089 O 195.249 0.217566 1.92977 0
M  V30 2090 C 192.379 0.799431 3.37974 0
M  V30 2091 C 191.333 1.85497 3.85713 0
M  V30 2092 C 190.659 1.36565 5.16966 0
M  V30 2093 C 191.959 3.26085 4.08002 0
M  V30 2094 H 193.653 2.07835 2.15511 0
M  V30 2095 H 191.199 1.00064 1.03553 0
M  V30 2096 H 193.152 0.689114 4.15727 0
M  V30 2097 H 191.876 -0.172145 3.26146 0
M  V30 2098 H 190.535 1.95437 3.10161 0
M  V30 2099 H 190.183 0.383253 5.01538 0
M  V30 2100 H 189.883 2.07143 5.49878 0
M  V30 2101 H 191.407 1.26848 5.97279 0
M  V30 2102 H 192.821 3.19089 4.76293 0
M  V30 2103 H 191.218 3.94462 4.52238 0
M  V30 2104 H 192.288 3.70394 3.12948 0
M  V30 2105 N 193.631 -1.12557 1.10312 0
M  V30 2106 C 194.856 -1.88405 0.867085 0
M  V30 2107 C 195.281 -1.79038 -0.576817 0
M  V30 2108 O 194.639 -1.14439 -1.40618 0
M  V30 2109 C 194.687 -3.3563 1.31851 0
M  V30 2110 O 193.791 -4.09565 0.482734 0
M  V30 2111 H 193.132 -0.585455 0.313271 0
M  V30 2112 H 195.662 -1.42352 1.4696 0
M  V30 2113 H 195.672 -3.86469 1.3079 0
M  V30 2114 H 194.347 -3.41765 2.37001 0
M  V30 2115 H 192.924 -3.68695 0.558448 0
M  V30 2116 N 195.109 -0.891671 -1.2995 0
M  V30 2117 C 196.019 -0.367691 -2.31701 0
M  V30 2118 C 197.035 0.533486 -1.6562 0
M  V30 2119 O 198.211 0.424997 -1.96865 0
M  V30 2120 C 195.276 0.403406 -3.44345 0
M  V30 2121 C 194.337 -0.528328 -4.26037 0
M  V30 2122 C 193.57 0.206063 -5.33302 0
M  V30 2123 O 193.793 1.43119 -5.52153 0
M  V30 2124 O 192.727 -0.447281 -6.00236 0
M  V30 2125 H 196.553 -1.21163 -2.78484 0
M  V30 2126 H 194.138 -0.655725 -1.34241 0
M  V30 2127 H 196.02 0.839753 -4.12948 0
M  V30 2128 H 194.695 1.22354 -2.99685 0
M  V30 2129 H 193.602 -1.01362 -3.60106 0
M  V30 2130 H 194.935 -1.31465 -4.74318 0
M  V30 2131 N 196.587 1.43421 -0.653314 0
M  V30 2132 C 197.537 2.2792 0.060558 0
M  V30 2133 C 198.521 1.39906 0.794677 0
M  V30 2134 O 199.713 1.63536 0.677128 0
M  V30 2135 C 196.842 3.27603 1.0262 0
M  V30 2136 C 195.928 4.23104 0.290551 0
M  V30 2137 N 196.319 5.01031 -0.692967 0
M  V30 2138 C 194.617 4.42816 0.531984 0
M  V30 2139 C 195.318 5.70626 -1.12963 0
M  V30 2140 N 194.294 5.41617 -0.463867 0
M  V30 2141 H 198.096 2.85585 -0.694143 0
M  V30 2142 H 195.61 1.55126 -0.480602 0
M  V30 2143 H 197.607 3.86918 1.55242 0
M  V30 2144 H 196.267 2.71499 1.78096 0
M  V30 2145 H 197.278 5.0669 -1.07169 0
M  V30 2146 H 193.955 3.97782 1.26791 0
M  V30 2147 H 195.345 6.4318 -1.94343 0
M  V30 2148 N 198.065 0.39524 1.52563 0
M  V30 2149 C 199.028 -0.425001 2.25225 0
M  V30 2150 C 200.028 -0.985266 1.27079 0
M  V30 2151 O 201.218 -0.866332 1.5113 0
M  V30 2152 C 198.35 -1.59686 3.01186 0
M  V30 2153 H 199.543 0.211233 2.99155 0
M  V30 2154 H 197.096 0.147472 1.55603 0
M  V30 2155 H 197.831 -2.27035 2.31572 0
M  V30 2156 H 197.616 -1.20176 3.73229 0
M  V30 2157 H 199.106 -2.17743 3.5634 0
M  V30 2158 N 199.544 -1.57102 0.125237 0
M  V30 2159 C 200.792 -1.95021 -0.530198 0
M  V30 2160 C 201.113 -1.00982 -1.66816 0
M  V30 2161 O 200.383 -0.0672693 -1.95784 0
M  V30 2162 H 198.963 -0.720046 -0.198853 0
M  V30 2163 H 201.625 -1.93916 0.19564 0
M  V30 2164 H 200.721 -2.98211 -0.920681 0
M  V30 2165 N 201.022 0.148545 -1.56898 0
M  V30 2166 C 202.247 0.880385 -1.87787 0
M  V30 2167 C 202.672 1.74018 -0.714093 0
M  V30 2168 O 202.03 1.78153 0.336343 0
M  V30 2169 C 202.078 1.71422 -3.17249 0
M  V30 2170 O 201.182 2.8183 -3.01074 0
M  V30 2171 H 200.523 0.245301 -0.617028 0
M  V30 2172 H 203.053 0.139826 -2.04122 0
M  V30 2173 H 203.063 2.10954 -3.49231 0
M  V30 2174 H 201.738 1.08284 -4.01556 0
M  V30 2175 H 200.315 2.45715 -2.80497 0
M  V30 2176 N 202.5 1.5196 0.417844 0
M  V30 2177 C 203.725 1.69717 1.1921 0
M  V30 2178 C 204.15 0.402148 1.83751 0
M  V30 2179 O 203.508 -0.639593 1.69643 0
M  V30 2180 C 203.556 2.82794 2.2374 0
M  V30 2181 O 202.66 2.47756 3.29683 0
M  V30 2182 H 202.001 0.565263 0.348387 0
M  V30 2183 H 204.531 1.98621 0.490985 0
M  V30 2184 H 204.541 3.07452 2.68212 0
M  V30 2185 H 203.216 3.76756 1.76146 0
M  V30 2186 H 201.793 2.33739 2.90552 0
M  V30 2187 N 203.978 -0.674533 1.42435 0
M  V30 2188 C 204.926 -1.80934 1.46169 0
M  V30 2189 C 205.92 -1.66006 0.3374 0
M  V30 2190 O 207.126 -1.72611 0.510425 0
M  V30 2191 H 203.501 -0.596594 0.457798 0
M  V30 2192 H 205.472 -1.74903 2.41767 0
M  V30 2193 C 204.221 -3.19088 1.38123 0
M  V30 2194 H 203.544 -3.31203 2.23931 0
M  V30 2195 H 204.984 -3.9851 1.44797 0
M  V30 2196 C 203.443 -3.36763 0.0960517 0
M  V30 2197 O 203.973 -3.92581 -0.851073 0
M  V30 2198 N 202.179 -2.90597 0.0131186 0
M  V30 2199 H 201.726 -2.45359 0.784639 0
M  V30 2200 H 201.684 -3.028 -0.846133 0
M  V30 2201 N 205.456 -1.28612 -0.910864 0
M  V30 2202 C 206.419 -1.12803 -1.9952 0
M  V30 2203 C 207.419 -0.0668264 -1.60661 0
M  V30 2204 O 208.609 -0.312847 -1.71368 0
M  V30 2205 C 205.741 -0.72254 -3.33155 0
M  V30 2206 H 206.934 -2.09109 -2.14973 0
M  V30 2207 H 204.487 -1.11639 -1.09391 0
M  V30 2208 H 205.222 0.241152 -3.23402 0
M  V30 2209 H 205.007 -1.48916 -3.62721 0
M  V30 2210 H 206.497 -0.634666 -4.12749 0
M  V30 2211 N 206.934 1.1197 -1.10907 0
M  V30 2212 C 208.181 1.83588 -0.854507 0
M  V30 2213 C 208.509 1.84357 0.6199 0
M  V30 2214 O 207.764 1.28809 1.47332 0
M  V30 2215 C 208.063 3.30749 -1.35425 0
M  V30 2216 C 207.729 3.50146 -2.84093 0
M  V30 2217 C 206.391 3.55148 -3.2469 0
M  V30 2218 C 208.743 3.56857 -3.79872 0
M  V30 2219 C 206.071 3.6441 -4.59806 0
M  V30 2220 C 208.423 3.6765 -5.14797 0
M  V30 2221 C 207.087 3.7091 -5.54961 0
M  V30 2222 H 206.357 0.671795 -0.312686 0
M  V30 2223 H 209.004 1.32091 -1.38652 0
M  V30 2224 H 207.309 3.84703 -0.742361 0
M  V30 2225 H 209.006 3.8464 -1.1337 0
M  V30 2226 H 205.596 3.46919 -2.51685 0
M  V30 2227 H 209.78 3.52258 -3.49611 0
M  V30 2228 H 205.036 3.65208 -4.9034 0
M  V30 2229 H 209.21 3.71786 -5.88853 0
M  V30 2230 H 206.837 3.7784 -6.59652 0
M  V30 2231 N 208.412 0.89855 1.29475 0
M  V30 2232 C 209.64 0.539261 1.99749 0
M  V30 2233 C 210.055 -0.875716 1.67262 0
M  V30 2234 O 209.412 -1.57786 0.917049 0
M  V30 2235 C 209.463 0.72061 3.54245 0
M  V30 2236 O 209.184 2.07989 3.8558 0
M  V30 2237 C 210.685 0.366118 4.41786 0
M  V30 2238 H 207.905 0.207047 0.638258 0
M  V30 2239 H 210.449 1.20758 1.65039 0
M  V30 2240 H 208.604 0.0994862 3.87272 0
M  V30 2241 H 209.018 2.10841 4.80257 0
M  V30 2242 H 210.492 0.543848 5.49314 0
M  V30 2243 H 210.969 -0.696763 4.33638 0
M  V30 2244 H 211.575 0.964135 4.14228 0
M  V30 2245 N 209.89 -1.43072 0.660911 0
M  V30 2246 C 211.115 -2.06584 0.183805 0
M  V30 2247 C 211.54 -1.49257 -1.14472 0
M  V30 2248 O 210.898 -0.605528 -1.70889 0
M  V30 2249 C 210.946 -3.60418 0.114434 0
M  V30 2250 O 210.05 -4.01981 -0.921137 0
M  V30 2251 H 209.391 -0.656669 0.0983994 0
M  V30 2252 H 211.921 -1.83447 0.906006 0
M  V30 2253 H 211.931 -4.07946 -0.0663394 0
M  V30 2254 H 210.606 -4.01519 1.08422 0
M  V30 2255 H 209.183 -3.66029 -0.71253 0
M  V30 2256 N 211.368 -0.403325 -1.52352 0
M  V30 2257 C 212.616 0.174003 -2.0135 0
M  V30 2258 C 212.937 1.46139 -1.29106 0
M  V30 2259 O 212.207 1.91448 -0.415253 0
M  V30 2260 H 210.787 0.0672911 -0.743963 0
M  V30 2261 H 213.449 -0.538235 -1.87321 0
M  V30 2262 H 212.545 0.374254 -3.09848 0
M  V30 2263 N 212.846 1.57033 -0.133567 0
M  V30 2264 C 213.756 2.19632 0.824564 0
M  V30 2265 C 214.772 1.17666 1.28182 0
M  V30 2266 O 215.948 1.50193 1.3418 0
M  V30 2267 C 213.013 2.79499 2.05137 0
M  V30 2268 C 212.074 3.96548 1.64464 0
M  V30 2269 C 211.307 4.5355 2.81297 0
M  V30 2270 O 211.53 4.09438 3.97136 0
M  V30 2271 O 210.464 5.44018 2.57542 0
M  V30 2272 H 214.29 3.01991 0.321766 0
M  V30 2273 H 211.875 1.49112 0.0927889 0
M  V30 2274 H 213.757 3.17602 2.7696 0
M  V30 2275 H 212.432 2.00162 2.54395 0
M  V30 2276 H 211.339 3.63186 0.897048 0
M  V30 2277 H 212.672 4.77364 1.19934 0
M  V30 2278 N 214.325 -0.140222 1.56975 0
M  V30 2279 C 215.275 -1.17827 1.95194 0
M  V30 2280 C 216.259 -1.38195 0.824075 0
M  V30 2281 O 217.451 -1.39643 1.0876 0
M  V30 2282 C 214.58 -2.51024 2.34184 0
M  V30 2283 C 213.666 -2.3422 3.53556 0
M  V30 2284 N 214.057 -1.87185 4.69889 0
M  V30 2285 C 212.355 -2.64949 3.58773 0
M  V30 2286 C 213.056 -1.83586 5.5197 0
M  V30 2287 N 212.032 -2.2715 4.93866 0
M  V30 2288 H 215.834 -0.806817 2.82609 0
M  V30 2289 H 213.348 -0.348208 1.58623 0
M  V30 2290 H 215.345 -3.26074 2.59772 0
M  V30 2291 H 214.005 -2.88945 1.48124 0
M  V30 2292 H 215.016 -1.57048 4.93514 0
M  V30 2293 H 211.693 -3.067 2.8327 0
M  V30 2294 H 213.083 -1.48655 6.55249 0
M  V30 2295 N 215.803 -1.52179 -0.40978 0
M  V30 2296 C 217.031 -1.70054 -1.17853 0
M  V30 2297 C 217.446 -0.409735 -1.843 0
M  V30 2298 O 216.803 0.614183 -1.71855 0
M  V30 2299 C 216.854 -2.83568 -2.24213 0
M  V30 2300 O 216.575 -4.0765 -1.60478 0
M  V30 2301 C 218.076 -3.12947 -3.13973 0
M  V30 2302 H 215.296 -0.569917 -0.354169 0
M  V30 2303 H 217.84 -1.98734 -0.482198 0
M  V30 2304 H 215.995 -2.57409 -2.89516 0
M  V30 2305 H 216.409 -4.70899 -2.30986 0
M  V30 2306 H 217.883 -3.95889 -3.84677 0
M  V30 2307 H 218.36 -2.26472 -3.76307 0
M  V30 2308 H 218.966 -3.40868 -2.5434 0
M  V30 2309 N 217.281 0.66697 -1.42791 0
M  V30 2310 C 218.229 1.80157 -1.47127 0
M  V30 2311 C 219.223 1.65825 -0.346199 0
M  V30 2312 O 220.429 1.72338 -0.519572 0
M  V30 2313 H 216.804 0.594158 -0.460956 0
M  V30 2314 H 218.775 1.73619 -2.42692 0
M  V30 2315 C 217.524 3.18351 -1.39813 0
M  V30 2316 H 216.847 3.3001 -2.25684 0
M  V30 2317 H 218.287 3.97736 -1.46908 0
M  V30 2318 C 216.746 3.36707 -0.11391 0
M  V30 2319 O 217.276 3.93027 0.830241 0
M  V30 2320 N 215.482 2.90586 -0.0285295 0
M  V30 2321 H 215.029 2.4494 -0.79764 0
M  V30 2322 H 214.987 3.03245 0.830063 0
M  V30 2323 N 218.759 1.29093 0.90403 0
M  V30 2324 C 219.989 1.19516 1.68522 0
M  V30 2325 C 220.397 -0.24738 1.87576 0
M  V30 2326 O 219.74 -1.17798 1.40959 0
M  V30 2327 C 219.802 1.83249 3.0929 0
M  V30 2328 C 219.466 3.32531 3.13484 0
M  V30 2329 C 220.463 4.28821 2.93953 0
M  V30 2330 C 218.148 3.73656 3.35688 0
M  V30 2331 C 220.142 5.64212 2.96553 0
M  V30 2332 C 217.829 5.0917 3.37919 0
M  V30 2333 C 218.827 6.04258 3.18373 0
M  V30 2334 O 218.515 7.37298 3.20385 0
M  V30 2335 H 218.247 0.415467 0.533257 0
M  V30 2336 H 220.801 1.70912 1.13922 0
M  V30 2337 H 219.031 1.26358 3.65473 0
M  V30 2338 H 220.72 1.68054 3.69476 0
M  V30 2339 H 221.486 3.98382 2.76616 0
M  V30 2340 H 217.365 3.00101 3.49943 0
M  V30 2341 H 220.909 6.38407 2.81216 0
M  V30 2342 H 216.806 5.39256 3.54787 0
M  V30 2343 H 217.574 7.46048 3.36681 0
M  V30 2344 N 220.237 -1.11381 1.11499 0
M  V30 2345 C 221.467 -1.86663 0.885464 0
M  V30 2346 C 221.875 -1.80464 -0.568281 0
M  V30 2347 O 221.218 -1.18445 -1.40415 0
M  V30 2348 C 221.28 -3.36337 1.26956 0
M  V30 2349 C 220.944 -3.66304 2.73259 0
M  V30 2350 C 221.941 -3.63733 3.71476 0
M  V30 2351 C 219.626 -3.9529 3.09921 0
M  V30 2352 C 221.62 -3.89725 5.04374 0
M  V30 2353 C 219.307 -4.20941 4.43004 0
M  V30 2354 C 220.305 -4.18147 5.40039 0
M  V30 2355 O 219.993 -4.43153 6.70724 0
M  V30 2356 H 219.725 -0.597114 0.316908 0
M  V30 2357 H 222.279 -1.41782 1.48617 0
M  V30 2358 H 220.509 -3.81826 0.611999 0
M  V30 2359 H 222.198 -3.92986 1.01573 0
M  V30 2360 H 222.964 -3.41389 3.44498 0
M  V30 2361 H 218.843 -3.966 2.35009 0
M  V30 2362 H 222.387 -3.8746 5.80104 0
M  V30 2363 H 218.284 -4.42761 4.69716 0
M  V30 2364 H 219.052 -4.60717 6.76522 0
M  V30 2365 N 221.715 -0.905404 -1.28997 0
M  V30 2366 C 222.962 -0.534248 -1.95325 0
M  V30 2367 C 223.29 0.920535 -1.71337 0
M  V30 2368 O 222.545 1.66861 -1.02254 0
M  V30 2369 C 222.844 -0.779906 -3.48787 0
M  V30 2370 C 222.51 -2.21293 -3.92861 0
M  V30 2371 C 221.172 -2.60475 -4.04606 0
M  V30 2372 C 223.524 -3.14587 -4.15553 0
M  V30 2373 C 220.852 -3.9212 -4.36416 0
M  V30 2374 C 223.204 -4.45787 -4.48839 0
M  V30 2375 C 221.868 -4.84834 -4.58794 0
M  V30 2376 H 221.138 -0.195495 -0.714747 0
M  V30 2377 H 223.785 -1.14514 -1.53488 0
M  V30 2378 H 222.09 -0.0861365 -3.91705 0
M  V30 2379 H 223.787 -0.472029 -3.98212 0
M  V30 2380 H 220.377 -1.89887 -3.84241 0
M  V30 2381 H 224.561 -2.85528 -4.0594 0
M  V30 2382 H 219.817 -4.22086 -4.42327 0
M  V30 2383 H 223.991 -5.18098 -4.65346 0
M  V30 2384 H 221.618 -5.86877 -4.83197 0
M  V30 2385 N 223.193 1.4272 -0.668489 0
M  V30 2386 C 224.47 1.95248 -0.117373 0
M  V30 2387 C 224.85 1.60919 1.36632 0
M  V30 2388 O 224.198 0.902095 2.09939 0
M  V30 2389 C 224.408 3.46927 -0.379806 0
M  V30 2390 C 225.756 4.23588 -0.292923 0
M  V30 2391 O 226.78 3.5482 -0.313204 0
M  V30 2392 O 225.639 5.46017 -0.229697 0
M  V30 2393 H 222.733 0.827 0.00079152 0
M  V30 2394 H 225.279 1.52581 -0.742783 0
M  V30 2395 H 224.051 3.65096 -1.40786 0
M  V30 2396 H 223.674 3.96627 0.277923 0
M  V30 2397 N 224.671 0.411399 1.52136 0
M  V30 2398 C 225.917 -0.163888 2.02137 0
M  V30 2399 C 226.25 -1.44597 1.29636 0
M  V30 2400 O 225.525 -1.90272 0.403353 0
M  V30 2401 C 225.808 -0.40927 3.57767 0
M  V30 2402 C 225.661 0.889643 4.40914 0
M  V30 2403 C 226.98 -1.19042 4.23694 0
M  V30 2404 H 224.099 -0.0580896 0.734707 0
M  V30 2405 H 226.741 0.54531 1.82007 0
M  V30 2406 H 224.891 -1.0134 3.7505 0
M  V30 2407 H 226.563 1.52575 4.35337 0
M  V30 2408 H 224.806 1.50011 4.07037 0
M  V30 2409 H 225.477 0.672314 5.4789 0
M  V30 2410 H 227.953 -0.678942 4.10524 0
M  V30 2411 H 226.829 -1.33086 5.32522 0
M  V30 2412 H 227.09 -2.21166 3.82803 0
M  V30 2413 N 226.149 -1.5696 0.141893 0
M  V30 2414 C 227.374 -2.00754 -0.520838 0
M  V30 2415 C 227.799 -1.0213 -1.57959 0
M  V30 2416 O 227.157 0.00371324 -1.813 0
M  V30 2417 C 227.205 -3.43318 -1.10294 0
M  V30 2418 O 226.309 -3.47679 -2.21795 0
M  V30 2419 H 225.65 -0.651564 -0.127908 0
M  V30 2420 H 228.18 -2.03221 0.23712 0
M  V30 2421 H 228.19 -3.82012 -1.43287 0
M  V30 2422 H 226.865 -4.14608 -0.327574 0
M  V30 2423 H 225.442 -3.20824 -1.9007 0
M  V30 2424 N 227.627 0.131896 -1.57047 0
M  V30 2425 C 228.577 1.1679 -1.95816 0
M  V30 2426 C 229.561 1.37756 -0.831393 0
M  V30 2427 O 230.753 1.39065 -1.09499 0
M  V30 2428 C 227.882 2.49778 -2.35512 0
M  V30 2429 C 226.968 2.32342 -3.54793 0
M  V30 2430 N 227.359 1.8469 -4.70875 0
M  V30 2431 C 225.657 2.63043 -3.60173 0
M  V30 2432 C 226.358 1.80656 -5.52936 0
M  V30 2433 N 225.334 2.24528 -4.95064 0
M  V30 2434 H 229.136 0.791818 -2.83033 0
M  V30 2435 H 226.65 0.339791 -1.58805 0
M  V30 2436 H 228.647 3.24692 -2.61498 0
M  V30 2437 H 227.307 2.88156 -1.49654 0
M  V30 2438 H 228.318 1.54429 -4.9434 0
M  V30 2439 H 224.995 3.05193 -2.84892 0
M  V30 2440 H 226.385 1.45178 -6.56028 0
M  V30 2441 N 229.106 1.52395 0.401703 0
M  V30 2442 C 230.016 1.7917 1.51444 0
M  V30 2443 C 231.032 0.677691 1.6026 0
M  V30 2444 O 232.208 0.963909 1.76835 0
M  V30 2445 C 229.273 1.94347 2.87107 0
M  V30 2446 C 228.334 3.18257 2.88116 0
M  V30 2447 C 227.567 3.32701 4.17308 0
M  V30 2448 O 227.79 2.52238 5.11598 0
M  V30 2449 O 226.724 4.25891 4.25324 0
M  V30 2450 H 230.55 2.73633 1.31752 0
M  V30 2451 H 228.135 1.3733 0.588296 0
M  V30 2452 H 230.017 2.06109 3.67555 0
M  V30 2453 H 228.692 1.03073 3.06851 0
M  V30 2454 H 227.599 3.11947 2.06494 0
M  V30 2455 H 228.932 4.09336 2.73322 0
M  V30 2456 N 230.584 -0.659388 1.43143 0
M  V30 2457 C 231.534 -1.7655 1.44271 0
M  V30 2458 C 232.518 -1.57847 0.311961 0
M  V30 2459 O 233.71 -1.68064 0.555306 0
M  V30 2460 C 230.839 -3.15104 1.36251 0
M  V30 2461 C 229.925 -3.39377 2.54331 0
M  V30 2462 N 230.316 -3.34153 3.79704 0
M  V30 2463 C 228.614 -3.70072 2.48922 0
M  V30 2464 C 229.315 -3.58337 4.58225 0
M  V30 2465 N 228.291 -3.79851 3.88863 0
M  V30 2466 H 232.093 -1.70928 2.39083 0
M  V30 2467 H 229.607 -0.860823 1.37708 0
M  V30 2468 H 231.604 -3.94389 1.35141 0
M  V30 2469 H 230.264 -3.21913 0.424531 0
M  V30 2470 H 231.275 -3.13704 4.1208 0
M  V30 2471 H 227.952 -3.84034 1.63781 0
M  V30 2472 H 229.342 -3.60129 5.67236 0
M  V30 2473 N 232.062 -1.29571 -0.897171 0
M  V30 2474 C 232.992 -1.17473 -2.01798 0
M  V30 2475 C 233.973 -0.068323 -1.69963 0
M  V30 2476 O 235.158 -0.248239 -1.92607 0
M  V30 2477 C 232.288 -0.853099 -3.36659 0
M  V30 2478 C 231.242 -1.9161 -3.82713 0
M  V30 2479 C 230.568 -1.44773 -5.14728 0
M  V30 2480 C 231.868 -3.32535 -4.02763 0
M  V30 2481 H 233.562 -2.11237 -2.12177 0
M  V30 2482 H 231.108 -1.01699 -1.01948 0
M  V30 2483 H 233.061 -0.755165 -4.14578 0
M  V30 2484 H 231.785 0.120236 -3.26379 0
M  V30 2485 H 230.444 -2.00346 -3.07013 0
M  V30 2486 H 230.092 -0.462995 -5.00865 0
M  V30 2487 H 229.792 -2.15865 -5.46513 0
M  V30 2488 H 231.316 -1.36334 -5.95185 0
M  V30 2489 H 232.73 -3.26626 -4.71156 0
M  V30 2490 H 231.127 -4.01607 -4.45905 0
M  V30 2491 H 232.197 -3.75326 -3.07016 0
M  V30 2492 N 233.54 1.10788 -1.12088 0
M  V30 2493 C 234.45 2.20599 -0.798338 0
M  V30 2494 C 235.466 1.72712 0.21135 0
M  V30 2495 O 236.642 2.01348 0.0458477 0
M  V30 2496 C 233.707 3.45771 -0.253674 0
M  V30 2497 C 232.768 4.08411 -1.32283 0
M  V30 2498 C 232.001 5.27608 -0.80406 0
M  V30 2499 O 232.224 5.69241 0.363478 0
M  V30 2500 O 231.158 5.8101 -1.57198 0
M  V30 2501 H 234.984 2.50614 -1.7154 0
M  V30 2502 H 232.569 1.19454 -0.897275 0
M  V30 2503 H 234.451 4.21376 0.0453691 0
M  V30 2504 H 233.126 3.1739 0.636005 0
M  V30 2505 H 232.033 3.34507 -1.67499 0
M  V30 2506 H 233.366 4.40986 -2.18614 0
M  V30 2507 N 235.018 0.912232 1.28515 0
M  V30 2508 C 236.266 0.543523 1.94654 0
M  V30 2509 C 236.587 -0.9155 1.72173 0
M  V30 2510 O 235.857 -1.64708 1.06058 0
M  V30 2511 H 234.437 0.198017 0.720277 0
M  V30 2512 H 237.099 1.16126 1.56527 0
M  V30 2513 H 236.195 0.736684 3.03281 0
M  V30 2514 N 236.496 -1.42363 0.676048 0
M  V30 2515 C 237.459 -2.29199 0.00766941 0
M  V30 2516 C 238.459 -1.43389 -0.727745 0
M  V30 2517 O 239.649 -1.64764 -0.56556 0
M  V30 2518 C 236.781 -3.2591 -0.999785 0
M  V30 2519 H 237.974 -2.89794 0.771988 0
M  V30 2520 H 235.527 -1.50024 0.438468 0
M  V30 2521 H 236.262 -2.70256 -1.79255 0
M  V30 2522 H 236.047 -3.89202 -0.475829 0
M  V30 2523 H 237.537 -3.91028 -1.46583 0
M  V30 2524 N 237.974 -0.419461 -1.51915 0
M  V30 2525 C 238.904 0.391813 -2.30189 0
M  V30 2526 C 239.885 1.03699 -1.34836 0
M  V30 2527 O 241.07 1.04403 -1.63748 0
M  V30 2528 C 238.2 1.50312 -3.13087 0
M  V30 2529 C 237.154 0.9824 -4.16573 0
M  V30 2530 C 236.48 2.18809 -4.8788 0
M  V30 2531 C 237.78 0.0292356 -5.22292 0
M  V30 2532 H 239.474 -0.26135 -2.98257 0
M  V30 2533 H 237.02 -0.127134 -1.43438 0
M  V30 2534 H 238.973 2.07773 -3.66617 0
M  V30 2535 H 237.697 2.18431 -2.42807 0
M  V30 2536 H 236.356 0.430119 -3.64068 0
M  V30 2537 H 236.004 2.85507 -4.14119 0
M  V30 2538 H 235.704 1.84615 -5.57845 0
M  V30 2539 H 237.228 2.76858 -5.44226 0
M  V30 2540 H 238.642 0.512976 -5.71 0
M  V30 2541 H 237.039 -0.2244 -5.9968 0
M  V30 2542 H 238.109 -0.912931 -4.76228 0
M  V30 2543 N 239.452 1.56882 -0.150215 0
M  V30 2544 C 240.729 1.87844 0.545327 0
M  V30 2545 C 241.109 1.0567 1.82749 0
M  V30 2546 O 240.457 0.144442 2.28043 0
M  V30 2547 C 240.667 3.39526 0.80767 0
M  V30 2548 C 242.015 4.08814 1.14703 0
M  V30 2549 O 243.039 3.44723 0.896917 0
M  V30 2550 O 241.898 5.22004 1.61784 0
M  V30 2551 H 238.992 0.778677 0.278553 0
M  V30 2552 H 241.538 1.68666 -0.187068 0
M  V30 2553 H 240.31 3.91173 -0.0996096 0
M  V30 2554 H 239.933 3.64243 1.59413 0
M  V30 2555 N 240.93 -0.123565 1.57115 0
M  V30 2556 C 242.346 -0.476961 1.52306 0
M  V30 2557 C 242.546 -1.82109 0.86248 0
M  V30 2558 O 241.602 -2.48586 0.442884 0
M  V30 2559 C 242.915 -0.465661 2.97073 0
M  V30 2560 C 244.463 -0.549534 3.08138 0
M  V30 2561 C 244.938 -0.568669 4.54456 0
M  V30 2562 N 246.429 -0.630237 4.58892 0
M  V30 2563 C 247.164 -0.666415 5.69514 0
M  V30 2564 N 246.66 -0.660514 6.89644 0
M  V30 2565 N 248.453 -0.709077 5.5761 0
M  V30 2566 H 240.604 0.757198 1.98445 0
M  V30 2567 H 242.867 0.278808 0.906074 0
M  V30 2568 H 242.573 0.454232 3.48754 0
M  V30 2569 H 242.447 -1.29513 3.54269 0
M  V30 2570 H 244.834 -1.45985 2.56461 0
M  V30 2571 H 244.915 0.307532 2.53945 0
M  V30 2572 H 244.559 0.337581 5.06777 0
M  V30 2573 H 244.489 -1.44256 5.06456 0
M  V30 2574 H 246.98 -0.641146 3.72421 0
M  V30 2575 H 247.293 -0.690616 7.69708 0
M  V30 2576 H 245.638 -0.628012 6.92157 0
M  V30 2577 H 248.829 -0.711019 4.62668 0
M  V30 2578 H 249.002 -0.733804 6.43832 0
M  V30 2579 N 242.408 -1.52605 -0.393616 0
M  V30 2580 C 243.655 -1.67424 -1.1391 0
M  V30 2581 C 243.983 -0.411859 -1.90089 0
M  V30 2582 O 243.238 0.605626 -1.86093 0
M  V30 2583 C 243.537 -2.85721 -2.14705 0
M  V30 2584 C 243.203 -4.23342 -1.55218 0
M  V30 2585 C 241.865 -4.60771 -1.3872 0
M  V30 2586 C 244.217 -5.09041 -1.11924 0
M  V30 2587 C 241.545 -5.81563 -0.774689 0
M  V30 2588 C 243.897 -6.30452 -0.520853 0
M  V30 2589 C 242.561 -6.66617 -0.343134 0
M  V30 2590 H 241.831 -0.612648 -0.416826 0
M  V30 2591 H 244.478 -1.8674 -0.424315 0
M  V30 2592 H 242.783 -2.60803 -2.92385 0
M  V30 2593 H 244.48 -2.94382 -2.72288 0
M  V30 2594 H 241.07 -3.93855 -1.69045 0
M  V30 2595 H 245.254 -4.80695 -1.23473 0
M  V30 2596 H 240.51 -6.08196 -0.625154 0
M  V30 2597 H 244.684 -6.96175 -0.177065 0
M  V30 2598 H 242.311 -7.60083 0.133571 0
M  V30 2599 N 243.887 0.651787 -1.4349 0
M  V30 2600 C 244.85 1.74647 -1.48429 0
M  V30 2601 C 245.85 1.56513 -0.368817 0
M  V30 2602 O 247.04 1.62385 -0.630623 0
M  V30 2603 C 244.172 3.13533 -1.33827 0
M  V30 2604 H 245.365 1.71649 -2.4592 0
M  V30 2605 H 242.918 0.863573 -1.30277 0
M  V30 2606 H 243.653 3.22142 -0.37349 0
M  V30 2607 H 243.438 3.28101 -2.14691 0
M  V30 2608 H 244.928 3.93356 -1.40218 0
M  V30 2609 N 245.365 1.30045 0.890287 0
M  V30 2610 C 246.297 1.11786 2.00091 0
M  V30 2611 C 247.31 0.0626307 1.62679 0
M  V30 2612 O 248.499 0.308112 1.75821 0
M  V30 2613 C 245.599 0.681527 3.31977 0
M  V30 2614 C 244.772 1.81735 3.97858 0
M  V30 2615 C 243.831 1.37045 5.08041 0
M  V30 2616 O 242.857 2.07677 5.29961 0
M  V30 2617 N 244.059 0.246525 5.79976 0
M  V30 2618 H 246.824 2.07441 2.16306 0
M  V30 2619 H 244.385 1.2211 1.06305 0
M  V30 2620 H 246.377 0.365675 4.03045 0
M  V30 2621 H 244.947 -0.182828 3.12065 0
M  V30 2622 H 244.167 2.30159 3.20032 0
M  V30 2623 H 245.455 2.57865 4.38615 0
M  V30 2624 H 244.853 -0.34215 5.64664 0
M  V30 2625 H 243.41 -0.00990438 6.51799 0
M  V30 2626 N 246.843 -1.10192 1.12674 0
M  V30 2627 C 248.09 -1.82205 0.883606 0
M  V30 2628 C 248.418 -1.8532 -0.590492 0
M  V30 2629 O 247.673 -1.31137 -1.45264 0
M  V30 2630 C 247.972 -3.28552 1.4067 0
M  V30 2631 C 247.638 -3.45582 2.89627 0
M  V30 2632 C 246.3 -3.49937 3.30299 0
M  V30 2633 C 248.652 -3.50768 3.85501 0
M  V30 2634 C 245.98 -3.57049 4.65546 0
M  V30 2635 C 248.332 -3.59414 5.20581 0
M  V30 2636 C 246.996 -3.62034 5.60792 0
M  V30 2637 H 246.266 -0.666735 0.323334 0
M  V30 2638 H 248.913 -1.29868 1.40736 0
M  V30 2639 H 247.218 -3.83473 0.80347 0
M  V30 2640 H 248.915 -3.82788 1.19475 0
M  V30 2641 H 245.505 -3.42871 2.57172 0
M  V30 2642 H 249.689 -3.46651 3.55171 0
M  V30 2643 H 244.945 -3.57361 4.96088 0
M  V30 2644 H 249.119 -3.62371 5.94693 0
M  V30 2645 H 246.746 -3.67298 6.6558 0
M  V30 2646 N 248.321 -0.919034 -1.28029 0
M  V30 2647 C 249.568 -0.554934 -1.94748 0
M  V30 2648 C 249.896 0.90231 -1.72304 0
M  V30 2649 O 249.151 1.65767 -1.04018 0
M  V30 2650 C 249.45 -0.816855 -3.4794 0
M  V30 2651 C 249.116 -2.25448 -3.90492 0
M  V30 2652 C 247.778 -2.64752 -4.01821 0
M  V30 2653 C 250.13 -3.18977 -4.12193 0
M  V30 2654 C 247.458 -3.96727 -4.32232 0
M  V30 2655 C 249.81 -4.50523 -4.44086 0
M  V30 2656 C 248.474 -4.89673 -4.53626 0
M  V30 2657 H 247.744 -0.203065 -0.712633 0
M  V30 2658 H 250.391 -1.16136 -1.52265 0
M  V30 2659 H 248.696 -0.127677 -3.91592 0
M  V30 2660 H 250.393 -0.514238 -3.97689 0
M  V30 2661 H 246.983 -1.93952 -3.82205 0
M  V30 2662 H 251.167 -2.89817 -4.02889 0
M  V30 2663 H 246.423 -4.26754 -4.37825 0
M  V30 2664 H 250.597 -5.23005 -4.59825 0
M  V30 2665 H 248.224 -5.91969 -4.76946 0
M  V30 2666 N 249.799 1.42003 -0.683588 0
M  V30 2667 C 250.729 2.33487 -0.024866 0
M  V30 2668 C 251.71 1.51163 0.779975 0
M  V30 2669 O 252.895 1.79739 0.735362 0
M  V30 2670 C 250.025 3.3487 0.920836 0
M  V30 2671 C 248.979 4.27414 0.223958 0
M  V30 2672 C 248.305 5.19074 1.2832 0
M  V30 2673 C 249.605 5.14445 -0.90242 0
M  V30 2674 H 251.299 2.88819 -0.788921 0
M  V30 2675 H 248.845 1.38873 -0.38083 0
M  V30 2676 H 250.798 3.97787 1.39081 0
M  V30 2677 H 249.522 2.77861 1.71642 0
M  V30 2678 H 248.181 3.65904 -0.225864 0
M  V30 2679 H 247.829 4.58387 2.071 0
M  V30 2680 H 247.529 5.81822 0.821995 0
M  V30 2681 H 249.053 5.84867 1.75392 0
M  V30 2682 H 250.467 5.70998 -0.513272 0
M  V30 2683 H 248.864 5.86072 -1.28997 0
M  V30 2684 H 249.934 4.52322 -1.74737 0
M  V30 2685 N 251.277 0.427512 1.51691 0
M  V30 2686 C 252.517 -0.141524 2.03909 0
M  V30 2687 C 252.881 -1.40811 1.30523 0
M  V30 2688 O 254.082 -2.05676 1.73063 0
M  V30 2689 C 252.353 -0.364962 3.55532 0
M  V30 2690 S 253.912 -0.898812 4.29496 0
M  V30 2691 H 250.73 -0.0364542 0.710065 0
M  V30 2692 H 253.332 0.584659 1.86553 0
M  V30 2693 H 252.036 0.56336 4.06515 0
M  V30 2694 H 251.567 -1.1185 3.77164 0
M  V30 2695 H 253.582 -2.17747 4.45871 0
M  V30 2696 N 252.755 -1.56801 0.158532 0
M  V30 2697 C 254.166 -1.83189 -0.360366 0
M  V30 2698 C 254.517 -1.07778 -1.63946 0
M  V30 2699 O 253.642 -0.326718 -2.13919 0
M  V30 2700 C 254.237 -3.32297 -0.660595 0
M  V30 2701 C 252.796 -3.59227 -1.12398 0
M  V30 2702 C 251.943 -2.76877 -0.153097 0
M  V30 2703 H 254.894 -1.54008 0.383031 0
M  V30 2704 H 254.915 -3.4908 -1.51405 0
M  V30 2705 H 254.427 -3.87156 0.270527 0
M  V30 2706 H 252.528 -3.09766 -2.07064 0
M  V30 2707 H 252.641 -4.67632 -1.04197 0
M  V30 2708 H 251.005 -2.46319 -0.647983 0
M  V30 2709 H 251.788 -3.34511 0.77182 0
M  V30 2710 N 254.233 0.115231 -1.57178 0
M  V30 2711 C 255.163 1.1423 -2.03651 0
M  V30 2712 C 256.144 1.42967 -0.921655 0
M  V30 2713 O 257.329 1.53343 -1.19162 0
M  V30 2714 C 254.459 2.4675 -2.44401 0
M  V30 2715 C 253.413 2.32467 -3.59365 0
M  V30 2716 C 252.739 3.69984 -3.86026 0
M  V30 2717 C 254.039 1.78203 -4.90959 0
M  V30 2718 H 255.733 0.755749 -2.89705 0
M  V30 2719 H 253.279 0.362093 -1.39373 0
M  V30 2720 H 255.232 3.18854 -2.75517 0
M  V30 2721 H 253.956 2.87302 -1.55322 0
M  V30 2722 H 252.615 1.62811 -3.28463 0
M  V30 2723 H 252.263 4.08028 -2.94147 0
M  V30 2724 H 251.963 3.61279 -4.63412 0
M  V30 2725 H 253.487 4.43587 -4.19599 0
M  V30 2726 H 254.901 2.40128 -5.20587 0
M  V30 2727 H 253.298 1.8031 -5.72371 0
M  V30 2728 H 254.368 0.739876 -4.79222 0
M  V30 2729 N 255.711 1.52812 0.385517 0
M  V30 2730 C 256.958 1.68026 1.1302 0
M  V30 2731 C 257.286 0.421934 1.89868 0
M  V30 2732 O 256.541 -0.595749 1.86412 0
M  V30 2733 C 256.84 2.86856 2.13187 0
M  V30 2734 C 256.506 4.24159 1.5297 0
M  V30 2735 C 255.168 4.61501 1.36274 0
M  V30 2736 C 257.52 5.09627 1.09223 0
M  V30 2737 C 254.848 5.81966 0.743837 0
M  V30 2738 C 257.2 6.30719 0.487411 0
M  V30 2739 C 255.864 6.6679 0.307777 0
M  V30 2740 H 255.134 0.614849 0.413571 0
M  V30 2741 H 257.781 1.86962 0.414405 0
M  V30 2742 H 256.086 2.6235 2.90998 0
M  V30 2743 H 257.783 2.95821 2.70722 0
M  V30 2744 H 254.373 3.94746 1.66954 0
M  V30 2745 H 258.557 4.81343 1.20922 0
M  V30 2746 H 253.813 6.08519 0.592891 0
M  V30 2747 H 257.987 6.96259 0.140143 0
M  V30 2748 H 255.614 7.60001 -0.173879 0
M  V30 2749 N 257.189 -0.644168 1.43834 0
M  V30 2750 C 258.466 -1.40188 1.36406 0
M  V30 2751 C 258.846 -2.11094 0.0163124 0
M  V30 2752 O 258.194 -2.05426 -1.00062 0
M  V30 2753 C 258.404 -2.3791 2.55343 0
M  V30 2754 C 259.752 -3.01637 2.98832 0
M  V30 2755 O 260.776 -2.48237 2.55455 0
M  V30 2756 O 259.635 -3.98477 3.74003 0
M  V30 2757 H 256.729 -0.626773 0.539523 0
M  V30 2758 H 259.275 -0.670317 1.559 0
M  V30 2759 H 258.047 -1.84525 3.4506 0
M  V30 2760 H 257.67 -3.18503 2.37995 0
M  V30 2761 N 258.668 -1.30515 -0.883378 0
M  V30 2762 C 259.578 -1.18959 -2.02203 0
M  V30 2763 C 260.594 -0.109172 -1.73657 0
M  V30 2764 O 261.77 -0.324413 -1.9877 0
M  V30 2765 C 258.835 -0.883871 -3.35244 0
M  V30 2766 C 257.896 -2.04982 -3.77201 0
M  V30 2767 C 257.129 -1.75859 -5.03894 0
M  V30 2768 O 257.352 -0.687276 -5.66244 0
M  V30 2769 O 256.286 -2.61146 -5.42297 0
M  V30 2770 H 260.112 -2.14616 -2.1488 0
M  V30 2771 H 257.697 -1.10124 -1.0096 0
M  V30 2772 H 259.579 -0.728644 -4.15053 0
M  V30 2773 H 258.254 0.0427798 -3.23672 0
M  V30 2774 H 257.161 -2.26038 -2.9809 0
M  V30 2775 H 258.494 -2.95825 -3.93381 0
M  V30 2776 N 260.146 1.09593 -1.13257 0
M  V30 2777 C 261.371 1.8604 -0.916732 0
M  V30 2778 C 261.796 1.80504 0.529146 0
M  V30 2779 O 261.154 1.18127 1.37534 0
M  V30 2780 C 261.202 3.32017 -1.40703 0
M  V30 2781 O 260.306 4.08141 -0.591153 0
M  V30 2782 H 259.647 0.576943 -0.328683 0
M  V30 2783 H 262.177 1.38405 -1.50682 0
M  V30 2784 H 262.187 3.82865 -1.4099 0
M  V30 2785 H 260.862 3.35361 -2.45979 0
M  V30 2786 H 259.439 3.67084 -0.656005 0
M  V30 2787 N 261.624 0.925811 1.2754 0
M  V30 2788 C 262.864 0.572521 1.96218 0
M  V30 2789 C 263.228 -0.869719 1.71172 0
M  V30 2790 O 264.429 -1.33119 2.33523 0
M  V30 2791 C 262.7 0.887325 3.4621 0
M  V30 2792 S 264.259 0.642266 4.34074 0
M  V30 2793 H 261.077 0.211403 0.678845 0
M  V30 2794 H 263.679 1.19384 1.54815 0
M  V30 2795 H 262.383 1.93469 3.61936 0
M  V30 2796 H 261.914 0.255123 3.92572 0
M  V30 2797 H 263.929 -0.500822 4.93666 0
M  V30 2798 N 263.102 -1.41638 0.69111 0
M  V30 2799 C 264.049 -2.30789 0.0229705 0
M  V30 2800 C 265.019 -1.46863 -0.775911 0
M  V30 2801 O 266.204 -1.75661 -0.74485 0
M  V30 2802 C 263.344 -3.32868 -0.910666 0
M  V30 2803 C 262.457 -4.31875 -0.103874 0
M  V30 2804 C 261.592 -5.21024 -1.03475 0
M  V30 2805 C 260.631 -6.11702 -0.220598 0
M  V30 2806 N 259.768 -6.93349 -1.10504 0
M  V30 2807 H 264.608 -2.87366 0.788978 0
M  V30 2808 H 262.145 -1.41535 0.400794 0
M  V30 2809 H 264.103 -3.90596 -1.46597 0
M  V30 2810 H 262.733 -2.77851 -1.64312 0
M  V30 2811 H 261.785 -3.76131 0.568285 0
M  V30 2812 H 263.097 -4.96003 0.527504 0
M  V30 2813 H 262.251 -5.83565 -1.65943 0
M  V30 2814 H 260.99 -4.57112 -1.69999 0
M  V30 2815 H 259.995 -5.48215 0.417187 0
M  V30 2816 H 261.22 -6.77668 0.440784 0
M  V30 2817 H 259.166 -6.3205 -1.75638 0
M  V30 2818 H 259.083 -7.54146 -0.529125 0
M  V30 2819 H 260.351 -7.60362 -1.71667 0
M  V30 2820 N 264.58 -0.43555 -1.51462 0
M  V30 2821 C 265.857 0.191364 -1.94662 0
M  V30 2822 C 266.237 1.60254 -1.37411 0
M  V30 2823 O 265.585 2.2152 -0.560458 0
M  V30 2824 C 265.795 0.17091 -3.48581 0
M  V30 2825 C 267.143 0.377357 -4.2292 0
M  V30 2826 O 268.167 0.249104 -3.55328 0
M  V30 2827 O 267.026 0.63247 -5.42828 0
M  V30 2828 H 264.12 0.130932 -0.816569 0
M  V30 2829 H 266.666 -0.4934 -1.62369 0
M  V30 2830 H 265.438 -0.815738 -3.82703 0
M  V30 2831 H 265.061 0.898659 -3.87311 0
M  V30 2832 N 266.058 1.56714 -0.166846 0
M  V30 2833 C 267.474 1.58473 0.189372 0
M  V30 2834 C 267.674 1.18201 1.63189 0
M  V30 2835 O 266.73 0.891528 2.36237 0
M  V30 2836 C 268.043 3.00573 -0.0873872 0
M  V30 2837 C 269.591 3.1299 -0.0252443 0
M  V30 2838 C 270.066 4.57174 -0.274934 0
M  V30 2839 N 271.557 4.62665 -0.222553 0
M  V30 2840 C 272.292 5.72072 -0.389985 0
M  V30 2841 N 271.788 6.90054 -0.616229 0
M  V30 2842 N 273.581 5.61153 -0.326202 0
M  V30 2843 H 265.732 1.8118 -1.10849 0
M  V30 2844 H 267.995 0.839525 -0.440342 0
M  V30 2845 H 267.701 3.34497 -1.0865 0
M  V30 2846 H 267.575 3.72019 0.623037 0
M  V30 2847 H 269.962 2.78895 0.96444 0
M  V30 2848 H 270.043 2.43989 -0.768309 0
M  V30 2849 H 269.687 4.91976 -1.26181 0
M  V30 2850 H 269.617 5.24328 0.48869 0
M  V30 2851 H 272.108 3.77863 -0.0531512 0
M  V30 2852 H 272.421 7.69311 -0.733559 0
M  V30 2853 H 270.766 6.91927 -0.652791 0
M  V30 2854 H 273.957 4.67859 -0.150072 0
M  V30 2855 H 274.13 6.46364 -0.460116 0
M  V30 2856 N 267.536 -0.106894 1.57237 0
M  V30 2857 C 268.446 -1.14911 2.0453 0
M  V30 2858 C 269.462 -1.44592 0.96795 0
M  V30 2859 O 270.638 -1.55468 1.2803 0
M  V30 2860 C 267.703 -2.45272 2.45036 0
M  V30 2861 C 266.764 -2.22879 3.66911 0
M  V30 2862 C 265.997 -3.47024 4.05475 0
M  V30 2863 O 266.22 -4.54804 3.44252 0
M  V30 2864 O 265.154 -3.3731 4.98504 0
M  V30 2865 H 268.98 -0.777461 2.9358 0
M  V30 2866 H 266.565 -0.318563 1.45964 0
M  V30 2867 H 268.447 -3.22055 2.71769 0
M  V30 2868 H 267.122 -2.81886 1.59129 0
M  V30 2869 H 266.029 -1.43915 3.45311 0
M  V30 2870 H 267.362 -1.91163 4.53561 0
M  V30 2871 N 269.014 -1.53014 -0.377408 0
M  V30 2872 C 270.26 -1.68872 -1.12294 0
M  V30 2873 C 270.593 -0.433224 -1.89306 0
M  V30 2874 O 269.868 0.569258 -1.85983 0
M  V30 2875 C 270.151 -2.93115 -2.09179 0
M  V30 2876 C 270.004 -4.28794 -1.35853 0
M  V30 2877 C 271.323 -3.12928 -3.09458 0
M  V30 2878 H 268.442 -0.614518 -0.406862 0
M  V30 2879 H 271.084 -1.85633 -0.40503 0
M  V30 2880 H 269.234 -2.78956 -2.70399 0
M  V30 2881 H 270.906 -4.54742 -0.775082 0
M  V30 2882 H 269.149 -4.28744 -0.660364 0
M  V30 2883 H 269.82 -5.11837 -2.06706 0
M  V30 2884 H 272.296 -3.26194 -2.58334 0
M  V30 2885 H 271.172 -4.01316 -3.74482 0
M  V30 2886 H 271.433 -2.27669 -3.78971 0
M  V30 2887 N 270.492 0.636531 -1.44174 0
M  V30 2888 C 271.44 1.76995 -1.50915 0
M  V30 2889 C 272.434 1.65053 -0.381295 0
M  V30 2890 O 273.64 1.71197 -0.55601 0
M  V30 2891 H 270.015 0.584247 -0.473455 0
M  V30 2892 H 271.986 1.68432 -2.4632 0
M  V30 2893 C 270.735 3.15314 -1.46534 0
M  V30 2894 H 270.058 3.25149 -2.32633 0
M  V30 2895 H 271.498 3.9453 -1.55312 0
M  V30 2896 C 269.957 3.3639 -0.185305 0
M  V30 2897 O 270.487 3.94699 0.746688 0
M  V30 2898 N 268.693 2.9046 -0.0901606 0
M  V30 2899 H 268.24 2.43193 -0.849416 0
M  V30 2900 H 268.198 3.04937 0.765553 0
M  V30 2901 N 271.97 1.30982 0.876444 0
M  V30 2902 C 272.933 1.18054 1.96459 0
M  V30 2903 C 273.933 0.109399 1.60427 0
M  V30 2904 O 275.123 0.358173 1.70478 0
M  V30 2905 C 272.255 0.810616 3.31122 0
M  V30 2906 H 273.448 2.14735 2.09354 0
M  V30 2907 H 271.001 1.145 1.06392 0
M  V30 2908 H 271.736 -0.155322 3.23928 0
M  V30 2909 H 271.521 1.58481 3.58645 0
M  V30 2910 H 273.011 0.743876 4.10921 0
M  V30 2911 N 273.449 -1.08991 1.13837 0
M  V30 2912 C 274.695 -1.81526 0.90422 0
M  V30 2913 C 275.028 -1.85706 -0.568066 0
M  V30 2914 O 274.303 -1.32855 -1.42056 0
M  V30 2915 C 274.586 -3.27447 1.49835 0
M  V30 2916 C 274.439 -3.31512 3.04006 0
M  V30 2917 C 275.758 -4.24256 1.17025 0
M  V30 2918 H 272.877 -0.659029 0.329923 0
M  V30 2919 H 275.519 -1.27644 1.40737 0
M  V30 2920 H 273.669 -3.73462 1.07044 0
M  V30 2921 H 275.341 -2.93867 3.55584 0
M  V30 2922 H 273.584 -2.70963 3.38765 0
M  V30 2923 H 274.255 -4.34329 3.40679 0
M  V30 2924 H 276.731 -3.86549 1.54009 0
M  V30 2925 H 275.607 -5.24684 1.61237 0
M  V30 2926 H 275.868 -4.42019 0.0846274 0
M  V30 2927 N 274.927 -0.932562 -1.27047 0
M  V30 2928 C 276.204 -0.49377 -1.89265 0
M  V30 2929 C 276.584 1.02833 -1.8436 0
M  V30 2930 O 275.932 1.88461 -1.29209 0
M  V30 2931 C 276.142 -1.04536 -3.32976 0
M  V30 2932 C 277.49 -1.10879 -4.09867 0
M  V30 2933 O 278.514 -0.995327 -3.42011 0
M  V30 2934 O 277.373 -1.28417 -5.31198 0
M  V30 2935 H 274.467 -0.159596 -0.811454 0
M  V30 2936 H 277.013 -1.02457 -1.3528 0
M  V30 2937 H 275.785 -2.08913 -3.30864 0
M  V30 2938 H 275.408 -0.496494 -3.94488 0
M  V30 2939 N 276.405 1.4127 -0.698611 0
M  V30 2940 C 277.63 2.06024 -0.238512 0
M  V30 2941 C 278.055 1.5224 1.10475 0
M  V30 2942 O 277.413 0.650623 1.69223 0
M  V30 2943 C 277.461 3.59988 -0.209952 0
M  V30 2944 O 276.565 4.04282 0.814235 0
M  V30 2945 H 275.906 0.653829 -0.115775 0
M  V30 2946 H 278.436 1.8098 -0.954326 0
M  V30 2947 H 278.446 4.07979 -0.0418436 0
M  V30 2948 H 277.121 3.98503 -1.1903 0
M  V30 2949 H 275.698 3.6779 0.615234 0
M  V30 2950 N 277.883 0.443576 1.51229 0
M  V30 2951 C 278.793 -0.370721 2.31652 0
M  V30 2952 C 279.809 -1.02186 1.40833 0
M  V30 2953 O 280.985 -1.01586 1.73903 0
M  V30 2954 C 278.05 -1.45376 3.14749 0
M  V30 2955 C 277.111 -0.822099 4.21355 0
M  V30 2956 C 276.344 -1.85353 5.0048 0
M  V30 2957 O 276.567 -3.07656 4.80316 0
M  V30 2958 O 275.501 -1.4406 5.84406 0
M  V30 2959 H 279.327 0.286002 3.0235 0
M  V30 2960 H 276.912 0.20598 1.47973 0
M  V30 2961 H 278.794 -2.08173 3.66391 0
M  V30 2962 H 277.469 -2.09445 2.46809 0
M  V30 2963 H 276.376 -0.155909 3.73775 0
M  V30 2964 H 277.709 -0.224797 4.91686 0
M  V30 2965 N 279.361 -1.56624 0.175154 0
M  V30 2966 C 280.311 -2.14747 -0.766004 0
M  V30 2967 C 281.295 -1.08275 -1.19018 0
M  V30 2968 O 282.487 -1.34388 -1.15191 0
M  V30 2969 C 279.616 -2.79478 -1.99366 0
M  V30 2970 C 278.702 -3.93114 -1.5913 0
M  V30 2971 N 279.093 -4.97752 -0.89872 0
M  V30 2972 C 277.391 -4.04345 -1.88204 0
M  V30 2973 C 278.092 -5.77473 -0.700012 0
M  V30 2974 N 277.068 -5.29207 -1.24263 0
M  V30 2975 H 280.87 -2.93015 -0.22793 0
M  V30 2976 H 278.384 -1.6238 -0.0253843 0
M  V30 2977 H 280.381 -3.19498 -2.67818 0
M  V30 2978 H 279.041 -2.02692 -2.53665 0
M  V30 2979 H 280.052 -5.14903 -0.556347 0
M  V30 2980 H 276.729 -3.38667 -2.44153 0
M  V30 2981 H 278.119 -6.71728 -0.152047 0
M  V30 2982 N 280.839 0.0985539 -1.57292 0
M  V30 2983 C 281.749 1.13824 -2.05137 0
M  V30 2984 C 282.765 1.44076 -0.975604 0
M  V30 2985 O 283.941 1.54786 -1.28853 0
M  V30 2986 C 281.006 2.43969 -2.46333 0
M  V30 2987 C 280.067 2.2093 -3.68087 0
M  V30 2988 C 279.3 3.44869 -4.0731 0
M  V30 2989 O 279.523 4.52972 -3.46659 0
M  V30 2990 O 278.457 3.34661 -5.00285 0
M  V30 2991 H 282.283 0.761881 -2.93988 0
M  V30 2992 H 279.868 0.310818 -1.46131 0
M  V30 2993 H 281.75 3.20609 -2.73473 0
M  V30 2994 H 280.425 2.81038 -1.60621 0
M  V30 2995 H 279.332 1.42081 -3.46069 0
M  V30 2996 H 280.665 1.88755 -4.54568 0
M  V30 2997 N 282.317 1.53212 0.369288 0
M  V30 2998 C 283.264 1.79388 1.45219 0
M  V30 2999 C 284.234 0.638059 1.53356 0
M  V30 3000 O 285.419 0.879852 1.69302 0
M  V30 3001 C 282.559 1.98623 2.82211 0
M  V30 3002 C 281.672 3.26337 2.8307 0
M  V30 3003 C 280.807 3.35779 4.11614 0
M  V30 3004 C 279.846 4.5754 4.06601 0
M  V30 3005 N 278.983 4.64155 5.26787 0
M  V30 3006 H 283.823 2.71794 1.22198 0
M  V30 3007 H 281.36 1.34642 0.592444 0
M  V30 3008 H 283.318 2.07761 3.61789 0
M  V30 3009 H 281.948 1.09558 3.03639 0
M  V30 3010 H 281 3.26171 1.95747 0
M  V30 3011 H 282.312 4.15988 2.75237 0
M  V30 3012 H 281.466 3.44208 4.99606 0
M  V30 3013 H 280.205 2.44137 4.22195 0
M  V30 3014 H 279.21 4.49215 3.16996 0
M  V30 3015 H 280.435 5.50519 3.97625 0
M  V30 3016 H 278.381 3.75413 5.3796 0
M  V30 3017 H 278.298 5.47706 5.21109 0
M  V30 3018 H 279.566 4.76863 6.16621 0
M  V30 3019 N 283.795 -0.628877 1.44509 0
M  V30 3020 C 284.743 -1.76193 1.51852 0
M  V30 3021 C 285.737 -1.64849 0.390042 0
M  V30 3022 O 286.943 -1.709 0.565082 0
M  V30 3023 H 283.318 -0.581728 0.476547 0
M  V30 3024 H 285.289 -1.67123 2.47209 0
M  V30 3025 C 284.038 -3.14533 1.48204 0
M  V30 3026 H 283.361 -3.23911 2.34354 0
M  V30 3027 H 284.801 -3.93701 1.57402 0
M  V30 3028 C 283.26 -3.36287 0.203142 0
M  V30 3029 O 283.79 -3.9509 -0.725745 0
M  V30 3030 N 281.996 -2.90408 0.105563 0
M  V30 3031 H 281.543 -2.42739 0.862301 0
M  V30 3032 H 281.501 -3.05339 -0.749371 0
M  V30 3033 N 285.273 -1.31445 -0.869486 0
M  V30 3034 C 286.519 -1.21337 -1.62496 0
M  V30 3035 C 286.852 0.227872 -1.92858 0
M  V30 3036 O 286.127 1.16094 -1.56053 0
M  V30 3037 C 286.41 -2.05814 -2.95487 0
M  V30 3038 C 286.263 -3.5824 -2.72 0
M  V30 3039 C 287.582 -1.9079 -3.96594 0
M  V30 3040 H 284.701 -0.442135 -0.589649 0
M  V30 3041 H 287.343 -1.6124 -1.00507 0
M  V30 3042 H 285.493 -1.71913 -3.48394 0
M  V30 3043 H 287.165 -4.0228 -2.25762 0
M  V30 3044 H 285.408 -3.81647 -2.06224 0
M  V30 3045 H 286.079 -4.12657 -3.66631 0
M  V30 3046 H 288.555 -2.20459 -3.52898 0
M  V30 3047 H 287.431 -2.52199 -4.87531 0
M  V30 3048 H 287.692 -0.871341 -4.33428 0
M  V30 3049 N 286.751 1.08385 -1.14413 0
M  V30 3050 C 287.684 2.14642 -0.774871 0
M  V30 3051 C 288.662 1.60761 0.243876 0
M  V30 3052 O 289.846 1.88031 0.132883 0
M  V30 3053 C 286.973 3.38366 -0.150491 0
M  V30 3054 C 286.019 4.10997 -1.13945 0
M  V30 3055 S 286.852 4.63797 -2.67679 0
M  V30 3056 C 288.008 5.90808 -2.06631 0
M  V30 3057 H 288.241 2.45633 -1.67487 0
M  V30 3058 H 285.774 1.20498 -0.96538 0
M  V30 3059 H 287.732 4.09996 0.203334 0
M  V30 3060 H 286.393 3.05572 0.72694 0
M  V30 3061 H 285.586 4.99783 -0.65059 0
M  V30 3062 H 285.188 3.4528 -1.43727 0
M  V30 3063 H 287.48 6.62411 -1.4219 0
M  V30 3064 H 288.423 6.4439 -2.93542 0
M  V30 3065 H 288.831 5.4383 -1.51357 0
M  V30 3066 N 288.23 0.939286 1.26551 0
M  V30 3067 C 289.178 0.43815 2.28436 0
M  V30 3068 C 290.172 -0.483587 1.62351 0
M  V30 3069 O 291.378 -0.362009 1.76322 0
M  V30 3070 H 287.753 0.123149 0.741848 0
M  V30 3071 H 289.724 1.31002 2.68106 0
M  V30 3072 C 288.473 -0.283052 3.46546 0
M  V30 3073 H 287.796 0.417043 3.97619 0
M  V30 3074 H 289.236 -0.597948 4.19763 0
M  V30 3075 C 287.695 -1.50018 3.01656 0
M  V30 3076 O 288.225 -2.59855 3.0633 0
M  V30 3077 N 286.431 -1.35608 2.57019 0
M  V30 3078 H 285.978 -0.46244 2.53415 0
M  V30 3079 H 285.936 -2.17165 2.27347 0
M  V30 3080 N 289.708 -1.40897 0.706093 0
M  V30 3081 C 290.985 -1.94868 0.169099 0
M  V30 3082 C 291.365 -1.64485 -1.32318 0
M  V30 3083 O 290.713 -0.95744 -2.07474 0
M  V30 3084 C 290.923 -3.45798 0.471654 0
M  V30 3085 C 292.271 -4.22663 0.405127 0
M  V30 3086 O 293.295 -3.53865 0.407168 0
M  V30 3087 O 292.154 -5.45216 0.374383 0
M  V30 3088 H 289.248 -0.82673 0.0211352 0
M  V30 3089 H 291.794 -1.50558 0.782976 0
M  V30 3090 H 290.566 -3.61235 1.50416 0
M  V30 3091 H 290.189 -3.97225 -0.172666 0
M  V30 3092 N 291.186 -0.45159 -1.50991 0
M  V30 3093 C 292.149 0.341117 -2.26647 0
M  V30 3094 C 293.149 0.937422 -1.30649 0
M  V30 3095 O 294.339 0.809644 -1.54241 0
M  V30 3096 C 291.471 1.48398 -3.06905 0
M  V30 3097 H 292.664 -0.322117 -2.98165 0
M  V30 3098 H 290.217 -0.205122 -1.54948 0
M  V30 3099 H 290.952 2.18284 -2.39838 0
M  V30 3100 H 290.737 1.06241 -3.77432 0
M  V30 3101 H 292.227 2.04367 -3.64176 0
M  V30 3102 N 292.664 1.56529 -0.183458 0
M  V30 3103 C 293.91 1.98304 0.452466 0
M  V30 3104 C 294.265 1.06799 1.60037 0
M  V30 3105 O 293.558 0.110049 1.91284 0
M  V30 3106 C 293.752 3.43939 0.971637 0
M  V30 3107 C 293.581 4.49528 -0.124425 0
M  V30 3108 C 292.351 5.01981 -0.578168 0
M  V30 3109 C 294.549 5.05836 -0.929207 0
M  V30 3110 N 292.531 5.91219 -1.65327 0
M  V30 3111 C 293.902 5.91632 -1.85396 0
M  V30 3112 C 295.957 4.88302 -0.972929 0
M  V30 3113 C 294.66 6.61768 -2.81878 0
M  V30 3114 C 296.686 5.59168 -1.92574 0
M  V30 3115 C 296.048 6.44701 -2.83795 0
M  V30 3116 H 292.147 0.770551 0.133324 0
M  V30 3117 H 294.731 1.92581 -0.286473 0
M  V30 3118 H 292.902 3.50184 1.68006 0
M  V30 3119 H 294.634 3.72702 1.5772 0
M  V30 3120 H 291.389 4.73282 -0.173639 0
M  V30 3121 H 291.813 6.40543 -2.19167 0
M  V30 3122 H 296.455 4.21861 -0.28168 0
M  V30 3123 H 294.173 7.27415 -3.51984 0
M  V30 3124 H 297.759 5.47582 -1.96583 0
M  V30 3125 H 296.639 6.98573 -3.56322 0
M  V30 3126 N 294.142 -0.090211 1.57342 0
M  V30 3127 C 295.558 -0.444547 1.53284 0
M  V30 3128 C 295.758 -1.80238 0.900914 0
M  V30 3129 O 294.814 -2.4759 0.495513 0
M  V30 3130 C 296.127 -0.402543 2.97993 0
M  V30 3131 C 297.675 -0.48405 3.09234 0
M  V30 3132 C 298.15 -0.472144 4.5556 0
M  V30 3133 N 299.641 -0.532757 4.60126 0
M  V30 3134 C 300.376 -0.545462 5.708 0
M  V30 3135 N 299.872 -0.514082 6.9089 0
M  V30 3136 N 301.665 -0.59064 5.58988 0
M  V30 3137 H 293.816 0.799121 1.96794 0
M  V30 3138 H 296.079 0.297965 0.899956 0
M  V30 3139 H 295.785 0.528106 3.47712 0
M  V30 3140 H 295.659 -1.21969 3.56936 0
M  V30 3141 H 298.046 -1.40512 2.595 0
M  V30 3142 H 298.127 0.361328 2.53235 0
M  V30 3143 H 297.771 0.445 5.05947 0
M  V30 3144 H 297.701 -1.3348 5.09402 0
M  V30 3145 H 300.192 -0.562006 3.73698 0
M  V30 3146 H 300.505 -0.527195 7.71 0
M  V30 3147 H 298.85 -0.481054 6.93333 0
M  V30 3148 H 302.041 -0.61272 4.64073 0
M  V30 3149 H 302.214 -0.597073 6.45243 0
M  V30 3150 N 295.62 -1.53406 -0.361157 0
M  V30 3151 C 296.55 -1.83136 -1.44857 0
M  V30 3152 C 297.531 -0.685174 -1.5569 0
M  V30 3153 O 298.716 -0.93544 -1.70186 0
M  V30 3154 C 295.846 -2.02522 -2.82138 0
M  V30 3155 C 294.8 -3.18302 -2.86126 0
M  V30 3156 C 294.126 -3.22989 -4.26125 0
M  V30 3157 C 295.426 -4.56796 -2.53248 0
M  V30 3158 H 297.12 -2.74201 -1.20226 0
M  V30 3159 H 294.666 -1.31938 -0.576922 0
M  V30 3160 H 296.619 -2.21904 -3.58241 0
M  V30 3161 H 295.343 -1.08172 -3.08166 0
M  V30 3162 H 294.002 -2.98747 -2.12475 0
M  V30 3163 H 293.65 -2.26267 -4.49235 0
M  V30 3164 H 293.35 -4.00781 -4.29708 0
M  V30 3165 H 294.874 -3.44559 -5.04094 0
M  V30 3166 H 296.288 -4.7631 -3.19064 0
M  V30 3167 H 294.685 -5.36862 -2.68141 0
M  V30 3168 H 295.755 -4.61606 -1.48484 0
M  V30 3169 N 297.098 0.621204 -1.44841 0
M  V30 3170 C 298.345 1.38055 -1.48145 0
M  V30 3171 C 298.673 1.94143 -0.117867 0
M  V30 3172 O 297.928 1.74713 0.881694 0
M  V30 3173 C 298.227 2.55675 -2.4973 0
M  V30 3174 C 297.893 2.17817 -3.94799 0
M  V30 3175 C 296.555 2.07205 -4.34303 0
M  V30 3176 C 298.907 1.88065 -4.86087 0
M  V30 3177 C 296.235 1.65045 -5.63007 0
M  V30 3178 C 298.587 1.47394 -6.15189 0
M  V30 3179 C 297.251 1.35331 -6.53637 0
M  V30 3180 H 296.521 0.505181 -0.542101 0
M  V30 3181 H 299.168 0.703477 -1.78111 0
M  V30 3182 H 297.473 3.2866 -2.13284 0
M  V30 3183 H 299.17 3.13904 -2.4953 0
M  V30 3184 H 295.76 2.26998 -3.63552 0
M  V30 3185 H 299.944 1.95168 -4.56315 0
M  V30 3186 H 295.2 1.54317 -5.91605 0
M  V30 3187 H 299.374 1.23415 -6.85377 0
M  V30 3188 H 297.001 1.02435 -7.53267 0
M  V30 3189 N 298.576 1.31904 0.862503 0
M  V30 3190 C 299.508 1.16005 1.97675 0
M  V30 3191 C 300.521 0.0971234 1.6251 0
M  V30 3192 O 301.71 0.345337 1.75128 0
M  V30 3193 C 298.81 0.751791 3.30456 0
M  V30 3194 C 297.983 1.90133 3.93914 0
M  V30 3195 C 297.042 1.4779 5.05019 0
M  V30 3196 O 296.068 2.18872 5.25437 0
M  V30 3197 N 297.27 0.369491 5.79323 0
M  V30 3198 H 300.035 2.11982 2.11857 0
M  V30 3199 H 297.596 1.24337 1.03691 0
M  V30 3200 H 299.588 0.451084 4.02178 0
M  V30 3201 H 298.158 -0.116593 3.12382 0
M  V30 3202 H 297.378 2.36896 3.15078 0
M  V30 3203 H 298.666 2.67111 4.33047 0
M  V30 3204 H 298.064 -0.222299 5.65263 0
M  V30 3205 H 296.621 0.128354 6.51674 0
M  V30 3206 N 300.054 -1.07777 1.14986 0
M  V30 3207 C 300.984 -2.16865 0.865557 0
M  V30 3208 C 301.965 -1.69123 -0.182083 0
M  V30 3209 O 303.15 -1.94164 -0.0373815 0
M  V30 3210 C 300.28 -3.45539 0.349313 0
M  V30 3211 C 299.234 -4.06708 1.33313 0
M  V30 3212 C 298.56 -5.30411 0.675918 0
M  V30 3213 C 299.86 -4.47241 2.69764 0
M  V30 3214 H 301.554 -2.40905 1.77778 0
M  V30 3215 H 299.1 -1.15781 0.856203 0
M  V30 3216 H 301.053 -4.21174 0.137983 0
M  V30 3217 H 299.777 -3.21072 -0.598362 0
M  V30 3218 H 298.436 -3.33112 1.53075 0
M  V30 3219 H 298.084 -5.02232 -0.277767 0
M  V30 3220 H 297.784 -5.72293 1.33244 0
M  V30 3221 H 299.308 -6.08755 0.474262 0
M  V30 3222 H 300.722 -5.14025 2.53873 0
M  V30 3223 H 299.119 -5.00062 3.3175 0
M  V30 3224 H 300.189 -3.58818 3.26156 0
M  V30 3225 N 301.532 -0.945985 -1.26051 0
M  V30 3226 C 302.442 -0.465633 -2.29933 0
M  V30 3227 C 303.458 0.462761 -1.67733 0
M  V30 3228 O 304.634 0.341118 -1.9849 0
M  V30 3229 C 301.699 0.256994 -3.45746 0
M  V30 3230 C 300.76 -0.708549 -4.23412 0
M  V30 3231 C 299.993 -0.0203135 -5.33696 0
M  V30 3232 O 300.216 1.19571 -5.57726 0
M  V30 3233 O 299.15 -0.701459 -5.97799 0
M  V30 3234 H 302.976 -1.32866 -2.73094 0
M  V30 3235 H 300.561 -0.712071 -1.31339 0
M  V30 3236 H 302.443 0.663852 -4.16138 0
M  V30 3237 H 301.118 1.09533 -3.04605 0
M  V30 3238 H 300.025 -1.16545 -3.55483 0
M  V30 3239 H 301.358 -1.51465 -4.68315 0
M  V30 3240 N 303.011 1.40521 -0.713556 0
M  V30 3241 C 303.958 2.30723 -0.059684 0
M  V30 3242 C 304.928 1.48079 0.752448 0
M  V30 3243 O 306.113 1.76823 0.71681 0
M  V30 3244 C 303.253 3.34274 0.857594 0
M  V30 3245 C 302.366 4.31986 0.0351536 0
M  V30 3246 C 301.501 5.22605 0.951724 0
M  V30 3247 C 300.54 6.11976 0.123253 0
M  V30 3248 N 299.677 6.9502 0.99459 0
M  V30 3249 H 304.517 2.86074 -0.834596 0
M  V30 3250 H 302.054 1.40879 -0.42326 0
M  V30 3251 H 304.012 3.92879 1.40364 0
M  V30 3252 H 302.642 2.8043 1.59871 0
M  V30 3253 H 301.694 3.7518 -0.628052 0
M  V30 3254 H 303.006 4.95101 -0.606347 0
M  V30 3255 H 302.16 5.86131 1.56638 0
M  V30 3256 H 300.899 4.59759 1.62705 0
M  V30 3257 H 299.904 5.47482 -0.50435 0
M  V30 3258 H 301.129 6.76881 -0.548539 0
M  V30 3259 H 299.075 6.34764 1.6556 0
M  V30 3260 H 298.992 7.54892 0.40908 0
M  V30 3261 H 300.26 7.62997 1.59549 0
M  V30 3262 N 304.489 0.459591 1.5075 0
M  V30 3263 C 305.452 -0.329093 2.26825 0
M  V30 3264 C 306.452 -0.930481 1.31144 0
M  V30 3265 O 307.642 -0.801453 1.54669 0
M  V30 3266 C 304.774 -1.46768 3.07688 0
M  V30 3267 H 305.967 0.337924 2.9799 0
M  V30 3268 H 303.52 0.213336 1.54837 0
M  V30 3269 H 304.255 -2.17009 2.40993 0
M  V30 3270 H 304.04 -1.04238 3.77991 0
M  V30 3271 H 305.53 -2.02433 3.65254 0
M  V30 3272 N 305.967 -1.56429 0.191757 0
M  V30 3273 C 307.195 -2.01867 -0.453586 0
M  V30 3274 C 307.61 -1.07191 -1.5542 0
M  V30 3275 O 306.967 -0.0762108 -1.82341 0
M  V30 3276 C 307.018 -3.47017 -1.013 0
M  V30 3277 O 306.739 -4.38078 0.0437005 0
M  V30 3278 C 308.24 -4.07956 -1.73456 0
M  V30 3279 H 305.46 -0.661211 -0.114199 0
M  V30 3280 H 308.004 -2.02295 0.299483 0
M  V30 3281 H 306.159 -3.47298 -1.71647 0
M  V30 3282 H 306.573 -5.23178 -0.372212 0
M  V30 3283 H 308.047 -5.1138 -2.07833 0
M  V30 3284 H 308.524 -3.51222 -2.63704 0
M  V30 3285 H 309.13 -4.11437 -1.07702 0
M  V30 3286 N 307.445 0.0818655 -1.57387 0
M  V30 3287 C 308.693 0.781368 -1.86384 0
M  V30 3288 C 309.014 1.78618 -0.782342 0
M  V30 3289 O 308.284 1.94976 0.190061 0
M  V30 3290 H 306.864 0.291562 -0.687751 0
M  V30 3291 H 309.526 0.060348 -1.94807 0
M  V30 3292 H 308.622 1.3038 -2.83562 0
M  V30 3293 N 308.923 1.53595 0.353017 0
M  V30 3294 C 309.871 1.81605 1.45335 0
M  V30 3295 C 310.865 0.685923 1.54892 0
M  V30 3296 O 312.071 0.869095 1.57628 0
M  V30 3297 H 308.446 0.575204 0.484401 0
M  V30 3298 H 310.417 2.73679 1.18921 0
M  V30 3299 C 309.166 2.03406 2.81995 0
M  V30 3300 H 308.489 2.89814 2.75405 0
M  V30 3301 H 309.929 2.26975 3.58132 0
M  V30 3302 C 308.388 0.816794 3.26849 0
M  V30 3303 O 308.918 0.0115856 4.01698 0
M  V30 3304 N 307.124 0.636682 2.8354 0
M  V30 3305 H 306.671 1.2931 2.22793 0
M  V30 3306 H 306.629 -0.176336 3.13905 0
M  V30 3307 N 310.401 -0.613514 1.45168 0
M  V30 3308 C 311.812 -1.19539 1.43413 0
M  V30 3309 C 312.163 -1.95558 0.158632 0
M  V30 3310 O 311.288 -2.0335 -0.740119 0
M  V30 3311 C 311.883 -2.17445 2.59813 0
M  V30 3312 C 310.442 -2.71022 2.61197 0
M  V30 3313 C 309.589 -1.46323 2.35552 0
M  V30 3314 H 312.54 -0.403163 1.53494 0
M  V30 3315 H 312.561 -3.00373 2.33574 0
M  V30 3316 H 312.073 -1.62089 3.52631 0
M  V30 3317 H 310.174 -3.30332 1.7237 0
M  V30 3318 H 310.287 -3.15859 3.60236 0
M  V30 3319 H 308.651 -1.75072 1.84992 0
M  V30 3320 H 309.434 -0.92844 3.30507 0
M  V30 3321 N 311.879 -1.3236 -0.855495 0
M  V30 3322 C 312.826 -1.21225 -1.964 0
M  V30 3323 C 313.796 -0.0946204 -1.6583 0
M  V30 3324 O 314.981 -0.27002 -1.8888 0
M  V30 3325 C 312.121 -0.940419 -3.32039 0
M  V30 3326 C 311.234 -2.14276 -3.75113 0
M  V30 3327 C 310.369 -1.80648 -4.9954 0
M  V30 3328 C 309.408 -2.97208 -5.35102 0
M  V30 3329 N 308.545 -2.63678 -6.50706 0
M  V30 3330 H 313.385 -2.16042 -2.05255 0
M  V30 3331 H 310.922 -1.07451 -1.00463 0
M  V30 3332 H 312.88 -0.763311 -4.10158 0
M  V30 3333 H 311.51 -0.0290413 -3.22787 0
M  V30 3334 H 310.562 -2.43017 -2.92655 0
M  V30 3335 H 311.874 -3.01468 -3.97389 0
M  V30 3336 H 311.028 -1.59484 -5.85363 0
M  V30 3337 H 309.767 -0.906678 -4.79198 0
M  V30 3338 H 308.772 -3.19004 -4.47791 0
M  V30 3339 H 309.997 -3.87918 -5.57401 0
M  V30 3340 H 307.943 -1.76238 -6.31883 0
M  V30 3341 H 307.86 -3.444 -6.72997 0
M  V30 3342 H 309.128 -2.45942 -7.39684 0
M  V30 3343 N 313.357 1.07166 -1.15556 0
M  V30 3344 C 314.307 2.12649 -0.82247 0
M  V30 3345 C 315.291 1.59725 0.194129 0
M  V30 3346 O 316.483 1.76999 -0.00540402 0
M  V30 3347 C 313.612 3.41847 -0.315572 0
M  V30 3348 C 312.698 4.0162 -1.36244 0
M  V30 3349 N 313.089 4.35625 -2.5703 0
M  V30 3350 C 311.387 4.29114 -1.21562 0
M  V30 3351 C 312.088 4.83017 -3.24144 0
M  V30 3352 N 311.064 4.81906 -2.51531 0
M  V30 3353 H 314.866 2.36776 -1.74111 0
M  V30 3354 H 312.38 1.24622 -1.0413 0
M  V30 3355 H 314.377 4.16859 -0.0585855 0
M  V30 3356 H 313.037 3.19163 0.597105 0
M  V30 3357 H 314.048 4.26253 -2.94158 0
M  V30 3358 H 310.725 4.15919 -0.362988 0
M  V30 3359 H 312.115 5.18605 -4.27198 0
M  V30 3360 N 314.835 0.952656 1.25548 0
M  V30 3361 C 316.246 0.647392 1.75116 0
M  V30 3362 C 316.597 -0.837274 1.77438 0
M  V30 3363 O 315.722 -1.65525 1.39393 0
M  V30 3364 C 316.317 1.16845 3.18014 0
M  V30 3365 C 314.876 0.913382 3.6515 0
M  V30 3366 C 314.023 1.31265 2.44264 0
M  V30 3367 H 316.974 1.12968 1.11462 0
M  V30 3368 H 316.995 0.527606 3.76824 0
M  V30 3369 H 316.507 2.24902 3.16292 0
M  V30 3370 H 314.608 -0.152316 3.72289 0
M  V30 3371 H 314.721 1.54845 4.53387 0
M  V30 3372 H 313.085 0.731028 2.43984 0
M  V30 3373 H 313.868 2.40239 2.45234 0
M  V30 3374 N 316.313 -1.40141 0.720998 0
M  V30 3375 C 317.56 -2.00787 0.262842 0
M  V30 3376 C 317.888 -1.5718 -1.14563 0
M  V30 3377 O 317.143 -0.785391 -1.79249 0
M  V30 3378 C 317.442 -3.56165 0.296892 0
M  V30 3379 C 317.108 -4.19373 1.65641 0
M  V30 3380 C 315.77 -4.36352 2.02855 0
M  V30 3381 C 318.122 -4.54578 2.54968 0
M  V30 3382 C 315.45 -4.8582 3.28931 0
M  V30 3383 C 317.802 -5.05447 3.80402 0
M  V30 3384 C 316.466 -5.20635 4.17726 0
M  V30 3385 H 315.736 -0.734731 0.0961807 0
M  V30 3386 H 318.383 -1.67673 0.925093 0
M  V30 3387 H 316.688 -3.8922 -0.448932 0
M  V30 3388 H 318.385 -4.00929 -0.0755208 0
M  V30 3389 H 314.975 -4.06549 1.35704 0
M  V30 3390 H 319.159 -4.41091 2.27491 0
M  V30 3391 H 314.415 -4.95764 3.57811 0
M  V30 3392 H 318.589 -5.31663 4.49786 0
M  V30 3393 H 316.216 -5.58728 5.15487 0
M  V30 3394 N 317.792 -0.46758 -1.50504 0
M  V30 3395 C 319.017 0.0886943 -2.0721 0
M  V30 3396 C 319.442 1.33057 -1.32956 0
M  V30 3397 O 318.8 1.77354 -0.376197 0
M  V30 3398 C 318.848 0.359202 -3.58806 0
M  V30 3399 O 317.952 1.44034 -3.8643 0
M  V30 3400 H 317.293 -0.0114349 -0.663902 0
M  V30 3401 H 319.823 -0.657613 -1.93744 0
M  V30 3402 H 319.833 0.600742 -4.03553 0
M  V30 3403 H 318.508 -0.548311 -4.1227 0
M  V30 3404 H 317.085 1.18638 -3.53524 0
M  V30 3405 N 319.27 1.56325 -0.20005 0
M  V30 3406 C 320.217 2.1932 0.718833 0
M  V30 3407 C 321.187 1.14198 1.20615 0
M  V30 3408 O 322.372 1.42469 1.26914 0
M  V30 3409 C 319.512 2.86041 1.93066 0
M  V30 3410 C 318.625 4.05702 1.48425 0
M  V30 3411 C 317.76 4.60266 2.65196 0
M  V30 3412 C 316.799 5.72273 2.17185 0
M  V30 3413 N 315.936 6.21221 3.27152 0
M  V30 3414 H 320.776 2.97486 0.17489 0
M  V30 3415 H 318.313 1.46911 0.0745794 0
M  V30 3416 H 320.271 3.22897 2.64184 0
M  V30 3417 H 318.901 2.1043 2.44783 0
M  V30 3418 H 317.953 3.74475 0.668755 0
M  V30 3419 H 319.265 4.86699 1.09204 0
M  V30 3420 H 318.419 4.99453 3.4443 0
M  V30 3421 H 317.158 3.78386 3.07693 0
M  V30 3422 H 316.163 5.3261 1.36407 0
M  V30 3423 H 317.388 6.55974 1.75713 0
M  V30 3424 H 315.334 5.42263 3.69171 0
M  V30 3425 H 315.251 6.97284 2.92116 0
M  V30 3426 H 316.519 6.65063 4.06585 0
M  V30 3427 N 320.748 -0.0735177 1.57428 0
M  V30 3428 C 321.995 -0.772999 1.87166 0
M  V30 3429 C 322.323 -1.77665 0.791551 0
M  V30 3430 O 321.578 -1.94541 -0.212636 0
M  V30 3431 C 321.877 -1.51799 3.23561 0
M  V30 3432 C 321.543 -0.654484 4.46125 0
M  V30 3433 C 320.205 -0.416511 4.79394 0
M  V30 3434 C 322.557 -0.0555862 5.2117 0
M  V30 3435 C 319.885 0.429869 5.85123 0
M  V30 3436 C 322.237 0.778239 6.27795 0
M  V30 3437 C 320.901 1.0261 6.59566 0
M  V30 3438 H 320.171 -0.282861 0.684888 0
M  V30 3439 H 322.818 -0.0338272 1.9147 0
M  V30 3440 H 321.123 -2.32932 3.1504 0
M  V30 3441 H 322.82 -2.06397 3.43804 0
M  V30 3442 H 319.41 -0.850091 4.20085 0
M  V30 3443 H 323.594 -0.226558 4.95783 0
M  V30 3444 H 318.85 0.630665 6.08139 0
M  V30 3445 H 323.024 1.24906 6.85107 0
M  V30 3446 H 320.651 1.68371 7.4132 0
M  V30 3447 N 322.226 -1.5378 -0.344866 0
M  V30 3448 C 323.474 -1.70625 -1.08311 0
M  V30 3449 C 323.795 -0.471447 -1.89215 0
M  V30 3450 O 323.065 0.514616 -1.8902 0
M  V30 3451 H 321.645 -0.629058 -0.402859 0
M  V30 3452 H 324.307 -1.9103 -0.386459 0
M  V30 3453 H 323.403 -2.57656 -1.76124 0
M  V30 3454 N 323.704 0.605807 -1.45491 0
M  V30 3455 C 324.932 1.39136 -1.5313 0
M  V30 3456 C 325.347 1.88082 -0.164507 0
M  V30 3457 O 324.704 1.62316 0.834247 0
M  V30 3458 C 324.755 2.59463 -2.51716 0
M  V30 3459 O 324.476 2.12551 -3.83084 0
M  V30 3460 C 325.977 3.52301 -2.6907 0
M  V30 3461 H 323.197 0.425849 -0.51855 0
M  V30 3462 H 325.741 0.73865 -1.90694 0
M  V30 3463 H 323.896 3.20772 -2.17219 0
M  V30 3464 H 324.31 2.90744 -4.36541 0
M  V30 3465 H 325.784 4.33271 -3.42024 0
M  V30 3466 H 326.261 4.02757 -1.75167 0
M  V30 3467 H 326.867 2.96845 -3.04571 0
M  V30 3468 N 325.182 1.32811 0.848464 0
M  V30 3469 C 326.43 1.23479 1.59991 0
M  V30 3470 C 326.751 -0.201853 1.93952 0
M  V30 3471 O 326.021 -1.12818 1.60153 0
M  V30 3472 H 324.601 0.454034 0.593179 0
M  V30 3473 H 327.263 1.66412 1.01455 0
M  V30 3474 H 326.359 1.82178 2.53412 0
M  V30 3475 N 326.66 -1.06551 1.16123 0
M  V30 3476 C 327.608 -2.16063 0.861371 0
M  V30 3477 C 328.602 -1.6856 -0.168517 0
M  V30 3478 O 329.808 -1.79986 -0.0227579 0
M  V30 3479 H 326.183 -0.705278 0.260934 0
M  V30 3480 H 328.154 -2.38567 1.79244 0
M  V30 3481 C 326.903 -3.45661 0.376018 0
M  V30 3482 H 326.226 -3.82604 1.15992 0
M  V30 3483 H 327.666 -4.23504 0.204951 0
M  V30 3484 C 326.125 -3.24546 -0.903954 0
M  V30 3485 O 326.655 -3.49865 -1.97377 0
M  V30 3486 N 324.861 -2.77992 -0.846679 0
M  V30 3487 H 324.408 -2.57589 0.0241017 0
M  V30 3488 H 324.366 -2.64244 -1.70359 0
M  V30 3489 N 328.138 -0.959301 -1.25041 0
M  V30 3490 C 329.085 -0.482057 -2.2571 0
M  V30 3491 C 330.055 0.467939 -1.59372 0
M  V30 3492 O 331.24 0.380159 -1.86974 0
M  V30 3493 C 328.38 0.229623 -3.44335 0
M  V30 3494 C 327.493 -0.758156 -4.25295 0
M  V30 3495 C 326.628 -0.0234403 -5.31195 0
M  V30 3496 C 325.667 -1.00184 -6.03846 0
M  V30 3497 N 324.804 -0.29769 -7.01469 0
M  V30 3498 H 329.644 -1.34538 -2.65901 0
M  V30 3499 H 327.181 -0.674592 -1.3072 0
M  V30 3500 H 329.139 0.658856 -4.11965 0
M  V30 3501 H 327.769 1.05696 -3.05005 0
M  V30 3502 H 326.821 -1.30586 -3.57284 0
M  V30 3503 H 328.133 -1.50458 -4.75567 0
M  V30 3504 H 327.287 0.464201 -6.04922 0
M  V30 3505 H 326.026 0.755741 -4.81809 0
M  V30 3506 H 325.031 -1.50044 -5.2893 0
M  V30 3507 H 326.256 -1.78133 -6.55321 0
M  V30 3508 H 324.202 0.462668 -6.54366 0
M  V30 3509 H 324.119 -0.983128 -7.4958 0
M  V30 3510 H 325.387 0.16826 -7.79318 0
M  V30 3511 N 329.616 1.39756 -0.72842 0
M  V30 3512 C 330.846 2.04651 -0.283117 0
M  V30 3513 C 331.254 1.5502 1.08469 0
M  V30 3514 O 330.597 0.707343 1.69536 0
M  V30 3515 C 330.659 3.58947 -0.199309 0
M  V30 3516 C 330.323 4.31525 -1.5045 0
M  V30 3517 C 331.32 4.5861 -2.44894 0
M  V30 3518 C 329.005 4.70195 -1.76698 0
M  V30 3519 C 330.999 5.23366 -3.63822 0
M  V30 3520 C 328.686 5.3468 -2.95906 0
M  V30 3521 C 329.684 5.61198 -3.89289 0
M  V30 3522 O 329.372 6.24347 -5.06404 0
M  V30 3523 H 329.104 0.664777 -0.122666 0
M  V30 3524 H 331.658 1.79913 -0.990987 0
M  V30 3525 H 329.888 3.82556 0.56461 0
M  V30 3526 H 331.577 4.0534 0.213125 0
M  V30 3527 H 332.343 4.29187 -2.25883 0
M  V30 3528 H 328.222 4.48916 -1.04859 0
M  V30 3529 H 331.766 5.4398 -4.36728 0
M  V30 3530 H 327.663 5.63524 -3.14819 0
M  V30 3531 H 328.431 6.42842 -5.06652 0
M  V30 3532 N 331.094 0.475555 1.50254 0
M  V30 3533 C 332.322 -0.0754493 2.06762 0
M  V30 3534 C 332.737 -1.33111 1.33891 0
M  V30 3535 O 332.094 -1.77846 0.40952 0
M  V30 3536 C 332.145 -0.359008 3.59713 0
M  V30 3537 O 331.866 0.846851 4.29837 0
M  V30 3538 C 333.367 -0.956484 4.32858 0
M  V30 3539 H 330.587 0.00907525 0.670939 0
M  V30 3540 H 333.131 0.665618 1.93364 0
M  V30 3541 H 331.286 -1.05001 3.72899 0
M  V30 3542 H 331.7 0.594162 5.21124 0
M  V30 3543 H 333.174 -1.10463 5.40834 0
M  V30 3544 H 333.651 -1.94775 3.93649 0
M  V30 3545 H 334.257 -0.303723 4.24214 0
M  V30 3546 N 332.573 -1.56217 0.208337 0
M  V30 3547 C 333.503 -2.22694 -0.702116 0
M  V30 3548 C 334.484 -1.19432 -1.2112 0
M  V30 3549 O 335.669 -1.47978 -1.25762 0
M  V30 3550 C 332.799 -2.8966 -1.9161 0
M  V30 3551 C 331.753 -3.9928 -1.5414 0
M  V30 3552 C 331.079 -4.53476 -2.83308 0
M  V30 3553 C 332.379 -5.17012 -0.741339 0
M  V30 3554 H 334.073 -2.99034 -0.147898 0
M  V30 3555 H 331.619 -1.43831 -0.0696951 0
M  V30 3556 H 333.572 -3.34852 -2.55836 0
M  V30 3557 H 332.296 -2.10746 -2.49507 0
M  V30 3558 H 330.955 -3.54799 -0.922668 0
M  V30 3559 H 330.603 -3.71308 -3.39322 0
M  V30 3560 H 330.303 -5.27451 -2.58976 0
M  V30 3561 H 331.827 -5.01378 -3.485 0
M  V30 3562 H 333.241 -5.58667 -1.28699 0
M  V30 3563 H 331.638 -5.97137 -0.595627 0
M  V30 3564 H 332.708 -4.8423 0.254851 0
M  V30 3565 N 334.051 0.0651679 -1.57465 0
M  V30 3566 C 334.961 1.09448 -2.07505 0
M  V30 3567 C 335.977 1.41974 -1.00595 0
M  V30 3568 O 337.153 1.52018 -1.32107 0
M  V30 3569 C 334.218 2.38689 -2.51453 0
M  V30 3570 C 333.279 2.13073 -3.72691 0
M  V30 3571 C 332.512 3.36152 -4.14533 0
M  V30 3572 O 332.735 4.45517 -3.56189 0
M  V30 3573 O 331.669 3.23974 -5.07272 0
M  V30 3574 H 335.495 0.69935 -2.95538 0
M  V30 3575 H 333.08 0.279752 -1.46757 0
M  V30 3576 H 334.962 3.14736 -2.80212 0
M  V30 3577 H 333.637 2.77568 -1.66546 0
M  V30 3578 H 332.544 1.34709 -3.49005 0
M  V30 3579 H 333.877 1.79071 -4.5847 0
M  V30 3580 N 335.529 1.53961 0.336706 0
M  V30 3581 C 336.757 1.75483 1.09605 0
M  V30 3582 C 337.172 0.4972 1.82136 0
M  V30 3583 O 336.529 -0.53149 1.74589 0
M  V30 3584 C 336.58 2.93943 2.10428 0
M  V30 3585 O 336.301 4.14842 1.40846 0
M  V30 3586 C 337.802 3.27571 2.98684 0
M  V30 3587 H 335.022 0.586166 0.326574 0
M  V30 3588 H 337.566 2.00808 0.38683 0
M  V30 3589 H 335.721 2.70929 2.76905 0
M  V30 3590 H 336.135 4.81383 2.08255 0
M  V30 3591 H 337.609 4.13791 3.6535 0
M  V30 3592 H 338.086 2.44168 3.65074 0
M  V30 3593 H 338.692 3.52615 2.37787 0
M  V30 3594 N 337.007 -0.598083 1.45811 0
M  V30 3595 C 338.423 -0.919847 1.30426 0
M  V30 3596 C 338.623 -1.99759 0.264303 0
M  V30 3597 O 337.679 -2.50221 -0.338472 0
M  V30 3598 C 338.992 -1.35176 2.68603 0
M  V30 3599 C 340.54 -1.46546 2.76574 0
M  V30 3600 C 341.015 -1.9311 4.15298 0
M  V30 3601 N 342.506 -2.00328 4.1764 0
M  V30 3602 C 343.241 -2.37599 5.21856 0
M  V30 3603 N 342.737 -2.73771 6.36413 0
M  V30 3604 N 344.53 -2.38021 5.09218 0
M  V30 3605 H 336.681 0.114111 2.12093 0
M  V30 3606 H 338.944 -0.0116121 0.947929 0
M  V30 3607 H 338.65 -0.633969 3.45939 0
M  V30 3608 H 338.524 -2.3164 2.97696 0
M  V30 3609 H 340.911 -2.17415 1.99537 0
M  V30 3610 H 340.992 -0.483727 2.51185 0
M  V30 3611 H 340.636 -1.22824 4.92825 0
M  V30 3612 H 340.566 -2.92213 4.38086 0
M  V30 3613 H 343.057 -1.74925 3.34977 0
M  V30 3614 H 343.37 -3.0112 7.11721 0
M  V30 3615 H 341.715 -2.71445 6.39799 0
M  V30 3616 H 344.906 -2.09174 4.18765 0
M  V30 3617 H 345.079 -2.66741 5.90554 0
M  V30 3618 N 338.485 -1.33259 -0.841409 0
M  V30 3619 C 339.896 -1.22066 -1.41269 0
M  V30 3620 C 340.247 0.161479 -1.95534 0
M  V30 3621 O 339.372 1.06094 -1.88608 0
M  V30 3622 C 339.967 -2.20996 -2.568 0
M  V30 3623 C 338.526 -2.13649 -3.09888 0
M  V30 3624 C 337.673 -2.08623 -1.82679 0
M  V30 3625 H 340.624 -1.44895 -0.647395 0
M  V30 3626 H 340.645 -1.81621 -3.34356 0
M  V30 3627 H 340.157 -3.2158 -2.17274 0
M  V30 3628 H 338.258 -1.16359 -3.53965 0
M  V30 3629 H 338.371 -3.04079 -3.70234 0
M  V30 3630 H 336.735 -1.54061 -2.02824 0
M  V30 3631 H 337.518 -3.1101 -1.45353 0
M  V30 3632 N 339.963 1.05934 -1.16686 0
M  V30 3633 C 340.911 2.15603 -0.872817 0
M  V30 3634 C 341.905 1.68647 0.159576 0
M  V30 3635 O 343.111 1.79995 0.0132125 0
M  V30 3636 H 339.486 0.703885 -0.264671 0
M  V30 3637 H 341.457 2.37613 -1.80507 0
M  V30 3638 C 340.206 3.45457 -0.394344 0
M  V30 3639 H 339.529 3.81984 -1.18019 0
M  V30 3640 H 340.969 4.2339 -0.227408 0
M  V30 3641 C 339.428 3.25021 0.88673 0
M  V30 3642 O 339.958 3.50906 1.95519 0
M  V30 3643 N 338.164 2.78437 0.831925 0
M  V30 3644 H 337.711 2.57572 -0.0377619 0
M  V30 3645 H 337.669 2.65144 1.68956 0
M  V30 3646 N 341.441 0.965919 1.2453 0
M  V30 3647 C 342.373 0.452465 2.2469 0
M  V30 3648 C 343.386 -0.437821 1.56802 0
M  V30 3649 O 344.575 -0.244283 1.76821 0
M  V30 3650 C 341.675 -0.366258 3.36915 0
M  V30 3651 C 340.848 0.513701 4.34373 0
M  V30 3652 C 339.907 -0.248716 5.25612 0
M  V30 3653 O 338.933 0.356745 5.68081 0
M  V30 3654 N 340.135 -1.53877 5.59734 0
M  V30 3655 H 342.9 1.31361 2.69378 0
M  V30 3656 H 340.461 0.837541 1.38553 0
M  V30 3657 H 342.453 -0.884297 3.94921 0
M  V30 3658 H 341.023 -1.12832 2.91526 0
M  V30 3659 H 340.243 1.21273 3.75082 0
M  V30 3660 H 341.531 1.11391 4.96457 0
M  V30 3661 H 340.929 -2.05243 5.27154 0
M  V30 3662 H 339.486 -2.00254 6.20275 0
M  V30 3663 N 342.919 -1.39368 0.735821 0
M  V30 3664 C 343.829 -2.34395 0.0979693 0
M  V30 3665 C 344.845 -1.58361 -0.720968 0
M  V30 3666 O 346.021 -1.90648 -0.649245 0
M  V30 3667 C 343.086 -3.37393 -0.797916 0
M  V30 3668 C 342.147 -4.29287 0.0333662 0
M  V30 3669 C 341.38 -5.27365 -0.819854 0
M  V30 3670 O 341.603 -5.31959 -2.05855 0
M  V30 3671 O 340.537 -6.01389 -0.248079 0
M  V30 3672 H 344.363 -2.90601 0.882315 0
M  V30 3673 H 341.948 -1.40909 0.4965 0
M  V30 3674 H 343.83 -4.00505 -1.31048 0
M  V30 3675 H 342.505 -2.83571 -1.56106 0
M  V30 3676 H 341.412 -3.69395 0.591475 0
M  V30 3677 H 342.745 -4.86317 0.758752 0
M  V30 3678 N 344.397 -0.483516 -1.5 0
M  V30 3679 C 345.645 0.067027 -2.01989 0
M  V30 3680 C 345.966 1.3909 -1.36671 0
M  V30 3681 O 345.236 1.88978 -0.516152 0
M  V30 3682 H 343.816 0.0277606 -0.746484 0
M  V30 3683 H 346.478 -0.636773 -1.84204 0
M  V30 3684 H 345.574 0.209484 -3.11396 0
M  V30 3685 N 345.875 1.56104 -0.216619 0
M  V30 3686 C 347.124 1.97348 0.416744 0
M  V30 3687 C 347.437 1.10715 1.6125 0
M  V30 3688 O 348.643 1.41836 2.31506 0
M  V30 3689 C 347.099 3.51059 0.792835 0
M  V30 3690 C 346.707 4.46387 -0.379828 0
M  V30 3691 C 348.451 4.01026 1.39208 0
M  V30 3692 C 346.358 5.91397 0.0184223 0
M  V30 3693 H 345.288 0.736942 0.159475 0
M  V30 3694 H 347.939 1.80827 -0.31205 0
M  V30 3695 H 346.321 3.63162 1.57891 0
M  V30 3696 H 347.495 4.46029 -1.15737 0
M  V30 3697 H 345.81 4.06734 -0.891979 0
M  V30 3698 H 348.407 5.0686 1.70286 0
M  V30 3699 H 348.75 3.46587 2.30614 0
M  V30 3700 H 349.283 3.92125 0.669537 0
M  V30 3701 H 346.022 6.49807 -0.862002 0
M  V30 3702 H 345.542 5.94961 0.760384 0
M  V30 3703 H 347.221 6.45455 0.446818 0
M  V30 3704 N 347.353 -0.0568162 1.57498 0
M  V30 3705 C 348.63 -0.786954 1.79071 0
M  V30 3706 C 349.01 -1.95028 0.80792 0
M  V30 3707 O 348.358 -2.27968 -0.155858 0
M  V30 3708 C 348.568 -1.24594 3.26002 0
M  V30 3709 C 349.916 -1.67323 3.90241 0
M  V30 3710 O 350.94 -1.34124 3.29984 0
M  V30 3711 O 349.799 -2.28842 4.9628 0
M  V30 3712 H 346.893 -0.378262 0.735423 0
M  V30 3713 H 349.439 -0.035734 1.69662 0
M  V30 3714 H 348.211 -0.41423 3.89101 0
M  V30 3715 H 347.834 -2.05803 3.40192 0
M  V30 3716 N 348.832 -1.54138 -0.328536 0
M  V30 3717 C 350.078 -1.7236 -1.06865 0
M  V30 3718 C 350.411 -0.493231 -1.87832 0
M  V30 3719 O 349.686 0.5098 -1.877 0
M  V30 3720 C 349.969 -2.99621 -1.99747 0
M  V30 3721 C 349.822 -4.32899 -1.22143 0
M  V30 3722 C 351.141 -3.22615 -2.99345 0
M  V30 3723 H 348.26 -0.627151 -0.387105 0
M  V30 3724 H 350.902 -1.86827 -0.345767 0
M  V30 3725 H 349.052 -2.87418 -2.61387 0
M  V30 3726 H 350.724 -4.56978 -0.630017 0
M  V30 3727 H 348.967 -4.30628 -0.523628 0
M  V30 3728 H 349.638 -5.18154 -1.90318 0
M  V30 3729 H 352.114 -3.34248 -2.47826 0
M  V30 3730 H 350.99 -4.13027 -3.61524 0
M  V30 3731 H 351.251 -2.3961 -3.71536 0
M  V30 3732 N 350.31 0.590341 -1.46126 0
M  V30 3733 C 351.726 0.912917 -1.30912 0
M  V30 3734 C 351.926 1.99616 -0.274893 0
M  V30 3735 O 350.982 2.50397 0.325197 0
M  V30 3736 C 352.295 1.3375 -2.69317 0
M  V30 3737 C 353.843 1.45077 -2.77348 0
M  V30 3738 C 354.318 1.90904 -4.16317 0
M  V30 3739 N 355.809 1.9811 -4.18696 0
M  V30 3740 C 356.544 2.34828 -5.23109 0
M  V30 3741 N 356.04 2.70393 -6.37856 0
M  V30 3742 N 357.833 2.35317 -5.10473 0
M  V30 3743 H 349.984 -0.125358 -2.1203 0
M  V30 3744 H 352.247 0.00658481 -0.947977 0
M  V30 3745 H 351.953 0.615614 -3.4627 0
M  V30 3746 H 351.827 2.30058 -2.9892 0
M  V30 3747 H 354.214 2.16353 -2.00687 0
M  V30 3748 H 354.295 0.4704 -2.51438 0
M  V30 3749 H 353.939 1.20209 -4.9347 0
M  V30 3750 H 353.869 2.89886 -4.39629 0
M  V30 3751 H 356.36 1.73146 -3.359 0
M  V30 3752 H 356.673 2.97341 -7.13308 0
M  V30 3753 H 355.018 2.68048 -6.41229 0
M  V30 3754 H 358.209 2.0695 -4.19868 0
M  V30 3755 H 358.382 2.63605 -5.9196 0
M  V30 3756 N 351.788 1.33704 0.83433 0
M  V30 3757 C 352.72 1.20172 1.9517 0
M  V30 3758 C 353.733 0.131572 1.62267 0
M  V30 3759 O 354.922 0.382406 1.74356 0
M  V30 3760 C 352.022 0.821716 3.28787 0
M  V30 3761 C 351.195 1.98446 3.89792 0
M  V30 3762 C 350.254 1.58469 5.01771 0
M  V30 3763 O 349.28 2.29968 5.20676 0
M  V30 3764 N 350.482 0.492291 5.78409 0
M  V30 3765 H 353.247 2.16429 2.07313 0
M  V30 3766 H 350.808 1.26509 1.0103 0
M  V30 3767 H 352.8 0.536291 4.01131 0
M  V30 3768 H 351.37 -0.0503058 3.1256 0
M  V30 3769 H 350.59 2.43526 3.09982 0
M  V30 3770 H 351.878 2.76236 4.27283 0
M  V30 3771 H 351.276 -0.102349 5.65607 0
M  V30 3772 H 349.833 0.266555 6.51255 0
M  V30 3773 N 353.266 -1.05314 1.17247 0
M  V30 3774 C 354.176 -2.16538 0.90268 0
M  V30 3775 C 355.192 -1.73523 -0.128707 0
M  V30 3776 O 356.368 -2.01337 0.0502701 0
M  V30 3777 C 353.433 -3.44167 0.418356 0
M  V30 3778 C 352.494 -4.01635 1.51618 0
M  V30 3779 C 351.727 -5.23171 1.05487 0
M  V30 3780 O 351.95 -5.70327 -0.0914715 0
M  V30 3781 O 350.884 -5.72848 1.8474 0
M  V30 3782 H 354.71 -2.42145 1.83302 0
M  V30 3783 H 352.295 -1.15037 0.953246 0
M  V30 3784 H 354.177 -4.21112 0.155726 0
M  V30 3785 H 352.852 -3.20063 -0.48385 0
M  V30 3786 H 351.759 -3.26135 1.83268 0
M  V30 3787 H 353.092 -4.30053 2.39405 0
M  V30 3788 N 354.744 -0.972509 -1.24016 0
M  V30 3789 C 355.674 -0.525548 -2.27509 0
M  V30 3790 C 356.655 0.437262 -1.64384 0
M  V30 3791 O 357.84 0.332343 -1.91335 0
M  V30 3792 C 354.97 0.180448 -3.46831 0
M  V30 3793 C 353.924 -0.698859 -4.22256 0
M  V30 3794 C 353.25 0.138903 -5.3452 0
M  V30 3795 C 354.55 -1.98582 -4.83076 0
M  V30 3796 H 356.244 -1.39058 -2.65148 0
M  V30 3797 H 353.79 -0.67009 -1.27459 0
M  V30 3798 H 355.743 0.504387 -4.18371 0
M  V30 3799 H 354.467 1.07987 -3.08231 0
M  V30 3800 H 353.126 -1.00614 -3.52523 0
M  V30 3801 H 352.774 1.03862 -4.9216 0
M  V30 3802 H 352.474 -0.446259 -5.85903 0
M  V30 3803 H 353.998 0.457404 -6.08884 0
M  V30 3804 H 355.412 -1.72715 -5.46665 0
M  V30 3805 H 353.809 -2.5181 -5.44713 0
M  V30 3806 H 354.879 -2.67769 -4.04262 0
M  V30 3807 N 356.222 1.38976 -0.743202 0
M  V30 3808 C 357.152 2.33171 -0.123873 0
M  V30 3809 C 358.133 1.54336 0.71516 0
M  V30 3810 O 359.318 1.82696 0.658467 0
M  V30 3811 C 356.448 3.38474 0.777978 0
M  V30 3812 C 355.402 4.27979 0.0424758 0
M  V30 3813 C 354.728 5.2405 1.06189 0
M  V30 3814 C 356.028 5.10155 -1.1198 0
M  V30 3815 H 357.722 2.85213 -0.910709 0
M  V30 3816 H 355.268 1.37133 -0.439388 0
M  V30 3817 H 357.221 4.03328 1.22084 0
M  V30 3818 H 355.945 2.84891 1.59702 0
M  V30 3819 H 354.604 3.64616 -0.380853 0
M  V30 3820 H 354.252 4.66758 1.87472 0
M  V30 3821 H 353.952 5.84785 0.574485 0
M  V30 3822 H 355.476 5.9178 1.50428 0
M  V30 3823 H 356.89 5.68307 -0.75499 0
M  V30 3824 H 355.287 5.80073 -1.53738 0
M  V30 3825 H 356.357 4.44504 -1.93764 0
M  V30 3826 N 357.7 0.491464 1.49741 0
M  V30 3827 C 358.647 -0.292027 2.28945 0
M  V30 3828 C 359.617 -0.968973 1.34908 0
M  V30 3829 O 360.802 -0.97748 1.6386 0
M  V30 3830 C 357.942 -1.35617 3.17336 0
M  V30 3831 C 357.055 -0.691957 4.26422 0
M  V30 3832 C 356.19 -1.73572 5.02042 0
M  V30 3833 C 355.229 -1.05286 6.02977 0
M  V30 3834 N 354.366 -2.0404 6.71798 0
M  V30 3835 H 359.206 0.389654 2.95442 0
M  V30 3836 H 356.743 0.204003 1.45679 0
M  V30 3837 H 358.701 -1.98502 3.66951 0
M  V30 3838 H 357.331 -2.00674 2.52844 0
M  V30 3839 H 356.383 0.0499523 3.80367 0
M  V30 3840 H 357.695 -0.153946 4.98562 0
M  V30 3841 H 356.849 -2.43987 5.55478 0
M  V30 3842 H 355.588 -2.30757 4.29654 0
M  V30 3843 H 354.593 -0.334446 5.48782 0
M  V30 3844 H 355.818 -0.487636 6.77347 0
M  V30 3845 H 353.764 -2.60205 6.02187 0
M  V30 3846 H 353.681 -1.55279 7.39881 0
M  V30 3847 H 354.949 -2.73772 7.29842 0
M  V30 3848 N 359.178 -1.55987 0.224894 0
M  V30 3849 C 360.425 -1.9839 -0.4059 0
M  V30 3850 C 360.753 -1.11261 -1.59535 0
M  V30 3851 O 360.008 -0.158314 -1.95059 0
M  V30 3852 C 360.307 -3.46394 -0.880106 0
M  V30 3853 C 359.973 -4.5046 0.19918 0
M  V30 3854 C 358.635 -4.7864 0.495661 0
M  V30 3855 C 360.987 -5.12855 0.928939 0
M  V30 3856 C 358.315 -5.66497 1.52636 0
M  V30 3857 C 360.667 -6.01828 1.949 0
M  V30 3858 C 359.331 -6.28351 2.25236 0
M  V30 3859 H 358.601 -0.725961 -0.148529 0
M  V30 3860 H 361.248 -1.88668 0.328113 0
M  V30 3861 H 359.553 -3.53337 -1.69294 0
M  V30 3862 H 361.25 -3.76577 -1.37808 0
M  V30 3863 H 357.84 -4.28579 -0.0420526 0
M  V30 3864 H 362.024 -4.9115 0.713129 0
M  V30 3865 H 357.28 -5.8531 1.76698 0
M  V30 3866 H 361.454 -6.49225 2.51951 0
M  V30 3867 H 359.081 -6.96226 3.05244 0
M  V30 3868 N 360.656 0.0484629 -1.57525 0
M  V30 3869 C 361.606 1.06246 -2.01732 0
M  V30 3870 C 362.59 1.33155 -0.903245 0
M  V30 3871 O 363.782 1.33065 -1.16717 0
M  V30 3872 C 360.911 2.36943 -2.48421 0
M  V30 3873 C 359.997 2.13208 -3.6661 0
M  V30 3874 N 360.388 1.5947 -4.80003 0
M  V30 3875 C 358.686 2.43581 -3.7361 0
M  V30 3876 C 359.387 1.51092 -5.61735 0
M  V30 3877 N 358.363 1.9797 -5.0627 0
M  V30 3878 H 362.165 0.640675 -2.86832 0
M  V30 3879 H 359.679 0.255134 -1.60383 0
M  V30 3880 H 361.676 3.10374 -2.78341 0
M  V30 3881 H 360.336 2.79818 -1.64718 0
M  V30 3882 H 361.347 1.28008 -5.01831 0
M  V30 3883 H 358.024 2.89662 -3.00669 0
M  V30 3884 H 359.414 1.10199 -6.62801 0
M  V30 3885 N 362.134 1.5431 0.320358 0
M  V30 3886 C 363.359 1.76954 1.08175 0
M  V30 3887 C 363.784 0.518193 1.80821 0
M  V30 3888 O 363.142 -0.530411 1.73368 0
M  V30 3889 C 363.19 2.96451 2.05303 0
M  V30 3890 O 362.294 2.68221 3.13259 0
M  V30 3891 H 361.635 0.586275 0.311733 0
M  V30 3892 H 364.165 2.01342 0.363676 0
M  V30 3893 H 364.175 3.23887 2.48116 0
M  V30 3894 H 362.85 3.87196 1.51829 0
M  V30 3895 H 361.427 2.51744 2.75099 0
M  V30 3896 N 363.613 -0.582584 1.46437 0
M  V30 3897 C 364.576 -1.67366 1.56592 0
M  V30 3898 C 365.576 -1.54575 0.443072 0
M  V30 3899 O 366.766 -1.59191 0.707381 0
M  V30 3900 C 363.898 -3.06791 1.48634 0
M  V30 3901 H 365.091 -1.5972 2.5383 0
M  V30 3902 H 362.644 -0.800432 1.34249 0
M  V30 3903 H 363.379 -3.19993 0.526763 0
M  V30 3904 H 363.164 -3.17484 2.30101 0
M  V30 3905 H 364.654 -3.86218 1.58826 0
M  V30 3906 N 365.091 -1.34144 -0.827227 0
M  V30 3907 C 366.321 -1.29138 -1.61267 0
M  V30 3908 C 366.729 0.137597 -1.88699 0
M  V30 3909 O 366.072 1.09379 -1.47587 0
M  V30 3910 C 366.134 -2.0097 -2.9808 0
M  V30 3911 C 365.798 -3.50242 -2.93563 0
M  V30 3912 C 366.795 -4.4523 -2.68452 0
M  V30 3913 C 364.48 -3.92592 -3.13331 0
M  V30 3914 C 366.474 -5.80542 -2.63154 0
M  V30 3915 C 364.161 -5.28005 -3.07658 0
M  V30 3916 C 365.159 -6.21792 -2.82602 0
M  V30 3917 O 364.847 -7.54723 -2.76853 0
M  V30 3918 H 364.579 -0.445851 -0.508127 0
M  V30 3919 H 367.133 -1.77263 -1.03763 0
M  V30 3920 H 365.363 -1.47451 -3.57484 0
M  V30 3921 H 367.052 -1.89309 -3.5905 0
M  V30 3922 H 367.818 -4.13832 -2.52919 0
M  V30 3923 H 363.697 -3.19994 -3.31851 0
M  V30 3924 H 367.241 -6.53717 -2.43516 0
M  V30 3925 H 363.138 -5.59023 -3.22743 0
M  V30 3926 H 363.906 -7.64409 -2.92611 0
M  V30 3927 N 366.569 1.04691 -1.17803 0
M  V30 3928 C 367.799 1.81183 -0.992788 0
M  V30 3929 C 368.207 1.8347 0.462098 0
M  V30 3930 O 367.55 1.2643 1.33271 0
M  V30 3931 C 367.612 3.28363 -1.46349 0
M  V30 3932 C 367.276 3.49749 -2.94151 0
M  V30 3933 C 368.273 3.41456 -3.92051 0
M  V30 3934 C 365.958 3.76548 -3.32441 0
M  V30 3935 C 367.952 3.59656 -5.26238 0
M  V30 3936 C 365.639 3.94396 -4.66792 0
M  V30 3937 C 366.637 3.8595 -5.635 0
M  V30 3938 O 366.325 4.03294 -6.9542 0
M  V30 3939 H 366.057 0.577622 -0.351182 0
M  V30 3940 H 368.611 1.32876 -1.5663 0
M  V30 3941 H 366.841 3.77609 -0.833574 0
M  V30 3942 H 368.53 3.86395 -1.24313 0
M  V30 3943 H 369.296 3.20723 -3.63815 0
M  V30 3944 H 365.175 3.82224 -2.57732 0
M  V30 3945 H 368.719 3.52979 -6.01707 0
M  V30 3946 H 364.616 4.14622 -4.94731 0
M  V30 3947 H 365.384 4.2049 -7.02232 0
M  V30 3948 N 368.047 0.979072 1.23499 0
M  V30 3949 C 369.272 0.664845 1.96455 0
M  V30 3950 C 369.697 -0.761287 1.72006 0
M  V30 3951 O 369.055 -1.51837 0.990713 0
M  V30 3952 C 369.103 0.959479 3.47601 0
M  V30 3953 O 368.207 0.0508168 4.12369 0
M  V30 3954 H 367.548 0.250185 0.615064 0
M  V30 3955 H 370.078 1.31231 1.5697 0
M  V30 3956 H 370.088 0.895642 3.98048 0
M  V30 3957 H 368.763 1.99876 3.64723 0
M  V30 3958 H 367.34 0.16895 3.72517 0
M  V30 3959 N 369.525 -1.3858 0.750561 0
M  V30 3960 C 370.75 -2.04997 0.314812 0
M  V30 3961 C 371.175 -1.56235 -1.04749 0
M  V30 3962 O 370.533 -0.712981 -1.66692 0
M  V30 3963 C 370.581 -3.58961 0.343415 0
M  V30 3964 O 369.685 -4.07025 -0.663628 0
M  V30 3965 H 369.026 -0.649081 0.139962 0
M  V30 3966 H 371.556 -1.77313 1.02084 0
M  V30 3967 H 371.566 -4.07542 0.193233 0
M  V30 3968 H 370.241 -3.93811 1.33738 0
M  V30 3969 H 368.818 -3.6982 -0.478307 0
M  V30 3970 N 371.003 -0.499398 -1.49478 0
M  V30 3971 C 371.951 0.293604 -2.3074 0
M  V30 3972 C 372.945 0.96427 -1.39277 0
M  V30 3973 O 374.151 0.892141 -1.56336 0
M  V30 3974 H 370.526 0.113541 -0.743379 0
M  V30 3975 H 372.497 -0.411772 -2.95545 0
M  V30 3976 C 371.246 1.3462 -3.20582 0
M  V30 3977 H 370.569 0.83954 -3.90886 0
M  V30 3978 H 372.009 1.87308 -3.80384 0
M  V30 3979 C 370.468 2.36351 -2.40083 0
M  V30 3980 O 370.998 3.422 -2.10385 0
M  V30 3981 N 369.204 2.0878 -2.02137 0
M  V30 3982 H 368.751 1.22723 -2.26488 0
M  V30 3983 H 368.709 2.77075 -1.48583 0
M  V30 3984 N 372.481 1.55866 -0.233164 0
M  V30 3985 C 373.411 2.23783 0.666599 0
M  V30 3986 C 374.392 1.21343 1.19205 0
M  V30 3987 O 375.577 1.4996 1.23392 0
M  V30 3988 C 372.707 2.92671 1.86978 0
M  V30 3989 C 371.661 4.01682 1.47768 0
M  V30 3990 C 370.987 4.57926 2.76058 0
M  V30 3991 C 372.287 5.18126 0.658993 0
M  V30 3992 H 373.981 2.99232 0.100306 0
M  V30 3993 H 371.527 1.43924 0.046804 0
M  V30 3994 H 373.48 3.3888 2.50476 0
M  V30 3995 H 372.204 2.14688 2.46123 0
M  V30 3996 H 370.863 3.56222 0.866106 0
M  V30 3997 H 370.511 3.76659 3.33372 0
M  V30 3998 H 370.211 5.31505 2.50552 0
M  V30 3999 H 371.735 5.06859 3.40479 0
M  V30 4000 H 373.149 5.60644 1.19795 0
M  V30 4001 H 371.546 5.98009 0.500552 0
M  V30 4002 H 372.616 4.83763 -0.331856 0
M  V30 4003 N 373.959 -0.0401083 1.57549 0
M  V30 4004 C 374.892 -1.07689 2.01192 0
M  V30 4005 C 375.87 -1.358 0.894273 0
M  V30 4006 O 377.054 -1.48642 1.15921 0
M  V30 4007 C 374.181 -2.41418 2.3756 0
M  V30 4008 C 373.227 -2.29237 3.59656 0
M  V30 4009 S 374.06 -1.65628 5.09242 0
M  V30 4010 C 375.216 -3.0087 5.48843 0
M  V30 4011 H 375.449 -0.705108 2.88817 0
M  V30 4012 H 372.982 -0.249724 1.52367 0
M  V30 4013 H 374.94 -3.18329 2.59186 0
M  V30 4014 H 373.601 -2.75747 1.50407 0
M  V30 4015 H 372.794 -3.27932 3.82722 0
M  V30 4016 H 372.396 -1.60469 3.37825 0
M  V30 4017 H 374.688 -3.97201 5.48851 0
M  V30 4018 H 375.631 -2.82549 6.49286 0
M  V30 4019 H 376.039 -3.02934 4.76331 0
M  V30 4020 N 375.437 -1.54477 -0.31217 0
M  V30 4021 C 376.4 -1.83923 -1.36766 0
M  V30 4022 C 377.4 -0.711563 -1.44199 0
M  V30 4023 O 378.59 -0.979866 -1.44029 0
M  V30 4024 C 375.722 -2.0095 -2.75376 0
M  V30 4025 H 376.915 -2.78239 -1.11906 0
M  V30 4026 H 374.468 -1.46369 -0.548257 0
M  V30 4027 H 375.203 -1.08883 -3.05475 0
M  V30 4028 H 374.988 -2.83018 -2.71373 0
M  V30 4029 H 376.478 -2.2514 -3.51713 0
M  V30 4030 N 376.915 0.57481 -1.46744 0
M  V30 4031 C 378.161 1.3347 -1.52688 0
M  V30 4032 C 378.494 1.93353 -0.181229 0
M  V30 4033 O 377.769 1.76912 0.808237 0
M  V30 4034 C 378.052 2.45811 -2.63152 0
M  V30 4035 C 377.905 1.90912 -4.07275 0
M  V30 4036 C 379.224 3.47822 -2.69644 0
M  V30 4037 H 376.343 0.483935 -0.555856 0
M  V30 4038 H 378.985 0.644968 -1.78718 0
M  V30 4039 H 377.135 3.04646 -2.41088 0
M  V30 4040 H 378.807 1.36473 -4.4065 0
M  V30 4041 H 377.05 1.21691 -4.16382 0
M  V30 4042 H 377.721 2.72042 -4.80309 0
M  V30 4043 H 380.197 2.9888 -2.895 0
M  V30 4044 H 379.073 4.23876 -3.48742 0
M  V30 4045 H 379.334 4.05555 -1.76005 0
M  V30 4046 N 378.394 1.34581 0.820102 0
M  V30 4047 C 379.634 1.28448 1.58998 0
M  V30 4048 C 379.998 -0.142883 1.91468 0
M  V30 4049 O 381.199 -0.328422 2.66786 0
M  V30 4050 C 379.47 2.153 2.85273 0
M  V30 4051 S 381.029 2.26548 3.75794 0
M  V30 4052 H 377.847 0.456685 0.54494 0
M  V30 4053 H 380.449 1.69825 0.968487 0
M  V30 4054 H 379.153 3.18008 2.59421 0
M  V30 4055 H 378.684 1.7483 3.52417 0
M  V30 4056 H 380.699 1.44034 4.74835 0
M  V30 4057 N 379.872 -1.04064 1.18357 0
M  V30 4058 C 381.118 -1.77528 0.980397 0
M  V30 4059 C 381.451 -1.87948 -0.48879 0
M  V30 4060 O 380.726 -1.3876 -1.36293 0
M  V30 4061 C 381.009 -3.20797 1.63588 0
M  V30 4062 C 380.862 -3.1832 3.17793 0
M  V30 4063 C 382.181 -4.18911 1.34914 0
M  V30 4064 H 379.3 -0.644443 0.357578 0
M  V30 4065 H 381.942 -1.2156 1.46024 0
M  V30 4066 H 380.092 -3.68586 1.22788 0
M  V30 4067 H 381.764 -2.78521 3.67728 0
M  V30 4068 H 380.007 -2.56351 3.49952 0
M  V30 4069 H 380.678 -4.19489 3.58794 0
M  V30 4070 H 383.154 -3.7967 1.70265 0
M  V30 4071 H 382.03 -5.17374 1.83346 0
M  V30 4072 H 382.291 -4.41262 0.272027 0
M  V30 4073 N 381.35 -0.985608 -1.22978 0
M  V30 4074 C 382.28 -0.549649 -2.26939 0
M  V30 4075 C 383.261 0.419803 -1.64838 0
M  V30 4076 O 384.446 0.31203 -1.91677 0
M  V30 4077 C 381.576 0.143652 -3.47003 0
M  V30 4078 C 380.53 -0.743606 -4.21491 0
M  V30 4079 C 379.856 0.0822027 -5.34637 0
M  V30 4080 C 381.156 -2.03694 -4.80943 0
M  V30 4081 H 382.85 -1.41862 -2.63658 0
M  V30 4082 H 380.396 -0.683571 -1.26741 0
M  V30 4083 H 382.349 0.459985 -4.18882 0
M  V30 4084 H 381.073 1.04711 -3.09359 0
M  V30 4085 H 379.732 -1.04347 -3.51436 0
M  V30 4086 H 379.38 0.986359 -4.93234 0
M  V30 4087 H 379.08 -0.508377 -5.85397 0
M  V30 4088 H 380.604 0.392797 -6.09335 0
M  V30 4089 H 382.018 -1.78504 -5.44802 0
M  V30 4090 H 380.415 -2.57573 -5.42011 0
M  V30 4091 H 381.485 -2.72042 -4.01399 0
M  V30 4092 N 382.828 1.3818 -0.7579 0
M  V30 4093 C 384.076 1.99624 -0.315361 0
M  V30 4094 C 384.397 1.60464 1.10799 0
M  V30 4095 O 383.667 0.863507 1.75842 0
M  V30 4096 H 382.247 0.73831 -0.113611 0
M  V30 4097 H 384.909 1.68878 -0.972952 0
M  V30 4098 H 384.005 3.09754 -0.381931 0
M  V30 4099 N 384.306 0.507319 1.49211 0
M  V30 4100 C 385.722 0.163682 1.58758 0
M  V30 4101 C 385.922 -1.33208 1.51188 0
M  V30 4102 O 384.978 -2.10855 1.38911 0
M  V30 4103 C 386.291 0.746095 2.91297 0
M  V30 4104 C 387.839 0.712773 3.04776 0
M  V30 4105 C 388.314 1.27336 4.39943 0
M  V30 4106 N 389.805 1.23433 4.46451 0
M  V30 4107 C 390.54 1.63821 5.495 0
M  V30 4108 N 390.036 2.11832 6.5962 0
M  V30 4109 N 391.829 1.55198 5.4025 0
M  V30 4110 H 383.98 1.47972 1.52375 0
M  V30 4111 H 386.243 0.614147 0.722168 0
M  V30 4112 H 385.949 1.79534 3.02424 0
M  V30 4113 H 385.823 0.210137 3.76614 0
M  V30 4114 H 388.21 -0.327656 2.93275 0
M  V30 4115 H 388.291 1.28595 2.21127 0
M  V30 4116 H 387.935 2.3126 4.52196 0
M  V30 4117 H 387.865 0.676066 5.22242 0
M  V30 4118 H 390.356 0.882627 3.67448 0
M  V30 4119 H 390.669 2.40703 7.34358 0
M  V30 4120 H 389.014 2.1581 6.60644 0
M  V30 4121 H 392.205 1.17505 4.53112 0
M  V30 4122 H 392.378 1.86997 6.20432 0
M  V30 4123 N 385.784 -1.5574 0.241426 0
M  V30 4124 C 386.694 -2.2479 -0.671305 0
M  V30 4125 C 387.71 -1.26217 -1.19772 0
M  V30 4126 O 388.886 -1.59079 -1.23514 0
M  V30 4127 C 385.951 -2.92966 -1.85396 0
M  V30 4128 C 385.012 -4.06935 -1.36756 0
M  V30 4129 C 384.245 -4.71851 -2.49384 0
M  V30 4130 O 384.468 -4.35823 -3.67987 0
M  V30 4131 O 383.402 -5.60467 -2.19454 0
M  V30 4132 H 387.228 -3.0349 -0.112966 0
M  V30 4133 H 384.813 -1.49397 0.0101513 0
M  V30 4134 H 386.695 -3.35927 -2.54423 0
M  V30 4135 H 385.37 -2.17211 -2.40002 0
M  V30 4136 H 384.277 -3.68503 -0.644726 0
M  V30 4137 H 385.61 -4.84492 -0.867647 0
M  V30 4138 N 387.262 0.0317525 -1.57568 0
M  V30 4139 C 388.487 0.738664 -1.938 0
M  V30 4140 C 388.912 1.68242 -0.841208 0
M  V30 4141 O 388.27 1.80157 0.203267 0
M  V30 4142 C 388.318 1.47417 -3.29091 0
M  V30 4143 O 387.422 2.5872 -3.2115 0
M  V30 4144 H 386.763 0.198856 -0.633524 0
M  V30 4145 H 389.293 -0.0119713 -2.04596 0
M  V30 4146 H 389.303 1.84468 -3.63917 0
M  V30 4147 H 387.978 0.781988 -4.08482 0
M  V30 4148 H 386.555 2.24231 -2.97951 0
M  V30 4149 N 388.74 1.54641 0.303973 0
M  V30 4150 C 389.67 1.88386 1.3796 0
M  V30 4151 C 390.651 0.742485 1.5304 0
M  V30 4152 O 391.836 0.997959 1.66597 0
M  V30 4153 C 388.966 2.12854 2.74427 0
M  V30 4154 C 387.92 3.28702 2.74115 0
M  V30 4155 C 387.246 3.38582 4.13844 0
M  V30 4156 C 388.546 4.65881 2.3612 0
M  V30 4157 H 390.24 2.78474 1.09966 0
M  V30 4158 H 387.786 1.33988 0.527556 0
M  V30 4159 H 389.739 2.35047 3.49758 0
M  V30 4160 H 388.463 1.19535 3.03939 0
M  V30 4161 H 387.122 3.06428 2.0124 0
M  V30 4162 H 386.77 2.42784 4.40528 0
M  V30 4163 H 386.47 4.16453 4.14537 0
M  V30 4164 H 387.994 3.63031 4.90959 0
M  V30 4165 H 389.408 4.87823 3.01167 0
M  V30 4166 H 387.805 5.46444 2.48031 0
M  V30 4167 H 388.875 4.66799 1.3125 0
M  V30 4168 N 390.218 -0.567019 1.47046 0
M  V30 4169 C 391.495 -1.3276 1.43646 0
M  V30 4170 C 391.875 -2.1071 0.128186 0
M  V30 4171 O 391.223 -2.10441 -0.890326 0
M  V30 4172 C 391.433 -2.2404 2.67595 0
M  V30 4173 C 392.781 -2.85372 3.14401 0
M  V30 4174 O 393.805 -2.34346 2.68254 0
M  V30 4175 O 392.664 -3.78091 3.946 0
M  V30 4176 H 389.758 -0.597293 0.571988 0
M  V30 4177 H 392.304 -0.586735 1.59234 0
M  V30 4178 H 391.076 -1.65975 3.54356 0
M  V30 4179 H 390.699 -3.05439 2.54544 0
M  V30 4180 N 391.696 -1.35014 -0.812953 0
M  V30 4181 C 392.973 -1.18502 -1.55617 0
M  V30 4182 C 393.353 0.238421 -2.09749 0
M  V30 4183 O 392.701 1.2411 -1.91857 0
M  V30 4184 C 392.911 -2.24783 -2.66971 0
M  V30 4185 C 394.259 -2.60268 -3.35478 0
M  V30 4186 O 395.283 -2.23648 -2.77236 0
M  V30 4187 O 394.142 -3.2321 -4.40678 0
M  V30 4188 H 391.236 -0.459984 -0.687272 0
M  V30 4189 H 393.782 -1.46677 -0.853464 0
M  V30 4190 H 392.554 -3.20284 -2.24798 0
M  V30 4191 H 392.177 -1.97841 -3.44884 0
M  V30 4192 N 393.175 1.03435 -1.18907 0
M  V30 4193 C 394.105 2.13503 -0.945448 0
M  V30 4194 C 395.086 1.69682 0.119189 0
M  V30 4195 O 396.271 1.94169 -0.034707 0
M  V30 4196 C 393.401 3.44004 -0.477316 0
M  V30 4197 C 392.355 4.0148 -1.48316 0
M  V30 4198 C 391.681 5.27537 -0.872311 0
M  V30 4199 C 392.981 4.36921 -2.86177 0
M  V30 4200 H 394.675 2.34141 -1.86597 0
M  V30 4201 H 392.221 1.12523 -0.898584 0
M  V30 4202 H 394.174 4.20372 -0.294204 0
M  V30 4203 H 392.898 3.23072 0.478786 0
M  V30 4204 H 391.557 3.27201 -1.65332 0
M  V30 4205 H 391.205 5.02917 0.0911752 0
M  V30 4206 H 390.905 5.66954 -1.54393 0
M  V30 4207 H 392.429 6.06576 -0.699871 0
M  V30 4208 H 393.843 5.04248 -2.72776 0
M  V30 4209 H 392.24 4.87405 -3.50081 0
M  V30 4210 H 393.31 3.46466 -3.39248 0
M  V30 4211 N 394.653 0.992116 1.22453 0
M  V30 4212 C 395.881 0.685944 1.95198 0
M  V30 4213 C 396.296 -0.749233 1.73297 0
M  V30 4214 O 395.653 -1.50549 1.03156 0
M  V30 4215 C 395.704 0.981395 3.47924 0
M  V30 4216 O 395.425 2.36018 3.6909 0
M  V30 4217 C 396.926 0.692815 4.37853 0
M  V30 4218 H 394.146 0.253821 0.621141 0
M  V30 4219 H 396.69 1.32668 1.55626 0
M  V30 4220 H 394.845 0.386481 3.85467 0
M  V30 4221 H 395.259 2.45884 4.63294 0
M  V30 4222 H 396.733 0.949818 5.43767 0
M  V30 4223 H 397.21 -0.373181 4.37612 0
M  V30 4224 H 397.816 1.26874 4.05935 0
M  V30 4225 N 396.131 -1.37776 0.765217 0
M  V30 4226 C 397.079 -2.32209 0.134798 0
M  V30 4227 C 398.073 -1.54607 -0.692315 0
M  V30 4228 O 399.279 -1.70052 -0.590109 0
M  V30 4229 H 395.654 -0.751591 0.0248005 0
M  V30 4230 H 397.625 -2.8297 0.947119 0
M  V30 4231 C 396.374 -3.39841 -0.735063 0
M  V30 4232 H 395.697 -3.99654 -0.107991 0
M  V30 4233 H 397.137 -4.08296 -1.14326 0
M  V30 4234 C 395.596 -2.79378 -1.88281 0
M  V30 4235 O 396.126 -2.69608 -2.97783 0
M  V30 4236 N 394.332 -2.37016 -1.68142 0
M  V30 4237 H 393.879 -2.45162 -0.790772 0
M  V30 4238 H 393.837 -1.96905 -2.45104 0
M  V30 4239 N 397.609 -0.515225 -1.4894 0
M  V30 4240 C 398.539 0.244628 -2.32215 0
M  V30 4241 C 399.52 0.949136 -1.41157 0
M  V30 4242 O 400.705 0.937783 -1.70057 0
M  V30 4243 C 397.835 1.30096 -3.22013 0
M  V30 4244 C 396.789 0.715486 -4.21977 0
M  V30 4245 C 396.115 1.87339 -5.00808 0
M  V30 4246 C 397.415 -0.302982 -5.2142 0
M  V30 4247 H 399.109 -0.450501 -2.95991 0
M  V30 4248 H 396.655 -0.218098 -1.42339 0
M  V30 4249 H 398.608 1.84037 -3.79089 0
M  V30 4250 H 397.332 2.02547 -2.56207 0
M  V30 4251 H 395.991 0.197715 -3.66066 0
M  V30 4252 H 395.639 2.58592 -4.31438 0
M  V30 4253 H 395.339 1.48764 -5.68457 0
M  V30 4254 H 396.863 2.41686 -5.60732 0
M  V30 4255 H 398.277 0.148802 -5.73107 0
M  V30 4256 H 396.674 -0.60532 -5.97039 0
M  V30 4257 H 397.744 -1.21395 -4.69459 0
M  V30 4258 N 399.087 1.5561 -0.249682 0
M  V30 4259 C 400.333 1.99306 0.374841 0
M  V30 4260 C 400.666 1.13767 1.57387 0
M  V30 4261 O 399.941 0.201711 1.93451 0
M  V30 4262 C 400.224 3.51507 0.781986 0
M  V30 4263 C 400.077 4.4781 -0.422629 0
M  V30 4264 C 401.396 4.08884 1.62793 0
M  V30 4265 H 398.515 0.724572 0.134773 0
M  V30 4266 H 401.157 1.86719 -0.351549 0
M  V30 4267 H 399.307 3.62363 1.4009 0
M  V30 4268 H 400.979 4.48931 -1.06108 0
M  V30 4269 H 399.222 4.20518 -1.06524 0
M  V30 4270 H 399.893 5.51919 -0.0943766 0
M  V30 4271 H 402.369 4.01147 1.10547 0
M  V30 4272 H 401.245 5.1564 1.88166 0
M  V30 4273 H 401.506 3.57515 2.60068 0
M  V30 4274 N 400.565 -0.0233959 1.57583 0
M  V30 4275 C 401.811 -0.714119 1.89811 0
M  V30 4276 C 402.144 -1.74702 0.848113 0
M  V30 4277 O 401.419 -1.94023 -0.136135 0
M  V30 4278 C 401.702 -1.37853 3.32669 0
M  V30 4279 C 401.555 -0.358764 4.48367 0
M  V30 4280 C 402.874 -2.31101 3.7454 0
M  V30 4281 H 399.993 -0.25814 0.690314 0
M  V30 4282 H 402.635 0.0230927 1.89986 0
M  V30 4283 H 400.785 -2.00689 3.3265 0
M  V30 4284 H 402.457 0.268115 4.6052 0
M  V30 4285 H 400.7 0.321387 4.32608 0
M  V30 4286 H 401.371 -0.862242 5.45224 0
M  V30 4287 H 403.847 -1.78304 3.75961 0
M  V30 4288 H 402.723 -2.74567 4.75294 0
M  V30 4289 H 402.984 -3.18018 3.0711 0
M  V30 4290 N 402.043 -1.548 -0.295768 0
M  V30 4291 C 402.99 -1.86113 -1.36494 0
M  V30 4292 C 403.96 -0.7105 -1.50137 0
M  V30 4293 O 405.145 -0.959626 -1.64912 0
M  V30 4294 C 402.285 -2.11861 -2.72413 0
M  V30 4295 C 401.398 -3.39471 -2.67177 0
M  V30 4296 C 400.533 -3.55035 -3.95125 0
M  V30 4297 C 399.572 -4.76418 -3.84308 0
M  V30 4298 N 398.709 -4.8876 -5.04042 0
M  V30 4299 H 403.549 -2.77314 -1.09091 0
M  V30 4300 H 401.086 -1.37315 -0.52753 0
M  V30 4301 H 403.044 -2.24786 -3.51464 0
M  V30 4302 H 401.674 -1.2392 -2.98066 0
M  V30 4303 H 400.726 -3.35139 -1.79962 0
M  V30 4304 H 402.038 -4.28646 -2.55076 0
M  V30 4305 H 401.192 -3.67653 -4.82614 0
M  V30 4306 H 399.931 -2.64002 -4.10066 0
M  V30 4307 H 398.936 -4.63827 -2.95202 0
M  V30 4308 H 400.161 -5.68863 -3.70906 0
M  V30 4309 H 398.107 -4.00652 -5.19436 0
M  V30 4310 H 398.024 -5.71945 -4.94384 0
M  V30 4311 H 399.292 -5.0574 -5.93167 0
M  V30 4312 N 403.521 0.559213 -1.47345 0
M  V30 4313 C 404.451 1.67622 -1.62558 0
M  V30 4314 C 405.432 1.63331 -0.475087 0
M  V30 4315 O 406.617 1.80983 -0.704182 0
M  V30 4316 C 403.747 3.0626 -1.63774 0
M  V30 4317 C 402.701 3.25397 -2.7803 0
M  V30 4318 C 402.027 4.64801 -2.64318 0
M  V30 4319 C 403.327 3.10965 -4.19641 0
M  V30 4320 H 405.021 1.55146 -2.56067 0
M  V30 4321 H 402.567 0.744961 -1.23233 0
M  V30 4322 H 404.52 3.84247 -1.73008 0
M  V30 4323 H 403.244 3.1969 -0.66825 0
M  V30 4324 H 401.903 2.49817 -2.68304 0
M  V30 4325 H 401.551 4.75028 -1.65401 0
M  V30 4326 H 401.251 4.78555 -3.40968 0
M  V30 4327 H 402.775 5.44926 -2.75478 0
M  V30 4328 H 404.189 3.78772 -4.30354 0
M  V30 4329 H 402.586 3.36229 -4.97062 0
M  V30 4330 H 403.656 2.07736 -4.38148 0
M  V30 4331 N 404.999 1.35443 0.805782 0
M  V30 4332 C 406.246 1.28761 1.56291 0
M  V30 4333 C 406.574 -0.137747 1.94012 0
M  V30 4334 O 405.829 -1.1032 1.61642 0
M  V30 4335 C 406.128 2.14045 2.86216 0
M  V30 4336 C 405.794 3.62826 2.67709 0
M  V30 4337 C 404.456 4.0338 2.6237 0
M  V30 4338 C 406.808 4.57227 2.50186 0
M  V30 4339 C 404.136 5.36501 2.37451 0
M  V30 4340 C 406.488 5.90547 2.26797 0
M  V30 4341 C 405.152 6.30245 2.1988 0
M  V30 4342 H 404.422 0.471171 0.571908 0
M  V30 4343 H 407.069 1.67347 0.930974 0
M  V30 4344 H 405.374 1.68342 3.53791 0
M  V30 4345 H 407.071 2.0621 3.43917 0
M  V30 4346 H 403.661 3.30644 2.72713 0
M  V30 4347 H 407.845 4.2678 2.53323 0
M  V30 4348 H 403.101 5.66259 2.30567 0
M  V30 4349 H 407.275 6.63274 2.12228 0
M  V30 4350 H 404.902 7.33328 2.00333 0
M  V30 4351 N 406.477 -1.02803 1.19454 0
M  V30 4352 C 407.702 -1.80378 1.02364 0
M  V30 4353 C 408.127 -1.83282 -0.423007 0
M  V30 4354 O 407.485 -1.25945 -1.30413 0
M  V30 4355 C 407.533 -3.23248 1.59821 0
M  V30 4356 O 406.637 -4.04 0.828105 0
M  V30 4357 H 405.978 -0.556799 0.361761 0
M  V30 4358 H 408.508 -1.29385 1.58495 0
M  V30 4359 H 408.518 -3.73994 1.63073 0
M  V30 4360 H 407.193 -3.2045 2.65113 0
M  V30 4361 H 405.77 -3.62635 0.86891 0
M  V30 4362 N 407.956 -0.998596 -1.21925 0
M  V30 4363 C 408.866 -0.562736 -2.27751 0
M  V30 4364 C 409.882 0.391203 -1.69545 0
M  V30 4365 O 411.058 0.256625 -1.99758 0
M  V30 4366 C 408.123 0.11012 -3.46525 0
M  V30 4367 C 407.184 -0.887495 -4.20026 0
M  V30 4368 C 406.417 -0.246654 -5.3313 0
M  V30 4369 O 406.64 0.958088 -5.62296 0
M  V30 4370 O 405.574 -0.954374 -5.94286 0
M  V30 4371 H 409.4 -1.44329 -2.67213 0
M  V30 4372 H 406.985 -0.767135 -1.28201 0
M  V30 4373 H 408.867 0.486756 -4.18579 0
M  V30 4374 H 407.542 0.965154 -3.08976 0
M  V30 4375 H 406.449 -1.31517 -3.5022 0
M  V30 4376 H 407.782 -1.71191 -4.6147 0
M  V30 4377 N 409.434 1.37368 -0.772513 0
M  V30 4378 C 410.68 1.99969 -0.337681 0
M  V30 4379 C 411.013 1.61184 1.08321 0
M  V30 4380 O 410.288 0.858395 1.74533 0
M  V30 4381 C 410.571 3.56858 -0.482121 0
M  V30 4382 C 410.424 4.0555 -1.94549 0
M  V30 4383 C 411.743 4.39955 0.113143 0
M  V30 4384 H 408.862 0.726464 -0.124171 0
M  V30 4385 H 411.504 1.63034 -0.975699 0
M  V30 4386 H 409.654 3.88452 0.0610361 0
M  V30 4387 H 411.326 3.84518 -2.54841 0
M  V30 4388 H 409.569 3.57715 -2.45403 0
M  V30 4389 H 410.24 5.14587 -1.9976 0
M  V30 4390 H 412.716 4.14623 -0.35031 0
M  V30 4391 H 411.592 5.48897 -0.0180514 0
M  V30 4392 H 411.853 4.25403 1.20354 0
M  V30 4393 N 410.912 0.523116 1.48665 0
M  V30 4394 C 411.822 -0.247406 2.33292 0
M  V30 4395 C 412.838 -0.945769 1.46052 0
M  V30 4396 O 414.014 -0.922253 1.79043 0
M  V30 4397 C 411.079 -1.28487 3.22012 0
M  V30 4398 C 410.14 -0.597592 4.2512 0
M  V30 4399 C 409.373 -1.58563 5.09601 0
M  V30 4400 O 409.596 -2.81763 4.95949 0
M  V30 4401 O 408.53 -1.12879 5.91221 0
M  V30 4402 H 412.356 0.445869 3.00409 0
M  V30 4403 H 409.941 0.284128 1.46673 0
M  V30 4404 H 411.823 -1.88459 3.7691 0
M  V30 4405 H 410.498 -1.96068 2.57564 0
M  V30 4406 H 409.405 0.0424407 3.74076 0
M  V30 4407 H 410.738 0.0361517 4.92187 0
M  V30 4408 N 412.39 -1.55475 0.257931 0
M  V30 4409 C 413.338 -2.23244 -0.653076 0
M  V30 4410 C 414.332 -1.22366 -1.17144 0
M  V30 4411 O 415.538 -1.40347 -1.12706 0
M  V30 4412 H 411.913 -0.716247 -0.229117 0
M  V30 4413 H 413.884 -2.98343 -0.0584788 0
M  V30 4414 C 412.633 -2.95401 -1.83395 0
M  V30 4415 H 411.956 -3.72802 -1.44424 0
M  V30 4416 H 413.396 -3.46165 -2.44838 0
M  V30 4417 C 411.855 -1.99895 -2.71189 0
M  V30 4418 O 412.385 -1.53909 -3.71046 0
M  V30 4419 N 410.591 -1.6676 -2.3799 0
M  V30 4420 H 410.138 -2.04352 -1.56837 0
M  V30 4421 H 410.096 -1.03127 -2.97005 0
M  V30 4422 N 413.868 0.0150385 -1.57593 0
M  V30 4423 C 414.815 1.01126 -2.07466 0
M  V30 4424 C 415.785 1.35064 -0.966794 0
M  V30 4425 O 416.97 1.4516 -1.23827 0
M  V30 4426 C 414.11 2.30276 -2.57035 0
M  V30 4427 C 413.223 2.02373 -3.81666 0
M  V30 4428 C 412.358 3.25496 -4.19793 0
M  V30 4429 C 411.397 2.93211 -5.37303 0
M  V30 4430 N 410.534 4.08826 -5.70794 0
M  V30 4431 H 415.374 0.57901 -2.92321 0
M  V30 4432 H 412.911 0.27426 -1.44521 0
M  V30 4433 H 414.869 3.05757 -2.83846 0
M  V30 4434 H 413.499 2.71197 -1.75077 0
M  V30 4435 H 412.551 1.17327 -3.61854 0
M  V30 4436 H 413.863 1.74567 -4.67256 0
M  V30 4437 H 413.017 4.09333 -4.47807 0
M  V30 4438 H 411.756 3.56428 -3.32882 0
M  V30 4439 H 410.761 2.07777 -5.09027 0
M  V30 4440 H 411.986 2.63542 -6.25877 0
M  V30 4441 H 409.932 4.39682 -4.86842 0
M  V30 4442 H 409.849 3.84491 -6.50924 0
M  V30 4443 H 411.117 4.93496 -6.03392 0
M  V30 4444 N 415.346 1.54954 0.287554 0
M  V30 4445 C 416.294 1.87606 1.37502 0
M  V30 4446 C 417.288 0.751001 1.51843 0
M  V30 4447 O 418.494 0.935169 1.53801 0
M  V30 4448 H 414.869 0.595231 0.459569 0
M  V30 4449 H 416.84 2.78477 1.07206 0
M  V30 4450 C 415.589 2.15183 2.73115 0
M  V30 4451 H 414.912 3.01234 2.62866 0
M  V30 4452 H 416.352 2.4196 3.48183 0
M  V30 4453 C 414.811 0.954686 3.2309 0
M  V30 4454 O 415.341 0.181949 4.01288 0
M  V30 4455 N 413.547 0.756368 2.80584 0
M  V30 4456 H 413.094 1.38643 2.17108 0
M  V30 4457 H 413.052 -0.0430391 3.14371 0
M  V30 4458 N 416.824 -0.551391 1.4764 0
M  V30 4459 C 418.07 -1.31024 1.54792 0
M  V30 4460 C 418.403 -1.9304 0.211967 0
M  V30 4461 O 417.678 -1.78175 -0.77999 0
M  V30 4462 C 417.961 -2.41593 2.67029 0
M  V30 4463 C 417.814 -1.84408 4.10261 0
M  V30 4464 C 419.133 -3.43488 2.75143 0
M  V30 4465 H 416.252 -0.475031 0.563485 0
M  V30 4466 H 418.894 -0.616454 1.79722 0
M  V30 4467 H 417.044 -3.00772 2.45904 0
M  V30 4468 H 418.716 -1.29445 4.42766 0
M  V30 4469 H 416.959 -1.15051 4.18265 0
M  V30 4470 H 417.63 -2.64367 4.84576 0
M  V30 4471 H 420.106 -2.94236 2.94218 0
M  V30 4472 H 418.982 -4.18274 3.55441 0
M  V30 4473 H 419.243 -4.02703 1.82435 0
M  V30 4474 N 418.302 -1.35869 -0.798587 0
M  V30 4475 C 419.713 -1.26498 -1.37314 0
M  V30 4476 C 420.064 0.0991899 -1.95949 0
M  V30 4477 O 419.189 1.0004 -1.91888 0
M  V30 4478 C 419.784 -2.29054 -2.49639 0
M  V30 4479 C 418.343 -2.234 -3.02935 0
M  V30 4480 C 417.49 -2.14329 -1.75949 0
M  V30 4481 H 420.441 -1.46881 -0.600971 0
M  V30 4482 H 420.462 -1.92166 -3.28409 0
M  V30 4483 H 419.974 -3.2833 -2.06933 0
M  V30 4484 H 418.075 -1.27562 -3.50084 0
M  V30 4485 H 418.188 -3.15703 -3.60372 0
M  V30 4486 H 416.552 -1.60435 -1.9782 0
M  V30 4487 H 417.335 -3.15477 -1.35384 0
M  V30 4488 N 419.78 1.02168 -1.19998 0
M  V30 4489 C 420.71 2.12488 -0.96804 0
M  V30 4490 C 421.691 1.69799 0.101185 0
M  V30 4491 O 422.876 1.94121 -0.0552993 0
M  V30 4492 C 420.006 3.43479 -0.513776 0
M  V30 4493 C 418.96 3.99884 -1.52566 0
M  V30 4494 C 418.286 5.26582 -0.928214 0
M  V30 4495 C 419.586 4.33861 -2.90795 0
M  V30 4496 H 421.28 2.32149 -1.89069 0
M  V30 4497 H 418.826 1.11564 -0.910468 0
M  V30 4498 H 420.779 4.20036 -0.338774 0
M  V30 4499 H 419.503 3.23561 0.444493 0
M  V30 4500 H 418.162 3.25429 -1.68794 0
M  V30 4501 H 417.81 5.02986 0.0378289 0
M  V30 4502 H 417.51 5.65284 -1.60397 0
M  V30 4503 H 419.034 6.05799 -0.764167 0
M  V30 4504 H 420.448 5.01327 -2.78109 0
M  V30 4505 H 418.845 4.83664 -3.55231 0
M  V30 4506 H 419.915 3.42848 -3.42904 0
M  V30 4507 N 421.258 1.00505 1.21394 0
M  V30 4508 C 422.669 0.721082 1.72213 0
M  V30 4509 C 423.02 -0.761263 1.80829 0
M  V30 4510 O 422.145 -1.59464 1.46288 0
M  V30 4511 C 422.74 1.30228 3.12772 0
M  V30 4512 C 421.299 1.06743 3.60947 0
M  V30 4513 C 420.446 1.41507 2.38477 0
M  V30 4514 H 423.397 1.17594 1.06571 0
M  V30 4515 H 423.418 0.686955 3.74247 0
M  V30 4516 H 422.93 2.38115 3.06468 0
M  V30 4517 H 421.031 0.00572162 3.726 0
M  V30 4518 H 421.144 1.73936 4.46411 0
M  V30 4519 H 419.508 0.833852 2.40664 0
M  V30 4520 H 420.291 2.50424 2.34824 0
M  V30 4521 N 422.737 -1.36956 0.779787 0
M  V30 4522 C 423.647 -2.33965 0.172491 0
M  V30 4523 C 424.663 -1.60574 -0.670222 0
M  V30 4524 O 425.839 -1.92617 -0.588263 0
M  V30 4525 C 422.904 -3.39761 -0.690173 0
M  V30 4526 C 421.965 -4.28964 0.169924 0
M  V30 4527 C 421.198 -5.29707 -0.651662 0
M  V30 4528 O 421.421 -5.38238 -1.88827 0
M  V30 4529 O 420.355 -6.01873 -0.0566264 0
M  V30 4530 H 424.181 -2.87647 0.974321 0
M  V30 4531 H 421.766 -1.39258 0.541078 0
M  V30 4532 H 423.648 -4.04471 -1.1824 0
M  V30 4533 H 422.323 -2.88394 -1.47006 0
M  V30 4534 H 421.23 -3.67326 0.708696 0
M  V30 4535 H 422.563 -4.83656 0.913085 0
M  V30 4536 N 424.215 -0.530993 -1.48385 0
M  V30 4537 C 425.462 0.0027373 -2.025 0
M  V30 4538 C 425.79 1.34186 -1.40799 0
M  V30 4539 O 425.045 1.88 -0.543544 0
M  V30 4540 C 425.344 0.172742 -3.56982 0
M  V30 4541 C 425.01 -1.09215 -4.37473 0
M  V30 4542 C 423.672 -1.43881 -4.59186 0
M  V30 4543 C 426.024 -1.93153 -4.84088 0
M  V30 4544 C 423.352 -2.62381 -5.2476 0
M  V30 4545 C 425.704 -3.10833 -5.50968 0
M  V30 4546 C 424.368 -3.45843 -5.70919 0
M  V30 4547 H 423.638 0.00100165 -0.740999 0
M  V30 4548 H 426.285 -0.697219 -1.78357 0
M  V30 4549 H 424.59 0.955473 -3.79971 0
M  V30 4550 H 426.287 0.600642 -3.96476 0
M  V30 4551 H 422.877 -0.812177 -4.20834 0
M  V30 4552 H 427.061 -1.67683 -4.67115 0
M  V30 4553 H 422.317 -2.89707 -5.38405 0
M  V30 4554 H 426.491 -3.7618 -5.86056 0
M  V30 4555 H 424.118 -4.37764 -6.21503 0
M  V30 4556 N 425.693 1.55336 -0.266172 0
M  V30 4557 C 427.104 1.85236 0.233315 0
M  V30 4558 C 427.455 1.18816 1.56132 0
M  V30 4559 O 426.58 0.473307 2.11161 0
M  V30 4560 C 427.175 3.36059 0.430113 0
M  V30 4561 C 425.734 3.66116 0.873842 0
M  V30 4562 C 424.881 2.77274 -0.0380016 0
M  V30 4563 H 427.832 1.51004 -0.488214 0
M  V30 4564 H 427.853 3.58681 1.26998 0
M  V30 4565 H 427.365 3.84373 -0.536588 0
M  V30 4566 H 425.466 3.23295 1.85233 0
M  V30 4567 H 425.579 4.73699 0.717358 0
M  V30 4568 H 423.943 2.50198 0.476759 0
M  V30 4569 H 424.726 3.284 -1.00042 0
M  V30 4570 N 427.171 -0.0066808 1.57599 0
M  V30 4571 C 428.081 -1.01671 2.11424 0
M  V30 4572 C 429.097 -1.38143 1.05795 0
M  V30 4573 O 430.273 -1.47011 1.37658 0
M  V30 4574 C 427.338 -2.29192 2.60139 0
M  V30 4575 C 426.399 -1.99094 3.80342 0
M  V30 4576 C 425.632 -3.20535 4.26724 0
M  V30 4577 O 425.855 -4.3199 3.72479 0
M  V30 4578 O 424.789 -3.04924 5.18946 0
M  V30 4579 H 428.615 -0.589181 2.9793 0
M  V30 4580 H 426.2 -0.225091 1.47695 0
M  V30 4581 H 428.082 -3.0412 2.917 0
M  V30 4582 H 426.757 -2.71195 1.76733 0
M  V30 4583 H 425.664 -1.21663 3.53764 0
M  V30 4584 H 426.997 -1.61931 4.648 0
M  V30 4585 N 428.649 -1.55105 -0.279332 0
M  V30 4586 C 429.599 -1.83937 -1.34727 0
M  V30 4587 C 430.583 -0.69785 -1.44979 0
M  V30 4588 O 431.775 -0.95904 -1.48766 0
M  V30 4589 C 428.904 -2.1092 -2.70864 0
M  V30 4590 C 427.99 -3.31314 -2.64748 0
M  V30 4591 N 428.381 -4.51371 -2.2825 0
M  V30 4592 C 426.679 -3.33777 -2.95819 0
M  V30 4593 C 427.38 -5.33447 -2.31969 0
M  V30 4594 N 426.356 -4.71697 -2.7019 0
M  V30 4595 H 430.158 -2.74309 -1.05506 0
M  V30 4596 H 427.672 -1.54896 -0.487959 0
M  V30 4597 H 429.669 -2.2973 -3.47893 0
M  V30 4598 H 428.329 -1.21828 -3.00979 0
M  V30 4599 H 429.34 -4.77584 -2.00335 0
M  V30 4600 H 426.017 -2.54858 -3.30687 0
M  V30 4601 H 427.407 -6.39424 -2.06365 0
M  V30 4602 N 430.127 0.543554 -1.4793 0
M  V30 4603 C 431.538 1.12561 -1.48953 0
M  V30 4604 C 431.889 1.94578 -0.251754 0
M  V30 4605 O 431.014 2.0665 0.642255 0
M  V30 4606 C 431.609 2.04801 -2.69892 0
M  V30 4607 C 430.168 2.58251 -2.73831 0
M  V30 4608 C 429.315 1.34918 -2.42265 0
M  V30 4609 H 432.266 0.32947 -1.55242 0
M  V30 4610 H 432.287 2.88886 -2.47639 0
M  V30 4611 H 431.799 1.4508 -3.59963 0
M  V30 4612 H 429.9 3.21732 -1.87934 0
M  V30 4613 H 430.013 2.98312 -3.74895 0
M  V30 4614 H 428.377 1.66046 -1.93134 0
M  V30 4615 H 429.16 0.769693 -3.3456 0
M  V30 4616 N 431.605 1.3629 0.791371 0
M  V30 4617 C 432.852 1.30412 1.54916 0
M  V30 4618 C 433.18 -0.117162 1.94147 0
M  V30 4619 O 432.435 -1.08599 1.62803 0
M  V30 4620 C 432.734 2.17068 2.8393 0
M  V30 4621 C 432.4 3.65645 2.63846 0
M  V30 4622 C 431.062 4.0614 2.58077 0
M  V30 4623 C 433.414 4.59855 2.45322 0
M  V30 4624 C 430.742 5.3899 2.31748 0
M  V30 4625 C 433.094 5.9292 2.2052 0
M  V30 4626 C 431.758 6.32542 2.13183 0
M  V30 4627 H 431.028 0.47721 0.566879 0
M  V30 4628 H 433.675 1.68325 0.913172 0
M  V30 4629 H 431.98 1.72085 3.51986 0
M  V30 4630 H 433.677 2.09846 3.4171 0
M  V30 4631 H 430.267 3.33518 2.69191 0
M  V30 4632 H 434.451 4.29443 2.48782 0
M  V30 4633 H 429.707 5.68672 2.24548 0
M  V30 4634 H 433.881 6.65487 2.05182 0
M  V30 4635 H 431.508 7.35412 1.92544 0
M  V30 4636 N 433.083 -1.0153 1.20538 0
M  V30 4637 C 434.015 -2.10224 0.913155 0
M  V30 4638 C 435.028 -1.62495 -0.0995998 0
M  V30 4639 O 436.217 -1.78014 0.131582 0
M  V30 4640 C 433.317 -3.37111 0.347717 0
M  V30 4641 C 432.49 -4.13971 1.41233 0
M  V30 4642 C 431.549 -5.19158 0.857976 0
M  V30 4643 O 430.575 -5.48 1.53897 0
M  V30 4644 N 431.777 -5.7955 -0.331966 0
M  V30 4645 H 434.542 -2.35879 1.84881 0
M  V30 4646 H 432.103 -1.17931 1.10923 0
M  V30 4647 H 434.095 -4.04683 -0.0373026 0
M  V30 4648 H 432.665 -3.08696 -0.492527 0
M  V30 4649 H 431.885 -3.41351 1.97163 0
M  V30 4650 H 433.173 -4.62103 2.12928 0
M  V30 4651 H 432.571 -5.58455 -0.902478 0
M  V30 4652 H 431.128 -6.48464 -0.65861 0
M  V30 4653 N 434.561 -1.01147 -1.20859 0
M  V30 4654 C 435.471 -0.58686 -2.27141 0
M  V30 4655 C 436.487 0.373198 -1.69951 0
M  V30 4656 O 437.663 0.235423 -2.00019 0
M  V30 4657 C 434.728 0.0733602 -3.46622 0
M  V30 4658 C 433.789 -0.931995 -4.19061 0
M  V30 4659 C 433.022 -0.303186 -5.32838 0
M  V30 4660 O 433.245 0.898395 -5.63281 0
M  V30 4661 O 432.179 -1.01735 -5.9324 0
M  V30 4662 H 436.005 -1.47155 -2.65667 0
M  V30 4663 H 433.59 -0.780689 -1.2738 0
M  V30 4664 H 435.472 0.442333 -4.19072 0
M  V30 4665 H 434.147 0.932329 -3.09983 0
M  V30 4666 H 433.054 -1.35224 -3.48805 0
M  V30 4667 H 434.387 -1.76076 -4.59628 0
M  V30 4668 N 436.039 1.36541 -0.78704 0
M  V30 4669 C 436.949 2.3387 -0.184896 0
M  V30 4670 C 437.965 1.60927 0.661697 0
M  V30 4671 O 439.141 1.92927 0.57804 0
M  V30 4672 C 436.206 3.40122 0.672145 0
M  V30 4673 C 435.267 4.28867 -0.19267 0
M  V30 4674 C 434.5 5.30045 0.623561 0
M  V30 4675 O 434.723 5.39232 1.8597 0
M  V30 4676 O 433.657 6.01895 0.0247068 0
M  V30 4677 H 437.483 2.87126 -0.989562 0
M  V30 4678 H 435.068 1.38969 -0.548455 0
M  V30 4679 H 436.95 4.05093 1.16094 0
M  V30 4680 H 435.625 2.89169 1.45474 0
M  V30 4681 H 434.532 3.66945 -0.728166 0
M  V30 4682 H 435.865 4.83165 -0.938722 0
M  V30 4683 N 437.518 0.538854 1.48102 0
M  V30 4684 C 438.468 -0.23907 2.26743 0
M  V30 4685 C 439.452 -0.901923 1.33245 0
M  V30 4686 O 440.644 -0.803263 1.57723 0
M  V30 4687 C 437.773 -1.2799 3.18549 0
M  V30 4688 C 436.859 -0.621388 4.19523 0
M  V30 4689 N 437.25 0.298004 5.04921 0
M  V30 4690 C 435.548 -0.877533 4.37282 0
M  V30 4691 C 436.249 0.678757 5.77726 0
M  V30 4692 N 435.225 0.0377881 5.43587 0
M  V30 4693 H 439.027 0.468096 2.90148 0
M  V30 4694 H 436.541 0.357497 1.58416 0
M  V30 4695 H 438.538 -1.851 3.73555 0
M  V30 4696 H 437.198 -1.98835 2.567 0
M  V30 4697 H 438.209 0.671126 5.13533 0
M  V30 4698 H 434.886 -1.57588 3.86616 0
M  V30 4699 H 436.276 1.43316 6.56437 0
M  V30 4700 N 438.996 -1.55193 0.274407 0
M  V30 4701 C 439.926 -2.25471 -0.607032 0
M  V30 4702 C 440.907 -1.24461 -1.15946 0
M  V30 4703 O 442.092 -1.53179 -1.19373 0
M  V30 4704 C 439.222 -2.97526 -1.79153 0
M  V30 4705 C 438.176 -4.05459 -1.37067 0
M  V30 4706 C 437.502 -4.65084 -2.6382 0
M  V30 4707 C 438.802 -5.19691 -0.521389 0
M  V30 4708 H 440.496 -2.99393 -0.0209343 0
M  V30 4709 H 438.042 -1.43997 -0.00862866 0
M  V30 4710 H 439.995 -3.45402 -2.41404 0
M  V30 4711 H 438.719 -2.21138 -2.40344 0
M  V30 4712 H 437.378 -3.58393 -0.771355 0
M  V30 4713 H 437.026 -3.85365 -3.23268 0
M  V30 4714 H 436.726 -5.37961 -2.36372 0
M  V30 4715 H 438.25 -5.15708 -3.26921 0
M  V30 4716 H 439.664 -5.63623 -1.04889 0
M  V30 4717 H 438.061 -5.99126 -0.341825 0
M  V30 4718 H 439.131 -4.82713 0.46 0
M  V30 4719 N 440.474 -0.00167713 -1.576 0
M  V30 4720 C 441.421 0.989195 -2.08527 0
M  V30 4721 C 442.391 1.34031 -0.981065 0
M  V30 4722 O 443.576 1.43839 -1.2536 0
M  V30 4723 C 440.716 2.27537 -2.59463 0
M  V30 4724 C 439.829 1.98314 -3.83791 0
M  V30 4725 C 438.964 3.21025 -4.23222 0
M  V30 4726 C 438.003 2.87495 -5.40382 0
M  V30 4727 N 437.14 4.02749 -5.75098 0
M  V30 4728 H 441.98 0.547973 -2.92919 0
M  V30 4729 H 439.517 0.258917 -1.44803 0
M  V30 4730 H 441.475 3.02729 -2.87073 0
M  V30 4731 H 440.105 2.69325 -1.77943 0
M  V30 4732 H 439.157 1.13482 -3.63078 0
M  V30 4733 H 440.469 1.69601 -4.69081 0
M  V30 4734 H 439.623 4.04561 -4.52123 0
M  V30 4735 H 438.362 3.52877 -3.36644 0
M  V30 4736 H 437.367 2.02367 -5.11202 0
M  V30 4737 H 438.592 2.56889 -6.28637 0
M  V30 4738 H 436.538 4.34494 -4.91478 0
M  V30 4739 H 436.455 3.77566 -6.54966 0
M  V30 4740 H 437.723 4.87068 -6.08592 0
M  V30 4741 N 441.952 1.55251 0.271103 0
M  V30 4742 C 442.884 1.84675 1.35749 0
M  V30 4743 C 443.897 0.731366 1.45447 0
M  V30 4744 O 445.086 1.00924 1.4723 0
M  V30 4745 C 442.186 1.99638 2.73857 0
M  V30 4746 C 441.359 3.30312 2.86727 0
M  V30 4747 C 440.418 3.35318 4.05522 0
M  V30 4748 O 439.444 4.08682 3.96191 0
M  V30 4749 N 440.646 2.62857 5.17577 0
M  V30 4750 H 443.411 2.78445 1.10853 0
M  V30 4751 H 440.972 1.55191 0.461218 0
M  V30 4752 H 442.964 2.00355 3.51625 0
M  V30 4753 H 441.534 1.12725 2.91568 0
M  V30 4754 H 440.754 3.42118 1.95829 0
M  V30 4755 H 442.042 4.16488 2.92258 0
M  V30 4756 H 441.44 2.02939 5.28046 0
M  V30 4757 H 439.997 2.69295 5.93568 0
M  V30 4758 N 443.43 -0.535701 1.48216 0
M  V30 4759 C 444.36 -1.65014 1.65204 0
M  V30 4760 C 445.341 -1.62554 0.501011 0
M  V30 4761 O 446.526 -1.7984 0.732886 0
M  V30 4762 C 443.656 -3.03616 1.68626 0
M  V30 4763 C 442.61 -3.20932 2.83172 0
M  V30 4764 C 441.936 -4.60537 2.71679 0
M  V30 4765 C 443.236 -3.04249 4.24535 0
M  V30 4766 H 444.93 -1.51053 2.58502 0
M  V30 4767 H 442.476 -0.725262 1.24402 0
M  V30 4768 H 444.429 -3.81446 1.79099 0
M  V30 4769 H 443.153 -3.18587 0.719026 0
M  V30 4770 H 441.812 -2.45517 2.72244 0
M  V30 4771 H 441.46 -4.72336 1.72937 0
M  V30 4772 H 441.16 -4.73069 3.48538 0
M  V30 4773 H 442.684 -5.40475 2.84112 0
M  V30 4774 H 444.098 -3.71877 4.36326 0
M  V30 4775 H 442.495 -3.28278 5.02348 0
M  V30 4776 H 443.565 -2.00739 4.41397 0
M  V30 4777 N 444.908 -1.36708 -0.784132 0
M  V30 4778 C 446.138 -1.34203 -1.57077 0
M  V30 4779 C 446.546 0.0774945 -1.89041 0
M  V30 4780 O 445.889 1.04628 -1.50992 0
M  V30 4781 C 445.951 -2.10351 -2.91535 0
M  V30 4782 C 445.615 -3.59405 -2.82272 0
M  V30 4783 C 446.612 -4.53545 -2.54151 0
M  V30 4784 C 444.297 -4.02362 -3.00683 0
M  V30 4785 C 446.291 -5.8862 -2.44551 0
M  V30 4786 C 443.978 -5.37526 -2.90704 0
M  V30 4787 C 444.976 -6.30468 -2.62677 0
M  V30 4788 O 444.664 -7.63149 -2.52702 0
M  V30 4789 H 444.396 -0.461791 -0.493685 0
M  V30 4790 H 446.95 -1.80475 -0.980712 0
M  V30 4791 H 445.18 -1.5875 -3.52612 0
M  V30 4792 H 446.869 -2.00636 -3.52845 0
M  V30 4793 H 447.635 -4.21669 -2.39625 0
M  V30 4794 H 443.514 -3.30389 -3.21503 0
M  V30 4795 H 447.058 -6.61133 -2.22596 0
M  V30 4796 H 442.955 -5.69008 -3.04795 0
M  V30 4797 H 443.723 -7.73331 -2.68144 0
M  V30 4798 N 446.386 1.0089 -1.21074 0
M  V30 4799 C 447.333 2.09588 -0.966512 0
M  V30 4800 C 448.303 1.65761 0.106089 0
M  V30 4801 O 449.488 1.90758 -0.0402287 0
M  V30 4802 C 446.628 3.40958 -0.533058 0
M  V30 4803 C 445.741 3.9822 -1.67467 0
M  V30 4804 C 444.876 5.17682 -1.19076 0
M  V30 4805 C 443.915 5.67043 -2.30496 0
M  V30 4806 N 443.052 6.77759 -1.83267 0
M  V30 4807 H 447.892 2.29815 -1.89708 0
M  V30 4808 H 445.429 1.12689 -0.945489 0
M  V30 4809 H 447.387 4.1637 -0.263019 0
M  V30 4810 H 446.017 3.20781 0.360505 0
M  V30 4811 H 445.069 3.1983 -2.05944 0
M  V30 4812 H 446.381 4.3085 -2.51336 0
M  V30 4813 H 445.535 6.00326 -0.877151 0
M  V30 4814 H 444.274 4.86635 -0.322066 0
M  V30 4815 H 443.279 4.82999 -2.62664 0
M  V30 4816 H 444.504 6.00121 -3.17855 0
M  V30 4817 H 442.45 6.48527 -0.987356 0
M  V30 4818 H 442.367 7.09624 -2.60711 0
M  V30 4819 H 443.635 7.63949 -1.54928 0
M  V30 4820 N 447.864 1.01787 1.20321 0
M  V30 4821 C 449.113 0.703249 1.89043 0
M  V30 4822 C 449.426 -0.770445 1.79787 0
M  V30 4823 O 450.632 -1.19767 2.43656 0
M  V30 4824 C 449.088 1.20749 3.3904 0
M  V30 4825 C 448.696 2.70817 3.56878 0
M  V30 4826 C 450.44 0.968352 4.13308 0
M  V30 4827 C 448.347 3.14716 5.00708 0
M  V30 4828 H 447.277 0.259354 0.707991 0
M  V30 4829 H 449.928 1.23072 1.36108 0
M  V30 4830 H 448.31 0.607989 3.91305 0
M  V30 4831 H 449.484 3.36327 3.14993 0
M  V30 4832 H 447.799 2.92888 2.95983 0
M  V30 4833 H 450.396 1.27173 5.19356 0
M  V30 4834 H 450.739 -0.095149 4.16191 0
M  V30 4835 H 451.272 1.53129 3.67146 0
M  V30 4836 H 448.011 4.20347 5.02979 0
M  V30 4837 H 447.531 2.53927 5.43398 0
M  V30 4838 H 449.21 3.07426 5.69296 0
M  V30 4839 N 449.342 -1.36122 0.79427 0
M  V30 4840 C 450.588 -1.99406 0.369452 0
M  V30 4841 C 450.921 -1.62886 -1.05743 0
M  V30 4842 O 450.196 -0.886053 -1.73145 0
M  V30 4843 C 450.479 -3.56046 0.538833 0
M  V30 4844 C 450.332 -4.02404 2.00976 0
M  V30 4845 C 451.651 -4.40079 -0.0431359 0
M  V30 4846 H 448.77 -0.724397 0.135712 0
M  V30 4847 H 451.412 -1.61461 1.00151 0
M  V30 4848 H 449.562 -3.885 0.000771004 0
M  V30 4849 H 451.234 -3.80415 2.60926 0
M  V30 4850 H 449.477 -3.53765 2.51063 0
M  V30 4851 H 450.148 -5.11344 2.07922 0
M  V30 4852 H 452.624 -4.14013 0.416228 0
M  V30 4853 H 451.5 -5.48799 0.105374 0
M  V30 4854 H 451.761 -4.27264 -1.13571 0
M  V30 4855 N 450.82 -0.546701 -1.47814 0
M  V30 4856 C 452.231 -0.110564 -1.86372 0
M  V30 4857 C 452.582 1.31678 -1.45449 0
M  V30 4858 O 451.707 1.98889 -0.852758 0
M  V30 4859 C 452.302 -0.193873 -3.38245 0
M  V30 4860 C 450.861 0.187164 -3.75934 0
M  V30 4861 C 450.008 -0.546166 -2.71868 0
M  V30 4862 H 452.959 -0.757022 -1.39481 0
M  V30 4863 H 452.98 0.590218 -3.75895 0
M  V30 4864 H 452.492 -1.23282 -3.67999 0
M  V30 4865 H 450.593 1.22762 -3.51796 0
M  V30 4866 H 450.706 -0.164083 -4.78819 0
M  V30 4867 H 449.07 0.00953904 -2.54698 0
M  V30 4868 H 449.853 -1.58606 -3.04465 0
M  V30 4869 N 452.299 1.55045 -0.282633 0
M  V30 4870 C 453.548 1.98938 0.332667 0
M  V30 4871 C 453.861 1.17455 1.56409 0
M  V30 4872 O 455.067 1.51527 2.25282 0
M  V30 4873 C 453.523 3.54105 0.643226 0
M  V30 4874 C 453.131 4.44374 -0.568814 0
M  V30 4875 C 454.875 4.06569 1.22074 0
M  V30 4876 C 452.782 5.90943 -0.232426 0
M  V30 4877 H 451.712 0.743043 0.128075 0
M  V30 4878 H 454.363 1.79341 -0.388464 0
M  V30 4879 H 452.745 3.69532 1.42346 0
M  V30 4880 H 453.919 4.40718 -1.34551 0
M  V30 4881 H 452.234 4.02585 -1.06369 0
M  V30 4882 H 454.831 5.13626 1.48635 0
M  V30 4883 H 455.174 3.56057 2.15707 0
M  V30 4884 H 455.707 3.94612 0.502621 0
M  V30 4885 H 452.446 6.45567 -1.13683 0
M  V30 4886 H 451.966 5.9765 0.507357 0
M  V30 4887 H 453.645 6.4677 0.172657 0
M  V30 4888 N 453.777 0.010035 1.57597 0
M  V30 4889 C 454.724 -0.978122 2.09049 0
M  V30 4890 C 455.694 -1.33509 0.988159 0
M  V30 4891 O 456.879 -1.43172 1.26121 0
M  V30 4892 C 454.019 -2.26158 2.60666 0
M  V30 4893 C 453.132 -1.96275 3.84838 0
M  V30 4894 C 452.267 -3.18776 4.24918 0
M  V30 4895 C 451.306 -2.84625 5.41899 0
M  V30 4896 N 450.443 -3.99693 5.77226 0
M  V30 4897 H 455.283 -0.532431 2.93205 0
M  V30 4898 H 452.82 -0.251234 1.44939 0
M  V30 4899 H 454.778 -3.01202 2.88675 0
M  V30 4900 H 453.408 -2.68378 1.79369 0
M  V30 4901 H 452.46 -1.11555 3.63675 0
M  V30 4902 H 453.772 -1.67111 4.69974 0
M  V30 4903 H 452.926 -4.02157 4.54262 0
M  V30 4904 H 451.665 -3.51087 3.38511 0
M  V30 4905 H 450.67 -1.99653 5.12268 0
M  V30 4906 H 451.895 -2.53551 6.29991 0
M  V30 4907 H 449.841 -4.31882 4.93776 0
M  V30 4908 H 449.758 -3.74087 6.56959 0
M  V30 4909 H 451.026 -4.83834 6.11167 0
M  V30 4910 N 455.255 -1.55392 -0.262866 0
M  V30 4911 C 456.532 -1.67204 -1.01499 0
M  V30 4912 C 456.912 -0.545186 -2.03939 0
M  V30 4913 O 456.26 0.453467 -2.23955 0
M  V30 4914 C 456.47 -3.06847 -1.6627 0
M  V30 4915 C 457.818 -3.64928 -2.17054 0
M  V30 4916 O 458.842 -3.09545 -1.76239 0
M  V30 4917 O 457.701 -4.61984 -2.91947 0
M  V30 4918 H 454.795 -0.679467 -0.471438 0
M  V30 4919 H 457.341 -1.67729 -0.257918 0
M  V30 4920 H 456.113 -3.80309 -0.920915 0
M  V30 4921 H 455.736 -3.10266 -2.48638 0
M  V30 4922 N 456.733 0.527833 -1.48498 0
M  V30 4923 C 457.982 1.28003 -1.55878 0
M  V30 4924 C 458.295 1.9414 -0.238577 0
M  V30 4925 O 459.501 2.7083 -0.190643 0
M  V30 4926 C 457.957 2.32272 -2.74914 0
M  V30 4927 C 457.565 1.72196 -4.13585 0
M  V30 4928 C 459.309 3.08488 -2.91608 0
M  V30 4929 C 457.216 2.74417 -5.23879 0
M  V30 4930 H 456.146 0.481413 -0.580308 0
M  V30 4931 H 458.797 0.557195 -1.74836 0
M  V30 4932 H 457.179 3.07601 -2.49395 0
M  V30 4933 H 458.353 1.03041 -4.49132 0
M  V30 4934 H 456.668 1.08464 -4.02025 0
M  V30 4935 H 459.265 3.84879 -3.71177 0
M  V30 4936 H 459.608 3.64481 -2.01145 0
M  V30 4937 H 460.141 2.40274 -3.17038 0
M  V30 4938 H 456.88 2.23242 -6.16314 0
M  V30 4939 H 456.4 3.41893 -4.92818 0
M  V30 4940 H 458.079 3.37362 -5.52083 0
M  V30 4941 N 458.211 1.37122 0.776871 0
M  V30 4942 C 459.627 1.1781 1.07671 0
M  V30 4943 C 459.827 0.0107454 2.01497 0
M  V30 4944 O 458.883 -0.650756 2.4397 0
M  V30 4945 C 460.196 2.49451 1.67913 0
M  V30 4946 C 461.744 2.55927 1.80195 0
M  V30 4947 C 462.219 3.87686 2.43851 0
M  V30 4948 N 463.71 3.891 2.51307 0
M  V30 4949 C 464.445 4.87797 3.014 0
M  V30 4950 N 463.941 5.96888 3.51705 0
M  V30 4951 N 465.734 4.75205 3.00227 0
M  V30 4952 H 457.885 2.11843 0.153778 0
M  V30 4953 H 460.148 0.938927 0.130844 0
M  V30 4954 H 459.854 3.35207 1.06439 0
M  V30 4955 H 459.728 2.66169 2.67271 0
M  V30 4956 H 462.115 1.70582 2.40803 0
M  V30 4957 H 462.196 2.43097 0.796069 0
M  V30 4958 H 461.84 4.73444 1.83884 0
M  V30 4959 H 461.77 3.97817 3.45035 0
M  V30 4960 H 464.261 3.10293 2.157 0
M  V30 4961 H 464.574 6.68155 3.88316 0
M  V30 4962 H 462.919 6.0054 3.49824 0
M  V30 4963 H 466.11 3.89103 2.60224 0
M  V30 4964 H 466.283 5.52279 3.38957 0
M  V30 4965 N 459.689 -1.00246 1.21608 0
M  V30 4966 C 460.637 -2.11193 0.97469 0
M  V30 4967 C 461.631 -1.69216 -0.0789303 0
M  V30 4968 O 462.837 -1.79853 0.0726806 0
M  V30 4969 H 459.212 -0.690455 0.297953 0
M  V30 4970 H 461.183 -2.2873 1.91638 0
M  V30 4971 C 459.932 -3.43182 0.558717 0
M  V30 4972 H 459.255 -3.75918 1.3611 0
M  V30 4973 H 460.695 -4.21823 0.429154 0
M  V30 4974 C 459.154 -3.28882 -0.730648 0
M  V30 4975 O 459.684 -3.59835 -1.78554 0
M  V30 4976 N 457.89 -2.8209 -0.698131 0
M  V30 4977 H 457.437 -2.57099 0.16061 0
M  V30 4978 H 457.395 -2.72903 -1.56113 0
M  V30 4979 N 461.167 -1.02423 -1.1978 0
M  V30 4980 C 462.097 -0.62157 -2.25075 0
M  V30 4981 C 463.078 0.367148 -1.6609 0
M  V30 4982 O 464.263 0.250892 -1.92573 0
M  V30 4983 C 461.393 0.0331826 -3.47284 0
M  V30 4984 C 460.347 -0.877323 -4.18912 0
M  V30 4985 C 459.673 -0.0879296 -5.34628 0
M  V30 4986 C 460.973 -2.18892 -4.74219 0
M  V30 4987 H 462.667 -1.50179 -2.59011 0
M  V30 4988 H 460.213 -0.723547 -1.24502 0
M  V30 4989 H 462.166 0.326488 -4.20133 0
M  V30 4990 H 460.89 0.948164 -3.12534 0
M  V30 4991 H 459.549 -1.15475 -3.47938 0
M  V30 4992 H 459.197 0.828941 -4.96123 0
M  V30 4993 H 458.897 -0.694359 -5.83483 0
M  V30 4994 H 460.421 0.198743 -6.10276 0
M  V30 4995 H 461.835 -1.95746 -5.38847 0
M  V30 4996 H 460.232 -2.74686 -5.33542 0
M  V30 4997 H 461.302 -2.84674 -3.92541 0
M  V30 4998 N 462.645 1.35699 -0.801477 0
M  V30 4999 C 463.875 2.02862 -0.3912 0
M  V30 5000 C 464.283 1.60552 1.00099 0
M  V30 5001 O 463.626 0.796215 1.65548 0
M  V30 5002 C 463.688 3.57386 -0.389299 0
M  V30 5003 C 463.352 4.22943 -1.73113 0
M  V30 5004 C 464.349 4.44984 -2.68859 0
M  V30 5005 C 462.034 4.60167 -2.01373 0
M  V30 5006 C 464.028 5.03345 -3.91053 0
M  V30 5007 C 461.715 5.18243 -3.23832 0
M  V30 5008 C 462.713 5.39773 -4.1849 0
M  V30 5009 O 462.401 5.96626 -5.38788 0
M  V30 5010 H 462.133 0.657341 -0.157732 0
M  V30 5011 H 464.687 1.74407 -1.08496 0
M  V30 5012 H 462.917 3.85011 0.361031 0
M  V30 5013 H 464.606 4.059 -0.0020365 0
M  V30 5014 H 465.372 4.1661 -2.48316 0
M  V30 5015 H 461.251 4.42726 -1.28508 0
M  V30 5016 H 464.795 5.20065 -4.64949 0
M  V30 5017 H 460.692 5.46044 -3.44248 0
M  V30 5018 H 461.46 6.15082 -5.40015 0
M  V30 5019 N 464.123 0.554532 1.47522 0
M  V30 5020 C 465.369 0.0295227 2.02779 0
M  V30 5021 C 465.702 -1.31582 1.42828 0
M  V30 5022 O 464.977 -1.85561 0.582872 0
M  V30 5023 C 465.26 -0.0664057 3.60039 0
M  V30 5024 C 465.113 1.30585 4.30427 0
M  V30 5025 C 466.432 -0.781162 4.33112 0
M  V30 5026 H 463.551 0.0122027 0.736899 0
M  V30 5027 H 466.193 0.716305 1.7598 0
M  V30 5028 H 464.343 -0.651307 3.83002 0
M  V30 5029 H 466.015 1.93374 4.18813 0
M  V30 5030 H 464.258 1.88125 3.90886 0
M  V30 5031 H 464.929 1.19147 5.38988 0
M  V30 5032 H 467.405 -0.284565 4.15126 0
M  V30 5033 H 466.281 -0.817237 5.42782 0
M  V30 5034 H 466.542 -1.83672 4.0214 0
M  V30 5035 N 465.601 -1.54893 0.290851 0
M  V30 5036 C 466.829 -2.04343 -0.324288 0
M  V30 5037 C 467.244 -1.16859 -1.48289 0
M  V30 5038 O 466.601 -0.192018 -1.81487 0
M  V30 5039 C 466.652 -3.52756 -0.79026 0
M  V30 5040 O 466.373 -4.36913 0.322213 0
M  V30 5041 C 467.874 -4.18161 -1.4716 0
M  V30 5042 H 465.094 -0.667135 -0.0719173 0
M  V30 5043 H 467.638 -1.99981 0.427529 0
M  V30 5044 H 465.793 -3.57511 -1.49213 0
M  V30 5045 H 466.207 -5.24486 -0.0387372 0
M  V30 5046 H 467.681 -5.23562 -1.7489 0
M  V30 5047 H 468.158 -3.67282 -2.40834 0
M  V30 5048 H 468.764 -4.17454 -0.813178 0
M  V30 5049 N 467.08 -0.0183926 -1.57589 0
M  V30 5050 C 468.327 0.662562 -1.91354 0
M  V30 5051 C 468.655 1.72747 -0.893788 0
M  V30 5052 O 467.91 1.9545 0.0988509 0
M  V30 5053 C 468.209 1.32676 -3.31861 0
M  V30 5054 C 467.875 0.393267 -4.49182 0
M  V30 5055 C 466.537 0.136302 -4.81007 0
M  V30 5056 C 468.889 -0.248366 -5.20608 0
M  V30 5057 C 466.217 -0.770282 -5.81621 0
M  V30 5058 C 468.569 -1.14294 -6.22189 0
M  V30 5059 C 467.233 -1.4089 -6.52462 0
M  V30 5060 H 466.503 0.242448 -0.700214 0
M  V30 5061 H 469.15 -0.0778629 -1.91342 0
M  V30 5062 H 467.455 2.14168 -3.28084 0
M  V30 5063 H 469.152 1.86001 -3.55253 0
M  V30 5064 H 465.742 0.603723 -4.24327 0
M  V30 5065 H 469.926 -0.062883 -4.9626 0
M  V30 5066 H 465.182 -0.984154 -6.03427 0
M  V30 5067 H 469.356 -1.64637 -6.76659 0
M  V30 5068 H 466.983 -2.11306 -7.30242 0
M  V30 5069 N 468.558 1.5553 0.254621 0
M  V30 5070 C 469.969 1.67518 0.824286 0
M  V30 5071 C 470.32 0.614429 1.86331 0
M  V30 5072 O 469.445 -0.240736 2.15057 0
M  V30 5073 C 470.04 3.03692 1.50189 0
M  V30 5074 C 468.599 3.17646 2.01935 0
M  V30 5075 C 467.746 2.63373 0.867746 0
M  V30 5076 H 470.697 1.58671 0.0305843 0
M  V30 5077 H 470.718 2.97706 2.36962 0
M  V30 5078 H 470.23 3.80874 0.745431 0
M  V30 5079 H 468.331 2.45273 2.80485 0
M  V30 5080 H 468.444 4.24455 2.22204 0
M  V30 5081 H 466.808 2.20999 1.26616 0
M  V30 5082 H 467.591 3.43074 0.124498 0
M  V30 5083 N 470.036 -0.519951 1.48776 0
M  V30 5084 C 471.285 -1.27175 1.56555 0
M  V30 5085 C 471.598 -1.9401 0.248869 0
M  V30 5086 O 472.804 -2.70725 0.205004 0
M  V30 5087 C 471.26 -2.30811 2.76142 0
M  V30 5088 C 470.868 -1.7 4.14493 0
M  V30 5089 C 472.612 -3.06937 2.9324 0
M  V30 5090 C 470.519 -2.71635 5.25327 0
M  V30 5091 H 469.449 -0.478329 0.582853 0
M  V30 5092 H 472.1 -0.547916 1.75129 0
M  V30 5093 H 470.482 -3.06274 2.51023 0
M  V30 5094 H 471.656 -1.00658 4.49672 0
M  V30 5095 H 469.971 -1.06331 4.02595 0
M  V30 5096 H 472.568 -3.82905 3.73213 0
M  V30 5097 H 472.911 -3.63409 2.03075 0
M  V30 5098 H 473.444 -2.38589 3.18308 0
M  V30 5099 H 470.183 -2.1997 6.1749 0
M  V30 5100 H 469.703 -3.39275 4.94624 0
M  V30 5101 H 471.382 -3.34429 5.53865 0
M  V30 5102 N 471.514 -1.37532 -0.769588 0
M  V30 5103 C 472.925 -1.29382 -1.346 0
M  V30 5104 C 473.276 0.0576039 -1.96115 0
M  V30 5105 O 472.401 0.95947 -1.93967 0
M  V30 5106 C 472.996 -2.34298 -2.44724 0
M  V30 5107 C 471.555 -2.29776 -2.98128 0
M  V30 5108 C 470.702 -2.18013 -1.71364 0
M  V30 5109 H 473.653 -1.48123 -0.56968 0
M  V30 5110 H 473.674 -1.99089 -3.24259 0
M  V30 5111 H 473.186 -3.32645 -1.99922 0
M  V30 5112 H 471.287 -1.34959 -3.47299 0
M  V30 5113 H 471.4 -3.23276 -3.53595 0
M  V30 5114 H 469.764 -1.64595 -1.94372 0
M  V30 5115 H 470.547 -3.18278 -1.28662 0
M  V30 5116 N 472.992 0.995999 -1.22138 0
M  V30 5117 C 474.269 1.70834 -0.952642 0
M  V30 5118 C 474.649 2.04257 0.533119 0
M  V30 5119 O 473.997 1.72343 1.50034 0
M  V30 5120 C 474.207 2.96119 -1.84701 0
M  V30 5121 C 475.555 3.68962 -2.10124 0
M  V30 5122 O 476.579 3.0612 -1.82124 0
M  V30 5123 O 475.438 4.82017 -2.57531 0
M  V30 5124 H 472.532 0.745498 -0.357997 0
M  V30 5125 H 475.078 1.05262 -1.33109 0
M  V30 5126 H 473.85 2.67898 -2.85213 0
M  V30 5127 H 473.473 3.6943 -1.46995 0
M  V30 5128 N 474.47 1.03057 1.19235 0
M  V30 5129 C 475.4 0.633497 2.24742 0
M  V30 5130 C 476.381 -0.358335 1.66283 0
M  V30 5131 O 477.566 -0.240676 1.92703 0
M  V30 5132 C 474.696 -0.0147648 3.47297 0
M  V30 5133 C 473.65 0.899527 4.18441 0
M  V30 5134 C 472.976 0.116281 5.34574 0
M  V30 5135 C 474.276 2.21404 4.73051 0
M  V30 5136 H 475.97 1.5155 2.58211 0
M  V30 5137 H 473.516 0.73014 1.24117 0
M  V30 5138 H 475.469 -0.304202 4.20301 0
M  V30 5139 H 474.193 -0.931577 3.13032 0
M  V30 5140 H 472.852 1.17319 3.47321 0
M  V30 5141 H 472.5 -0.802619 4.96555 0
M  V30 5142 H 472.2 0.725293 5.83107 0
M  V30 5143 H 473.724 -0.166376 6.10373 0
M  V30 5144 H 475.138 1.98601 5.37802 0
M  V30 5145 H 473.535 2.77512 5.32078 0
M  V30 5146 H 474.605 2.86752 3.91026 0
M  V30 5147 N 475.948 -1.35272 0.808662 0
M  V30 5148 C 476.88 -2.28507 0.178149 0
M  V30 5149 C 477.893 -1.50377 -0.623754 0
M  V30 5150 O 479.082 -1.72583 -0.455774 0
M  V30 5151 C 476.182 -3.30038 -0.769959 0
M  V30 5152 C 475.355 -4.37398 -0.0139749 0
M  V30 5153 C 474.414 -5.18775 -0.880875 0
M  V30 5154 O 473.44 -5.68236 -0.331059 0
M  V30 5155 N 474.642 -5.37087 -2.20267 0
M  V30 5156 H 477.407 -2.83255 0.979106 0
M  V30 5157 H 474.968 -1.47643 0.664308 0
M  V30 5158 H 476.96 -3.81371 -1.35418 0
M  V30 5159 H 475.53 -2.75789 -1.47171 0
M  V30 5160 H 474.75 -3.86971 0.751468 0
M  V30 5161 H 476.038 -5.06268 0.506965 0
M  V30 5162 H 475.436 -4.9855 -2.67328 0
M  V30 5163 H 473.993 -5.91593 -2.73608 0
M  V30 5164 N 477.426 -0.562348 -1.47226 0
M  V30 5165 C 478.373 0.182461 -2.30078 0
M  V30 5166 C 479.343 0.903503 -1.39377 0
M  V30 5167 O 480.528 0.898188 -1.68337 0
M  V30 5168 C 477.668 1.20322 -3.23445 0
M  V30 5169 C 476.781 0.487717 -4.29238 0
M  V30 5170 C 475.916 1.49422 -5.09752 0
M  V30 5171 C 474.955 0.763976 -6.07314 0
M  V30 5172 N 474.092 1.71755 -6.80768 0
M  V30 5173 H 478.932 -0.530169 -2.93246 0
M  V30 5174 H 476.469 -0.273276 -1.44539 0
M  V30 5175 H 478.427 1.80768 -3.76004 0
M  V30 5176 H 477.057 1.88382 -2.6213 0
M  V30 5177 H 476.109 -0.231374 -3.79696 0
M  V30 5178 H 477.421 -0.0841003 -4.98729 0
M  V30 5179 H 476.575 2.17206 -5.66486 0
M  V30 5180 H 475.314 2.09995 -4.40174 0
M  V30 5181 H 474.319 0.0722344 -5.49753 0
M  V30 5182 H 475.544 0.16391 -6.78902 0
M  V30 5183 H 473.49 2.31177 -6.13916 0
M  V30 5184 H 473.407 1.19802 -7.46447 0
M  V30 5185 H 474.675 2.38638 -7.42073 0
M  V30 5186 N 478.904 1.54736 -0.299062 0
M  V30 5187 C 480.134 2.04215 0.312992 0
M  V30 5188 C 480.542 1.17596 1.48215 0
M  V30 5189 O 479.885 0.193835 1.82674 0
M  V30 5190 C 479.947 3.49696 0.833862 0
M  V30 5191 C 479.611 4.56518 -0.20977 0
M  V30 5192 C 480.608 5.09442 -1.03756 0
M  V30 5193 C 478.293 5.01073 -0.35091 0
M  V30 5194 C 480.287 6.05459 -1.99244 0
M  V30 5195 C 477.974 5.9691 -1.30924 0
M  V30 5196 C 478.972 6.48987 -2.1285 0
M  V30 5197 O 478.66 7.42947 -3.07059 0
M  V30 5198 H 478.392 0.672128 0.0722494 0
M  V30 5199 H 480.946 2.00718 -0.436043 0
M  V30 5200 H 479.176 3.5051 1.63339 0
M  V30 5201 H 480.865 3.82381 1.36159 0
M  V30 5202 H 481.631 4.75816 -0.939376 0
M  V30 5203 H 477.51 4.60168 0.276813 0
M  V30 5204 H 481.054 6.46031 -2.63229 0
M  V30 5205 H 476.951 6.29953 -1.40815 0
M  V30 5206 H 477.719 7.60743 -3.02015 0
M  V30 5207 N 480.382 0.0267497 1.57577 0
M  V30 5208 C 481.612 -0.6617 1.95717 0
M  V30 5209 C 482.02 -1.66331 0.901706 0
M  V30 5210 O 481.363 -1.83273 -0.125241 0
M  V30 5211 C 481.425 -1.42649 3.29987 0
M  V30 5212 C 481.089 -0.583482 4.5326 0
M  V30 5213 C 482.086 0.140221 5.19711 0
M  V30 5214 C 479.771 -0.521581 4.99585 0
M  V30 5215 C 481.765 0.914523 6.30805 0
M  V30 5216 C 479.452 0.256428 6.10562 0
M  V30 5217 C 480.45 0.973189 6.76031 0
M  V30 5218 O 480.138 1.73845 7.84878 0
M  V30 5219 H 479.87 -0.187483 0.649481 0
M  V30 5220 H 482.424 0.0820847 2.05236 0
M  V30 5221 H 480.654 -2.21536 3.16952 0
M  V30 5222 H 482.343 -2.00282 3.53047 0
M  V30 5223 H 483.109 0.101716 4.84893 0
M  V30 5224 H 478.988 -1.06904 4.48433 0
M  V30 5225 H 482.532 1.4745 6.81839 0
M  V30 5226 H 478.429 0.296657 6.44818 0
M  V30 5227 H 479.197 1.65797 8.01532 0
M  V30 5228 N 481.861 -1.55662 -0.24637 0
M  V30 5229 C 482.808 -1.90361 -1.30504 0
M  V30 5230 C 483.778 -0.757905 -1.47801 0
M  V30 5231 O 484.963 -1.01161 -1.61775 0
M  V30 5232 C 482.103 -2.2042 -2.65535 0
M  V30 5233 C 481.216 -3.47799 -2.56242 0
M  V30 5234 C 480.351 -3.67426 -3.8363 0
M  V30 5235 C 479.39 -4.88403 -3.68956 0
M  V30 5236 N 478.527 -5.04548 -4.88237 0
M  V30 5237 H 483.367 -2.80645 -1.00213 0
M  V30 5238 H 480.904 -1.38924 -0.483577 0
M  V30 5239 H 482.862 -2.35853 -3.44135 0
M  V30 5240 H 481.492 -1.3334 -2.93973 0
M  V30 5241 H 480.544 -3.40694 -1.69208 0
M  V30 5242 H 481.856 -4.36544 -2.4131 0
M  V30 5243 H 481.01 -3.82821 -4.70673 0
M  V30 5244 H 479.749 -2.76914 -4.01459 0
M  V30 5245 H 478.754 -4.72984 -2.80296 0
M  V30 5246 H 479.979 -5.80375 -3.52621 0
M  V30 5247 H 477.925 -4.16974 -5.06427 0
M  V30 5248 H 477.842 -5.87384 -4.75937 0
M  V30 5249 H 479.11 -5.24355 -5.76777 0
M  V30 5250 N 483.339 0.512053 -1.4905 0
M  V30 5251 C 484.564 1.2959 -1.6193 0
M  V30 5252 C 484.989 1.85906 -0.286454 0
M  V30 5253 O 484.347 1.65312 0.744426 0
M  V30 5254 C 484.395 2.40987 -2.68249 0
M  V30 5255 O 483.499 3.44531 -2.26654 0
M  V30 5256 H 482.84 0.383053 -0.542371 0
M  V30 5257 H 485.37 0.614231 -1.95162 0
M  V30 5258 H 485.38 2.86913 -2.90078 0
M  V30 5259 H 484.055 1.99361 -3.65004 0
M  V30 5260 H 482.632 3.046 -2.15112 0
M  V30 5261 N 484.817 1.37938 0.762283 0
M  V30 5262 C 485.765 1.34569 1.89721 0
M  V30 5263 C 486.759 0.232929 1.67791 0
M  V30 5264 O 487.965 0.401485 1.75465 0
M  V30 5265 H 484.34 0.419594 0.624055 0
M  V30 5266 H 486.311 2.30357 1.8968 0
M  V30 5267 C 485.06 1.17898 3.27101 0
M  V30 5268 H 484.383 2.02781 3.44558 0
M  V30 5269 H 485.823 1.19593 4.06784 0
M  V30 5270 C 484.282 -0.114728 3.36705 0
M  V30 5271 O 484.812 -1.0949 3.8649 0
M  V30 5272 N 483.018 -0.16863 2.9011 0
M  V30 5273 H 482.565 0.62967 2.49786 0
M  V30 5274 H 482.523 -1.03383 2.96916 0
M  V30 5275 N 486.295 -0.989507 1.22664 0
M  V30 5276 C 487.706 -1.54406 1.04955 0
M  V30 5277 C 488.057 -1.92366 -0.385951 0
M  V30 5278 O 487.182 -1.75111 -1.27142 0
M  V30 5279 C 487.777 -2.80578 1.89899 0
M  V30 5280 C 486.336 -3.32464 1.76478 0
M  V30 5281 C 485.483 -2.05524 1.86159 0
M  V30 5282 H 488.434 -0.810211 1.3646 0
M  V30 5283 H 488.455 -3.53075 1.4184 0
M  V30 5284 H 487.967 -2.52918 2.94371 0
M  V30 5285 H 486.068 -3.65024 0.747528 0
M  V30 5286 H 486.181 -4.02838 2.59342 0
M  V30 5287 H 484.545 -2.19241 1.29636 0
M  V30 5288 H 485.328 -1.80258 2.92168 0
M  V30 5289 N 487.773 -1.03688 -1.18687 0
M  V30 5290 C 489.021 -0.736572 -1.88199 0
M  V30 5291 C 489.342 0.737665 -1.80509 0
M  V30 5292 O 488.612 1.53204 -1.22088 0
M  V30 5293 H 487.192 -0.269466 -0.696704 0
M  V30 5294 H 489.854 -1.31282 -1.44052 0
M  V30 5295 H 488.95 -1.03802 -2.94332 0
M  V30 5296 N 489.251 1.34841 -0.815825 0
M  V30 5297 C 490.201 2.27075 -0.205169 0
M  V30 5298 C 491.185 1.48205 0.626414 0
M  V30 5299 O 492.377 1.70306 0.482157 0
M  V30 5300 C 489.506 3.37322 0.637871 0
M  V30 5301 C 488.592 4.23609 -0.203948 0
M  V30 5302 N 488.983 4.89558 -1.27149 0
M  V30 5303 C 487.281 4.45998 0.0128971 0
M  V30 5304 C 487.982 5.53597 -1.7862 0
M  V30 5305 N 486.958 5.32535 -1.0912 0
M  V30 5306 H 490.76 2.75563 -1.02187 0
M  V30 5307 H 488.274 1.48477 -0.657912 0
M  V30 5308 H 490.271 4.02359 1.09146 0
M  V30 5309 H 488.931 2.90385 1.45281 0
M  V30 5310 H 489.942 4.9077 -1.65423 0
M  V30 5311 H 486.619 4.09837 0.79624 0
M  V30 5312 H 488.009 6.16184 -2.67892 0
M  V30 5313 N 490.729 0.570148 1.46925 0
M  V30 5314 C 491.959 0.0561151 2.06524 0
M  V30 5315 C 492.367 -1.24874 1.42137 0
M  V30 5316 O 491.71 -1.76292 0.516417 0
M  V30 5317 C 491.772 -0.197035 3.5896 0
M  V30 5318 C 491.436 1.02033 4.45464 0
M  V30 5319 C 492.433 1.92921 4.82781 0
M  V30 5320 C 490.118 1.23864 4.86788 0
M  V30 5321 C 492.112 3.03999 5.60235 0
M  V30 5322 C 489.799 2.35249 5.64004 0
M  V30 5323 C 490.797 3.25146 6.0064 0
M  V30 5324 O 490.485 4.34598 6.76299 0
M  V30 5325 H 490.217 0.0487409 0.674241 0
M  V30 5326 H 492.771 0.786915 1.89728 0
M  V30 5327 H 491.001 -0.982299 3.74016 0
M  V30 5328 H 492.69 -0.658032 4.00531 0
M  V30 5329 H 493.456 1.77265 4.51444 0
M  V30 5330 H 489.335 0.54805 4.57731 0
M  V30 5331 H 492.879 3.74192 5.8875 0
M  V30 5332 H 488.776 2.50873 5.94755 0
M  V30 5333 H 489.544 4.32808 6.94708 0
M  V30 5334 N 492.207 -1.54576 0.307264 0
M  V30 5335 C 493.137 -2.26708 -0.55907 0
M  V30 5336 C 494.118 -1.26893 -1.1328 0
M  V30 5337 O 495.303 -1.55677 -1.16097 0
M  V30 5338 C 492.433 -3.01259 -1.72801 0
M  V30 5339 C 491.387 -4.08275 -1.28435 0
M  V30 5340 C 490.713 -4.70575 -2.53895 0
M  V30 5341 C 492.013 -5.2068 -0.411038 0
M  V30 5342 H 493.707 -2.9937 0.042576 0
M  V30 5343 H 491.253 -1.43983 0.0219173 0
M  V30 5344 H 493.206 -3.50444 -2.34023 0
M  V30 5345 H 491.93 -2.26187 -2.356 0
M  V30 5346 H 490.589 -3.59949 -0.695161 0
M  V30 5347 H 490.237 -3.92136 -3.15021 0
M  V30 5348 H 489.937 -5.42854 -2.24908 0
M  V30 5349 H 491.461 -5.22527 -3.15908 0
M  V30 5350 H 492.875 -5.65721 -0.929097 0
M  V30 5351 H 491.272 -5.99716 -0.214664 0
M  V30 5352 H 492.342 -4.81629 0.562287 0
M  V30 5353 N 493.685 -0.035106 -1.57561 0
M  V30 5354 C 494.933 0.64096 -1.91667 0
M  V30 5355 C 495.254 1.72323 -0.912681 0
M  V30 5356 O 494.524 1.95849 0.0449089 0
M  V30 5357 H 493.104 0.239743 -0.707483 0
M  V30 5358 H 495.766 -0.084321 -1.94718 0
M  V30 5359 H 494.862 1.08987 -2.92452 0
M  V30 5360 N 495.163 1.55791 0.238111 0
M  V30 5361 C 496.113 1.87444 1.29803 0
M  V30 5362 C 497.097 0.736043 1.43078 0
M  V30 5363 O 498.289 0.998146 1.46171 0
M  V30 5364 C 495.418 2.18028 2.65177 0
M  V30 5365 C 494.504 3.38217 2.55871 0
M  V30 5366 N 494.895 4.57264 2.16202 0
M  V30 5367 C 493.193 3.41502 2.86866 0
M  V30 5368 C 493.894 5.3941 2.17744 0
M  V30 5369 N 492.87 4.78695 2.57589 0
M  V30 5370 H 496.672 2.7701 0.981965 0
M  V30 5371 H 494.186 1.56135 0.44672 0
M  V30 5372 H 496.183 2.38873 3.4168 0
M  V30 5373 H 494.843 1.29765 2.97643 0
M  V30 5374 H 495.854 4.82727 1.87602 0
M  V30 5375 H 492.531 2.63536 3.23813 0
M  V30 5376 H 493.921 6.44671 1.89339 0
M  V30 5377 N 496.642 -0.504142 1.49319 0
M  V30 5378 C 497.572 -1.61473 1.68667 0
M  V30 5379 C 498.553 -1.61455 0.535378 0
M  V30 5380 O 499.738 -1.78245 0.770868 0
M  V30 5381 C 496.868 -2.99971 1.75028 0
M  V30 5382 C 495.822 -3.14854 2.89916 0
M  V30 5383 C 495.148 -4.54671 2.81387 0
M  V30 5384 C 496.448 -2.95176 4.30893 0
M  V30 5385 H 498.142 -1.45535 2.61648 0
M  V30 5386 H 495.688 -0.698711 1.25913 0
M  V30 5387 H 497.641 -3.77562 1.8715 0
M  V30 5388 H 496.365 -3.1699 0.786441 0
M  V30 5389 H 495.024 -2.39687 2.77391 0
M  V30 5390 H 494.672 -4.68562 1.82917 0
M  V30 5391 H 494.372 -4.6557 3.58494 0
M  V30 5392 H 495.896 -5.34327 2.95512 0
M  V30 5393 H 497.31 -3.62538 4.44116 0
M  V30 5394 H 495.707 -3.17549 5.09198 0
M  V30 5395 H 496.777 -1.91332 4.45556 0
M  V30 5396 N 498.12 -1.38341 -0.754957 0
M  V30 5397 C 499.369 -1.33791 -1.5094 0
M  V30 5398 C 499.682 0.0699267 -1.95475 0
M  V30 5399 O 500.888 0.237956 -2.70455 0
M  V30 5400 C 499.344 -2.34934 -2.72643 0
M  V30 5401 C 498.952 -3.81332 -2.35138 0
M  V30 5402 C 500.696 -2.39425 -3.50536 0
M  V30 5403 C 498.603 -4.74164 -3.53444 0
M  V30 5404 H 497.533 -0.497314 -0.566741 0
M  V30 5405 H 500.184 -1.63888 -0.825403 0
M  V30 5406 H 498.566 -1.97878 -3.43017 0
M  V30 5407 H 499.74 -4.27319 -1.7244 0
M  V30 5408 H 498.055 -3.79946 -1.70382 0
M  V30 5409 H 500.652 -3.0598 -4.38498 0
M  V30 5410 H 500.995 -1.41278 -3.91594 0
M  V30 5411 H 501.528 -2.75274 -2.87174 0
M  V30 5412 H 498.267 -5.73501 -3.17453 0
M  V30 5413 H 497.787 -4.3287 -4.15191 0
M  V30 5414 H 499.466 -4.92111 -4.20043 0
M  V30 5415 N 499.598 0.982988 -1.23187 0
M  V30 5416 C 500.846 1.72052 -1.06031 0
M  V30 5417 C 501.167 1.90769 0.404019 0
M  V30 5418 O 500.437 1.47446 1.28982 0
M  V30 5419 H 499.017 0.637499 -0.389363 0
M  V30 5420 H 501.679 1.18338 -1.54862 0
M  V30 5421 H 500.775 2.7111 -1.54615 0
M  V30 5422 N 501.076 1.04316 1.18135 0
M  V30 5423 C 502.026 0.606731 2.19779 0
M  V30 5424 C 503.01 -0.352144 1.56999 0
M  V30 5425 O 504.202 -0.170795 1.76174 0
M  V30 5426 C 501.331 -0.0262443 3.4329 0
M  V30 5427 C 500.417 0.955928 4.13186 0
M  V30 5428 N 500.808 2.12395 4.59045 0
M  V30 5429 C 499.106 0.782473 4.39082 0
M  V30 5430 C 499.807 2.74458 5.12882 0
M  V30 5431 N 498.783 2.02316 5.04548 0
M  V30 5432 H 502.585 1.49679 2.5293 0
M  V30 5433 H 500.099 0.912088 1.34368 0
M  V30 5434 H 502.096 -0.356617 4.15372 0
M  V30 5435 H 500.756 -0.911811 3.11635 0
M  V30 5436 H 501.767 2.50272 4.53414 0
M  V30 5437 H 498.444 -0.0527906 4.17467 0
M  V30 5438 H 499.834 3.73459 5.5855 0
M  V30 5439 N 502.554 -1.34406 0.822964 0
M  V30 5440 C 503.464 -2.33298 0.246838 0
M  V30 5441 C 504.48 -1.62625 -0.618797 0
M  V30 5442 O 505.656 -1.94391 -0.526685 0
M  V30 5443 C 502.721 -3.41785 -0.581731 0
M  V30 5444 C 501.782 -4.28206 0.306309 0
M  V30 5445 C 501.015 -5.31512 -0.48281 0
M  V30 5446 O 501.238 -5.43973 -1.71607 0
M  V30 5447 O 500.172 -6.01749 0.134884 0
M  V30 5448 H 503.998 -2.84401 1.06534 0
M  V30 5449 H 501.583 -1.37466 0.585108 0
M  V30 5450 H 503.465 -4.08028 -1.05313 0
M  V30 5451 H 502.14 -2.92925 -1.37756 0
M  V30 5452 H 501.047 -3.64885 0.825199 0
M  V30 5453 H 502.38 -4.80507 1.06649 0
M  V30 5454 N 504.032 -0.577932 -1.46621 0
M  V30 5455 C 505.28 -0.061566 -2.02006 0
M  V30 5456 C 505.601 1.30117 -1.4524 0
M  V30 5457 O 504.871 1.85313 -0.63529 0
M  V30 5458 H 503.451 -0.0197692 -0.746738 0
M  V30 5459 H 506.113 -0.752631 -1.79782 0
M  V30 5460 H 505.209 0.0110238 -3.12098 0
M  V30 5461 N 505.51 1.54411 -0.315457 0
M  V30 5462 C 506.921 1.85885 0.174265 0
M  V30 5463 C 507.272 1.23723 1.52273 0
M  V30 5464 O 506.397 0.540246 2.09548 0
M  V30 5465 C 506.992 3.37257 0.322981 0
M  V30 5466 C 505.551 3.68711 0.756922 0
M  V30 5467 C 504.698 2.77013 -0.126195 0
M  V30 5468 H 507.649 1.49374 -0.536007 0
M  V30 5469 H 507.67 3.62539 1.15522 0
M  V30 5470 H 507.182 3.82471 -0.658602 0
M  V30 5471 H 505.283 3.29024 1.74854 0
M  V30 5472 H 505.396 4.75741 0.566291 0
M  V30 5473 H 503.76 2.51588 0.39692 0
M  V30 5474 H 504.543 3.25051 -1.1044 0
M  V30 5475 N 506.988 0.0434614 1.5754 0
M  V30 5476 C 508.236 -0.630786 1.92004 0
M  V30 5477 C 508.557 -1.71836 0.921807 0
M  V30 5478 O 507.827 -1.9587 -0.034522 0
M  V30 5479 H 506.407 -0.235988 0.708745 0
M  V30 5480 H 509.069 0.0946462 1.9467 0
M  V30 5481 H 508.165 -1.07434 2.93026 0
M  V30 5482 N 508.466 -1.55915 -0.229846 0
M  V30 5483 C 509.691 -1.8296 -0.976743 0
M  V30 5484 C 510.116 -0.622735 -1.77493 0
M  V30 5485 O 509.474 0.428431 -1.76165 0
M  V30 5486 C 509.522 -3.07916 -1.8767 0
M  V30 5487 O 508.626 -2.86028 -2.97088 0
M  V30 5488 H 507.967 -0.603453 -0.277021 0
M  V30 5489 H 510.497 -2.0312 -0.245669 0
M  V30 5490 H 510.507 -3.37802 -2.2881 0
M  V30 5491 H 509.182 -3.95389 -1.28996 0
M  V30 5492 H 507.759 -2.67355 -2.59954 0
M  V30 5493 N 509.944 0.496216 -1.49584 0
M  V30 5494 C 510.874 1.60576 -1.69521 0
M  V30 5495 C 511.855 1.61169 -0.543933 0
M  V30 5496 O 513.04 1.77834 -0.78031 0
M  V30 5497 C 510.17 2.99038 -1.76616 0
M  V30 5498 C 509.124 3.13312 -2.91581 0
M  V30 5499 C 508.45 4.53172 -2.83794 0
M  V30 5500 C 509.75 2.92886 -4.32452 0
M  V30 5501 H 511.444 1.44146 -2.62416 0
M  V30 5502 H 508.99 0.692024 -1.26282 0
M  V30 5503 H 510.943 3.76564 -1.8915 0
M  V30 5504 H 509.667 3.16568 -0.80324 0
M  V30 5505 H 508.326 2.38213 -2.78658 0
M  V30 5506 H 507.974 4.67585 -1.854 0
M  V30 5507 H 507.674 4.63662 -3.60958 0
M  V30 5508 H 509.198 5.32752 -2.98342 0
M  V30 5509 H 510.612 3.60178 -4.46032 0
M  V30 5510 H 509.009 3.14844 -5.10875 0
M  V30 5511 H 510.079 1.88966 -4.46565 0
M  V30 5512 N 511.423 1.38739 0.74761 0
M  V30 5513 C 512.353 1.39173 1.87492 0
M  V30 5514 C 513.334 0.256794 1.6815 0
M  V30 5515 O 514.519 0.460762 1.88655 0
M  V30 5516 C 511.649 1.22197 3.25093 0
M  V30 5517 C 510.603 2.32957 3.59047 0
M  V30 5518 C 509.929 2.01082 4.95449 0
M  V30 5519 C 511.229 3.75237 3.6331 0
M  V30 5520 H 512.923 2.3351 1.87386 0
M  V30 5521 H 510.469 1.12399 0.900134 0
M  V30 5522 H 512.422 1.21124 4.03617 0
M  V30 5523 H 511.146 0.243241 3.25693 0
M  V30 5524 H 509.805 2.33226 2.82845 0
M  V30 5525 H 509.453 1.01678 4.92616 0
M  V30 5526 H 509.153 2.75267 5.19136 0
M  V30 5527 H 510.677 2.01638 5.76346 0
M  V30 5528 H 512.091 3.76966 4.31937 0
M  V30 5529 H 510.488 4.48677 3.98509 0
M  V30 5530 H 511.558 4.07122 2.634 0
M  V30 5531 N 512.901 -0.976442 1.23707 0
M  V30 5532 C 514.126 -1.75875 1.09922 0
M  V30 5533 C 514.551 -1.84911 -0.34489 0
M  V30 5534 O 513.909 -1.31363 -1.24954 0
M  V30 5535 C 513.957 -3.16179 1.73388 0
M  V30 5536 O 513.061 -4.00124 0.99871 0
M  V30 5537 H 512.402 -0.540954 0.385052 0
M  V30 5538 H 514.932 -1.22546 1.6384 0
M  V30 5539 H 514.942 -3.66741 1.78788 0
M  V30 5540 H 513.617 -3.08917 2.78466 0
M  V30 5541 H 512.194 -3.58624 1.02193 0
M  V30 5542 N 514.379 -1.04941 -1.1758 0
M  V30 5543 C 515.289 -0.658826 -2.25159 0
M  V30 5544 C 516.305 0.318941 -1.71052 0
M  V30 5545 O 517.481 0.171669 -2.00667 0
M  V30 5546 C 514.546 -0.0369522 -3.4668 0
M  V30 5547 C 513.607 -1.06484 -4.15884 0
M  V30 5548 C 512.84 -0.472551 -5.31604 0
M  V30 5549 O 513.063 0.718736 -5.65854 0
M  V30 5550 O 511.997 -1.20557 -5.89703 0
M  V30 5551 H 515.823 -1.55533 -2.60851 0
M  V30 5552 H 513.408 -0.820819 -1.24832 0
M  V30 5553 H 515.29 0.308784 -4.20267 0
M  V30 5554 H 513.965 0.833238 -3.12792 0
M  V30 5555 H 512.872 -1.46253 -3.44327 0
M  V30 5556 H 514.205 -1.9061 -4.53794 0
M  V30 5557 N 515.857 1.33968 -0.830081 0
M  V30 5558 C 516.787 2.31911 -0.271911 0
M  V30 5559 C 517.768 1.58571 0.61556 0
M  V30 5560 O 518.953 1.86514 0.540946 0
M  V30 5561 C 516.083 3.42737 0.561146 0
M  V30 5562 C 515.037 4.27383 -0.229789 0
M  V30 5563 C 514.363 5.29742 0.726463 0
M  V30 5564 C 515.663 5.02 -1.44197 0
M  V30 5565 H 517.357 2.78844 -1.09025 0
M  V30 5566 H 514.903 1.34061 -0.52571 0
M  V30 5567 H 516.856 4.10276 0.961867 0
M  V30 5568 H 515.58 2.94471 1.41261 0
M  V30 5569 H 514.239 3.61456 -0.611964 0
M  V30 5570 H 513.887 4.77736 1.57408 0
M  V30 5571 H 513.587 5.87255 0.20142 0
M  V30 5572 H 515.111 6.00149 1.12489 0
M  V30 5573 H 516.525 5.62355 -1.11488 0
M  V30 5574 H 514.922 5.69122 -1.90317 0
M  V30 5575 H 515.992 4.31281 -2.2164 0
M  V30 5576 N 517.335 0.585699 1.46312 0
M  V30 5577 C 518.282 -0.145835 2.30339 0
M  V30 5578 C 519.252 -0.881215 1.40797 0
M  V30 5579 O 520.437 -0.871293 1.69744 0
M  V30 5580 C 517.577 -1.15161 3.25318 0
M  V30 5581 C 516.69 -0.419367 4.2996 0
M  V30 5582 C 515.825 -1.41293 5.12064 0
M  V30 5583 C 514.864 -0.667261 6.08452 0
M  V30 5584 N 514.001 -1.60903 6.83414 0
M  V30 5585 H 518.841 0.576755 2.92365 0
M  V30 5586 H 516.378 0.296237 1.44086 0
M  V30 5587 H 518.336 -1.74763 3.78832 0
M  V30 5588 H 516.966 -1.84188 2.65094 0
M  V30 5589 H 516.018 0.291751 3.7928 0
M  V30 5590 H 517.33 0.163433 4.98532 0
M  V30 5591 H 516.484 -2.08167 5.6987 0
M  V30 5592 H 515.223 -2.02966 4.43459 0
M  V30 5593 H 514.228 0.0152356 5.49798 0
M  V30 5594 H 515.453 -0.0558817 6.79077 0
M  V30 5595 H 513.399 -2.21381 6.17516 0
M  V30 5596 H 513.316 -1.07911 7.48259 0
M  V30 5597 H 514.584 -2.26802 7.45775 0
M  V30 5598 N 518.813 -1.54241 0.323641 0
M  V30 5599 C 520.038 -2.05452 -0.283605 0
M  V30 5600 C 520.463 -1.19823 -1.44997 0
M  V30 5601 O 519.821 -0.207358 -1.8011 0
M  V30 5602 C 519.869 -3.53823 -0.695795 0
M  V30 5603 O 518.973 -3.71134 -1.79815 0
M  V30 5604 H 518.314 -0.662024 -0.0511917 0
M  V30 5605 H 520.844 -1.99079 0.472073 0
M  V30 5606 H 520.854 -3.96094 -0.978434 0
M  V30 5607 H 519.529 -4.15602 0.157287 0
M  V30 5608 H 518.106 -3.40768 -1.51431 0
M  V30 5609 N 520.291 -0.0518155 -1.57515 0
M  V30 5610 C 521.238 0.922352 -2.11569 0
M  V30 5611 C 522.208 1.30842 -1.02321 0
M  V30 5612 O 523.393 1.39778 -1.29872 0
M  V30 5613 C 520.533 2.19167 -2.6657 0
M  V30 5614 C 519.646 1.86003 -3.89906 0
M  V30 5615 C 518.781 3.07398 -4.33221 0
M  V30 5616 C 517.82 2.70158 -5.49255 0
M  V30 5617 N 516.957 3.84248 -5.8762 0
M  V30 5618 H 521.797 0.454506 -2.94514 0
M  V30 5619 H 519.334 0.212718 -1.45554 0
M  V30 5620 H 521.292 2.93443 -2.96559 0
M  V30 5621 H 519.922 2.63528 -1.86421 0
M  V30 5622 H 518.974 1.01874 -3.66505 0
M  V30 5623 H 520.286 1.54592 -4.74239 0
M  V30 5624 H 519.44 3.89972 -4.64765 0
M  V30 5625 H 518.179 3.41988 -3.477 0
M  V30 5626 H 517.184 1.86001 -5.17382 0
M  V30 5627 H 518.409 2.36759 -6.36492 0
M  V30 5628 H 516.355 4.18638 -5.05053 0
M  V30 5629 H 516.272 3.56538 -6.66646 0
M  V30 5630 H 517.54 4.6746 -6.2378 0
M  V30 5631 N 521.769 1.56035 0.221574 0
M  V30 5632 C 523.017 1.78693 0.944102 0
M  V30 5633 C 523.338 0.620317 1.8487 0
M  V30 5634 O 522.608 -0.362784 1.92512 0
M  V30 5635 H 521.188 0.659082 0.351597 0
M  V30 5636 H 523.85 1.93497 0.233435 0
M  V30 5637 H 522.946 2.70837 1.55093 0
M  V30 5638 N 523.247 -0.488276 1.49845 0
M  V30 5639 C 524.493 -1.24065 1.61182 0
M  V30 5640 C 524.848 -1.9004 0.300435 0
M  V30 5641 O 524.141 -1.78341 -0.700365 0
M  V30 5642 C 524.335 -2.32152 2.71735 0
M  V30 5643 C 524.164 -1.76778 4.13497 0
M  V30 5644 C 522.934 -1.57513 4.80123 0
M  V30 5645 C 525.132 -1.27242 4.98311 0
M  V30 5646 N 523.114 -0.972015 6.06156 0
M  V30 5647 C 524.485 -0.791457 6.14928 0
M  V30 5648 C 526.54 -1.15934 4.84214 0
M  V30 5649 C 525.243 -0.208593 7.18997 0
M  V30 5650 C 527.269 -0.590436 5.88445 0
M  V30 5651 C 526.631 -0.119767 7.04298 0
M  V30 5652 H 522.73 -0.443487 0.644083 0
M  V30 5653 H 525.314 -0.545551 1.86901 0
M  V30 5654 H 523.485 -2.99108 2.47768 0
M  V30 5655 H 525.217 -2.99187 2.72523 0
M  V30 5656 H 521.972 -1.82247 4.37131 0
M  V30 5657 H 522.396 -0.689367 6.73481 0
M  V30 5658 H 527.038 -1.5092 3.94947 0
M  V30 5659 H 524.756 0.153501 8.07954 0
M  V30 5660 H 528.342 -0.505548 5.79599 0
M  V30 5661 H 527.222 0.313568 7.83573 0
M  V30 5662 N 524.725 -1.39134 -0.740242 0
M  V30 5663 C 525.971 -1.36273 -1.50192 0
M  V30 5664 C 526.304 0.0430136 -1.94152 0
M  V30 5665 O 525.579 1.00691 -1.66408 0
M  V30 5666 C 525.862 -2.33041 -2.74525 0
M  V30 5667 C 525.715 -3.82535 -2.36617 0
M  V30 5668 C 527.034 -2.27723 -3.76604 0
M  V30 5669 H 524.153 -0.496323 -0.544823 0
M  V30 5670 H 526.795 -1.70085 -0.846815 0
M  V30 5671 H 524.945 -2.04337 -3.30422 0
M  V30 5672 H 526.617 -4.21967 -1.86391 0
M  V30 5673 H 524.86 -3.99565 -1.68909 0
M  V30 5674 H 525.531 -4.45723 -3.2563 0
M  V30 5675 H 528.007 -2.53091 -3.30279 0
M  V30 5676 H 526.883 -2.97519 -4.61274 0
M  V30 5677 H 527.144 -1.28049 -4.2315 0
M  V30 5678 N 526.204 0.969867 -1.24223 0
M  V30 5679 C 527.152 2.08535 -1.03034 0
M  V30 5680 C 528.146 1.69366 0.0340379 0
M  V30 5681 O 529.352 1.79597 -0.12034 0
M  V30 5682 H 525.727 0.682313 -0.316154 0
M  V30 5683 H 527.698 2.23569 -1.97635 0
M  V30 5684 C 526.447 3.4158 -0.649509 0
M  V30 5685 H 525.77 3.72177 -1.46028 0
M  V30 5686 H 527.21 4.20536 -0.540841 0
M  V30 5687 C 525.669 3.30703 0.643194 0
M  V30 5688 O 526.199 3.64443 1.68951 0
M  V30 5689 N 524.405 2.83841 0.623095 0
M  V30 5690 H 523.952 2.56583 -0.228719 0
M  V30 5691 H 523.91 2.76946 1.48823 0
M  V30 5692 N 527.682 1.05563 1.17022 0
M  V30 5693 C 528.91 0.78845 1.91288 0
M  V30 5694 C 529.325 -0.656318 1.77025 0
M  V30 5695 O 528.682 -1.44869 1.10992 0
M  V30 5696 C 528.733 1.16444 3.42232 0
M  V30 5697 O 528.454 2.5525 3.5606 0
M  V30 5698 C 529.955 0.923937 4.33565 0
M  V30 5699 H 527.175 0.286389 0.606813 0
M  V30 5700 H 529.719 1.4073 1.48375 0
M  V30 5701 H 527.874 0.590266 3.82877 0
M  V30 5702 H 528.288 2.70097 4.49609 0
M  V30 5703 H 529.762 1.23672 5.37968 0
M  V30 5704 H 530.239 -0.140688 4.38975 0
M  V30 5705 H 530.845 1.48214 3.98639 0
M  V30 5706 N 529.16 -1.33526 0.837174 0
M  V30 5707 C 530.09 -2.31764 0.284206 0
M  V30 5708 C 531.071 -1.58896 -0.607142 0
M  V30 5709 O 532.256 -1.86798 -0.531047 0
M  V30 5710 C 529.386 -3.43029 -0.542962 0
M  V30 5711 C 528.34 -4.27255 0.252451 0
M  V30 5712 C 527.666 -5.3012 -0.69836 0
M  V30 5713 C 528.966 -5.01229 1.46858 0
M  V30 5714 H 530.66 -2.78262 1.10502 0
M  V30 5715 H 528.206 -1.3378 0.532812 0
M  V30 5716 H 530.159 -4.1078 -0.940096 0
M  V30 5717 H 528.883 -2.95216 -1.39697 0
M  V30 5718 H 527.542 -3.61127 0.631124 0
M  V30 5719 H 527.19 -4.78564 -1.54872 0
M  V30 5720 H 526.89 -5.87353 -0.170274 0
M  V30 5721 H 528.414 -6.00737 -1.09305 0
M  V30 5722 H 529.828 -5.61756 1.14469 0
M  V30 5723 H 528.225 -5.68104 1.93333 0
M  V30 5724 H 529.295 -4.301 2.23924 0
M  V30 5725 N 530.638 -0.59345 -1.46 0
M  V30 5726 C 531.884 -0.0832754 -2.02629 0
M  V30 5727 C 532.217 1.27749 -1.46266 0
M  V30 5728 O 531.492 1.8395 -0.631866 0
M  V30 5729 C 531.775 -0.0290756 -3.60088 0
M  V30 5730 C 531.628 -1.41951 -4.26814 0
M  V30 5731 C 532.947 0.666055 -4.35031 0
M  V30 5732 H 530.066 -0.031736 -0.736316 0
M  V30 5733 H 532.708 -0.762711 -1.74019 0
M  V30 5734 H 530.858 0.549532 -3.84594 0
M  V30 5735 H 532.53 -2.04411 -4.13538 0
M  V30 5736 H 530.773 -1.98422 -3.8576 0
M  V30 5737 H 531.444 -1.33395 -5.3564 0
M  V30 5738 H 533.92 0.174401 -4.15734 0
M  V30 5739 H 532.796 0.673041 -5.44758 0
M  V30 5740 H 533.057 1.72946 -4.06869 0
M  V30 5741 N 532.116 1.54067 -0.331816 0
M  V30 5742 C 533.364 2.00319 0.267739 0
M  V30 5743 C 533.685 1.22148 1.52003 0
M  V30 5744 O 532.955 0.325494 1.93177 0
M  V30 5745 H 531.535 0.740014 0.101922 0
M  V30 5746 H 534.197 1.89628 -0.450267 0
M  V30 5747 H 533.293 3.07765 0.518385 0
M  V30 5748 N 533.594 0.0601682 1.57485 0
M  V30 5749 C 534.842 -0.610386 1.92662 0
M  V30 5750 C 535.163 -1.70849 0.939981 0
M  V30 5751 O 534.433 -1.95895 -0.0137455 0
M  V30 5752 H 533.013 -0.228457 0.711208 0
M  V30 5753 H 535.675 0.115288 1.94559 0
M  V30 5754 H 534.771 -1.0432 2.94149 0
M  V30 5755 N 535.072 -1.5615 -0.213296 0
M  V30 5756 C 536.004 -1.89586 -1.28802 0
M  V30 5757 C 537.017 -0.784844 -1.42633 0
M  V30 5758 O 538.206 -1.06319 -1.43383 0
M  V30 5759 C 535.306 -2.09665 -2.66259 0
M  V30 5760 C 534.479 -3.40726 -2.7427 0
M  V30 5761 C 533.538 -3.50137 -3.92798 0
M  V30 5762 O 532.564 -4.23105 -3.8075 0
M  V30 5763 N 533.766 -2.81886 -5.07465 0
M  V30 5764 H 536.531 -2.82368 -1.00442 0
M  V30 5765 H 534.092 -1.56796 -0.403302 0
M  V30 5766 H 536.084 -2.13268 -3.43946 0
M  V30 5767 H 534.654 -1.23469 -2.87183 0
M  V30 5768 H 533.874 -3.4915 -1.82997 0
M  V30 5769 H 535.162 -4.27048 -2.76599 0
M  V30 5770 H 534.56 -2.22397 -5.2015 0
M  V30 5771 H 533.117 -2.91139 -5.83165 0
M  V30 5772 N 536.55 0.480323 -1.50102 0
M  V30 5773 C 537.497 1.57946 -1.6829 0
M  V30 5774 C 538.467 1.57611 -0.524223 0
M  V30 5775 O 539.652 1.75282 -0.753709 0
M  V30 5776 C 536.792 2.95978 -1.77457 0
M  V30 5777 C 535.905 3.06173 -3.04766 0
M  V30 5778 C 535.04 4.35063 -3.04784 0
M  V30 5779 C 534.079 4.38966 -4.26586 0
M  V30 5780 N 533.216 5.59314 -4.24396 0
M  V30 5781 H 538.056 1.41743 -2.62131 0
M  V30 5782 H 535.593 0.689304 -1.2995 0
M  V30 5783 H 537.551 3.76011 -1.80752 0
M  V30 5784 H 536.181 3.10837 -0.870637 0
M  V30 5785 H 535.233 2.19071 -3.10986 0
M  V30 5786 H 536.545 3.04916 -3.9475 0
M  V30 5787 H 535.699 5.23436 -3.06757 0
M  V30 5788 H 534.438 4.38915 -2.12614 0
M  V30 5789 H 533.443 3.48992 -4.24835 0
M  V30 5790 H 534.668 4.36813 -5.19972 0
M  V30 5791 H 532.614 5.63969 -3.35074 0
M  V30 5792 H 532.531 5.5976 -5.08138 0
M  V30 5793 H 533.799 6.49837 -4.30502 0
M  V30 5794 N 538.028 1.39524 0.732853 0
M  V30 5795 C 538.938 1.40695 1.87729 0
M  V30 5796 C 539.954 0.301496 1.71368 0
M  V30 5797 O 541.13 0.543313 1.93933 0
M  V30 5798 C 538.195 1.25098 3.23344 0
M  V30 5799 C 537.256 2.45634 3.52083 0
M  V30 5800 C 536.489 2.30772 4.81228 0
M  V30 5801 O 536.712 1.31233 5.55098 0
M  V30 5802 O 535.646 3.19799 5.09914 0
M  V30 5803 H 539.472 2.37168 1.89697 0
M  V30 5804 H 537.057 1.20663 0.880959 0
M  V30 5805 H 538.939 1.18541 4.04383 0
M  V30 5806 H 537.614 0.317209 3.22142 0
M  V30 5807 H 536.521 2.57767 2.71122 0
M  V30 5808 H 537.854 3.37712 3.58066 0
M  V30 5809 N 539.506 -0.963266 1.24736 0
M  V30 5810 C 540.754 -1.70343 1.08755 0
M  V30 5811 C 541.075 -1.91387 -0.373619 0
M  V30 5812 O 540.345 -1.4948 -1.2662 0
M  V30 5813 H 538.925 -0.631224 0.399456 0
M  V30 5814 H 541.587 -1.15859 1.56725 0
M  V30 5815 H 540.683 -2.68616 1.58909 0
M  V30 5816 N 540.985 -1.06182 -1.16461 0
M  V30 5817 C 541.948 -0.675723 -2.19013 0
M  V30 5818 C 542.948 0.277963 -1.58379 0
M  V30 5819 O 544.138 0.0604962 -1.74095 0
M  V30 5820 C 541.27 0.00591459 -3.40899 0
M  V30 5821 H 542.463 -1.58353 -2.54685 0
M  V30 5822 H 540.016 -0.856908 -1.30716 0
M  V30 5823 H 540.751 0.92652 -3.10783 0
M  V30 5824 H 540.536 -0.67984 -3.86161 0
M  V30 5825 H 542.026 0.26181 -4.16778 0
M  V30 5826 N 542.463 1.3308 -0.844243 0
M  V30 5827 C 543.879 1.50447 -0.532729 0
M  V30 5828 C 544.079 1.78292 0.938837 0
M  V30 5829 O 543.135 1.84635 1.72239 0
M  V30 5830 C 544.448 2.65555 -1.41072 0
M  V30 5831 C 545.996 2.7944 -1.41005 0
M  V30 5832 C 546.471 3.97616 -2.27301 0
M  V30 5833 N 547.962 4.0486 -2.2504 0
M  V30 5834 C 548.697 4.95508 -2.88547 0
M  V30 5835 N 548.193 5.91236 -3.61126 0
M  V30 5836 N 549.986 4.88548 -2.77989 0
M  V30 5837 H 542.137 1.13269 -1.79677 0
M  V30 5838 H 544.4 0.55734 -0.766861 0
M  V30 5839 H 544.106 2.51675 -2.45668 0
M  V30 5840 H 543.98 3.61089 -1.09061 0
M  V30 5841 H 546.367 2.92749 -0.371784 0
M  V30 5842 H 546.448 1.8465 -1.77026 0
M  V30 5843 H 546.092 3.85066 -3.3119 0
M  V30 5844 H 546.022 4.91661 -1.88619 0
M  V30 5845 H 548.513 3.36353 -1.72264 0
M  V30 5846 H 548.826 6.57079 -4.06776 0
M  V30 5847 H 547.171 5.91295 -3.65234 0
M  V30 5848 H 550.362 4.12729 -2.20846 0
M  V30 5849 H 550.535 5.58994 -3.27765 0
M  V30 5850 N 543.941 0.601185 1.45683 0
M  V30 5851 C 545.189 0.0936957 2.01883 0
M  V30 5852 C 545.51 -1.2779 1.47291 0
M  V30 5853 O 544.78 -1.84279 0.664691 0
M  V30 5854 H 543.36 0.0316466 0.746329 0
M  V30 5855 H 546.022 0.781137 1.78562 0
M  V30 5856 H 545.118 0.0386297 3.12076 0
M  V30 5857 N 545.419 -1.53889 0.339982 0
M  V30 5858 C 546.666 -2.00855 -0.257621 0
M  V30 5859 C 546.994 -1.22788 -1.50842 0
M  V30 5860 O 546.249 -0.302567 -1.93347 0
M  V30 5861 C 546.548 -3.51968 -0.620735 0
M  V30 5862 C 546.214 -4.47741 0.532771 0
M  V30 5863 C 544.876 -4.73645 0.849339 0
M  V30 5864 C 547.228 -5.04551 1.3068 0
M  V30 5865 C 544.556 -5.53614 1.94237 0
M  V30 5866 C 546.908 -5.85713 2.39005 0
M  V30 5867 C 545.572 -6.09912 2.71225 0
M  V30 5868 H 544.842 -0.734979 -0.0942703 0
M  V30 5869 H 547.489 -1.85714 0.467159 0
M  V30 5870 H 545.794 -3.64921 -1.42618 0
M  V30 5871 H 547.491 -3.85762 -1.09495 0
M  V30 5872 H 544.081 -4.27711 0.275973 0
M  V30 5873 H 548.265 -4.84507 1.07549 0
M  V30 5874 H 543.521 -5.7059 2.19628 0
M  V30 5875 H 547.695 -6.28748 2.99415 0
M  V30 5876 H 545.322 -6.71665 3.56047 0
M  V30 5877 N 546.897 -0.0685191 -1.57451 0
M  V30 5878 C 547.83 0.935736 -2.08133 0
M  V30 5879 C 548.808 1.29317 -0.985698 0
M  V30 5880 O 549.992 1.40304 -1.25886 0
M  V30 5881 C 547.119 2.2448 -2.53627 0
M  V30 5882 C 546.165 2.03917 -3.74593 0
M  V30 5883 S 546.998 1.30154 -5.19442 0
M  V30 5884 C 548.154 2.62346 -5.68265 0
M  V30 5885 H 548.387 0.504473 -2.92989 0
M  V30 5886 H 545.92 0.144169 -1.53725 0
M  V30 5887 H 547.878 2.99718 -2.80499 0
M  V30 5888 H 546.539 2.64731 -1.69045 0
M  V30 5889 H 545.732 3.00788 -4.04404 0
M  V30 5890 H 545.334 1.36815 -3.48077 0
M  V30 5891 H 547.626 3.58448 -5.7491 0
M  V30 5892 H 548.569 2.3715 -6.67207 0
M  V30 5893 H 548.977 2.69401 -4.96068 0
M  V30 5894 N 548.375 1.56261 0.205012 0
M  V30 5895 C 549.622 1.8004 0.926927 0
M  V30 5896 C 549.95 0.640086 1.83666 0
M  V30 5897 O 549.205 -0.374702 1.92079 0
M  V30 5898 C 549.504 3.09722 1.78345 0
M  V30 5899 C 549.17 4.39082 1.02555 0
M  V30 5900 C 547.832 4.74226 0.816256 0
M  V30 5901 C 550.184 5.18877 0.491559 0
M  V30 5902 C 547.512 5.86668 0.0613287 0
M  V30 5903 C 549.864 6.32105 -0.250107 0
M  V30 5904 C 548.528 6.6584 -0.470508 0
M  V30 5905 H 547.798 0.658812 0.339187 0
M  V30 5906 H 550.445 1.90515 0.19395 0
M  V30 5907 H 548.75 2.9444 2.5848 0
M  V30 5908 H 550.447 3.25324 2.34446 0
M  V30 5909 H 547.037 4.11497 1.19868 0
M  V30 5910 H 551.221 4.92147 0.640684 0
M  V30 5911 H 546.477 6.11283 -0.119501 0
M  V30 5912 H 550.651 6.93157 -0.671307 0
M  V30 5913 H 548.278 7.5281 -1.05739 0
M  V30 5914 N 549.853 -0.472356 1.50355 0
M  V30 5915 C 551.1 -1.22453 1.61281 0
M  V30 5916 C 551.428 -1.91972 0.31256 0
M  V30 5917 O 550.683 -1.82696 -0.701475 0
M  V30 5918 C 550.982 -2.29257 2.74182 0
M  V30 5919 C 550.648 -1.76999 4.14708 0
M  V30 5920 C 549.31 -1.62467 4.52944 0
M  V30 5921 C 551.662 -1.38215 5.0254 0
M  V30 5922 C 548.99 -1.07574 5.76754 0
M  V30 5923 C 551.342 -0.847638 6.26895 0
M  V30 5924 C 550.006 -0.688946 6.63935 0
M  V30 5925 H 549.276 -0.448087 0.590168 0
M  V30 5926 H 551.923 -0.520744 1.84284 0
M  V30 5927 H 550.228 -3.05538 2.45263 0
M  V30 5928 H 551.925 -2.87212 2.7984 0
M  V30 5929 H 548.515 -1.89276 3.84542 0
M  V30 5930 H 552.699 -1.48276 4.73633 0
M  V30 5931 H 547.955 -0.940237 6.04127 0
M  V30 5932 H 552.129 -0.538455 6.94315 0
M  V30 5933 H 549.756 -0.261435 7.5975 0
M  V30 5934 N 551.331 -1.39911 -0.725443 0
M  V30 5935 C 552.58 -1.36963 -1.48068 0
M  V30 5936 C 552.893 0.0284478 -1.95579 0
M  V30 5937 O 554.099 0.180535 -2.70899 0
M  V30 5938 C 552.555 -2.40664 -2.67598 0
M  V30 5939 C 552.163 -3.86234 -2.26997 0
M  V30 5940 C 553.907 -2.46807 -3.45379 0
M  V30 5941 C 551.814 -4.81554 -3.43307 0
M  V30 5942 H 550.744 -0.509223 -0.556065 0
M  V30 5943 H 553.395 -1.65602 -0.790454 0
M  V30 5944 H 551.777 -2.05109 -3.38742 0
M  V30 5945 H 552.951 -4.3088 -1.63337 0
M  V30 5946 H 551.266 -3.83475 -1.62284 0
M  V30 5947 H 553.863 -3.15213 -4.31909 0
M  V30 5948 H 554.206 -1.49552 -3.8851 0
M  V30 5949 H 554.739 -2.81303 -2.81271 0
M  V30 5950 H 551.478 -5.80106 -3.05217 0
M  V30 5951 H 550.998 -4.4158 -4.05915 0
M  V30 5952 H 552.677 -5.0091 -4.0951 0
M  V30 5953 N 552.809 0.956637 -1.25245 0
M  V30 5954 C 554.058 1.69537 -1.0927 0
M  V30 5955 C 554.371 1.92136 0.366503 0
M  V30 5956 O 555.577 2.63687 0.64665 0
M  V30 5957 C 554.033 3.05211 -1.9072 0
M  V30 5958 C 553.641 2.90416 -3.41119 0
M  V30 5959 C 555.385 3.82882 -1.83308 0
M  V30 5960 C 553.292 4.21468 -4.14872 0
M  V30 5961 H 552.222 0.635804 -0.405302 0
M  V30 5962 H 554.873 1.06513 -1.49423 0
M  V30 5963 H 553.255 3.69128 -1.43389 0
M  V30 5964 H 554.429 2.35444 -3.9611 0
M  V30 5965 H 552.744 2.26203 -3.49602 0
M  V30 5966 H 555.341 4.79944 -2.35706 0
M  V30 5967 H 555.684 4.0853 -0.800572 0
M  V30 5968 H 556.217 3.25711 -2.28379 0
M  V30 5969 H 552.956 4.01009 -5.18529 0
M  V30 5970 H 552.476 4.76213 -3.64665 0
M  V30 5971 H 554.155 4.90022 -4.22478 0
M  V30 5972 N 554.287 1.06798 1.15896 0
M  V30 5973 C 555.235 0.677525 2.22514 0
M  V30 5974 C 556.229 -0.308994 1.66558 0
M  V30 5975 O 557.435 -0.173308 1.79164 0
M  V30 5976 H 553.81 0.200994 0.724642 0
M  V30 5977 H 555.781 1.5865 2.52731 0
M  V30 5978 C 554.53 0.0854153 3.47595 0
M  V30 5979 H 553.853 0.835645 3.90969 0
M  V30 5980 H 555.293 -0.150199 4.23734 0
M  V30 5981 C 553.752 -1.1724 3.15843 0
M  V30 5982 O 554.282 -2.25965 3.32119 0
M  V30 5983 N 552.488 -1.07636 2.69931 0
M  V30 5984 H 552.035 -0.191559 2.56887 0
M  V30 5985 H 551.993 -1.91876 2.4906 0
M  V30 5986 N 555.766 -1.3263 0.851289 0
M  V30 5987 C 557.012 -1.9766 0.453694 0
M  V30 5988 C 557.345 -1.67225 -0.987396 0
M  V30 5989 O 556.62 -0.958693 -1.69232 0
M  V30 5990 C 556.903 -3.5344 0.68936 0
M  V30 5991 C 556.756 -3.93517 2.17862 0
M  V30 5992 C 558.075 -4.39866 0.143555 0
M  V30 5993 H 555.194 -0.717989 0.166314 0
M  V30 5994 H 557.836 -1.57068 1.06909 0
M  V30 5995 H 555.986 -3.88147 0.165546 0
M  V30 5996 H 557.658 -3.69006 2.76826 0
M  V30 5997 H 555.901 -3.42798 2.65841 0
M  V30 5998 H 556.572 -5.02065 2.29422 0
M  V30 5999 H 559.048 -4.11875 0.591451 0
M  V30 6000 H 557.924 -5.47858 0.338043 0
M  V30 6001 H 558.185 -4.31696 -0.953466 0
M  V30 6002 N 557.244 -0.608902 -1.45362 0
M  V30 6003 C 558.521 -0.0365378 -1.95566 0
M  V30 6004 C 558.901 1.43169 -1.55131 0
M  V30 6005 O 558.249 2.1349 -0.814513 0
M  V30 6006 C 558.459 -0.236026 -3.48201 0
M  V30 6007 C 559.807 -0.117518 -4.24437 0
M  V30 6008 O 560.831 -0.166217 -3.55812 0
M  V30 6009 O 559.69 -0.00372127 -5.465 0
M  V30 6010 H 556.784 0.0349874 -0.82626 0
M  V30 6011 H 559.33 -0.679055 -1.55521 0
M  V30 6012 H 558.102 -1.25569 -3.70605 0
M  V30 6013 H 557.725 0.441691 -3.95139 0
M  V30 6014 N 558.722 1.53707 -0.348139 0
M  V30 6015 C 559.652 2.28111 0.498766 0
M  V30 6016 C 560.633 1.29851 1.09876 0
M  V30 6017 O 561.818 1.587 1.11928 0
M  V30 6018 C 558.948 3.05735 1.64753 0
M  V30 6019 C 557.902 4.11537 1.17565 0
M  V30 6020 C 557.228 4.77142 2.4133 0
M  V30 6021 C 558.528 5.21587 0.272844 0
M  V30 6022 H 560.222 2.99152 -0.121934 0
M  V30 6023 H 557.768 1.43875 -0.0600842 0
M  V30 6024 H 559.721 3.56526 2.24649 0
M  V30 6025 H 558.445 2.32354 2.2952 0
M  V30 6026 H 557.104 3.61665 0.599483 0
M  V30 6027 H 556.752 4.0035 3.04514 0
M  V30 6028 H 556.452 5.48626 2.10436 0
M  V30 6029 H 557.976 5.30719 3.01943 0
M  V30 6030 H 559.39 5.67986 0.778779 0
M  V30 6031 H 557.787 6.00074 0.0555849 0
M  V30 6032 H 558.857 4.79969 -0.689785 0
M  V30 6033 N 560.2 0.0768682 1.57412 0
M  V30 6034 C 561.428 -0.59997 1.9801 0
M  V30 6035 C 561.843 -1.62842 0.955408 0
M  V30 6036 O 561.2 -1.8241 -0.057314 0
M  V30 6037 C 561.251 -1.26401 3.38681 0
M  V30 6038 O 560.972 -0.276723 4.37225 0
M  V30 6039 C 562.473 -2.0282 3.94182 0
M  V30 6040 H 559.693 -0.162239 0.651091 0
M  V30 6041 H 562.237 0.150771 2.03943 0
M  V30 6042 H 560.392 -1.96581 3.33819 0
M  V30 6043 H 560.806 -0.753744 5.19056 0
M  V30 6044 H 562.28 -2.44667 4.94815 0
M  V30 6045 H 562.757 -2.88678 3.31001 0
M  V30 6046 H 563.363 -1.37496 4.02461 0
M  V30 6047 N 561.678 -1.56367 -0.196722 0
M  V30 6048 C 562.588 -1.97617 -1.2643 0
M  V30 6049 C 563.604 -0.883598 -1.49895 0
M  V30 6050 O 564.78 -1.18921 -1.62541 0
M  V30 6051 C 561.845 -2.30595 -2.58895 0
M  V30 6052 C 560.906 -3.53551 -2.43516 0
M  V30 6053 C 560.139 -3.84946 -3.69665 0
M  V30 6054 O 560.362 -3.17655 -4.73763 0
M  V30 6055 O 559.296 -4.78379 -3.65291 0
M  V30 6056 H 563.122 -2.88648 -0.944233 0
M  V30 6057 H 560.707 -1.43901 -0.401592 0
M  V30 6058 H 562.589 -2.52889 -3.37083 0
M  V30 6059 H 561.264 -1.42732 -2.90533 0
M  V30 6060 H 560.171 -3.36507 -1.63445 0
M  V30 6061 H 561.504 -4.41875 -2.16812 0
M  V30 6062 N 563.156 0.464375 -1.50603 0
M  V30 6063 C 564.066 1.58723 -1.72754 0
M  V30 6064 C 565.082 1.62925 -0.610844 0
M  V30 6065 O 566.258 1.8067 -0.889963 0
M  V30 6066 C 563.323 2.94897 -1.82309 0
M  V30 6067 C 562.384 3.0103 -3.06071 0
M  V30 6068 C 561.617 4.30708 -3.1516 0
M  V30 6069 O 561.84 5.2159 -2.30868 0
M  V30 6070 O 560.774 4.42571 -4.0794 0
M  V30 6071 H 564.6 1.42954 -2.67951 0
M  V30 6072 H 562.185 0.644579 -1.3478 0
M  V30 6073 H 564.067 3.75764 -1.90735 0
M  V30 6074 H 562.742 3.10851 -0.902967 0
M  V30 6075 H 561.649 2.19217 -3.03142 0
M  V30 6076 H 562.982 2.90014 -3.97684 0
M  V30 6077 N 564.634 1.40294 0.718013 0
M  V30 6078 C 565.882 1.38167 1.47494 0
M  V30 6079 C 566.203 -0.01607 1.94993 0
M  V30 6080 O 565.473 -0.970396 1.70177 0
M  V30 6081 H 564.053 0.508505 0.547203 0
M  V30 6082 H 566.715 1.75324 0.851322 0
M  V30 6083 H 565.811 2.05503 2.34894 0
M  V30 6084 N 566.112 -0.949982 1.2575 0
M  V30 6085 C 567.042 -2.06483 1.09028 0
M  V30 6086 C 568.023 -1.701 -0.00201532 0
M  V30 6087 O 569.208 -1.93469 0.168383 0
M  V30 6088 C 566.338 -3.39899 0.71316 0
M  V30 6089 C 565.292 -3.90309 1.75621 0
M  V30 6090 C 564.618 -5.20274 1.23365 0
M  V30 6091 C 565.918 -4.16169 3.15596 0
M  V30 6092 H 567.612 -2.20731 2.02283 0
M  V30 6093 H 565.158 -1.06066 0.973964 0
M  V30 6094 H 567.111 -4.17346 0.58309 0
M  V30 6095 H 565.835 -3.25602 -0.255091 0
M  V30 6096 H 564.494 -3.15035 1.8748 0
M  V30 6097 H 564.142 -5.02351 0.255491 0
M  V30 6098 H 563.842 -5.54971 1.93082 0
M  V30 6099 H 565.366 -6.00314 1.11607 0
M  V30 6100 H 566.78 -4.84259 3.06864 0
M  V30 6101 H 565.177 -4.62131 3.82825 0
M  V30 6102 H 566.247 -3.22273 3.6231 0
M  V30 6103 N 567.59 -1.07411 -1.15328 0
M  V30 6104 C 568.52 -0.716472 -2.22236 0
M  V30 6105 C 569.501 0.296373 -1.67498 0
M  V30 6106 O 570.686 0.168989 -1.93463 0
M  V30 6107 C 567.816 -0.114142 -3.47112 0
M  V30 6108 C 566.77 -1.05421 -4.14814 0
M  V30 6109 C 566.096 -0.314604 -5.33774 0
M  V30 6110 C 567.396 -2.38808 -4.64508 0
M  V30 6111 H 569.09 -1.61029 -2.52408 0
M  V30 6112 H 566.636 -0.775702 -1.21321 0
M  V30 6113 H 568.589 0.148001 -4.2114 0
M  V30 6114 H 567.313 0.814755 -3.16274 0
M  V30 6115 H 565.972 -1.30128 -3.42728 0
M  V30 6116 H 565.62 0.617772 -4.99192 0
M  V30 6117 H 565.32 -0.941209 -5.80013 0
M  V30 6118 H 566.844 -0.0602747 -6.1057 0
M  V30 6119 H 568.258 -2.18424 -5.3006 0
M  V30 6120 H 566.655 -2.97069 -5.21412 0
M  V30 6121 H 567.725 -3.01067 -3.80114 0
M  V30 6122 N 569.068 1.32177 -0.85831 0
M  V30 6123 C 570.018 2.26307 -0.277307 0
M  V30 6124 C 571.002 1.50123 0.578946 0
M  V30 6125 O 572.194 1.71754 0.427731 0
M  V30 6126 C 569.323 3.39181 0.530232 0
M  V30 6127 C 568.409 4.22746 -0.338613 0
M  V30 6128 N 568.8 4.85265 -1.4266 0
M  V30 6129 C 567.098 4.45813 -0.129 0
M  V30 6130 C 567.799 5.47634 -1.96142 0
M  V30 6131 N 566.775 5.28794 -1.26007 0
M  V30 6132 H 570.577 2.72173 -1.10902 0
M  V30 6133 H 568.091 1.46308 -0.704816 0
M  V30 6134 H 570.088 4.05628 0.962904 0
M  V30 6135 H 568.748 2.9486 1.35969 0
M  V30 6136 H 569.759 4.85259 -1.80953 0
M  V30 6137 H 566.436 4.12163 0.665451 0
M  V30 6138 H 567.826 6.0735 -2.8736 0
M  V30 6139 N 570.547 0.616602 1.45037 0
M  V30 6140 C 571.793 0.115501 2.02471 0
M  V30 6141 C 572.126 -1.25406 1.4828 0
M  V30 6142 O 571.401 -1.82922 0.661051 0
M  V30 6143 C 571.684 0.0863588 3.59996 0
M  V30 6144 C 571.537 1.48723 4.24501 0
M  V30 6145 C 572.856 -0.596762 4.36035 0
M  V30 6146 H 569.975 0.0434461 0.735718 0
M  V30 6147 H 572.617 0.7903 1.72784 0
M  V30 6148 H 570.767 -0.488277 3.85419 0
M  V30 6149 H 572.439 2.10964 4.10234 0
M  V30 6150 H 570.682 2.04534 3.82555 0
M  V30 6151 H 571.353 1.419 5.3345 0
M  V30 6152 H 573.829 -0.10824 4.15959 0
M  V30 6153 H 572.705 -0.586289 5.4576 0
M  V30 6154 H 572.966 -1.66451 4.09569 0
M  V30 6155 N 572.025 -1.5352 0.356285 0
M  V30 6156 C 572.935 -2.29151 -0.502712 0
M  V30 6157 C 573.951 -1.34753 -1.1008 0
M  V30 6158 O 575.127 -1.67803 -1.11374 0
M  V30 6159 C 572.192 -3.05911 -1.63154 0
M  V30 6160 C 571.253 -4.15958 -1.06194 0
M  V30 6161 C 570.486 -4.8905 -2.13696 0
M  V30 6162 O 570.709 -4.61919 -3.34645 0
M  V30 6163 O 569.643 -5.75202 -1.77275 0
M  V30 6164 H 573.469 -3.03492 0.112466 0
M  V30 6165 H 571.054 -1.4891 0.120942 0
M  V30 6166 H 572.936 -3.53874 -2.28804 0
M  V30 6167 H 571.611 -2.34415 -2.23229 0
M  V30 6168 H 570.518 -3.7227 -0.369603 0
M  V30 6169 H 571.851 -4.89593 -0.505872 0
M  V30 6170 N 573.503 -0.0852151 -1.57369 0
M  V30 6171 C 574.78 0.622534 -1.85429 0
M  V30 6172 C 575.16 1.86962 -0.980229 0
M  V30 6173 O 574.508 2.28445 -0.0500219 0
M  V30 6174 C 574.718 0.947374 -3.35896 0
M  V30 6175 C 576.066 1.31509 -4.03721 0
M  V30 6176 O 577.09 1.03869 -3.40719 0
M  V30 6177 O 575.949 1.83231 -5.14868 0
M  V30 6178 H 573.043 0.310513 -0.766492 0
M  V30 6179 H 575.589 -0.117164 -1.69295 0
M  V30 6180 H 574.361 0.0622264 -3.91251 0
M  V30 6181 H 573.984 1.74338 -3.5734 0
M  V30 6182 N 574.981 1.5647 0.188427 0
M  V30 6183 C 576.23 1.80207 0.905995 0
M  V30 6184 C 576.543 0.659579 1.84144 0
M  V30 6185 O 577.749 0.781431 2.60011 0
M  V30 6186 C 576.205 3.19255 1.66145 0
M  V30 6187 C 575.813 4.41324 0.770504 0
M  V30 6188 C 577.557 3.52298 2.36826 0
M  V30 6189 C 575.464 5.71394 1.52521 0
M  V30 6190 H 574.394 0.671953 0.342045 0
M  V30 6191 H 577.045 1.82808 0.159164 0
M  V30 6192 H 575.427 3.10922 2.45242 0
M  V30 6193 H 576.601 4.60797 0.0177261 0
M  V30 6194 H 574.916 4.16035 0.174199 0
M  V30 6195 H 577.513 4.46715 2.93854 0
M  V30 6196 H 577.856 2.76359 3.11338 0
M  V30 6197 H 578.389 3.62108 1.6469 0
M  V30 6198 H 575.128 6.50316 0.82275 0
M  V30 6199 H 574.648 5.55928 2.25175 0
M  V30 6200 H 576.327 6.12747 2.07725 0
M  V30 6201 N 576.459 -0.456382 1.50847 0
M  V30 6202 C 577.708 -1.2042 1.61808 0
M  V30 6203 C 578.021 -1.9278 0.330932 0
M  V30 6204 O 579.227 -2.69612 0.319643 0
M  V30 6205 C 577.683 -2.18891 2.85683 0
M  V30 6206 C 577.291 -1.52267 4.2133 0
M  V30 6207 C 579.035 -2.94224 3.05994 0
M  V30 6208 C 576.942 -2.4911 5.36375 0
M  V30 6209 H 575.872 -0.453177 0.602616 0
M  V30 6210 H 578.523 -0.473144 1.77295 0
M  V30 6211 H 576.905 -2.95351 2.63787 0
M  V30 6212 H 578.079 -0.814949 4.53536 0
M  V30 6213 H 576.394 -0.891594 4.06743 0
M  V30 6214 H 578.991 -3.66732 3.89117 0
M  V30 6215 H 579.334 -3.54469 2.18306 0
M  V30 6216 H 579.867 -2.24874 3.28141 0
M  V30 6217 H 576.606 -1.93582 6.26264 0
M  V30 6218 H 576.126 -3.17991 5.08569 0
M  V30 6219 H 577.805 -3.10637 5.67551 0
M  V30 6220 N 577.937 -1.40673 -0.710563 0
M  V30 6221 C 578.867 -1.44095 -1.83736 0
M  V30 6222 C 579.848 -0.301286 -1.67411 0
M  V30 6223 O 581.033 -0.510618 -1.87367 0
M  V30 6224 C 578.163 -1.30773 -3.21738 0
M  V30 6225 C 577.117 -2.42395 -3.52745 0
M  V30 6226 C 576.443 -2.14147 -4.89944 0
M  V30 6227 C 577.743 -3.84738 -3.53234 0
M  V30 6228 H 579.437 -2.38396 -1.81129 0
M  V30 6229 H 576.983 -1.14746 -0.870017 0
M  V30 6230 H 578.936 -1.31783 -4.00264 0
M  V30 6231 H 577.66 -0.329507 -3.24934 0
M  V30 6232 H 576.319 -2.40643 -2.76562 0
M  V30 6233 H 575.967 -1.14703 -4.89747 0
M  V30 6234 H 575.667 -2.88934 -5.11655 0
M  V30 6235 H 577.191 -2.16848 -5.70797 0
M  V30 6236 H 578.605 -3.88286 -4.2179 0
M  V30 6237 H 577.002 -4.59085 -3.86473 0
M  V30 6238 H 578.072 -4.13962 -2.52514 0
M  V30 6239 N 579.415 0.9433 -1.26252 0
M  V30 6240 C 580.365 2.02746 -1.04297 0
M  V30 6241 C 581.349 1.60882 0.0239435 0
M  V30 6242 O 582.541 1.75947 -0.192757 0
M  V30 6243 C 579.67 3.36585 -0.6757 0
M  V30 6244 C 578.756 3.84939 -1.77996 0
M  V30 6245 N 579.147 4.05966 -3.01704 0
M  V30 6246 C 577.445 4.13833 -1.66308 0
M  V30 6247 C 578.146 4.45987 -3.73458 0
M  V30 6248 N 577.122 4.52569 -3.01135 0
M  V30 6249 H 580.924 2.17012 -1.98199 0
M  V30 6250 H 578.438 1.12898 -1.16738 0
M  V30 6251 H 580.435 4.13896 -0.499571 0
M  V30 6252 H 579.095 3.2369 0.255863 0
M  V30 6253 H 580.106 3.92716 -3.37631 0
M  V30 6254 H 576.783 4.09739 -0.801267 0
M  V30 6255 H 578.173 4.70465 -4.79701 0
M  V30 6256 N 580.893 1.08022 1.14757 0
M  V30 6257 C 581.826 0.650738 2.18725 0
M  V30 6258 C 582.804 -0.335496 1.59101 0
M  V30 6259 O 583.988 -0.240295 1.86962 0
M  V30 6260 C 581.115 -0.0434377 3.38672 0
M  V30 6261 C 580.161 0.90232 4.16846 0
M  V30 6262 S 580.994 2.40693 4.78359 0
M  V30 6263 C 582.15 1.72475 6.01667 0
M  V30 6264 H 582.383 1.53152 2.54817 0
M  V30 6265 H 579.916 0.894823 1.25826 0
M  V30 6266 H 581.874 -0.437684 4.0816 0
M  V30 6267 H 580.535 -0.900659 3.0091 0
M  V30 6268 H 579.728 0.363445 5.02688 0
M  V30 6269 H 579.33 1.23728 3.52941 0
M  V30 6270 H 581.622 1.0404 6.69464 0
M  V30 6271 H 582.565 2.56175 6.60136 0
M  V30 6272 H 582.973 1.19979 5.51602 0
M  V30 6273 N 582.371 -1.3172 0.865308 0
M  V30 6274 C 583.618 -1.96876 0.473931 0
M  V30 6275 C 583.946 -1.68425 -0.972786 0
M  V30 6276 O 583.201 -0.970742 -1.69927 0
M  V30 6277 C 583.5 -3.5102 0.672283 0
M  V30 6278 C 583.166 -3.9948 2.09108 0
M  V30 6279 C 581.828 -4.12425 2.4791 0
M  V30 6280 C 584.18 -4.2503 3.0166 0
M  V30 6281 C 581.508 -4.48267 3.78515 0
M  V30 6282 C 583.86 -4.62335 4.31774 0
M  V30 6283 C 582.524 -4.73486 4.70497 0
M  V30 6284 H 581.794 -0.72042 0.173424 0
M  V30 6285 H 584.441 -1.56937 1.0974 0
M  V30 6286 H 582.746 -3.91785 -0.034356 0
M  V30 6287 H 584.443 -3.99475 0.349353 0
M  V30 6288 H 581.033 -3.89898 1.77981 0
M  V30 6289 H 585.217 -4.14529 2.7291 0
M  V30 6290 H 580.473 -4.55097 4.08285 0
M  V30 6291 H 584.647 -4.81058 5.03543 0
M  V30 6292 H 582.274 -5.01016 5.71741 0
M  V30 6293 N 583.85 -0.624285 -1.44708 0
M  V30 6294 C 584.782 0.12305 -2.28869 0
M  V30 6295 C 585.795 0.81557 -1.40898 0
M  V30 6296 O 586.984 0.678162 -1.65116 0
M  V30 6297 C 584.084 1.19612 -3.1709 0
M  V30 6298 C 583.257 0.587452 -4.33437 0
M  V30 6299 C 582.316 1.55358 -5.02743 0
M  V30 6300 O 581.341 1.07338 -5.58988 0
M  V30 6301 N 582.543 2.88798 -5.03563 0
M  V30 6302 H 585.308 -0.599193 -2.93649 0
M  V30 6303 H 582.87 -0.464954 -1.5508 0
M  V30 6304 H 584.861 1.84261 -3.60319 0
M  V30 6305 H 583.432 1.82067 -2.54107 0
M  V30 6306 H 582.652 -0.237509 -3.93484 0
M  V30 6307 H 583.94 0.161326 -5.08544 0
M  V30 6308 H 583.338 3.30399 -4.59188 0
M  V30 6309 H 581.894 3.48826 -5.50603 0
M  V30 6310 N 585.328 1.53329 -0.364422 0
M  V30 6311 C 586.558 2.05359 0.226096 0
M  V30 6312 C 586.966 1.23777 1.43094 0
M  V30 6313 O 586.309 0.271139 1.81688 0
M  V30 6314 C 586.371 3.52918 0.684794 0
M  V30 6315 C 586.035 4.55218 -0.403206 0
M  V30 6316 C 587.032 5.04583 -1.2527 0
M  V30 6317 C 584.717 4.99134 -0.563117 0
M  V30 6318 C 586.711 5.96463 -2.24745 0
M  V30 6319 C 584.398 5.9082 -1.56124 0
M  V30 6320 C 585.396 6.39375 -2.40184 0
M  V30 6321 O 585.084 7.29255 -3.38293 0
M  V30 6322 H 584.816 0.674588 0.0436772 0
M  V30 6323 H 587.37 1.98688 -0.520782 0
M  V30 6324 H 585.6 3.57122 1.48326 0
M  V30 6325 H 587.289 3.87812 1.19818 0
M  V30 6326 H 588.055 4.71403 -1.14034 0
M  V30 6327 H 583.934 4.60928 0.0813909 0
M  V30 6328 H 587.478 6.34285 -2.90393 0
M  V30 6329 H 583.375 6.23414 -1.67407 0
M  V30 6330 H 584.143 7.47249 -3.34009 0
M  V30 6331 N 586.806 0.0935595 1.57322 0
M  V30 6332 C 588.055 -0.570191 1.93473 0
M  V30 6333 C 588.368 -1.69434 0.977318 0
M  V30 6334 O 589.574 -2.41914 1.23248 0
M  V30 6335 C 588.03 -1.06564 3.43762 0
M  V30 6336 C 587.638 0.0286723 4.47991 0
M  V30 6337 C 589.382 -1.70221 3.88877 0
M  V30 6338 C 587.289 -0.482046 5.89432 0
M  V30 6339 H 586.219 -0.216764 0.72217 0
M  V30 6340 H 588.87 0.169313 1.82717 0
M  V30 6341 H 587.252 -1.85878 3.49664 0
M  V30 6342 H 588.426 0.804106 4.5373 0
M  V30 6343 H 586.741 0.570336 4.12476 0
M  V30 6344 H 589.338 -2.09502 4.91948 0
M  V30 6345 H 589.681 -2.57078 3.27439 0
M  V30 6346 H 590.214 -0.974919 3.85668 0
M  V30 6347 H 586.953 0.349871 6.54566 0
M  V30 6348 H 586.473 -1.22452 5.87167 0
M  V30 6349 H 588.152 -0.951508 6.39965 0
M  V30 6350 N 588.284 -1.56567 -0.180126 0
M  V30 6351 C 589.216 -1.92275 -1.24751 0
M  V30 6352 C 590.229 -0.814922 -1.40936 0
M  V30 6353 O 591.418 -1.09336 -1.41095 0
M  V30 6354 C 588.518 -2.15265 -2.61752 0
M  V30 6355 C 587.691 -3.46467 -2.66981 0
M  V30 6356 C 586.75 -3.58391 -3.85283 0
M  V30 6357 O 585.776 -4.31086 -3.7169 0
M  V30 6358 N 586.978 -2.92587 -5.01371 0
M  V30 6359 H 589.743 -2.84435 -0.944302 0
M  V30 6360 H 587.304 -1.57617 -0.369952 0
M  V30 6361 H 589.296 -2.20515 -3.39345 0
M  V30 6362 H 587.866 -1.29533 -2.845 0
M  V30 6363 H 587.086 -3.52953 -1.75549 0
M  V30 6364 H 588.374 -4.32819 -2.67479 0
M  V30 6365 H 587.772 -2.3338 -5.15316 0
M  V30 6366 H 586.329 -3.03444 -5.76858 0
M  V30 6367 N 589.762 0.448376 -1.51087 0
M  V30 6368 C 590.709 1.54341 -1.71603 0
M  V30 6369 C 591.679 1.56463 -0.557536 0
M  V30 6370 O 592.864 1.73644 -0.79072 0
M  V30 6371 C 590.004 2.92148 -1.83695 0
M  V30 6372 C 589.117 2.99639 -3.11192 0
M  V30 6373 C 588.252 4.285 -3.13944 0
M  V30 6374 C 587.291 4.29819 -4.35801 0
M  V30 6375 N 586.428 5.50186 -4.36164 0
M  V30 6376 H 591.268 1.36151 -2.65079 0
M  V30 6377 H 588.805 0.661585 -1.31383 0
M  V30 6378 H 590.763 3.72093 -1.88687 0
M  V30 6379 H 589.393 3.0892 -0.936374 0
M  V30 6380 H 588.445 2.12425 -3.15562 0
M  V30 6381 H 589.757 2.96474 -4.01129 0
M  V30 6382 H 588.911 5.16811 -3.17791 0
M  V30 6383 H 587.65 4.34307 -2.21876 0
M  V30 6384 H 586.655 3.39902 -4.32142 0
M  V30 6385 H 587.88 4.25685 -5.29121 0
M  V30 6386 H 585.826 5.56735 -3.46961 0
M  V30 6387 H 585.743 5.48856 -5.19897 0
M  V30 6388 H 587.011 6.40559 -4.44189 0
M  V30 6389 N 591.24 1.41047 0.703093 0
M  V30 6390 C 592.17 1.45067 1.82969 0
M  V30 6391 C 593.151 0.31016 1.67248 0
M  V30 6392 O 594.336 0.520548 1.87093 0
M  V30 6393 C 591.466 1.32478 3.2104 0
M  V30 6394 C 590.42 2.44262 3.51454 0
M  V30 6395 C 589.746 2.16742 4.88801 0
M  V30 6396 C 591.046 3.86606 3.51189 0
M  V30 6397 H 592.74 2.39353 1.79863 0
M  V30 6398 H 590.286 1.15206 0.863919 0
M  V30 6399 H 592.239 1.33904 3.99559 0
M  V30 6400 H 590.963 0.346735 3.24754 0
M  V30 6401 H 589.622 2.42107 2.75282 0
M  V30 6402 H 589.27 1.17299 4.89132 0
M  V30 6403 H 588.97 2.91643 5.10116 0
M  V30 6404 H 590.494 2.19872 5.69639 0
M  V30 6405 H 591.908 3.90517 4.19725 0
M  V30 6406 H 590.305 4.61128 3.84033 0
M  V30 6407 H 591.375 4.15296 2.50315 0
M  V30 6408 N 592.718 -0.936591 1.26751 0
M  V30 6409 C 594.134 -1.21095 1.03963 0
M  V30 6410 C 594.334 -2.00156 -0.232372 0
M  V30 6411 O 593.39 -2.3434 -0.940274 0
M  V30 6412 C 594.703 -1.96775 2.27377 0
M  V30 6413 C 596.251 -2.09749 2.32324 0
M  V30 6414 C 596.726 -2.88832 3.55443 0
M  V30 6415 N 598.217 -2.96404 3.55948 0
M  V30 6416 C 598.952 -3.58036 4.47881 0
M  V30 6417 N 598.448 -4.21132 5.50109 0
M  V30 6418 N 600.241 -3.55353 4.35523 0
M  V30 6419 H 592.392 -0.408173 2.08441 0
M  V30 6420 H 594.655 -0.243139 0.91629 0
M  V30 6421 H 594.361 -1.46094 3.19921 0
M  V30 6422 H 594.235 -2.97424 2.31989 0
M  V30 6423 H 596.622 -2.5962 1.40291 0
M  V30 6424 H 596.703 -1.08347 2.31721 0
M  V30 6425 H 596.347 -2.39647 4.47808 0
M  V30 6426 H 596.277 -3.90499 3.53296 0
M  V30 6427 H 598.768 -2.51552 2.82011 0
M  V30 6428 H 599.081 -4.66071 6.16439 0
M  V30 6429 H 597.426 -4.19705 5.53961 0
M  V30 6430 H 600.617 -3.05256 3.54875 0
M  V30 6431 H 600.79 -4.03097 5.07363 0
M  V30 6432 N 594.196 -1.08629 -1.14182 0
M  V30 6433 C 595.159 -0.722027 -2.1753 0
M  V30 6434 C 596.159 0.244305 -1.58933 0
M  V30 6435 O 597.349 0.0235545 -1.74184 0
M  V30 6436 C 594.481 -0.0663966 -3.40835 0
M  V30 6437 H 595.674 -1.63719 -2.51269 0
M  V30 6438 H 593.227 -0.884442 -1.28869 0
M  V30 6439 H 593.962 0.860389 -3.12678 0
M  V30 6440 H 593.747 -0.761598 -3.84632 0
M  V30 6441 H 595.237 0.173346 -4.1724 0
M  V30 6442 N 595.674 1.31259 -0.872281 0
M  V30 6443 C 596.584 2.32221 -0.333255 0
M  V30 6444 C 597.6 1.6481 0.558013 0
M  V30 6445 O 598.776 1.96212 0.454175 0
M  V30 6446 C 595.841 3.43708 0.454479 0
M  V30 6447 C 594.902 4.26774 -0.465024 0
M  V30 6448 C 594.135 5.32937 0.28521 0
M  V30 6449 O 594.358 5.49968 1.513 0
M  V30 6450 O 593.292 6.00834 -0.358126 0
M  V30 6451 H 597.118 2.80252 -1.17016 0
M  V30 6452 H 594.703 1.352 -0.635724 0
M  V30 6453 H 596.585 4.11656 0.900963 0
M  V30 6454 H 595.26 2.97836 1.26789 0
M  V30 6455 H 594.167 3.61571 -0.960055 0
M  V30 6456 H 595.5 4.76217 -1.2441 0
M  V30 6457 N 597.152 0.631951 1.44375 0
M  V30 6458 C 598.4 0.136497 2.01639 0
M  V30 6459 C 598.721 -1.24637 1.49969 0
M  V30 6460 O 597.991 -1.82827 0.70363 0
M  V30 6461 H 596.571 0.0474703 0.74549 0
M  V30 6462 H 599.233 0.818837 1.76865 0
M  V30 6463 H 598.329 0.104817 3.11924 0
M  V30 6464 N 598.631 -1.53133 0.372548 0
M  V30 6465 C 600.042 -1.86404 -0.105155 0
M  V30 6466 C 600.393 -1.29289 -1.47576 0
M  V30 6467 O 599.518 -0.617646 -2.07398 0
M  V30 6468 C 600.113 -3.38223 -0.197588 0
M  V30 6469 C 598.672 -3.71266 -0.619556 0
M  V30 6470 C 597.819 -2.76353 0.228919 0
M  V30 6471 H 600.77 -1.47282 0.591077 0
M  V30 6472 H 600.791 -3.66577 -1.01987 0
M  V30 6473 H 600.303 -3.79763 0.800099 0
M  V30 6474 H 598.404 -3.35287 -1.62522 0
M  V30 6475 H 598.517 -4.77515 -0.389332 0
M  V30 6476 H 596.881 -2.52888 -0.303271 0
M  V30 6477 H 597.664 -3.20728 1.22428 0
M  V30 6478 N 600.109 -0.101901 -1.5727 0
M  V30 6479 C 601.041 0.884723 -2.11436 0
M  V30 6480 C 602.054 1.24149 -1.05314 0
M  V30 6481 O 603.243 1.19341 -1.3274 0
M  V30 6482 C 600.343 2.19179 -2.58484 0
M  V30 6483 C 599.516 2.00933 -3.88516 0
M  V30 6484 C 598.575 3.15213 -4.2134 0
M  V30 6485 O 597.601 2.88877 -4.90448 0
M  V30 6486 N 598.803 4.41174 -3.77288 0
M  V30 6487 H 601.568 0.422058 -2.96713 0
M  V30 6488 H 599.129 0.0830128 -1.61687 0
M  V30 6489 H 601.121 2.94593 -2.77484 0
M  V30 6490 H 599.691 2.56847 -1.7818 0
M  V30 6491 H 598.911 1.09809 -3.78597 0
M  V30 6492 H 600.199 1.86026 -4.73573 0
M  V30 6493 H 599.597 4.6545 -3.21516 0
M  V30 6494 H 598.154 5.13515 -4.01429 0
M  V30 6495 N 601.587 1.56661 0.17182 0
M  V30 6496 C 602.497 1.99604 1.2327 0
M  V30 6497 C 603.513 0.907333 1.4847 0
M  V30 6498 O 604.689 1.21492 1.60629 0
M  V30 6499 C 601.754 2.34685 2.55194 0
M  V30 6500 C 600.815 3.57381 2.3786 0
M  V30 6501 C 600.048 3.90779 3.63494 0
M  V30 6502 O 600.271 3.25152 4.6865 0
M  V30 6503 O 599.205 4.84129 3.57634 0
M  V30 6504 H 603.031 2.90114 0.898192 0
M  V30 6505 H 600.616 1.44522 0.378647 0
M  V30 6506 H 602.498 2.5822 3.33017 0
M  V30 6507 H 601.173 1.47336 2.88225 0
M  V30 6508 H 600.08 3.39064 1.5807 0
M  V30 6509 H 601.413 4.45268 2.09754 0
M  V30 6510 N 603.065 -0.440357 1.51323 0
M  V30 6511 C 604.311 -1.18874 1.65047 0
M  V30 6512 C 604.666 -1.88988 0.360742 0
M  V30 6513 O 603.959 -1.80479 -0.643272 0
M  V30 6514 C 604.153 -2.2339 2.78984 0
M  V30 6515 C 603.982 -1.63534 4.18911 0
M  V30 6516 C 602.752 -1.42158 4.84891 0
M  V30 6517 C 604.95 -1.11324 5.02107 0
M  V30 6518 N 602.932 -0.778679 6.08942 0
M  V30 6519 C 604.303 -0.595421 6.17134 0
M  V30 6520 C 606.358 -1.00471 4.87658 0
M  V30 6521 C 605.061 0.0202557 7.19297 0
M  V30 6522 C 607.087 -0.402928 5.90026 0
M  V30 6523 C 606.449 0.10436 7.04323 0
M  V30 6524 H 602.548 -0.422771 0.657866 0
M  V30 6525 H 605.132 -0.485814 1.88542 0
M  V30 6526 H 603.303 -2.91074 2.57158 0
M  V30 6527 H 605.035 -2.90366 2.81904 0
M  V30 6528 H 601.79 -1.68247 4.42707 0
M  V30 6529 H 602.214 -0.474755 6.75333 0
M  V30 6530 H 606.856 -1.38278 3.99548 0
M  V30 6531 H 604.574 0.410468 8.07057 0
M  V30 6532 H 608.16 -0.320897 5.80914 0
M  V30 6533 H 607.04 0.562697 7.82179 0
M  V30 6534 N 604.543 -1.41418 -0.695603 0
M  V30 6535 C 605.789 -1.40982 -1.4578 0
M  V30 6536 C 606.122 -0.0187763 -1.94191 0
M  V30 6537 O 605.397 0.95346 -1.69527 0
M  V30 6538 C 605.68 -2.41657 -2.66972 0
M  V30 6539 C 605.533 -3.89869 -2.24327 0
M  V30 6540 C 606.852 -2.39589 -3.69168 0
M  V30 6541 H 603.971 -0.513405 -0.528757 0
M  V30 6542 H 606.613 -1.72693 -0.792275 0
M  V30 6543 H 604.763 -2.14746 -3.23754 0
M  V30 6544 H 606.435 -4.27683 -1.72872 0
M  V30 6545 H 604.678 -4.04737 -1.56111 0
M  V30 6546 H 605.349 -4.55857 -3.11285 0
M  V30 6547 H 607.825 -2.63471 -3.2206 0
M  V30 6548 H 606.701 -3.12044 -4.51575 0
M  V30 6549 H 606.962 -1.41447 -4.18862 0
M  V30 6550 N 606.021 0.929856 -1.27246 0
M  V30 6551 C 607.268 1.67731 -1.13457 0
M  V30 6552 C 607.596 1.9185 0.319998 0
M  V30 6553 O 606.851 1.50524 1.25064 0
M  V30 6554 C 607.15 3.05116 -1.86115 0
M  V30 6555 C 606.816 3.00715 -3.35978 0
M  V30 6556 C 605.478 2.99222 -3.76855 0
M  V30 6557 C 607.83 2.92168 -4.3161 0
M  V30 6558 C 605.158 2.86962 -5.11732 0
M  V30 6559 C 607.51 2.81449 -5.66542 0
M  V30 6560 C 606.174 2.78305 -6.06715 0
M  V30 6561 H 605.444 0.613772 -0.415168 0
M  V30 6562 H 608.091 1.08456 -1.57827 0
M  V30 6563 H 606.396 3.68083 -1.34246 0
M  V30 6564 H 608.093 3.61822 -1.72876 0
M  V30 6565 H 604.683 3.02664 -3.03468 0
M  V30 6566 H 608.867 2.92421 -4.01003 0
M  V30 6567 H 604.123 2.82913 -5.42006 0
M  V30 6568 H 608.297 2.738 -6.40317 0
M  V30 6569 H 605.924 2.68561 -7.11181 0
M  V30 6570 N 607.499 1.09233 1.13605 0
M  V30 6571 C 608.431 0.687794 2.18637 0
M  V30 6572 C 609.444 -0.26936 1.60556 0
M  V30 6573 O 610.633 -0.0557162 1.78413 0
M  V30 6574 C 607.733 -0.00751901 3.38899 0
M  V30 6575 C 606.906 0.97067 4.26494 0
M  V30 6576 C 605.965 0.309129 5.25291 0
M  V30 6577 O 604.991 0.956149 5.61112 0
M  V30 6578 N 606.193 -0.937555 5.72879 0
M  V30 6579 H 608.958 1.59141 2.53957 0
M  V30 6580 H 606.519 0.979515 1.28907 0
M  V30 6581 H 608.511 -0.461238 4.02063 0
M  V30 6582 H 607.081 -0.813353 3.01833 0
M  V30 6583 H 606.301 1.603 3.60135 0
M  V30 6584 H 607.589 1.63323 4.81875 0
M  V30 6585 H 606.987 -1.48281 5.4592 0
M  V30 6586 H 605.544 -1.33463 6.3799 0
M  V30 6587 N 608.977 -1.30795 0.87923 0
M  V30 6588 C 609.887 -2.32041 0.345565 0
M  V30 6589 C 610.903 -1.65103 -0.549265 0
M  V30 6590 O 612.079 -1.9645 -0.443763 0
M  V30 6591 C 609.144 -3.43944 -0.436245 0
M  V30 6592 C 608.205 -4.26521 0.48765 0
M  V30 6593 C 607.438 -5.33081 -0.256943 0
M  V30 6594 O 607.661 -5.50762 -1.48381 0
M  V30 6595 O 606.595 -6.00635 0.389985 0
M  V30 6596 H 610.421 -2.79627 1.18501 0
M  V30 6597 H 608.006 -1.3486 0.642885 0
M  V30 6598 H 609.888 -4.12128 -0.879119 0
M  V30 6599 H 608.563 -2.98504 -1.25208 0
M  V30 6600 H 607.47 -3.61057 0.979216 0
M  V30 6601 H 608.803 -4.75551 1.26933 0
M  V30 6602 N 610.455 -0.639598 -1.44038 0
M  V30 6603 C 611.695 -0.150902 -2.03842 0
M  V30 6604 C 612.059 1.20744 -1.49281 0
M  V30 6605 O 613.26 1.78875 -2.00642 0
M  V30 6606 C 611.531 -0.146114 -3.57101 0
M  V30 6607 S 613.09 0.276725 -4.37927 0
M  V30 6608 H 609.908 -0.0652447 -0.708 0
M  V30 6609 H 612.51 -0.844886 -1.76301 0
M  V30 6610 H 611.214 -1.13769 -3.94316 0
M  V30 6611 H 610.745 0.568846 -3.89266 0
M  V30 6612 H 612.76 1.51893 -4.7238 0
M  V30 6613 N 611.933 1.52934 -0.380664 0
M  V30 6614 C 612.88 2.26197 0.458641 0
M  V30 6615 C 613.85 1.27462 1.06502 0
M  V30 6616 O 615.035 1.56274 1.09467 0
M  V30 6617 C 612.175 3.06571 1.58456 0
M  V30 6618 C 611.288 4.20222 1.00189 0
M  V30 6619 C 610.423 4.88007 2.09815 0
M  V30 6620 C 609.462 5.93665 1.49092 0
M  V30 6621 N 608.599 6.55081 2.52613 0
M  V30 6622 H 613.439 2.975 -0.172595 0
M  V30 6623 H 610.976 1.4678 -0.0969426 0
M  V30 6624 H 612.934 3.51455 2.24801 0
M  V30 6625 H 611.564 2.37494 2.18624 0
M  V30 6626 H 610.616 3.79714 0.228292 0
M  V30 6627 H 611.928 4.96102 0.518064 0
M  V30 6628 H 611.082 5.36151 2.83948 0
M  V30 6629 H 609.821 4.11632 2.61555 0
M  V30 6630 H 608.826 5.44868 0.7348 0
M  V30 6631 H 610.051 6.71969 0.981582 0
M  V30 6632 H 607.997 5.8155 3.03538 0
M  V30 6633 H 607.914 7.26548 2.08961 0
M  V30 6634 H 609.182 7.07871 3.26402 0
M  V30 6635 N 613.412 0.11024 1.57214 0
M  V30 6636 C 614.689 -0.592956 1.86396 0
M  V30 6637 C 615.069 -1.85379 1.00985 0
M  V30 6638 O 614.417 -2.28337 0.0863592 0
M  V30 6639 C 614.627 -0.893816 3.3736 0
M  V30 6640 C 615.975 -1.25069 4.05762 0
M  V30 6641 O 616.999 -0.984356 3.42329 0
M  V30 6642 O 615.858 -1.75017 5.17718 0
M  V30 6643 H 612.952 -0.29828 0.771335 0
M  V30 6644 H 615.498 0.144083 1.69087 0
M  V30 6645 H 614.27 2.6031e-05 3.913 0
M  V30 6646 H 613.893 -1.68631 3.60068 0
M  V30 6647 N 614.89 -1.56749 -0.16351 0
M  V30 6648 C 615.82 -2.00042 -1.20438 0
M  V30 6649 C 616.801 -0.877256 -1.45733 0
M  V30 6650 O 617.986 -1.1439 -1.56935 0
M  V30 6651 C 615.116 -2.36697 -2.54149 0
M  V30 6652 C 614.07 -3.52046 -2.43408 0
M  V30 6653 C 613.396 -3.74466 -3.81679 0
M  V30 6654 C 614.696 -4.85247 -1.93216 0
M  V30 6655 H 616.39 -2.87244 -0.844477 0
M  V30 6656 H 613.936 -1.38194 -0.40478 0
M  V30 6657 H 615.889 -2.65582 -3.27176 0
M  V30 6658 H 614.613 -1.46414 -2.91943 0
M  V30 6659 H 613.272 -3.23301 -1.72834 0
M  V30 6660 H 612.92 -2.81461 -4.1688 0
M  V30 6661 H 612.62 -4.52084 -3.75359 0
M  V30 6662 H 614.144 -4.0576 -4.5628 0
M  V30 6663 H 615.558 -5.12957 -2.56023 0
M  V30 6664 H 613.955 -5.66556 -1.97825 0
M  V30 6665 H 615.025 -4.7672 -0.88689 0
M  V30 6666 N 616.368 0.432326 -1.51554 0
M  V30 6667 C 617.316 1.54572 -1.73811 0
M  V30 6668 C 618.31 1.58246 -0.604539 0
M  V30 6669 O 619.516 1.6193 -0.786041 0
M  V30 6670 H 615.891 0.513626 -0.549265 0
M  V30 6671 H 617.862 1.32977 -2.67132 0
M  V30 6672 C 616.611 2.92181 -1.88483 0
M  V30 6673 H 615.934 2.90088 -2.75116 0
M  V30 6674 H 617.374 3.69439 -2.08065 0
M  V30 6675 C 615.833 3.3065 -0.645909 0
M  V30 6676 O 616.363 4.01216 0.197093 0
M  V30 6677 N 614.569 2.86464 -0.488538 0
M  V30 6678 H 614.116 2.29209 -1.17562 0
M  V30 6679 H 614.074 3.12565 0.339156 0
M  V30 6680 N 617.846 1.41785 0.688094 0
M  V30 6681 C 618.809 1.43936 1.78368 0
M  V30 6682 C 619.809 0.328866 1.57401 0
M  V30 6683 O 620.999 0.589093 1.63937 0
M  V30 6684 C 618.131 1.25804 3.16838 0
M  V30 6685 H 619.324 2.41472 1.77852 0
M  V30 6686 H 616.877 1.28037 0.896448 0
M  V30 6687 H 617.612 0.291386 3.22988 0
M  V30 6688 H 617.397 2.06272 3.33458 0
M  V30 6689 H 618.887 1.30162 3.96797 0
M  V30 6690 N 619.324 -0.923095 1.27737 0
M  V30 6691 C 620.57 -1.67375 1.14514 0
M  V30 6692 C 620.903 -1.91751 -0.307424 0
M  V30 6693 O 620.178 -1.51119 -1.22447 0
M  V30 6694 C 620.461 -3.03745 1.9342 0
M  V30 6695 C 620.314 -2.86581 3.46686 0
M  V30 6696 C 621.633 -4.04144 1.74228 0
M  V30 6697 H 618.752 -0.607427 0.417374 0
M  V30 6698 H 621.394 -1.07089 1.56946 0
M  V30 6699 H 619.544 -3.55204 1.5736 0
M  V30 6700 H 621.216 -2.42203 3.92601 0
M  V30 6701 H 619.459 -2.21829 3.72793 0
M  V30 6702 H 620.13 -3.83381 3.97143 0
M  V30 6703 H 622.606 -3.61712 2.05678 0
M  V30 6704 H 621.482 -4.97543 2.31824 0
M  V30 6705 H 621.743 -4.36661 0.691373 0
M  V30 6706 N 620.802 -1.09834 -1.13024 0
M  V30 6707 C 621.765 -0.745058 -2.16752 0
M  V30 6708 C 622.765 0.227435 -1.59183 0
M  V30 6709 O 623.955 0.0050786 -1.74199 0
M  V30 6710 C 621.087 -0.102543 -3.40746 0
M  V30 6711 H 622.28 -1.66375 -2.49518 0
M  V30 6712 H 619.833 -0.898061 -1.27924 0
M  V30 6713 H 620.568 0.827177 -3.13573 0
M  V30 6714 H 620.353 -0.80235 -3.83803 0
M  V30 6715 H 621.843 0.129082 -4.174 0
M  V30 6716 N 622.28 1.30327 -0.886154 0
M  V30 6717 C 623.527 1.96097 -0.505192 0
M  V30 6718 C 623.855 1.69952 0.945868 0
M  V30 6719 O 623.11 0.997653 1.68361 0
M  V30 6720 C 623.409 3.49906 -0.728042 0
M  V30 6721 C 623.075 3.96103 -2.15437 0
M  V30 6722 C 621.737 4.08428 -2.5444 0
M  V30 6723 C 624.089 4.20177 -3.08384 0
M  V30 6724 C 621.417 4.42189 -3.85598 0
M  V30 6725 C 623.769 4.55407 -4.39075 0
M  V30 6726 C 622.433 4.65941 -4.7797 0
M  V30 6727 H 621.703 0.71757 -0.184863 0
M  V30 6728 H 624.35 1.55171 -1.12223 0
M  V30 6729 H 622.655 3.9179 -0.027978 0
M  V30 6730 H 624.352 3.98869 -0.412862 0
M  V30 6731 H 620.942 3.87017 -1.84162 0
M  V30 6732 H 625.126 4.10134 -2.7947 0
M  V30 6733 H 620.382 4.48544 -4.15473 0
M  V30 6734 H 624.556 4.72986 -5.11133 0
M  V30 6735 H 622.183 4.91856 -5.79639 0
M  V30 6736 N 623.758 0.647228 1.43697 0
M  V30 6737 C 625.174 0.314256 1.56476 0
M  V30 6738 C 625.374 -1.18191 1.63196 0
M  V30 6739 O 624.43 -1.96655 1.58376 0
M  V30 6740 C 625.743 1.02034 2.82859 0
M  V30 6741 C 627.291 1.00002 2.96595 0
M  V30 6742 C 627.766 1.68689 4.25803 0
M  V30 6743 N 629.257 1.65424 4.32654 0
M  V30 6744 C 629.992 2.1545 5.31384 0
M  V30 6745 N 629.488 2.73738 6.36427 0
M  V30 6746 N 631.281 2.05985 5.22998 0
M  V30 6747 H 623.432 1.61821 1.37578 0
M  V30 6748 H 625.695 0.680184 0.660344 0
M  V30 6749 H 625.401 2.07542 2.83935 0
M  V30 6750 H 625.275 0.568146 3.72897 0
M  V30 6751 H 627.662 -0.0466319 2.95063 0
M  V30 6752 H 627.743 1.49086 2.07863 0
M  V30 6753 H 627.387 2.73308 4.28095 0
M  V30 6754 H 627.317 1.17076 5.13421 0
M  V30 6755 H 629.808 1.22884 3.57363 0
M  V30 6756 H 630.121 3.09602 7.08072 0
M  V30 6757 H 628.466 2.77796 6.37067 0
M  V30 6758 H 631.657 1.60157 4.39849 0
M  V30 6759 H 631.83 2.45281 5.99784 0
M  V30 6760 N 625.236 -1.5273 0.388769 0
M  V30 6761 C 626.483 -2.01573 -0.19359 0
M  V30 6762 C 626.811 -1.27525 -1.46859 0
M  V30 6763 O 626.066 -0.363926 -1.92286 0
M  V30 6764 C 626.365 -3.53765 -0.508445 0
M  V30 6765 C 626.031 -4.4582 0.674947 0
M  V30 6766 C 624.693 -4.70703 0.999596 0
M  V30 6767 C 627.045 -5.00138 1.46666 0
M  V30 6768 C 624.373 -5.47155 2.11751 0
M  V30 6769 C 626.725 -5.77812 2.57518 0
M  V30 6770 C 625.389 -6.00975 2.90492 0
M  V30 6771 H 624.659 -0.737606 -0.0708397 0
M  V30 6772 H 627.306 -1.84134 0.526006 0
M  V30 6773 H 625.611 -3.69274 -1.30936 0
M  V30 6774 H 627.308 -3.8905 -0.971664 0
M  V30 6775 H 623.898 -4.26616 0.411906 0
M  V30 6776 H 628.082 -4.8084 1.22909 0
M  V30 6777 H 623.338 -5.63314 2.3767 0
M  V30 6778 H 627.512 -6.18904 3.19267 0
M  V30 6779 H 625.139 -6.59998 3.77236 0
M  V30 6780 N 626.714 -0.118576 -1.57153 0
M  V30 6781 C 627.661 0.831789 -2.1529 0
M  V30 6782 C 628.631 1.26385 -1.07778 0
M  V30 6783 O 629.816 1.34144 -1.35684 0
M  V30 6784 C 626.956 2.07664 -2.75626 0
M  V30 6785 C 626.069 1.69298 -3.97444 0
M  V30 6786 C 625.204 2.88747 -4.45868 0
M  V30 6787 C 624.243 2.46619 -5.60219 0
M  V30 6788 N 623.38 3.5898 -6.03389 0
M  V30 6789 H 628.22 0.329183 -2.96176 0
M  V30 6790 H 625.757 0.150792 -1.46325 0
M  V30 6791 H 627.715 2.80601 -3.08738 0
M  V30 6792 H 626.345 2.55384 -1.97431 0
M  V30 6793 H 625.397 0.862374 -3.70496 0
M  V30 6794 H 626.709 1.34338 -4.80369 0
M  V30 6795 H 625.863 3.69909 -4.80887 0
M  V30 6796 H 624.602 3.26933 -3.61892 0
M  V30 6797 H 623.607 1.63889 -5.24805 0
M  V30 6798 H 624.832 2.0955 -6.45961 0
M  V30 6799 H 622.778 3.9684 -5.22354 0
M  V30 6800 H 622.695 3.27942 -6.81168 0
M  V30 6801 H 623.963 4.40583 -6.43045 0
M  V30 6802 N 628.193 1.56834 0.155195 0
M  V30 6803 C 629.47 1.73799 0.897395 0
M  V30 6804 C 629.85 0.684379 1.99698 0
M  V30 6805 O 629.198 -0.298111 2.26547 0
M  V30 6806 C 629.408 3.17572 1.44737 0
M  V30 6807 C 630.756 3.79014 1.91399 0
M  V30 6808 O 631.78 3.20951 1.54496 0
M  V30 6809 O 630.639 4.80998 2.59429 0
M  V30 6810 H 627.733 0.710329 0.423511 0
M  V30 6811 H 630.279 1.69107 0.141761 0
M  V30 6812 H 629.051 3.85749 0.656741 0
M  V30 6813 H 628.674 3.26657 2.26674 0
M  V30 6814 N 629.671 -0.424282 1.51781 0
M  V30 6815 C 630.618 -1.51591 1.74037 0
M  V30 6816 C 631.588 -1.55556 0.582358 0
M  V30 6817 O 632.773 -1.72364 0.818245 0
M  V30 6818 C 629.913 -2.89188 1.8832 0
M  V30 6819 C 629.026 -2.9465 3.1592 0
M  V30 6820 C 628.161 -4.23452 3.20721 0
M  V30 6821 C 627.2 -4.22831 4.42584 0
M  V30 6822 N 626.337 -5.43178 4.44862 0
M  V30 6823 H 631.177 -1.31917 2.67212 0
M  V30 6824 H 628.714 -0.640599 1.32419 0
M  V30 6825 H 630.672 -3.69044 1.94583 0
M  V30 6826 H 629.302 -3.07392 0.985402 0
M  V30 6827 H 628.354 -2.07378 3.18902 0
M  V30 6828 H 629.666 -2.90055 4.05795 0
M  V30 6829 H 628.82 -5.1169 3.25973 0
M  V30 6830 H 627.559 -4.30722 2.28757 0
M  V30 6831 H 626.564 -3.32984 4.37495 0
M  V30 6832 H 627.789 -4.17213 5.35826 0
M  V30 6833 H 625.735 -5.51145 3.55775 0
M  V30 6834 H 625.652 -5.40515 5.28563 0
M  V30 6835 H 626.92 -6.33412 4.54324 0
M  V30 6836 N 631.149 -1.42148 -0.680565 0
M  V30 6837 C 632.059 -1.47565 -1.82378 0
M  V30 6838 C 633.075 -0.36489 -1.70131 0
M  V30 6839 O 634.251 -0.614916 -1.91783 0
M  V30 6840 C 631.316 -1.37013 -3.18478 0
M  V30 6841 C 630.377 -2.58532 -3.42724 0
M  V30 6842 C 629.61 -2.48473 -4.72331 0
M  V30 6843 O 629.833 -1.51745 -5.49845 0
M  V30 6844 O 628.767 -3.38503 -4.97694 0
M  V30 6845 H 632.593 -2.44045 -1.80764 0
M  V30 6846 H 630.178 -1.23849 -0.835569 0
M  V30 6847 H 632.06 -1.33468 -3.99705 0
M  V30 6848 H 630.735 -0.436552 -3.20743 0
M  V30 6849 H 629.642 -2.67652 -2.61368 0
M  V30 6850 H 630.975 -3.50769 -3.45286 0
M  V30 6851 N 632.627 0.916307 -1.28225 0
M  V30 6852 C 634.043 1.19425 -1.05876 0
M  V30 6853 C 634.243 2.005 0.2005 0
M  V30 6854 O 633.299 2.35806 0.902873 0
M  V30 6855 C 634.612 1.93133 -2.30478 0
M  V30 6856 C 636.16 2.06026 -2.35632 0
M  V30 6857 C 636.635 2.83141 -3.59994 0
M  V30 6858 N 638.126 2.90704 -3.60618 0
M  V30 6859 C 638.861 3.50865 -4.53521 0
M  V30 6860 N 638.357 4.12327 -5.56739 0
M  V30 6861 N 640.15 3.48379 -4.41122 0
M  V30 6862 H 632.301 0.37496 -2.09064 0
M  V30 6863 H 634.564 0.228531 -0.920042 0
M  V30 6864 H 634.27 1.40985 -3.22205 0
M  V30 6865 H 634.144 2.93696 -2.36691 0
M  V30 6866 H 636.531 2.57355 -1.44404 0
M  V30 6867 H 636.612 1.04647 -2.33415 0
M  V30 6868 H 636.256 2.32492 -4.51564 0
M  V30 6869 H 636.186 3.84829 -3.59464 0
M  V30 6870 H 638.677 2.47034 -2.85977 0
M  V30 6871 H 638.99 4.56205 -6.23776 0
M  V30 6872 H 637.335 4.10839 -5.60568 0
M  V30 6873 H 640.526 2.99572 -3.59686 0
M  V30 6874 H 640.699 3.94974 -5.13712 0
M  V30 6875 N 634.105 1.10431 1.1244 0
M  V30 6876 C 635.516 0.864439 1.65482 0
M  V30 6877 C 635.867 -0.60527 1.8663 0
M  V30 6878 O 634.992 -1.46492 1.59276 0
M  V30 6879 C 635.587 1.56267 3.0061 0
M  V30 6880 C 634.146 1.3695 3.50602 0
M  V30 6881 C 633.293 1.61209 2.25626 0
M  V30 6882 H 636.244 1.26203 0.962209 0
M  V30 6883 H 636.265 1.00166 3.67079 0
M  V30 6884 H 635.777 2.63231 2.85186 0
M  V30 6885 H 633.878 0.321481 3.71211 0
M  V30 6886 H 633.991 2.11143 4.30064 0
M  V30 6887 H 632.355 1.03482 2.32731 0
M  V30 6888 H 633.138 2.69425 2.12756 0
M  V30 6889 N 635.583 -1.29855 0.893053 0
M  V30 6890 C 636.999 -1.48366 0.588199 0
M  V30 6891 C 637.199 -1.81654 -0.872018 0
M  V30 6892 O 636.255 -1.909 -1.65268 0
M  V30 6893 C 637.568 -2.60136 1.5083 0
M  V30 6894 C 639.116 -2.74014 1.51279 0
M  V30 6895 C 639.591 -3.88905 2.41902 0
M  V30 6896 N 641.082 -3.96228 2.39911 0
M  V30 6897 C 641.817 -4.84458 3.06738 0
M  V30 6898 N 641.313 -5.77426 3.8282 0
M  V30 6899 N 643.106 -4.77894 2.95929 0
M  V30 6900 H 635.257 -1.06522 1.83757 0
M  V30 6901 H 637.52 -0.528495 0.787018 0
M  V30 6902 H 637.226 -2.42383 2.54839 0
M  V30 6903 H 637.1 -3.56793 1.22388 0
M  V30 6904 H 639.487 -2.91167 0.480179 0
M  V30 6905 H 639.568 -1.77952 1.83757 0
M  V30 6906 H 639.212 -3.72508 3.45253 0
M  V30 6907 H 639.142 -4.84322 2.06737 0
M  V30 6908 H 641.633 -3.29728 1.84629 0
M  V30 6909 H 641.946 -6.41529 4.30883 0
M  V30 6910 H 640.291 -5.77332 3.86927 0
M  V30 6911 H 643.482 -4.04248 2.36012 0
M  V30 6912 H 643.655 -5.46444 3.48286 0
M  V30 6913 N 637.061 -0.65484 -1.43351 0
M  V30 6914 C 638.309 -0.168559 -2.01396 0
M  V30 6915 C 638.63 1.22235 -1.51933 0
M  V30 6916 O 637.9 1.81685 -0.732627 0
M  V30 6917 H 636.48 -0.0593244 -0.744641 0
M  V30 6918 H 639.142 -0.846871 -1.75539 0
M  V30 6919 H 638.238 -0.154428 -3.11718 0
M  V30 6920 N 638.539 1.52521 -0.396863 0
M  V30 6921 C 639.769 2.05792 0.182485 0
M  V30 6922 C 640.177 1.26784 1.40436 0
M  V30 6923 O 639.52 0.309617 1.81072 0
M  V30 6924 C 639.582 3.54291 0.609781 0
M  V30 6925 C 639.246 4.5426 -0.499674 0
M  V30 6926 C 640.243 5.01812 -1.35944 0
M  V30 6927 C 637.928 4.97827 -0.668864 0
M  V30 6928 C 639.922 5.91562 -2.37346 0
M  V30 6929 C 637.609 5.87376 -1.68621 0
M  V30 6930 C 638.607 6.34137 -2.53692 0
M  V30 6931 O 638.295 7.21915 -3.53686 0
M  V30 6932 H 638.027 0.675362 0.0293583 0
M  V30 6933 H 640.581 1.97539 -0.56281 0
M  V30 6934 H 638.811 3.60188 1.40717 0
M  V30 6935 H 640.5 3.90267 1.11565 0
M  V30 6936 H 641.266 4.68879 -1.24008 0
M  V30 6937 H 637.145 4.60997 -0.0163971 0
M  V30 6938 H 640.689 6.27983 -3.03782 0
M  V30 6939 H 636.586 6.19723 -1.80593 0
M  V30 6940 H 637.354 7.39996 -3.49784 0
M  V30 6941 N 640.017 0.126909 1.57088 0
M  V30 6942 C 641.245 -0.53667 1.99819 0
M  V30 6943 C 641.66 -1.5972 1.00673 0
M  V30 6944 O 641.017 -1.825 0.000747365 0
M  V30 6945 C 641.068 -1.15563 3.42531 0
M  V30 6946 O 640.789 -0.137483 4.37884 0
M  V30 6947 C 642.29 -1.90176 4.00435 0
M  V30 6948 H 639.51 -0.141443 0.655923 0
M  V30 6949 H 642.054 0.215578 2.03361 0
M  V30 6950 H 640.209 -1.85861 3.39904 0
M  V30 6951 H 640.623 -0.588229 5.21191 0
M  V30 6952 H 642.097 -2.28801 5.02349 0
M  V30 6953 H 642.574 -2.78002 3.40017 0
M  V30 6954 H 643.18 -1.24623 4.06632 0
M  V30 6955 N 641.495 -1.56914 -0.146875 0
M  V30 6956 C 642.72 -1.87881 -0.878386 0
M  V30 6957 C 643.145 -0.715945 -1.73942 0
M  V30 6958 O 642.503 0.334447 -1.78189 0
M  V30 6959 C 642.551 -3.17431 -1.71084 0
M  V30 6960 O 641.655 -3.01374 -2.81509 0
M  V30 6961 H 640.996 -0.617289 -0.244644 0
M  V30 6962 H 643.526 -2.04136 -0.137654 0
M  V30 6963 H 643.536 -3.49455 -2.10582 0
M  V30 6964 H 642.211 -4.01671 -1.07856 0
M  V30 6965 H 640.788 -2.80758 -2.45416 0
M  V30 6966 N 642.974 0.416227 -1.52004 0
M  V30 6967 C 643.921 1.50666 -1.74838 0
M  V30 6968 C 644.891 1.55245 -0.590599 0
M  V30 6969 O 646.076 1.71928 -0.827374 0
M  V30 6970 C 643.216 2.88185 -1.89851 0
M  V30 6971 C 642.329 2.92971 -3.17478 0
M  V30 6972 C 641.464 4.21745 -3.22962 0
M  V30 6973 C 640.503 4.20478 -4.4482 0
M  V30 6974 N 639.64 5.40811 -4.47736 0
M  V30 6975 H 644.48 1.30498 -2.67907 0
M  V30 6976 H 642.017 0.633568 -1.32757 0
M  V30 6977 H 643.975 3.68007 -1.96537 0
M  V30 6978 H 642.605 3.06865 -1.00169 0
M  V30 6979 H 641.657 2.05684 -3.19997 0
M  V30 6980 H 642.969 2.87899 -4.07328 0
M  V30 6981 H 642.123 5.09954 -3.28682 0
M  V30 6982 H 640.862 4.29503 -2.31038 0
M  V30 6983 H 639.867 3.30659 -4.39254 0
M  V30 6984 H 641.092 4.14366 -5.38031 0
M  V30 6985 H 639.038 5.4925 -3.58692 0
M  V30 6986 H 638.955 5.37705 -5.31422 0
M  V30 6987 H 640.223 6.30993 -4.57676 0
M  V30 6988 N 644.452 1.42507 0.673017 0
M  V30 6989 C 645.701 1.42364 1.42883 0
M  V30 6990 C 646.014 0.0441598 1.9555 0
M  V30 6991 O 647.22 -0.0798679 2.71382 0
M  V30 6992 C 645.676 2.5043 2.58482 0
M  V30 6993 C 645.284 3.94392 2.12506 0
M  V30 6994 C 647.028 2.59455 3.35981 0
M  V30 6995 C 644.935 4.93964 3.25198 0
M  V30 6996 H 643.865 0.52951 0.536782 0
M  V30 6997 H 646.516 1.68422 0.728448 0
M  V30 6998 H 644.898 2.1754 3.30896 0
M  V30 6999 H 646.072 4.36645 1.47233 0
M  V30 7000 H 644.387 3.89233 1.4794 0
M  V30 7001 H 646.984 3.31025 4.19912 0
M  V30 7002 H 647.327 1.63869 3.82691 0
M  V30 7003 H 647.86 2.91549 2.70637 0
M  V30 7004 H 644.599 5.91034 2.83477 0
M  V30 7005 H 644.119 4.56341 3.89247 0
M  V30 7006 H 645.798 5.15763 3.90637 0
M  V30 7007 N 645.93 -0.909495 1.28709 0
M  V30 7008 C 646.893 -1.99399 1.13016 0
M  V30 7009 C 647.893 -1.60654 0.068536 0
M  V30 7010 O 649.083 -1.71334 0.314671 0
M  V30 7011 C 646.215 -3.33078 0.726085 0
M  V30 7012 H 647.408 -2.14751 2.09338 0
M  V30 7013 H 644.961 -1.09272 1.11756 0
M  V30 7014 H 645.696 -3.23428 -0.23771 0
M  V30 7015 H 645.481 -3.62562 1.49302 0
M  V30 7016 H 646.971 -4.12681 0.639058 0
M  V30 7017 N 647.408 -1.11026 -1.11852 0
M  V30 7018 C 648.656 -0.854769 -1.83134 0
M  V30 7019 C 648.977 0.621375 -1.84835 0
M  V30 7020 O 648.247 1.45129 -1.31584 0
M  V30 7021 H 646.827 -0.313229 -0.678157 0
M  V30 7022 H 649.489 -1.40178 -1.35411 0
M  V30 7023 H 648.585 -1.22311 -2.87135 0
M  V30 7024 N 648.886 1.2938 -0.899927 0
M  V30 7025 C 650.135 1.9483 -0.521937 0
M  V30 7026 C 650.448 1.71725 0.936473 0
M  V30 7027 O 651.654 2.31282 1.42199 0
M  V30 7028 C 650.11 3.48911 -0.88255 0
M  V30 7029 C 649.718 3.80815 -2.35974 0
M  V30 7030 C 651.462 4.20595 -0.57448 0
M  V30 7031 C 649.369 5.28142 -2.66121 0
M  V30 7032 H 648.299 0.729285 -0.191468 0
M  V30 7033 H 650.95 1.47103 -1.09695 0
M  V30 7034 H 649.332 3.95293 -0.236459 0
M  V30 7035 H 650.506 3.45291 -3.05141 0
M  V30 7036 H 648.821 3.22271 -2.63686 0
M  V30 7037 H 651.418 5.29031 -0.776556 0
M  V30 7038 H 651.761 4.13442 0.487005 0
M  V30 7039 H 652.294 3.79945 -1.17842 0
M  V30 7040 H 649.033 5.4036 -3.71068 0
M  V30 7041 H 648.553 5.64913 -2.01578 0
M  V30 7042 H 650.232 5.95738 -2.52399 0
M  V30 7043 N 650.364 0.662433 1.43002 0
M  V30 7044 C 651.294 -0.00979809 2.33498 0
M  V30 7045 C 652.275 -0.802329 1.49989 0
M  V30 7046 O 653.46 -0.761964 1.78627 0
M  V30 7047 C 650.59 -0.970446 3.33466 0
M  V30 7048 C 649.544 -0.287383 4.27034 0
M  V30 7049 C 648.87 -1.36012 5.17112 0
M  V30 7050 C 650.17 0.82595 5.15728 0
M  V30 7051 H 651.864 0.745959 2.89958 0
M  V30 7052 H 649.41 0.360172 1.39423 0
M  V30 7053 H 651.363 -1.44971 3.95679 0
M  V30 7054 H 650.087 -1.75748 2.75282 0
M  V30 7055 H 648.746 0.17152 3.66199 0
M  V30 7056 H 648.394 -2.13882 4.55262 0
M  V30 7057 H 648.094 -0.908276 5.80538 0
M  V30 7058 H 649.618 -1.84056 5.82199 0
M  V30 7059 H 651.032 0.42845 5.71697 0
M  V30 7060 H 649.429 1.20282 5.87922 0
M  V30 7061 H 650.499 1.68003 4.54866 0
M  V30 7062 N 651.842 -1.52309 0.404946 0
M  V30 7063 C 652.792 -2.23717 -0.439864 0
M  V30 7064 C 653.776 -1.24692 -1.0169 0
M  V30 7065 O 654.968 -1.49951 -0.940409 0
M  V30 7066 C 652.097 -3.05898 -1.55825 0
M  V30 7067 C 651.183 -4.12331 -0.992188 0
M  V30 7068 N 651.574 -5.0557 -0.152424 0
M  V30 7069 C 649.872 -4.2774 -1.26312 0
M  V30 7070 C 650.573 -5.81474 0.162041 0
M  V30 7071 N 649.549 -5.41767 -0.44601 0
M  V30 7072 H 653.351 -2.93162 0.208084 0
M  V30 7073 H 650.865 -1.60969 0.215131 0
M  V30 7074 H 652.862 -3.55605 -2.17603 0
M  V30 7075 H 651.522 -2.37991 -2.20886 0
M  V30 7076 H 652.533 -5.17468 0.211556 0
M  V30 7077 H 649.21 -3.71062 -1.91362 0
M  V30 7078 H 650.6 -6.66585 0.843423 0
M  V30 7079 N 653.32 -0.135238 -1.57019 0
M  V30 7080 C 654.55 0.525303 -1.9981 0
M  V30 7081 C 654.958 1.59724 -1.01415 0
M  V30 7082 O 654.301 1.837 -0.00130938 0
M  V30 7083 C 654.363 1.19578 -3.3903 0
M  V30 7084 C 654.027 0.269855 -4.56203 0
M  V30 7085 C 655.024 -0.497905 -5.1751 0
M  V30 7086 C 652.709 0.176188 -5.01991 0
M  V30 7087 C 654.703 -1.3469 -6.23007 0
M  V30 7088 C 652.39 -0.676422 -6.07345 0
M  V30 7089 C 653.388 -1.43658 -6.67721 0
M  V30 7090 O 653.076 -2.27501 -7.71037 0
M  V30 7091 H 652.808 0.142296 -0.660854 0
M  V30 7092 H 655.362 -0.223272 -2.04183 0
M  V30 7093 H 653.592 1.99176 -3.3146 0
M  V30 7094 H 655.281 1.75486 -3.66005 0
M  V30 7095 H 656.047 -0.435507 -4.83041 0
M  V30 7096 H 651.926 0.757583 -4.54733 0
M  V30 7097 H 655.47 -1.9407 -6.70062 0
M  V30 7098 H 651.367 -0.740154 -6.41243 0
M  V30 7099 H 652.135 -2.20619 -7.88206 0
M  V30 7100 N 654.798 1.5699 0.138552 0
M  V30 7101 C 656.028 1.87704 0.863184 0
M  V30 7102 C 656.436 0.722411 1.74865 0
M  V30 7103 O 655.779 -0.316636 1.80951 0
M  V30 7104 C 655.841 3.13219 1.76449 0
M  V30 7105 C 655.505 4.44648 1.05532 0
M  V30 7106 C 656.502 5.18318 0.405252 0
M  V30 7107 C 654.187 4.91367 1.04231 0
M  V30 7108 C 656.181 6.36916 -0.24835 0
M  V30 7109 C 653.868 6.09887 0.384904 0
M  V30 7110 C 654.866 6.82508 -0.259292 0
M  V30 7111 O 654.554 7.98775 -0.906258 0
M  V30 7112 H 654.286 0.626255 0.254521 0
M  V30 7113 H 656.84 2.04966 0.133472 0
M  V30 7114 H 655.07 2.91988 2.53535 0
M  V30 7115 H 656.759 3.30111 2.36181 0
M  V30 7116 H 657.525 4.83289 0.407053 0
M  V30 7117 H 653.404 4.34759 1.53315 0
M  V30 7118 H 656.948 6.93538 -0.751755 0
M  V30 7119 H 652.845 6.44376 0.380799 0
M  V30 7120 H 653.613 8.14494 -0.80877 0
M  V30 7121 N 656.276 -0.40816 1.52223 0
M  V30 7122 C 657.687 -0.986929 1.58482 0
M  V30 7123 C 658.038 -1.91521 0.425917 0
M  V30 7124 O 657.163 -2.11593 -0.453593 0
M  V30 7125 C 657.758 -1.7967 2.87235 0
M  V30 7126 C 656.317 -2.32549 2.9597 0
M  V30 7127 C 655.464 -1.12558 2.53428 0
M  V30 7128 H 658.415 -0.188362 1.57578 0
M  V30 7129 H 658.436 -2.65417 2.72642 0
M  V30 7130 H 657.948 -1.12082 3.71563 0
M  V30 7131 H 656.049 -3.03505 2.16137 0
M  V30 7132 H 656.162 -2.63348 4.00231 0
M  V30 7133 H 654.526 -1.47984 2.07299 0
M  V30 7134 H 655.309 -0.465351 3.40131 0
M  V30 7135 N 657.755 -1.42862 -0.66545 0
M  V30 7136 C 658.685 -1.49867 -1.79059 0
M  V30 7137 C 659.666 -0.354394 -1.66367 0
M  V30 7138 O 660.851 -0.569969 -1.85647 0
M  V30 7139 C 657.981 -1.40943 -3.17415 0
M  V30 7140 C 656.935 -2.53495 -3.44854 0
M  V30 7141 C 656.261 -2.29626 -4.82883 0
M  V30 7142 C 657.561 -3.95781 -3.40815 0
M  V30 7143 H 659.255 -2.44037 -1.73453 0
M  V30 7144 H 656.801 -1.17456 -0.833071 0
M  V30 7145 H 658.754 -1.4445 -3.95869 0
M  V30 7146 H 657.478 -0.432716 -3.23721 0
M  V30 7147 H 656.137 -2.4932 -2.68766 0
M  V30 7148 H 655.785 -1.30226 -4.8585 0
M  V30 7149 H 655.485 -3.05065 -5.02204 0
M  V30 7150 H 657.009 -2.34897 -5.63609 0
M  V30 7151 H 658.423 -4.01508 -4.09224 0
M  V30 7152 H 656.82 -4.71148 -3.71672 0
M  V30 7153 H 657.89 -4.21786 -2.39216 0
M  V30 7154 N 659.233 0.902656 -1.29189 0
M  V30 7155 C 660.143 2.03946 -1.15944 0
M  V30 7156 C 661.159 1.738 -0.0833803 0
M  V30 7157 O 662.335 1.9923 -0.29487 0
M  V30 7158 C 659.4 3.36519 -0.834006 0
M  V30 7159 C 658.461 3.80203 -1.9936 0
M  V30 7160 C 657.694 5.06449 -1.68359 0
M  V30 7161 O 657.917 5.67202 -0.603141 0
M  V30 7162 O 656.851 5.46114 -2.53067 0
M  V30 7163 H 660.677 2.18043 -2.11403 0
M  V30 7164 H 658.262 1.02584 -1.08613 0
M  V30 7165 H 660.144 4.16089 -0.666949 0
M  V30 7166 H 658.819 3.23573 0.0908245 0
M  V30 7167 H 657.726 3.01413 -2.21588 0
M  V30 7168 H 659.059 3.97729 -2.89952 0
M  V30 7169 N 660.711 1.11618 1.11262 0
M  V30 7170 C 661.621 0.78898 2.20935 0
M  V30 7171 C 662.637 -0.21867 1.7262 0
M  V30 7172 O 663.813 -0.0543826 2.01327 0
M  V30 7173 C 660.878 0.239014 3.45875 0
M  V30 7174 C 659.939 1.3055 4.08968 0
M  V30 7175 C 659.172 0.781687 5.27944 0
M  V30 7176 O 659.395 -0.387605 5.69082 0
M  V30 7177 O 658.329 1.54734 5.81671 0
M  V30 7178 H 662.155 1.70477 2.51339 0
M  V30 7179 H 659.74 0.892203 1.19834 0
M  V30 7180 H 661.622 -0.0632312 4.21353 0
M  V30 7181 H 660.297 -0.649454 3.17118 0
M  V30 7182 H 659.204 1.66079 3.35214 0
M  V30 7183 H 660.537 2.16743 4.41909 0
M  V30 7184 N 662.189 -1.289 0.906776 0
M  V30 7185 C 663.435 -1.95558 0.53712 0
M  V30 7186 C 663.768 -1.71262 -0.915582 0
M  V30 7187 O 663.043 -1.02961 -1.65013 0
M  V30 7188 C 663.326 -3.50198 0.838645 0
M  V30 7189 C 663.179 -3.83923 2.34357 0
M  V30 7190 C 664.498 -4.38861 0.329988 0
M  V30 7191 H 661.617 -0.710289 0.196617 0
M  V30 7192 H 664.259 -1.52392 1.13475 0
M  V30 7193 H 662.409 -3.87096 0.330024 0
M  V30 7194 H 664.081 -3.56933 2.92227 0
M  V30 7195 H 662.324 -3.31215 2.80141 0
M  V30 7196 H 662.995 -4.91883 2.5051 0
M  V30 7197 H 665.471 -4.08996 0.765609 0
M  V30 7198 H 664.347 -5.45931 0.570105 0
M  V30 7199 H 664.608 -4.35352 -0.769511 0
M  V30 7200 N 663.667 -0.670007 -1.42649 0
M  V30 7201 C 664.597 -0.00258501 -2.335 0
M  V30 7202 C 665.578 0.794364 -1.50412 0
M  V30 7203 O 666.763 0.75248 -1.79029 0
M  V30 7204 C 663.893 0.952748 -3.33976 0
M  V30 7205 C 662.847 0.264733 -4.2718 0
M  V30 7206 C 662.173 1.33267 -5.17826 0
M  V30 7207 C 663.473 -0.853289 -5.15283 0
M  V30 7208 H 665.167 -0.761326 -2.89559 0
M  V30 7209 H 662.713 -0.367561 -1.3923 0
M  V30 7210 H 664.666 1.4287 -3.96442 0
M  V30 7211 H 663.39 1.74285 -2.7621 0
M  V30 7212 H 662.049 -0.190938 -3.66102 0
M  V30 7213 H 661.697 2.11464 -4.5639 0
M  V30 7214 H 661.397 0.877476 -5.81011 0
M  V30 7215 H 662.921 1.80965 -5.83167 0
M  V30 7216 H 664.335 -0.458763 -5.71462 0
M  V30 7217 H 662.732 -1.23398 -5.87276 0
M  V30 7218 H 663.802 -1.70412 -4.53969 0
M  V30 7219 N 665.145 1.52092 -0.413018 0
M  V30 7220 C 666.373 2.06274 0.160881 0
M  V30 7221 C 666.788 1.28273 1.38533 0
M  V30 7222 O 666.145 0.33563 1.79387 0
M  V30 7223 C 666.196 3.57921 0.507443 0
M  V30 7224 O 665.917 4.32971 -0.668388 0
M  V30 7225 C 667.418 4.28533 1.13465 0
M  V30 7226 H 664.638 0.67074 0.0186759 0
M  V30 7227 H 667.182 1.95951 -0.585092 0
M  V30 7228 H 665.337 3.68238 1.20331 0
M  V30 7229 H 665.751 5.23135 -0.378169 0
M  V30 7230 H 667.225 5.35804 1.32732 0
M  V30 7231 H 667.702 3.85258 2.10886 0
M  V30 7232 H 668.308 4.22595 0.478876 0
M  V30 7233 N 666.623 0.143563 1.56945 0
M  V30 7234 C 667.586 -0.783295 2.154 0
M  V30 7235 C 668.586 -1.17763 1.09492 0
M  V30 7236 O 669.776 -1.09912 1.35148 0
M  V30 7237 C 666.908 -2.06248 2.7143 0
M  V30 7238 H 668.101 -0.274863 2.98638 0
M  V30 7239 H 665.654 -0.105859 1.55941 0
M  V30 7240 H 666.389 -2.61466 1.91849 0
M  V30 7241 H 666.174 -1.78897 3.4891 0
M  V30 7242 H 667.664 -2.72453 3.16479 0
M  V30 7243 N 668.101 -1.57061 -0.130224 0
M  V30 7244 C 669.011 -2.02802 -1.17934 0
M  V30 7245 C 670.027 -0.946378 -1.46013 0
M  V30 7246 O 671.203 -1.25708 -1.57351 0
M  V30 7247 C 668.268 -2.41368 -2.48882 0
M  V30 7248 C 667.329 -3.63561 -2.28301 0
M  V30 7249 C 666.562 -4.00279 -3.53005 0
M  V30 7250 O 666.785 -3.37463 -4.59864 0
M  V30 7251 O 665.719 -4.93441 -3.44673 0
M  V30 7252 H 669.545 -2.92394 -0.820958 0
M  V30 7253 H 667.13 -1.45475 -0.340197 0
M  V30 7254 H 669.012 -2.66958 -3.26054 0
M  V30 7255 H 667.687 -1.54926 -2.84217 0
M  V30 7256 H 666.594 -3.43136 -1.49025 0
M  V30 7257 H 667.927 -4.50673 -1.97875 0
M  V30 7258 N 669.579 0.400081 -1.52437 0
M  V30 7259 C 670.809 1.16598 -1.70553 0
M  V30 7260 C 671.217 1.8451 -0.418665 0
M  V30 7261 O 670.56 1.73069 0.615855 0
M  V30 7262 C 670.622 2.26517 -2.7916 0
M  V30 7263 C 670.286 1.78666 -4.20628 0
M  V30 7264 C 671.283 1.26946 -5.04163 0
M  V30 7265 C 668.968 1.85225 -4.66902 0
M  V30 7266 C 670.962 0.824187 -6.32049 0
M  V30 7267 C 668.649 1.40309 -5.94774 0
M  V30 7268 C 669.647 0.889922 -6.77178 0
M  V30 7269 O 669.335 0.447281 -8.02655 0
M  V30 7270 H 669.067 0.356023 -0.574651 0
M  V30 7271 H 671.621 0.475598 -1.99818 0
M  V30 7272 H 669.851 2.98946 -2.45292 0
M  V30 7273 H 671.54 2.88237 -2.85787 0
M  V30 7274 H 672.306 1.21244 -4.69601 0
M  V30 7275 H 668.185 2.24111 -4.02859 0
M  V30 7276 H 671.729 0.422958 -6.96317 0
M  V30 7277 H 667.626 1.45693 -6.28843 0
M  V30 7278 H 668.394 0.569768 -8.16514 0
M  V30 7279 N 671.057 1.43213 0.657864 0
M  V30 7280 C 671.987 1.50815 1.78262 0
M  V30 7281 C 672.968 0.363211 1.66177 0
M  V30 7282 O 674.153 0.579806 1.85343 0
M  V30 7283 C 671.283 1.42625 3.16663 0
M  V30 7284 C 670.237 2.5532 3.43505 0
M  V30 7285 C 669.563 2.32184 4.81658 0
M  V30 7286 C 670.863 3.97583 3.38711 0
M  V30 7287 H 672.557 2.44954 1.72157 0
M  V30 7288 H 670.103 1.17896 0.82683 0
M  V30 7289 H 672.056 1.46548 3.95097 0
M  V30 7290 H 670.78 0.449877 3.23487 0
M  V30 7291 H 669.439 2.50742 2.6744 0
M  V30 7292 H 669.087 1.32801 4.85153 0
M  V30 7293 H 668.787 3.07724 5.00579 0
M  V30 7294 H 670.311 2.37883 5.62356 0
M  V30 7295 H 671.725 4.03673 4.07089 0
M  V30 7296 H 670.122 4.73112 3.69168 0
M  V30 7297 H 671.192 4.23049 2.36976 0
M  V30 7298 N 672.536 -0.895792 1.29666 0
M  V30 7299 C 673.466 -2.01673 1.17688 0
M  V30 7300 C 674.447 -1.69955 0.0701317 0
M  V30 7301 O 675.632 -1.9258 0.250289 0
M  V30 7302 C 672.762 -3.36568 0.856681 0
M  V30 7303 C 671.716 -3.82509 1.92017 0
M  V30 7304 C 671.042 -5.14574 1.4532 0
M  V30 7305 C 672.342 -4.02409 3.32963 0
M  V30 7306 H 674.036 -2.11953 2.11463 0
M  V30 7307 H 671.582 -1.01839 1.01807 0
M  V30 7308 H 673.535 -4.14498 0.759577 0
M  V30 7309 H 672.259 -3.26391 -0.116763 0
M  V30 7310 H 670.918 -3.068 2.00673 0
M  V30 7311 H 670.566 -5.00815 0.468325 0
M  V30 7312 H 670.266 -5.46283 2.16447 0
M  V30 7313 H 671.79 -5.9504 1.36968 0
M  V30 7314 H 673.204 -4.70808 3.27127 0
M  V30 7315 H 671.601 -4.45478 4.02082 0
M  V30 7316 H 672.671 -3.06616 3.75652 0
M  V30 7317 N 674.014 -1.12206 -1.10668 0
M  V30 7318 C 674.924 -0.800686 -2.20513 0
M  V30 7319 C 675.94 0.209512 -1.72734 0
M  V30 7320 O 677.116 0.043705 -2.01353 0
M  V30 7321 C 674.181 -0.257353 -3.45744 0
M  V30 7322 C 673.242 -1.32718 -4.0827 0
M  V30 7323 C 672.475 -0.809674 -5.27522 0
M  V30 7324 O 672.698 0.35742 -5.69279 0
M  V30 7325 O 671.632 -1.57816 -5.80842 0
M  V30 7326 H 675.458 -1.71807 -2.50432 0
M  V30 7327 H 673.043 -0.898546 -1.19359 0
M  V30 7328 H 674.925 0.0408849 -4.2138 0
M  V30 7329 H 673.6 0.632627 -3.17458 0
M  V30 7330 H 672.507 -1.67855 -3.34329 0
M  V30 7331 H 673.84 -2.19083 -4.40753 0
M  V30 7332 N 675.492 1.28418 -0.913599 0
M  V30 7333 C 676.402 2.31043 -0.406965 0
M  V30 7334 C 677.418 1.66501 0.505298 0
M  V30 7335 O 678.594 1.97558 0.391522 0
M  V30 7336 C 675.659 3.4498 0.344901 0
M  V30 7337 C 674.72 4.25078 -0.600563 0
M  V30 7338 C 673.953 5.33575 0.115516 0
M  V30 7339 O 674.176 5.54503 1.33727 0
M  V30 7340 O 673.11 5.9939 -0.549095 0
M  V30 7341 H 676.936 2.76387 -1.25873 0
M  V30 7342 H 674.521 1.33109 -0.678415 0
M  V30 7343 H 676.403 4.14314 0.769542 0
M  V30 7344 H 675.078 3.01719 1.1725 0
M  V30 7345 H 673.985 3.58334 -1.0746 0
M  V30 7346 H 675.318 4.72018 -1.39497 0
M  V30 7347 N 676.97 0.677563 1.42291 0
M  V30 7348 C 678.217 0.200975 2.015 0
M  V30 7349 C 678.545 -1.19342 1.53583 0
M  V30 7350 O 677.8 -1.81579 0.7299 0
M  V30 7351 C 678.099 0.187229 3.56909 0
M  V30 7352 C 677.765 1.52667 4.24268 0
M  V30 7353 C 676.427 1.89341 4.42384 0
M  V30 7354 C 678.779 2.40869 4.62203 0
M  V30 7355 C 676.107 3.13836 4.95705 0
M  V30 7356 C 678.459 3.64679 5.16906 0
M  V30 7357 C 677.123 4.01519 5.33234 0
M  V30 7358 H 676.393 0.0735418 0.737342 0
M  V30 7359 H 679.04 0.873095 1.70439 0
M  V30 7360 H 677.345 -0.568407 3.87655 0
M  V30 7361 H 679.042 -0.198773 4.00507 0
M  V30 7362 H 675.632 1.23138 4.1053 0
M  V30 7363 H 679.816 2.1382 4.47878 0
M  V30 7364 H 675.072 3.42396 5.06532 0
M  V30 7365 H 679.246 4.33224 5.45243 0
M  V30 7366 H 676.873 4.98062 5.74316 0
M  V30 7367 N 678.448 -1.51871 0.421078 0
M  V30 7368 C 679.864 -1.59435 0.0725398 0
M  V30 7369 C 680.064 -1.43315 -1.41644 0
M  V30 7370 O 679.12 -1.26614 -2.18461 0
M  V30 7371 C 680.433 -2.9509 0.578132 0
M  V30 7372 C 681.981 -3.08356 0.537149 0
M  V30 7373 C 682.456 -4.4651 1.01945 0
M  V30 7374 N 683.947 -4.52784 0.976758 0
M  V30 7375 C 684.682 -5.57976 1.32099 0
M  V30 7376 N 684.178 -6.70664 1.73727 0
M  V30 7377 N 685.971 -5.48248 1.2402 0
M  V30 7378 H 678.122 -1.60595 1.39007 0
M  V30 7379 H 680.385 -0.756138 0.571803 0
M  V30 7380 H 680.091 -3.12205 1.61929 0
M  V30 7381 H 679.965 -3.772 -0.00578374 0
M  V30 7382 H 682.352 -2.90919 -0.494991 0
M  V30 7383 H 682.433 -2.28125 1.15727 0
M  V30 7384 H 682.077 -4.64692 2.04997 0
M  V30 7385 H 682.007 -5.25256 0.376023 0
M  V30 7386 H 684.498 -3.71898 0.670851 0
M  V30 7387 H 684.811 -7.46932 1.98274 0
M  V30 7388 H 683.156 -6.71914 1.77641 0
M  V30 7389 H 686.347 -4.59095 0.913756 0
M  V30 7390 H 686.52 -6.30119 1.51176 0
M  V30 7391 N 679.926 -0.151884 -1.56866 0
M  V30 7392 C 681.337 0.368128 -1.83035 0
M  V30 7393 C 681.688 1.64402 -1.07082 0
M  V30 7394 O 680.813 2.14056 -0.317647 0
M  V30 7395 C 681.408 0.674676 -3.32014 0
M  V30 7396 C 679.967 1.13919 -3.58747 0
M  V30 7397 C 679.114 0.164833 -2.7681 0
M  V30 7398 H 682.065 -0.376499 -1.54169 0
M  V30 7399 H 682.086 1.52883 -3.48435 0
M  V30 7400 H 681.598 -0.254113 -3.87267 0
M  V30 7401 H 679.699 2.08375 -3.08886 0
M  V30 7402 H 679.812 1.06179 -4.67186 0
M  V30 7403 H 678.176 0.658419 -2.46043 0
M  V30 7404 H 678.959 -0.757633 -3.34836 0
M  V30 7405 N 681.404 1.57128 0.121893 0
M  V30 7406 C 682.681 1.75664 0.860327 0
M  V30 7407 C 683.061 0.726585 1.98202 0
M  V30 7408 O 682.409 -0.24999 2.27128 0
M  V30 7409 C 682.619 3.20571 1.37968 0
M  V30 7410 C 683.967 3.82988 1.83317 0
M  V30 7411 O 684.991 3.24156 1.47654 0
M  V30 7412 O 683.85 4.86393 2.49168 0
M  V30 7413 H 680.944 0.719153 0.408348 0
M  V30 7414 H 683.49 1.6937 0.105859 0
M  V30 7415 H 682.262 3.87056 0.57477 0
M  V30 7416 H 681.885 3.31392 2.19694 0
M  V30 7417 N 682.882 -0.391992 1.52647 0
M  V30 7418 C 683.812 -1.48517 1.8018 0
M  V30 7419 C 684.793 -1.57039 0.653667 0
M  V30 7420 O 685.978 -1.72036 0.900962 0
M  V30 7421 C 683.108 -2.86161 1.96797 0
M  V30 7422 C 682.062 -2.92481 3.12472 0
M  V30 7423 C 681.388 -4.32546 3.14338 0
M  V30 7424 C 682.688 -2.624 4.51601 0
M  V30 7425 H 684.382 -1.25726 2.71723 0
M  V30 7426 H 681.928 -0.603387 1.30749 0
M  V30 7427 H 683.881 -3.62639 2.14641 0
M  V30 7428 H 682.605 -3.10283 1.01941 0
M  V30 7429 H 681.264 -2.18451 2.94406 0
M  V30 7430 H 680.912 -4.53703 2.1717 0
M  V30 7431 H 680.612 -4.37695 3.92042 0
M  V30 7432 H 682.136 -5.10934 3.34333 0
M  V30 7433 H 683.55 -3.28596 4.69785 0
M  V30 7434 H 681.947 -2.78903 5.3135 0
M  V30 7435 H 683.017 -1.57754 4.58521 0
M  V30 7436 N 684.36 -1.4356 -0.65026 0
M  V30 7437 C 685.609 -1.44619 -1.406 0
M  V30 7438 C 685.922 -0.0752645 -1.95455 0
M  V30 7439 O 687.128 0.0366832 -2.71475 0
M  V30 7440 C 685.584 -2.54511 -2.54465 0
M  V30 7441 C 685.192 -3.97723 -2.06204 0
M  V30 7442 C 686.936 -2.64768 -3.31811 0
M  V30 7443 C 684.843 -4.99075 -3.17298 0
M  V30 7444 H 683.773 -0.537983 -0.52829 0
M  V30 7445 H 686.424 -1.69559 -0.701561 0
M  V30 7446 H 684.806 -2.22777 -3.27393 0
M  V30 7447 H 685.98 -4.38932 -1.40267 0
M  V30 7448 H 684.295 -3.91538 -1.41729 0
M  V30 7449 H 686.892 -3.37664 -4.14593 0
M  V30 7450 H 687.235 -1.69936 -3.80036 0
M  V30 7451 H 687.768 -2.95817 -2.65964 0
M  V30 7452 H 684.507 -5.95469 -2.74038 0
M  V30 7453 H 684.027 -4.62476 -3.81937 0
M  V30 7454 H 685.706 -5.21913 -3.82382 0
M  V30 7455 N 685.838 0.888903 -1.30139 0
M  V30 7456 C 686.748 2.02705 -1.18101 0
M  V30 7457 C 687.764 1.73702 -0.101809 0
M  V30 7458 O 688.94 1.98906 -0.315984 0
M  V30 7459 C 686.005 3.35616 -0.869651 0
M  V30 7460 C 685.066 3.78067 -2.03381 0
M  V30 7461 C 684.299 5.04635 -1.73721 0
M  V30 7462 O 684.522 5.66531 -0.663267 0
M  V30 7463 O 683.456 5.43399 -2.58845 0
M  V30 7464 H 687.282 2.15788 -2.13704 0
M  V30 7465 H 684.867 1.01426 -1.09695 0
M  V30 7466 H 686.749 4.15358 -0.711043 0
M  V30 7467 H 685.424 3.23651 0.0565002 0
M  V30 7468 H 684.331 2.99046 -2.24772 0
M  V30 7469 H 685.664 3.94631 -2.94155 0
M  V30 7470 N 687.317 1.12792 1.10072 0
M  V30 7471 C 688.25 0.742921 2.15768 0
M  V30 7472 C 689.228 -0.267714 1.60381 0
M  V30 7473 O 690.412 -0.160782 1.87813 0
M  V30 7474 C 687.539 0.100244 3.38552 0
M  V30 7475 C 686.585 1.07831 4.12644 0
M  V30 7476 S 687.418 2.60765 4.6772 0
M  V30 7477 C 688.574 1.97838 5.9381 0
M  V30 7478 H 688.807 1.63822 2.48092 0
M  V30 7479 H 686.34 0.947385 1.21918 0
M  V30 7480 H 688.298 -0.264175 4.09649 0
M  V30 7481 H 686.959 -0.772223 3.04459 0
M  V30 7482 H 686.152 0.576325 5.00694 0
M  V30 7483 H 685.754 1.38586 3.47376 0
M  V30 7484 H 688.046 1.32341 6.64449 0
M  V30 7485 H 688.989 2.83943 6.48677 0
M  V30 7486 H 689.397 1.43267 5.46017 0
M  V30 7487 N 688.795 -1.27931 0.920396 0
M  V30 7488 C 690.041 -1.94977 0.557832 0
M  V30 7489 C 690.374 -1.72224 -0.897365 0
M  V30 7490 O 689.649 -1.04705 -1.63912 0
M  V30 7491 C 689.932 -3.49289 0.875741 0
M  V30 7492 C 689.785 -3.81416 2.38416 0
M  V30 7493 C 691.104 -4.38486 0.376517 0
M  V30 7494 H 688.223 -0.708164 0.20414 0
M  V30 7495 H 690.865 -1.5118 1.15085 0
M  V30 7496 H 689.015 -3.86724 0.371062 0
M  V30 7497 H 690.687 -3.53813 2.95997 0
M  V30 7498 H 688.93 -3.28225 2.83639 0
M  V30 7499 H 689.601 -4.89198 2.55713 0
M  V30 7500 H 692.077 -4.08161 0.808945 0
M  V30 7501 H 690.953 -5.45296 0.627976 0
M  V30 7502 H 691.214 -4.36143 -0.723293 0
M  V30 7503 N 690.273 -0.685099 -1.4193 0
M  V30 7504 C 691.203 -0.0273506 -2.33484 0
M  V30 7505 C 692.184 0.778366 -1.51246 0
M  V30 7506 O 693.369 0.733449 -1.79817 0
M  V30 7507 C 690.499 0.917272 -3.34968 0
M  V30 7508 C 689.453 0.21941 -4.27437 0
M  V30 7509 C 688.779 1.27768 -5.1921 0
M  V30 7510 C 690.079 -0.907894 -5.14349 0
M  V30 7511 H 691.773 -0.791994 -2.88735 0
M  V30 7512 H 689.319 -0.382308 -1.38832 0
M  V30 7513 H 691.272 1.38657 -3.97935 0
M  V30 7514 H 689.996 1.71346 -2.78043 0
M  V30 7515 H 688.655 -0.229757 -3.65879 0
M  V30 7516 H 688.303 2.06612 -4.58607 0
M  V30 7517 H 688.003 0.815803 -5.81909 0
M  V30 7518 H 689.527 1.7477 -5.85054 0
M  V30 7519 H 690.941 -0.519348 -5.70943 0
M  V30 7520 H 689.338 -1.2962 -5.85934 0
M  V30 7521 H 690.408 -1.75218 -4.52136 0
M  V30 7522 N 691.751 1.51645 -0.429126 0
M  V30 7523 C 693.028 1.94579 0.199614 0
M  V30 7524 C 693.408 1.3673 1.60836 0
M  V30 7525 O 692.756 0.551062 2.21756 0
M  V30 7526 C 692.966 3.48506 0.185685 0
M  V30 7527 C 694.314 4.22756 0.395282 0
M  V30 7528 O 695.338 3.55219 0.264165 0
M  V30 7529 O 694.197 5.42555 0.655475 0
M  V30 7530 H 691.291 0.816007 0.134393 0
M  V30 7531 H 693.837 1.62577 -0.486513 0
M  V30 7532 H 692.609 3.83045 -0.799508 0
M  V30 7533 H 692.232 3.86927 0.91507 0
M  V30 7534 N 693.229 0.160201 1.56784 0
M  V30 7535 C 694.176 -0.774416 2.1742 0
M  V30 7536 C 695.146 -1.23483 1.11091 0
M  V30 7537 O 696.331 -1.30499 1.39193 0
M  V30 7538 C 693.471 -2.00283 2.81035 0
M  V30 7539 C 692.584 -1.58701 4.01793 0
M  V30 7540 C 691.719 -2.76824 4.53367 0
M  V30 7541 C 690.758 -2.31679 5.66561 0
M  V30 7542 N 689.895 -3.42856 6.12694 0
M  V30 7543 H 694.735 -0.250542 2.96945 0
M  V30 7544 H 692.272 -0.111943 1.46673 0
M  V30 7545 H 694.23 -2.72316 3.16069 0
M  V30 7546 H 692.86 -2.5006 2.04132 0
M  V30 7547 H 691.912 -0.76384 3.72652 0
M  V30 7548 H 693.224 -1.21555 4.83762 0
M  V30 7549 H 692.378 -3.57029 4.90525 0
M  V30 7550 H 691.117 -3.17223 3.70433 0
M  V30 7551 H 690.122 -1.49917 5.28966 0
M  V30 7552 H 691.347 -1.9235 6.5129 0
M  V30 7553 H 689.293 -3.82852 5.32692 0
M  V30 7554 H 689.21 -3.09767 6.89624 0
M  V30 7555 H 690.478 -4.23379 6.545 0
M  V30 7556 N 694.707 -1.5719 -0.113559 0
M  V30 7557 C 695.637 -2.03772 -1.14013 0
M  V30 7558 C 696.618 -0.923176 -1.42869 0
M  V30 7559 O 697.803 -1.19325 -1.53216 0
M  V30 7560 C 694.933 -2.44663 -2.4649 0
M  V30 7561 C 693.887 -3.59612 -2.32085 0
M  V30 7562 C 693.213 -3.8642 -3.69573 0
M  V30 7563 C 694.513 -4.91149 -1.7768 0
M  V30 7564 H 696.207 -2.89785 -0.752665 0
M  V30 7565 H 693.753 -1.39412 -0.360609 0
M  V30 7566 H 695.706 -2.75857 -3.18561 0
M  V30 7567 H 694.43 -1.55628 -2.87137 0
M  V30 7568 H 693.089 -3.28636 -1.62461 0
M  V30 7569 H 692.737 -2.94581 -4.07715 0
M  V30 7570 H 692.437 -4.63797 -3.60786 0
M  V30 7571 H 693.961 -4.2007 -4.4314 0
M  V30 7572 H 695.375 -5.20843 -2.39574 0
M  V30 7573 H 693.772 -5.72562 -1.79701 0
M  V30 7574 H 694.842 -4.79301 -0.734776 0
M  V30 7575 N 696.185 0.383891 -1.52853 0
M  V30 7576 C 697.601 0.724316 -1.42218 0
M  V30 7577 C 697.801 1.93943 -0.546654 0
M  V30 7578 O 696.857 2.5249 -0.0220562 0
M  V30 7579 C 698.17 0.954635 -2.85144 0
M  V30 7580 C 699.718 1.05579 -2.94656 0
M  V30 7581 C 700.193 1.3187 -4.38605 0
M  V30 7582 N 701.684 1.38681 -4.41952 0
M  V30 7583 C 702.419 1.60699 -5.50421 0
M  V30 7584 N 701.915 1.80154 -6.68967 0
M  V30 7585 N 703.708 1.6292 -5.37972 0
M  V30 7586 H 695.859 -0.4156 -2.08294 0
M  V30 7587 H 698.122 -0.123776 -0.939885 0
M  V30 7588 H 697.828 0.133829 -3.51445 0
M  V30 7589 H 697.702 1.86788 -3.27704 0
M  V30 7590 H 700.089 1.86716 -2.2852 0
M  V30 7591 H 700.17 0.120338 -2.55517 0
M  V30 7592 H 699.814 0.512416 -5.05309 0
M  V30 7593 H 699.744 2.26708 -4.75301 0
M  V30 7594 H 702.235 1.25334 -3.56511 0
M  V30 7595 H 702.548 1.96476 -7.47407 0
M  V30 7596 H 700.893 1.77368 -6.71986 0
M  V30 7597 H 704.084 1.47276 -4.44328 0
M  V30 7598 H 704.257 1.79739 -6.22574 0
M  V30 7599 N 697.663 1.43903 0.642637 0
M  V30 7600 C 699.074 1.40975 1.22404 0
M  V30 7601 C 699.425 0.1192 1.95838 0
M  V30 7602 O 698.55 -0.780939 2.01818 0
M  V30 7603 C 699.145 2.5538 2.22636 0
M  V30 7604 C 697.704 2.55684 2.76229 0
M  V30 7605 C 696.851 2.32556 1.51039 0
M  V30 7606 H 699.802 1.5265 0.434006 0
M  V30 7607 H 699.823 2.27474 3.05017 0
M  V30 7608 H 699.335 3.49294 1.69161 0
M  V30 7609 H 697.436 1.65679 3.33738 0
M  V30 7610 H 697.549 3.53799 3.23053 0
M  V30 7611 H 695.913 1.81427 1.78764 0
M  V30 7612 H 696.696 3.28569 0.99484 0
M  V30 7613 N 699.141 -0.881989 1.30609 0
M  V30 7614 C 700.051 -2.02076 1.19174 0
M  V30 7615 C 701.067 -1.73645 0.11102 0
M  V30 7616 O 702.243 -1.98735 0.326528 0
M  V30 7617 C 699.308 -3.3515 0.887438 0
M  V30 7618 C 698.369 -3.76983 2.05383 0
M  V30 7619 C 697.602 -5.03707 1.76395 0
M  V30 7620 O 697.825 -5.66171 0.693302 0
M  V30 7621 O 696.759 -5.42019 2.61723 0
M  V30 7622 H 700.585 -2.14652 2.14845 0
M  V30 7623 H 698.17 -1.00843 1.10232 0
M  V30 7624 H 700.052 -4.14975 0.73306 0
M  V30 7625 H 698.727 -3.23676 -0.0393354 0
M  V30 7626 H 697.634 -2.97849 2.26355 0
M  V30 7627 H 698.967 -3.93066 2.96243 0
M  V30 7628 N 700.619 -1.13374 -1.09472 0
M  V30 7629 C 701.567 -0.806105 -2.18185 0
M  V30 7630 C 702.561 0.21136 -1.68076 0
M  V30 7631 O 703.767 0.0685558 -1.79869 0
M  V30 7632 H 700.142 -0.242901 -0.71169 0
M  V30 7633 H 702.113 -1.73115 -2.43051 0
M  V30 7634 C 700.862 -0.287928 -3.46506 0
M  V30 7635 H 700.185 -1.06217 -3.85432 0
M  V30 7636 H 701.625 -0.0971054 -4.23889 0
M  V30 7637 C 700.084 0.986256 -3.22141 0
M  V30 7638 O 700.614 2.06217 -3.44728 0
M  V30 7639 N 698.82 0.917153 -2.75747 0
M  V30 7640 H 698.367 0.0414609 -2.57567 0
M  V30 7641 H 698.325 1.77029 -2.59823 0
M  V30 7642 N 702.098 1.27442 -0.927168 0
M  V30 7643 C 703.344 1.94679 -0.568164 0
M  V30 7644 C 703.677 1.72697 0.888219 0
M  V30 7645 O 702.952 1.05573 1.63354 0
M  V30 7646 C 703.235 3.4882 -0.894253 0
M  V30 7647 C 703.088 3.80146 -2.40435 0
M  V30 7648 C 704.407 4.38281 -0.399766 0
M  V30 7649 H 701.526 0.707071 -0.207892 0
M  V30 7650 H 704.168 1.50568 -1.15885 0
M  V30 7651 H 702.318 3.86522 -0.391566 0
M  V30 7652 H 703.99 3.52238 -2.97869 0
M  V30 7653 H 702.233 3.26716 -2.85375 0
M  V30 7654 H 702.904 4.87835 -2.58304 0
M  V30 7655 H 705.38 4.07726 -0.83058 0
M  V30 7656 H 704.256 5.44955 -0.656885 0
M  V30 7657 H 704.517 4.36521 0.700153 0
M  V30 7658 N 703.576 0.692616 1.41565 0
M  V30 7659 C 704.992 0.363878 1.55397 0
M  V30 7660 C 705.192 -1.1294 1.66874 0
M  V30 7661 O 704.248 -1.91517 1.64552 0
M  V30 7662 C 705.561 1.10982 2.7947 0
M  V30 7663 C 707.109 1.09387 2.93263 0
M  V30 7664 C 707.584 1.8215 4.20221 0
M  V30 7665 N 709.075 1.79105 4.27172 0
M  V30 7666 C 709.81 2.32247 5.2426 0
M  V30 7667 N 709.306 2.93847 6.27396 0
M  V30 7668 N 711.099 2.22519 5.1618 0
M  V30 7669 H 703.25 1.66116 1.3236 0
M  V30 7670 H 705.513 0.700848 0.63837 0
M  V30 7671 H 705.219 2.1647 2.77188 0
M  V30 7672 H 705.093 0.686492 3.709 0
M  V30 7673 H 707.48 0.0472638 2.95062 0
M  V30 7674 H 707.561 1.55623 2.03015 0
M  V30 7675 H 707.205 2.86789 4.19183 0
M  V30 7676 H 707.135 1.33351 5.09436 0
M  V30 7677 H 709.626 1.34191 3.53272 0
M  V30 7678 H 709.939 3.31972 6.97864 0
M  V30 7679 H 708.284 2.97924 6.27906 0
M  V30 7680 H 711.475 1.7407 4.34531 0
M  V30 7681 H 711.648 2.64239 5.91677 0
M  V30 7682 N 705.054 -1.51416 0.437162 0
M  V30 7683 C 706.3 -2.02386 -0.129555 0
M  V30 7684 C 706.633 -1.32071 -1.42376 0
M  V30 7685 O 705.908 -0.43559 -1.8956 0
M  V30 7686 C 706.191 -3.5841 -0.348487 0
M  V30 7687 C 706.044 -4.39341 0.964352 0
M  V30 7688 C 707.363 -4.25654 -1.11834 0
M  V30 7689 H 704.482 -0.735587 -0.0456109 0
M  V30 7690 H 707.124 -1.81055 0.576124 0
M  V30 7691 H 705.274 -3.76716 -0.949592 0
M  V30 7692 H 706.946 -4.32685 1.59942 0
M  V30 7693 H 705.189 -4.04432 1.56898 0
M  V30 7694 H 705.86 -5.4667 0.765212 0
M  V30 7695 H 708.336 -4.11617 -0.609165 0
M  V30 7696 H 707.212 -5.34704 -1.24029 0
M  V30 7697 H 707.473 -3.86502 -2.14636 0
M  V30 7698 N 706.532 -0.168513 -1.56696 0
M  V30 7699 C 707.495 0.748928 -2.16619 0
M  V30 7700 C 708.495 1.16007 -1.11351 0
M  V30 7701 O 709.685 1.07748 -1.3688 0
M  V30 7702 C 706.817 2.01904 -2.74677 0
M  V30 7703 H 708.01 0.227317 -2.99037 0
M  V30 7704 H 705.563 0.0810372 -1.5609 0
M  V30 7705 H 706.298 2.58381 -1.95985 0
M  V30 7706 H 706.083 1.73323 -3.51712 0
M  V30 7707 H 707.573 2.67383 -3.20774 0
M  V30 7708 N 708.01 1.57248 0.105221 0
M  V30 7709 C 709.259 1.84756 0.809198 0
M  V30 7710 C 709.572 0.756262 1.80389 0
M  V30 7711 O 710.778 0.918158 2.55504 0
M  V30 7712 C 709.234 3.27613 1.48989 0
M  V30 7713 C 708.842 4.44788 0.535484 0
M  V30 7714 C 710.586 3.64356 2.17819 0
M  V30 7715 C 708.493 5.78676 1.22019 0
M  V30 7716 H 707.423 0.689139 0.305946 0
M  V30 7717 H 710.074 1.83395 0.0620371 0
M  V30 7718 H 708.456 3.23485 2.28415 0
M  V30 7719 H 709.63 4.60243 -0.226557 0
M  V30 7720 H 707.945 4.16374 -0.0465769 0
M  V30 7721 H 710.542 4.61663 2.69761 0
M  V30 7722 H 710.885 2.92474 2.96251 0
M  V30 7723 H 711.418 3.70328 1.45264 0
M  V30 7724 H 708.157 6.53763 0.476875 0
M  V30 7725 H 707.677 5.67083 1.9539 0
M  V30 7726 H 709.356 6.22897 1.74952 0
M  V30 7727 N 709.488 -0.375779 1.53054 0
M  V30 7728 C 710.734 -1.12114 1.68992 0
M  V30 7729 C 711.067 -1.8926 0.435238 0
M  V30 7730 O 710.342 -1.86044 -0.567278 0
M  V30 7731 C 710.625 -2.08867 2.93337 0
M  V30 7732 C 710.478 -1.35397 4.28938 0
M  V30 7733 C 711.797 -3.09124 3.13257 0
M  V30 7734 H 708.916 -0.406207 0.614951 0
M  V30 7735 H 711.558 -0.403054 1.85676 0
M  V30 7736 H 709.708 -2.70102 2.79244 0
M  V30 7737 H 711.38 -0.770242 4.54824 0
M  V30 7738 H 709.623 -0.655801 4.28814 0
M  V30 7739 H 710.294 -2.06161 5.12056 0
M  V30 7740 H 712.77 -2.57987 3.26469 0
M  V30 7741 H 711.646 -3.74054 4.01715 0
M  V30 7742 H 711.907 -3.78729 2.28072 0
M  V30 7743 N 710.966 -1.44241 -0.634997 0
M  V30 7744 C 712.191 -1.50516 -1.42687 0
M  V30 7745 C 712.616 -0.129864 -1.87651 0
M  V30 7746 O 711.974 0.880164 -1.58502 0
M  V30 7747 C 712.022 -2.4714 -2.62591 0
M  V30 7748 O 711.126 -1.97025 -3.62291 0
M  V30 7749 H 710.467 -0.50841 -0.427101 0
M  V30 7750 H 712.997 -1.89337 -0.775408 0
M  V30 7751 H 713.007 -2.65048 -3.10183 0
M  V30 7752 H 711.682 -3.47039 -2.29209 0
M  V30 7753 H 710.259 -1.88866 -3.21534 0
M  V30 7754 N 712.444 0.87505 -1.31075 0
M  V30 7755 C 713.391 1.98178 -1.18296 0
M  V30 7756 C 714.361 1.65952 -0.0699923 0
M  V30 7757 O 715.546 1.8926 -0.241951 0
M  V30 7758 C 712.686 3.33399 -0.891024 0
M  V30 7759 C 711.799 3.78253 -2.08684 0
M  V30 7760 C 710.934 5.02166 -1.73212 0
M  V30 7761 C 709.973 5.39455 -2.89231 0
M  V30 7762 N 709.11 6.54549 -2.53989 0
M  V30 7763 H 713.95 2.0844 -2.12971 0
M  V30 7764 H 711.487 1.02047 -1.05948 0
M  V30 7765 H 713.445 4.11246 -0.702338 0
M  V30 7766 H 712.075 3.22794 0.0188799 0
M  V30 7767 H 711.127 2.9623 -2.38646 0
M  V30 7768 H 712.439 4.01821 -2.95536 0
M  V30 7769 H 711.593 5.87666 -1.50777 0
M  V30 7770 H 710.332 4.80491 -0.83544 0
M  V30 7771 H 709.337 4.52477 -3.12321 0
M  V30 7772 H 710.562 5.63098 -3.79601 0
M  V30 7773 H 708.508 6.3443 -1.66838 0
M  V30 7774 H 708.425 6.78035 -3.34372 0
M  V30 7775 H 709.693 7.43254 -2.34934 0
M  V30 7776 N 713.922 1.13953 1.08869 0
M  V30 7777 C 715.147 0.928559 1.85452 0
M  V30 7778 C 715.572 -0.517642 1.80837 0
M  V30 7779 O 714.93 -1.36779 1.19001 0
M  V30 7780 C 714.978 1.42814 3.31114 0
M  V30 7781 O 714.082 0.617129 4.07756 0
M  V30 7782 H 713.423 0.33235 0.574839 0
M  V30 7783 H 715.953 1.5156 1.37443 0
M  V30 7784 H 715.963 1.43425 3.8196 0
M  V30 7785 H 714.638 2.48109 3.33788 0
M  V30 7786 H 713.215 0.679365 3.66659 0
M  V30 7787 N 715.4 -1.26948 0.933913 0
M  V30 7788 C 716.647 -1.94087 0.577625 0
M  V30 7789 C 716.975 -1.73345 -0.88214 0
M  V30 7790 O 716.23 -1.05945 -1.64542 0
M  V30 7791 C 716.529 -3.46963 0.857406 0
M  V30 7792 C 716.195 -3.87834 2.2999 0
M  V30 7793 C 714.857 -3.98704 2.69423 0
M  V30 7794 C 717.209 -4.08442 3.23766 0
M  V30 7795 C 714.537 -4.27573 4.01744 0
M  V30 7796 C 716.889 -4.38798 4.55675 0
M  V30 7797 C 715.553 -4.47881 4.94934 0
M  V30 7798 H 714.823 -0.710215 0.211368 0
M  V30 7799 H 717.47 -1.50899 1.17905 0
M  V30 7800 H 715.775 -3.91416 0.173369 0
M  V30 7801 H 717.472 -3.97062 0.560615 0
M  V30 7802 H 714.062 -3.79916 1.98399 0
M  V30 7803 H 718.246 -3.99479 2.94499 0
M  V30 7804 H 713.502 -4.32815 4.31834 0
M  V30 7805 H 717.676 -4.5369 5.28335 0
M  V30 7806 H 715.303 -4.70005 5.97495 0
M  V30 7807 N 716.879 -0.700114 -1.41195 0
M  V30 7808 C 717.789 -0.0382854 -2.34569 0
M  V30 7809 C 718.805 0.761036 -1.56474 0
M  V30 7810 O 719.981 0.697553 -1.88934 0
M  V30 7811 C 717.046 0.883522 -3.35253 0
M  V30 7812 C 716.107 0.0758957 -4.29233 0
M  V30 7813 C 715.34 0.9538 -5.25108 0
M  V30 7814 O 715.563 2.19326 -5.26547 0
M  V30 7815 O 714.497 0.401049 -6.00562 0
M  V30 7816 H 718.323 -0.808073 -2.92752 0
M  V30 7817 H 715.908 -0.460479 -1.42127 0
M  V30 7818 H 717.79 1.41199 -3.9704 0
M  V30 7819 H 716.465 1.63272 -2.79506 0
M  V30 7820 H 715.372 -0.497274 -3.7078 0
M  V30 7821 H 716.705 -0.634741 -4.8809 0
M  V30 7822 N 718.357 1.51182 -0.445186 0
M  V30 7823 C 719.605 2.01753 0.11841 0
M  V30 7824 C 719.926 1.33087 1.42523 0
M  V30 7825 O 719.196 0.467891 1.9023 0
M  V30 7826 H 717.776 0.745536 0.0467492 0
M  V30 7827 H 720.438 1.85765 -0.589688 0
M  V30 7828 H 719.534 3.10762 0.288665 0
M  V30 7829 N 719.835 0.176821 1.56605 0
M  V30 7830 C 720.782 -0.751312 2.18229 0
M  V30 7831 C 721.752 -1.22297 1.12395 0
M  V30 7832 O 722.937 -1.29015 1.40569 0
M  V30 7833 C 720.077 -1.97291 2.83143 0
M  V30 7834 C 719.19 -1.54431 4.03454 0
M  V30 7835 C 718.325 -2.72 4.56278 0
M  V30 7836 C 717.364 -2.25657 5.68986 0
M  V30 7837 N 716.501 -3.36338 6.16296 0
M  V30 7838 H 721.341 -0.219033 2.97194 0
M  V30 7839 H 718.878 -0.0963803 1.46784 0
M  V30 7840 H 720.836 -2.68949 3.1894 0
M  V30 7841 H 719.466 -2.4788 2.06773 0
M  V30 7842 H 718.518 -0.724273 3.73441 0
M  V30 7843 H 719.83 -1.16417 4.85024 0
M  V30 7844 H 718.984 -3.51806 4.94285 0
M  V30 7845 H 717.723 -3.13277 3.73777 0
M  V30 7846 H 716.728 -1.44299 5.30526 0
M  V30 7847 H 717.953 -1.85432 6.53293 0
M  V30 7848 H 715.899 -3.7718 5.36723 0
M  V30 7849 H 715.816 -3.02435 6.9287 0
M  V30 7850 H 717.084 -4.16413 6.58954 0
M  V30 7851 N 721.313 -1.57302 -0.09688 0
M  V30 7852 C 722.541 -1.90202 -0.814295 0
M  V30 7853 C 722.956 -0.770344 -1.72369 0
M  V30 7854 O 722.313 0.257764 -1.8067 0
M  V30 7855 C 722.364 -3.22708 -1.62916 0
M  V30 7856 O 722.085 -4.31522 -0.756343 0
M  V30 7857 C 723.586 -3.69459 -2.44979 0
M  V30 7858 H 720.806 -0.629275 -0.232925 0
M  V30 7859 H 723.35 -2.04364 -0.0746482 0
M  V30 7860 H 721.505 -3.1015 -2.32133 0
M  V30 7861 H 721.919 -5.07604 -1.32054 0
M  V30 7862 H 723.393 -4.64875 -2.9765 0
M  V30 7863 H 723.87 -2.97211 -3.23361 0
M  V30 7864 H 724.476 -3.84879 -1.80964 0
M  V30 7865 N 722.791 0.367657 -1.53252 0
M  V30 7866 C 724.068 1.12606 -1.59935 0
M  V30 7867 C 724.448 2.07167 -0.405606 0
M  V30 7868 O 723.796 2.20364 0.604323 0
M  V30 7869 C 724.006 1.86699 -2.94863 0
M  V30 7870 C 725.354 2.41306 -3.49366 0
M  V30 7871 O 726.378 1.96828 -2.96879 0
M  V30 7872 O 725.237 3.2261 -4.41118 0
M  V30 7873 H 722.331 0.516438 -0.645926 0
M  V30 7874 H 724.877 0.371088 -1.65593 0
M  V30 7875 H 723.649 1.17674 -3.73187 0
M  V30 7876 H 723.272 2.6911 -2.92687 0
M  V30 7877 N 724.269 1.44576 0.627338 0
M  V30 7878 C 725.685 1.28546 0.945938 0
M  V30 7879 C 725.885 0.224003 2.00251 0
M  V30 7880 O 724.941 -0.388817 2.49488 0
M  V30 7881 C 726.254 2.65825 1.40561 0
M  V30 7882 C 727.802 2.73566 1.52088 0
M  V30 7883 C 728.277 4.11323 2.01438 0
M  V30 7884 N 729.768 4.13519 2.08702 0
M  V30 7885 C 730.503 5.16964 2.48065 0
M  V30 7886 N 729.999 6.30768 2.86538 0
M  V30 7887 N 731.792 5.04319 2.48232 0
M  V30 7888 H 723.943 2.1228 -0.0713567 0
M  V30 7889 H 726.206 0.947503 0.0307081 0
M  V30 7890 H 725.912 3.44591 0.703539 0
M  V30 7891 H 725.786 2.92969 2.37591 0
M  V30 7892 H 728.173 1.95116 2.21391 0
M  V30 7893 H 728.254 2.50159 0.534237 0
M  V30 7894 H 727.898 4.9025 1.32729 0
M  V30 7895 H 727.828 4.32109 3.0098 0
M  V30 7896 H 730.319 3.31385 1.81638 0
M  V30 7897 H 730.632 7.0551 3.15398 0
M  V30 7898 H 728.977 6.342 2.84281 0
M  V30 7899 H 732.168 4.14465 2.17569 0
M  V30 7900 H 732.341 5.85059 2.78585 0
M  V30 7901 N 725.747 -0.868086 1.31537 0
M  V30 7902 C 726.975 -1.65402 1.24298 0
M  V30 7903 C 727.39 -1.87827 -0.191389 0
M  V30 7904 O 726.747 -1.43776 -1.12404 0
M  V30 7905 C 726.798 -3.02093 1.9855 0
M  V30 7906 O 726.519 -2.80668 3.36388 0
M  V30 7907 C 728.02 -3.96538 1.98173 0
M  V30 7908 H 725.24 -0.515598 0.429417 0
M  V30 7909 H 727.784 -1.0834 1.73444 0
M  V30 7910 H 725.939 -3.55838 1.53161 0
M  V30 7911 H 726.353 -3.67504 3.74221 0
M  V30 7912 H 727.827 -4.8976 2.54635 0
M  V30 7913 H 728.304 -4.28474 0.964697 0
M  V30 7914 H 728.91 -3.48729 2.4345 0
M  V30 7915 N 727.225 -1.14528 -1.08264 0
M  V30 7916 C 728.135 -0.84728 -2.18765 0
M  V30 7917 C 729.151 0.172826 -1.7314 0
M  V30 7918 O 730.327 0.000985336 -2.014 0
M  V30 7919 C 727.392 -0.330633 -3.4512 0
M  V30 7920 C 726.453 -1.41348 -4.05363 0
M  V30 7921 C 725.686 -0.921387 -5.25686 0
M  V30 7922 O 725.909 0.236587 -5.69909 0
M  V30 7923 O 724.843 -1.70101 -5.77364 0
M  V30 7924 H 728.669 -1.7708 -2.46731 0
M  V30 7925 H 726.254 -0.923661 -1.17426 0
M  V30 7926 H 728.136 -0.0485053 -4.21372 0
M  V30 7927 H 726.811 0.565147 -3.18728 0
M  V30 7928 H 725.718 -1.74908 -3.30693 0
M  V30 7929 H 727.051 -2.28383 -4.36007 0
M  V30 7930 N 728.703 1.26451 -0.940633 0
M  V30 7931 C 729.613 2.30128 -0.455881 0
M  V30 7932 C 730.629 1.67536 0.469867 0
M  V30 7933 O 731.805 1.98344 0.349529 0
M  V30 7934 C 728.87 3.45634 0.271648 0
M  V30 7935 C 727.931 4.23709 -0.690594 0
M  V30 7936 C 727.164 5.337 0.00231047 0
M  V30 7937 O 727.387 5.57215 1.21935 0
M  V30 7938 O 726.321 5.98091 -0.676111 0
M  V30 7939 H 730.147 2.73655 -1.31707 0
M  V30 7940 H 727.732 1.3164 -0.706497 0
M  V30 7941 H 729.614 4.15853 0.681486 0
M  V30 7942 H 728.289 3.04138 1.10824 0
M  V30 7943 H 727.196 3.55974 -1.15037 0
M  V30 7944 H 728.529 4.68953 -1.49478 0
M  V30 7945 N 730.181 0.707592 1.40822 0
M  V30 7946 C 731.427 0.252828 2.01823 0
M  V30 7947 C 731.782 -1.13876 1.55081 0
M  V30 7948 O 731.075 -1.75993 0.757439 0
M  V30 7949 C 731.269 0.262892 3.56432 0
M  V30 7950 C 731.098 1.65392 4.18181 0
M  V30 7951 C 729.868 2.25966 4.5196 0
M  V30 7952 C 732.066 2.60272 4.4358 0
M  V30 7953 N 730.048 3.57508 4.9906 0
M  V30 7954 C 731.419 3.76509 4.92586 0
M  V30 7955 C 733.474 2.58386 4.25607 0
M  V30 7956 C 732.177 4.91157 5.25507 0
M  V30 7957 C 734.203 3.72155 4.59625 0
M  V30 7958 C 733.565 4.87123 5.08813 0
M  V30 7959 H 729.664 0.138172 0.769696 0
M  V30 7960 H 732.248 0.927667 1.7118 0
M  V30 7961 H 730.419 -0.381479 3.86522 0
M  V30 7962 H 732.151 -0.20783 4.04166 0
M  V30 7963 H 728.906 1.78138 4.38821 0
M  V30 7964 H 729.33 4.24968 5.27002 0
M  V30 7965 H 733.972 1.7071 3.86805 0
M  V30 7966 H 731.69 5.79483 5.63227 0
M  V30 7967 H 735.276 3.71961 4.47366 0
M  V30 7968 H 734.156 5.73698 5.3464 0
M  V30 7969 N 731.66 -1.50943 0.453197 0
M  V30 7970 C 732.89 -2.06328 -0.105981 0
M  V30 7971 C 733.298 -1.31909 -1.35634 0
M  V30 7972 O 732.641 -0.376607 -1.79798 0
M  V30 7973 C 732.703 -3.5631 -0.477868 0
M  V30 7974 C 732.367 -4.52093 0.667925 0
M  V30 7975 C 733.364 -4.96421 1.54475 0
M  V30 7976 C 731.049 -4.95001 0.853168 0
M  V30 7977 C 733.043 -5.82346 2.59138 0
M  V30 7978 C 730.73 -5.80713 1.90305 0
M  V30 7979 C 731.728 -6.24284 2.77053 0
M  V30 7980 O 731.416 -7.08291 3.80236 0
M  V30 7981 H 731.148 -0.675986 -0.00427247 0
M  V30 7982 H 733.702 -1.95314 0.635738 0
M  V30 7983 H 731.932 -3.65163 -1.27252 0
M  V30 7984 H 733.621 -3.94138 -0.970039 0
M  V30 7985 H 734.387 -4.63953 1.41324 0
M  V30 7986 H 730.266 -4.60619 0.187482 0
M  V30 7987 H 733.81 -6.16276 3.2688 0
M  V30 7988 H 729.707 -6.12593 2.03469 0
M  V30 7989 H 730.475 -7.26504 3.77007 0
M  V30 7990 N 733.138 -0.185124 -1.56509 0
M  V30 7991 C 734.386 0.455357 -1.96903 0
M  V30 7992 C 734.707 1.62839 -1.07277 0
M  V30 7993 O 733.977 1.95385 -0.141966 0
M  V30 7994 H 732.557 0.171218 -0.727113 0
M  V30 7995 H 735.219 -0.26953 -1.93027 0
M  V30 7996 H 734.315 0.80616 -3.01509 0
M  V30 7997 N 734.616 1.57351 0.0885366 0
M  V30 7998 C 735.844 1.90631 0.804196 0
M  V30 7999 C 736.259 0.779474 1.71958 0
M  V30 8000 O 735.616 -0.248179 1.80805 0
M  V30 8001 C 735.667 3.23568 1.61202 0
M  V30 8002 O 735.388 4.31917 0.733447 0
M  V30 8003 C 736.889 3.70753 2.43016 0
M  V30 8004 H 734.109 0.630501 0.229585 0
M  V30 8005 H 736.653 2.044 0.0638092 0
M  V30 8006 H 734.808 3.11377 2.30485 0
M  V30 8007 H 735.222 5.08297 1.29361 0
M  V30 8008 H 736.696 4.66447 2.9518 0
M  V30 8009 H 737.173 2.98922 3.2178 0
M  V30 8010 H 737.779 3.85834 1.7892 0
M  V30 8011 N 736.094 -0.359525 1.53444 0
M  V30 8012 C 737.026 -1.46098 1.76602 0
M  V30 8013 C 738.039 -1.49395 0.646912 0
M  V30 8014 O 739.228 -1.52765 0.923307 0
M  V30 8015 C 736.328 -2.84836 1.83635 0
M  V30 8016 C 735.501 -3.05164 3.13358 0
M  V30 8017 C 734.56 -4.24051 3.11556 0
M  V30 8018 O 733.586 -4.18935 3.85334 0
M  V30 8019 N 734.788 -5.31775 2.328 0
M  V30 8020 H 737.553 -1.2661 2.71643 0
M  V30 8021 H 735.114 -0.549294 1.52297 0
M  V30 8022 H 737.106 -3.62516 1.799 0
M  V30 8023 H 735.676 -2.97542 0.958509 0
M  V30 8024 H 734.896 -2.15091 3.30348 0
M  V30 8025 H 736.184 -3.15619 3.99076 0
M  V30 8026 H 735.582 -5.38796 1.7238 0
M  V30 8027 H 734.139 -6.0801 2.34877 0
M  V30 8028 N 737.572 -1.44907 -0.619662 0
M  V30 8029 C 738.802 -1.51575 -1.40387 0
M  V30 8030 C 739.21 -0.14309 -1.88658 0
M  V30 8031 O 738.553 0.863403 -1.62145 0
M  V30 8032 C 738.615 -2.42858 -2.65067 0
M  V30 8033 C 738.279 -3.8982 -2.38515 0
M  V30 8034 C 739.276 -4.80047 -1.99627 0
M  V30 8035 C 736.961 -4.34628 -2.51801 0
M  V30 8036 C 738.955 -6.13086 -1.74369 0
M  V30 8037 C 736.642 -5.67712 -2.26156 0
M  V30 8038 C 737.64 -6.56759 -1.875 0
M  V30 8039 O 737.328 -7.87377 -1.62148 0
M  V30 8040 H 737.06 -0.51612 -0.436573 0
M  V30 8041 H 739.614 -1.90664 -0.763959 0
M  V30 8042 H 737.844 -1.98717 -3.31735 0
M  V30 8043 H 739.533 -2.40346 -3.27091 0
M  V30 8044 H 740.299 -4.46697 -1.8891 0
M  V30 8045 H 736.178 -3.65568 -2.80857 0
M  V30 8046 H 739.722 -6.8255 -1.44122 0
M  V30 8047 H 735.619 -6.0062 -2.36486 0
M  V30 8048 H 736.387 -7.99288 -1.763 0
M  V30 8049 N 739.05 0.861098 -1.31996 0
M  V30 8050 C 739.997 1.96912 -1.20392 0
M  V30 8051 C 740.967 1.65869 -0.0875899 0
M  V30 8052 O 742.152 1.88992 -0.262011 0
M  V30 8053 C 739.292 3.32435 -0.926335 0
M  V30 8054 C 738.405 3.76018 -2.12684 0
M  V30 8055 C 737.54 5.00301 -1.78529 0
M  V30 8056 C 736.579 5.36357 -2.94937 0
M  V30 8057 N 735.716 6.51818 -2.60917 0
M  V30 8058 H 740.556 2.06169 -2.1517 0
M  V30 8059 H 738.093 1.00917 -1.07024 0
M  V30 8060 H 740.051 4.10478 -0.745917 0
M  V30 8061 H 738.681 3.22796 -0.0153578 0
M  V30 8062 H 737.733 2.93683 -2.41774 0
M  V30 8063 H 739.045 3.98664 -2.99781 0
M  V30 8064 H 738.199 5.86034 -1.57001 0
M  V30 8065 H 736.938 4.79578 -0.886356 0
M  V30 8066 H 735.943 4.49139 -3.17103 0
M  V30 8067 H 737.168 5.59041 -3.85552 0
M  V30 8068 H 735.114 6.32624 -1.73558 0
M  V30 8069 H 735.031 6.7445 -3.41544 0
M  V30 8070 H 736.299 7.4072 -2.42804 0
M  V30 8071 N 740.528 1.15101 1.07655 0
M  V30 8072 C 741.46 0.802722 2.14684 0
M  V30 8073 C 742.473 -0.183874 1.61758 0
M  V30 8074 O 743.662 0.0389349 1.78458 0
M  V30 8075 C 740.762 0.172135 3.38463 0
M  V30 8076 C 739.935 1.19538 4.20749 0
M  V30 8077 C 738.994 0.58714 5.22914 0
M  V30 8078 O 738.02 1.25224 5.55255 0
M  V30 8079 N 739.222 -0.632566 5.77043 0
M  V30 8080 H 741.987 1.72379 2.45164 0
M  V30 8081 H 739.548 1.04647 1.23534 0
M  V30 8082 H 741.54 -0.247465 4.03943 0
M  V30 8083 H 740.11 -0.652214 3.0572 0
M  V30 8084 H 739.33 1.79165 3.51132 0
M  V30 8085 H 740.618 1.88636 4.7254 0
M  V30 8086 H 740.016 -1.19135 5.53013 0
M  V30 8087 H 738.573 -0.994566 6.44167 0
M  V30 8088 N 742.006 -1.2595 0.947325 0
M  V30 8089 C 742.916 -2.29883 0.468079 0
M  V30 8090 C 743.932 -1.67783 -0.460975 0
M  V30 8091 O 745.108 -1.98526 -0.339006 0
M  V30 8092 C 742.173 -3.45773 -0.253315 0
M  V30 8093 C 741.234 -4.23337 0.713054 0
M  V30 8094 C 740.467 -5.33694 0.025993 0
M  V30 8095 O 740.69 -5.57853 -1.18978 0
M  V30 8096 O 739.624 -5.97724 0.70782 0
M  V30 8097 H 743.45 -2.72952 1.33156 0
M  V30 8098 H 741.035 -1.31263 0.713468 0
M  V30 8099 H 742.917 -4.16209 -0.659423 0
M  V30 8100 H 741.592 -3.04721 -1.09209 0
M  V30 8101 H 740.499 -3.55359 1.16923 0
M  V30 8102 H 741.832 -4.68154 1.51963 0
M  V30 8103 N 743.484 -0.715051 -1.40445 0
M  V30 8104 C 744.447 -0.0708726 -2.2909 0
M  V30 8105 C 745.447 0.687926 -1.45342 0
M  V30 8106 O 746.637 0.519908 -1.66261 0
M  V30 8107 C 743.769 0.909528 -3.28543 0
M  V30 8108 H 744.962 -0.851611 -2.87555 0
M  V30 8109 H 742.515 -0.479674 -1.48758 0
M  V30 8110 H 743.25 1.71734 -2.75096 0
M  V30 8111 H 743.035 0.368318 -3.90366 0
M  V30 8112 H 744.525 1.35744 -3.94922 0
M  V30 8113 N 744.962 1.50701 -0.461195 0
M  V30 8114 C 746.211 2.01458 0.0988277 0
M  V30 8115 C 746.524 1.34863 1.41673 0
M  V30 8116 O 747.73 1.76721 2.06111 0
M  V30 8117 C 746.186 3.59186 0.226648 0
M  V30 8118 C 745.794 4.34732 -1.08223 0
M  V30 8119 C 747.538 4.18015 0.73916 0
M  V30 8120 C 745.445 5.8422 -0.918747 0
M  V30 8121 H 744.375 0.7529 0.040709 0
M  V30 8122 H 747.026 1.736 -0.594589 0
M  V30 8123 H 745.408 3.83589 0.983621 0
M  V30 8124 H 746.582 4.22059 -1.84939 0
M  V30 8125 H 744.897 3.87466 -1.52509 0
M  V30 8126 H 747.494 5.27436 0.878347 0
M  V30 8127 H 747.837 3.78746 1.72793 0
M  V30 8128 H 748.37 3.9778 0.0398469 0
M  V30 8129 H 745.109 6.27944 -1.88059 0
M  V30 8130 H 744.629 5.99493 -0.191801 0
M  V30 8131 H 746.308 6.44382 -0.581405 0
M  V30 8132 N 746.441 0.193421 1.56409 0
M  V30 8133 C 747.852 -0.319471 1.83946 0
M  V30 8134 C 748.203 -1.61505 1.11403 0
M  V30 8135 O 747.328 -2.13139 0.374289 0
M  V30 8136 C 747.923 -0.586411 3.33686 0
M  V30 8137 C 746.482 -1.04368 3.61641 0
M  V30 8138 C 745.629 -0.0913834 2.77149 0
M  V30 8139 H 748.58 0.417242 1.53117 0
M  V30 8140 H 748.601 -1.43591 3.52366 0
M  V30 8141 H 748.113 0.356701 3.86457 0
M  V30 8142 H 746.214 -2.00113 3.14302 0
M  V30 8143 H 746.327 -0.937549 4.69837 0
M  V30 8144 H 744.691 -0.592954 2.47702 0
M  V30 8145 H 745.474 0.846142 3.32709 0
M  V30 8146 N 747.919 -1.57396 -0.0801906 0
M  V30 8147 C 749.196 -1.77883 -0.813451 0
M  V30 8148 C 749.576 -0.778879 -1.96206 0
M  V30 8149 O 748.924 0.189683 -2.27711 0
M  V30 8150 C 749.134 -3.24116 -1.2942 0
M  V30 8151 C 750.482 -3.87714 -1.73098 0
M  V30 8152 O 751.506 -3.27956 -1.39007 0
M  V30 8153 O 750.365 -4.92828 -2.36184 0
M  V30 8154 H 747.459 -0.729727 -0.389138 0
M  V30 8155 H 750.005 -1.69591 -0.0609166 0
M  V30 8156 H 748.777 -3.88443 -0.471947 0
M  V30 8157 H 748.4 -3.371 -2.1083 0
M  V30 8158 N 749.397 0.351382 -1.53633 0
M  V30 8159 C 750.307 1.45471 -1.84052 0
M  V30 8160 C 751.323 1.57945 -0.730015 0
M  V30 8161 O 752.499 1.73571 -1.02153 0
M  V30 8162 C 749.564 2.80562 -2.03681 0
M  V30 8163 C 748.625 2.77497 -3.27558 0
M  V30 8164 C 747.858 4.06144 -3.46241 0
M  V30 8165 O 748.081 5.03028 -2.68922 0
M  V30 8166 O 747.015 4.11092 -4.39645 0
M  V30 8167 H 750.841 1.22684 -2.77817 0
M  V30 8168 H 748.426 0.542827 -1.3919 0
M  V30 8169 H 750.308 3.6058 -2.18082 0
M  V30 8170 H 748.983 3.03296 -1.13106 0
M  V30 8171 H 747.89 1.96126 -3.18568 0
M  V30 8172 H 749.223 2.59716 -4.18101 0
M  V30 8173 N 750.875 1.45233 0.611969 0
M  V30 8174 C 752.121 1.49242 1.37312 0
M  V30 8175 C 752.454 0.131963 1.93751 0
M  V30 8176 O 751.729 -0.852999 1.74798 0
M  V30 8177 C 752.012 2.56811 2.52428 0
M  V30 8178 C 751.865 4.02284 2.01215 0
M  V30 8179 C 753.184 2.60705 3.54572 0
M  V30 8180 H 750.303 0.54336 0.497925 0
M  V30 8181 H 752.945 1.77019 0.690242 0
M  V30 8182 H 751.095 2.33256 3.10683 0
M  V30 8183 H 752.767 4.37035 1.47643 0
M  V30 8184 H 751.01 4.1315 1.32248 0
M  V30 8185 H 751.681 4.7323 2.84178 0
M  V30 8186 H 754.157 2.81799 3.06151 0
M  V30 8187 H 753.033 3.37841 4.32614 0
M  V30 8188 H 753.294 1.65627 4.09903 0
M  V30 8189 N 752.353 -0.854086 1.3245 0
M  V30 8190 C 753.602 -1.60318 1.22397 0
M  V30 8191 C 753.915 -1.9444 -0.212664 0
M  V30 8192 O 755.121 -2.67991 -0.435066 0
M  V30 8193 C 753.577 -2.8909 2.1437 0
M  V30 8194 C 753.185 -2.62391 3.63119 0
M  V30 8195 C 754.929 -3.67104 2.13155 0
M  V30 8196 C 752.836 -3.87167 4.47052 0
M  V30 8197 H 751.766 -0.601586 0.454544 0
M  V30 8198 H 754.417 -0.943023 1.57415 0
M  V30 8199 H 752.799 -3.56567 1.72268 0
M  V30 8200 H 753.973 -2.03222 4.13567 0
M  V30 8201 H 752.288 -1.97706 3.66471 0
M  V30 8202 H 754.885 -4.59696 2.731 0
M  V30 8203 H 755.228 -4.00876 1.12268 0
M  V30 8204 H 755.761 -3.06533 2.5354 0
M  V30 8205 H 752.5 -3.58536 5.48755 0
M  V30 8206 H 752.02 -4.45729 4.01355 0
M  V30 8207 H 753.699 -4.549 4.60081 0
M  V30 8208 N 753.831 -1.1567 -1.07043 0
M  V30 8209 C 754.778 -0.856336 -2.14326 0
M  V30 8210 C 755.748 0.192051 -1.64986 0
M  V30 8211 O 756.933 0.0589148 -1.90709 0
M  V30 8212 C 754.073 -0.355227 -3.43267 0
M  V30 8213 C 753.186 -1.46555 -4.06381 0
M  V30 8214 C 752.321 -0.920245 -5.23168 0
M  V30 8215 C 751.36 -2.00729 -5.78251 0
M  V30 8216 N 750.497 -1.47813 -6.86364 0
M  V30 8217 H 755.337 -1.77514 -2.39359 0
M  V30 8218 H 752.874 -0.885676 -1.17449 0
M  V30 8219 H 754.832 -0.0463804 -4.17174 0
M  V30 8220 H 753.462 0.526649 -3.18475 0
M  V30 8221 H 752.514 -1.89052 -3.30096 0
M  V30 8222 H 753.826 -2.28616 -4.43324 0
M  V30 8223 H 752.98 -0.564127 -6.04072 0
M  V30 8224 H 751.719 -0.0688477 -4.87651 0
M  V30 8225 H 750.724 -2.3722 -4.95991 0
M  V30 8226 H 751.949 -2.86252 -6.15822 0
M  V30 8227 H 749.895 -0.649145 -6.5278 0
M  V30 8228 H 749.812 -2.23498 -7.22208 0
M  V30 8229 H 751.08 -1.15036 -7.70965 0
M  V30 8230 N 755.309 1.25446 -0.953992 0
M  V30 8231 C 756.256 2.25912 -0.472485 0
M  V30 8232 C 757.226 1.59173 0.47469 0
M  V30 8233 O 758.411 1.86812 0.388082 0
M  V30 8234 C 755.551 3.44235 0.244218 0
M  V30 8235 C 754.664 4.25613 -0.740121 0
M  V30 8236 C 753.799 5.312 -0.000922267 0
M  V30 8237 C 752.838 6.04265 -0.976236 0
M  V30 8238 N 751.975 7.01589 -0.267952 0
M  V30 8239 H 756.815 2.66469 -1.3341 0
M  V30 8240 H 754.352 1.31005 -0.669045 0
M  V30 8241 H 756.31 4.11682 0.676314 0
M  V30 8242 H 754.94 3.04554 1.06988 0
M  V30 8243 H 753.992 3.57834 -1.2907 0
M  V30 8244 H 755.304 4.762 -1.48441 0
M  V30 8245 H 754.458 6.04719 0.48984 0
M  V30 8246 H 753.197 4.81484 0.776159 0
M  V30 8247 H 752.202 5.29561 -1.478 0
M  V30 8248 H 753.427 6.5607 -1.75354 0
M  V30 8249 H 751.373 6.54164 0.490403 0
M  V30 8250 H 751.29 7.4999 -0.951344 0
M  V30 8251 H 752.558 7.7924 0.201294 0
M  V30 8252 N 756.787 0.722489 1.40064 0
M  V30 8253 C 758.033 0.27422 2.01543 0
M  V30 8254 C 758.388 -1.12224 1.5628 0
M  V30 8255 O 757.681 -1.75179 0.776063 0
M  V30 8256 C 757.875 0.300682 3.56133 0
M  V30 8257 C 757.704 1.69818 4.16404 0
M  V30 8258 C 756.474 2.30747 4.49537 0
M  V30 8259 C 758.672 2.64962 4.40794 0
M  V30 8260 N 756.654 3.62781 4.9524 0
M  V30 8261 C 758.025 3.81712 4.88565 0
M  V30 8262 C 760.08 2.62885 4.22842 0
M  V30 8263 C 758.783 4.96703 5.20268 0
M  V30 8264 C 760.809 3.77009 4.55652 0
M  V30 8265 C 760.171 4.92492 5.03618 0
M  V30 8266 H 756.27 0.146328 0.768188 0
M  V30 8267 H 758.854 0.94577 1.70186 0
M  V30 8268 H 757.025 -0.340461 3.86905 0
M  V30 8269 H 758.757 -0.164951 4.04364 0
M  V30 8270 H 755.512 1.82783 4.36907 0
M  V30 8271 H 755.936 4.30533 5.22465 0
M  V30 8272 H 760.578 1.74803 3.84972 0
M  V30 8273 H 758.296 5.85425 5.57049 0
M  V30 8274 H 761.882 3.76685 4.43396 0
M  V30 8275 H 760.762 5.79336 5.28525 0
M  V30 8276 N 758.265 -1.50454 0.469181 0
M  V30 8277 C 759.197 -2.26319 -0.362247 0
M  V30 8278 C 760.21 -1.31574 -0.958751 0
M  V30 8279 O 761.399 -1.57099 -0.847482 0
M  V30 8280 C 758.499 -3.02808 -1.52187 0
M  V30 8281 C 757.672 -4.24893 -1.03849 0
M  V30 8282 C 756.731 -4.83691 -2.07194 0
M  V30 8283 O 755.757 -5.44659 -1.65333 0
M  V30 8284 N 756.959 -4.70522 -3.39985 0
M  V30 8285 H 759.724 -2.98312 0.288124 0
M  V30 8286 H 757.285 -1.59099 0.299856 0
M  V30 8287 H 759.277 -3.39023 -2.21011 0
M  V30 8288 H 757.847 -2.33625 -2.07697 0
M  V30 8289 H 757.067 -3.93806 -0.176203 0
M  V30 8290 H 758.355 -5.04053 -0.693435 0
M  V30 8291 H 757.753 -4.2203 -3.76706 0
M  V30 8292 H 756.31 -5.11011 -4.04612 0
M  V30 8293 N 759.743 -0.201713 -1.56304 0
M  V30 8294 C 760.691 0.733133 -2.20744 0
M  V30 8295 C 761.685 1.2148 -1.18064 0
M  V30 8296 O 762.891 1.17692 -1.36193 0
M  V30 8297 H 759.266 0.254789 -0.707521 0
M  V30 8298 H 761.237 0.165996 -2.97938 0
M  V30 8299 C 759.986 1.93925 -2.88597 0
M  V30 8300 H 759.309 1.5777 -3.67353 0
M  V30 8301 H 760.749 2.57158 -3.37114 0
M  V30 8302 C 759.208 2.78219 -1.89989 0
M  V30 8303 O 759.738 3.76353 -1.40432 0
M  V30 8304 N 757.944 2.43847 -1.58072 0
M  V30 8305 H 757.491 1.64103 -1.98565 0
M  V30 8306 H 757.449 3.0053 -0.923524 0
M  V30 8307 N 761.222 1.57436 0.0718424 0
M  V30 8308 C 762.185 2.02703 1.06977 0
M  V30 8309 C 763.185 0.924062 1.31597 0
M  V30 8310 O 764.375 1.18894 1.27318 0
M  V30 8311 C 761.507 2.40763 2.41342 0
M  V30 8312 H 762.7 2.92098 0.679619 0
M  V30 8313 H 760.253 1.5304 0.317565 0
M  V30 8314 H 760.988 1.54394 2.8519 0
M  V30 8315 H 760.773 3.21249 2.24814 0
M  V30 8316 H 762.263 2.76361 3.13073 0
M  V30 8317 N 762.7 -0.34323 1.53817 0
M  V30 8318 C 763.977 -1.10047 1.61706 0
M  V30 8319 C 764.357 -2.06495 0.438514 0
M  V30 8320 O 763.705 -2.21297 -0.569188 0
M  V30 8321 C 763.915 -1.81985 2.97796 0
M  V30 8322 C 765.263 -2.35717 3.53161 0
M  V30 8323 O 766.287 -1.9208 2.99973 0
M  V30 8324 O 765.146 -3.15551 4.46195 0
M  V30 8325 H 762.24 -0.506096 0.654061 0
M  V30 8326 H 764.786 -0.344697 1.66162 0
M  V30 8327 H 763.558 -1.11722 3.75012 0
M  V30 8328 H 763.181 -2.64419 2.96931 0
M  V30 8329 N 764.178 -1.45556 -0.604258 0
M  V30 8330 C 765.108 -1.57327 -1.72541 0
M  V30 8331 C 766.089 -0.424637 -1.64714 0
M  V30 8332 O 767.274 -0.648196 -1.83063 0
M  V30 8333 C 764.404 -1.54279 -3.11152 0
M  V30 8334 C 763.358 -2.67893 -3.33792 0
M  V30 8335 C 762.684 -2.499 -4.72709 0
M  V30 8336 C 763.984 -4.0988 -3.23722 0
M  V30 8337 H 765.678 -2.51175 -1.62947 0
M  V30 8338 H 763.224 -1.20884 -0.782504 0
M  V30 8339 H 765.177 -1.6111 -3.89386 0
M  V30 8340 H 763.901 -0.569627 -3.21594 0
M  V30 8341 H 762.56 -2.60495 -2.57949 0
M  V30 8342 H 762.208 -1.50715 -4.79889 0
M  V30 8343 H 761.908 -3.26091 -4.88813 0
M  V30 8344 H 763.432 -2.5859 -5.5314 0
M  V30 8345 H 764.846 -4.18503 -3.91826 0
M  V30 8346 H 763.243 -4.86487 -3.51355 0
M  V30 8347 H 764.313 -4.31553 -2.21111 0
M  V30 8348 N 765.656 0.84705 -1.32902 0
M  V30 8349 C 766.604 1.97765 -1.22441 0
M  V30 8350 C 767.598 1.68919 -0.127546 0
M  V30 8351 O 768.804 1.77633 -0.290973 0
M  V30 8352 H 765.179 0.649072 -0.379748 0
M  V30 8353 H 767.15 2.03713 -2.18044 0
M  V30 8354 C 765.899 3.33834 -0.972125 0
M  V30 8355 H 765.222 3.56564 -1.80837 0
M  V30 8356 H 766.662 4.13467 -0.939209 0
M  V30 8357 C 765.121 3.35328 0.325059 0
M  V30 8358 O 765.651 3.78887 1.33445 0
M  V30 8359 N 763.857 2.88488 0.349718 0
M  V30 8360 H 763.404 2.53234 -0.472236 0
M  V30 8361 H 763.362 2.8987 1.21748 0
M  V30 8362 N 767.134 1.16236 1.06428 0
M  V30 8363 C 768.382 0.941171 1.78847 0
M  V30 8364 C 768.703 -0.53248 1.87589 0
M  V30 8365 O 767.973 -1.38686 1.38358 0
M  V30 8366 H 766.553 0.345228 0.66244 0
M  V30 8367 H 769.215 1.46479 1.28569 0
M  V30 8368 H 768.311 1.35871 2.80972 0
M  V30 8369 N 768.612 -1.24939 0.960631 0
M  V30 8370 C 769.559 -2.25658 0.484459 0
M  V30 8371 C 770.529 -1.59422 -0.466242 0
M  V30 8372 O 771.714 -1.87015 -0.378169 0
M  V30 8373 C 768.854 -3.44359 -0.225958 0
M  V30 8374 C 767.967 -4.25214 0.762682 0
M  V30 8375 C 767.102 -5.31192 0.0290931 0
M  V30 8376 C 766.141 -6.03739 1.00827 0
M  V30 8377 N 765.278 -7.01437 0.305155 0
M  V30 8378 H 770.118 -2.65758 1.34821 0
M  V30 8379 H 767.655 -1.30648 0.675983 0
M  V30 8380 H 769.613 -4.12035 -0.654472 0
M  V30 8381 H 768.243 -3.05118 -1.05371 0
M  V30 8382 H 767.295 -3.57144 1.30966 0
M  V30 8383 H 768.607 -4.75406 1.50964 0
M  V30 8384 H 767.761 -6.04971 -0.457763 0
M  V30 8385 H 766.5 -4.81889 -0.750614 0
M  V30 8386 H 765.505 -5.2877 1.50607 0
M  V30 8387 H 766.73 -6.55131 1.7883 0
M  V30 8388 H 764.676 -6.54415 -0.455704 0
M  V30 8389 H 764.593 -7.49475 0.991104 0
M  V30 8390 H 765.861 -7.79336 -0.159966 0
M  V30 8391 N 770.09 -0.729906 -1.39679 0
M  V30 8392 C 771.337 -0.275622 -2.00615 0
M  V30 8393 C 771.665 1.13559 -1.57907 0
M  V30 8394 O 770.92 1.78745 -0.796789 0
M  V30 8395 C 771.219 -0.319564 -3.55968 0
M  V30 8396 C 770.885 -1.68308 -4.1831 0
M  V30 8397 C 769.547 -2.05629 -4.35052 0
M  V30 8398 C 771.899 -2.57857 -4.52945 0
M  V30 8399 C 769.227 -3.32018 -4.83716 0
M  V30 8400 C 771.579 -3.83613 -5.03015 0
M  V30 8401 C 770.243 -4.21033 -5.17965 0
M  V30 8402 H 769.513 -0.100857 -0.734104 0
M  V30 8403 H 772.16 -0.93575 -1.67081 0
M  V30 8404 H 770.465 0.42414 -3.89497 0
M  V30 8405 H 772.162 0.0499905 -4.00969 0
M  V30 8406 H 768.752 -1.3829 -4.05677 0
M  V30 8407 H 772.936 -2.30295 -4.39634 0
M  V30 8408 H 768.192 -3.6096 -4.93475 0
M  V30 8409 H 772.366 -4.53162 -5.28788 0
M  V30 8410 H 769.993 -5.19034 -5.55435 0
M  V30 8411 N 771.568 1.50203 -0.477153 0
M  V30 8412 C 772.515 2.28656 0.31386 0
M  V30 8413 C 773.485 1.33977 0.981802 0
M  V30 8414 O 774.67 1.62919 0.993072 0
M  V30 8415 C 771.81 3.16027 1.38639 0
M  V30 8416 C 770.923 4.25743 0.732615 0
M  V30 8417 C 770.058 5.00363 1.78355 0
M  V30 8418 C 769.097 6.01945 1.11035 0
M  V30 8419 N 768.234 6.6982 2.10441 0
M  V30 8420 H 773.074 2.958 -0.361445 0
M  V30 8421 H 770.611 1.45867 -0.190093 0
M  V30 8422 H 772.569 3.6504 2.01994 0
M  V30 8423 H 771.199 2.50917 2.03077 0
M  V30 8424 H 770.251 3.80398 -0.0136546 0
M  V30 8425 H 771.563 4.98393 0.201513 0
M  V30 8426 H 770.717 5.53124 2.49276 0
M  V30 8427 H 769.456 4.27432 2.34847 0
M  V30 8428 H 768.461 5.48438 0.386797 0
M  V30 8429 H 769.686 6.76851 0.552248 0
M  V30 8430 H 767.632 5.99677 2.65939 0
M  V30 8431 H 767.549 7.38366 1.62332 0
M  V30 8432 H 768.817 7.27196 2.80724 0
M  V30 8433 N 773.046 0.209999 1.56195 0
M  V30 8434 C 773.976 -0.699746 2.22769 0
M  V30 8435 C 774.957 -1.20993 1.1956 0
M  V30 8436 O 776.142 -1.25605 1.48112 0
M  V30 8437 C 773.272 -1.91302 2.89863 0
M  V30 8438 C 772.226 -1.53715 3.99444 0
M  V30 8439 C 771.552 -2.82826 4.53777 0
M  V30 8440 C 772.852 -0.735836 5.17091 0
M  V30 8441 H 774.546 -0.144716 2.9905 0
M  V30 8442 H 772.092 -0.0681645 1.43839 0
M  V30 8443 H 774.045 -2.5548 3.35124 0
M  V30 8444 H 772.769 -2.49283 2.11011 0
M  V30 8445 H 771.428 -0.918892 3.54897 0
M  V30 8446 H 771.076 -3.38927 3.71669 0
M  V30 8447 H 770.776 -2.58415 5.27727 0
M  V30 8448 H 772.3 -3.47966 5.01749 0
M  V30 8449 H 773.714 -1.28105 5.58804 0
M  V30 8450 H 772.111 -0.589272 5.972 0
M  V30 8451 H 773.181 0.260004 4.84202 0
M  V30 8452 N 774.524 -1.57472 -0.0634922 0
M  V30 8453 C 775.935 -1.76303 -0.614337 0
M  V30 8454 C 776.286 -0.836578 -1.77471 0
M  V30 8455 O 775.411 -0.0227184 -2.16388 0
M  V30 8456 C 776.006 -3.19709 -1.12122 0
M  V30 8457 C 774.565 -3.39856 -1.61786 0
M  V30 8458 C 773.712 -2.71975 -0.540845 0
M  V30 8459 H 776.663 -1.57864 0.162702 0
M  V30 8460 H 776.684 -3.24326 -1.98979 0
M  V30 8461 H 776.196 -3.87114 -0.276472 0
M  V30 8462 H 774.297 -2.77578 -2.48558 0
M  V30 8463 H 774.41 -4.48338 -1.68908 0
M  V30 8464 H 772.774 -2.34763 -0.987854 0
M  V30 8465 H 773.557 -3.4204 0.293856 0
M  V30 8466 N 776.003 0.335068 -1.53997 0
M  V30 8467 C 777.231 1.09418 -1.756 0
M  V30 8468 C 777.646 1.82083 -0.499138 0
M  V30 8469 O 777.003 1.74646 0.529631 0
M  V30 8470 C 777.054 2.10115 -2.94166 0
M  V30 8471 O 776.775 1.40404 -4.14992 0
M  V30 8472 C 778.276 2.98336 -3.27888 0
M  V30 8473 H 775.496 0.32595 -0.586513 0
M  V30 8474 H 778.04 0.384693 -2.00849 0
M  V30 8475 H 776.195 2.76616 -2.71224 0
M  V30 8476 H 776.609 2.07743 -4.81605 0
M  V30 8477 H 778.083 3.6491 -4.1418 0
M  V30 8478 H 778.56 3.64814 -2.44556 0
M  V30 8479 H 779.166 2.37412 -3.52868 0
M  V30 8480 N 777.481 1.45874 0.596531 0
M  V30 8481 C 778.428 1.55389 1.70655 0
M  V30 8482 C 779.398 0.399036 1.61236 0
M  V30 8483 O 780.583 0.61396 1.80652 0
M  V30 8484 C 777.723 1.53705 3.0898 0
M  V30 8485 C 776.836 2.79823 3.29125 0
M  V30 8486 C 775.971 2.69735 4.5762 0
M  V30 8487 C 775.01 3.90856 4.71061 0
M  V30 8488 N 774.147 3.79237 5.90867 0
M  V30 8489 H 778.987 2.50211 1.61859 0
M  V30 8490 H 776.524 1.24146 0.789069 0
M  V30 8491 H 778.482 1.50715 3.89026 0
M  V30 8492 H 777.112 0.624247 3.16706 0
M  V30 8493 H 776.164 2.92852 2.42779 0
M  V30 8494 H 777.476 3.69628 3.34927 0
M  V30 8495 H 776.63 2.64773 5.45875 0
M  V30 8496 H 775.369 1.77547 4.54234 0
M  V30 8497 H 774.374 3.96164 3.81227 0
M  V30 8498 H 775.599 4.84124 4.76236 0
M  V30 8499 H 773.545 2.89825 5.88504 0
M  V30 8500 H 773.462 4.62686 5.97877 0
M  V30 8501 H 774.73 3.78227 6.8159 0
M  V30 8502 N 778.959 -0.83999 1.33349 0
M  V30 8503 C 779.907 -1.97113 1.23488 0
M  V30 8504 C 780.901 -1.68849 0.136503 0
M  V30 8505 O 782.107 -1.77476 0.300389 0
M  V30 8506 H 778.482 -0.647049 0.383185 0
M  V30 8507 H 780.453 -2.02554 2.19122 0
M  V30 8508 C 779.202 -3.33314 0.989815 0
M  V30 8509 H 778.525 -3.556 1.82726 0
M  V30 8510 H 779.965 -4.12963 0.961123 0
M  V30 8511 C 778.424 -3.35496 -0.307272 0
M  V30 8512 O 778.954 -3.79589 -1.31434 0
M  V30 8513 N 777.16 -2.88669 -0.334414 0
M  V30 8514 H 776.707 -2.5298 0.485659 0
M  V30 8515 H 776.665 -2.90512 -1.20209 0
M  V30 8516 N 780.437 -1.16799 -1.0581 0
M  V30 8517 C 781.347 -0.893492 -2.16919 0
M  V30 8518 C 782.363 0.136061 -1.73467 0
M  V30 8519 O 783.539 -0.0417348 -2.01357 0
M  V30 8520 C 780.604 -0.403763 -3.44341 0
M  V30 8521 C 779.665 -1.49914 -4.02274 0
M  V30 8522 C 778.898 -1.03269 -5.23614 0
M  V30 8523 O 779.121 0.115647 -5.70283 0
M  V30 8524 O 778.055 -1.8231 -5.73626 0
M  V30 8525 H 781.881 -1.82274 -2.42919 0
M  V30 8526 H 779.466 -0.948361 -1.1544 0
M  V30 8527 H 781.348 -0.137874 -4.21174 0
M  V30 8528 H 780.023 0.497413 -3.19855 0
M  V30 8529 H 778.93 -1.81883 -3.26909 0
M  V30 8530 H 780.263 -2.3758 -4.31064 0
M  V30 8531 N 781.915 1.24427 -0.967243 0
M  V30 8532 C 783.162 1.92487 -0.62888 0
M  V30 8533 C 783.49 1.75623 0.835871 0
M  V30 8534 O 782.745 1.1027 1.61675 0
M  V30 8535 C 783.044 3.44568 -0.949096 0
M  V30 8536 C 782.71 3.816 -2.40192 0
M  V30 8537 C 781.372 3.9142 -2.799 0
M  V30 8538 C 783.724 3.99715 -3.34481 0
M  V30 8539 C 781.052 4.16771 -4.12939 0
M  V30 8540 C 783.404 4.26562 -4.67148 0
M  V30 8541 C 782.068 4.34601 -5.06634 0
M  V30 8542 H 781.338 0.704361 -0.230124 0
M  V30 8543 H 783.985 1.4772 -1.21864 0
M  V30 8544 H 782.29 3.90819 -0.277085 0
M  V30 8545 H 783.987 3.95436 -0.665692 0
M  V30 8546 H 780.577 3.74522 -2.08402 0
M  V30 8547 H 784.761 3.91531 -3.04987 0
M  V30 8548 H 780.017 4.21214 -4.43158 0
M  V30 8549 H 784.191 4.39523 -5.40178 0
M  V30 8550 H 781.818 4.53998 -6.09746 0
M  V30 8551 N 783.393 0.737304 1.3929 0
M  V30 8552 C 784.642 0.283129 1.99703 0
M  V30 8553 C 784.955 -1.13677 1.59176 0
M  V30 8554 O 786.161 -1.69058 2.12442 0
M  V30 8555 C 784.617 0.455262 3.57009 0
M  V30 8556 C 784.225 1.88319 4.06497 0
M  V30 8557 C 785.969 0.0629786 4.24453 0
M  V30 8558 C 783.876 2.00475 5.56385 0
M  V30 8559 H 782.806 0.102106 0.747054 0
M  V30 8560 H 785.457 0.911515 1.5926 0
M  V30 8561 H 783.839 -0.242057 3.9526 0
M  V30 8562 H 785.013 2.61265 3.79575 0
M  V30 8563 H 783.328 2.2289 3.51723 0
M  V30 8564 H 785.925 0.132787 5.34535 0
M  V30 8565 H 786.268 -0.982128 4.04549 0
M  V30 8566 H 786.801 0.71154 3.91385 0
M  V30 8567 H 783.54 3.03182 5.81172 0
M  V30 8568 H 783.06 1.31969 5.85102 0
M  V30 8569 H 784.739 1.787 6.21832 0
M  V30 8570 N 784.871 -1.49948 0.485112 0
M  V30 8571 C 786.282 -1.8667 0.0334041 0
M  V30 8572 C 786.633 -1.3988 -1.37579 0
M  V30 8573 O 785.758 -0.769788 -2.02245 0
M  V30 8574 C 786.353 -3.38757 0.0538426 0
M  V30 8575 C 784.912 -3.74839 -0.342453 0
M  V30 8576 C 784.059 -2.73894 0.433281 0
M  V30 8577 H 787.01 -1.42492 0.698699 0
M  V30 8578 H 787.031 -3.73132 -0.745146 0
M  V30 8579 H 786.543 -3.72782 1.07959 0
M  V30 8580 H 784.644 -3.46419 -1.37203 0
M  V30 8581 H 784.757 -4.79088 -0.0340503 0
M  V30 8582 H 783.121 -2.54441 -0.114849 0
M  V30 8583 H 783.904 -3.10763 1.45881 0
M  V30 8584 N 786.349 -0.21828 -1.56081 0
M  V30 8585 C 787.577 0.419258 -2.02608 0
M  V30 8586 C 787.992 1.53578 -1.09814 0
M  V30 8587 O 787.349 1.82185 -0.107149 0
M  V30 8588 C 787.4 0.953955 -3.48686 0
M  V30 8589 O 787.121 -0.11805 -4.37941 0
M  V30 8590 C 788.622 1.66506 -4.10841 0
M  V30 8591 H 785.842 0.10296 -0.663054 0
M  V30 8592 H 788.386 -0.333776 -2.01758 0
M  V30 8593 H 786.541 1.65727 -3.50162 0
M  V30 8594 H 786.955 0.283359 -5.23734 0
M  V30 8595 H 788.429 1.99123 -5.14834 0
M  V30 8596 H 788.906 2.57705 -3.55647 0
M  V30 8597 H 789.512 1.00703 -4.13206 0
M  V30 8598 N 787.827 1.57504 0.0551401 0
M  V30 8599 C 788.775 2.05884 1.08233 0
M  V30 8600 C 789.769 0.967383 1.39061 0
M  V30 8601 O 790.975 1.15242 1.38273 0
M  V30 8602 H 787.35 0.656673 0.366449 0
M  V30 8603 H 789.321 2.91273 0.648269 0
M  V30 8604 C 788.07 2.53221 2.38273 0
M  V30 8605 H 787.393 3.36809 2.15406 0
M  V30 8606 H 788.833 2.9081 3.08554 0
M  V30 8607 C 787.292 1.42218 3.05411 0
M  V30 8608 O 787.822 0.773638 3.9418 0
M  V30 8609 N 786.028 1.16316 2.66306 0
M  V30 8610 H 785.575 1.69237 1.94207 0
M  V30 8611 H 785.533 0.422534 3.11548 0
M  V30 8612 N 789.305 -0.326896 1.54172 0
M  V30 8613 C 790.552 -1.06523 1.72218 0
M  V30 8614 C 790.88 -1.88119 0.494114 0
M  V30 8615 O 790.135 -1.8855 -0.524147 0
M  V30 8616 C 790.434 -2.0208 2.94785 0
M  V30 8617 C 790.1 -1.36665 4.2969 0
M  V30 8618 C 788.762 -1.18556 4.66367 0
M  V30 8619 C 791.114 -0.896868 5.13425 0
M  V30 8620 C 788.442 -0.521113 5.84381 0
M  V30 8621 C 790.794 -0.246261 6.3212 0
M  V30 8622 C 789.458 -0.052987 6.67479 0
M  V30 8623 H 788.728 -0.389796 0.63019 0
M  V30 8624 H 791.375 -0.342725 1.88408 0
M  V30 8625 H 789.68 -2.8077 2.73268 0
M  V30 8626 H 791.377 -2.59231 3.05941 0
M  V30 8627 H 787.967 -1.51762 4.00832 0
M  V30 8628 H 792.151 -1.02458 4.85609 0
M  V30 8629 H 787.407 -0.36014 6.10338 0
M  V30 8630 H 791.581 0.125775 6.96286 0
M  V30 8631 H 789.208 0.463903 7.58783 0
M  V30 8632 N 790.784 -1.46188 -0.588786 0
M  V30 8633 C 791.694 -1.58865 -1.72624 0
M  V30 8634 C 792.71 -0.472348 -1.67466 0
M  V30 8635 O 793.886 -0.735638 -1.87484 0
M  V30 8636 C 790.951 -1.56989 -3.0912 0
M  V30 8637 C 790.012 -2.79804 -3.25589 0
M  V30 8638 C 789.245 -2.78009 -4.55573 0
M  V30 8639 O 789.468 -1.86406 -5.39082 0
M  V30 8640 O 788.402 -3.6947 -4.75159 0
M  V30 8641 H 792.228 -2.55047 -1.64878 0
M  V30 8642 H 789.813 -1.28912 -0.755115 0
M  V30 8643 H 791.695 -1.58618 -3.90408 0
M  V30 8644 H 790.37 -0.639648 -3.17317 0
M  V30 8645 H 789.277 -2.83732 -2.43818 0
M  V30 8646 H 790.61 -3.72017 -3.22279 0
M  V30 8647 N 792.262 0.832906 -1.33792 0
M  V30 8648 C 793.511 1.58351 -1.24932 0
M  V30 8649 C 793.824 1.94754 0.181703 0
M  V30 8650 O 795.03 2.6865 0.392375 0
M  V30 8651 C 793.486 2.85643 -2.18943 0
M  V30 8652 C 793.094 2.56581 -3.67247 0
M  V30 8653 C 794.838 3.63667 -2.18968 0
M  V30 8654 C 792.745 3.80006 -4.53155 0
M  V30 8655 H 791.675 0.594278 -0.464058 0
M  V30 8656 H 794.326 0.91786 -1.58895 0
M  V30 8657 H 792.708 3.53781 -1.77919 0
M  V30 8658 H 793.882 1.96617 -4.16747 0
M  V30 8659 H 792.197 1.91851 -3.6957 0
M  V30 8660 H 794.794 4.55293 -2.80379 0
M  V30 8661 H 795.137 3.99039 -1.18631 0
M  V30 8662 H 795.67 3.0246 -2.58384 0
M  V30 8663 H 792.409 3.4976 -5.5439 0
M  V30 8664 H 791.929 4.39288 -4.08395 0
M  V30 8665 H 793.608 4.47523 -4.6726 0
M  V30 8666 N 793.74 1.17359 1.05189 0
M  V30 8667 C 794.67 0.91365 2.14883 0
M  V30 8668 C 795.651 -0.144365 1.69486 0
M  V30 8669 O 796.836 0.00587861 1.94199 0
M  V30 8670 C 793.966 0.426196 3.44675 0
M  V30 8671 C 792.92 1.4234 4.03638 0
M  V30 8672 C 792.246 0.793902 5.28773 0
M  V30 8673 C 793.546 2.7966 4.41121 0
M  V30 8674 H 795.24 1.831 2.36885 0
M  V30 8675 H 792.786 0.881781 1.13845 0
M  V30 8676 H 794.739 0.231767 4.20762 0
M  V30 8677 H 793.463 -0.526693 3.22325 0
M  V30 8678 H 792.122 1.60457 3.2962 0
M  V30 8679 H 791.77 -0.165824 5.02727 0
M  V30 8680 H 791.47 1.45959 5.69183 0
M  V30 8681 H 792.994 0.609747 6.07548 0
M  V30 8682 H 794.408 2.6526 5.08242 0
M  V30 8683 H 792.805 3.42807 4.92548 0
M  V30 8684 H 793.875 3.34068 3.51464 0
M  V30 8685 N 795.218 -1.23913 0.973828 0
M  V30 8686 C 796.629 -1.73992 0.677021 0
M  V30 8687 C 796.98 -1.78833 -0.807036 0
M  V30 8688 O 796.105 -1.42183 -1.63135 0
M  V30 8689 C 796.7 -3.15985 1.22226 0
M  V30 8690 C 795.259 -3.63547 0.975228 0
M  V30 8691 C 794.406 -2.42001 1.35392 0
M  V30 8692 H 797.357 -1.09529 1.14844 0
M  V30 8693 H 797.378 -3.75875 0.591489 0
M  V30 8694 H 796.89 -3.12429 2.30238 0
M  V30 8695 H 794.991 -3.72493 -0.0891047 0
M  V30 8696 H 795.104 -4.50693 1.62518 0
M  V30 8697 H 793.468 -2.42708 0.772334 0
M  V30 8698 H 794.251 -2.41122 2.44367 0
M  V30 8699 N 796.696 -0.74468 -1.38897 0
M  V30 8700 C 797.626 -0.126355 -2.33158 0
M  V30 8701 C 798.607 0.713517 -1.54412 0
M  V30 8702 O 799.792 0.656523 -1.82766 0
M  V30 8703 C 796.922 0.774375 -3.38557 0
M  V30 8704 C 795.876 0.0379214 -4.27983 0
M  V30 8705 C 795.202 1.05631 -5.24162 0
M  V30 8706 C 796.502 -1.12523 -5.10035 0
M  V30 8707 H 798.196 -0.913744 -2.85116 0
M  V30 8708 H 795.742 -0.440847 -1.37086 0
M  V30 8709 H 797.695 1.21655 -4.03458 0
M  V30 8710 H 796.419 1.59399 -2.85061 0
M  V30 8711 H 795.078 -0.384733 -3.64576 0
M  V30 8712 H 794.726 1.86975 -4.66958 0
M  V30 8713 H 794.426 0.568261 -5.84846 0
M  V30 8714 H 795.95 1.49799 -5.9194 0
M  V30 8715 H 797.364 -0.761037 -5.68226 0
M  V30 8716 H 795.761 -1.54355 -5.79909 0
M  V30 8717 H 796.831 -1.94237 -4.44297 0
M  V30 8718 N 798.174 1.49689 -0.493057 0
M  V30 8719 C 799.084 2.32746 0.294358 0
M  V30 8720 C 800.1 1.44117 0.975003 0
M  V30 8721 O 801.276 1.77149 0.958138 0
M  V30 8722 C 798.341 3.19358 1.34949 0
M  V30 8723 C 797.402 4.2383 0.683122 0
M  V30 8724 C 796.635 5.06303 1.68798 0
M  V30 8725 O 796.858 4.90172 2.91698 0
M  V30 8726 O 795.792 5.88826 1.24768 0
M  V30 8727 H 799.618 3.01247 -0.385254 0
M  V30 8728 H 797.203 1.47216 -0.254519 0
M  V30 8729 H 799.085 3.73037 1.96014 0
M  V30 8730 H 797.76 2.53561 2.01217 0
M  V30 8731 H 796.667 3.74086 0.0329351 0
M  V30 8732 H 798 4.9216 0.0630192 0
M  V30 8733 N 799.652 0.226554 1.55963 0
M  V30 8734 C 800.599 -0.681504 2.20509 0
M  V30 8735 C 801.569 -1.1866 1.16229 0
M  V30 8736 O 802.754 -1.24478 1.44602 0
M  V30 8737 C 799.894 -1.88183 2.89277 0
M  V30 8738 C 799.007 -1.41517 4.08163 0
M  V30 8739 C 798.142 -2.57346 4.647 0
M  V30 8740 C 797.181 -2.07441 5.75877 0
M  V30 8741 N 796.318 -3.16561 6.26685 0
M  V30 8742 H 801.158 -0.124372 2.9774 0
M  V30 8743 H 798.695 -0.0496333 1.47016 0
M  V30 8744 H 800.653 -2.58666 3.27335 0
M  V30 8745 H 799.283 -2.41177 2.14555 0
M  V30 8746 H 798.335 -0.605099 3.75557 0
M  V30 8747 H 799.647 -1.00928 4.88482 0
M  V30 8748 H 798.801 -3.35903 5.05227 0
M  V30 8749 H 797.54 -3.01227 3.83554 0
M  V30 8750 H 796.545 -1.27347 5.34848 0
M  V30 8751 H 797.77 -1.64554 6.58862 0
M  V30 8752 H 795.716 -3.59914 5.48451 0
M  V30 8753 H 795.633 -2.80239 7.02141 0
M  V30 8754 H 796.901 -3.95238 6.71868 0
M  V30 8755 N 801.13 -1.57531 -0.0467866 0
M  V30 8756 C 802.04 -2.08768 -1.07018 0
M  V30 8757 C 803.056 -1.02245 -1.40791 0
M  V30 8758 O 804.232 -1.33873 -1.50466 0
M  V30 8759 C 801.297 -2.54221 -2.35738 0
M  V30 8760 C 800.358 -3.75152 -2.08709 0
M  V30 8761 C 799.591 -4.18428 -3.31291 0
M  V30 8762 O 799.814 -3.61365 -4.4133 0
M  V30 8763 O 798.748 -5.11018 -3.18032 0
M  V30 8764 H 802.574 -2.96334 -0.664812 0
M  V30 8765 H 800.159 -1.47074 -0.262605 0
M  V30 8766 H 802.041 -2.83866 -3.11445 0
M  V30 8767 H 800.716 -1.69774 -2.75605 0
M  V30 8768 H 799.623 -3.50553 -1.30627 0
M  V30 8769 H 800.956 -4.60528 -1.73708 0
M  V30 8770 N 802.608 0.318715 -1.54344 0
M  V30 8771 C 803.571 1.37545 -1.83342 0
M  V30 8772 C 804.571 1.445 -0.705444 0
M  V30 8773 O 805.761 1.44443 -0.973752 0
M  V30 8774 C 802.893 2.76225 -1.99781 0
M  V30 8775 H 804.086 1.13084 -2.77762 0
M  V30 8776 H 801.639 0.554457 -1.46135 0
M  V30 8777 H 802.374 3.05934 -1.07588 0
M  V30 8778 H 802.159 2.7257 -2.81865 0
M  V30 8779 H 803.649 3.52664 -2.23647 0
M  V30 8780 N 804.086 1.46499 0.581025 0
M  V30 8781 C 805.314 1.5547 1.36517 0
M  V30 8782 C 805.729 0.196407 1.87776 0
M  V30 8783 O 805.086 -0.806577 1.63709 0
M  V30 8784 C 805.137 2.56084 2.55154 0
M  V30 8785 O 804.858 3.86637 2.06018 0
M  V30 8786 C 806.359 2.75011 3.47683 0
M  V30 8787 H 803.579 0.525703 0.416986 0
M  V30 8788 H 806.123 1.9192 0.706177 0
M  V30 8789 H 804.278 2.22633 3.17039 0
M  V30 8790 H 804.692 4.41413 2.83292 0
M  V30 8791 H 806.166 3.49329 4.27403 0
M  V30 8792 H 806.643 1.81978 3.99726 0
M  V30 8793 H 807.249 3.09565 2.91632 0
M  V30 8794 N 805.565 -0.825799 1.34232 0
M  V30 8795 C 806.976 -1.39835 1.23706 0
M  V30 8796 C 807.327 -1.95709 -0.138649 0
M  V30 8797 O 806.452 -1.89833 -1.03886 0
M  V30 8798 C 807.047 -2.54203 2.23978 0
M  V30 8799 C 805.606 -3.07374 2.17251 0
M  V30 8800 C 804.753 -1.80232 2.10741 0
M  V30 8801 H 807.704 -0.630442 1.4564 0
M  V30 8802 H 807.725 -3.32214 1.8551 0
M  V30 8803 H 807.237 -2.13506 3.24094 0
M  V30 8804 H 805.338 -3.52583 1.20483 0
M  V30 8805 H 805.451 -3.6666 3.08379 0
M  V30 8806 H 803.815 -2.01012 1.56417 0
M  V30 8807 H 804.598 -1.41713 3.12686 0
M  V30 8808 N 807.043 -1.17915 -1.04565 0
M  V30 8809 C 808.273 -0.994716 -1.81077 0
M  V30 8810 C 808.681 0.460146 -1.83519 0
M  V30 8811 O 808.024 1.33136 -1.26572 0
M  V30 8812 C 808.086 -1.46698 -3.28207 0
M  V30 8813 C 807.75 -2.94523 -3.49436 0
M  V30 8814 C 808.747 -3.92414 -3.41038 0
M  V30 8815 C 806.432 -3.32841 -3.76194 0
M  V30 8816 C 808.426 -5.2662 -3.59096 0
M  V30 8817 C 806.113 -4.67212 -3.93899 0
M  V30 8818 C 807.111 -5.6391 -3.8535 0
M  V30 8819 O 806.799 -6.95849 -4.02554 0
M  V30 8820 H 806.531 -0.351797 -0.577248 0
M  V30 8821 H 809.085 -1.56772 -1.32709 0
M  V30 8822 H 807.315 -0.837592 -3.7752 0
M  V30 8823 H 809.004 -1.24724 -3.86263 0
M  V30 8824 H 809.77 -3.64157 -3.20336 0
M  V30 8825 H 805.649 -2.58139 -3.81949 0
M  V30 8826 H 809.193 -6.02082 -3.52339 0
M  V30 8827 H 805.09 -4.95172 -4.14095 0
M  V30 8828 H 805.858 -7.02679 -4.19743 0
M  V30 8829 N 808.521 1.23394 -0.980386 0
M  V30 8830 C 809.932 1.73631 -0.686239 0
M  V30 8831 C 810.283 1.79259 0.797541 0
M  V30 8832 O 809.408 1.43046 1.62379 0
M  V30 8833 C 810.003 3.15332 -1.239 0
M  V30 8834 C 808.562 3.63024 -0.994494 0
M  V30 8835 C 807.709 2.41279 -1.36673 0
M  V30 8836 H 810.66 1.08918 -1.15423 0
M  V30 8837 H 810.681 3.75556 -0.611414 0
M  V30 8838 H 810.193 3.11204 -2.31892 0
M  V30 8839 H 808.294 3.72535 0.0693492 0
M  V30 8840 H 808.407 4.49825 -1.64906 0
M  V30 8841 H 806.771 2.42295 -0.785195 0
M  V30 8842 H 807.554 2.39822 -2.45642 0
M  V30 8843 N 809.999 0.752036 1.385 0
M  V30 8844 C 810.962 0.131587 2.28822 0
M  V30 8845 C 811.962 -0.649149 1.47115 0
M  V30 8846 O 813.152 -0.475645 1.67581 0
M  V30 8847 C 810.284 -0.822101 3.30839 0
M  V30 8848 H 811.477 0.927551 2.85196 0
M  V30 8849 H 809.03 0.518945 1.47434 0
M  V30 8850 H 809.765 -1.6438 2.79553 0
M  V30 8851 H 809.55 -0.264689 3.91206 0
M  V30 8852 H 811.04 -1.25226 3.98382 0
M  V30 8853 N 811.477 -1.49425 0.500989 0
M  V30 8854 C 812.407 -2.31971 -0.266775 0
M  V30 8855 C 813.388 -1.40245 -0.962563 0
M  V30 8856 O 814.573 -1.69154 -0.953968 0
M  V30 8857 C 811.703 -3.20757 -1.33163 0
M  V30 8858 C 810.657 -4.21275 -0.75572 0
M  V30 8859 C 809.983 -4.98997 -1.92109 0
M  V30 8860 C 811.283 -5.21686 0.253213 0
M  V30 8861 H 812.977 -2.96408 0.422237 0
M  V30 8862 H 810.523 -1.4254 0.204505 0
M  V30 8863 H 812.476 -3.77315 -1.87646 0
M  V30 8864 H 811.2 -2.54263 -2.04983 0
M  V30 8865 H 809.859 -3.65861 -0.232637 0
M  V30 8866 H 809.507 -4.28951 -2.62698 0
M  V30 8867 H 809.207 -5.67011 -1.54182 0
M  V30 8868 H 810.731 -5.584 -2.47026 0
M  V30 8869 H 812.145 -5.72939 -0.203483 0
M  V30 8870 H 810.542 -5.9759 0.548322 0
M  V30 8871 H 811.612 -4.70596 1.16909 0
M  V30 8872 N 812.955 -0.234822 -1.55841 0
M  V30 8873 C 814.204 0.393685 -1.97821 0
M  V30 8874 C 814.517 1.59947 -1.1259 0
M  V30 8875 O 815.723 2.29835 -1.44528 0
M  V30 8876 C 814.179 0.751811 -3.5196 0
M  V30 8877 C 813.787 -0.431898 -4.45913 0
M  V30 8878 C 815.531 1.34518 -4.02623 0
M  V30 8879 C 813.438 -0.0505976 -5.91378 0
M  V30 8880 H 812.368 0.150864 -0.738753 0
M  V30 8881 H 815.019 -0.333132 -1.80451 0
M  V30 8882 H 813.401 1.53642 -3.6498 0
M  V30 8883 H 814.575 -1.20935 -4.44647 0
M  V30 8884 H 812.89 -0.939385 -4.05666 0
M  V30 8885 H 815.487 1.64359 -5.08813 0
M  V30 8886 H 815.83 2.26554 -3.49255 0
M  V30 8887 H 816.363 0.623729 -3.9288 0
M  V30 8888 H 813.102 -0.937779 -6.48757 0
M  V30 8889 H 812.622 0.690898 -5.95808 0
M  V30 8890 H 814.301 0.37146 -6.45933 0
M  V30 8891 N 814.433 1.57553 0.0384317 0
M  V30 8892 C 815.38 2.05942 1.04194 0
M  V30 8893 C 816.35 0.946637 1.36484 0
M  V30 8894 O 817.535 1.21658 1.46983 0
M  V30 8895 C 814.675 2.53588 2.34066 0
M  V30 8896 C 813.788 3.7862 2.08017 0
M  V30 8897 C 812.923 4.14915 3.31692 0
M  V30 8898 C 811.962 5.32891 3.01155 0
M  V30 8899 N 811.099 5.64662 4.17254 0
M  V30 8900 H 815.939 2.91429 0.622341 0
M  V30 8901 H 813.476 1.44098 0.295684 0
M  V30 8902 H 815.434 2.79276 3.09937 0
M  V30 8903 H 814.064 1.71031 2.73767 0
M  V30 8904 H 813.116 3.60073 1.22686 0
M  V30 8905 H 814.428 4.64613 1.81484 0
M  V30 8906 H 813.582 4.41681 4.15936 0
M  V30 8907 H 812.321 3.27555 3.6133 0
M  V30 8908 H 811.326 5.05887 2.15311 0
M  V30 8909 H 812.551 6.21896 2.72804 0
M  V30 8910 H 810.497 4.80261 4.46861 0
M  V30 8911 H 810.414 6.45145 3.94112 0
M  V30 8912 H 811.682 5.96 5.02399 0
M  V30 8913 N 815.911 -0.310526 1.54511 0
M  V30 8914 C 817.188 -1.06593 1.64004 0
M  V30 8915 C 817.568 -2.05519 0.482216 0
M  V30 8916 O 816.916 -2.22455 -0.52212 0
M  V30 8917 C 817.126 -1.75627 3.01589 0
M  V30 8918 C 818.474 -2.28173 3.58081 0
M  V30 8919 O 819.498 -1.85674 3.03979 0
M  V30 8920 O 818.357 -3.06015 4.52788 0
M  V30 8921 H 815.451 -0.492109 0.664649 0
M  V30 8922 H 817.997 -0.309374 1.66856 0
M  V30 8923 H 816.769 -1.03743 3.77297 0
M  V30 8924 H 816.392 -2.58061 3.02473 0
M  V30 8925 N 817.389 -1.46805 -0.573248 0
M  V30 8926 C 818.617 -1.56191 -1.3569 0
M  V30 8927 C 819.032 -0.206362 -1.87669 0
M  V30 8928 O 818.389 0.797883 -1.64134 0
M  V30 8929 C 818.44 -2.57433 -2.53792 0
M  V30 8930 O 818.161 -3.87724 -2.03965 0
M  V30 8931 C 819.662 -2.76851 -3.4622 0
M  V30 8932 H 816.882 -0.527907 -0.414192 0
M  V30 8933 H 819.426 -1.92292 -0.695989 0
M  V30 8934 H 817.581 -2.24311 -3.15854 0
M  V30 8935 H 817.995 -4.42909 -2.80948 0
M  V30 8936 H 819.469 -3.5159 -4.25545 0
M  V30 8937 H 819.946 -1.84095 -3.98755 0
M  V30 8938 H 820.552 -3.11107 -2.89987 0
M  V30 8939 N 818.867 0.818669 -1.34668 0
M  V30 8940 C 819.83 1.9114 -1.26483 0
M  V30 8941 C 820.83 1.598 -0.179044 0
M  V30 8942 O 822.02 1.6876 -0.431952 0
M  V30 8943 C 819.152 3.27285 -0.95381 0
M  V30 8944 H 820.345 1.9982 -2.23634 0
M  V30 8945 H 817.898 1.01314 -1.19018 0
M  V30 8946 H 818.633 3.24297 0.0143428 0
M  V30 8947 H 818.418 3.51416 -1.73924 0
M  V30 8948 H 819.908 4.07299 -0.921827 0
M  V30 8949 N 820.346 1.18468 1.03938 0
M  V30 8950 C 821.279 0.856251 2.11527 0
M  V30 8951 C 822.257 -0.182323 1.61575 0
M  V30 8952 O 823.441 -0.061 1.88401 0
M  V30 8953 C 820.568 0.279562 3.37544 0
M  V30 8954 C 819.614 1.29552 4.06348 0
M  V30 8955 S 820.447 2.85191 4.5324 0
M  V30 8956 C 821.603 2.29037 5.82489 0
M  V30 8957 H 821.836 1.76742 2.39059 0
M  V30 8958 H 819.369 1.01068 1.16725 0
M  V30 8959 H 821.327 -0.0466579 4.10473 0
M  V30 8960 H 819.988 -0.60975 3.08125 0
M  V30 8961 H 819.181 0.840922 4.96935 0
M  V30 8962 H 818.783 1.56804 3.39541 0
M  V30 8963 H 821.075 1.67376 6.565 0
M  V30 8964 H 822.018 3.17929 6.32714 0
M  V30 8965 H 822.426 1.72009 5.37655 0
M  V30 8966 N 821.824 -1.22873 0.986916 0
M  V30 8967 C 823.049 -1.96028 0.677341 0
M  V30 8968 C 823.474 -1.72487 -0.750319 0
M  V30 8969 O 822.832 -1.00036 -1.51203 0
M  V30 8970 C 822.88 -3.46983 0.981593 0
M  V30 8971 O 821.984 -4.12328 0.0770729 0
M  V30 8972 H 821.325 -0.613458 0.254096 0
M  V30 8973 H 823.855 -1.56132 1.32227 0
M  V30 8974 H 823.865 -3.9747 0.920969 0
M  V30 8975 H 822.54 -3.63442 2.02194 0
M  V30 8976 H 821.117 -3.72402 0.192666 0
M  V30 8977 N 823.302 -0.75937 -1.38099 0
M  V30 8978 C 824.249 -0.135508 -2.30402 0
M  V30 8979 C 825.219 0.703356 -1.50473 0
M  V30 8980 O 826.404 0.658287 -1.79084 0
M  V30 8981 C 823.544 0.747228 -3.36913 0
M  V30 8982 C 822.657 -0.106893 -4.31868 0
M  V30 8983 C 821.792 0.779388 -5.25451 0
M  V30 8984 C 820.831 -0.0780179 -6.1205 0
M  V30 8985 N 819.968 0.765545 -6.97914 0
M  V30 8986 H 824.808 -0.9282 -2.83176 0
M  V30 8987 H 822.345 -0.46935 -1.39411 0
M  V30 8988 H 824.303 1.27371 -3.97281 0
M  V30 8989 H 822.933 1.50565 -2.85535 0
M  V30 8990 H 821.985 -0.751063 -3.72912 0
M  V30 8991 H 823.297 -0.768798 -4.9284 0
M  V30 8992 H 822.451 1.37282 -5.90964 0
M  V30 8993 H 821.19 1.47501 -4.6486 0
M  V30 8994 H 820.195 -0.684078 -5.45528 0
M  V30 8995 H 821.42 -0.770786 -6.74712 0
M  V30 8996 H 819.366 1.44601 -6.39864 0
M  V30 8997 H 819.283 0.160666 -7.55829 0
M  V30 8998 H 820.551 1.34377 -7.6783 0
M  V30 8999 N 824.78 1.49157 -0.508906 0
M  V30 9000 C 825.71 2.32109 0.254469 0
M  V30 9001 C 826.691 1.40754 0.955111 0
M  V30 9002 O 827.876 1.69658 0.944983 0
M  V30 9003 C 825.006 3.21458 1.3146 0
M  V30 9004 C 823.96 4.2167 0.733368 0
M  V30 9005 C 823.286 5.00009 1.8946 0
M  V30 9006 C 824.586 5.21544 -0.280875 0
M  V30 9007 H 826.28 2.9618 -0.43795 0
M  V30 9008 H 823.826 1.4243 -0.212062 0
M  V30 9009 H 825.779 3.78305 1.85643 0
M  V30 9010 H 824.503 2.55346 2.03632 0
M  V30 9011 H 823.162 3.65979 0.213231 0
M  V30 9012 H 822.81 4.30338 2.60419 0
M  V30 9013 H 822.51 5.67821 1.51173 0
M  V30 9014 H 824.034 5.59702 2.44061 0
M  V30 9015 H 825.448 5.73039 0.173095 0
M  V30 9016 H 823.845 5.97291 -0.580006 0
M  V30 9017 H 824.915 4.69969 -1.19404 0
M  V30 9018 N 826.258 0.243083 1.55714 0
M  V30 9019 C 827.504 -0.376428 1.99886 0
M  V30 9020 C 827.859 -1.55843 1.12831 0
M  V30 9021 O 827.152 -1.90724 0.182996 0
M  V30 9022 C 827.346 -0.839621 3.47398 0
M  V30 9023 C 827.175 0.295954 4.48725 0
M  V30 9024 C 825.945 0.769392 4.99408 0
M  V30 9025 C 828.143 1.12165 5.0192 0
M  V30 9026 N 826.125 1.87778 5.84477 0
M  V30 9027 C 827.496 2.07848 5.84123 0
M  V30 9028 C 829.551 1.15864 4.84231 0
M  V30 9029 C 828.254 3.06937 6.50524 0
M  V30 9030 C 830.28 2.13782 5.51409 0
M  V30 9031 C 829.642 3.08202 6.33396 0
M  V30 9032 H 825.741 -0.103809 0.775079 0
M  V30 9033 H 828.325 0.359788 1.91347 0
M  V30 9034 H 826.496 -1.54514 3.56343 0
M  V30 9035 H 828.228 -1.43376 3.78451 0
M  V30 9036 H 824.983 0.354201 4.72274 0
M  V30 9037 H 825.407 2.43462 6.31708 0
M  V30 9038 H 830.049 0.442532 4.20478 0
M  V30 9039 H 827.767 3.79499 7.13447 0
M  V30 9040 H 831.353 2.17345 5.39678 0
M  V30 9041 H 830.233 3.82732 6.8446 0
M  V30 9042 N 827.736 -1.57571 -0.0300757 0
M  V30 9043 C 828.983 -1.89226 -0.721091 0
M  V30 9044 C 829.311 -0.840244 -1.75414 0
M  V30 9045 O 828.566 0.158906 -1.95054 0
M  V30 9046 C 828.865 -3.27624 -1.42818 0
M  V30 9047 C 828.531 -4.4776 -0.531208 0
M  V30 9048 C 827.193 -4.8036 -0.28415 0
M  V30 9049 C 829.545 -5.21125 0.0881582 0
M  V30 9050 C 826.873 -5.83715 0.591065 0
M  V30 9051 C 829.225 -6.2541 0.95107 0
M  V30 9052 C 827.889 -6.56486 1.2076 0
M  V30 9053 H 827.159 -0.692428 -0.263866 0
M  V30 9054 H 829.806 -1.91491 0.0189874 0
M  V30 9055 H 828.111 -3.21343 -2.24155 0
M  V30 9056 H 829.808 -3.49365 -1.96838 0
M  V30 9057 H 826.398 -4.2227 -0.73392 0
M  V30 9058 H 830.582 -4.96219 -0.0897496 0
M  V30 9059 H 825.838 -6.06168 0.798132 0
M  V30 9060 H 830.012 -6.81402 1.43751 0
M  V30 9061 H 827.639 -7.36395 1.88751 0
M  V30 9062 N 829.214 0.302327 -1.54673 0
M  V30 9063 C 830.161 1.37282 -1.85532 0
M  V30 9064 C 831.131 1.50437 -0.704129 0
M  V30 9065 O 832.316 1.65317 -0.952627 0
M  V30 9066 C 829.456 2.73309 -2.10704 0
M  V30 9067 C 828.569 2.68614 -3.38335 0
M  V30 9068 C 827.704 3.96626 -3.53357 0
M  V30 9069 C 826.743 3.86324 -4.74784 0
M  V30 9070 N 825.88 5.06109 -4.86619 0
M  V30 9071 H 830.72 1.10265 -2.76849 0
M  V30 9072 H 828.257 0.533346 -1.37091 0
M  V30 9073 H 830.215 3.52414 -2.23294 0
M  V30 9074 H 828.845 2.98589 -1.22656 0
M  V30 9075 H 827.897 1.81381 -3.34373 0
M  V30 9076 H 829.209 2.56891 -4.27561 0
M  V30 9077 H 828.363 4.84168 -3.65604 0
M  V30 9078 H 827.102 4.11182 -2.62261 0
M  V30 9079 H 826.107 2.97166 -4.62572 0
M  V30 9080 H 827.332 3.73315 -5.67286 0
M  V30 9081 H 825.278 5.2113 -3.98446 0
M  V30 9082 H 825.195 4.96804 -5.69844 0
M  V30 9083 H 826.463 5.95306 -5.03221 0
M  V30 9084 N 830.692 1.47107 0.565454 0
M  V30 9085 C 831.624 1.55024 1.6882 0
M  V30 9086 C 832.637 0.4371 1.56822 0
M  V30 9087 O 833.826 0.706315 1.63931 0
M  V30 9088 C 830.926 1.43069 3.0722 0
M  V30 9089 C 830.099 2.68807 3.45053 0
M  V30 9090 C 829.158 2.50806 4.62583 0
M  V30 9091 O 828.184 3.24593 4.67577 0
M  V30 9092 N 829.386 1.58093 5.58558 0
M  V30 9093 H 832.151 2.51836 1.62477 0
M  V30 9094 H 829.712 1.43382 0.751885 0
M  V30 9095 H 831.704 1.28773 3.83666 0
M  V30 9096 H 830.274 0.543721 3.07835 0
M  V30 9097 H 829.494 2.97923 2.58138 0
M  V30 9098 H 830.782 3.52298 3.67101 0
M  V30 9099 H 830.18 0.972807 5.57273 0
M  V30 9100 H 828.737 1.49753 6.34364 0
M  V30 9101 N 832.17 -0.811516 1.35101 0
M  V30 9102 C 833.447 -1.55491 1.18667 0
M  V30 9103 C 833.827 -2.09775 -0.236189 0
M  V30 9104 O 833.175 -1.91989 -1.23905 0
M  V30 9105 C 833.385 -2.66732 2.25067 0
M  V30 9106 C 834.733 -3.35201 2.60625 0
M  V30 9107 O 835.757 -2.76998 2.23943 0
M  V30 9108 O 834.616 -4.40334 3.23679 0
M  V30 9109 H 831.71 -0.686783 0.460716 0
M  V30 9110 H 834.256 -0.851903 1.46768 0
M  V30 9111 H 833.028 -2.24457 3.20523 0
M  V30 9112 H 832.651 -3.44673 1.98208 0
M  V30 9113 N 833.648 -1.19017 -1.03309 0
M  V30 9114 C 834.925 -0.899659 -1.73682 0
M  V30 9115 C 835.305 0.595677 -2.02521 0
M  V30 9116 O 834.653 1.55263 -1.67648 0
M  V30 9117 C 834.863 -1.75508 -3.01659 0
M  V30 9118 C 836.211 -1.98679 -3.75249 0
M  V30 9119 O 837.235 -1.72624 -3.11576 0
M  V30 9120 O 836.094 -2.42587 -4.89708 0
M  V30 9121 H 833.188 -0.334903 -0.756154 0
M  V30 9122 H 835.734 -1.29809 -1.09305 0
M  V30 9123 H 834.506 -2.7684 -2.76542 0
M  V30 9124 H 834.129 -1.35565 -3.73775 0
M  V30 9125 N 835.127 1.22348 -0.993418 0
M  V30 9126 C 836.074 2.24294 -0.544118 0
M  V30 9127 C 837.044 1.60602 0.42381 0
M  V30 9128 O 838.229 1.87952 0.328453 0
M  V30 9129 C 835.369 3.44837 0.134578 0
M  V30 9130 C 834.482 4.23043 -0.875151 0
M  V30 9131 C 833.617 5.30928 -0.169919 0
M  V30 9132 C 832.656 6.00853 -1.16798 0
M  V30 9133 N 831.793 7.00381 -0.491021 0
M  V30 9134 H 836.633 2.6209 -1.4182 0
M  V30 9135 H 834.17 1.2881 -0.710384 0
M  V30 9136 H 836.128 4.13625 0.544998 0
M  V30 9137 H 834.758 3.07804 0.972446 0
M  V30 9138 H 833.81 3.53546 -1.40389 0
M  V30 9139 H 835.122 4.71237 -1.63516 0
M  V30 9140 H 834.276 6.05972 0.297205 0
M  V30 9141 H 833.015 4.8371 0.622586 0
M  V30 9142 H 832.02 5.24591 -1.64573 0
M  V30 9143 H 833.245 6.50159 -1.96137 0
M  V30 9144 H 831.191 6.55393 0.282037 0
M  V30 9145 H 831.108 7.46584 -1.18947 0
M  V30 9146 H 832.376 7.79486 -0.0467169 0
M  V30 9147 N 836.605 0.766683 1.37694 0
M  V30 9148 C 837.852 0.328714 1.99814 0
M  V30 9149 C 838.18 -1.09333 1.60862 0
M  V30 9150 O 837.435 -1.7657 0.8439 0
M  V30 9151 C 837.734 0.413831 3.54996 0
M  V30 9152 C 837.4 1.7934 4.137 0
M  V30 9153 C 836.062 2.17092 4.29447 0
M  V30 9154 C 838.414 2.69776 4.45949 0
M  V30 9155 C 835.742 3.44726 4.74743 0
M  V30 9156 C 838.094 3.96814 4.92667 0
M  V30 9157 C 836.758 4.34618 5.0662 0
M  V30 9158 H 836.028 0.120285 0.731172 0
M  V30 9159 H 838.675 0.97972 1.64541 0
M  V30 9160 H 836.98 -0.320723 3.90485 0
M  V30 9161 H 838.677 0.0563369 4.0096 0
M  V30 9162 H 835.267 1.48997 4.01868 0
M  V30 9163 H 839.451 2.41871 4.33373 0
M  V30 9164 H 834.707 3.73917 4.83731 0
M  V30 9165 H 838.881 4.67022 5.16588 0
M  V30 9166 H 836.508 5.33578 5.41478 0
M  V30 9167 N 838.083 -1.48885 0.516809 0
M  V30 9168 C 839.33 -2.02488 -0.0220602 0
M  V30 9169 C 839.658 -1.39513 -1.35523 0
M  V30 9170 O 838.913 -0.52558 -1.8851 0
M  V30 9171 C 839.212 -3.56801 -0.206798 0
M  V30 9172 C 838.878 -4.38496 1.05035 0
M  V30 9173 C 837.54 -4.60538 1.39492 0
M  V30 9174 C 839.892 -4.85909 1.88525 0
M  V30 9175 C 837.22 -5.2724 2.57361 0
M  V30 9176 C 839.572 -5.53909 3.05561 0
M  V30 9177 C 838.236 -5.74193 3.4038 0
M  V30 9178 H 837.506 -0.740956 -0.00807238 0
M  V30 9179 H 840.153 -1.79014 0.680168 0
M  V30 9180 H 838.458 -3.79042 -0.991687 0
M  V30 9181 H 840.155 -3.95885 -0.638447 0
M  V30 9182 H 836.745 -4.2159 0.771984 0
M  V30 9183 H 840.929 -4.68694 1.63218 0
M  V30 9184 H 836.185 -5.41145 2.84556 0
M  V30 9185 H 840.359 -5.89619 3.7057 0
M  V30 9186 H 837.986 -6.25652 4.31814 0
M  V30 9187 N 839.561 -0.251338 -1.55583 0
M  V30 9188 C 840.491 0.640437 -2.24545 0
M  V30 9189 C 841.472 1.17781 -1.22726 0
M  V30 9190 O 842.657 1.21633 -1.5139 0
M  V30 9191 C 839.787 1.8355 -2.94834 0
M  V30 9192 C 838.741 1.4307 -4.03379 0
M  V30 9193 C 838.067 2.70695 -4.61116 0
M  V30 9194 C 839.367 0.59848 -5.1886 0
M  V30 9195 H 841.061 0.0653772 -2.99329 0
M  V30 9196 H 838.607 0.0300042 -1.43969 0
M  V30 9197 H 840.56 2.46505 -3.4178 0
M  V30 9198 H 839.284 2.43601 -2.17546 0
M  V30 9199 H 837.943 0.824474 -3.57209 0
M  V30 9200 H 837.591 3.28954 -3.80524 0
M  V30 9201 H 837.291 2.44332 -5.34393 0
M  V30 9202 H 838.815 3.34541 -5.10798 0
M  V30 9203 H 840.229 1.13244 -5.62004 0
M  V30 9204 H 838.626 0.430728 -5.98552 0
M  V30 9205 H 839.696 -0.38829 -4.83343 0
M  V30 9206 N 841.039 1.57585 0.0217189 0
M  V30 9207 C 842.45 1.7787 0.567377 0
M  V30 9208 C 842.801 0.883337 1.7519 0
M  V30 9209 O 841.926 0.0800819 2.16252 0
M  V30 9210 C 842.521 3.2257 1.03606 0
M  V30 9211 C 841.08 3.44026 1.52718 0
M  V30 9212 C 840.227 2.73313 0.468545 0
M  V30 9213 H 843.178 1.57377 -0.2045 0
M  V30 9214 H 843.199 3.29488 1.9031 0
M  V30 9215 H 842.711 3.87711 0.173739 0
M  V30 9216 H 840.812 2.8407 2.41111 0
M  V30 9217 H 840.925 4.52659 1.56962 0
M  V30 9218 H 839.289 2.37299 0.925263 0
M  V30 9219 H 840.072 3.41141 -0.384438 0
M  V30 9220 N 842.517 -0.29412 1.54831 0
M  V30 9221 C 843.464 -1.36296 1.86258 0
M  V30 9222 C 844.434 -1.50061 0.712097 0
M  V30 9223 O 845.619 -1.64809 0.961381 0
M  V30 9224 C 842.759 -2.72187 2.12151 0
M  V30 9225 C 841.872 -2.66816 3.39755 0
M  V30 9226 C 841.007 -3.94747 3.55455 0
M  V30 9227 C 840.046 -3.838 4.76827 0
M  V30 9228 N 839.183 -5.03521 4.89296 0
M  V30 9229 H 844.023 -1.08796 2.7743 0
M  V30 9230 H 841.56 -0.526069 1.37371 0
M  V30 9231 H 843.518 -3.51225 2.25159 0
M  V30 9232 H 842.148 -2.97934 1.24237 0
M  V30 9233 H 841.2 -1.79605 3.3533 0
M  V30 9234 H 842.512 -2.5462 4.28917 0
M  V30 9235 H 841.666 -4.82223 3.68166 0
M  V30 9236 H 840.405 -4.09785 2.64438 0
M  V30 9237 H 839.41 -2.94708 4.64141 0
M  V30 9238 H 840.635 -3.70301 5.69258 0
M  V30 9239 H 838.581 -5.1901 4.01204 0
M  V30 9240 H 838.498 -4.93775 5.72471 0
M  V30 9241 H 839.766 -5.92629 5.06371 0
M  V30 9242 N 843.995 -1.47404 -0.557645 0
M  V30 9243 C 844.958 -1.59411 -1.64684 0
M  V30 9244 C 845.958 -0.469244 -1.53801 0
M  V30 9245 O 847.148 -0.734298 -1.57967 0
M  V30 9246 C 844.28 -1.5382 -3.04224 0
M  V30 9247 H 845.473 -2.56504 -1.55389 0
M  V30 9248 H 843.026 -1.35588 -0.777531 0
M  V30 9249 H 843.761 -0.581 -3.19053 0
M  V30 9250 H 843.546 -2.35456 -3.13533 0
M  V30 9251 H 845.036 -1.65358 -3.83466 0
M  V30 9252 N 845.473 0.80434 -1.35529 0
M  V30 9253 C 846.713 1.57489 -1.30295 0
M  V30 9254 C 847.077 1.91621 0.120528 0
M  V30 9255 O 848.278 2.67151 0.297265 0
M  V30 9256 C 846.549 2.82741 -2.18615 0
M  V30 9257 S 848.108 3.73125 -2.30918 0
M  V30 9258 H 844.926 0.539573 -0.463014 0
M  V30 9259 H 847.528 0.948601 -1.70944 0
M  V30 9260 H 846.232 2.55692 -3.21014 0
M  V30 9261 H 845.763 3.50353 -1.78931 0
M  V30 9262 H 847.778 4.73122 -1.49566 0
M  V30 9263 N 846.951 1.19563 1.02676 0
M  V30 9264 C 847.881 0.959024 2.12897 0
M  V30 9265 C 848.862 -0.108382 1.69754 0
M  V30 9266 O 850.047 0.0470698 1.94143 0
M  V30 9267 C 847.177 0.499211 3.43693 0
M  V30 9268 C 846.131 1.5087 4.00528 0
M  V30 9269 C 845.457 0.905884 5.2697 0
M  V30 9270 C 846.757 2.88954 4.3509 0
M  V30 9271 H 848.451 1.88084 2.32948 0
M  V30 9272 H 845.997 0.905731 1.11949 0
M  V30 9273 H 847.95 0.320965 4.20176 0
M  V30 9274 H 846.674 -0.458205 3.2337 0
M  V30 9275 H 845.333 1.67413 3.26142 0
M  V30 9276 H 844.981 -0.0591506 5.02965 0
M  V30 9277 H 844.681 1.58 5.65959 0
M  V30 9278 H 846.205 0.73848 6.06118 0
M  V30 9279 H 847.619 2.75981 5.02501 0
M  V30 9280 H 846.016 3.53177 4.85166 0
M  V30 9281 H 847.086 3.41447 3.44299 0
M  V30 9282 N 848.429 -1.21819 0.999893 0
M  V30 9283 C 849.377 -2.26027 0.549047 0
M  V30 9284 C 850.371 -1.64516 -0.403826 0
M  V30 9285 O 851.577 -1.77878 -0.275578 0
M  V30 9286 H 847.952 -0.734958 0.159185 0
M  V30 9287 H 849.923 -2.61398 1.43923 0
M  V30 9288 C 848.672 -3.47514 -0.11369 0
M  V30 9289 H 847.995 -3.95112 0.610482 0
M  V30 9290 H 849.435 -4.22179 -0.3925 0
M  V30 9291 C 847.894 -3.08614 -1.35126 0
M  V30 9292 O 848.424 -3.1864 -2.44605 0
M  V30 9293 N 846.63 -2.63327 -1.22911 0
M  V30 9294 H 846.177 -2.55369 -0.338288 0
M  V30 9295 H 846.135 -2.37668 -2.05818 0
M  V30 9296 N 849.908 -0.773975 -1.37286 0
M  V30 9297 C 851.155 -0.339306 -1.99637 0
M  V30 9298 C 851.483 1.08478 -1.61439 0
M  V30 9299 O 850.738 1.7612 -0.853252 0
M  V30 9300 C 851.037 -0.432651 -3.54772 0
M  V30 9301 C 850.703 -1.81531 -4.12744 0
M  V30 9302 C 849.365 -2.19366 -4.2829 0
M  V30 9303 C 851.717 -2.72137 -4.44512 0
M  V30 9304 C 849.045 -3.47239 -4.72908 0
M  V30 9305 C 851.397 -3.99421 -4.90556 0
M  V30 9306 C 850.061 -4.37298 -5.04308 0
M  V30 9307 H 849.331 -0.124161 -0.730524 0
M  V30 9308 H 851.978 -0.988432 -1.64019 0
M  V30 9309 H 850.283 0.30001 -3.9065 0
M  V30 9310 H 851.98 -0.0776 -4.00925 0
M  V30 9311 H 848.57 -1.51126 -4.01072 0
M  V30 9312 H 852.754 -2.44165 -4.32084 0
M  V30 9313 H 848.01 -3.76477 -4.81742 0
M  V30 9314 H 852.184 -4.69756 -5.14104 0
M  V30 9315 H 849.811 -5.36442 -5.38641 0
M  V30 9316 N 851.386 1.48609 -0.524698 0
M  V30 9317 C 852.296 2.33318 0.244923 0
M  V30 9318 C 853.312 1.46153 0.944214 0
M  V30 9319 O 854.488 1.79141 0.920347 0
M  V30 9320 C 851.553 3.22149 1.28144 0
M  V30 9321 C 850.614 4.25184 0.593068 0
M  V30 9322 C 849.847 5.0977 1.5802 0
M  V30 9323 O 850.07 4.96249 2.81235 0
M  V30 9324 O 849.004 5.9134 1.1225 0
M  V30 9325 H 852.83 3.00362 -0.449066 0
M  V30 9326 H 850.415 1.46643 -0.285689 0
M  V30 9327 H 852.297 3.77111 1.88057 0
M  V30 9328 H 850.972 2.57772 1.95793 0
M  V30 9329 H 849.879 3.74071 -0.0464214 0
M  V30 9330 H 851.212 4.92183 -0.0413893 0
M  V30 9331 N 852.864 0.259585 1.55447 0
M  V30 9332 C 854.111 -0.361607 1.99245 0
M  V30 9333 C 854.439 -1.57017 1.14787 0
M  V30 9334 O 853.694 -1.94658 0.201724 0
M  V30 9335 C 853.993 -0.802727 3.48269 0
M  V30 9336 C 853.659 0.299472 4.49904 0
M  V30 9337 C 852.321 0.602157 4.77418 0
M  V30 9338 C 854.673 1.04295 5.10658 0
M  V30 9339 C 852.001 1.65217 5.62957 0
M  V30 9340 C 854.353 2.08257 5.97337 0
M  V30 9341 C 853.017 2.39177 6.23178 0
M  V30 9342 H 852.287 -0.132322 0.72909 0
M  V30 9343 H 854.934 0.370059 1.8789 0
M  V30 9344 H 853.239 -1.61381 3.5702 0
M  V30 9345 H 854.936 -1.29385 3.79553 0
M  V30 9346 H 851.526 0.0534256 4.28567 0
M  V30 9347 H 855.71 0.822358 4.89439 0
M  V30 9348 H 850.966 1.89692 5.81229 0
M  V30 9349 H 855.14 2.6635 6.43452 0
M  V30 9350 H 852.767 3.20677 6.89253 0
M  V30 9351 N 854.342 -1.57594 -0.0133615 0
M  V30 9352 C 855.589 -1.8998 -0.70098 0
M  V30 9353 C 855.917 -0.858802 -1.74513 0
M  V30 9354 O 855.172 0.138209 -1.95211 0
M  V30 9355 C 855.471 -3.29121 -1.39336 0
M  V30 9356 C 855.137 -4.48298 -0.483687 0
M  V30 9357 C 853.799 -4.80635 -0.233186 0
M  V30 9358 C 856.151 -5.21003 0.143426 0
M  V30 9359 C 853.479 -5.83055 0.652943 0
M  V30 9360 C 855.831 -6.24366 1.01735 0
M  V30 9361 C 854.495 -6.55168 1.27716 0
M  V30 9362 H 853.765 -0.695187 -0.256507 0
M  V30 9363 H 856.412 -1.9146 0.0392965 0
M  V30 9364 H 854.717 -3.23703 -2.20735 0
M  V30 9365 H 856.414 -3.51433 -1.93121 0
M  V30 9366 H 853.004 -4.23024 -0.689092 0
M  V30 9367 H 857.188 -4.96286 -0.0371139 0
M  V30 9368 H 852.444 -6.05288 0.862379 0
M  V30 9369 H 856.618 -6.79839 1.5097 0
M  V30 9370 H 854.245 -7.34351 1.9655 0
M  V30 9371 N 855.82 0.285905 -1.54985 0
M  V30 9372 C 857.045 1.04207 -1.7932 0
M  V30 9373 C 857.47 1.79622 -0.558343 0
M  V30 9374 O 856.828 1.74506 0.491661 0
M  V30 9375 C 856.876 1.98648 -3.0095 0
M  V30 9376 O 855.98 3.07207 -2.75132 0
M  V30 9377 H 855.321 0.298596 -0.593074 0
M  V30 9378 H 857.851 0.318736 -2.02102 0
M  V30 9379 H 857.861 2.4084 -3.29333 0
M  V30 9380 H 856.536 1.43167 -3.90482 0
M  V30 9381 H 855.113 2.69423 -2.57809 0
M  V30 9382 N 857.298 1.47698 0.54982 0
M  V30 9383 C 858.709 1.48474 1.13191 0
M  V30 9384 C 859.06 0.243504 1.94683 0
M  V30 9385 O 858.185 -0.651009 2.06375 0
M  V30 9386 C 858.78 2.69022 2.05944 0
M  V30 9387 C 857.339 2.72733 2.5941 0
M  V30 9388 C 856.486 2.41691 1.35944 0
M  V30 9389 H 859.437 1.55101 0.336048 0
M  V30 9390 H 859.458 2.46412 2.89934 0
M  V30 9391 H 858.97 3.59345 1.46605 0
M  V30 9392 H 857.071 1.86568 3.22526 0
M  V30 9393 H 857.184 3.73628 2.99899 0
M  V30 9394 H 855.548 1.92428 1.66864 0
M  V30 9395 H 856.331 3.34231 0.783869 0
M  V30 9396 N 858.776 -0.797141 1.35954 0
M  V30 9397 C 860.023 -1.55468 1.29754 0
M  V30 9398 C 860.351 -1.94095 -0.125391 0
M  V30 9399 O 859.606 -1.62341 -1.09288 0
M  V30 9400 C 859.905 -2.84847 2.15863 0
M  V30 9401 C 859.571 -2.65394 3.64523 0
M  V30 9402 C 858.233 -2.59796 4.05042 0
M  V30 9403 C 860.585 -2.4727 4.58811 0
M  V30 9404 C 857.913 -2.3403 5.38002 0
M  V30 9405 C 860.265 -2.23032 5.91979 0
M  V30 9406 C 858.929 -2.15862 6.31633 0
M  V30 9407 H 858.199 -0.568897 0.474803 0
M  V30 9408 H 860.846 -0.920299 1.67937 0
M  V30 9409 H 859.151 -3.52712 1.70591 0
M  V30 9410 H 860.848 -3.42597 2.08395 0
M  V30 9411 H 857.438 -2.70602 3.32374 0
M  V30 9412 H 861.622 -2.506 4.28384 0
M  V30 9413 H 856.878 -2.26956 5.67715 0
M  V30 9414 H 861.052 -2.08001 6.64612 0
M  V30 9415 H 858.679 -1.9566 7.34589 0
M  V30 9416 N 860.254 -1.20106 -1.0204 0
M  V30 9417 C 861.217 -0.948261 -2.08664 0
M  V30 9418 C 862.217 0.0746753 -1.60627 0
M  V30 9419 O 863.407 -0.160981 -1.73455 0
M  V30 9420 C 860.539 -0.426854 -3.38217 0
M  V30 9421 H 861.732 -1.894 -2.32524 0
M  V30 9422 H 859.285 -1.0159 -1.18782 0
M  V30 9423 H 860.02 0.524532 -3.2003 0
M  V30 9424 H 859.805 -1.16451 -3.74408 0
M  V30 9425 H 861.295 -0.269346 -4.1673 0
M  V30 9426 N 861.732 1.21287 -1.00634 0
M  V30 9427 C 862.962 1.94103 -0.70765 0
M  V30 9428 C 863.37 1.74382 0.733991 0
M  V30 9429 O 862.713 1.04843 1.50843 0
M  V30 9430 C 862.775 3.46705 -0.950581 0
M  V30 9431 C 862.439 3.90176 -2.37932 0
M  V30 9432 C 863.436 3.96769 -3.35961 0
M  V30 9433 C 861.121 4.22453 -2.71733 0
M  V30 9434 C 863.115 4.35034 -4.65858 0
M  V30 9435 C 860.802 4.60394 -4.01846 0
M  V30 9436 C 861.8 4.66656 -4.9872 0
M  V30 9437 O 861.488 5.03732 -6.26505 0
M  V30 9438 H 861.22 0.62405 -0.259881 0
M  V30 9439 H 863.774 1.55015 -1.34757 0
M  V30 9440 H 862.004 3.85868 -0.253492 0
M  V30 9441 H 863.693 4.00741 -0.645069 0
M  V30 9442 H 864.459 3.72009 -3.11182 0
M  V30 9443 H 860.338 4.16776 -1.97025 0
M  V30 9444 H 863.882 4.39836 -5.4147 0
M  V30 9445 H 859.779 4.84609 -4.26409 0
M  V30 9446 H 860.547 5.21761 -6.30641 0
M  V30 9447 N 863.21 0.781244 1.36873 0
M  V30 9448 C 864.456 0.350407 1.9975 0
M  V30 9449 C 864.789 -1.07293 1.6187 0
M  V30 9450 O 864.064 -1.73983 0.869491 0
M  V30 9451 C 864.347 0.504834 3.56544 0
M  V30 9452 C 864.2 1.97127 4.04303 0
M  V30 9453 C 865.519 -0.0851272 4.40018 0
M  V30 9454 H 862.638 0.128794 0.725659 0
M  V30 9455 H 865.28 0.98606 1.6241 0
M  V30 9456 H 863.43 -0.0363006 3.88483 0
M  V30 9457 H 865.102 2.57284 3.82887 0
M  V30 9458 H 863.345 2.47676 3.56145 0
M  V30 9459 H 864.016 2.03033 5.13305 0
M  V30 9460 H 866.492 0.376704 4.14391 0
M  V30 9461 H 865.368 0.0530015 5.48874 0
M  V30 9462 H 865.629 -1.17642 4.2616 0
M  V30 9463 N 864.689 -1.48329 0.532571 0
M  V30 9464 C 865.966 -1.95492 -0.0650985 0
M  V30 9465 C 866.346 -1.47485 -1.51034 0
M  V30 9466 O 865.694 -0.702516 -2.17433 0
M  V30 9467 C 865.904 -3.48957 0.0548341 0
M  V30 9468 C 867.252 -4.24475 -0.103115 0
M  V30 9469 O 868.276 -3.56195 -0.0188343 0
M  V30 9470 O 867.135 -5.45781 -0.280164 0
M  V30 9471 H 864.229 -0.823327 -0.0778603 0
M  V30 9472 H 866.775 -1.58839 0.597353 0
M  V30 9473 H 865.547 -3.76628 1.06148 0
M  V30 9474 H 865.17 -3.92311 -0.64635 0
M  V30 9475 N 866.167 -0.267825 -1.55308 0
M  V30 9476 C 867.578 0.231344 -1.85261 0
M  V30 9477 C 867.929 1.56006 -1.18982 0
M  V30 9478 O 867.054 2.1111 -0.475554 0
M  V30 9479 C 867.649 0.426537 -3.36104 0
M  V30 9480 C 866.208 0.869945 -3.66209 0
M  V30 9481 C 865.355 -0.0409522 -2.7727 0
M  V30 9482 H 868.306 -0.489821 -1.50952 0
M  V30 9483 H 868.327 1.26616 -3.58816 0
M  V30 9484 H 867.839 -0.540678 -3.84315 0
M  V30 9485 H 865.94 1.84889 -3.23492 0
M  V30 9486 H 866.053 0.712316 -4.73775 0
M  V30 9487 H 864.417 0.474097 -2.50249 0
M  V30 9488 H 865.2 -1.00392 -3.28293 0
M  V30 9489 N 867.645 1.57599 0.00500368 0
M  V30 9490 C 868.575 2.11143 0.99705 0
M  V30 9491 C 869.556 1.0194 1.3617 0
M  V30 9492 O 870.741 1.29596 1.44632 0
M  V30 9493 C 867.871 2.61062 2.2905 0
M  V30 9494 C 866.825 3.74745 2.0676 0
M  V30 9495 C 866.151 4.10961 3.42075 0
M  V30 9496 C 867.451 5.02222 1.43424 0
M  V30 9497 H 869.145 2.94281 0.551251 0
M  V30 9498 H 866.691 1.41565 0.263715 0
M  V30 9499 H 868.644 2.97146 2.98801 0
M  V30 9500 H 867.368 1.75038 2.75734 0
M  V30 9501 H 866.027 3.39047 1.39436 0
M  V30 9502 H 865.675 3.21968 3.86453 0
M  V30 9503 H 865.375 4.87549 3.27979 0
M  V30 9504 H 866.899 4.49599 4.1315 0
M  V30 9505 H 868.313 5.36109 2.03125 0
M  V30 9506 H 866.71 5.83581 1.39831 0
M  V30 9507 H 867.78 4.83224 0.40285 0
M  V30 9508 N 869.123 -0.277682 1.55134 0
M  V30 9509 C 870.073 -1.34531 1.8408 0
M  V30 9510 C 871.057 -1.44904 0.699393 0
M  V30 9511 O 872.249 -1.48664 0.960623 0
M  V30 9512 C 869.378 -2.7064 2.11208 0
M  V30 9513 C 868.464 -2.64396 3.31596 0
M  V30 9514 N 868.855 -2.2777 4.51613 0
M  V30 9515 C 867.153 -2.95464 3.34091 0
M  V30 9516 C 867.854 -2.31401 5.33693 0
M  V30 9517 N 866.83 -2.69688 4.71984 0
M  V30 9518 H 870.632 -1.05214 2.74421 0
M  V30 9519 H 868.146 -0.486311 1.54948 0
M  V30 9520 H 870.143 -3.47649 2.301 0
M  V30 9521 H 868.803 -3.00849 1.22148 0
M  V30 9522 H 869.814 -1.99827 4.77797 0
M  V30 9523 H 866.491 -3.30415 2.5521 0
M  V30 9524 H 867.881 -2.05685 6.39643 0
M  V30 9525 N 870.601 -1.47988 -0.541979 0
M  V30 9526 C 871.841 -1.56982 -1.30905 0
M  V30 9527 C 872.205 -0.233153 -1.90579 0
M  V30 9528 O 873.406 -0.198018 -2.6807 0
M  V30 9529 C 871.677 -2.66787 -2.37823 0
M  V30 9530 S 873.236 -2.95467 -3.24414 0
M  V30 9531 H 870.054 -0.554165 -0.445446 0
M  V30 9532 H 872.656 -1.85448 -0.618803 0
M  V30 9533 H 871.36 -3.62483 -1.92443 0
M  V30 9534 H 870.891 -2.40184 -3.11569 0
M  V30 9535 H 872.906 -2.33846 -4.37642 0
M  V30 9536 N 872.079 0.78992 -1.36375 0
M  V30 9537 C 873.027 1.92394 -1.30719 0
M  V30 9538 C 874.021 1.68226 -0.199076 0
M  V30 9539 O 875.227 1.76239 -0.366051 0
M  V30 9540 H 871.602 0.632382 -0.406936 0
M  V30 9541 H 873.573 1.94282 -2.26488 0
M  V30 9542 C 872.322 3.2941 -1.11284 0
M  V30 9543 H 871.645 3.48573 -1.95798 0
M  V30 9544 H 873.085 4.09111 -1.11373 0
M  V30 9545 C 871.544 3.36405 0.182543 0
M  V30 9546 O 872.074 3.84206 1.17255 0
M  V30 9547 N 870.28 2.89712 0.227046 0
M  V30 9548 H 869.827 2.51004 -0.579217 0
M  V30 9549 H 869.785 2.94773 1.09344 0
M  V30 9550 N 873.557 1.20646 1.01402 0
M  V30 9551 C 874.49 0.900926 2.09663 0
M  V30 9552 C 875.468 -0.14801 1.61925 0
M  V30 9553 O 876.652 -0.0210235 1.88488 0
M  V30 9554 C 873.779 0.351097 3.36875 0
M  V30 9555 C 872.825 1.38142 4.03508 0
M  V30 9556 S 873.658 2.94741 4.47089 0
M  V30 9557 C 874.814 2.41341 5.77499 0
M  V30 9558 H 875.047 1.81773 2.35257 0
M  V30 9559 H 872.58 1.03521 1.14555 0
M  V30 9560 H 874.538 0.0404201 4.1048 0
M  V30 9561 H 873.199 -0.544255 3.09349 0
M  V30 9562 H 872.392 0.94614 4.9504 0
M  V30 9563 H 871.994 1.63971 3.36139 0
M  V30 9564 H 874.286 1.81263 6.52802 0
M  V30 9565 H 875.229 3.31278 6.25828 0
M  V30 9566 H 875.637 1.83374 5.33886 0
M  V30 9567 N 875.035 -1.20752 1.01276 0
M  V30 9568 C 875.998 -2.2162 0.584583 0
M  V30 9569 C 876.998 -1.57094 -0.343215 0
M  V30 9570 O 878.188 -1.73696 -0.132433 0
M  V30 9571 C 875.32 -3.40583 -0.146872 0
M  V30 9572 H 876.513 -2.61015 1.47686 0
M  V30 9573 H 874.066 -1.34148 0.802123 0
M  V30 9574 H 874.801 -3.06686 -1.05424 0
M  V30 9575 H 874.586 -3.88642 0.51958 0
M  V30 9576 H 876.076 -4.15339 -0.433924 0
M  V30 9577 N 876.513 -0.788492 -1.36457 0
M  V30 9578 C 877.743 -0.371825 -2.03227 0
M  V30 9579 C 878.151 1.01627 -1.59589 0
M  V30 9580 O 877.494 1.663 -0.780382 0
M  V30 9581 C 877.556 -0.355179 -3.57741 0
M  V30 9582 C 877.22 -1.69069 -4.24576 0
M  V30 9583 C 878.217 -2.64601 -4.47529 0
M  V30 9584 C 875.902 -1.96973 -4.62068 0
M  V30 9585 C 877.896 -3.86232 -5.07054 0
M  V30 9586 C 875.583 -3.18872 -5.2131 0
M  V30 9587 C 876.581 -4.1332 -5.43742 0
M  V30 9588 O 876.269 -5.3307 -6.0174 0
M  V30 9589 H 876.001 -0.151452 -0.658816 0
M  V30 9590 H 878.555 -1.06827 -1.75434 0
M  V30 9591 H 876.785 0.397753 -3.84649 0
M  V30 9592 H 878.474 0.0366955 -4.05883 0
M  V30 9593 H 879.24 -2.44329 -4.18961 0
M  V30 9594 H 875.119 -1.24277 -4.43933 0
M  V30 9595 H 878.663 -4.59965 -5.24478 0
M  V30 9596 H 874.56 -3.39022 -5.49304 0
M  V30 9597 H 875.328 -5.34121 -6.20207 0
M  V30 9598 N 877.991 1.48044 -0.54043 0
M  V30 9599 C 878.921 2.32597 0.205178 0
M  V30 9600 C 879.902 1.42748 0.925041 0
M  V30 9601 O 881.087 1.71624 0.908784 0
M  V30 9602 C 878.217 3.24175 1.24612 0
M  V30 9603 C 877.171 4.23131 0.64376 0
M  V30 9604 C 876.497 5.03915 1.78812 0
M  V30 9605 C 877.797 5.20831 -0.39144 0
M  V30 9606 H 879.491 2.95184 -0.500676 0
M  V30 9607 H 877.037 1.41948 -0.242225 0
M  V30 9608 H 878.99 3.82158 1.77576 0
M  V30 9609 H 877.714 2.59608 1.98169 0
M  V30 9610 H 876.373 3.66349 0.135554 0
M  V30 9611 H 876.021 4.35765 2.51232 0
M  V30 9612 H 875.721 5.709 1.39094 0
M  V30 9613 H 877.245 5.64753 2.32134 0
M  V30 9614 H 878.659 5.73277 0.0515064 0
M  V30 9615 H 877.056 5.95926 -0.706569 0
M  V30 9616 H 878.126 4.6733 -1.29345 0
M  V30 9617 N 879.47 0.276058 1.55163 0
M  V30 9618 C 880.7 -0.343274 2.03728 0
M  V30 9619 C 881.108 -1.49945 1.15383 0
M  V30 9620 O 880.451 -1.82942 0.166696 0
M  V30 9621 C 880.513 -0.885683 3.48419 0
M  V30 9622 C 880.177 0.141976 4.56779 0
M  V30 9623 C 881.174 0.961816 5.10926 0
M  V30 9624 C 878.859 0.276487 5.01538 0
M  V30 9625 C 880.853 1.90234 6.0835 0
M  V30 9626 C 878.54 1.22049 5.98788 0
M  V30 9627 C 879.538 2.03192 6.52075 0
M  V30 9628 O 879.226 2.95996 7.47423 0
M  V30 9629 H 878.958 -0.0822192 0.670981 0
M  V30 9630 H 881.512 0.406199 2.01343 0
M  V30 9631 H 879.742 -1.68524 3.48047 0
M  V30 9632 H 881.431 -1.4182 3.80318 0
M  V30 9633 H 882.197 0.868637 4.77158 0
M  V30 9634 H 878.076 -0.345095 4.59707 0
M  V30 9635 H 881.62 2.5361 6.49867 0
M  V30 9636 H 877.517 1.31448 6.31974 0
M  V30 9637 H 878.285 2.90688 7.65142 0
M  V30 9638 N 880.948 -1.576 0.00335426 0
M  V30 9639 C 881.878 -2.11668 -0.985839 0
M  V30 9640 C 882.859 -1.02661 -1.35627 0
M  V30 9641 O 884.044 -1.30361 -1.43943 0
M  V30 9642 C 881.174 -2.62273 -2.27662 0
M  V30 9643 C 880.128 -3.75837 -2.0477 0
M  V30 9644 C 879.454 -4.12769 -3.39891 0
M  V30 9645 C 880.754 -5.02975 -1.40759 0
M  V30 9646 H 882.448 -2.9457 -0.535637 0
M  V30 9647 H 879.994 -1.41702 -0.256204 0
M  V30 9648 H 881.947 -2.98727 -2.97221 0
M  V30 9649 H 880.671 -1.76498 -2.74802 0
M  V30 9650 H 879.33 -3.39782 -1.37636 0
M  V30 9651 H 878.978 -3.24013 -3.8474 0
M  V30 9652 H 878.678 -4.89281 -3.25389 0
M  V30 9653 H 880.202 -4.51784 -4.1076 0
M  V30 9654 H 881.616 -5.37179 -2.00279 0
M  V30 9655 H 880.013 -5.84315 -1.36734 0
M  V30 9656 H 881.083 -4.83431 -0.377218 0
M  V30 9657 N 882.426 0.269451 -1.5528 0
M  V30 9658 C 883.336 1.35511 -1.91505 0
M  V30 9659 C 884.352 1.53854 -0.812712 0
M  V30 9660 O 885.528 1.67912 -1.1121 0
M  V30 9661 C 882.593 2.6937 -2.18267 0
M  V30 9662 C 881.654 2.59743 -3.41807 0
M  V30 9663 C 880.887 3.87219 -3.67283 0
M  V30 9664 O 881.11 4.88066 -2.95208 0
M  V30 9665 O 880.044 3.87209 -4.60818 0
M  V30 9666 H 883.87 1.07785 -2.8393 0
M  V30 9667 H 881.455 0.468282 -1.41871 0
M  V30 9668 H 883.337 3.48513 -2.36889 0
M  V30 9669 H 882.012 2.96874 -1.29024 0
M  V30 9670 H 880.919 1.78964 -3.28516 0
M  V30 9671 H 882.252 2.37188 -4.3128 0
M  V30 9672 N 883.904 1.48273 0.534124 0
M  V30 9673 C 884.834 1.6538 1.64839 0
M  V30 9674 C 885.815 0.502741 1.62501 0
M  V30 9675 O 887 0.734799 1.79762 0
M  V30 9676 C 884.13 1.68949 3.03436 0
M  V30 9677 C 883.084 2.83513 3.20631 0
M  V30 9678 C 882.41 2.72169 4.60248 0
M  V30 9679 C 883.71 4.24858 3.03797 0
M  V30 9680 H 885.404 2.58663 1.50777 0
M  V30 9681 H 882.95 1.24479 0.723937 0
M  V30 9682 H 884.903 1.79505 3.81256 0
M  V30 9683 H 883.627 0.722415 3.1851 0
M  V30 9684 H 882.286 2.72505 2.45227 0
M  V30 9685 H 881.934 1.7344 4.72152 0
M  V30 9686 H 881.634 3.49042 4.72698 0
M  V30 9687 H 883.158 2.84687 5.40172 0
M  V30 9688 H 884.572 4.36721 3.71413 0
M  V30 9689 H 882.969 5.02697 3.27743 0
M  V30 9690 H 884.039 4.41611 2.0027 0
M  V30 9691 N 885.382 -0.782676 1.36792 0
M  V30 9692 C 886.312 -1.90973 1.34356 0
M  V30 9693 C 887.293 -1.6875 0.213917 0
M  V30 9694 O 888.478 -1.89766 0.412601 0
M  V30 9695 C 885.608 -3.28097 1.13884 0
M  V30 9696 C 884.562 -3.6486 2.23744 0
M  V30 9697 C 883.888 -5.00406 1.88408 0
M  V30 9698 C 885.188 -3.72742 3.6587 0
M  V30 9699 H 886.882 -1.93268 2.28665 0
M  V30 9700 H 884.428 -0.928447 1.10072 0
M  V30 9701 H 886.381 -4.06569 1.10813 0
M  V30 9702 H 885.105 -3.26206 0.160275 0
M  V30 9703 H 883.764 -2.88689 2.25952 0
M  V30 9704 H 883.412 -4.95044 0.891083 0
M  V30 9705 H 883.112 -5.25973 2.61966 0
M  V30 9706 H 884.636 -5.81291 1.86905 0
M  V30 9707 H 886.05 -4.4139 3.65852 0
M  V30 9708 H 884.447 -4.09798 4.38389 0
M  V30 9709 H 885.517 -2.73676 4.00287 0
M  V30 9710 N 886.86 -1.21182 -1.00761 0
M  V30 9711 C 887.807 -0.968741 -2.09485 0
M  V30 9712 C 888.777 0.104325 -1.65772 0
M  V30 9713 O 889.962 -0.0422587 -1.90753 0
M  V30 9714 C 887.102 -0.536686 -3.40901 0
M  V30 9715 C 886.215 -1.6789 -3.98041 0
M  V30 9716 C 885.35 -1.19627 -5.17555 0
M  V30 9717 C 884.389 -2.31099 -5.66798 0
M  V30 9718 N 883.526 -1.83988 -6.77564 0
M  V30 9719 H 888.366 -1.89952 -2.29613 0
M  V30 9720 H 885.903 -0.946688 -1.12589 0
M  V30 9721 H 887.861 -0.26745 -4.16342 0
M  V30 9722 H 886.491 0.357092 -3.20819 0
M  V30 9723 H 885.543 -2.06284 -3.19611 0
M  V30 9724 H 886.855 -2.51794 -4.30582 0
M  V30 9725 H 886.009 -0.883539 -6.00232 0
M  V30 9726 H 884.748 -0.327244 -4.86601 0
M  V30 9727 H 883.753 -2.63178 -4.82719 0
M  V30 9728 H 884.978 -3.18493 -5.99782 0
M  V30 9729 H 882.924 -0.994257 -6.48422 0
M  V30 9730 H 882.841 -2.61466 -7.09346 0
M  V30 9731 H 884.109 -1.55741 -7.63783 0
M  V30 9732 N 888.338 1.20213 -1.01915 0
M  V30 9733 C 889.615 1.85348 -0.62495 0
M  V30 9734 C 889.995 1.91101 0.896854 0
M  V30 9735 O 889.343 1.42075 1.78961 0
M  V30 9736 C 889.553 3.24849 -1.27571 0
M  V30 9737 C 890.901 4.01107 -1.39277 0
M  V30 9738 O 891.925 3.34211 -1.23212 0
M  V30 9739 O 890.784 5.20914 -1.6526 0
M  V30 9740 H 887.878 0.798303 -0.215965 0
M  V30 9741 H 890.424 1.27782 -1.11669 0
M  V30 9742 H 889.196 3.1544 -2.31545 0
M  V30 9743 H 888.819 3.90049 -0.77122 0
M  V30 9744 N 889.816 0.795718 1.36037 0
M  V30 9745 C 891.041 0.38204 2.03851 0
M  V30 9746 C 891.466 -0.995553 1.59594 0
M  V30 9747 O 890.824 -1.64258 0.767401 0
M  V30 9748 C 890.872 0.461248 3.57638 0
M  V30 9749 O 889.976 -0.529448 4.08987 0
M  V30 9750 H 889.317 0.161227 0.644129 0
M  V30 9751 H 891.847 1.07858 1.73861 0
M  V30 9752 H 891.857 0.32712 4.06687 0
M  V30 9753 H 890.532 1.46613 3.89201 0
M  V30 9754 H 889.109 -0.35646 3.71192 0
M  V30 9755 N 891.294 -1.47756 0.548274 0
M  V30 9756 C 892.224 -2.32702 -0.19284 0
M  V30 9757 C 893.205 -1.43237 -0.917457 0
M  V30 9758 O 894.39 -1.72103 -0.89967 0
M  V30 9759 C 891.52 -3.24831 -1.22891 0
M  V30 9760 C 890.474 -4.23466 -0.621312 0
M  V30 9761 C 889.8 -5.04856 -1.76137 0
M  V30 9762 C 891.1 -5.20616 0.419055 0
M  V30 9763 H 892.794 -2.94914 0.516323 0
M  V30 9764 H 890.34 -1.41818 0.24975 0
M  V30 9765 H 892.293 -3.83094 -1.75547 0
M  V30 9766 H 891.017 -2.60656 -1.9679 0
M  V30 9767 H 889.676 -3.66416 -0.116123 0
M  V30 9768 H 889.324 -4.37091 -2.48918 0
M  V30 9769 H 889.024 -5.71629 -1.36065 0
M  V30 9770 H 890.548 -5.65976 -2.29136 0
M  V30 9771 H 891.962 -5.73296 -0.0211034 0
M  V30 9772 H 890.359 -5.95543 0.738163 0
M  V30 9773 H 891.429 -4.66638 1.31822 0
M  V30 9774 N 892.772 -0.284283 -1.55015 0
M  V30 9775 C 893.72 0.615091 -2.2432 0
M  V30 9776 C 894.714 1.15051 -1.24337 0
M  V30 9777 O 895.92 1.10308 -1.4224 0
M  V30 9778 H 892.295 0.216927 -0.720033 0
M  V30 9779 H 894.266 0.00783216 -2.98399 0
M  V30 9780 C 893.015 1.78355 -2.98471 0
M  V30 9781 H 892.338 1.38076 -3.752 0
M  V30 9782 H 893.778 2.38927 -3.50271 0
M  V30 9783 C 892.237 2.67757 -2.04469 0
M  V30 9784 O 892.767 3.6838 -1.60185 0
M  V30 9785 N 890.973 2.35125 -1.70776 0
M  V30 9786 H 890.52 1.53346 -2.06985 0
M  V30 9787 H 890.478 2.95212 -1.08153 0
M  V30 9788 N 894.251 1.57596 -0.0117121 0
M  V30 9789 C 895.161 2.12596 0.991964 0
M  V30 9790 C 896.177 1.07399 1.36899 0
M  V30 9791 O 897.353 1.39365 1.45394 0
M  V30 9792 C 894.418 2.62796 2.2614 0
M  V30 9793 C 893.479 3.8264 1.94642 0
M  V30 9794 C 892.712 4.30435 3.15533 0
M  V30 9795 O 892.935 3.77495 4.27614 0
M  V30 9796 O 891.869 5.22469 2.98847 0
M  V30 9797 H 895.695 2.98597 0.554371 0
M  V30 9798 H 893.28 1.47947 0.207839 0
M  V30 9799 H 895.162 2.9523 3.00695 0
M  V30 9800 H 893.837 1.79886 2.69114 0
M  V30 9801 H 892.744 3.5516 1.17526 0
M  V30 9802 H 894.077 4.66658 1.56496 0
M  V30 9803 N 895.729 -0.261212 1.5542 0
M  V30 9804 C 896.959 -1.00769 1.80358 0
M  V30 9805 C 897.367 -1.79991 0.583085 0
M  V30 9806 O 896.71 -1.77911 -0.457534 0
M  V30 9807 C 896.772 -2.00463 2.9842 0
M  V30 9808 C 896.436 -1.4007 4.35005 0
M  V30 9809 C 897.433 -0.810388 5.13545 0
M  V30 9810 C 895.118 -1.42436 4.81682 0
M  V30 9811 C 897.112 -0.251784 6.36903 0
M  V30 9812 C 894.799 -0.861897 6.04991 0
M  V30 9813 C 895.797 -0.276622 6.8244 0
M  V30 9814 O 895.485 0.277194 8.03422 0
M  V30 9815 H 895.217 -0.302839 0.604371 0
M  V30 9816 H 897.771 -0.293763 2.03288 0
M  V30 9817 H 896.001 -2.75648 2.71211 0
M  V30 9818 H 897.69 -2.61336 3.10577 0
M  V30 9819 H 898.456 -0.784719 4.7861 0
M  V30 9820 H 894.335 -1.8693 4.214 0
M  V30 9821 H 897.879 0.205678 6.97297 0
M  V30 9822 H 893.776 -0.884846 6.39407 0
M  V30 9823 H 894.544 0.167682 8.18328 0
M  V30 9824 N 897.207 -1.48554 -0.526253 0
M  V30 9825 C 898.17 -1.62868 -1.61266 0
M  V30 9826 C 899.17 -0.501762 -1.52771 0
M  V30 9827 O 900.36 -0.76764 -1.56374 0
M  V30 9828 C 897.492 -1.60238 -3.00893 0
M  V30 9829 H 898.685 -2.59742 -1.49913 0
M  V30 9830 H 896.238 -1.37207 -0.748595 0
M  V30 9831 H 896.973 -0.648545 -3.17749 0
M  V30 9832 H 896.758 -2.42054 -3.08468 0
M  V30 9833 H 898.248 -1.73455 -3.79872 0
M  V30 9834 N 898.685 0.775411 -1.37205 0
M  V30 9835 C 899.915 1.56219 -1.352 0
M  V30 9836 C 900.323 1.89087 0.065456 0
M  V30 9837 O 899.666 1.51655 1.03665 0
M  V30 9838 C 899.728 2.9019 -2.12203 0
M  V30 9839 C 899.392 2.79978 -3.61195 0
M  V30 9840 C 900.389 2.51258 -4.55154 0
M  V30 9841 C 898.074 2.98115 -4.04268 0
M  V30 9842 C 900.068 2.40798 -5.90165 0
M  V30 9843 C 897.755 2.87276 -5.39366 0
M  V30 9844 C 898.753 2.58657 -6.32128 0
M  V30 9845 O 898.441 2.47838 -7.64743 0
M  V30 9846 H 898.173 0.490735 -0.464925 0
M  V30 9847 H 900.727 0.969201 -1.81096 0
M  V30 9848 H 898.957 3.51594 -1.60992 0
M  V30 9849 H 900.646 3.51561 -2.02879 0
M  V30 9850 H 901.412 2.36935 -4.23186 0
M  V30 9851 H 897.291 3.19392 -3.3243 0
M  V30 9852 H 900.835 2.18381 -6.62537 0
M  V30 9853 H 896.732 3.01166 -5.70937 0
M  V30 9854 H 897.5 2.63215 -7.75023 0
M  V30 9855 N 900.163 1.21714 1.00117 0
M  V30 9856 C 901.126 0.981338 2.07129 0
M  V30 9857 C 902.126 -0.0491116 1.60725 0
M  V30 9858 O 903.316 0.188555 1.73177 0
M  V30 9859 C 900.448 0.480608 3.37495 0
M  V30 9860 H 901.641 1.93075 2.29482 0
M  V30 9861 H 899.194 1.03467 1.17151 0
M  V30 9862 H 899.929 -0.473552 3.20824 0
M  V30 9863 H 899.714 1.22393 3.72508 0
M  V30 9864 H 901.204 0.33561 4.16249 0
M  V30 9865 N 901.641 -1.19671 1.02551 0
M  V30 9866 C 902.604 -2.20987 0.608055 0
M  V30 9867 C 903.604 -1.5745 -0.326534 0
M  V30 9868 O 904.794 -1.73827 -0.114003 0
M  V30 9869 C 901.926 -3.4072 -0.11074 0
M  V30 9870 H 903.119 -2.59434 1.50446 0
M  V30 9871 H 900.672 -1.3329 0.816307 0
M  V30 9872 H 901.407 -3.07787 -1.02165 0
M  V30 9873 H 901.192 -3.88069 0.560772 0
M  V30 9874 H 902.682 -4.15776 -0.389848 0
M  V30 9875 N 903.119 -0.802921 -1.35613 0
M  V30 9876 C 904.029 -0.212177 -2.33639 0
M  V30 9877 C 905.045 0.642871 -1.61689 0
M  V30 9878 O 906.221 0.555485 -1.93588 0
M  V30 9879 C 903.286 0.632406 -3.40883 0
M  V30 9880 C 902.347 -0.242708 -4.28613 0
M  V30 9881 C 901.58 0.56166 -5.30736 0
M  V30 9882 O 901.803 1.79664 -5.41366 0
M  V30 9883 O 900.737 -0.0455387 -6.01883 0
M  V30 9884 H 904.563 -1.023 -2.85952 0
M  V30 9885 H 902.148 -0.564636 -1.38319 0
M  V30 9886 H 904.03 1.11358 -4.0642 0
M  V30 9887 H 902.705 1.42089 -2.90848 0
M  V30 9888 H 901.612 -0.77094 -3.6607 0
M  V30 9889 H 902.945 -0.995046 -4.82037 0
M  V30 9890 N 904.597 1.47463 -0.556102 0
M  V30 9891 C 905.527 2.32801 0.180497 0
M  V30 9892 C 906.508 1.43721 0.909848 0
M  V30 9893 O 907.693 1.72578 0.89053 0
M  V30 9894 C 904.823 3.25478 1.21167 0
M  V30 9895 C 903.777 4.2379 0.598846 0
M  V30 9896 C 903.103 5.05783 1.73457 0
M  V30 9897 C 904.403 5.20387 -0.446659 0
M  V30 9898 H 906.097 2.94636 -0.531956 0
M  V30 9899 H 903.643 1.41683 -0.257267 0
M  V30 9900 H 905.596 3.8402 1.73513 0
M  V30 9901 H 904.32 2.61695 1.95405 0
M  V30 9902 H 902.979 3.66472 0.0966897 0
M  V30 9903 H 902.627 4.38405 2.46596 0
M  V30 9904 H 902.327 5.72343 1.33031 0
M  V30 9905 H 903.851 5.67183 2.26131 0
M  V30 9906 H 905.265 5.73299 -0.00930019 0
M  V30 9907 H 903.662 5.95143 -0.769735 0
M  V30 9908 H 904.732 4.65932 -1.34295 0
M  V30 9909 N 906.075 0.2925 1.54862 0
M  V30 9910 C 907.038 -0.574423 2.21885 0
M  V30 9911 C 908.038 -1.06791 1.20218 0
M  V30 9912 O 909.228 -0.9653 1.45009 0
M  V30 9913 C 906.36 -1.79438 2.89853 0
M  V30 9914 H 907.553 0.0110319 2.99898 0
M  V30 9915 H 905.106 0.043256 1.5624 0
M  V30 9916 H 905.841 -2.4199 2.15897 0
M  V30 9917 H 905.626 -1.44827 3.64373 0
M  V30 9918 H 907.116 -2.41048 3.41007 0
M  V30 9919 N 907.553 -1.57587 0.0200696 0
M  V30 9920 C 908.801 -1.91046 -0.65922 0
M  V30 9921 C 909.122 -0.896197 -1.73186 0
M  V30 9922 O 908.392 0.0635952 -1.95797 0
M  V30 9923 H 906.972 -0.705163 -0.246483 0
M  V30 9924 H 909.634 -1.94789 0.0657368 0
M  V30 9925 H 908.73 -2.91399 -1.11773 0
M  V30 9926 N 909.032 0.252966 -1.55557 0
M  V30 9927 C 909.962 1.31691 -1.9282 0
M  V30 9928 C 910.943 1.50516 -0.7924 0
M  V30 9929 O 912.128 1.63225 -1.05219 0
M  V30 9930 C 909.258 2.67281 -2.21762 0
M  V30 9931 C 908.212 2.6316 -3.37536 0
M  V30 9932 C 907.538 4.02488 -3.52005 0
M  V30 9933 C 908.838 2.20675 -4.73392 0
M  V30 9934 H 910.532 1.00751 -2.81939 0
M  V30 9935 H 908.078 0.483219 -1.3565 0
M  V30 9936 H 910.031 3.41842 -2.46419 0
M  V30 9937 H 908.755 2.99845 -1.29463 0
M  V30 9938 H 907.414 1.91057 -3.12878 0
M  V30 9939 H 907.062 4.32307 -2.57137 0
M  V30 9940 H 906.762 4.00621 -4.29857 0
M  V30 9941 H 908.286 4.78758 -3.78977 0
M  V30 9942 H 909.7 2.84965 -4.97461 0
M  V30 9943 H 908.097 2.29931 -5.54303 0
M  V30 9944 H 909.167 1.15831 -4.70862 0
M  V30 9945 N 910.51 1.48831 0.518367 0
M  V30 9946 C 911.735 1.61379 1.30275 0
M  V30 9947 C 912.16 0.278571 1.86026 0
M  V30 9948 O 911.518 -0.751427 1.64995 0
M  V30 9949 C 911.566 2.67225 2.42122 0
M  V30 9950 O 910.67 2.25192 3.45489 0
M  V30 9951 H 910.011 0.540742 0.385349 0
M  V30 9952 H 912.541 1.949 0.622498 0
M  V30 9953 H 912.551 2.88859 2.8814 0
M  V30 9954 H 911.226 3.64155 2.00907 0
M  V30 9955 H 909.803 2.13819 3.05509 0
M  V30 9956 N 911.988 -0.768124 1.37614 0
M  V30 9957 C 913.218 -1.555 1.36027 0
M  V30 9958 C 913.626 -1.89119 -0.0554273 0
M  V30 9959 O 912.969 -1.52203 -1.02859 0
M  V30 9960 C 913.031 -2.8906 2.13739 0
M  V30 9961 C 912.695 -2.78058 3.62674 0
M  V30 9962 C 913.692 -2.48841 4.5648 0
M  V30 9963 C 911.377 -2.95966 4.05844 0
M  V30 9964 C 913.371 -2.37665 5.91434 0
M  V30 9965 C 911.058 -2.84411 5.40882 0
M  V30 9966 C 912.056 -2.55301 6.33491 0
M  V30 9967 O 911.744 -2.43779 7.66046 0
M  V30 9968 H 911.476 -0.488263 0.467521 0
M  V30 9969 H 914.03 -0.959583 1.81607 0
M  V30 9970 H 912.26 -3.50735 1.62854 0
M  V30 9971 H 913.949 -3.5048 2.04741 0
M  V30 9972 H 914.715 -2.34687 4.24437 0
M  V30 9973 H 910.594 -3.17625 3.34119 0
M  V30 9974 H 914.138 -2.14865 6.63686 0
M  V30 9975 H 910.035 -2.98134 5.72527 0
M  V30 9976 H 910.803 -2.59101 7.76408 0
M  V30 9977 N 913.466 -1.22244 -0.994698 0
M  V30 9978 C 914.743 -0.954459 -1.70732 0
M  V30 9979 C 915.123 0.530945 -2.04314 0
M  V30 9980 O 914.471 1.49851 -1.72502 0
M  V30 9981 C 914.681 -1.85016 -2.95922 0
M  V30 9982 C 916.029 -2.10517 -3.68738 0
M  V30 9983 O 917.053 -1.82449 -3.05926 0
M  V30 9984 O 915.912 -2.58044 -4.81742 0
M  V30 9985 H 913.006 -0.35879 -0.745116 0
M  V30 9986 H 915.552 -1.33221 -1.0512 0
M  V30 9987 H 914.324 -2.85498 -2.67594 0
M  V30 9988 H 913.947 -1.47388 -3.69273 0
M  V30 9989 N 914.944 1.19125 -1.03184 0
M  V30 9990 C 915.874 2.24675 -0.635889 0
M  V30 9991 C 916.855 1.66321 0.356565 0
M  V30 9992 O 918.04 1.92728 0.238625 0
M  V30 9993 C 915.17 3.47298 0.011069 0
M  V30 9994 C 914.124 4.18345 -0.903979 0
M  V30 9995 C 913.45 5.34561 -0.12197 0
M  V30 9996 C 914.75 4.72816 -2.21907 0
M  V30 9997 H 916.444 2.5805 -1.51825 0
M  V30 9998 H 913.99 1.24039 -0.73146 0
M  V30 9999 H 915.943 4.20333 0.299729 0
M  V30 10000 H 914.667 3.13131 0.928245 0
M  V30 10001 H 913.326 3.47196 -1.17688 0
M  V30 10002 H 912.974 4.9664 0.797334 0
M  V30 10003 H 912.674 5.83029 -0.731498 0
M  V30 10004 H 914.198 6.10391 0.159881 0
M  V30 10005 H 915.612 5.3759 -1.99173 0
M  V30 10006 H 914.009 5.31782 -2.78078 0
M  V30 10007 H 915.079 3.9072 -2.87168 0
M  V30 10008 N 916.422 0.810101 1.35185 0
M  V30 10009 C 917.354 0.180581 2.28488 0
M  V30 10010 C 918.367 -0.622154 1.50443 0
M  V30 10011 O 919.556 -0.453938 1.72632 0
M  V30 10012 C 916.656 -0.766447 3.30119 0
M  V30 10013 C 915.829 -0.00932028 4.37399 0
M  V30 10014 C 914.888 -0.875354 5.18868 0
M  V30 10015 O 913.914 -0.325012 5.68271 0
M  V30 10016 N 915.116 -2.19695 5.37321 0
M  V30 10017 H 917.881 0.98212 2.83151 0
M  V30 10018 H 915.442 0.665879 1.47573 0
M  V30 10019 H 917.434 -1.35012 3.81515 0
M  V30 10020 H 916.004 -1.46878 2.75945 0
M  V30 10021 H 915.224 0.755585 3.86891 0
M  V30 10022 H 916.512 0.512352 5.06214 0
M  V30 10023 H 915.91 -2.66797 4.98834 0
M  V30 10024 H 914.467 -2.72978 5.91884 0
M  V30 10025 N 917.9 -1.47166 0.563914 0
M  V30 10026 C 918.848 -2.31798 -0.193009 0
M  V30 10027 C 919.842 -1.43338 -0.902805 0
M  V30 10028 O 921.048 -1.60067 -0.823328 0
M  V30 10029 H 917.423 -0.747613 -0.0811139 0
M  V30 10030 H 919.394 -2.93476 0.539876 0
M  V30 10031 C 918.143 -3.26131 -1.20555 0
M  V30 10032 H 917.466 -3.94166 -0.668803 0
M  V30 10033 H 918.906 -3.88167 -1.70593 0
M  V30 10034 C 917.365 -2.50132 -2.25689 0
M  V30 10035 O 917.895 -2.25064 -3.3273 0
M  V30 10036 N 916.101 -2.11022 -1.99795 0
M  V30 10037 H 915.648 -2.3161 -1.1276 0
M  V30 10038 H 915.606 -1.60489 -2.70353 0
M  V30 10039 N 919.378 -0.300708 -1.54705 0
M  V30 10040 C 920.606 0.31127 -2.04545 0
M  V30 10041 C 921.021 1.47542 -1.178 0
M  V30 10042 O 920.378 1.81361 -0.203571 0
M  V30 10043 C 920.429 0.767783 -3.53253 0
M  V30 10044 O 920.15 -0.350027 -4.36699 0
M  V30 10045 C 921.651 1.44494 -4.1909 0
M  V30 10046 H 918.871 0.067668 -0.667579 0
M  V30 10047 H 921.415 -0.440254 -1.99705 0
M  V30 10048 H 919.57 1.46933 -3.58454 0
M  V30 10049 H 919.984 0.00534038 -5.245 0
M  V30 10050 H 921.458 1.71553 -5.24665 0
M  V30 10051 H 921.935 2.3849 -3.68808 0
M  V30 10052 H 922.541 0.786581 -4.17963 0
M  V30 10053 N 920.856 1.57574 -0.0284266 0
M  V30 10054 C 922.105 1.9095 0.649704 0
M  V30 10055 C 922.418 0.906421 1.7333 0
M  V30 10056 O 923.624 1.1314 2.46803 0
M  V30 10057 C 922.08 3.39061 1.20687 0
M  V30 10058 C 921.688 4.47726 0.156597 0
M  V30 10059 C 923.432 3.81505 1.86156 0
M  V30 10060 C 921.339 5.86935 0.725365 0
M  V30 10061 H 920.269 0.712589 0.24644 0
M  V30 10062 H 922.92 1.83261 -0.0936143 0
M  V30 10063 H 921.302 3.41679 2.00178 0
M  V30 10064 H 922.476 4.56667 -0.6158 0
M  V30 10065 H 920.791 4.14481 -0.399288 0
M  V30 10066 H 923.388 4.82865 2.29665 0
M  V30 10067 H 923.731 3.16529 2.70398 0
M  V30 10068 H 924.264 3.81307 1.13356 0
M  V30 10069 H 921.003 6.55453 -0.0789081 0
M  V30 10070 H 920.523 5.81602 1.46627 0
M  V30 10071 H 922.202 6.35483 1.21532 0
M  V30 10072 N 922.334 -0.244713 1.55689 0
M  V30 10073 C 923.564 -0.988508 1.81417 0
M  V30 10074 C 923.972 -1.79362 0.602143 0
M  V30 10075 O 923.315 -1.78386 -0.438639 0
M  V30 10076 C 923.377 -1.97287 3.0053 0
M  V30 10077 C 923.041 -1.35448 4.36466 0
M  V30 10078 C 924.038 -0.755874 5.14376 0
M  V30 10079 C 921.723 -1.37319 4.83165 0
M  V30 10080 C 923.717 -0.184218 6.37134 0
M  V30 10081 C 921.404 -0.797681 6.05871 0
M  V30 10082 C 922.402 -0.204224 6.82695 0
M  V30 10083 O 922.09 0.362392 8.03083 0
M  V30 10084 H 921.822 -0.296412 0.607549 0
M  V30 10085 H 924.376 -0.272185 2.03589 0
M  V30 10086 H 922.606 -2.72756 2.74119 0
M  V30 10087 H 924.295 -2.58028 3.13331 0
M  V30 10088 H 925.061 -0.733912 4.79415 0
M  V30 10089 H 920.94 -1.8245 4.23359 0
M  V30 10090 H 924.484 0.279624 6.97039 0
M  V30 10091 H 920.381 -0.816978 6.40309 0
M  V30 10092 H 921.149 0.254467 8.18104 0
M  V30 10093 N 923.813 -1.49104 -0.510467 0
M  V30 10094 C 925.061 -1.578 -1.26268 0
M  V30 10095 C 925.382 -0.262349 -1.93227 0
M  V30 10096 O 924.652 0.717624 -1.82283 0
M  V30 10097 H 923.232 -0.581387 -0.46904 0
M  V30 10098 H 925.894 -1.85678 -0.592423 0
M  V30 10099 H 924.99 -2.36919 -2.03165 0
M  V30 10100 N 925.291 0.760815 -1.38019 0
M  V30 10101 C 926.224 1.88212 -1.2904 0
M  V30 10102 C 927.202 1.61721 -0.168805 0
M  V30 10103 O 928.386 1.85318 -0.344893 0
M  V30 10104 C 925.513 3.23672 -0.997702 0
M  V30 10105 C 924.559 3.6906 -2.13769 0
M  V30 10106 S 925.392 3.81445 -3.75845 0
M  V30 10107 C 926.548 5.19736 -3.48748 0
M  V30 10108 H 926.781 1.95541 -2.23944 0
M  V30 10109 H 924.314 0.923051 -1.2377 0
M  V30 10110 H 926.272 4.01904 -0.835657 0
M  V30 10111 H 924.933 3.14031 -0.065967 0
M  V30 10112 H 924.126 4.67295 -1.88816 0
M  V30 10113 H 923.728 2.97961 -2.26043 0
M  V30 10114 H 926.02 6.05259 -3.04414 0
M  V30 10115 H 926.963 5.49706 -4.46351 0
M  V30 10116 H 927.371 4.88191 -2.83425 0
M  V30 10117 N 926.769 1.22769 0.988202 0
M  V30 10118 C 927.999 1.07998 1.76125 0
M  V30 10119 C 928.407 -0.372062 1.85506 0
M  V30 10120 O 927.75 -1.26946 1.3278 0
M  V30 10121 C 927.812 1.6219 3.20834 0
M  V30 10122 C 927.476 3.1086 3.34986 0
M  V30 10123 C 928.473 4.08239 3.21927 0
M  V30 10124 C 926.158 3.50411 3.59886 0
M  V30 10125 C 928.152 5.43154 3.33561 0
M  V30 10126 C 925.839 4.85473 3.71159 0
M  V30 10127 C 926.837 5.81653 3.58006 0
M  V30 10128 O 926.525 7.14263 3.68895 0
M  V30 10129 H 926.257 0.378937 0.559806 0
M  V30 10130 H 928.811 1.62925 1.25078 0
M  V30 10131 H 927.041 1.01676 3.73094 0
M  V30 10132 H 928.73 1.43011 3.79872 0
M  V30 10133 H 929.496 3.79025 3.02597 0
M  V30 10134 H 925.375 2.76068 3.69198 0
M  V30 10135 H 928.919 6.18207 3.23211 0
M  V30 10136 H 924.816 5.14365 3.89998 0
M  V30 10137 H 925.584 7.21906 3.85739 0
M  V30 10138 N 928.247 -1.18576 1.03814 0
M  V30 10139 C 929.177 -2.24334 0.647795 0
M  V30 10140 C 930.158 -1.66508 -0.34774 0
M  V30 10141 O 931.343 -1.92852 -0.228401 0
M  V30 10142 C 928.473 -3.47299 0.00734922 0
M  V30 10143 C 927.427 -4.17859 0.926152 0
M  V30 10144 C 926.753 -5.34489 0.150317 0
M  V30 10145 C 928.053 -4.71632 2.24411 0
M  V30 10146 H 929.747 -2.57241 1.53191 0
M  V30 10147 H 927.293 -1.23649 0.738028 0
M  V30 10148 H 929.246 -4.20486 -0.277434 0
M  V30 10149 H 927.97 -3.13619 -0.911626 0
M  V30 10150 H 926.629 -3.46567 1.19528 0
M  V30 10151 H 926.277 -4.97056 -0.770985 0
M  V30 10152 H 925.977 -5.82633 0.762407 0
M  V30 10153 H 927.501 -6.10467 -0.127508 0
M  V30 10154 H 928.915 -5.36526 2.02021 0
M  V30 10155 H 927.312 -5.303 2.80894 0
M  V30 10156 H 928.382 -3.89192 2.89236 0
M  V30 10157 N 929.725 -0.817259 -1.34754 0
M  V30 10158 C 930.95 -0.414423 -2.03217 0
M  V30 10159 C 931.375 0.970037 -1.61158 0
M  V30 10160 O 930.733 1.63016 -0.793436 0
M  V30 10161 C 930.781 -0.518087 -3.56859 0
M  V30 10162 O 929.885 0.464314 -4.09778 0
M  V30 10163 H 929.226 -0.171454 -0.641482 0
M  V30 10164 H 931.756 -1.10611 -1.72123 0
M  V30 10165 H 931.766 -0.391779 -4.06115 0
M  V30 10166 H 930.441 -1.52786 -3.86819 0
M  V30 10167 H 929.018 0.297361 -3.71712 0
M  V30 10168 N 931.203 1.46865 -0.571711 0
M  V30 10169 C 932.449 2.0273 -0.0531858 0
M  V30 10170 C 932.782 1.44353 1.29907 0
M  V30 10171 O 932.057 0.604488 1.84868 0
M  V30 10172 C 932.34 3.60092 0.0243831 0
M  V30 10173 C 932.193 4.28874 -1.35599 0
M  V30 10174 C 933.512 4.33994 0.730563 0
M  V30 10175 H 930.631 0.736706 -0.0208018 0
M  V30 10176 H 933.273 1.75132 -0.736794 0
M  V30 10177 H 931.423 3.83736 0.606565 0
M  V30 10178 H 933.095 4.16527 -1.98249 0
M  V30 10179 H 931.338 3.88664 -1.92674 0
M  V30 10180 H 932.009 5.37561 -1.25429 0
M  V30 10181 H 934.485 4.1543 0.236098 0
M  V30 10182 H 933.361 5.43699 0.753836 0
M  V30 10183 H 933.622 4.04257 1.78967 0
M  V30 10184 N 932.681 0.308908 1.54543 0
M  V30 10185 C 933.628 -0.563659 2.23811 0
M  V30 10186 C 934.598 -1.12332 1.22355 0
M  V30 10187 O 935.783 -1.16638 1.50997 0
M  V30 10188 C 932.923 -1.72585 2.98845 0
M  V30 10189 C 932.036 -1.19682 4.1509 0
M  V30 10190 C 931.171 -2.32351 4.77688 0
M  V30 10191 C 930.21 -1.76623 5.86064 0
M  V30 10192 N 929.347 -2.82896 6.42584 0
M  V30 10193 H 934.187 0.0336288 2.97981 0
M  V30 10194 H 931.724 0.0283666 1.47073 0
M  V30 10195 H 933.682 -2.40951 3.40586 0
M  V30 10196 H 932.312 -2.29464 2.27037 0
M  V30 10197 H 931.364 -0.405173 3.78236 0
M  V30 10198 H 932.676 -0.748923 4.93146 0
M  V30 10199 H 931.83 -3.0865 5.22322 0
M  V30 10200 H 930.569 -2.80472 3.98982 0
M  V30 10201 H 929.574 -0.988171 5.40847 0
M  V30 10202 H 930.799 -1.29398 6.66658 0
M  V30 10203 H 928.745 -3.30336 5.66758 0
M  V30 10204 H 928.662 -2.42626 7.16009 0
M  V30 10205 H 929.93 -3.59068 6.91875 0
M  V30 10206 N 934.159 -1.57557 0.0367827 0
M  V30 10207 C 935.407 -1.91735 -0.63892 0
M  V30 10208 C 935.728 -0.914515 -1.72226 0
M  V30 10209 O 934.998 0.0428248 -1.95853 0
M  V30 10210 H 933.578 -0.707738 -0.23899 0
M  V30 10211 H 936.24 -1.94708 0.0863931 0
M  V30 10212 H 935.336 -2.92568 -1.08676 0
M  V30 10213 N 935.637 0.236453 -1.55816 0
M  V30 10214 C 936.867 0.978873 -1.81939 0
M  V30 10215 C 937.275 1.79041 -0.611647 0
M  V30 10216 O 936.618 1.78616 0.429172 0
M  V30 10217 C 936.68 1.9569 -3.01572 0
M  V30 10218 C 936.344 1.33131 -4.37178 0
M  V30 10219 C 937.341 0.728585 -5.1477 0
M  V30 10220 C 935.026 1.34755 -4.83887 0
M  V30 10221 C 937.02 0.150427 -6.37222 0
M  V30 10222 C 934.707 0.765539 -6.06286 0
M  V30 10223 C 935.705 0.168017 -6.82793 0
M  V30 10224 O 935.393 -0.404976 -8.02879 0
M  V30 10225 H 935.125 0.293186 -0.609113 0
M  V30 10226 H 937.679 0.261384 -2.0373 0
M  V30 10227 H 935.909 2.71298 -2.75562 0
M  V30 10228 H 937.598 2.56362 -3.14695 0
M  V30 10229 H 938.364 0.708477 -4.79797 0
M  V30 10230 H 934.243 1.80202 -4.24321 0
M  V30 10231 H 937.787 -0.316586 -6.96881 0
M  V30 10232 H 933.684 0.78301 -6.40733 0
M  V30 10233 H 934.452 -0.29785 -8.17958 0
M  V30 10234 N 937.115 1.49373 0.502552 0
M  V30 10235 C 938.063 1.66411 1.62512 0
M  V30 10236 C 939.057 0.530062 1.60893 0
M  V30 10237 O 940.263 0.709648 1.65421 0
M  V30 10238 H 936.638 0.524707 0.538689 0
M  V30 10239 H 938.609 2.60639 1.45293 0
M  V30 10240 C 937.358 1.74648 3.00655 0
M  V30 10241 H 936.681 2.61285 3.02606 0
M  V30 10242 H 938.121 1.90605 3.78742 0
M  V30 10243 C 936.58 0.490963 3.33303 0
M  V30 10244 O 937.11 -0.384039 3.9986 0
M  V30 10245 N 935.316 0.354375 2.88431 0
M  V30 10246 H 934.863 1.06742 2.34444 0
M  V30 10247 H 934.821 -0.484593 3.10643 0
M  V30 10248 N 938.594 -0.753485 1.38421 0
M  V30 10249 C 939.871 -1.50318 1.25155 0
M  V30 10250 C 940.251 -2.10588 -0.147003 0
M  V30 10251 O 939.599 -1.97071 -1.15651 0
M  V30 10252 C 939.809 -2.56946 2.36177 0
M  V30 10253 C 941.157 -3.23846 2.74607 0
M  V30 10254 O 942.181 -2.67251 2.3549 0
M  V30 10255 O 941.04 -4.2621 3.42064 0
M  V30 10256 H 938.134 -0.666624 0.48943 0
M  V30 10257 H 940.68 -0.788887 1.50249 0
M  V30 10258 H 939.452 -2.1066 3.29754 0
M  V30 10259 H 939.075 -3.35956 2.12648 0
M  V30 10260 N 940.072 -1.23292 -0.981677 0
M  V30 10261 C 941.019 -1.01296 -2.07383 0
M  V30 10262 C 941.989 0.069139 -1.65956 0
M  V30 10263 O 943.174 -0.0827108 -1.90621 0
M  V30 10264 C 940.314 -0.608876 -3.39686 0
M  V30 10265 C 939.427 -1.76296 -3.9439 0
M  V30 10266 C 938.562 -1.30578 -5.14901 0
M  V30 10267 C 937.601 -2.4307 -5.61768 0
M  V30 10268 N 936.738 -1.98319 -6.73509 0
M  V30 10269 H 941.578 -1.9478 -2.25532 0
M  V30 10270 H 939.115 -0.970356 -1.10555 0
M  V30 10271 H 941.073 -0.355702 -4.15681 0
M  V30 10272 H 939.703 0.288961 -3.21504 0
M  V30 10273 H 938.755 -2.13017 -3.15163 0
M  V30 10274 H 940.067 -2.60871 -4.25145 0
M  V30 10275 H 939.221 -1.01066 -5.98223 0
M  V30 10276 H 937.96 -0.430386 -4.85797 0
M  V30 10277 H 936.965 -2.73358 -4.77028 0
M  V30 10278 H 938.19 -3.31144 -5.92892 0
M  V30 10279 H 936.136 -1.13157 -6.46167 0
M  V30 10280 H 936.053 -2.76454 -7.0364 0
M  V30 10281 H 937.321 -1.71907 -7.60308 0
M  V30 10282 N 941.55 1.18024 -1.04442 0
M  V30 10283 C 942.482 2.21294 -0.596799 0
M  V30 10284 C 943.495 1.59305 0.33552 0
M  V30 10285 O 944.684 1.7803 0.129443 0
M  V30 10286 C 941.784 3.38578 0.147648 0
M  V30 10287 C 940.957 4.30143 -0.793484 0
M  V30 10288 C 940.016 5.2612 -0.0916561 0
M  V30 10289 O 939.042 5.64586 -0.72331 0
M  V30 10290 N 940.244 5.68512 1.17364 0
M  V30 10291 H 943.009 2.6032 -1.48504 0
M  V30 10292 H 940.57 1.32847 -0.925374 0
M  V30 10293 H 942.562 3.99812 0.627098 0
M  V30 10294 H 941.132 2.98212 0.937466 0
M  V30 10295 H 940.352 3.66456 -1.45272 0
M  V30 10296 H 941.64 4.88216 -1.43258 0
M  V30 10297 H 941.038 5.39322 1.70729 0
M  V30 10298 H 939.595 6.31925 1.5973 0
M  V30 10299 N 943.028 0.824394 1.34319 0
M  V30 10300 C 944.439 0.471802 1.8064 0
M  V30 10301 C 944.79 -1.00793 1.6833 0
M  V30 10302 O 943.915 -1.78447 1.22416 0
M  V30 10303 C 944.51 0.849609 3.27974 0
M  V30 10304 C 943.069 0.549365 3.72369 0
M  V30 10305 C 942.216 1.06573 2.56003 0
M  V30 10306 H 945.167 1.01443 1.22045 0
M  V30 10307 H 945.188 0.153968 3.80188 0
M  V30 10308 H 944.7 1.92663 3.36902 0
M  V30 10309 H 942.801 -0.518182 3.68979 0
M  V30 10310 H 942.914 1.09446 4.66432 0
M  V30 10311 H 941.278 0.487214 2.49997 0
M  V30 10312 H 942.061 2.14923 2.677 0
M  V30 10313 N 944.506 -1.46559 0.579492 0
M  V30 10314 C 945.755 -2.01606 0.0615735 0
M  V30 10315 C 946.068 -1.45695 -1.30508 0
M  V30 10316 O 947.274 -1.92541 -1.91416 0
M  V30 10317 C 945.73 -3.59851 0.059496 0
M  V30 10318 C 945.338 -4.24757 1.42427 0
M  V30 10319 C 947.082 -4.22567 -0.404646 0
M  V30 10320 C 944.989 -5.75072 1.38009 0
M  V30 10321 H 943.919 -0.753754 0.0192491 0
M  V30 10322 H 946.57 -1.68326 0.73066 0
M  V30 10323 H 944.952 -3.90193 -0.675691 0
M  V30 10324 H 946.126 -4.06029 2.17893 0
M  V30 10325 H 944.441 -3.74121 1.82817 0
M  V30 10326 H 947.038 -5.32748 -0.456441 0
M  V30 10327 H 947.381 -3.91279 -1.42149 0
M  V30 10328 H 947.914 -3.96839 0.276376 0
M  V30 10329 H 944.653 -6.11014 2.37364 0
M  V30 10330 H 944.173 -5.96073 0.667583 0
M  V30 10331 H 945.852 -6.37724 1.09163 0
M  V30 10332 N 945.984 -0.3171 -1.54377 0
M  V30 10333 C 946.914 0.544623 -2.2706 0
M  V30 10334 C 947.895 1.12469 -1.27611 0
M  V30 10335 O 949.08 1.15103 -1.56413 0
M  V30 10336 C 946.21 1.70879 -3.02353 0
M  V30 10337 C 945.164 1.25833 -4.09084 0
M  V30 10338 C 944.49 2.50894 -4.72182 0
M  V30 10339 C 945.79 0.377876 -5.20931 0
M  V30 10340 H 947.484 -0.0616372 -2.99337 0
M  V30 10341 H 945.03 -0.0310848 -1.43966 0
M  V30 10342 H 946.983 2.31787 -3.51927 0
M  V30 10343 H 945.707 2.34155 -2.27682 0
M  V30 10344 H 944.366 0.672228 -3.60384 0
M  V30 10345 H 944.014 3.12518 -3.94134 0
M  V30 10346 H 943.714 2.21447 -5.44275 0
M  V30 10347 H 945.238 3.12575 -5.24528 0
M  V30 10348 H 946.652 0.893056 -5.66302 0
M  V30 10349 H 945.049 0.176474 -5.9984 0
M  V30 10350 H 946.119 -0.592943 -4.81261 0
M  V30 10351 N 947.462 1.57535 -0.0451378 0
M  V30 10352 C 948.392 2.14208 0.929372 0
M  V30 10353 C 949.373 1.06221 1.32858 0
M  V30 10354 O 950.558 1.34132 1.40436 0
M  V30 10355 C 947.688 2.68217 2.20629 0
M  V30 10356 C 946.642 3.81134 1.94734 0
M  V30 10357 C 945.968 4.21636 3.28828 0
M  V30 10358 C 947.268 5.06531 1.27374 0
M  V30 10359 H 948.962 2.95886 0.457348 0
M  V30 10360 H 946.508 1.42332 0.218544 0
M  V30 10361 H 948.461 3.06502 2.89196 0
M  V30 10362 H 947.185 1.83722 2.70026 0
M  V30 10363 H 945.844 3.43312 1.28579 0
M  V30 10364 H 945.492 3.34099 3.76014 0
M  V30 10365 H 945.192 4.97736 3.12302 0
M  V30 10366 H 946.716 4.62516 3.98637 0
M  V30 10367 H 948.13 5.423 1.85967 0
M  V30 10368 H 946.527 5.87735 1.21194 0
M  V30 10369 H 947.597 4.84261 0.248913 0
M  V30 10370 N 948.94 -0.228186 1.55939 0
M  V30 10371 C 949.887 -1.28274 1.91871 0
M  V30 10372 C 950.857 -1.46906 0.775103 0
M  V30 10373 O 952.042 -1.60583 1.03042 0
M  V30 10374 C 949.182 -2.62945 2.23504 0
M  V30 10375 C 948.295 -2.52166 3.50766 0
M  V30 10376 C 947.43 -3.79316 3.71878 0
M  V30 10377 C 946.469 -3.63231 4.92676 0
M  V30 10378 N 945.606 -4.82315 5.10212 0
M  V30 10379 H 950.446 -0.96931 2.81795 0
M  V30 10380 H 947.983 -0.467331 1.39479 0
M  V30 10381 H 949.941 -3.41359 2.39854 0
M  V30 10382 H 948.571 -2.92397 1.36762 0
M  V30 10383 H 947.623 -1.65221 3.42646 0
M  V30 10384 H 948.935 -2.36199 4.39331 0
M  V30 10385 H 948.089 -4.66173 3.88288 0
M  V30 10386 H 946.828 -3.982 2.81581 0
M  V30 10387 H 945.833 -2.74757 4.76223 0
M  V30 10388 H 947.058 -3.45823 5.84451 0
M  V30 10389 H 945.004 -5.01526 4.22856 0
M  V30 10390 H 944.921 -4.6905 5.92898 0
M  V30 10391 H 946.189 -5.70618 5.31051 0
M  V30 10392 N 950.418 -1.49637 -0.494624 0
M  V30 10393 C 951.365 -1.66776 -1.59545 0
M  V30 10394 C 952.335 -0.509159 -1.58104 0
M  V30 10395 O 953.52 -0.736949 -1.75993 0
M  V30 10396 C 950.66 -1.74624 -2.97658 0
M  V30 10397 C 949.773 -3.01831 -3.09067 0
M  V30 10398 C 948.908 -3.00619 -4.37952 0
M  V30 10399 C 947.947 -4.22378 -4.43016 0
M  V30 10400 N 947.084 -4.1904 -5.63339 0
M  V30 10401 H 951.924 -2.60767 -1.44238 0
M  V30 10402 H 949.461 -1.29286 -0.701673 0
M  V30 10403 H 951.419 -1.77156 -3.77719 0
M  V30 10404 H 950.049 -0.840936 -3.11654 0
M  V30 10405 H 949.101 -3.08881 -2.22029 0
M  V30 10406 H 950.413 -3.91823 -3.08669 0
M  V30 10407 H 949.567 -3.01749 -5.26339 0
M  V30 10408 H 948.306 -2.08416 -4.40924 0
M  V30 10409 H 947.311 -4.21485 -3.5303 0
M  V30 10410 H 948.536 -5.15781 -4.41755 0
M  V30 10411 H 946.482 -3.29677 -5.67141 0
M  V30 10412 H 946.399 -5.02774 -5.64583 0
M  V30 10413 H 947.667 -4.24281 -6.53916 0
M  V30 10414 N 951.896 0.746133 -1.38819 0
M  V30 10415 C 953.145 1.50085 -1.34749 0
M  V30 10416 C 953.458 1.95516 0.0574786 0
M  V30 10417 O 954.664 2.70601 0.22073 0
M  V30 10418 C 953.12 2.71141 -2.36665 0
M  V30 10419 C 952.728 2.32706 -3.82821 0
M  V30 10420 C 954.472 3.49005 -2.41652 0
M  V30 10421 C 952.379 3.50418 -4.76405 0
M  V30 10422 H 951.309 0.563563 -0.500912 0
M  V30 10423 H 953.96 0.814951 -1.6441 0
M  V30 10424 H 952.342 3.4175 -2.00058 0
M  V30 10425 H 953.516 1.69715 -4.28408 0
M  V30 10426 H 951.831 1.67959 -3.81023 0
M  V30 10427 H 954.428 4.36541 -3.08766 0
M  V30 10428 H 954.771 3.90687 -1.43769 0
M  V30 10429 H 955.304 2.85416 -2.77097 0
M  V30 10430 H 952.043 3.13795 -5.75511 0
M  V30 10431 H 951.563 4.12426 -4.35505 0
M  V30 10432 H 953.242 4.16901 -4.94775 0
M  V30 10433 N 953.375 1.23811 0.975125 0
M  V30 10434 C 954.624 1.06741 1.71141 0
M  V30 10435 C 954.937 -0.394986 1.9157 0
M  V30 10436 O 956.143 -0.685723 2.62698 0
M  V30 10437 C 954.599 1.86168 3.08009 0
M  V30 10438 C 954.207 3.36771 2.95448 0
M  V30 10439 C 955.951 1.77604 3.85561 0
M  V30 10440 C 953.858 4.0857 4.2758 0
M  V30 10441 H 952.788 0.395819 0.64175 0
M  V30 10442 H 955.439 1.47825 1.0872 0
M  V30 10443 H 953.821 1.37893 3.71216 0
M  V30 10444 H 954.995 3.92571 2.41298 0
M  V30 10445 H 953.31 3.46205 2.31368 0
M  V30 10446 H 955.907 2.28556 4.83391 0
M  V30 10447 H 956.25 0.739837 4.09673 0
M  V30 10448 H 956.783 2.23519 3.29065 0
M  V30 10449 H 953.522 5.12518 4.08663 0
M  V30 10450 H 953.042 3.57556 4.81574 0
M  V30 10451 H 954.721 4.15157 4.9624 0
M  V30 10452 N 954.853 -1.17469 1.05066 0
M  V30 10453 C 955.763 -2.25089 0.661222 0
M  V30 10454 C 956.779 -1.71086 -0.31712 0
M  V30 10455 O 957.955 -2.00685 -0.169534 0
M  V30 10456 C 955.02 -3.46676 0.0406415 0
M  V30 10457 C 954.081 -4.15771 1.06927 0
M  V30 10458 C 953.314 -5.31553 0.478208 0
M  V30 10459 O 953.537 -5.6593 -0.712714 0
M  V30 10460 O 952.471 -5.89574 1.21185 0
M  V30 10461 H 956.297 -2.60685 1.5581 0
M  V30 10462 H 953.882 -1.24744 0.822147 0
M  V30 10463 H 955.764 -4.203 -0.304312 0
M  V30 10464 H 954.439 -3.1288 -0.829909 0
M  V30 10465 H 953.346 -3.44171 1.46619 0
M  V30 10466 H 954.679 -4.53591 1.91092 0
M  V30 10467 N 956.331 -0.831506 -1.3388 0
M  V30 10468 C 957.278 -0.257449 -2.2936 0
M  V30 10469 C 958.248 0.622604 -1.5399 0
M  V30 10470 O 959.433 0.562432 -1.82322 0
M  V30 10471 C 956.573 0.567587 -3.404 0
M  V30 10472 C 955.686 -0.335666 -4.30694 0
M  V30 10473 C 954.821 0.499762 -5.28844 0
M  V30 10474 C 953.86 -0.402343 -6.10776 0
M  V30 10475 N 952.997 0.39452 -7.00991 0
M  V30 10476 H 957.837 -1.077 -2.77857 0
M  V30 10477 H 955.374 -0.542589 -1.36727 0
M  V30 10478 H 957.332 1.06133 -4.03474 0
M  V30 10479 H 955.962 1.35217 -2.93115 0
M  V30 10480 H 955.014 -0.94768 -3.68406 0
M  V30 10481 H 956.326 -1.02896 -4.88072 0
M  V30 10482 H 955.48 1.05763 -5.9741 0
M  V30 10483 H 954.219 1.22652 -4.72025 0
M  V30 10484 H 953.224 -0.972288 -5.41135 0
M  V30 10485 H 954.449 -1.12735 -6.69677 0
M  V30 10486 H 952.395 1.1048 -6.4663 0
M  V30 10487 H 952.312 -0.240209 -7.55618 0
M  V30 10488 H 953.58 0.934867 -7.73874 0
M  V30 10489 N 957.809 1.4625 -0.587256 0
M  V30 10490 C 958.742 2.27392 0.191837 0
M  V30 10491 C 959.72 1.35905 0.89267 0
M  V30 10492 O 960.904 1.65319 0.905643 0
M  V30 10493 C 958.031 3.13758 1.27567 0
M  V30 10494 C 957.077 4.21041 0.680186 0
M  V30 10495 S 957.91 5.33194 -0.496419 0
M  V30 10496 C 959.066 6.23127 0.588506 0
M  V30 10497 H 959.299 2.93123 -0.496635 0
M  V30 10498 H 956.832 1.49795 -0.37426 0
M  V30 10499 H 958.79 3.6408 1.8962 0
M  V30 10500 H 957.451 2.47332 1.93612 0
M  V30 10501 H 956.644 4.81316 1.49503 0
M  V30 10502 H 956.246 3.73755 0.135227 0
M  V30 10503 H 958.538 6.61294 1.47298 0
M  V30 10504 H 959.481 7.08096 0.0224093 0
M  V30 10505 H 959.889 5.57365 0.894696 0
M  V30 10506 N 959.287 0.325282 1.54207 0
M  V30 10507 C 960.25 -0.527228 2.23054 0
M  V30 10508 C 961.25 -1.04217 1.22456 0
M  V30 10509 O 962.44 -0.934325 1.47024 0
M  V30 10510 C 959.572 -1.7325 2.93594 0
M  V30 10511 H 960.765 0.0746423 2.99807 0
M  V30 10512 H 958.318 0.0763872 1.56113 0
M  V30 10513 H 959.053 -2.37356 2.20981 0
M  V30 10514 H 958.838 -1.37065 3.67363 0
M  V30 10515 H 960.328 -2.3376 3.46043 0
M  V30 10516 N 960.765 -1.57509 0.0534917 0
M  V30 10517 C 961.993 -1.97098 -0.629298 0
M  V30 10518 C 962.408 -0.931128 -1.64242 0
M  V30 10519 O 961.765 0.0843866 -1.82305 0
M  V30 10520 C 961.816 -3.36767 -1.31415 0
M  V30 10521 O 961.537 -4.36766 -0.341599 0
M  V30 10522 C 963.038 -3.91127 -2.08649 0
M  V30 10523 H 960.258 -0.648611 -0.171886 0
M  V30 10524 H 962.802 -2.04145 0.120479 0
M  V30 10525 H 960.957 -3.30863 -2.01515 0
M  V30 10526 H 961.371 -5.1788 -0.830715 0
M  V30 10527 H 962.845 -4.91129 -2.51985 0
M  V30 10528 H 963.322 -3.26679 -2.9356 0
M  V30 10529 H 963.928 -4.00376 -1.43456 0
M  V30 10530 N 962.243 0.219913 -1.56058 0
M  V30 10531 C 963.49 0.944064 -1.79147 0
M  V30 10532 C 963.818 1.84268 -0.622531 0
M  V30 10533 O 963.073 1.91713 0.393013 0
M  V30 10534 C 963.372 1.81293 -3.08006 0
M  V30 10535 C 963.038 1.0674 -4.38084 0
M  V30 10536 C 961.7 0.86147 -4.73426 0
M  V30 10537 C 964.052 0.541049 -5.18384 0
M  V30 10538 C 961.38 0.117307 -5.86583 0
M  V30 10539 C 963.732 -0.189779 -6.32315 0
M  V30 10540 C 962.396 -0.406951 -6.66258 0
M  V30 10541 H 961.666 0.345458 -0.655546 0
M  V30 10542 H 964.313 0.212121 -1.90322 0
M  V30 10543 H 962.618 2.61278 -2.9196 0
M  V30 10544 H 964.315 2.3754 -3.23072 0
M  V30 10545 H 960.905 1.23789 -4.10334 0
M  V30 10546 H 965.089 0.687617 -4.91514 0
M  V30 10547 H 960.345 -0.0611651 -6.11369 0
M  V30 10548 H 964.519 -0.605134 -6.93766 0
M  V30 10549 H 962.146 -0.985511 -7.53785 0
M  V30 10550 N 963.721 1.49897 0.486681 0
M  V30 10551 C 964.631 1.70379 1.6127 0
M  V30 10552 C 965.647 0.58659 1.63814 0
M  V30 10553 O 966.823 0.863044 1.81971 0
M  V30 10554 C 963.888 1.77911 2.97571 0
M  V30 10555 C 962.949 3.01569 3.0554 0
M  V30 10556 C 962.182 3.08732 4.35339 0
M  V30 10557 O 962.405 2.23099 5.2496 0
M  V30 10558 O 961.339 4.01325 4.48578 0
M  V30 10559 H 965.165 2.65799 1.46916 0
M  V30 10560 H 962.75 1.33808 0.664516 0
M  V30 10561 H 964.632 1.85135 3.78554 0
M  V30 10562 H 963.307 0.856722 3.12157 0
M  V30 10563 H 962.214 2.99854 2.23693 0
M  V30 10564 H 963.547 3.93335 2.95886 0
M  V30 10565 N 965.199 -0.738761 1.39212 0
M  V30 10566 C 966.448 -1.49368 1.35543 0
M  V30 10567 C 966.761 -1.95543 -0.0471091 0
M  V30 10568 O 967.967 -2.70714 -0.206376 0
M  V30 10569 C 966.423 -2.69882 2.381 0
M  V30 10570 C 966.031 -2.30672 3.8405 0
M  V30 10571 C 967.775 -3.47718 2.435 0
M  V30 10572 C 965.682 -3.47886 4.78256 0
M  V30 10573 H 964.612 -0.560898 0.503894 0
M  V30 10574 H 967.263 -0.806221 1.6484 0
M  V30 10575 H 965.645 -3.40684 2.01867 0
M  V30 10576 H 966.819 -1.67441 4.29302 0
M  V30 10577 H 965.134 -1.65936 3.81909 0
M  V30 10578 H 967.731 -4.34897 3.11077 0
M  V30 10579 H 968.074 -3.89919 1.45838 0
M  V30 10580 H 968.607 -2.83942 2.78606 0
M  V30 10581 H 965.346 -3.10739 5.77167 0
M  V30 10582 H 964.866 -4.10111 4.37686 0
M  V30 10583 H 966.545 -4.14271 4.96979 0
M  V30 10584 N 966.677 -1.24326 -0.968545 0
M  V30 10585 C 967.954 -0.990459 -1.68669 0
M  V30 10586 C 968.334 0.487487 -2.05394 0
M  V30 10587 O 967.682 1.46158 -1.75642 0
M  V30 10588 C 967.892 -1.91251 -2.91931 0
M  V30 10589 C 969.24 -2.18291 -3.6419 0
M  V30 10590 O 970.264 -1.88897 -3.01987 0
M  V30 10591 O 969.123 -2.68204 -4.76161 0
M  V30 10592 H 966.217 -0.374515 -0.737338 0
M  V30 10593 H 968.763 -1.35421 -1.02271 0
M  V30 10594 H 967.535 -2.9111 -2.61478 0
M  V30 10595 H 967.158 -1.55188 -3.66064 0
M  V30 10596 N 968.156 1.1691 -1.05688 0
M  V30 10597 C 969.066 2.24735 -0.67315 0
M  V30 10598 C 970.082 1.71252 0.308043 0
M  V30 10599 O 971.258 2.00772 0.158889 0
M  V30 10600 C 968.323 3.4665 -0.059026 0
M  V30 10601 C 967.384 4.15198 -1.0913 0
M  V30 10602 C 966.617 5.31292 -0.50639 0
M  V30 10603 O 966.84 5.663 0.682692 0
M  V30 10604 O 965.774 5.88923 -1.2431 0
M  V30 10605 H 969.6 2.59855 -1.57191 0
M  V30 10606 H 967.185 1.24306 -0.828751 0
M  V30 10607 H 969.067 4.20455 0.282018 0
M  V30 10608 H 967.742 3.13316 0.813304 0
M  V30 10609 H 966.649 3.43389 -1.48442 0
M  V30 10610 H 967.982 4.52571 -1.93495 0
M  V30 10611 N 969.634 0.838594 1.33437 0
M  V30 10612 C 970.581 0.269609 2.2922 0
M  V30 10613 C 971.551 -0.614429 1.54318 0
M  V30 10614 O 972.736 -0.552756 1.82618 0
M  V30 10615 C 969.876 -0.549527 3.40697 0
M  V30 10616 C 968.989 0.358502 4.3051 0
M  V30 10617 C 968.124 -0.471709 5.29101 0
M  V30 10618 C 967.163 0.434728 6.10554 0
M  V30 10619 N 966.3 -0.357339 7.0119 0
M  V30 10620 H 971.14 1.09172 2.77282 0
M  V30 10621 H 968.677 0.549832 1.36438 0
M  V30 10622 H 970.635 -1.03992 4.04032 0
M  V30 10623 H 969.265 -1.33661 2.93828 0
M  V30 10624 H 968.317 0.967204 3.67899 0
M  V30 10625 H 969.629 1.05483 4.87519 0
M  V30 10626 H 968.783 -1.02594 5.97963 0
M  V30 10627 H 967.522 -1.20147 4.72669 0
M  V30 10628 H 966.527 1.00097 5.40611 0
M  V30 10629 H 967.752 1.16285 6.6907 0
M  V30 10630 H 965.698 -1.07049 6.47207 0
M  V30 10631 H 965.615 0.280277 7.5548 0
M  V30 10632 H 966.883 -0.893814 7.74359 0
M  V30 10633 N 971.112 -1.45937 0.595003 0
M  V30 10634 C 972.528 -1.57507 0.257641 0
M  V30 10635 C 972.728 -1.58829 -1.23998 0
M  V30 10636 O 971.784 -1.51183 -2.02237 0
M  V30 10637 C 973.097 -2.86354 0.917708 0
M  V30 10638 C 974.645 -3.00007 0.892446 0
M  V30 10639 C 975.12 -4.31607 1.53229 0
M  V30 10640 N 976.611 -4.38336 1.49719 0
M  V30 10641 C 977.346 -5.38805 1.96154 0
M  V30 10642 N 976.842 -6.45882 2.50617 0
M  V30 10643 N 978.635 -5.30084 1.86997 0
M  V30 10644 H 970.786 -1.43322 1.56756 0
M  V30 10645 H 973.049 -0.684436 0.655936 0
M  V30 10646 H 972.755 -2.91233 1.97171 0
M  V30 10647 H 972.629 -3.74703 0.433344 0
M  V30 10648 H 975.016 -2.94703 -0.152975 0
M  V30 10649 H 975.097 -2.13103 1.41495 0
M  V30 10650 H 974.741 -4.3767 2.57697 0
M  V30 10651 H 974.671 -5.17308 0.984903 0
M  V30 10652 H 977.162 -3.6156 1.09921 0
M  V30 10653 H 977.475 -7.18774 2.83874 0
M  V30 10654 H 975.82 -6.46668 2.54649 0
M  V30 10655 H 979.011 -4.45337 1.44196 0
M  V30 10656 H 979.184 -6.08237 2.23499 0
M  V30 10657 N 972.59 -0.333456 -1.54032 0
M  V30 10658 C 973.837 0.266133 -2.00744 0
M  V30 10659 C 974.165 1.51361 -1.22148 0
M  V30 10660 O 973.42 1.93473 -0.294368 0
M  V30 10661 C 973.719 0.63565 -3.51702 0
M  V30 10662 C 973.385 -0.513786 -4.47963 0
M  V30 10663 C 972.047 -0.829253 -4.74001 0
M  V30 10664 C 974.399 -1.2854 -5.05101 0
M  V30 10665 C 971.727 -1.91888 -5.54433 0
M  V30 10666 C 974.079 -2.3652 -5.86721 0
M  V30 10667 C 972.743 -2.68637 -6.11057 0
M  V30 10668 H 972.013 0.097385 -0.734573 0
M  V30 10669 H 974.66 -0.459282 -1.85911 0
M  V30 10670 H 972.965 1.44163 -3.64313 0
M  V30 10671 H 974.662 1.11129 -3.85294 0
M  V30 10672 H 971.252 -0.25784 -4.27824 0
M  V30 10673 H 975.436 -1.05494 -4.84958 0
M  V30 10674 H 970.692 -2.17208 -5.71516 0
M  V30 10675 H 974.866 -2.96747 -6.30011 0
M  V30 10676 H 972.493 -3.53197 -6.73169 0
M  V30 10677 N 974.068 1.57479 -0.061844 0
M  V30 10678 C 974.978 2.15645 0.923826 0
M  V30 10679 C 975.994 1.117 1.33413 0
M  V30 10680 O 977.17 1.4392 1.40887 0
M  V30 10681 C 974.235 2.69857 2.17665 0
M  V30 10682 C 973.296 3.88638 1.8237 0
M  V30 10683 C 972.529 4.40256 3.01679 0
M  V30 10684 O 972.752 3.90908 4.15388 0
M  V30 10685 O 971.686 5.31713 2.82073 0
M  V30 10686 H 975.512 3.0021 0.459094 0
M  V30 10687 H 973.097 1.48534 0.160665 0
M  V30 10688 H 974.979 3.04647 2.9115 0
M  V30 10689 H 973.654 1.88357 2.63255 0
M  V30 10690 H 972.561 3.58719 1.06167 0
M  V30 10691 H 973.894 4.71401 1.4157 0
M  V30 10692 N 975.546 -0.211634 1.56173 0
M  V30 10693 C 976.795 -0.932647 1.78842 0
M  V30 10694 C 977.108 -1.85103 0.63217 0
M  V30 10695 O 978.314 -2.61143 0.742746 0
M  V30 10696 C 976.77 -1.70866 3.16753 0
M  V30 10697 C 976.378 -0.835934 4.40132 0
M  V30 10698 C 978.122 -2.4203 3.48743 0
M  V30 10699 C 976.029 -1.60987 5.69067 0
M  V30 10700 H 974.959 -0.351983 0.666801 0
M  V30 10701 H 977.61 -0.186284 1.82552 0
M  V30 10702 H 975.992 -2.4983 3.07247 0
M  V30 10703 H 977.166 -0.0861298 4.60719 0
M  V30 10704 H 975.481 -0.235941 4.15731 0
M  V30 10705 H 978.078 -3.00453 4.42303 0
M  V30 10706 H 978.421 -3.15406 2.71707 0
M  V30 10707 H 978.954 -1.70048 3.59623 0
M  V30 10708 H 975.693 -0.9192 6.49023 0
M  V30 10709 H 975.213 -2.33403 5.52524 0
M  V30 10710 H 976.892 -2.16798 6.09596 0
M  V30 10711 N 977.024 -1.50153 -0.478725 0
M  V30 10712 C 978.273 -1.60002 -1.22809 0
M  V30 10713 C 978.586 -0.302277 -1.9325 0
M  V30 10714 O 979.792 -0.279583 -2.70057 0
M  V30 10715 C 978.248 -2.82402 -2.23108 0
M  V30 10716 C 977.856 -4.19023 -1.58505 0
M  V30 10717 C 979.6 -3.01593 -2.98734 0
M  V30 10718 C 977.507 -5.32618 -2.57045 0
M  V30 10719 H 976.437 -0.595822 -0.462073 0
M  V30 10720 H 979.088 -1.76573 -0.499412 0
M  V30 10721 H 977.47 -2.59373 -2.99235 0
M  V30 10722 H 978.644 -4.52277 -0.882187 0
M  V30 10723 H 976.959 -4.05374 -0.951877 0
M  V30 10724 H 979.556 -3.8363 -3.72468 0
M  V30 10725 H 979.899 -2.1302 -3.57671 0
M  V30 10726 H 980.432 -3.24766 -2.29721 0
M  V30 10727 H 977.171 -6.23321 -2.02858 0
M  V30 10728 H 976.691 -5.03792 -3.25505 0
M  V30 10729 H 978.37 -5.62877 -3.19028 0
M  V30 10730 N 978.502 0.731368 -1.39602 0
M  V30 10731 C 979.449 1.84541 -1.38612 0
M  V30 10732 C 980.419 1.64279 -0.245287 0
M  V30 10733 O 981.604 1.85635 -0.440954 0
M  V30 10734 C 978.744 3.22092 -1.23897 0
M  V30 10735 C 977.857 3.54034 -2.47555 0
M  V30 10736 C 976.992 4.81007 -2.25402 0
M  V30 10737 C 976.031 5.05804 -3.44716 0
M  V30 10738 N 975.168 6.23981 -3.21857 0
M  V30 10739 H 980.008 1.84722 -2.33841 0
M  V30 10740 H 977.545 0.902569 -1.16156 0
M  V30 10741 H 979.503 4.01499 -1.13376 0
M  V30 10742 H 978.133 3.2118 -0.322958 0
M  V30 10743 H 977.185 2.69301 -2.68665 0
M  V30 10744 H 978.497 3.68275 -3.36415 0
M  V30 10745 H 977.651 5.68401 -2.12143 0
M  V30 10746 H 976.39 4.68946 -1.33943 0
M  V30 10747 H 975.395 4.1687 -3.58468 0
M  V30 10748 H 976.62 5.19747 -4.37081 0
M  V30 10749 H 974.566 6.13202 -2.33065 0
M  V30 10750 H 974.483 6.38826 -4.04274 0
M  V30 10751 H 975.751 7.14205 -3.123 0
M  V30 10752 N 979.98 1.24838 0.961938 0
M  V30 10753 C 980.89 1.06304 2.09133 0
M  V30 10754 C 981.906 0.00221475 1.74 0
M  V30 10755 O 983.082 0.201611 2.00388 0
M  V30 10756 C 980.147 0.676117 3.40043 0
M  V30 10757 C 979.208 1.81407 3.89089 0
M  V30 10758 C 978.441 1.44551 5.13752 0
M  V30 10759 O 978.664 0.337894 5.69398 0
M  V30 10760 O 977.598 2.27316 5.57325 0
M  V30 10761 H 981.424 2.01001 2.27667 0
M  V30 10762 H 979.009 1.0371 1.07539 0
M  V30 10763 H 980.891 0.472124 4.18747 0
M  V30 10764 H 979.566 -0.241667 3.22797 0
M  V30 10765 H 978.473 2.07286 3.11421 0
M  V30 10766 H 979.806 2.71083 4.10822 0
M  V30 10767 N 981.458 -1.16348 1.06306 0
M  V30 10768 C 982.421 -2.18941 0.678053 0
M  V30 10769 C 983.421 -1.58409 -0.276277 0
M  V30 10770 O 984.611 -1.74101 -0.0586435 0
M  V30 10771 C 981.743 -3.409 -0.00228684 0
M  V30 10772 H 982.936 -2.54516 1.58624 0
M  V30 10773 H 980.489 -1.30625 0.858298 0
M  V30 10774 H 981.224 -3.10881 -0.923212 0
M  V30 10775 H 981.009 -3.86089 0.683949 0
M  V30 10776 H 982.499 -4.16806 -0.257374 0
M  V30 10777 N 982.937 -0.845659 -1.3299 0
M  V30 10778 C 984.167 -0.457686 -2.01467 0
M  V30 10779 C 984.575 0.947664 -1.63756 0
M  V30 10780 O 983.918 1.62841 -0.850213 0
M  V30 10781 C 983.98 -0.506589 -3.55913 0
M  V30 10782 C 983.644 -1.86924 -4.17023 0
M  V30 10783 C 984.641 -2.83344 -4.35904 0
M  V30 10784 C 982.326 -2.16394 -4.53298 0
M  V30 10785 C 984.32 -4.07391 -4.90216 0
M  V30 10786 C 982.007 -3.40695 -5.07316 0
M  V30 10787 C 983.005 -4.3601 -5.25722 0
M  V30 10788 O 982.693 -5.58112 -5.7859 0
M  V30 10789 H 982.425 -0.179258 -0.651799 0
M  V30 10790 H 984.979 -1.14172 -1.70745 0
M  V30 10791 H 983.209 0.234253 -3.8599 0
M  V30 10792 H 984.898 -0.135487 -4.05674 0
M  V30 10793 H 985.664 -2.61879 -4.08221 0
M  V30 10794 H 981.543 -1.42994 -4.38262 0
M  V30 10795 H 985.087 -4.81796 -5.04498 0
M  V30 10796 H 980.984 -3.62014 -5.3443 0
M  V30 10797 H 981.752 -5.59946 -5.96995 0
M  V30 10798 N 984.415 1.45619 -0.602734 0
M  V30 10799 C 985.348 2.27583 0.167708 0
M  V30 10800 C 986.326 1.36844 0.878206 0
M  V30 10801 O 987.51 1.6627 0.888058 0
M  V30 10802 C 984.637 3.15094 1.24232 0
M  V30 10803 C 983.683 4.21739 0.63549 0
M  V30 10804 S 984.516 5.32638 -0.552944 0
M  V30 10805 C 985.672 6.23716 0.522382 0
M  V30 10806 H 985.905 2.92579 -0.527697 0
M  V30 10807 H 983.438 1.4939 -0.390127 0
M  V30 10808 H 985.396 3.66071 1.85748 0
M  V30 10809 H 984.057 2.49372 1.90978 0
M  V30 10810 H 983.25 4.82874 1.44389 0
M  V30 10811 H 982.852 3.73878 0.0955772 0
M  V30 10812 H 985.144 6.62819 1.40276 0
M  V30 10813 H 986.087 7.0808 -0.0526951 0
M  V30 10814 H 986.495 5.58282 0.83553 0
M  V30 10815 N 985.893 0.34162 1.53853 0
M  V30 10816 C 987.309 -0.0103769 1.59597 0
M  V30 10817 C 987.509 -1.48897 1.35764 0
M  V30 10818 O 986.565 -2.24743 1.15095 0
M  V30 10819 C 987.878 0.424067 2.97695 0
M  V30 10820 C 989.426 0.376247 3.1073 0
M  V30 10821 C 989.901 0.786129 4.51203 0
M  V30 10822 N 991.392 0.74024 4.57247 0
M  V30 10823 C 992.127 1.02937 5.64085 0
M  V30 10824 N 991.623 1.38655 6.78783 0
M  V30 10825 N 993.416 0.953734 5.5395 0
M  V30 10826 H 985.567 1.30477 1.67599 0
M  V30 10827 H 987.83 0.531753 0.78482 0
M  V30 10828 H 987.536 1.45493 3.20195 0
M  V30 10829 H 987.41 -0.201713 3.7666 0
M  V30 10830 H 989.797 -0.645441 2.87955 0
M  V30 10831 H 989.878 1.0372 2.33828 0
M  V30 10832 H 989.522 1.80582 4.74713 0
M  V30 10833 H 989.452 0.102671 5.265 0
M  V30 10834 H 991.943 0.476763 3.7488 0
M  V30 10835 H 992.256 1.59206 7.56223 0
M  V30 10836 H 990.601 1.42498 6.80235 0
M  V30 10837 H 993.792 0.674044 4.63222 0
M  V30 10838 H 993.965 1.18241 6.37121 0
M  V30 10839 N 987.371 -1.57444 0.0701946 0
M  V30 10840 C 988.596 -1.98171 -0.61181 0
M  V30 10841 C 989.021 -0.94823 -1.62451 0
M  V30 10842 O 988.379 0.0863553 -1.81094 0
M  V30 10843 C 988.427 -3.37934 -1.2583 0
M  V30 10844 O 987.531 -3.37207 -2.37414 0
M  V30 10845 H 986.872 -0.645056 -0.157477 0
M  V30 10846 H 989.402 -2.04091 0.144235 0
M  V30 10847 H 989.412 -3.75083 -1.60552 0
M  V30 10848 H 988.087 -4.12684 -0.516234 0
M  V30 10849 H 986.664 -3.11826 -2.04497 0
M  V30 10850 N 988.849 0.203349 -1.56283 0
M  V30 10851 C 989.779 1.2549 -1.96912 0
M  V30 10852 C 990.76 1.47919 -0.839884 0
M  V30 10853 O 991.945 1.59795 -1.10359 0
M  V30 10854 C 989.075 2.6009 -2.30153 0
M  V30 10855 C 988.029 2.52289 -3.45738 0
M  V30 10856 C 987.355 3.91086 -3.64632 0
M  V30 10857 C 988.655 2.05503 -4.80173 0
M  V30 10858 H 990.349 0.917306 -2.85002 0
M  V30 10859 H 987.895 0.439818 -1.37119 0
M  V30 10860 H 989.848 3.33829 -2.5717 0
M  V30 10861 H 988.572 2.95574 -1.38937 0
M  V30 10862 H 987.231 1.81006 -3.18798 0
M  V30 10863 H 986.879 4.23908 -2.7076 0
M  V30 10864 H 986.579 3.86742 -4.42385 0
M  V30 10865 H 988.103 4.66459 -3.94016 0
M  V30 10866 H 989.517 2.68995 -5.06275 0
M  V30 10867 H 987.914 2.1218 -5.61337 0
M  V30 10868 H 988.984 1.00793 -4.74309 0
M  V30 10869 N 990.327 1.50405 0.470755 0
M  V30 10870 C 991.275 1.6982 1.58946 0
M  V30 10871 C 992.269 0.56407 1.59733 0
M  V30 10872 O 993.475 0.744576 1.63878 0
M  V30 10873 H 989.85 0.536016 0.527438 0
M  V30 10874 H 991.821 2.63662 1.39732 0
M  V30 10875 C 990.57 1.80986 2.96883 0
M  V30 10876 H 989.893 2.67645 2.96996 0
M  V30 10877 H 991.333 1.98596 3.74614 0
M  V30 10878 C 989.792 0.561551 3.32187 0
M  V30 10879 O 990.322 -0.299136 4.00585 0
M  V30 10880 N 988.528 0.415476 2.87615 0
M  V30 10881 H 988.075 1.11691 2.32127 0
M  V30 10882 H 988.033 -0.418592 3.11601 0
M  V30 10883 N 991.805 -0.723954 1.39988 0
M  V30 10884 C 992.753 -1.85938 1.39749 0
M  V30 10885 C 993.747 -1.67085 0.279112 0
M  V30 10886 O 994.953 -1.74291 0.44972 0
M  V30 10887 H 991.328 -0.612246 0.436644 0
M  V30 10888 H 993.299 -1.83255 2.355 0
M  V30 10889 C 992.048 -3.23726 1.26874 0
M  V30 10890 H 991.371 -3.38835 2.12206 0
M  V30 10891 H 992.811 -4.03332 1.30765 0
M  V30 10892 C 991.27 -3.36893 -0.0218317 0
M  V30 10893 O 991.8 -3.89363 -0.987905 0
M  V30 10894 N 990.006 -2.90465 -0.0885618 0
M  V30 10895 H 989.553 -2.47954 0.698314 0
M  V30 10896 H 989.511 -2.99654 -0.951557 0
M  V30 10897 N 993.283 -1.25346 -0.955304 0
M  V30 10898 C 994.53 -1.10055 -1.69983 0
M  V30 10899 C 994.858 0.358586 -1.91166 0
M  V30 10900 O 994.113 1.28071 -1.47974 0
M  V30 10901 C 994.412 -1.7993 -3.08804 0
M  V30 10902 C 994.078 -3.29851 -3.07424 0
M  V30 10903 C 992.74 -3.7075 -3.06754 0
M  V30 10904 C 995.092 -4.25636 -3.00805 0
M  V30 10905 C 992.42 -5.05847 -2.97214 0
M  V30 10906 C 994.772 -5.60756 -2.92806 0
M  V30 10907 C 993.436 -6.00984 -2.90472 0
M  V30 10908 H 992.706 -0.402718 -0.622012 0
M  V30 10909 H 995.353 -1.5561 -1.11614 0
M  V30 10910 H 993.658 -1.26803 -3.70713 0
M  V30 10911 H 995.355 -1.65551 -3.65231 0
M  V30 10912 H 991.945 -2.97308 -3.08716 0
M  V30 10913 H 996.129 -3.9503 -3.00441 0
M  V30 10914 H 991.385 -5.36196 -2.93775 0
M  V30 10915 H 995.559 -6.34671 -2.86645 0
M  V30 10916 H 993.186 -7.05626 -2.82835 0
M  V30 10917 N 994.761 1.15782 -1.06922 0
M  V30 10918 C 996.177 1.38454 -0.793896 0
M  V30 10919 C 996.377 1.92238 0.603875 0
M  V30 10920 O 995.433 2.1253 1.36335 0
M  V30 10921 C 996.746 2.3595 -1.86408 0
M  V30 10922 C 998.294 2.49622 -1.88833 0
M  V30 10923 C 998.769 3.50406 -2.94923 0
M  V30 10924 N 1000.26 3.57938 -2.93997 0
M  V30 10925 C 1001 4.35728 -3.72731 0
M  V30 10926 N 1000.49 5.16888 -4.61301 0
M  V30 10927 N 1002.28 4.30774 -3.61096 0
M  V30 10928 H 994.435 0.792101 -1.97077 0
M  V30 10929 H 996.698 0.410779 -0.85438 0
M  V30 10930 H 996.404 2.03537 -2.86819 0
M  V30 10931 H 996.278 3.35677 -1.72049 0
M  V30 10932 H 998.665 2.81335 -0.890759 0
M  V30 10933 H 998.746 1.49909 -2.0727 0
M  V30 10934 H 998.39 3.19429 -3.94877 0
M  V30 10935 H 998.32 4.49864 -2.73734 0
M  V30 10936 H 1000.81 3.00007 -2.29791 0
M  V30 10937 H 1001.12 5.73477 -5.18019 0
M  V30 10938 H 999.469 5.16209 -4.65353 0
M  V30 10939 H 1002.66 3.66432 -2.91282 0
M  V30 10940 H 1002.83 4.91151 -4.22699 0
M  V30 10941 N 996.239 0.8527 1.3254 0
M  V30 10942 C 997.202 0.300959 2.27215 0
M  V30 10943 C 998.202 -0.538235 1.51525 0
M  V30 10944 O 999.392 -0.350027 1.70647 0
M  V30 10945 C 996.524 -0.574428 3.36025 0
M  V30 10946 H 997.717 1.13655 2.77529 0
M  V30 10947 H 995.27 0.626878 1.43178 0
M  V30 10948 H 996.005 -1.43191 2.90976 0
M  V30 10949 H 995.79 0.0262265 3.92091 0
M  V30 10950 H 997.28 -0.9533 4.06573 0
M  V30 10951 N 997.718 -1.45297 0.610449 0
M  V30 10952 C 998.628 -2.34349 -0.108475 0
M  V30 10953 C 999.644 -1.51409 -0.857397 0
M  V30 10954 O 1000.82 -1.84202 -0.814337 0
M  V30 10955 C 997.885 -3.29072 -1.09144 0
M  V30 10956 C 996.946 -4.27918 -0.344165 0
M  V30 10957 C 996.179 -5.18116 -1.28031 0
M  V30 10958 O 996.402 -5.11802 -2.51824 0
M  V30 10959 O 995.336 -5.96879 -0.775821 0
M  V30 10960 H 999.162 -2.97232 0.623421 0
M  V30 10961 H 996.747 -1.44728 0.3707 0
M  V30 10962 H 998.629 -3.87433 -1.65751 0
M  V30 10963 H 997.304 -2.68749 -1.80431 0
M  V30 10964 H 996.211 -3.73164 0.264437 0
M  V30 10965 H 997.544 -4.91104 0.328275 0
M  V30 10966 N 999.196 -0.349774 -1.5367 0
M  V30 10967 C 1000.13 0.538575 -2.22782 0
M  V30 10968 C 1001.14 1.05896 -1.23652 0
M  V30 10969 O 1002.33 0.968045 -1.4997 0
M  V30 10970 C 999.43 1.7546 -2.89943 0
M  V30 10971 C 998.603 1.36843 -4.15443 0
M  V30 10972 C 997.662 2.4448 -4.65957 0
M  V30 10973 O 996.688 2.07528 -5.3002 0
M  V30 10974 N 997.89 3.75829 -4.42417 0
M  V30 10975 H 1000.65 -0.053348 -2.99653 0
M  V30 10976 H 998.216 -0.174193 -1.6096 0
M  V30 10977 H 1000.21 2.46911 -3.20651 0
M  V30 10978 H 998.778 2.25375 -2.16622 0
M  V30 10979 H 997.998 0.484421 -3.91212 0
M  V30 10980 H 999.286 1.0865 -4.97064 0
M  V30 10981 H 998.684 4.08635 -3.91196 0
M  V30 10982 H 997.241 4.43432 -4.77714 0
M  V30 10983 N 1000.67 1.57404 -0.0785433 0
M  V30 10984 C 1002.08 1.81118 0.45311 0
M  V30 10985 C 1002.44 0.992963 1.69218 0
M  V30 10986 O 1001.56 0.217448 2.15305 0
M  V30 10987 C 1002.16 3.28506 0.82882 0
M  V30 10988 C 1000.71 3.53042 1.3053 0
M  V30 10989 C 999.862 2.75739 0.29378 0
M  V30 10990 H 1002.81 1.55758 -0.304171 0
M  V30 10991 H 1002.83 3.40924 1.68971 0
M  V30 10992 H 1002.35 3.88031 -0.0731826 0
M  V30 10993 H 1000.45 2.98829 2.22558 0
M  V30 10994 H 1000.56 4.61724 1.27857 0
M  V30 10995 H 998.924 2.42703 0.772477 0
M  V30 10996 H 999.707 3.38005 -0.600613 0
M  V30 10997 N 1002.15 -0.195058 1.56388 0
M  V30 10998 C 1003.1 -1.24584 1.90952 0
M  V30 10999 C 1004.09 -1.40993 0.77522 0
M  V30 11000 O 1005.28 -1.43363 1.03808 0
M  V30 11001 C 1002.41 -2.59064 2.25258 0
M  V30 11002 C 1001.49 -2.46447 3.45145 0
M  V30 11003 N 1001.88 -2.0351 4.63052 0
M  V30 11004 C 1000.18 -2.77339 3.49283 0
M  V30 11005 C 1000.88 -2.02785 5.45209 0
M  V30 11006 N 999.859 -2.4429 4.85616 0
M  V30 11007 H 1003.66 -0.9052 2.79613 0
M  V30 11008 H 1001.17 -0.403493 1.57308 0
M  V30 11009 H 1003.17 -3.34963 2.48205 0
M  V30 11010 H 1001.83 -2.93951 1.37924 0
M  V30 11011 H 1002.84 -1.74219 4.87717 0
M  V30 11012 H 999.52 -3.16423 2.72365 0
M  V30 11013 H 1000.91 -1.71489 6.49647 0
M  V30 11014 N 1003.63 -1.50653 -0.462772 0
M  V30 11015 C 1004.56 -1.66286 -1.5774 0
M  V30 11016 C 1005.57 -0.544094 -1.53439 0
M  V30 11017 O 1006.76 -0.817566 -1.58676 0
M  V30 11018 C 1003.86 -1.63893 -2.96635 0
M  V30 11019 C 1003.04 -2.91939 -3.25716 0
M  V30 11020 C 1002.1 -2.82076 -4.44206 0
M  V30 11021 O 1001.12 -3.56032 -4.44106 0
M  V30 11022 N 1002.32 -1.96196 -5.4634 0
M  V30 11023 H 1005.09 -2.6243 -1.44742 0
M  V30 11024 H 1002.65 -1.48221 -0.651326 0
M  V30 11025 H 1004.64 -1.54897 -3.73884 0
M  V30 11026 H 1003.21 -0.75449 -3.03358 0
M  V30 11027 H 1002.43 -3.14998 -2.37002 0
M  V30 11028 H 1003.72 -3.7675 -3.4196 0
M  V30 11029 H 1003.12 -1.35439 -5.49247 0
M  V30 11030 H 1001.67 -1.93097 -6.2254 0
M  V30 11031 N 1005.11 0.71652 -1.4037 0
M  V30 11032 C 1006.06 1.82219 -1.37041 0
M  V30 11033 C 1007.04 1.58975 -0.248116 0
M  V30 11034 O 1008.23 1.70164 -0.487147 0
M  V30 11035 C 1005.36 3.20337 -1.23446 0
M  V30 11036 C 1004.45 3.49347 -2.40452 0
M  V30 11037 N 1004.84 3.49179 -3.65934 0
M  V30 11038 C 1003.14 3.798 -2.33811 0
M  V30 11039 C 1003.84 3.76506 -4.43416 0
M  V30 11040 N 1002.82 3.95209 -3.73244 0
M  V30 11041 H 1006.62 1.80421 -2.32003 0
M  V30 11042 H 1004.13 0.915603 -1.34129 0
M  V30 11043 H 1006.13 3.99513 -1.19143 0
M  V30 11044 H 1004.79 3.23362 -0.294497 0
M  V30 11045 H 1005.8 3.30051 -3.99107 0
M  V30 11046 H 1002.48 3.9032 -1.48177 0
M  V30 11047 H 1003.87 3.82689 -5.52267 0
M  V30 11048 N 1006.59 1.25851 0.948643 0
M  V30 11049 C 1007.55 1.0683 2.0278 0
M  V30 11050 C 1008.55 0.0191016 1.60789 0
M  V30 11051 O 1009.74 0.261836 1.72221 0
M  V30 11052 C 1006.87 0.623318 3.35153 0
M  V30 11053 H 1008.06 2.02635 2.21086 0
M  V30 11054 H 1005.62 1.08343 1.12657 0
M  V30 11055 H 1006.35 -0.337053 3.22544 0
M  V30 11056 H 1006.14 1.38082 3.66982 0
M  V30 11057 H 1007.63 0.511854 4.14451 0
M  V30 11058 N 1008.06 -1.15214 1.07534 0
M  V30 11059 C 1009 -2.18999 0.641461 0
M  V30 11060 C 1009.98 -1.58958 -0.342238 0
M  V30 11061 O 1011.16 -1.86859 -0.248218 0
M  V30 11062 C 1008.29 -3.38651 -0.0577939 0
M  V30 11063 C 1007.33 -4.17225 0.884641 0
M  V30 11064 S 1008.17 -4.79375 2.38663 0
M  V30 11065 C 1009.32 -6.02393 1.69923 0
M  V30 11066 H 1009.55 -2.55464 1.52071 0
M  V30 11067 H 1007.09 -1.26205 0.889481 0
M  V30 11068 H 1009.05 -4.07971 -0.454982 0
M  V30 11069 H 1007.71 -3.00526 -0.913407 0
M  V30 11070 H 1006.9 -5.02837 0.342133 0
M  V30 11071 H 1006.5 -3.53463 1.2223 0
M  V30 11072 H 1008.79 -6.69899 1.01201 0
M  V30 11073 H 1009.74 -6.61216 2.53375 0
M  V30 11074 H 1010.14 -5.52106 1.1764 0
M  V30 11075 N 1009.54 -0.859717 -1.32086 0
M  V30 11076 C 1010.77 -0.479028 -2.0097 0
M  V30 11077 C 1011.18 0.930242 -1.64752 0
M  V30 11078 O 1010.52 1.6193 -0.867437 0
M  V30 11079 C 1010.59 -0.54431 -3.55355 0
M  V30 11080 C 1010.25 -1.91337 -4.15017 0
M  V30 11081 C 1011.25 -2.87951 -4.32874 0
M  V30 11082 C 1008.93 -2.21189 -4.50977 0
M  V30 11083 C 1010.93 -4.12567 -4.85867 0
M  V30 11084 C 1008.61 -3.46057 -5.03674 0
M  V30 11085 C 1009.61 -4.41562 -5.21068 0
M  V30 11086 O 1009.3 -5.64218 -5.72637 0
M  V30 11087 H 1009.03 -0.186161 -0.649861 0
M  V30 11088 H 1011.58 -1.15976 -1.69525 0
M  V30 11089 H 1009.81 0.1933 -3.86217 0
M  V30 11090 H 1011.5 -0.178506 -4.05507 0
M  V30 11091 H 1012.27 -2.66194 -4.05421 0
M  V30 11092 H 1008.15 -1.47635 -4.36721 0
M  V30 11093 H 1011.69 -4.8712 -4.99359 0
M  V30 11094 H 1007.59 -3.67662 -5.30561 0
M  V30 11095 H 1008.36 -5.66246 -5.91023 0
M  V30 11096 N 1011.02 1.44971 -0.618145 0
M  V30 11097 C 1012.25 2.06228 -0.123985 0
M  V30 11098 C 1012.66 1.46166 1.20134 0
M  V30 11099 O 1012 0.574099 1.74499 0
M  V30 11100 C 1012.06 3.59413 0.0789098 0
M  V30 11101 C 1011.73 4.41869 -1.16624 0
M  V30 11102 C 1012.72 4.76177 -2.0869 0
M  V30 11103 C 1010.41 4.82453 -1.39802 0
M  V30 11104 C 1012.4 5.49938 -3.22254 0
M  V30 11105 C 1010.09 5.55965 -2.53665 0
M  V30 11106 C 1011.09 5.89626 -3.44718 0
M  V30 11107 O 1010.78 6.61644 -4.56598 0
M  V30 11108 H 1010.51 0.672274 -0.0708822 0
M  V30 11109 H 1013.06 1.87038 -0.848868 0
M  V30 11110 H 1011.29 3.77043 0.8588 0
M  V30 11111 H 1012.98 4.02478 0.52599 0
M  V30 11112 H 1013.75 4.45372 -1.92012 0
M  V30 11113 H 1009.63 4.55681 -0.698245 0
M  V30 11114 H 1013.17 5.76129 -3.93347 0
M  V30 11115 H 1009.07 5.86185 -2.70291 0
M  V30 11116 H 1009.84 6.80103 -4.55414 0
M  V30 11117 N 1012.5 0.357919 1.53482 0
M  V30 11118 C 1013.43 -0.484231 2.28424 0
M  V30 11119 C 1014.41 -1.09046 1.30548 0
M  V30 11120 O 1015.59 -1.10916 1.59409 0
M  V30 11121 C 1012.72 -1.62803 3.06778 0
M  V30 11122 C 1011.68 -1.14943 4.12277 0
M  V30 11123 C 1011 -2.38287 4.78669 0
M  V30 11124 C 1012.3 -0.239627 5.2175 0
M  V30 11125 H 1014 0.140979 2.99068 0
M  V30 11126 H 1011.54 0.069244 1.43833 0
M  V30 11127 H 1013.5 -2.22374 3.57949 0
M  V30 11128 H 1012.22 -2.28036 2.3381 0
M  V30 11129 H 1010.88 -0.576442 3.6204 0
M  V30 11130 H 1010.53 -3.01959 4.02281 0
M  V30 11131 H 1010.23 -2.06939 5.49955 0
M  V30 11132 H 1011.75 -2.98558 5.32631 0
M  V30 11133 H 1013.17 -0.742597 5.6847 0
M  V30 11134 H 1011.56 -0.0173747 6.00097 0
M  V30 11135 H 1012.63 0.720333 4.7952 0
M  V30 11136 N 1013.98 -1.5736 0.0868897 0
M  V30 11137 C 1015.39 -1.57304 -0.269762 0
M  V30 11138 C 1015.59 -1.09745 -1.68992 0
M  V30 11139 O 1014.65 -0.77017 -2.40468 0
M  V30 11140 C 1015.96 -3.00628 -0.0656646 0
M  V30 11141 C 1017.51 -3.12713 -0.134045 0
M  V30 11142 C 1017.98 -4.57981 0.0419569 0
M  V30 11143 N 1019.48 -4.63198 -0.0131501 0
M  V30 11144 C 1020.21 -5.73316 0.0983964 0
M  V30 11145 N 1019.71 -6.92296 0.264315 0
M  V30 11146 N 1021.5 -5.62086 0.0402517 0
M  V30 11147 H 1013.65 -1.86585 1.01487 0
M  V30 11148 H 1015.91 -0.860843 0.397055 0
M  V30 11149 H 1015.62 -3.39592 0.914891 0
M  V30 11150 H 1015.49 -3.68367 -0.811522 0
M  V30 11151 H 1017.88 -2.73627 -1.1051 0
M  V30 11152 H 1017.96 -2.47582 0.643167 0
M  V30 11153 H 1017.61 -4.9776 1.00984 0
M  V30 11154 H 1017.54 -5.21162 -0.754847 0
M  V30 11155 H 1020.03 -3.77644 -0.139183 0
M  V30 11156 H 1020.34 -7.72047 0.341165 0
M  V30 11157 H 1018.68 -6.94353 0.299876 0
M  V30 11158 H 1021.88 -4.68017 -0.0881801 0
M  V30 11159 H 1022.05 -6.47868 0.130635 0
M  V30 11160 N 1015.45 0.186762 -1.56489 0
M  V30 11161 C 1016.38 1.23395 -1.98232 0
M  V30 11162 C 1017.37 1.4702 -0.855526 0
M  V30 11163 O 1018.55 1.58616 -1.12048 0
M  V30 11164 C 1015.68 2.57635 -2.32898 0
M  V30 11165 C 1014.63 2.48607 -3.48394 0
M  V30 11166 C 1013.96 3.87196 -3.68759 0
M  V30 11167 C 1015.26 2.00398 -4.82325 0
M  V30 11168 H 1016.95 0.887026 -2.85958 0
M  V30 11169 H 1014.5 0.42525 -1.37578 0
M  V30 11170 H 1016.45 3.31082 -2.60696 0
M  V30 11171 H 1015.18 2.94084 -1.42064 0
M  V30 11172 H 1013.84 1.77615 -3.207 0
M  V30 11173 H 1013.48 4.21012 -2.75241 0
M  V30 11174 H 1013.18 3.82029 -4.46462 0
M  V30 11175 H 1014.71 4.62253 -3.98941 0
M  V30 11176 H 1016.12 2.6361 -5.091 0
M  V30 11177 H 1014.52 2.06214 -5.63556 0
M  V30 11178 H 1015.59 0.957562 -4.75351 0
M  V30 11179 N 1016.93 1.50896 0.454776 0
M  V30 11180 C 1017.86 1.73885 1.5584 0
M  V30 11181 C 1018.84 0.588172 1.59607 0
M  V30 11182 O 1020.03 0.829054 1.75614 0
M  V30 11183 C 1017.16 1.84796 2.94054 0
M  V30 11184 C 1016.11 3.00111 3.05152 0
M  V30 11185 C 1015.44 2.96183 4.45174 0
M  V30 11186 C 1016.74 4.40365 2.80849 0
M  V30 11187 H 1018.43 2.66292 1.36854 0
M  V30 11188 H 1015.98 1.28142 0.656936 0
M  V30 11189 H 1017.93 1.99462 3.71204 0
M  V30 11190 H 1016.66 0.890235 3.14233 0
M  V30 11191 H 1015.31 2.85121 2.30438 0
M  V30 11192 H 1014.96 1.98224 4.62295 0
M  V30 11193 H 1014.66 3.73608 4.53532 0
M  V30 11194 H 1016.19 3.1292 5.24322 0
M  V30 11195 H 1017.6 4.55795 3.47741 0
M  V30 11196 H 1016 5.19363 3.00636 0
M  V30 11197 H 1017.07 4.51606 1.76579 0
M  V30 11198 N 1018.41 -0.709066 1.40748 0
M  V30 11199 C 1019.34 -1.83293 1.35937 0
M  V30 11200 C 1020.32 -1.60983 0.22871 0
M  V30 11201 O 1021.51 -1.8391 0.413435 0
M  V30 11202 C 1018.63 -3.19746 1.11714 0
M  V30 11203 C 1017.68 -3.60872 2.27319 0
M  V30 11204 S 1018.51 -3.67233 3.89743 0
M  V30 11205 C 1019.67 -5.06434 3.67797 0
M  V30 11206 H 1019.9 -1.87095 2.31047 0
M  V30 11207 H 1017.43 -0.876479 1.27111 0
M  V30 11208 H 1019.39 -3.98526 0.984245 0
M  V30 11209 H 1018.05 -3.1357 0.182472 0
M  V30 11210 H 1017.25 -4.59965 2.06029 0
M  V30 11211 H 1016.85 -2.89366 2.36946 0
M  V30 11212 H 1019.14 -5.93544 3.26668 0
M  V30 11213 H 1020.08 -5.32761 4.66445 0
M  V30 11214 H 1020.49 -4.77336 3.01348 0
M  V30 11215 N 1019.89 -1.26353 -0.941956 0
M  V30 11216 C 1021.12 -1.14626 -1.72245 0
M  V30 11217 C 1021.53 0.298588 -1.86424 0
M  V30 11218 O 1020.89 1.2045 -1.37106 0
M  V30 11219 C 1020.94 -1.80933 -3.12963 0
M  V30 11220 O 1020.66 -3.19771 -2.99463 0
M  V30 11221 C 1022.16 -1.7515 -4.07231 0
M  V30 11222 H 1019.38 -0.3992 -0.539333 0
M  V30 11223 H 1021.93 -1.66958 -1.1809 0
M  V30 11224 H 1020.08 -1.32541 -3.64021 0
M  V30 11225 H 1020.5 -3.52571 -3.88322 0
M  V30 11226 H 1021.97 -2.26183 -5.03533 0
M  V30 11227 H 1022.45 -0.717855 -4.33294 0
M  V30 11228 H 1023.05 -2.2309 -3.62093 0
M  V30 11229 N 1021.37 1.14642 -1.08144 0
M  V30 11230 C 1022.28 2.23257 -0.720668 0
M  V30 11231 C 1023.29 1.71866 0.271648 0
M  V30 11232 O 1024.47 2.01064 0.116266 0
M  V30 11233 C 1021.53 3.46447 -0.132542 0
M  V30 11234 C 1020.6 4.12789 -1.17913 0
M  V30 11235 C 1019.83 5.30099 -0.618971 0
M  V30 11236 O 1020.05 5.6762 0.562418 0
M  V30 11237 O 1018.99 5.86154 -1.36774 0
M  V30 11238 H 1022.81 2.56463 -1.62667 0
M  V30 11239 H 1020.4 1.22521 -0.854932 0
M  V30 11240 H 1022.28 4.20959 0.19277 0
M  V30 11241 H 1020.95 3.14971 0.746662 0
M  V30 11242 H 1019.86 3.40163 -1.55693 0
M  V30 11243 H 1021.19 4.48365 -2.03051 0
M  V30 11244 N 1022.85 0.866709 1.31628 0
M  V30 11245 C 1024.09 0.476731 1.97117 0
M  V30 11246 C 1024.42 -0.967813 1.68366 0
M  V30 11247 O 1023.7 -1.68101 0.978377 0
M  V30 11248 C 1023.98 0.730561 3.52611 0
M  V30 11249 C 1023.84 2.2244 3.90948 0
M  V30 11250 C 1025.15 0.19488 4.39668 0
M  V30 11251 H 1022.27 0.174682 0.715999 0
M  V30 11252 H 1024.92 1.08735 1.5581 0
M  V30 11253 H 1023.07 0.210834 3.87927 0
M  V30 11254 H 1024.74 2.81113 3.6575 0
M  V30 11255 H 1022.98 2.69824 3.39673 0
M  V30 11256 H 1023.65 2.35266 4.99353 0
M  V30 11257 H 1026.13 0.639478 4.11157 0
M  V30 11258 H 1025 0.401958 5.47426 0
M  V30 11259 H 1025.26 -0.90302 4.32779 0
M  V30 11260 N 1024.32 -1.44642 0.625825 0
M  V30 11261 C 1025.29 -2.29085 -0.072526 0
M  V30 11262 C 1026.29 -1.40755 -0.777467 0
M  V30 11263 O 1027.48 -1.62684 -0.622861 0
M  V30 11264 C 1024.61 -3.22212 -1.1132 0
M  V30 11265 H 1025.8 -2.92317 0.670124 0
M  V30 11266 H 1023.35 -1.51466 0.38571 0
M  V30 11267 H 1024.09 -2.63819 -1.88601 0
M  V30 11268 H 1023.87 -3.87299 -0.611709 0
M  V30 11269 H 1025.36 -3.8566 -1.60175 0
M  V30 11270 N 1025.8 -0.366053 -1.5329 0
M  V30 11271 C 1027.05 0.216398 -2.02246 0
M  V30 11272 C 1027.4 1.46384 -1.24858 0
M  V30 11273 O 1026.7 1.88667 -0.333977 0
M  V30 11274 C 1026.89 0.560906 -3.52971 0
M  V30 11275 C 1026.72 -0.651598 -4.44954 0
M  V30 11276 C 1025.49 -1.16381 -4.91715 0
M  V30 11277 C 1027.69 -1.51695 -4.91419 0
M  V30 11278 N 1025.67 -2.33629 -5.67706 0
M  V30 11279 C 1027.04 -2.53608 -5.65759 0
M  V30 11280 C 1029.09 -1.53977 -4.73493 0
M  V30 11281 C 1027.8 -3.57661 -6.24076 0
M  V30 11282 C 1029.82 -2.56923 -5.32677 0
M  V30 11283 C 1029.19 -3.5756 -6.06902 0
M  V30 11284 H 1025.28 0.0418889 -0.780877 0
M  V30 11285 H 1027.87 -0.510704 -1.87883 0
M  V30 11286 H 1026.04 1.25708 -3.67494 0
M  V30 11287 H 1027.77 1.12849 -3.88648 0
M  V30 11288 H 1024.53 -0.728374 -4.67965 0
M  V30 11289 H 1024.95 -2.92891 -6.10364 0
M  V30 11290 H 1029.59 -0.775265 -4.15631 0
M  V30 11291 H 1027.31 -4.34993 -6.81034 0
M  V30 11292 H 1030.9 -2.59544 -5.207 0
M  V30 11293 H 1029.78 -4.35912 -6.51882 0
M  V30 11294 N 1027.28 1.57312 -0.0952337 0
M  V30 11295 C 1028.51 1.98697 0.57682 0
M  V30 11296 C 1028.92 0.974347 1.61716 0
M  V30 11297 O 1028.28 -0.036022 1.82464 0
M  V30 11298 C 1028.33 3.40133 1.2244 0
M  V30 11299 O 1028.05 4.37518 0.225678 0
M  V30 11300 C 1029.55 3.96522 1.98205 0
M  V30 11301 H 1026.77 0.65294 0.154629 0
M  V30 11302 H 1029.32 2.03754 -0.174562 0
M  V30 11303 H 1027.47 3.3609 1.92671 0
M  V30 11304 H 1027.89 5.199 0.693116 0
M  V30 11305 H 1029.36 4.97637 2.38875 0
M  V30 11306 H 1029.84 3.34347 2.84796 0
M  V30 11307 H 1030.44 4.04038 1.3279 0
M  V30 11308 N 1028.76 -0.17846 1.56586 0
M  V30 11309 C 1029.7 -1.22104 1.95855 0
M  V30 11310 C 1030.67 -1.44366 0.821447 0
M  V30 11311 O 1031.86 -1.57224 1.08098 0
M  V30 11312 C 1029 -2.55701 2.31757 0
M  V30 11313 C 1028.11 -2.40879 3.5861 0
M  V30 11314 C 1027.25 -3.67293 3.83757 0
M  V30 11315 C 1026.29 -3.47373 5.03982 0
M  V30 11316 N 1025.42 -4.65839 5.25298 0
M  V30 11317 H 1030.26 -0.879168 2.84736 0
M  V30 11318 H 1027.8 -0.422721 1.40895 0
M  V30 11319 H 1029.76 -3.33556 2.50592 0
M  V30 11320 H 1028.39 -2.87898 1.45995 0
M  V30 11321 H 1027.44 -1.54236 3.47729 0
M  V30 11322 H 1028.75 -2.22102 4.46623 0
M  V30 11323 H 1027.91 -4.53584 4.02922 0
M  V30 11324 H 1026.65 -3.89041 2.94107 0
M  V30 11325 H 1025.65 -2.59467 4.84723 0
M  V30 11326 H 1026.88 -3.27055 5.95157 0
M  V30 11327 H 1024.82 -4.8782 4.38598 0
M  V30 11328 H 1024.74 -4.4995 6.0752 0
M  V30 11329 H 1026.01 -5.53435 5.48936 0
M  V30 11330 N 1030.24 -1.51135 -0.446768 0
M  V30 11331 C 1031.51 -1.5387 -1.20762 0
M  V30 11332 C 1031.89 -0.297446 -2.08994 0
M  V30 11333 O 1031.24 0.717975 -2.16927 0
M  V30 11334 C 1031.45 -2.84767 -2.01764 0
M  V30 11335 C 1032.8 -3.3636 -2.59128 0
M  V30 11336 O 1033.82 -2.86254 -2.11984 0
M  V30 11337 O 1032.68 -4.23765 -3.45088 0
M  V30 11338 H 1029.78 -0.618228 -0.549293 0
M  V30 11339 H 1032.32 -1.63442 -0.456605 0
M  V30 11340 H 1031.09 -3.6657 -1.36901 0
M  V30 11341 H 1030.72 -2.78313 -2.8395 0
M  V30 11342 N 1031.71 0.701592 -1.41122 0
M  V30 11343 C 1032.62 1.84548 -1.44841 0
M  V30 11344 C 1033.64 1.70654 -0.339594 0
M  V30 11345 O 1034.82 1.92675 -0.586378 0
M  V30 11346 C 1031.88 3.20477 -1.3227 0
M  V30 11347 C 1030.94 3.46524 -2.53415 0
M  V30 11348 C 1030.17 4.75968 -2.41434 0
M  V30 11349 O 1030.4 5.52037 -1.43566 0
M  V30 11350 O 1029.33 5.02664 -3.31078 0
M  V30 11351 H 1033.16 1.84367 -2.41335 0
M  V30 11352 H 1030.74 0.853863 -1.22595 0
M  V30 11353 H 1032.62 4.01642 -1.2752 0
M  V30 11354 H 1031.3 3.21355 -0.388889 0
M  V30 11355 H 1030.21 2.65313 -2.63742 0
M  V30 11356 H 1031.54 3.50455 -3.45604 0
M  V30 11357 N 1033.19 1.2685 0.935242 0
M  V30 11358 C 1034.12 1.1143 2.05196 0
M  V30 11359 C 1035.1 0.0178362 1.70091 0
M  V30 11360 O 1036.29 0.190951 1.93259 0
M  V30 11361 C 1033.42 0.752779 3.39044 0
M  V30 11362 C 1032.37 1.80164 3.88233 0
M  V30 11363 C 1031.7 1.29428 5.18799 0
M  V30 11364 C 1033 3.20431 4.12457 0
M  V30 11365 H 1034.69 2.04845 2.18355 0
M  V30 11366 H 1032.24 0.986276 1.04922 0
M  V30 11367 H 1034.19 0.631757 4.16637 0
M  V30 11368 H 1032.91 -0.217075 3.25878 0
M  V30 11369 H 1031.57 1.91144 3.12825 0
M  V30 11370 H 1031.22 0.3141 5.02018 0
M  V30 11371 H 1030.92 1.99546 5.5268 0
M  V30 11372 H 1032.45 1.18605 5.9897 0
M  V30 11373 H 1033.86 3.12495 4.80645 0
M  V30 11374 H 1032.26 3.88193 4.57631 0
M  V30 11375 H 1033.33 3.66046 3.18023 0
M  V30 11376 N 1034.67 -1.14067 1.0875 0
M  V30 11377 C 1035.62 -2.19261 0.720633 0
M  V30 11378 C 1036.59 -1.63462 -0.294847 0
M  V30 11379 O 1037.77 -1.89967 -0.178058 0
M  V30 11380 C 1034.91 -3.44816 0.139873 0
M  V30 11381 C 1034.03 -4.1475 1.20856 0
M  V30 11382 C 1033.16 -5.27899 0.591285 0
M  V30 11383 C 1032.2 -5.89672 1.64176 0
M  V30 11384 N 1031.34 -6.94264 1.04603 0
M  V30 11385 H 1036.18 -2.49991 1.62198 0
M  V30 11386 H 1033.71 -1.22757 0.810497 0
M  V30 11387 H 1035.67 -4.16648 -0.214587 0
M  V30 11388 H 1034.3 -3.14558 -0.724774 0
M  V30 11389 H 1033.35 -3.41272 1.6804 0
M  V30 11390 H 1034.67 -4.56753 2.00446 0
M  V30 11391 H 1033.82 -6.06417 0.185271 0
M  V30 11392 H 1032.56 -4.87128 -0.236236 0
M  V30 11393 H 1031.56 -5.09854 2.05739 0
M  V30 11394 H 1032.79 -6.32517 2.47182 0
M  V30 11395 H 1030.73 -6.55562 0.239664 0
M  V30 11396 H 1030.65 -7.34771 1.77898 0
M  V30 11397 H 1031.92 -7.7665 0.665989 0
M  V30 11398 N 1036.15 -0.873678 -1.31166 0
M  V30 11399 C 1037.06 -0.335726 -2.32185 0
M  V30 11400 C 1038.07 0.556259 -1.64869 0
M  V30 11401 O 1039.25 0.452087 -1.9626 0
M  V30 11402 C 1036.32 0.450822 -3.43756 0
M  V30 11403 C 1035.38 -0.469565 -4.26724 0
M  V30 11404 C 1034.61 0.279538 -5.32967 0
M  V30 11405 O 1034.83 1.50715 -5.50128 0
M  V30 11406 O 1033.77 -0.36452 -6.00795 0
M  V30 11407 H 1037.59 -1.17314 -2.80127 0
M  V30 11408 H 1035.18 -0.637163 -1.35132 0
M  V30 11409 H 1037.06 0.896582 -4.11752 0
M  V30 11410 H 1035.73 1.26472 -2.9797 0
M  V30 11411 H 1034.64 -0.963902 -3.61469 0
M  V30 11412 H 1035.97 -1.24916 -4.76085 0
M  V30 11413 N 1037.63 1.44308 -0.633487 0
M  V30 11414 C 1038.59 2.2912 0.060376 0
M  V30 11415 C 1039.59 1.41166 0.769992 0
M  V30 11416 O 1040.78 1.63012 0.614224 0
M  V30 11417 C 1037.91 3.22798 1.0961 0
M  V30 11418 H 1039.1 2.91958 -0.685617 0
M  V30 11419 H 1036.66 1.51259 -0.393738 0
M  V30 11420 H 1037.39 2.64815 1.87199 0
M  V30 11421 H 1037.18 3.87618 0.591161 0
M  V30 11422 H 1038.67 3.86504 1.58127 0
M  V30 11423 N 1039.1 0.374177 1.53094 0
M  V30 11424 C 1040.03 -0.459976 2.28925 0
M  V30 11425 C 1041.02 -1.07656 1.31698 0
M  V30 11426 O 1042.2 -1.09219 1.60577 0
M  V30 11427 C 1039.33 -1.5954 3.08487 0
M  V30 11428 C 1038.28 -1.10563 4.13473 0
M  V30 11429 C 1037.61 -2.33196 4.81169 0
M  V30 11430 C 1038.91 -0.184275 5.21975 0
M  V30 11431 H 1040.6 0.172692 2.98902 0
M  V30 11432 H 1038.15 0.0844956 1.43752 0
M  V30 11433 H 1040.1 -2.18565 3.60288 0
M  V30 11434 H 1038.83 -2.25543 2.36216 0
M  V30 11435 H 1037.49 -0.53801 3.62631 0
M  V30 11436 H 1037.13 -2.97675 4.05461 0
M  V30 11437 H 1036.83 -2.01094 5.52119 0
M  V30 11438 H 1038.36 -2.92892 5.35767 0
M  V30 11439 H 1039.77 -0.682262 5.69226 0
M  V30 11440 H 1038.17 0.0462746 6.00082 0
M  V30 11441 H 1039.24 0.771152 4.78729 0
M  V30 11442 N 1040.58 -1.57259 0.103575 0
M  V30 11443 C 1041.86 -1.86143 -0.600852 0
M  V30 11444 C 1042.24 -1.00198 -1.85805 0
M  V30 11445 O 1041.59 -0.0766791 -2.28371 0
M  V30 11446 C 1041.8 -3.36978 -0.908108 0
M  V30 11447 C 1043.15 -4.05228 -1.26788 0
M  V30 11448 O 1044.17 -3.41908 -0.998859 0
M  V30 11449 O 1043.03 -5.16971 -1.7721 0
M  V30 11450 H 1040.12 -0.770064 -0.301547 0
M  V30 11451 H 1042.67 -1.69147 0.136914 0
M  V30 11452 H 1041.44 -3.91296 -0.0165615 0
M  V30 11453 H 1041.06 -3.5935 -1.70156 0
M  V30 11454 N 1042.06 0.170153 -1.56679 0
M  V30 11455 C 1043.34 0.913938 -1.72935 0
M  V30 11456 C 1043.72 2.00342 -0.665293 0
M  V30 11457 O 1043.07 2.26252 0.319715 0
M  V30 11458 C 1043.28 1.47761 -3.16177 0
M  V30 11459 C 1044.62 1.95007 -3.7717 0
M  V30 11460 O 1045.65 1.57552 -3.19462 0
M  V30 11461 O 1044.51 2.64007 -4.78501 0
M  V30 11462 H 1041.6 0.43027 -0.706256 0
M  V30 11463 H 1044.15 0.157891 -1.68964 0
M  V30 11464 H 1042.92 0.69352 -3.85105 0
M  V30 11465 H 1042.54 2.2978 -3.24479 0
M  V30 11466 N 1043.54 1.5137 0.438746 0
M  V30 11467 C 1044.78 1.64211 1.19006 0
M  V30 11468 C 1045.12 0.356607 1.90898 0
M  V30 11469 O 1044.39 -0.643722 1.83539 0
M  V30 11470 C 1044.68 2.8445 2.20817 0
M  V30 11471 C 1044.53 4.22972 1.53018 0
M  V30 11472 C 1045.85 3.00207 3.21813 0
M  V30 11473 H 1042.97 0.597628 0.431288 0
M  V30 11474 H 1045.61 1.8385 0.479487 0
M  V30 11475 H 1043.76 2.67836 2.81418 0
M  V30 11476 H 1045.43 4.5125 0.957654 0
M  V30 11477 H 1043.67 4.25736 0.832556 0
M  V30 11478 H 1044.34 5.03094 2.27158 0
M  V30 11479 H 1046.82 3.15522 2.71266 0
M  V30 11480 H 1045.7 3.85904 3.90345 0
M  V30 11481 H 1045.96 2.12216 3.87836 0
M  V30 11482 N 1045.02 -0.694098 1.41492 0
M  V30 11483 C 1046.24 -1.48286 1.44288 0
M  V30 11484 C 1046.66 -1.88737 0.0485783 0
M  V30 11485 O 1046.02 -1.56881 -0.932449 0
M  V30 11486 C 1046.07 -2.74446 2.3529 0
M  V30 11487 O 1045.79 -2.35698 3.69294 0
M  V30 11488 C 1047.29 -3.68175 2.46905 0
M  V30 11489 H 1044.51 -0.45692 0.491391 0
M  V30 11490 H 1047.05 -0.854477 1.85793 0
M  V30 11491 H 1045.21 -3.33518 1.9709 0
M  V30 11492 H 1045.62 -3.17029 4.17843 0
M  V30 11493 H 1047.1 -4.53476 3.14743 0
M  V30 11494 H 1047.57 -4.12763 1.50078 0
M  V30 11495 H 1048.18 -3.15006 2.85747 0
M  V30 11496 N 1046.49 -1.27344 -0.928501 0
M  V30 11497 C 1047.42 -1.12517 -2.04602 0
M  V30 11498 C 1048.41 -0.0268563 -1.70079 0
M  V30 11499 O 1049.59 -0.201197 -1.93155 0
M  V30 11500 C 1046.72 -0.770749 -3.3864 0
M  V30 11501 C 1045.67 -1.8222 -3.87272 0
M  V30 11502 C 1045 -1.32178 -5.18105 0
M  V30 11503 C 1046.3 -3.22614 -4.10752 0
M  V30 11504 H 1047.99 -2.06 -2.17265 0
M  V30 11505 H 1045.54 -0.991827 -1.04397 0
M  V30 11506 H 1047.49 -0.653843 -4.16297 0
M  V30 11507 H 1046.22 0.19979 -3.25988 0
M  V30 11508 H 1044.88 -1.928 -3.11807 0
M  V30 11509 H 1044.52 -0.340719 -5.01845 0
M  V30 11510 H 1044.22 -2.02474 -5.51614 0
M  V30 11511 H 1045.75 -1.2178 -5.98333 0
M  V30 11512 H 1047.16 -3.1504 -4.78981 0
M  V30 11513 H 1045.56 -3.90614 -4.55566 0
M  V30 11514 H 1046.63 -3.67727 -3.16077 0
M  V30 11515 N 1047.97 1.13488 -1.09353 0
M  V30 11516 C 1049.38 1.66299 -0.848609 0
M  V30 11517 C 1049.73 1.86044 0.623051 0
M  V30 11518 O 1048.86 1.57871 1.48005 0
M  V30 11519 C 1049.45 3.02087 -1.53391 0
M  V30 11520 C 1048.01 3.51893 -1.33598 0
M  V30 11521 C 1047.16 2.27154 -1.59048 0
M  V30 11522 H 1050.11 0.974208 -1.25279 0
M  V30 11523 H 1050.13 3.68018 -0.966587 0
M  V30 11524 H 1049.64 2.87684 -2.60498 0
M  V30 11525 H 1047.75 3.715 -0.286045 0
M  V30 11526 H 1047.86 4.32059 -2.0703 0
M  V30 11527 H 1046.22 2.33708 -1.01256 0
M  V30 11528 H 1047.01 2.15317 -2.67383 0
M  V30 11529 N 1049.45 0.880621 1.30701 0
M  V30 11530 C 1050.87 0.574015 1.4892 0
M  V30 11531 C 1051.07 -0.889312 1.80813 0
M  V30 11532 O 1050.12 -1.67082 1.89314 0
M  V30 11533 C 1051.44 1.48341 2.61563 0
M  V30 11534 C 1052.98 1.48658 2.75445 0
M  V30 11535 C 1053.46 2.3818 3.91196 0
M  V30 11536 N 1054.95 2.36119 3.985 0
M  V30 11537 C 1055.69 3.02101 4.87363 0
M  V30 11538 N 1055.18 3.77293 5.81052 0
M  V30 11539 N 1056.97 2.91356 4.80696 0
M  V30 11540 H 1049.13 1.82732 1.08271 0
M  V30 11541 H 1051.39 0.781939 0.535981 0
M  V30 11542 H 1051.09 2.52515 2.44804 0
M  V30 11543 H 1050.97 1.18977 3.57944 0
M  V30 11544 H 1053.36 0.452374 2.91612 0
M  V30 11545 H 1053.44 1.8205 1.79698 0
M  V30 11546 H 1053.08 3.41683 3.75786 0
M  V30 11547 H 1053.01 2.02106 4.86272 0
M  V30 11548 H 1055.5 1.81474 3.31475 0
M  V30 11549 H 1055.81 4.24742 6.45612 0
M  V30 11550 H 1054.16 3.81401 5.80998 0
M  V30 11551 H 1057.35 2.32143 4.06481 0
M  V30 11552 H 1057.52 3.43056 5.49742 0
M  V30 11553 N 1050.93 -1.4397 0.641131 0
M  V30 11554 C 1051.86 -2.33458 -0.04446 0
M  V30 11555 C 1052.84 -1.48781 -0.824507 0
M  V30 11556 O 1054.03 -1.77477 -0.788397 0
M  V30 11557 C 1051.16 -3.31989 -1.01984 0
M  V30 11558 C 1050.11 -4.2656 -0.350745 0
M  V30 11559 C 1049.44 -5.15036 -1.43673 0
M  V30 11560 C 1050.74 -5.16897 0.749299 0
M  V30 11561 H 1052.43 -2.91034 0.702832 0
M  V30 11562 H 1049.98 -1.39942 0.339435 0
M  V30 11563 H 1051.93 -3.93483 -1.50828 0
M  V30 11564 H 1050.65 -2.72643 -1.79815 0
M  V30 11565 H 1049.31 -3.66413 0.117139 0
M  V30 11566 H 1048.96 -4.52037 -2.20617 0
M  V30 11567 H 1048.66 -5.79125 -0.994358 0
M  V30 11568 H 1050.18 -5.79403 -1.92678 0
M  V30 11569 H 1051.6 -5.7227 0.343534 0
M  V30 11570 H 1049.99 -5.89643 1.11541 0
M  V30 11571 H 1051.06 -4.5731 1.61232 0
M  V30 11572 N 1052.41 -0.382291 -1.52893 0
M  V30 11573 C 1053.35 0.456234 -2.26246 0
M  V30 11574 C 1054.32 1.06366 -1.27575 0
M  V30 11575 O 1055.51 1.09301 -1.5639 0
M  V30 11576 C 1052.65 1.5813 -3.06739 0
M  V30 11577 C 1051.76 0.997416 -4.20328 0
M  V30 11578 C 1050.9 2.09296 -4.8823 0
M  V30 11579 C 1049.94 1.4846 -5.93823 0
M  V30 11580 N 1049.07 2.51916 -6.55349 0
M  V30 11581 H 1053.91 -0.175761 -2.97481 0
M  V30 11582 H 1051.45 -0.0985046 -1.4677 0
M  V30 11583 H 1053.41 2.24426 -3.51694 0
M  V30 11584 H 1052.04 2.18371 -2.37727 0
M  V30 11585 H 1051.09 0.224251 -3.79738 0
M  V30 11586 H 1052.4 0.512784 -4.96157 0
M  V30 11587 H 1051.56 2.83377 -5.36453 0
M  V30 11588 H 1050.3 2.61116 -4.1191 0
M  V30 11589 H 1049.3 0.729001 -5.44946 0
M  V30 11590 H 1050.53 0.97443 -6.72073 0
M  V30 11591 H 1048.47 3.02919 -5.81873 0
M  V30 11592 H 1048.39 2.08188 -7.26769 0
M  V30 11593 H 1049.66 3.25649 -7.08218 0
M  V30 11594 N 1053.89 1.57202 -0.111913 0
M  V30 11595 C 1054.85 2.13778 0.826534 0
M  V30 11596 C 1055.85 1.07097 1.19945 0
M  V30 11597 O 1057.04 1.32906 1.12613 0
M  V30 11598 C 1054.17 2.6722 2.11675 0
M  V30 11599 H 1055.36 2.98023 0.334975 0
M  V30 11600 H 1052.92 1.55696 0.137256 0
M  V30 11601 H 1053.65 1.86542 2.65278 0
M  V30 11602 H 1053.44 3.45235 1.8589 0
M  V30 11603 H 1054.93 3.10926 2.78774 0
M  V30 11604 N 1055.36 -0.161842 1.56767 0
M  V30 11605 C 1056.61 -0.876925 1.82527 0
M  V30 11606 C 1056.94 -1.81831 0.690492 0
M  V30 11607 O 1056.19 -1.9304 -0.32159 0
M  V30 11608 C 1056.49 -1.69736 3.14522 0
M  V30 11609 C 1056.16 -0.904075 4.41743 0
M  V30 11610 C 1054.82 -0.685168 4.76297 0
M  V30 11611 C 1057.17 -0.348282 5.20035 0
M  V30 11612 C 1054.5 0.10048 5.86614 0
M  V30 11613 C 1056.85 0.424327 6.31175 0
M  V30 11614 C 1055.52 0.653948 6.64289 0
M  V30 11615 H 1054.79 -0.320889 0.667915 0
M  V30 11616 H 1057.43 -0.141338 1.90978 0
M  V30 11617 H 1055.74 -2.50262 3.01456 0
M  V30 11618 H 1057.44 -2.25386 3.31666 0
M  V30 11619 H 1054.03 -1.08474 4.14646 0
M  V30 11620 H 1058.21 -0.504721 4.93727 0
M  V30 11621 H 1053.47 0.288029 6.10721 0
M  V30 11622 H 1057.64 0.862203 6.91042 0
M  V30 11623 H 1055.27 1.26459 7.49608 0
M  V30 11624 N 1056.84 -1.516 -0.430713 0
M  V30 11625 C 1058.09 -1.63829 -1.17657 0
M  V30 11626 C 1058.4 -0.363605 -1.92191 0
M  V30 11627 O 1059.61 -0.365358 -2.6903 0
M  V30 11628 C 1058.07 -2.89357 -2.14011 0
M  V30 11629 C 1057.67 -4.23854 -1.45094 0
M  V30 11630 C 1059.42 -3.10944 -2.88988 0
M  V30 11631 C 1057.32 -5.40526 -2.3997 0
M  V30 11632 H 1056.25 -0.610221 -0.442884 0
M  V30 11633 H 1058.91 -1.78073 -0.442984 0
M  V30 11634 H 1057.29 -2.68762 -2.90832 0
M  V30 11635 H 1058.46 -4.54854 -0.737853 0
M  V30 11636 H 1056.78 -4.08197 -0.822429 0
M  V30 11637 H 1059.37 -3.95286 -3.60074 0
M  V30 11638 H 1059.72 -2.24291 -3.50712 0
M  V30 11639 H 1060.25 -3.3191 -2.19272 0
M  V30 11640 H 1056.99 -6.29459 -1.82925 0
M  V30 11641 H 1056.51 -5.13893 -3.09313 0
M  V30 11642 H 1058.19 -5.72741 -3.00959 0
M  V30 11643 N 1058.32 0.686584 -1.41858 0
M  V30 11644 C 1059.73 1.26682 -1.37145 0
M  V30 11645 C 1060.08 1.96112 -0.058922 0
M  V30 11646 O 1059.21 1.99321 0.842629 0
M  V30 11647 C 1059.8 2.30383 -2.48413 0
M  V30 11648 C 1058.36 2.83961 -2.47069 0
M  V30 11649 C 1057.51 1.58119 -2.27802 0
M  V30 11650 H 1060.46 0.480742 -1.51243 0
M  V30 11651 H 1060.48 3.11868 -2.17987 0
M  V30 11652 H 1059.99 1.79822 -3.43927 0
M  V30 11653 H 1058.09 3.38675 -1.55338 0
M  V30 11654 H 1058.21 3.3378 -3.43697 0
M  V30 11655 H 1056.57 1.84258 -1.75844 0
M  V30 11656 H 1057.35 1.09541 -3.25355 0
M  V30 11657 N 1059.8 1.27835 0.921735 0
M  V30 11658 C 1060.73 1.06874 2.02758 0
M  V30 11659 C 1061.74 0.0229418 1.62784 0
M  V30 11660 O 1062.93 0.265145 1.7652 0
M  V30 11661 C 1060.03 0.60037 3.3354 0
M  V30 11662 C 1059.2 1.71979 4.02172 0
M  V30 11663 C 1058.26 1.24615 5.11231 0
M  V30 11664 O 1057.29 1.94692 5.34868 0
M  V30 11665 N 1058.49 0.105021 5.80405 0
M  V30 11666 H 1061.26 2.02105 2.213 0
M  V30 11667 H 1058.82 1.19481 1.09251 0
M  V30 11668 H 1060.81 0.267281 4.03816 0
M  V30 11669 H 1059.38 -0.258872 3.11526 0
M  V30 11670 H 1058.6 2.22287 3.25549 0
M  V30 11671 H 1059.89 2.47092 4.44773 0
M  V30 11672 H 1059.29 -0.479745 5.63662 0
M  V30 11673 H 1057.84 -0.168846 6.51581 0
M  V30 11674 N 1061.28 -1.12907 1.09954 0
M  V30 11675 C 1062.21 -2.20585 0.765799 0
M  V30 11676 C 1063.19 -1.68117 -0.258989 0
M  V30 11677 O 1064.37 -1.93792 -0.125853 0
M  V30 11678 C 1061.5 -3.46772 0.191435 0
M  V30 11679 C 1060.46 -4.12363 1.14635 0
M  V30 11680 C 1059.78 -5.3294 0.433426 0
M  V30 11681 C 1061.08 -4.59073 2.49096 0
M  V30 11682 H 1062.78 -2.48759 1.66612 0
M  V30 11683 H 1060.32 -1.19563 0.802534 0
M  V30 11684 H 1062.27 -4.21365 -0.0541535 0
M  V30 11685 H 1061 -3.18011 -0.744101 0
M  V30 11686 H 1059.66 -3.39744 1.37731 0
M  V30 11687 H 1059.31 -5.00444 -0.506422 0
M  V30 11688 H 1059.01 -5.77772 1.07018 0
M  V30 11689 H 1060.53 -6.10284 0.196267 0
M  V30 11690 H 1061.94 -5.25063 2.30177 0
M  V30 11691 H 1060.34 -5.14665 3.0861 0
M  V30 11692 H 1061.41 -3.73313 3.0946 0
M  V30 11693 N 1062.75 -0.88754 -1.30232 0
M  V30 11694 C 1063.68 -0.372481 -2.3051 0
M  V30 11695 C 1064.66 0.546037 -1.61098 0
M  V30 11696 O 1065.85 0.459345 -1.88689 0
M  V30 11697 C 1062.98 0.411605 -3.44852 0
M  V30 11698 C 1061.93 -0.415383 -4.2598 0
M  V30 11699 C 1061.26 0.495463 -5.324 0
M  V30 11700 C 1062.56 -1.65886 -4.95257 0
M  V30 11701 H 1064.25 -1.21045 -2.7384 0
M  V30 11702 H 1061.8 -0.583498 -1.31648 0
M  V30 11703 H 1063.75 0.782584 -4.1407 0
M  V30 11704 H 1062.48 1.28325 -3.00334 0
M  V30 11705 H 1061.14 -0.768534 -3.58454 0
M  V30 11706 H 1060.78 1.36489 -4.84128 0
M  V30 11707 H 1060.48 -0.0540885 -5.87575 0
M  V30 11708 H 1062.01 0.862901 -6.04472 0
M  V30 11709 H 1063.42 -1.35832 -5.56976 0
M  V30 11710 H 1061.82 -2.14881 -5.60309 0
M  V30 11711 H 1062.89 -2.40181 -4.21237 0
M  V30 11712 N 1064.23 1.43628 -0.648757 0
M  V30 11713 C 1065.46 2.06732 -0.166284 0
M  V30 11714 C 1065.88 1.48281 1.15734 0
M  V30 11715 O 1065.24 0.591018 1.71396 0
M  V30 11716 C 1065.29 3.60502 -0.0838732 0
M  V30 11717 O 1064.39 4.01186 0.955185 0
M  V30 11718 H 1063.73 0.657479 -0.0928285 0
M  V30 11719 H 1066.26 1.84208 -0.890421 0
M  V30 11720 H 1066.27 4.07875 0.100923 0
M  V30 11721 H 1064.95 4.02424 -1.05014 0
M  V30 11722 H 1063.53 3.65412 0.743537 0
M  V30 11723 N 1065.71 0.390394 1.52688 0
M  V30 11724 C 1067.13 0.0404028 1.59549 0
M  V30 11725 C 1067.33 -1.44503 1.40432 0
M  V30 11726 O 1066.38 -2.20968 1.22187 0
M  V30 11727 C 1067.7 0.518561 2.96195 0
M  V30 11728 C 1069.24 0.474913 3.09376 0
M  V30 11729 C 1069.72 0.929278 4.48473 0
M  V30 11730 N 1071.21 0.885335 4.5466 0
M  V30 11731 C 1071.94 1.2083 5.60524 0
M  V30 11732 N 1071.44 1.6018 6.74028 0
M  V30 11733 N 1073.23 1.12949 5.50635 0
M  V30 11734 H 1065.38 1.35743 1.63363 0
M  V30 11735 H 1067.65 0.556453 0.767505 0
M  V30 11736 H 1067.35 1.55606 3.15404 0
M  V30 11737 H 1067.23 -0.081779 3.77111 0
M  V30 11738 H 1069.61 -0.553503 2.89863 0
M  V30 11739 H 1069.7 1.11107 2.3041 0
M  V30 11740 H 1069.34 1.95593 4.68728 0
M  V30 11741 H 1069.27 0.270121 5.25907 0
M  V30 11742 H 1071.76 0.595787 3.73174 0
M  V30 11743 H 1072.07 1.83184 7.50775 0
M  V30 11744 H 1070.42 1.64067 6.75357 0
M  V30 11745 H 1073.61 0.821074 4.60843 0
M  V30 11746 H 1073.78 1.3845 6.33037 0
M  V30 11747 N 1067.19 -1.57141 0.120249 0
M  V30 11748 C 1068.12 -2.18398 -0.826112 0
M  V30 11749 C 1069.1 -1.12439 -1.27638 0
M  V30 11750 O 1070.28 -1.40679 -1.33877 0
M  V30 11751 C 1067.41 -2.78438 -2.0758 0
M  V30 11752 C 1066.37 -3.89991 -1.76327 0
M  V30 11753 C 1065.69 -4.36844 -3.08336 0
M  V30 11754 C 1066.99 -5.12031 -1.03062 0
M  V30 11755 H 1068.69 -2.97731 -0.315656 0
M  V30 11756 H 1066.23 -1.43213 -0.150387 0
M  V30 11757 H 1068.19 -3.19951 -2.74243 0
M  V30 11758 H 1066.91 -1.96396 -2.60953 0
M  V30 11759 H 1065.57 -3.49055 -1.12053 0
M  V30 11760 H 1065.22 -3.51659 -3.59646 0
M  V30 11761 H 1064.92 -5.1207 -2.88199 0
M  V30 11762 H 1066.44 -4.81009 -3.76116 0
M  V30 11763 H 1067.86 -5.50555 -1.59881 0
M  V30 11764 H 1066.25 -5.92848 -0.930146 0
M  V30 11765 H 1067.32 -4.84897 -0.017582 0
M  V30 11766 N 1068.67 0.153526 -1.5685 0
M  V30 11767 C 1069.62 1.19478 -1.94188 0
M  V30 11768 C 1070.6 1.38889 -0.812329 0
M  V30 11769 O 1071.79 1.4056 -1.07572 0
M  V30 11770 C 1068.92 2.53 -2.32047 0
M  V30 11771 C 1068.01 2.37209 -3.51557 0
M  V30 11772 N 1068.4 1.91162 -4.68285 0
M  V30 11773 C 1066.7 2.67981 -3.56514 0
M  V30 11774 C 1067.4 1.88259 -5.50394 0
M  V30 11775 N 1066.37 2.31329 -4.91923 0
M  V30 11776 H 1070.18 0.830748 -2.81915 0
M  V30 11777 H 1067.69 0.361643 -1.58322 0
M  V30 11778 H 1069.69 3.28264 -2.56998 0
M  V30 11779 H 1068.35 2.90191 -1.45669 0
M  V30 11780 H 1069.36 1.61227 -4.92165 0
M  V30 11781 H 1066.03 3.0909 -2.80659 0
M  V30 11782 H 1067.42 1.54205 -6.53965 0
M  V30 11783 N 1070.14 1.51827 0.422667 0
M  V30 11784 C 1071.39 1.6445 1.16786 0
M  V30 11785 C 1071.71 0.373792 1.91995 0
M  V30 11786 O 1072.91 0.379621 2.68833 0
M  V30 11787 C 1071.37 2.90488 2.12473 0
M  V30 11788 C 1070.98 4.24617 1.42844 0
M  V30 11789 C 1072.72 3.12472 2.87335 0
M  V30 11790 C 1070.63 5.41791 2.371 0
M  V30 11791 H 1069.56 0.612561 0.439641 0
M  V30 11792 H 1072.21 1.78305 0.433534 0
M  V30 11793 H 1070.59 2.703 2.89402 0
M  V30 11794 H 1071.76 4.55239 0.71372 0
M  V30 11795 H 1070.08 4.08628 0.800769 0
M  V30 11796 H 1072.68 3.9719 3.57973 0
M  V30 11797 H 1073.02 2.26148 3.49518 0
M  V30 11798 H 1073.55 3.33069 2.17509 0
M  V30 11799 H 1070.29 6.3042 1.79584 0
M  V30 11800 H 1069.81 5.15526 3.06583 0
M  V30 11801 H 1071.49 5.74329 2.97918 0
M  V30 11802 N 1071.62 -0.679052 1.4222 0
M  V30 11803 C 1072.53 -1.82221 1.47759 0
M  V30 11804 C 1073.55 -1.70092 0.3667 0
M  V30 11805 O 1074.72 -1.91718 0.616957 0
M  V30 11806 C 1071.79 -3.18332 1.37351 0
M  V30 11807 C 1070.85 -3.42449 2.58896 0
M  V30 11808 C 1070.08 -4.72067 2.48976 0
M  V30 11809 O 1070.31 -5.49683 1.5233 0
M  V30 11810 O 1069.24 -4.97333 3.39033 0
M  V30 11811 H 1073.07 -1.80504 2.44238 0
M  V30 11812 H 1070.65 -0.834251 1.23938 0
M  V30 11813 H 1072.53 -3.99563 1.33893 0
M  V30 11814 H 1071.21 -3.20696 0.439965 0
M  V30 11815 H 1070.12 -2.61083 2.6793 0
M  V30 11816 H 1071.45 -3.44912 3.51136 0
M  V30 11817 N 1073.1 -1.28322 -0.914942 0
M  V30 11818 C 1074.06 -1.12169 -1.99877 0
M  V30 11819 C 1075.06 -0.0617252 -1.60681 0
M  V30 11820 O 1076.25 -0.307405 -1.71466 0
M  V30 11821 C 1073.39 -0.711959 -3.33383 0
M  V30 11822 H 1074.58 -2.08425 -2.15636 0
M  V30 11823 H 1072.13 -1.11291 -1.09745 0
M  V30 11824 H 1072.87 0.251418 -3.23324 0
M  V30 11825 H 1072.65 -1.47764 -3.63192 0
M  V30 11826 H 1074.14 -0.621558 -4.12948 0
M  V30 11827 N 1074.58 1.12322 -1.10551 0
M  V30 11828 C 1075.51 2.20176 -0.777486 0
M  V30 11829 C 1076.49 1.68252 0.250069 0
M  V30 11830 O 1077.67 1.93856 0.115574 0
M  V30 11831 C 1074.8 3.46666 -0.209822 0
M  V30 11832 C 1073.76 4.11749 -1.1682 0
M  V30 11833 C 1073.08 5.32703 -0.461684 0
M  V30 11834 C 1074.38 4.57746 -2.51527 0
M  V30 11835 H 1076.08 2.47872 -1.67928 0
M  V30 11836 H 1073.62 1.19136 -0.808863 0
M  V30 11837 H 1075.58 4.21388 0.0318068 0
M  V30 11838 H 1074.3 3.18401 0.727226 0
M  V30 11839 H 1072.96 3.39009 -1.3953 0
M  V30 11840 H 1072.61 5.00706 0.479875 0
M  V30 11841 H 1072.31 5.77197 -1.1008 0
M  V30 11842 H 1073.83 6.10172 -0.228629 0
M  V30 11843 H 1075.25 5.23835 -2.32958 0
M  V30 11844 H 1073.64 5.13021 -3.11335 0
M  V30 11845 H 1074.71 3.71667 -3.11435 0
M  V30 11846 N 1076.06 0.894434 1.2976 0
M  V30 11847 C 1076.99 0.3847 2.30309 0
M  V30 11848 C 1077.97 -0.537486 1.61385 0
M  V30 11849 O 1079.15 -0.449332 1.8893 0
M  V30 11850 C 1076.28 -0.393311 3.45066 0
M  V30 11851 C 1075.24 0.437968 4.25753 0
M  V30 11852 C 1074.56 -0.467221 5.32655 0
M  V30 11853 C 1075.86 1.6851 4.9437 0
M  V30 11854 H 1077.56 1.22496 2.73194 0
M  V30 11855 H 1075.1 0.590471 1.31337 0
M  V30 11856 H 1077.06 -0.760614 4.14479 0
M  V30 11857 H 1075.78 -1.2673 3.0101 0
M  V30 11858 H 1074.44 0.787533 3.58041 0
M  V30 11859 H 1074.09 -1.33919 4.84845 0
M  V30 11860 H 1073.79 0.0852482 5.87538 0
M  V30 11861 H 1075.31 -0.830833 6.04921 0
M  V30 11862 H 1076.72 1.38784 5.56248 0
M  V30 11863 H 1075.12 2.17849 5.59162 0
M  V30 11864 H 1076.19 2.42412 4.19958 0
M  V30 11865 N 1077.53 -1.43282 0.656365 0
M  V30 11866 C 1078.48 -2.27932 -0.0557069 0
M  V30 11867 C 1079.47 -1.40075 -0.791698 0
M  V30 11868 O 1080.66 -1.6368 -0.673646 0
M  V30 11869 C 1077.79 -3.27821 -1.01923 0
M  V30 11870 C 1076.88 -4.23164 -0.281545 0
M  V30 11871 N 1077.27 -5.00882 0.703629 0
M  V30 11872 C 1075.56 -4.42928 -0.522558 0
M  V30 11873 C 1076.27 -5.70384 1.14177 0
M  V30 11874 N 1075.24 -5.41517 0.475394 0
M  V30 11875 H 1079.04 -2.85437 0.70022 0
M  V30 11876 H 1076.56 -1.55023 0.483902 0
M  V30 11877 H 1078.55 -3.87248 -1.54418 0
M  V30 11878 H 1077.21 -2.71878 -1.77518 0
M  V30 11879 H 1078.23 -5.06461 1.08247 0
M  V30 11880 H 1074.9 -3.98051 -1.25944 0
M  V30 11881 H 1076.29 -6.42765 1.95711 0
M  V30 11882 N 1079.01 -0.398486 -1.52479 0
M  V30 11883 C 1080.26 0.180394 -2.01293 0
M  V30 11884 C 1080.58 1.46548 -1.28641 0
M  V30 11885 O 1079.85 1.91579 -0.409173 0
M  V30 11886 H 1078.43 0.0696528 -0.743746 0
M  V30 11887 H 1081.09 -0.532285 -1.87491 0
M  V30 11888 H 1080.19 0.38409 -3.09728 0
M  V30 11889 N 1080.49 1.57075 -0.12858 0
M  V30 11890 C 1081.44 2.17084 0.835308 0
M  V30 11891 C 1082.43 1.12268 1.26855 0
M  V30 11892 O 1083.64 1.30554 1.23917 0
M  V30 11893 H 1080.01 0.694866 0.287516 0
M  V30 11894 H 1081.99 2.96839 0.304798 0
M  V30 11895 C 1080.73 2.79237 2.07177 0
M  V30 11896 H 1080.06 3.59594 1.74735 0
M  V30 11897 H 1081.5 3.24751 2.72604 0
M  V30 11898 C 1079.96 1.76803 2.86779 0
M  V30 11899 O 1080.49 1.22723 3.82494 0
M  V30 11900 N 1078.69 1.46525 2.50956 0
M  V30 11901 H 1078.24 1.90694 1.73187 0
M  V30 11902 H 1078.2 0.782326 3.04511 0
M  V30 11903 N 1081.97 -0.145205 1.5693 0
M  V30 11904 C 1083.22 -0.855955 1.82637 0
M  V30 11905 C 1083.53 -1.82255 0.710109 0
M  V30 11906 O 1084.74 -2.57758 0.852837 0
M  V30 11907 C 1083.19 -1.57278 3.23715 0
M  V30 11908 C 1082.8 -0.648507 4.43281 0
M  V30 11909 C 1084.55 -2.27021 3.58695 0
M  V30 11910 C 1082.45 -1.36706 5.75383 0
M  V30 11911 H 1081.38 -0.323385 0.68113 0
M  V30 11912 H 1084.03 -0.10869 1.83178 0
M  V30 11913 H 1082.42 -2.36574 3.17567 0
M  V30 11914 H 1083.59 0.109355 4.6067 0
M  V30 11915 H 1081.9 -0.0594029 4.16358 0
M  V30 11916 H 1084.5 -2.81423 4.54648 0
M  V30 11917 H 1084.84 -3.03598 2.8484 0
M  V30 11918 H 1085.38 -1.54642 3.66512 0
M  V30 11919 H 1082.12 -0.6431 6.52338 0
M  V30 11920 H 1081.64 -2.09759 5.61926 0
M  V30 11921 H 1083.32 -1.90748 6.18243 0
M  V30 11922 N 1083.45 -1.52049 -0.414609 0
M  V30 11923 C 1084.68 -1.69679 -1.18392 0
M  V30 11924 C 1085.09 -0.403881 -1.84429 0
M  V30 11925 O 1084.45 0.619636 -1.71659 0
M  V30 11926 C 1084.5 -2.82855 -2.25112 0
M  V30 11927 O 1084.22 -4.07138 -1.61772 0
M  V30 11928 C 1085.72 -3.11948 -3.14965 0
M  V30 11929 H 1082.94 -0.56879 -0.355977 0
M  V30 11930 H 1085.48 -1.9858 -0.488505 0
M  V30 11931 H 1083.64 -2.56488 -2.90332 0
M  V30 11932 H 1084.05 -4.70163 -2.32479 0
M  V30 11933 H 1085.53 -3.94665 -3.85932 0
M  V30 11934 H 1086 -2.25276 -3.77024 0
M  V30 11935 H 1086.61 -3.40059 -2.55421 0
M  V30 11936 N 1084.93 0.6715 -1.42579 0
M  V30 11937 C 1085.87 1.78496 -1.46314 0
M  V30 11938 C 1086.84 1.63091 -0.314743 0
M  V30 11939 O 1088.03 1.83597 -0.519292 0
M  V30 11940 C 1085.17 3.16548 -1.37447 0
M  V30 11941 C 1084.28 3.43216 -2.62348 0
M  V30 11942 C 1083.42 4.71014 -2.456 0
M  V30 11943 C 1082.45 4.90728 -3.65859 0
M  V30 11944 N 1081.59 6.09769 -3.48032 0
M  V30 11945 H 1086.43 1.74638 -2.41466 0
M  V30 11946 H 1083.97 0.852491 -1.19879 0
M  V30 11947 H 1085.93 3.96329 -1.30303 0
M  V30 11948 H 1084.56 3.19522 -0.458891 0
M  V30 11949 H 1083.61 2.57664 -2.79846 0
M  V30 11950 H 1084.92 3.53675 -3.51732 0
M  V30 11951 H 1084.07 5.58892 -2.3606 0
M  V30 11952 H 1082.81 4.62843 -1.53712 0
M  V30 11953 H 1081.82 4.01291 -3.75827 0
M  V30 11954 H 1083.04 5.00741 -4.58732 0
M  V30 11955 H 1080.99 6.02765 -2.58864 0
M  V30 11956 H 1080.91 6.21104 -4.31005 0
M  V30 11957 H 1082.17 7.00317 -3.42311 0
M  V30 11958 N 1086.4 1.28806 0.908124 0
M  V30 11959 C 1087.34 1.09018 2.01613 0
M  V30 11960 C 1088.35 0.0402059 1.6275 0
M  V30 11961 O 1089.54 0.283853 1.76229 0
M  V30 11962 C 1086.64 0.635712 3.32884 0
M  V30 11963 C 1085.81 1.76235 4.00325 0
M  V30 11964 C 1084.87 1.3003 5.09881 0
M  V30 11965 O 1083.9 2.00354 5.32773 0
M  V30 11966 N 1085.1 0.166575 5.80261 0
M  V30 11967 H 1087.86 2.0444 2.19144 0
M  V30 11968 H 1085.42 1.20633 1.07978 0
M  V30 11969 H 1087.42 0.310097 4.0351 0
M  V30 11970 H 1085.99 -0.225816 3.11783 0
M  V30 11971 H 1085.21 2.25727 3.23173 0
M  V30 11972 H 1086.49 2.51796 4.42127 0
M  V30 11973 H 1085.89 -0.419934 5.64139 0
M  V30 11974 H 1084.45 -0.0997281 6.51724 0
M  V30 11975 N 1087.88 -1.11734 1.11145 0
M  V30 11976 C 1088.84 -2.15868 0.770303 0
M  V30 11977 C 1089.84 -1.59438 -0.208842 0
M  V30 11978 O 1091.03 -1.74193 0.0152516 0
M  V30 11979 C 1088.17 -3.40603 0.142303 0
M  V30 11980 H 1089.36 -2.4756 1.69276 0
M  V30 11981 H 1086.91 -1.26867 0.912929 0
M  V30 11982 H 1087.65 -3.14517 -0.790526 0
M  V30 11983 H 1087.43 -3.8284 0.847087 0
M  V30 11984 H 1088.92 -4.17523 -0.0803608 0
M  V30 11985 N 1089.36 -0.901303 -1.29284 0
M  V30 11986 C 1090.32 -0.385081 -2.25942 0
M  V30 11987 C 1091.32 0.481626 -1.53418 0
M  V30 11988 O 1092.51 0.286451 -1.71829 0
M  V30 11989 C 1089.64 0.449319 -3.37926 0
M  V30 11990 H 1090.84 -1.23877 -2.7312 0
M  V30 11991 H 1088.39 -0.679586 -1.40753 0
M  V30 11992 H 1089.13 1.32292 -2.9609 0
M  V30 11993 H 1088.91 -0.171731 -3.91724 0
M  V30 11994 H 1090.4 0.801746 -4.09831 0
M  V30 11995 N 1090.84 1.42931 -0.663954 0
M  V30 11996 C 1091.77 2.33499 0.00731327 0
M  V30 11997 C 1092.75 1.50074 0.800733 0
M  V30 11998 O 1093.93 1.78708 0.760062 0
M  V30 11999 C 1091.06 3.33569 0.966897 0
M  V30 12000 C 1090.02 4.27064 0.282839 0
M  V30 12001 C 1089.34 5.17257 1.35461 0
M  V30 12002 C 1090.64 5.1564 -0.831438 0
M  V30 12003 H 1092.34 2.89879 -0.749044 0
M  V30 12004 H 1089.88 1.39385 -0.361656 0
M  V30 12005 H 1091.84 3.95833 1.44549 0
M  V30 12006 H 1090.56 2.75469 1.75455 0
M  V30 12007 H 1089.22 3.6618 -0.175417 0
M  V30 12008 H 1088.87 4.5549 2.13397 0
M  V30 12009 H 1088.57 5.80634 0.902098 0
M  V30 12010 H 1090.09 5.82395 1.83436 0
M  V30 12011 H 1091.51 5.71651 -0.434534 0
M  V30 12012 H 1089.9 5.87794 -1.20908 0
M  V30 12013 H 1090.97 4.54687 -1.68487 0
M  V30 12014 N 1092.32 0.406567 1.52266 0
M  V30 12015 C 1093.56 -0.169717 2.01386 0
M  V30 12016 C 1093.88 -1.45864 1.29417 0
M  V30 12017 O 1093.15 -1.9136 0.419327 0
M  V30 12018 H 1091.73 -0.0657075 0.744105 0
M  V30 12019 H 1094.4 0.542221 1.87206 0
M  V30 12020 H 1093.49 -0.367659 3.09927 0
M  V30 12021 N 1093.79 -1.57004 0.136909 0
M  V30 12022 C 1095.04 -1.94972 -0.51662 0
M  V30 12023 C 1095.36 -1.02367 -1.66674 0
M  V30 12024 O 1096.56 -1.29873 -2.38423 0
M  V30 12025 C 1095.02 -3.4657 -0.970435 0
M  V30 12026 C 1094.63 -4.47741 0.152204 0
M  V30 12027 C 1096.37 -3.93423 -1.59432 0
M  V30 12028 C 1094.28 -5.90537 -0.319315 0
M  V30 12029 H 1093.21 -0.727873 -0.196766 0
M  V30 12030 H 1095.86 -1.82181 0.219637 0
M  V30 12031 H 1094.24 -3.54657 -1.76165 0
M  V30 12032 H 1095.41 -4.5134 0.928925 0
M  V30 12033 H 1093.73 -4.10746 0.683867 0
M  V30 12034 H 1096.33 -4.97539 -1.95856 0
M  V30 12035 H 1096.67 -3.34404 -2.47951 0
M  V30 12036 H 1097.2 -3.8821 -0.868193 0
M  V30 12037 H 1093.94 -6.53352 0.530248 0
M  V30 12038 H 1093.46 -5.90321 -1.06213 0
M  V30 12039 H 1095.14 -6.42346 -0.774662 0
M  V30 12040 N 1095.27 0.136881 -1.57004 0
M  V30 12041 C 1096.21 1.19853 -1.94192 0
M  V30 12042 C 1097.18 1.4104 -0.809103 0
M  V30 12043 O 1098.37 1.55487 -1.06565 0
M  V30 12044 C 1095.49 2.55565 -2.22271 0
M  V30 12045 C 1094.54 2.50913 -3.44884 0
M  V30 12046 S 1095.37 1.96619 -4.98098 0
M  V30 12047 C 1096.53 3.34039 -5.2931 0
M  V30 12048 H 1096.76 0.881316 -2.83937 0
M  V30 12049 H 1094.3 0.342915 -1.50544 0
M  V30 12050 H 1096.25 3.33659 -2.39127 0
M  V30 12051 H 1094.91 2.84472 -1.33172 0
M  V30 12052 H 1094.11 3.50839 -3.6184 0
M  V30 12053 H 1093.71 1.80932 -3.27322 0
M  V30 12054 H 1096 4.30189 -5.23397 0
M  V30 12055 H 1096.94 3.21927 -6.30689 0
M  V30 12056 H 1097.35 3.31642 -4.56808 0
M  V30 12057 N 1096.75 1.52266 0.40654 0
M  V30 12058 C 1097.68 1.72025 1.51459 0
M  V30 12059 C 1098.7 0.600667 1.51314 0
M  V30 12060 O 1099.88 0.875894 1.55532 0
M  V30 12061 C 1096.98 1.7479 2.90348 0
M  V30 12062 C 1096.16 3.03826 3.14656 0
M  V30 12063 C 1095.22 2.98369 4.33431 0
M  V30 12064 O 1094.24 3.7227 4.30586 0
M  V30 12065 N 1095.44 2.16338 5.38682 0
M  V30 12066 H 1098.21 2.67622 1.34903 0
M  V30 12067 H 1095.77 1.50536 0.595867 0
M  V30 12068 H 1097.76 1.68667 3.67877 0
M  V30 12069 H 1096.33 0.86656 3.00349 0
M  V30 12070 H 1095.55 3.23577 2.25148 0
M  V30 12071 H 1096.84 3.89182 3.27742 0
M  V30 12072 H 1096.24 1.55731 5.43842 0
M  V30 12073 H 1094.8 2.1607 6.14945 0
M  V30 12074 N 1098.23 -0.663929 1.42933 0
M  V30 12075 C 1099.16 -1.78876 1.41699 0
M  V30 12076 C 1100.14 -1.60174 0.27981 0
M  V30 12077 O 1101.32 -1.82502 0.471735 0
M  V30 12078 C 1098.45 -3.1603 1.2183 0
M  V30 12079 C 1097.5 -3.53457 2.38685 0
M  V30 12080 S 1098.33 -3.54648 4.01229 0
M  V30 12081 C 1099.49 -4.94477 3.83723 0
M  V30 12082 H 1099.72 -1.7965 2.36882 0
M  V30 12083 H 1097.25 -0.835596 1.29835 0
M  V30 12084 H 1099.21 -3.95193 1.11054 0
M  V30 12085 H 1097.87 -3.1283 0.282139 0
M  V30 12086 H 1097.06 -4.53178 2.20559 0
M  V30 12087 H 1096.67 -2.81681 2.46032 0
M  V30 12088 H 1098.96 -5.82851 3.45386 0
M  V30 12089 H 1099.9 -5.17652 4.83158 0
M  V30 12090 H 1100.31 -4.67507 3.16382 0
M  V30 12091 N 1099.71 -1.29285 -0.901281 0
M  V30 12092 C 1100.95 -1.17339 -1.65407 0
M  V30 12093 C 1101.29 0.274834 -1.92245 0
M  V30 12094 O 1100.56 1.19865 -1.53176 0
M  V30 12095 C 1100.84 -1.98547 -3.00418 0
M  V30 12096 C 1100.7 -3.51501 -2.80655 0
M  V30 12097 C 1102.02 -1.81062 -4.01129 0
M  V30 12098 H 1099.13 -0.427624 -0.600255 0
M  V30 12099 H 1101.78 -1.58741 -1.0441 0
M  V30 12100 H 1099.93 -1.63366 -3.52482 0
M  V30 12101 H 1101.6 -3.96655 -2.35505 0
M  V30 12102 H 1099.84 -3.76504 -2.15469 0
M  V30 12103 H 1100.51 -4.03593 -3.76585 0
M  V30 12104 H 1102.99 -2.11788 -3.58169 0
M  V30 12105 H 1101.86 -2.40235 -4.93536 0
M  V30 12106 H 1102.13 -0.765388 -4.35424 0
M  V30 12107 N 1101.18 1.11143 -1.11736 0
M  V30 12108 C 1102.09 2.20851 -0.791331 0
M  V30 12109 C 1103.11 1.72644 0.216833 0
M  V30 12110 O 1104.29 2.01332 0.0522401 0
M  V30 12111 C 1101.35 3.4585 -0.242694 0
M  V30 12112 C 1100.41 4.08829 -1.30986 0
M  V30 12113 C 1099.65 5.27861 -0.787305 0
M  V30 12114 O 1099.87 5.69122 0.381549 0
M  V30 12115 O 1098.8 5.81506 -1.55352 0
M  V30 12116 H 1102.63 2.51158 -1.70744 0
M  V30 12117 H 1100.21 1.19739 -0.893478 0
M  V30 12118 H 1102.1 4.21359 0.0587472 0
M  V30 12119 H 1100.77 3.17187 0.646079 0
M  V30 12120 H 1099.68 3.35037 -1.66436 0
M  V30 12121 H 1101.01 4.41678 -2.17213 0
M  V30 12122 N 1102.66 0.908147 1.28804 0
M  V30 12123 C 1103.94 0.457561 1.90173 0
M  V30 12124 C 1104.32 -1.06333 1.82364 0
M  V30 12125 O 1103.67 -1.90892 1.25589 0
M  V30 12126 C 1103.88 0.981624 3.34911 0
M  V30 12127 C 1105.23 1.03037 4.11908 0
M  V30 12128 O 1106.25 0.929878 3.43848 0
M  V30 12129 O 1105.11 1.18257 5.33552 0
M  V30 12130 H 1102.2 0.144081 0.814352 0
M  V30 12131 H 1104.75 0.998565 1.37211 0
M  V30 12132 H 1103.52 2.02561 3.34791 0
M  V30 12133 H 1103.14 0.421122 3.95364 0
M  V30 12134 N 1104.14 -1.42577 0.671525 0
M  V30 12135 C 1105.37 -2.05924 0.200731 0
M  V30 12136 C 1105.78 -1.50434 -1.14083 0
M  V30 12137 O 1105.14 -0.642845 -1.70803 0
M  V30 12138 C 1105.19 -3.61289 0.123505 0
M  V30 12139 O 1104.91 -4.1472 1.41205 0
M  V30 12140 C 1106.41 -4.41743 -0.371178 0
M  V30 12141 H 1103.63 -0.663746 0.0983958 0
M  V30 12142 H 1106.18 -1.82771 0.917338 0
M  V30 12143 H 1104.33 -3.83565 -0.543769 0
M  V30 12144 H 1104.75 -5.0856 1.28325 0
M  V30 12145 H 1106.22 -5.50731 -0.374128 0
M  V30 12146 H 1106.7 -4.16092 -1.40585 0
M  V30 12147 H 1107.3 -4.24478 0.264244 0
M  V30 12148 N 1105.62 -0.414636 -1.52048 0
M  V30 12149 C 1106.55 0.399119 -2.30064 0
M  V30 12150 C 1107.53 1.04126 -1.34506 0
M  V30 12151 O 1108.71 1.04923 -1.63416 0
M  V30 12152 C 1105.84 1.51305 -3.12608 0
M  V30 12153 C 1104.8 0.995621 -4.16259 0
M  V30 12154 C 1104.12 2.20357 -4.87183 0
M  V30 12155 C 1105.42 0.0458178 -5.2228 0
M  V30 12156 H 1107.12 -0.251879 -2.98339 0
M  V30 12157 H 1104.66 -0.122579 -1.43477 0
M  V30 12158 H 1106.62 2.08936 -3.65956 0
M  V30 12159 H 1105.34 2.19201 -2.42113 0
M  V30 12160 H 1104 0.441676 -3.6393 0
M  V30 12161 H 1103.65 2.8682 -4.13211 0
M  V30 12162 H 1103.35 1.86385 -5.57256 0
M  V30 12163 H 1104.87 2.78584 -5.43345 0
M  V30 12164 H 1106.29 0.531102 -5.70835 0
M  V30 12165 H 1104.68 -0.20536 -5.99749 0
M  V30 12166 H 1105.75 -0.897807 -4.76516 0
M  V30 12167 N 1107.1 1.56929 -0.145233 0
M  V30 12168 C 1108.35 1.95243 0.506273 0
M  V30 12169 C 1108.66 1.0325 1.66129 0
M  V30 12170 O 1109.86 1.31135 2.37731 0
M  V30 12171 C 1108.32 3.47079 0.952042 0
M  V30 12172 C 1107.93 4.47654 -0.175947 0
M  V30 12173 C 1109.67 3.94263 1.57344 0
M  V30 12174 C 1107.58 5.90698 0.287993 0
M  V30 12175 H 1106.51 0.728906 0.192903 0
M  V30 12176 H 1109.16 1.82062 -0.229295 0
M  V30 12177 H 1107.54 3.55587 1.74282 0
M  V30 12178 H 1108.72 4.50841 -0.952848 0
M  V30 12179 H 1107.03 4.10377 -0.70564 0
M  V30 12180 H 1109.63 4.9857 1.93214 0
M  V30 12181 H 1109.97 3.35714 2.46174 0
M  V30 12182 H 1110.5 3.88665 0.847593 0
M  V30 12183 H 1107.24 6.53061 -0.564889 0
M  V30 12184 H 1106.76 5.90876 1.03081 0
M  V30 12185 H 1108.44 6.42747 0.740586 0
M  V30 12186 N 1108.58 -0.128553 1.57075 0
M  V30 12187 C 1109.49 -1.17718 2.02927 0
M  V30 12188 C 1110.5 -1.45912 0.947932 0
M  V30 12189 O 1111.68 -1.57217 1.25876 0
M  V30 12190 C 1108.74 -2.48625 2.41633 0
M  V30 12191 C 1107.8 -2.27914 3.63804 0
M  V30 12192 C 1107.04 -3.52579 4.00654 0
M  V30 12193 O 1107.26 -4.59505 3.37952 0
M  V30 12194 O 1106.19 -3.44147 4.93808 0
M  V30 12195 H 1110.02 -0.817846 2.92481 0
M  V30 12196 H 1107.6 -0.338649 1.45511 0
M  V30 12197 H 1109.49 -3.2577 2.67305 0
M  V30 12198 H 1108.16 -2.84052 1.55229 0
M  V30 12199 H 1107.07 -1.4866 3.43294 0
M  V30 12200 H 1108.4 -1.97395 4.50883 0
M  V30 12201 N 1110.05 -1.5248 -0.398459 0
M  V30 12202 C 1111 -1.72965 -1.4855 0
M  V30 12203 C 1111.99 -0.583628 -1.49942 0
M  V30 12204 O 1113.18 -0.841106 -1.55738 0
M  V30 12205 C 1110.31 -1.89339 -2.86366 0
M  V30 12206 C 1109.39 -3.09845 -2.8958 0
M  V30 12207 N 1109.79 -4.32365 -2.62477 0
M  V30 12208 C 1108.08 -3.09897 -3.20749 0
M  V30 12209 C 1108.78 -5.13908 -2.72532 0
M  V30 12210 N 1107.76 -4.49387 -3.05864 0
M  V30 12211 H 1111.56 -2.65327 -1.26406 0
M  V30 12212 H 1109.08 -1.50658 -0.606299 0
M  V30 12213 H 1111.07 -2.02134 -3.64619 0
M  V30 12214 H 1109.73 -0.981841 -3.095 0
M  V30 12215 H 1110.74 -4.60659 -2.36673 0
M  V30 12216 H 1107.42 -2.28518 -3.49408 0
M  V30 12217 H 1108.81 -6.21548 -2.55202 0
M  V30 12218 N 1111.53 0.65634 -1.43283 0
M  V30 12219 C 1112.49 1.75117 -1.47874 0
M  V30 12220 C 1113.49 1.56629 -0.363846 0
M  V30 12221 O 1114.68 1.62584 -0.625464 0
M  V30 12222 C 1111.82 3.13957 -1.32831 0
M  V30 12223 H 1113.01 1.72429 -2.45374 0
M  V30 12224 H 1110.56 0.867704 -1.30002 0
M  V30 12225 H 1111.3 3.22259 -0.36326 0
M  V30 12226 H 1111.08 3.28781 -2.13649 0
M  V30 12227 H 1112.57 3.93799 -1.38969 0
M  V30 12228 N 1113.01 1.29761 0.894412 0
M  V30 12229 C 1113.96 1.11962 1.98617 0
M  V30 12230 C 1114.94 0.0374952 1.60856 0
M  V30 12231 O 1116.14 0.259789 1.75083 0
M  V30 12232 C 1113.26 0.803708 3.3376 0
M  V30 12233 C 1112.35 1.92563 3.77863 0
M  V30 12234 N 1112.74 3.16983 3.94152 0
M  V30 12235 C 1111.04 1.81986 4.07182 0
M  V30 12236 C 1111.74 3.90212 4.31404 0
M  V30 12237 N 1110.72 3.18194 4.40742 0
M  V30 12238 H 1114.52 2.06339 2.09287 0
M  V30 12239 H 1112.03 1.20963 1.08359 0
M  V30 12240 H 1114.03 0.657223 4.11687 0
M  V30 12241 H 1112.69 -0.132098 3.24431 0
M  V30 12242 H 1113.7 3.52378 3.79539 0
M  V30 12243 H 1110.38 0.957112 4.06381 0
M  V30 12244 H 1111.77 4.97312 4.51808 0
M  V30 12245 N 1114.49 -1.10549 1.12324 0
M  V30 12246 C 1115.72 -1.8627 0.900618 0
M  V30 12247 C 1116.13 -1.80609 -0.550069 0
M  V30 12248 O 1115.49 -1.19396 -1.38025 0
M  V30 12249 C 1115.54 -3.34716 1.36556 0
M  V30 12250 O 1115.26 -3.40279 2.75938 0
M  V30 12251 C 1116.76 -4.27315 1.17969 0
M  V30 12252 H 1113.98 -0.588741 0.321908 0
M  V30 12253 H 1116.52 -1.39759 1.49291 0
M  V30 12254 H 1114.68 -3.78697 0.81652 0
M  V30 12255 H 1115.09 -4.32781 2.96312 0
M  V30 12256 H 1116.57 -5.29677 1.55391 0
M  V30 12257 H 1117.04 -4.39036 0.120158 0
M  V30 12258 H 1117.65 -3.89137 1.71617 0
M  V30 12259 N 1115.97 -0.914965 -1.28321 0
M  V30 12260 C 1116.91 -0.402792 -2.27258 0
M  V30 12261 C 1117.88 0.523412 -1.57638 0
M  V30 12262 O 1119.07 0.445344 -1.8553 0
M  V30 12263 C 1116.21 0.349956 -3.43321 0
M  V30 12264 C 1115.32 -0.608892 -4.27687 0
M  V30 12265 C 1114.46 0.162425 -5.30952 0
M  V30 12266 C 1113.49 -0.789959 -6.06981 0
M  V30 12267 N 1112.63 -0.0520826 -7.02081 0
M  V30 12268 H 1117.47 -1.25153 -2.70446 0
M  V30 12269 H 1115.01 -0.628444 -1.33 0
M  V30 12270 H 1116.97 0.802589 -4.09407 0
M  V30 12271 H 1115.6 1.16303 -3.01121 0
M  V30 12272 H 1114.65 -1.18005 -3.61634 0
M  V30 12273 H 1115.96 -1.33727 -4.8054 0
M  V30 12274 H 1115.11 0.675563 -6.02927 0
M  V30 12275 H 1113.85 0.923851 -4.7887 0
M  V30 12276 H 1112.86 -1.31446 -5.33856 0
M  V30 12277 H 1114.08 -1.55096 -6.61152 0
M  V30 12278 H 1112.03 0.691331 -6.52347 0
M  V30 12279 H 1111.95 -0.720267 -7.52561 0
M  V30 12280 H 1113.21 0.44082 -7.78253 0
M  V30 12281 N 1117.44 1.42219 -0.679077 0
M  V30 12282 C 1118.85 1.8459 -0.279877 0
M  V30 12283 C 1119.21 1.56839 1.17881 0
M  V30 12284 O 1118.33 1.03039 1.90294 0
M  V30 12285 C 1118.93 3.35072 -0.501185 0
M  V30 12286 C 1117.48 3.76076 -0.156065 0
M  V30 12287 C 1116.63 2.65763 -0.791549 0
M  V30 12288 H 1119.58 1.32005 -0.880932 0
M  V30 12289 H 1119.6 3.79708 0.245349 0
M  V30 12290 H 1119.12 3.55239 -1.56291 0
M  V30 12291 H 1117.22 3.61516 0.90205 0
M  V30 12292 H 1117.33 4.75334 -0.599572 0
M  V30 12293 H 1115.69 2.53726 -0.222514 0
M  V30 12294 H 1116.48 2.88751 -1.85682 0
M  V30 12295 N 1118.92 0.422693 1.51826 0
M  V30 12296 C 1119.85 -0.386913 2.30272 0
M  V30 12297 C 1120.83 -1.03411 1.35056 0
M  V30 12298 O 1122.02 -1.04055 1.6397 0
M  V30 12299 C 1119.15 -1.49645 3.13407 0
M  V30 12300 C 1118.1 -0.973532 4.16781 0
M  V30 12301 C 1117.43 -2.1777 4.88344 0
M  V30 12302 C 1118.73 -0.0181194 5.22297 0
M  V30 12303 H 1120.42 0.267697 2.98201 0
M  V30 12304 H 1117.97 0.130186 1.4341 0
M  V30 12305 H 1119.92 -2.06993 3.67059 0
M  V30 12306 H 1118.64 -2.17914 2.43272 0
M  V30 12307 H 1117.3 -0.42237 3.64159 0
M  V30 12308 H 1116.95 -2.84625 4.14726 0
M  V30 12309 H 1116.65 -1.83427 5.58237 0
M  V30 12310 H 1118.18 -2.75699 5.44814 0
M  V30 12311 H 1119.59 -0.500822 5.71108 0
M  V30 12312 H 1117.99 0.237163 5.99631 0
M  V30 12313 H 1119.06 0.923065 4.76033 0
M  V30 12314 N 1120.4 -1.5685 0.153553 0
M  V30 12315 C 1121.33 -2.20101 -0.779601 0
M  V30 12316 C 1122.31 -1.15121 -1.25225 0
M  V30 12317 O 1123.5 -1.43487 -1.30862 0
M  V30 12318 C 1120.63 -2.82778 -2.01628 0
M  V30 12319 C 1119.58 -3.93643 -1.68015 0
M  V30 12320 C 1118.91 -4.43286 -2.99001 0
M  V30 12321 C 1120.21 -5.14102 -0.921774 0
M  V30 12322 H 1121.9 -2.98334 -0.252432 0
M  V30 12323 H 1119.45 -1.43499 -0.119975 0
M  V30 12324 H 1121.4 -3.25696 -2.67395 0
M  V30 12325 H 1120.12 -2.01887 -2.56728 0
M  V30 12326 H 1118.78 -3.51354 -1.04624 0
M  V30 12327 H 1118.43 -3.59208 -3.52106 0
M  V30 12328 H 1118.13 -5.18068 -2.77272 0
M  V30 12329 H 1119.65 -4.88878 -3.65828 0
M  V30 12330 H 1121.07 -5.53823 -1.48167 0
M  V30 12331 H 1119.46 -5.94687 -0.804185 0
M  V30 12332 H 1120.53 -4.84825 0.0852757 0
M  V30 12333 N 1121.88 0.120221 -1.57141 0
M  V30 12334 C 1123.29 0.677497 -1.73974 0
M  V30 12335 C 1123.64 1.80371 -0.772055 0
M  V30 12336 O 1122.76 2.16329 0.0553062 0
M  V30 12337 C 1123.36 1.23575 -3.1546 0
M  V30 12338 C 1121.92 1.73933 -3.33803 0
M  V30 12339 C 1121.07 0.638542 -2.69848 0
M  V30 12340 H 1124.02 -0.105685 -1.58348 0
M  V30 12341 H 1124.04 2.10542 -3.16942 0
M  V30 12342 H 1123.55 0.415851 -3.85866 0
M  V30 12343 H 1121.65 2.58404 -2.68437 0
M  V30 12344 H 1121.76 1.84961 -4.41957 0
M  V30 12345 H 1120.13 1.07185 -2.31049 0
M  V30 12346 H 1120.91 -0.170356 -3.42877 0
M  V30 12347 N 1123.36 1.52689 0.390367 0
M  V30 12348 C 1124.58 1.71839 1.16129 0
M  V30 12349 C 1125.01 0.435226 1.82996 0
M  V30 12350 O 1124.36 -0.60889 1.70769 0
M  V30 12351 C 1124.41 2.86784 2.18603 0
M  V30 12352 O 1123.52 2.53662 3.25161 0
M  V30 12353 H 1122.86 0.571455 0.338135 0
M  V30 12354 H 1125.39 1.99475 0.45508 0
M  V30 12355 H 1125.4 3.12239 2.62622 0
M  V30 12356 H 1124.07 3.79872 1.69322 0
M  V30 12357 H 1122.65 2.38942 2.86289 0
M  V30 12358 N 1124.83 -0.648732 1.43629 0
M  V30 12359 C 1125.77 -1.77417 1.45107 0
M  V30 12360 C 1126.78 -1.59067 0.346618 0
M  V30 12361 O 1127.97 -1.67705 0.611322 0
M  V30 12362 C 1125.07 -3.14906 1.25249 0
M  V30 12363 C 1124.24 -3.59874 2.48616 0
M  V30 12364 C 1123.3 -4.76181 2.23916 0
M  V30 12365 O 1122.33 -4.8539 2.97296 0
M  V30 12366 N 1123.53 -5.66691 1.25862 0
M  V30 12367 H 1126.29 -1.76626 2.42123 0
M  V30 12368 H 1123.85 -0.832725 1.38843 0
M  V30 12369 H 1125.85 -3.90408 1.06601 0
M  V30 12370 H 1124.42 -3.10443 0.366623 0
M  V30 12371 H 1123.64 -2.74768 2.82659 0
M  V30 12372 H 1124.92 -3.86665 3.30708 0
M  V30 12373 H 1124.32 -5.61927 0.652227 0
M  V30 12374 H 1122.88 -6.41895 1.13196 0
M  V30 12375 N 1126.31 -1.30234 -0.887518 0
M  V30 12376 C 1127.24 -1.18969 -2.00919 0
M  V30 12377 C 1128.22 -0.080952 -1.69907 0
M  V30 12378 O 1129.41 -0.262546 -1.92417 0
M  V30 12379 C 1126.54 -0.878094 -3.36016 0
M  V30 12380 C 1125.49 -1.94449 -3.81279 0
M  V30 12381 C 1124.82 -1.48594 -5.13638 0
M  V30 12382 C 1126.12 -3.35519 -4.00281 0
M  V30 12383 H 1127.81 -2.12808 -2.10602 0
M  V30 12384 H 1125.36 -1.02454 -1.01189 0
M  V30 12385 H 1127.31 -0.785954 -4.14006 0
M  V30 12386 H 1126.04 0.0959779 -3.26459 0
M  V30 12387 H 1124.69 -2.02622 -3.05516 0
M  V30 12388 H 1124.34 -0.500204 -5.00507 0
M  V30 12389 H 1124.04 -2.19921 -5.44893 0
M  V30 12390 H 1125.57 -1.40754 -5.94156 0
M  V30 12391 H 1126.98 -3.30119 -4.68716 0
M  V30 12392 H 1125.38 -4.0491 -4.42909 0
M  V30 12393 H 1126.45 -3.77597 -3.04218 0
M  V30 12394 N 1127.79 1.09952 -1.12909 0
M  V30 12395 C 1129.04 1.82286 -0.888797 0
M  V30 12396 C 1129.37 1.85218 0.58379 0
M  V30 12397 O 1128.64 1.31645 1.43177 0
M  V30 12398 C 1128.93 3.28706 -1.47053 0
M  V30 12399 C 1128.78 3.34078 -3.01184 0
M  V30 12400 C 1130.1 4.25233 -1.13424 0
M  V30 12401 H 1127.22 0.661803 -0.324324 0
M  V30 12402 H 1129.86 1.28833 -1.3965 0
M  V30 12403 H 1128.01 3.74356 -1.03874 0
M  V30 12404 H 1129.68 2.96871 -3.5308 0
M  V30 12405 H 1127.93 2.73825 -3.36455 0
M  V30 12406 H 1128.6 4.37202 -3.36984 0
M  V30 12407 H 1131.07 3.87841 -1.50726 0
M  V30 12408 H 1129.95 5.26033 -1.56783 0
M  V30 12409 H 1130.21 4.42075 -0.0471496 0
M  V30 12410 N 1129.27 0.921757 1.27833 0
M  V30 12411 C 1130.68 0.621102 1.47019 0
M  V30 12412 C 1130.88 -0.831338 1.83551 0
M  V30 12413 O 1129.94 -1.60974 1.94534 0
M  V30 12414 C 1131.25 1.56588 2.56712 0
M  V30 12415 C 1132.8 1.57346 2.70576 0
M  V30 12416 C 1133.28 2.50505 3.8342 0
M  V30 12417 N 1134.77 2.48678 3.90786 0
M  V30 12418 C 1135.5 3.17454 4.77505 0
M  V30 12419 N 1135 3.95588 5.68755 0
M  V30 12420 N 1136.79 3.06501 4.71183 0
M  V30 12421 H 1128.94 1.86085 1.02403 0
M  V30 12422 H 1131.21 0.798595 0.510833 0
M  V30 12423 H 1130.91 2.60175 2.36647 0
M  V30 12424 H 1130.79 1.30305 3.53978 0
M  V30 12425 H 1133.17 0.544919 2.90025 0
M  V30 12426 H 1133.25 1.87675 1.73815 0
M  V30 12427 H 1132.9 3.53466 3.64725 0
M  V30 12428 H 1132.83 2.17474 4.79596 0
M  V30 12429 H 1135.32 1.91928 3.25534 0
M  V30 12430 H 1135.63 4.45066 6.31772 0
M  V30 12431 H 1133.98 3.99692 5.6857 0
M  V30 12432 H 1137.17 2.44958 3.9889 0
M  V30 12433 H 1137.34 3.60372 5.3855 0
M  V30 12434 N 1130.75 -1.41857 0.686609 0
M  V30 12435 C 1131.98 -2.05401 0.222238 0
M  V30 12436 C 1132.38 -1.51731 -1.13023 0
M  V30 12437 O 1131.73 -0.656701 -1.71561 0
M  V30 12438 C 1131.79 -3.59381 0.0926608 0
M  V30 12439 C 1131.45 -4.35801 1.37573 0
M  V30 12440 C 1132.45 -4.65678 2.31171 0
M  V30 12441 C 1130.14 -4.75233 1.62661 0
M  V30 12442 C 1132.13 -5.33936 3.48125 0
M  V30 12443 C 1129.82 -5.43229 2.79902 0
M  V30 12444 C 1130.81 -5.72507 3.72458 0
M  V30 12445 O 1130.5 -6.39106 4.87646 0
M  V30 12446 H 1130.23 -0.668126 0.102876 0
M  V30 12447 H 1132.79 -1.82775 0.93714 0
M  V30 12448 H 1131.02 -3.80711 -0.67793 0
M  V30 12449 H 1132.71 -4.04529 -0.333364 0
M  V30 12450 H 1133.47 -4.35704 2.13042 0
M  V30 12451 H 1129.35 -4.51831 0.914862 0
M  V30 12452 H 1132.9 -5.56706 4.20386 0
M  V30 12453 H 1128.79 -5.72621 2.97951 0
M  V30 12454 H 1129.56 -6.576 4.87344 0
M  V30 12455 N 1132.22 -0.430739 -1.51599 0
M  V30 12456 C 1133.64 -0.0826902 -1.59386 0
M  V30 12457 C 1133.84 1.40729 -1.44214 0
M  V30 12458 O 1132.9 2.1765 -1.28002 0
M  V30 12459 C 1134.21 -0.59691 -2.94716 0
M  V30 12460 C 1135.76 -0.556772 -3.08008 0
M  V30 12461 C 1136.23 -1.04786 -4.45852 0
M  V30 12462 N 1137.72 -1.00557 -4.52153 0
M  V30 12463 C 1138.46 -1.35649 -5.57124 0
M  V30 12464 N 1137.95 -1.77994 -6.69545 0
M  V30 12465 N 1139.75 -1.27508 -5.47447 0
M  V30 12466 H 1131.9 -1.40027 -1.59707 0
M  V30 12467 H 1134.16 -0.576606 -0.752482 0
M  V30 12468 H 1133.87 -1.63914 -3.11167 0
M  V30 12469 H 1133.74 -0.0182342 -3.77196 0
M  V30 12470 H 1136.13 0.476457 -2.91228 0
M  V30 12471 H 1136.21 -1.17177 -2.27383 0
M  V30 12472 H 1135.85 -2.07952 -4.63377 0
M  V30 12473 H 1135.78 -0.409461 -5.25006 0
M  V30 12474 H 1138.27 -0.694518 -3.71463 0
M  V30 12475 H 1138.59 -2.03026 -7.45654 0
M  V30 12476 H 1136.93 -1.81916 -6.70769 0
M  V30 12477 H 1140.12 -0.942969 -4.58504 0
M  V30 12478 H 1140.3 -1.55185 -6.29143 0
M  V30 12479 N 1133.7 1.56767 -0.161869 0
M  V30 12480 C 1134.61 2.21083 0.784814 0
M  V30 12481 C 1135.63 1.19959 1.26039 0
M  V30 12482 O 1136.8 1.52588 1.31449 0
M  V30 12483 C 1133.87 2.83153 2.00063 0
M  V30 12484 C 1132.93 3.9945 1.57285 0
M  V30 12485 C 1132.16 4.5855 2.7307 0
M  V30 12486 O 1132.39 4.16534 3.89686 0
M  V30 12487 O 1131.32 5.48575 2.47688 0
M  V30 12488 H 1135.15 3.02522 0.267243 0
M  V30 12489 H 1132.73 1.49255 0.0658783 0
M  V30 12490 H 1134.61 3.22546 2.71186 0
M  V30 12491 H 1133.29 2.04718 2.50744 0
M  V30 12492 H 1132.2 3.64745 0.831393 0
M  V30 12493 H 1133.53 4.7945 1.11304 0
M  V30 12494 N 1135.18 -0.111886 1.57202 0
M  V30 12495 C 1136.43 -0.819623 1.85499 0
M  V30 12496 C 1136.76 -1.7919 0.748629 0
M  V30 12497 O 1136.03 -1.92952 -0.244918 0
M  V30 12498 C 1136.32 -1.56324 3.24399 0
M  V30 12499 C 1136.17 -0.610081 4.45643 0
M  V30 12500 C 1137.49 -2.51777 3.60966 0
M  V30 12501 H 1134.61 -0.296512 0.674722 0
M  V30 12502 H 1137.25 -0.0836741 1.89816 0
M  V30 12503 H 1135.4 -2.1906 3.2085 0
M  V30 12504 H 1137.07 0.00898038 4.61299 0
M  V30 12505 H 1135.32 0.0778488 4.3373 0
M  V30 12506 H 1135.99 -1.16718 5.39519 0
M  V30 12507 H 1138.46 -1.99143 3.65351 0
M  V30 12508 H 1137.34 -3.00835 4.59118 0
M  V30 12509 H 1137.6 -3.34769 2.8876 0
M  V30 12510 N 1136.66 -1.52894 -0.382264 0
M  V30 12511 C 1137.59 -1.74413 -1.48703 0
M  V30 12512 C 1138.6 -0.624663 -1.50339 0
M  V30 12513 O 1139.79 -0.900527 -1.54119 0
M  V30 12514 C 1136.89 -1.79387 -2.8753 0
M  V30 12515 C 1136.07 -3.08794 -3.09783 0
M  V30 12516 C 1135.12 -3.05226 -4.2863 0
M  V30 12517 O 1134.15 -3.79073 -4.24609 0
M  V30 12518 N 1135.35 -2.2488 -5.35172 0
M  V30 12519 H 1138.12 -2.69734 -1.30628 0
M  V30 12520 H 1135.68 -1.51465 -0.571842 0
M  V30 12521 H 1137.67 -1.74498 -3.65147 0
M  V30 12522 H 1136.24 -0.914233 -2.98932 0
M  V30 12523 H 1135.46 -3.27118 -2.19971 0
M  V30 12524 H 1136.75 -3.94347 -3.21509 0
M  V30 12525 H 1136.15 -1.64363 -5.41296 0
M  V30 12526 H 1134.7 -2.25825 -6.1143 0
M  V30 12527 N 1138.14 0.641106 -1.43971 0
M  V30 12528 C 1139.07 1.76489 -1.52885 0
M  V30 12529 C 1140.05 1.65742 -0.38258 0
M  V30 12530 O 1141.23 1.84653 -0.601397 0
M  V30 12531 C 1138.36 3.14977 -1.4631 0
M  V30 12532 C 1137.32 3.40502 -2.59311 0
M  V30 12533 C 1136.64 4.78916 -2.37789 0
M  V30 12534 C 1137.94 3.34048 -4.01509 0
M  V30 12535 H 1139.64 1.69286 -2.46946 0
M  V30 12536 H 1137.18 0.813015 -1.18853 0
M  V30 12537 H 1139.14 3.9336 -1.51149 0
M  V30 12538 H 1137.86 3.2294 -0.487599 0
M  V30 12539 H 1136.52 2.64495 -2.53846 0
M  V30 12540 H 1136.17 4.8357 -1.38454 0
M  V30 12541 H 1135.87 4.96954 -3.13545 0
M  V30 12542 H 1137.39 5.59541 -2.4443 0
M  V30 12543 H 1138.81 4.0235 -4.08396 0
M  V30 12544 H 1137.2 3.63622 -4.77388 0
M  V30 12545 H 1138.27 2.32022 -4.25786 0
M  V30 12546 N 1139.62 1.30703 0.880598 0
M  V30 12547 C 1141.03 1.17818 1.4483 0
M  V30 12548 C 1141.38 -0.219456 1.94969 0
M  V30 12549 O 1140.5 -1.11646 1.85375 0
M  V30 12550 C 1141.1 2.13275 2.63247 0
M  V30 12551 C 1139.66 2.04356 3.16094 0
M  V30 12552 C 1138.8 2.03108 1.88792 0
M  V30 12553 H 1141.75 1.42909 0.690125 0
M  V30 12554 H 1141.78 1.71615 3.39601 0
M  V30 12555 H 1141.29 3.14988 2.26725 0
M  V30 12556 H 1139.39 1.058 3.57263 0
M  V30 12557 H 1139.5 2.92953 3.79098 0
M  V30 12558 H 1137.87 1.47971 2.07308 0
M  V30 12559 H 1138.65 3.06558 1.54521 0
M  V30 12560 N 1141.09 -1.09351 1.1349 0
M  V30 12561 C 1142.37 -1.78121 0.808225 0
M  V30 12562 C 1142.75 -1.99154 -0.700072 0
M  V30 12563 O 1142.1 -1.59356 -1.63762 0
M  V30 12564 C 1142.31 -3.10368 1.59601 0
M  V30 12565 C 1143.66 -3.85063 1.78919 0
M  V30 12566 O 1144.68 -3.20122 1.56206 0
M  V30 12567 O 1143.54 -5.01648 2.16821 0
M  V30 12568 H 1140.63 -0.77253 0.295173 0
M  V30 12569 H 1143.18 -1.15901 1.23956 0
M  V30 12570 H 1141.95 -2.90549 2.62101 0
M  V30 12571 H 1141.57 -3.80312 1.15967 0
M  V30 12572 N 1142.57 -0.928524 -1.27343 0
M  V30 12573 C 1143.99 -0.62889 -1.46687 0
M  V30 12574 C 1144.19 0.821592 -1.83989 0
M  V30 12575 O 1143.24 1.59941 -1.95385 0
M  V30 12576 C 1144.56 -1.57947 -2.55878 0
M  V30 12577 C 1146.1 -1.58778 -2.69738 0
M  V30 12578 C 1146.58 -2.52535 -3.82087 0
M  V30 12579 N 1148.07 -2.50747 -3.89462 0
M  V30 12580 C 1148.81 -3.19981 -4.75814 0
M  V30 12581 N 1148.3 -3.98598 -5.66649 0
M  V30 12582 N 1150.09 -3.08996 -4.69551 0
M  V30 12583 H 1142.25 -1.86625 -1.01414 0
M  V30 12584 H 1144.51 -0.801293 -0.50659 0
M  V30 12585 H 1144.21 -2.61427 -2.35264 0
M  V30 12586 H 1144.09 -1.3218 -3.53282 0
M  V30 12587 H 1146.48 -0.560292 -2.89732 0
M  V30 12588 H 1146.56 -1.88594 -1.72817 0
M  V30 12589 H 1146.2 -3.55395 -3.62846 0
M  V30 12590 H 1146.13 -2.20015 -4.78436 0
M  V30 12591 H 1148.62 -1.93651 -3.24511 0
M  V30 12592 H 1148.93 -4.4841 -6.29403 0
M  V30 12593 H 1147.28 -4.02701 -5.66442 0
M  V30 12594 H 1150.47 -2.4707 -3.97585 0
M  V30 12595 H 1150.64 -3.63223 -5.36631 0
M  V30 12596 N 1144.05 1.41491 -0.694123 0
M  V30 12597 C 1145.3 2.00854 -0.224033 0
M  V30 12598 C 1145.62 1.55246 1.17999 0
M  V30 12599 O 1144.89 0.782452 1.79595 0
M  V30 12600 H 1143.47 0.742721 -0.0798368 0
M  V30 12601 H 1146.13 1.73137 -0.894958 0
M  V30 12602 H 1145.23 3.11173 -0.240332 0
M  V30 12603 N 1145.53 0.438773 1.51369 0
M  V30 12604 C 1146.77 -0.119657 2.03048 0
M  V30 12605 C 1147.13 -1.4026 1.317 0
M  V30 12606 O 1146.42 -1.86858 0.423612 0
M  V30 12607 C 1146.62 -0.39186 3.55245 0
M  V30 12608 C 1146.44 0.863149 4.41339 0
M  V30 12609 C 1145.21 1.39709 4.85602 0
M  V30 12610 C 1147.41 1.74969 4.83622 0
M  V30 12611 N 1145.39 2.60449 5.55913 0
M  V30 12612 C 1146.77 2.80313 5.53014 0
M  V30 12613 C 1148.82 1.76393 4.65607 0
M  V30 12614 C 1147.52 3.87029 6.06301 0
M  V30 12615 C 1149.55 2.82045 5.19812 0
M  V30 12616 C 1148.91 3.86109 5.89151 0
M  V30 12617 H 1145.01 -0.00458455 0.781987 0
M  V30 12618 H 1147.59 0.599764 1.85232 0
M  V30 12619 H 1145.77 -1.08032 3.73073 0
M  V30 12620 H 1147.5 -0.941775 3.93589 0
M  V30 12621 H 1144.25 0.950817 4.63957 0
M  V30 12622 H 1144.68 3.21678 5.95695 0
M  V30 12623 H 1149.32 0.972686 4.11459 0
M  V30 12624 H 1147.04 4.66991 6.59504 0
M  V30 12625 H 1150.62 2.84091 5.07724 0
M  V30 12626 H 1149.5 4.66518 6.30342 0
M  V30 12627 N 1147.01 -1.56678 0.170181 0
M  V30 12628 C 1148.25 -1.96849 -0.475064 0
M  V30 12629 C 1148.58 -1.05611 -1.6333 0
M  V30 12630 O 1147.84 -0.0899708 -1.95493 0
M  V30 12631 C 1148.13 -3.43103 -1.00076 0
M  V30 12632 C 1147.8 -4.50881 0.0414538 0
M  V30 12633 C 1146.46 -4.80082 0.327894 0
M  V30 12634 C 1148.81 -5.15791 0.748936 0
M  V30 12635 C 1146.14 -5.71491 1.32722 0
M  V30 12636 C 1148.49 -6.08278 1.73724 0
M  V30 12637 C 1147.16 -6.35847 2.03114 0
M  V30 12638 H 1146.43 -0.72032 -0.173838 0
M  V30 12639 H 1149.08 -1.89701 0.261903 0
M  V30 12640 H 1147.38 -3.47197 -1.81553 0
M  V30 12641 H 1149.08 -3.71525 -1.50899 0
M  V30 12642 H 1145.67 -4.2817 -0.191976 0
M  V30 12643 H 1149.85 -4.93344 0.540852 0
M  V30 12644 H 1145.11 -5.91134 1.56112 0
M  V30 12645 H 1149.28 -6.57643 2.29082 0
M  V30 12646 H 1146.91 -7.06479 2.80698 0
M  V30 12647 N 1148.48 0.103547 -1.57259 0
M  V30 12648 C 1149.73 0.809774 -1.85931 0
M  V30 12649 C 1150.06 1.78791 -0.758122 0
M  V30 12650 O 1149.34 1.93079 0.234682 0
M  V30 12651 C 1149.62 1.54601 -3.25224 0
M  V30 12652 C 1149.47 0.586439 -4.45961 0
M  V30 12653 C 1150.79 2.4986 -3.62296 0
M  V30 12654 H 1147.91 0.29293 -0.676285 0
M  V30 12655 H 1150.55 0.0736065 -1.89857 0
M  V30 12656 H 1148.7 2.17355 -3.22008 0
M  V30 12657 H 1150.38 -0.0334441 -4.61288 0
M  V30 12658 H 1148.62 -0.10085 -4.33683 0
M  V30 12659 H 1149.29 1.13855 -5.40131 0
M  V30 12660 H 1151.77 1.97203 -3.66402 0
M  V30 12661 H 1150.64 2.98396 -4.60707 0
M  V30 12662 H 1150.9 3.33233 -2.90531 0
M  V30 12663 N 1149.96 1.53094 0.37415 0
M  V30 12664 C 1151.19 1.72508 1.13687 0
M  V30 12665 C 1151.6 0.449922 1.83773 0
M  V30 12666 O 1150.94 -0.586391 1.74089 0
M  V30 12667 C 1151 2.82965 2.21746 0
M  V30 12668 C 1150.67 4.23599 1.71501 0
M  V30 12669 C 1151.67 5.06245 1.1837 0
M  V30 12670 C 1149.35 4.69978 1.77273 0
M  V30 12671 C 1151.34 6.33357 0.71679 0
M  V30 12672 C 1149.03 5.9707 1.30194 0
M  V30 12673 C 1150.03 6.7859 0.774856 0
M  V30 12674 O 1149.72 8.03298 0.310981 0
M  V30 12675 H 1149.45 0.580611 0.346218 0
M  V30 12676 H 1152 2.00596 0.441614 0
M  V30 12677 H 1150.23 2.5033 2.9474 0
M  V30 12678 H 1151.92 2.90638 2.83345 0
M  V30 12679 H 1152.69 4.71591 1.13256 0
M  V30 12680 H 1148.57 4.06605 2.17241 0
M  V30 12681 H 1152.11 6.96934 0.30471 0
M  V30 12682 H 1148.01 6.31225 1.34999 0
M  V30 12683 H 1148.78 8.17364 0.431098 0
M  V30 12684 N 1151.44 -0.633461 1.44309 0
M  V30 12685 C 1152.37 -1.75868 1.4698 0
M  V30 12686 C 1153.38 -1.58691 0.363469 0
M  V30 12687 O 1154.57 -1.67048 0.629075 0
M  V30 12688 C 1151.67 -3.1356 1.28582 0
M  V30 12689 C 1150.85 -3.57217 2.52418 0
M  V30 12690 C 1149.91 -4.73779 2.28954 0
M  V30 12691 O 1148.93 -4.8221 3.02428 0
M  V30 12692 N 1150.13 -5.65324 1.31866 0
M  V30 12693 H 1152.9 -1.74048 2.43983 0
M  V30 12694 H 1150.46 -0.817952 1.39718 0
M  V30 12695 H 1152.45 -3.89255 1.10736 0
M  V30 12696 H 1151.02 -3.10036 0.399529 0
M  V30 12697 H 1150.24 -2.71755 2.85557 0
M  V30 12698 H 1151.53 -3.83136 3.3479 0
M  V30 12699 H 1150.93 -5.61204 0.71179 0
M  V30 12700 H 1149.48 -6.40659 1.19998 0
M  V30 12701 N 1152.92 -1.31168 -0.873655 0
M  V30 12702 C 1153.85 -1.14325 -1.98651 0
M  V30 12703 C 1154.86 -0.0833421 -1.62587 0
M  V30 12704 O 1156.05 -0.330477 -1.75414 0
M  V30 12705 C 1153.15 -0.723747 -3.31082 0
M  V30 12706 C 1152.33 -1.86787 -3.95512 0
M  V30 12707 C 1151.38 -1.43503 -5.06254 0
M  V30 12708 O 1150.41 -2.14409 -5.27273 0
M  V30 12709 N 1151.61 -0.320362 -5.79615 0
M  V30 12710 H 1154.38 -2.10179 -2.13647 0
M  V30 12711 H 1151.94 -1.23454 -1.04742 0
M  V30 12712 H 1153.93 -0.416971 -4.02546 0
M  V30 12713 H 1152.5 0.143073 -3.12272 0
M  V30 12714 H 1151.72 -2.34216 -3.17075 0
M  V30 12715 H 1153.01 -2.6343 -4.35296 0
M  V30 12716 H 1152.41 0.270215 -5.65054 0
M  V30 12717 H 1150.96 -0.0731 -6.51759 0
M  V30 12718 N 1154.4 1.08748 -1.14068 0
M  V30 12719 C 1155.81 1.33125 -0.880341 0
M  V30 12720 C 1156.01 1.9569 0.480396 0
M  V30 12721 O 1155.07 2.2077 1.22543 0
M  V30 12722 C 1156.38 2.23618 -2.01036 0
M  V30 12723 C 1157.93 2.37108 -2.04326 0
M  V30 12724 C 1158.4 3.30941 -3.1661 0
M  V30 12725 N 1159.9 3.38517 -3.16166 0
M  V30 12726 C 1160.63 4.11142 -3.99687 0
M  V30 12727 N 1160.13 4.86505 -4.93239 0
M  V30 12728 N 1161.92 4.06938 -3.87761 0
M  V30 12729 H 1154.07 0.665164 -2.01716 0
M  V30 12730 H 1156.33 0.355612 -0.878774 0
M  V30 12731 H 1156.04 1.84885 -2.99183 0
M  V30 12732 H 1155.91 3.24056 -1.93049 0
M  V30 12733 H 1158.3 2.75101 -1.06787 0
M  V30 12734 H 1158.38 1.36424 -2.16384 0
M  V30 12735 H 1158.03 2.93669 -4.14392 0
M  V30 12736 H 1157.96 4.31545 -3.01789 0
M  V30 12737 H 1160.45 2.84786 -2.48405 0
M  V30 12738 H 1160.76 5.39372 -5.53441 0
M  V30 12739 H 1159.1 4.8557 -4.9724 0
M  V30 12740 H 1162.3 3.47166 -3.13996 0
M  V30 12741 H 1162.47 4.63275 -4.53079 0
M  V30 12742 N 1155.87 0.935264 1.26849 0
M  V30 12743 C 1156.82 0.430895 2.28574 0
M  V30 12744 C 1157.82 -0.488739 1.62196 0
M  V30 12745 O 1159.02 -0.367605 1.76206 0
M  V30 12746 H 1155.4 0.120793 0.742235 0
M  V30 12747 H 1157.37 1.3015 2.68521 0
M  V30 12748 C 1156.12 -0.294053 3.46454 0
M  V30 12749 H 1155.44 0.404416 3.97749 0
M  V30 12750 H 1156.88 -0.611272 4.19571 0
M  V30 12751 C 1155.34 -1.50975 3.01178 0
M  V30 12752 O 1155.87 -2.60826 3.05504 0
M  V30 12753 N 1154.08 -1.36423 2.56587 0
M  V30 12754 H 1153.62 -0.470483 2.53267 0
M  V30 12755 H 1153.58 -2.17886 2.26656 0
M  V30 12756 N 1157.35 -1.41121 0.701616 0
M  V30 12757 C 1158.26 -2.34565 0.0407815 0
M  V30 12758 C 1159.28 -1.56555 -0.75937 0
M  V30 12759 O 1160.45 -1.89008 -0.695542 0
M  V30 12760 C 1157.52 -3.35347 -0.879954 0
M  V30 12761 C 1156.58 -4.29241 -0.0713279 0
M  V30 12762 C 1155.81 -5.25209 -0.948211 0
M  V30 12763 O 1156.04 -5.26781 -2.18766 0
M  V30 12764 O 1154.97 -6.00605 -0.394657 0
M  V30 12765 H 1158.8 -2.92666 0.811188 0
M  V30 12766 H 1156.38 -1.42077 0.461991 0
M  V30 12767 H 1158.26 -3.9719 -1.40776 0
M  V30 12768 H 1156.94 -2.7968 -1.62975 0
M  V30 12769 H 1155.85 -3.70727 0.50122 0
M  V30 12770 H 1157.18 -4.88022 0.639935 0
M  V30 12771 N 1158.83 -0.446794 -1.51134 0
M  V30 12772 C 1160.08 0.116666 -2.02464 0
M  V30 12773 C 1160.41 1.41532 -1.32975 0
M  V30 12774 O 1159.68 1.89278 -0.447651 0
M  V30 12775 C 1159.97 0.325659 -3.58624 0
M  V30 12776 C 1159.82 -0.992307 -4.38718 0
M  V30 12777 C 1161.14 1.09121 -4.26357 0
M  V30 12778 H 1158.26 0.0409262 -0.735863 0
M  V30 12779 H 1160.9 -0.587641 -1.80684 0
M  V30 12780 H 1159.05 0.925585 -3.77313 0
M  V30 12781 H 1160.72 -1.62694 -4.31658 0
M  V30 12782 H 1158.97 -1.5947 -4.03425 0
M  V30 12783 H 1159.64 -0.800005 -5.46172 0
M  V30 12784 H 1162.11 0.582944 -4.11996 0
M  V30 12785 H 1160.99 1.20621 -5.35483 0
M  V30 12786 H 1161.25 2.12171 -3.87861 0
M  V30 12787 N 1160.31 1.56586 -0.178487 0
M  V30 12788 C 1161.26 2.1491 0.761432 0
M  V30 12789 C 1162.24 1.08528 1.18788 0
M  V30 12790 O 1163.43 1.34633 1.14904 0
M  V30 12791 C 1160.56 2.79902 1.98771 0
M  V30 12792 C 1159.65 3.93452 1.58293 0
M  V30 12793 N 1160.04 4.97942 0.888124 0
M  V30 12794 C 1158.34 4.04745 1.87343 0
M  V30 12795 C 1159.04 5.7762 0.68772 0
M  V30 12796 N 1158.02 5.2947 1.23136 0
M  V30 12797 H 1161.82 2.93063 0.221693 0
M  V30 12798 H 1159.33 1.62385 0.0219283 0
M  V30 12799 H 1161.33 3.20067 2.67138 0
M  V30 12800 H 1159.99 2.03232 2.53233 0
M  V30 12801 H 1161 5.1502 0.545387 0
M  V30 12802 H 1157.68 3.39186 2.43432 0
M  V30 12803 H 1159.07 6.71759 0.13775 0
M  V30 12804 N 1161.79 -0.095206 1.57312 0
M  V30 12805 C 1162.73 -1.13438 2.03063 0
M  V30 12806 C 1163.73 -1.41478 0.931679 0
M  V30 12807 O 1164.93 -1.41161 1.11686 0
M  V30 12808 H 1161.31 -0.383042 0.647134 0
M  V30 12809 H 1163.28 -0.722186 2.89529 0
M  V30 12810 C 1162.03 -2.44641 2.47075 0
M  V30 12811 H 1161.35 -2.23908 3.31218 0
M  V30 12812 H 1162.79 -3.15855 2.82863 0
M  V30 12813 C 1161.25 -3.08931 1.34399 0
M  V30 12814 O 1161.78 -3.96021 0.673071 0
M  V30 12815 N 1159.99 -2.6918 1.09501 0
M  V30 12816 H 1159.53 -1.98451 1.6424 0
M  V30 12817 H 1159.49 -3.12522 0.34311 0
M  V30 12818 N 1163.26 -1.53291 -0.366026 0
M  V30 12819 C 1164.21 -1.80367 -1.4687 0
M  V30 12820 C 1165.21 -0.672767 -1.55468 0
M  V30 12821 O 1166.41 -0.8557 -1.5836 0
M  V30 12822 H 1162.79 -0.571076 -0.48926 0
M  V30 12823 H 1164.76 -2.72661 -1.21237 0
M  V30 12824 C 1163.51 -2.01008 -2.8371 0
M  V30 12825 H 1162.83 -2.87468 -2.77853 0
M  V30 12826 H 1164.27 -2.2393 -3.60043 0
M  V30 12827 C 1162.73 -0.789054 -3.27529 0
M  V30 12828 O 1163.26 0.0224712 -4.01694 0
M  V30 12829 N 1161.47 -0.612621 -2.84069 0
M  V30 12830 H 1161.01 -1.27416 -2.23881 0
M  V30 12831 H 1160.97 0.202943 -3.13744 0
M  V30 12832 N 1164.74 0.6258 -1.44643 0
M  V30 12833 C 1165.98 1.39676 -1.49232 0
M  V30 12834 C 1166.35 1.91601 -0.123682 0
M  V30 12835 O 1167.55 2.68764 -0.0442486 0
M  V30 12836 C 1165.82 2.52704 -2.52736 0
M  V30 12837 S 1167.38 3.40795 -2.76413 0
M  V30 12838 H 1164.2 0.476436 -0.527759 0
M  V30 12839 H 1166.8 0.72394 -1.81602 0
M  V30 12840 H 1165.5 2.12876 -3.50873 0
M  V30 12841 H 1165.03 3.24806 -2.21956 0
M  V30 12842 H 1167.05 4.5031 -2.08412 0
M  V30 12843 N 1166.22 1.31629 0.866686 0
M  V30 12844 C 1167.47 1.21263 1.61678 0
M  V30 12845 C 1167.79 -0.228562 1.93656 0
M  V30 12846 O 1167.06 -1.15014 1.58583 0
M  V30 12847 H 1165.64 0.445817 0.59938 0
M  V30 12848 H 1168.3 1.64998 1.03739 0
M  V30 12849 H 1167.4 1.78669 2.55898 0
M  V30 12850 N 1167.7 -1.08142 1.14644 0
M  V30 12851 C 1168.95 -1.79959 0.910908 0
M  V30 12852 C 1169.26 -1.87296 -0.563866 0
M  V30 12853 O 1170.47 -2.55555 -0.916735 0
M  V30 12854 C 1168.92 -3.23351 1.58025 0
M  V30 12855 C 1168.53 -3.2424 3.09148 0
M  V30 12856 C 1170.28 -3.99834 1.42595 0
M  V30 12857 C 1168.18 -4.62236 3.68906 0
M  V30 12858 H 1167.11 -0.674423 0.33715 0
M  V30 12859 H 1169.76 -1.21441 1.37566 0
M  V30 12860 H 1168.15 -3.82013 1.04318 0
M  V30 12861 H 1169.32 -2.75269 3.69545 0
M  V30 12862 H 1167.63 -2.61253 3.24246 0
M  V30 12863 H 1170.23 -5.01809 1.8464 0
M  V30 12864 H 1170.57 -4.14631 0.372402 0
M  V30 12865 H 1171.11 -3.47648 1.93354 0
M  V30 12866 H 1167.85 -4.52642 4.74126 0
M  V30 12867 H 1167.37 -5.11477 3.1329 0
M  V30 12868 H 1169.05 -5.3121 3.69358 0
M  V30 12869 N 1169.18 -0.941978 -1.26351 0
M  V30 12870 C 1170.09 -0.45833 -2.30079 0
M  V30 12871 C 1171.1 0.468084 -1.67586 0
M  V30 12872 O 1172.28 0.347418 -1.98381 0
M  V30 12873 C 1169.34 0.26797 -3.45663 0
M  V30 12874 C 1168.41 -0.695102 -4.23635 0
M  V30 12875 C 1167.64 -0.003369 -5.337 0
M  V30 12876 O 1167.86 1.21342 -5.57344 0
M  V30 12877 O 1166.8 -0.682476 -5.98018 0
M  V30 12878 H 1170.62 -1.31998 -2.73514 0
M  V30 12879 H 1168.21 -0.707897 -1.31564 0
M  V30 12880 H 1170.09 0.677061 -4.15925 0
M  V30 12881 H 1168.76 1.105 -3.04256 0
M  V30 12882 H 1167.67 -1.15415 -3.55851 0
M  V30 12883 H 1169 -1.49977 -4.68794 0
M  V30 12884 N 1170.66 1.40747 -0.709091 0
M  V30 12885 C 1171.9 2.00233 -0.242836 0
M  V30 12886 C 1172.22 1.56853 1.1686 0
M  V30 12887 O 1173.42 2.08993 1.73304 0
M  V30 12888 C 1171.88 3.57854 -0.383241 0
M  V30 12889 C 1171.49 4.10209 -1.80091 0
M  V30 12890 C 1173.23 4.24494 0.0225511 0
M  V30 12891 C 1171.14 5.60311 -1.89225 0
M  V30 12892 H 1170.07 0.74896 -0.087034 0
M  V30 12893 H 1172.72 1.61064 -0.879243 0
M  V30 12894 H 1171.1 3.94692 0.321642 0
M  V30 12895 H 1172.28 3.84762 -2.53564 0
M  V30 12896 H 1170.59 3.56142 -2.15758 0
M  V30 12897 H 1173.19 5.34694 -0.0250644 0
M  V30 12898 H 1173.53 4.02488 1.06344 0
M  V30 12899 H 1174.06 3.92739 -0.632541 0
M  V30 12900 H 1170.8 5.87162 -2.91412 0
M  V30 12901 H 1170.32 5.87642 -1.20154 0
M  V30 12902 H 1172 6.25306 -1.66136 0
M  V30 12903 N 1172.13 0.454803 1.50895 0
M  V30 12904 C 1173.36 -0.103785 2.06339 0
M  V30 12905 C 1173.77 -1.35494 1.32053 0
M  V30 12906 O 1173.11 -1.79758 0.37852 0
M  V30 12907 C 1173.18 -0.474076 3.5636 0
M  V30 12908 C 1172.84 0.672736 4.52021 0
M  V30 12909 C 1173.84 1.55003 4.96256 0
M  V30 12910 C 1171.52 0.858435 4.9491 0
M  V30 12911 C 1173.52 2.59757 5.82069 0
M  V30 12912 C 1171.2 1.90922 5.8051 0
M  V30 12913 C 1172.2 2.77717 6.23989 0
M  V30 12914 O 1171.89 3.80989 7.07886 0
M  V30 12915 H 1171.62 -0.0035531 0.675991 0
M  V30 12916 H 1174.18 0.637816 1.95246 0
M  V30 12917 H 1172.41 -1.26863 3.65298 0
M  V30 12918 H 1174.09 -0.965845 3.94241 0
M  V30 12919 H 1174.86 1.41818 4.63802 0
M  V30 12920 H 1170.74 0.192384 4.60598 0
M  V30 12921 H 1174.28 3.27535 6.15927 0
M  V30 12922 H 1170.18 2.04121 6.12376 0
M  V30 12923 H 1170.95 3.7778 7.26102 0
M  V30 12924 N 1173.61 -1.56489 0.186789 0
M  V30 12925 C 1174.84 -2.01429 -0.459326 0
M  V30 12926 C 1175.25 -1.06611 -1.56303 0
M  V30 12927 O 1174.59 -0.0617053 -1.83596 0
M  V30 12928 C 1174.65 -3.42778 -1.08367 0
M  V30 12929 C 1174.32 -4.56843 -0.119719 0
M  V30 12930 C 1175.32 -5.15594 0.667782 0
M  V30 12931 C 1173 -5.02299 -0.0110494 0
M  V30 12932 C 1174.99 -6.18242 1.551 0
M  V30 12933 C 1172.68 -6.04793 0.875738 0
M  V30 12934 C 1173.68 -6.62637 1.65534 0
M  V30 12935 O 1173.37 -7.63141 2.52728 0
M  V30 12936 H 1173.1 -0.665175 -0.120492 0
M  V30 12937 H 1175.65 -2.03338 0.290283 0
M  V30 12938 H 1173.88 -3.3783 -1.8817 0
M  V30 12939 H 1175.57 -3.71577 -1.63357 0
M  V30 12940 H 1176.34 -4.81348 0.594085 0
M  V30 12941 H 1172.22 -4.56977 -0.607667 0
M  V30 12942 H 1175.76 -6.63319 2.15995 0
M  V30 12943 H 1171.66 -6.38462 0.950581 0
M  V30 12944 H 1172.43 -7.80527 2.46415 0
M  V30 12945 N 1175.09 0.086862 -1.5736 0
M  V30 12946 C 1176.02 1.13117 -1.99342 0
M  V30 12947 C 1177.03 1.35849 -0.897151 0
M  V30 12948 O 1178.22 1.34356 -1.17519 0
M  V30 12949 C 1175.32 2.48511 -2.30425 0
M  V30 12950 C 1174.5 2.45942 -3.61706 0
M  V30 12951 C 1173.56 3.63327 -3.80631 0
M  V30 12952 O 1172.58 3.45443 -4.52392 0
M  V30 12953 N 1173.78 4.83118 -3.21835 0
M  V30 12954 H 1176.55 0.773782 -2.89539 0
M  V30 12955 H 1174.11 0.275731 -1.59535 0
M  V30 12956 H 1176.1 3.25656 -2.40272 0
M  V30 12957 H 1174.67 2.76308 -1.46194 0
M  V30 12958 H 1173.89 1.54287 -3.62752 0
M  V30 12959 H 1175.18 2.41313 -4.47935 0
M  V30 12960 H 1174.58 5.00552 -2.6356 0
M  V30 12961 H 1173.13 5.57827 -3.37154 0
M  V30 12962 N 1176.57 1.53483 0.357892 0
M  V30 12963 C 1177.8 1.73956 1.12013 0
M  V30 12964 C 1178.21 0.472053 1.82803 0
M  V30 12965 O 1177.57 -0.555499 1.7384 0
M  V30 12966 C 1177.62 2.91015 2.14459 0
M  V30 12967 O 1177.34 4.12862 1.4655 0
M  V30 12968 C 1178.84 3.23423 3.0317 0
M  V30 12969 H 1176.06 0.58161 0.334621 0
M  V30 12970 H 1178.6 2.00256 0.414467 0
M  V30 12971 H 1176.76 2.67087 2.80612 0
M  V30 12972 H 1177.17 4.78468 2.14869 0
M  V30 12973 H 1178.65 4.08717 3.71018 0
M  V30 12974 H 1179.12 2.39114 3.68404 0
M  V30 12975 H 1179.73 3.49305 2.42624 0
M  V30 12976 N 1178.05 -0.61812 1.44973 0
M  V30 12977 C 1179.32 -1.37705 1.38913 0
M  V30 12978 C 1179.7 -2.1103 0.054385 0
M  V30 12979 O 1179.05 -2.07197 -0.963409 0
M  V30 12980 C 1179.26 -2.33265 2.59593 0
M  V30 12981 C 1180.61 -2.96197 3.04224 0
M  V30 12982 O 1181.63 -2.43589 2.59891 0
M  V30 12983 O 1180.49 -3.91666 3.8113 0
M  V30 12984 H 1177.59 -0.61694 0.55074 0
M  V30 12985 H 1180.13 -0.642088 1.57084 0
M  V30 12986 H 1178.9 -1.78271 3.48332 0
M  V30 12987 H 1178.53 -3.14158 2.43702 0
M  V30 12988 N 1179.52 -1.32087 -0.859693 0
M  V30 12989 C 1180.46 -1.14934 -1.97143 0
M  V30 12990 C 1181.43 -0.0501084 -1.62523 0
M  V30 12991 O 1182.62 -0.208472 -1.87344 0
M  V30 12992 C 1179.75 -0.758374 -3.30101 0
M  V30 12993 C 1178.79 -1.86212 -3.83702 0
M  V30 12994 S 1179.62 -3.46949 -4.07905 0
M  V30 12995 C 1180.78 -3.09813 -5.43844 0
M  V30 12996 H 1181.01 -2.09047 -2.11392 0
M  V30 12997 H 1178.55 -1.1669 -1.01108 0
M  V30 12998 H 1180.5 -0.539563 -4.06939 0
M  V30 12999 H 1179.17 0.163817 -3.13673 0
M  V30 13000 H 1178.36 -1.54144 -4.7985 0
M  V30 13001 H 1177.96 -2.03652 -3.13691 0
M  V30 13002 H 1180.25 -2.59345 -6.25897 0
M  V30 13003 H 1181.2 -4.04963 -5.8087 0
M  V30 13004 H 1181.6 -2.46971 -5.07607 0
M  V30 13005 N 1181 1.07532 -1.15215 0
M  V30 13006 C 1181.93 2.14598 -0.805006 0
M  V30 13007 C 1182.95 1.61778 0.182152 0
M  V30 13008 O 1184.14 1.78453 -0.040834 0
M  V30 13009 C 1181.24 3.38444 -0.175736 0
M  V30 13010 C 1180.41 4.20621 -1.19986 0
M  V30 13011 C 1179.47 5.22851 -0.592705 0
M  V30 13012 O 1178.49 5.55121 -1.25815 0
M  V30 13013 N 1179.7 5.7711 0.626425 0
M  V30 13014 H 1182.46 2.44981 -1.7264 0
M  V30 13015 H 1180.02 1.23423 -1.04778 0
M  V30 13016 H 1182.01 4.03969 0.243166 0
M  V30 13017 H 1180.58 3.0579 0.64896 0
M  V30 13018 H 1179.8 3.50941 -1.79539 0
M  V30 13019 H 1181.09 4.72339 -1.89139 0
M  V30 13020 H 1180.49 5.53139 1.18546 0
M  V30 13021 H 1179.05 6.44273 0.98771 0
M  V30 13022 N 1182.48 0.948665 1.2585 0
M  V30 13023 C 1183.71 0.616741 1.98018 0
M  V30 13024 C 1184.13 -0.803005 1.70098 0
M  V30 13025 O 1183.49 -1.54208 0.953392 0
M  V30 13026 C 1183.54 0.874429 3.49837 0
M  V30 13027 O 1182.64 -0.0497568 4.1237 0
M  V30 13028 H 1181.98 0.235112 0.620982 0
M  V30 13029 H 1184.51 1.27364 1.60124 0
M  V30 13030 H 1184.52 0.798309 4.00114 0
M  V30 13031 H 1183.2 1.90922 3.69488 0
M  V30 13032 H 1181.77 0.0780591 3.72818 0
M  V30 13033 N 1183.96 -1.40369 0.716545 0
M  V30 13034 C 1185.19 -2.05181 0.266143 0
M  V30 13035 C 1185.6 -1.53988 -1.09239 0
M  V30 13036 O 1184.96 -0.696859 -1.68672 0
M  V30 13037 C 1185.01 -3.60713 0.238384 0
M  V30 13038 O 1184.73 -4.10018 1.54328 0
M  V30 13039 C 1186.23 -4.42701 -0.230453 0
M  V30 13040 H 1183.45 -0.66028 0.119463 0
M  V30 13041 H 1186 -1.7976 0.97502 0
M  V30 13042 H 1184.15 -3.85101 -0.421466 0
M  V30 13043 H 1184.56 -5.0422 1.4444 0
M  V30 13044 H 1186.04 -5.51642 -0.198728 0
M  V30 13045 H 1186.52 -4.20354 -1.27276 0
M  V30 13046 H 1187.12 -4.23423 0.399155 0
M  V30 13047 N 1185.44 -0.462799 -1.50652 0
M  V30 13048 C 1186.66 0.0952726 -2.07181 0
M  V30 13049 C 1187.09 1.33479 -1.32533 0
M  V30 13050 O 1186.44 1.77473 -0.370564 0
M  V30 13051 C 1186.49 0.370592 -3.58691 0
M  V30 13052 O 1185.6 1.4526 -3.85971 0
M  V30 13053 H 1184.94 -0.00932702 -0.663934 0
M  V30 13054 H 1187.47 -0.651458 -1.93951 0
M  V30 13055 H 1187.48 0.613551 -4.0336 0
M  V30 13056 H 1186.15 -0.535219 -4.12442 0
M  V30 13057 H 1184.73 1.1976 -3.53146 0
M  V30 13058 N 1186.91 1.56388 -0.195085 0
M  V30 13059 C 1187.82 2.22698 0.737743 0
M  V30 13060 C 1188.84 1.22605 1.23466 0
M  V30 13061 O 1190.02 1.55342 1.28183 0
M  V30 13062 C 1187.08 2.87333 1.94011 0
M  V30 13063 C 1186.14 4.02696 1.48776 0
M  V30 13064 C 1185.38 4.64239 2.63282 0
M  V30 13065 O 1185.6 4.24706 3.80763 0
M  V30 13066 O 1184.53 5.53705 2.35996 0
M  V30 13067 H 1188.36 3.03021 0.203013 0
M  V30 13068 H 1185.94 1.49361 0.0342044 0
M  V30 13069 H 1187.83 3.28226 2.64284 0
M  V30 13070 H 1186.5 2.0999 2.46345 0
M  V30 13071 H 1185.41 3.66426 0.753839 0
M  V30 13072 H 1186.74 4.81703 1.01109 0
M  V30 13073 N 1188.39 -0.0785156 1.57404 0
M  V30 13074 C 1189.34 -1.11278 2.04255 0
M  V30 13075 C 1190.33 -1.40482 0.946633 0
M  V30 13076 O 1191.54 -1.39968 1.13177 0
M  V30 13077 H 1187.92 -0.376157 0.65116 0
M  V30 13078 H 1189.89 -0.691437 2.90279 0
M  V30 13079 C 1188.64 -2.42006 2.49656 0
M  V30 13080 H 1187.96 -2.20383 3.33574 0
M  V30 13081 H 1189.4 -3.12837 2.86197 0
M  V30 13082 C 1187.86 -3.07488 1.37669 0
M  V30 13083 O 1188.39 -3.95285 0.715036 0
M  V30 13084 N 1186.59 -2.68004 1.1235 0
M  V30 13085 H 1186.14 -1.96698 1.66336 0
M  V30 13086 H 1186.1 -3.12141 0.376238 0
M  V30 13087 N 1189.87 -1.5367 -0.349747 0
M  V30 13088 C 1190.8 -1.7603 -1.4522 0
M  V30 13089 C 1191.78 -0.609171 -1.50758 0
M  V30 13090 O 1192.97 -0.843613 -1.68569 0
M  V30 13091 C 1190.09 -1.85336 -2.83493 0
M  V30 13092 C 1189.14 -3.07438 -2.95608 0
M  V30 13093 S 1189.97 -4.66625 -2.62719 0
M  V30 13094 C 1191.13 -4.78802 -4.03112 0
M  V30 13095 H 1191.36 -2.69263 -1.26035 0
M  V30 13096 H 1188.89 -1.4446 -0.545044 0
M  V30 13097 H 1190.85 -1.91383 -3.63157 0
M  V30 13098 H 1189.51 -0.931267 -2.99977 0
M  V30 13099 H 1188.71 -3.10606 -3.96913 0
M  V30 13100 H 1188.31 -2.99585 -2.23886 0
M  V30 13101 H 1190.6 -4.5983 -4.97557 0
M  V30 13102 H 1191.54 -5.80886 -4.04941 0
M  V30 13103 H 1191.95 -4.07305 -3.90849 0
M  V30 13104 N 1191.35 0.610423 -1.45298 0
M  V30 13105 C 1192.6 1.36951 -1.49167 0
M  V30 13106 C 1192.92 1.9405 -0.132292 0
M  V30 13107 O 1192.18 1.75363 0.868686 0
M  V30 13108 C 1192.48 2.53812 -2.51623 0
M  V30 13109 C 1192.14 2.14877 -3.96407 0
M  V30 13110 C 1190.81 2.03972 -4.35831 0
M  V30 13111 C 1193.16 1.84448 -4.87472 0
M  V30 13112 C 1190.49 1.60856 -5.64218 0
M  V30 13113 C 1192.84 1.42818 -6.16268 0
M  V30 13114 C 1191.5 1.3047 -6.54625 0
M  V30 13115 H 1190.77 0.501138 -0.54584 0
M  V30 13116 H 1193.42 0.690221 -1.78629 0
M  V30 13117 H 1191.72 3.27066 -2.1572 0
M  V30 13118 H 1193.42 3.12041 -2.51856 0
M  V30 13119 H 1190.01 2.2429 -3.65229 0
M  V30 13120 H 1194.19 1.91771 -4.57753 0
M  V30 13121 H 1189.45 1.49916 -5.92735 0
M  V30 13122 H 1193.62 1.18318 -6.86275 0
M  V30 13123 H 1191.25 0.968347 -7.54007 0
M  V30 13124 N 1192.83 1.32541 0.852676 0
M  V30 13125 C 1193.76 1.24254 1.97694 0
M  V30 13126 C 1194.74 0.125971 1.69633 0
M  V30 13127 O 1195.92 0.31347 1.91653 0
M  V30 13128 C 1193.05 0.966874 3.3357 0
M  V30 13129 C 1192.01 2.0449 3.75989 0
M  V30 13130 C 1191.33 1.6216 5.09518 0
M  V30 13131 C 1192.63 3.46013 3.91244 0
M  V30 13132 H 1194.33 2.18317 2.04886 0
M  V30 13133 H 1191.87 1.05101 0.984371 0
M  V30 13134 H 1193.83 0.895444 4.11776 0
M  V30 13135 H 1192.55 -0.0093893 3.26599 0
M  V30 13136 H 1191.21 2.10651 3.00036 0
M  V30 13137 H 1190.86 0.632729 4.99005 0
M  V30 13138 H 1190.56 2.3429 5.38871 0
M  V30 13139 H 1192.08 1.56457 5.90215 0
M  V30 13140 H 1193.49 3.4243 4.59799 0
M  V30 13141 H 1191.89 4.1651 4.32017 0
M  V30 13142 H 1192.96 3.8553 2.941 0
M  V30 13143 N 1194.3 -1.0692 1.15784 0
M  V30 13144 C 1195.21 -2.17762 0.872753 0
M  V30 13145 C 1196.23 -1.73329 -0.152608 0
M  V30 13146 O 1197.41 -2.01387 0.022519 0
M  V30 13147 C 1194.47 -3.4471 0.370887 0
M  V30 13148 C 1193.53 -4.03686 1.46069 0
M  V30 13149 C 1192.77 -5.24575 0.982675 0
M  V30 13150 O 1192.99 -5.70146 -0.17006 0
M  V30 13151 O 1191.92 -5.7534 1.76828 0
M  V30 13152 H 1195.75 -2.44648 1.79948 0
M  V30 13153 H 1193.33 -1.1634 0.937303 0
M  V30 13154 H 1195.22 -4.21287 0.0976779 0
M  V30 13155 H 1193.89 -3.19366 -0.527912 0
M  V30 13156 H 1192.8 -3.28629 1.78756 0
M  V30 13157 H 1194.13 -4.33312 2.33456 0
M  V30 13158 N 1195.78 -0.955326 -1.25345 0
M  V30 13159 C 1196.71 -0.494145 -2.28211 0
M  V30 13160 C 1197.69 0.459875 -1.63766 0
M  V30 13161 O 1198.88 0.358679 -1.90859 0
M  V30 13162 C 1196.01 0.228228 -3.46549 0
M  V30 13163 C 1194.96 -0.640601 -4.23179 0
M  V30 13164 C 1194.29 0.212553 -5.34277 0
M  V30 13165 C 1195.59 -1.91906 -4.85767 0
M  V30 13166 H 1197.28 -1.35391 -2.67039 0
M  V30 13167 H 1194.83 -0.652462 -1.2837 0
M  V30 13168 H 1196.78 0.561995 -4.17636 0
M  V30 13169 H 1195.51 1.12224 -3.06714 0
M  V30 13170 H 1194.16 -0.957462 -3.53876 0
M  V30 13171 H 1193.81 1.10634 -4.90682 0
M  V30 13172 H 1193.51 -0.365473 -5.86462 0
M  V30 13173 H 1195.04 0.541271 -6.08196 0
M  V30 13174 H 1196.45 -1.65165 -5.48993 0
M  V30 13175 H 1194.85 -2.44279 -5.48131 0
M  V30 13176 H 1195.92 -2.62173 -4.07914 0
M  V30 13177 N 1197.26 1.39987 -0.723979 0
M  V30 13178 C 1198.51 2.00731 -0.267115 0
M  V30 13179 C 1198.84 1.57424 1.14228 0
M  V30 13180 O 1198.09 0.789205 1.79081 0
M  V30 13181 C 1198.39 3.56101 -0.304472 0
M  V30 13182 C 1198.06 4.1902 -1.66533 0
M  V30 13183 C 1196.72 4.3592 -2.03783 0
M  V30 13184 C 1199.07 4.54034 -2.55935 0
M  V30 13185 C 1196.4 4.85119 -3.29964 0
M  V30 13186 C 1198.75 5.04637 -3.81477 0
M  V30 13187 C 1197.41 5.19745 -4.18833 0
M  V30 13188 H 1196.68 0.734525 -0.0977442 0
M  V30 13189 H 1199.33 1.67476 -0.928659 0
M  V30 13190 H 1197.64 3.89314 0.440647 0
M  V30 13191 H 1199.33 4.00944 0.0669875 0
M  V30 13192 H 1195.92 4.0626 -1.36569 0
M  V30 13193 H 1200.11 4.40606 -2.2843 0
M  V30 13194 H 1195.36 4.95001 -3.58865 0
M  V30 13195 H 1199.54 5.30705 -4.50916 0
M  V30 13196 H 1197.16 5.5763 -5.16675 0
M  V30 13197 N 1198.74 0.470782 1.50404 0
M  V30 13198 C 1199.98 -0.0830648 2.04231 0
M  V30 13199 C 1200.34 -1.37015 1.34503 0
M  V30 13200 O 1201.54 -2.00635 1.78883 0
M  V30 13201 C 1199.82 -0.262986 3.56431 0
M  V30 13202 S 1201.37 -0.775432 4.31894 0
M  V30 13203 H 1198.19 -0.0161025 0.710818 0
M  V30 13204 H 1200.79 0.63785 1.84802 0
M  V30 13205 H 1199.5 0.679558 4.04735 0
M  V30 13206 H 1199.03 -1.01002 3.80213 0
M  V30 13207 H 1201.04 -2.04887 4.51924 0
M  V30 13208 N 1200.22 -1.56282 0.203376 0
M  V30 13209 C 1201.15 -2.16714 -0.74616 0
M  V30 13210 C 1202.16 -1.13121 -1.17079 0
M  V30 13211 O 1203.35 -1.40179 -1.10509 0
M  V30 13212 C 1200.45 -2.72115 -2.02007 0
M  V30 13213 C 1199.62 -4.00695 -1.75391 0
M  V30 13214 C 1198.68 -4.40839 -2.8731 0
M  V30 13215 O 1197.71 -5.081 -2.56561 0
M  V30 13216 N 1198.91 -4.05024 -4.15856 0
M  V30 13217 H 1201.68 -2.98821 -0.229326 0
M  V30 13218 H 1199.24 -1.61885 0.0217049 0
M  V30 13219 H 1201.23 -2.95951 -2.76035 0
M  V30 13220 H 1199.8 -1.94415 -2.44789 0
M  V30 13221 H 1199.02 -3.84905 -0.851 0
M  V30 13222 H 1200.31 -4.8461 -1.55017 0
M  V30 13223 H 1199.71 -3.50938 -4.43688 0
M  V30 13224 H 1198.26 -4.33792 -4.86485 0
M  V30 13225 N 1201.7 0.070167 -1.57444 0
M  V30 13226 C 1202.94 0.767842 -1.86513 0
M  V30 13227 C 1203.26 1.78659 -0.796257 0
M  V30 13228 O 1204.46 2.53395 -0.974845 0
M  V30 13229 C 1202.92 1.41654 -3.30851 0
M  V30 13230 C 1202.53 0.436273 -4.45871 0
M  V30 13231 C 1204.27 2.09649 -3.69117 0
M  V30 13232 C 1202.18 1.09098 -5.8125 0
M  V30 13233 H 1201.11 0.290519 -0.695784 0
M  V30 13234 H 1203.76 0.0211697 -1.83488 0
M  V30 13235 H 1202.14 2.21153 -3.28493 0
M  V30 13236 H 1203.32 -0.329022 -4.59624 0
M  V30 13237 H 1201.63 -0.139314 -4.16167 0
M  V30 13238 H 1204.23 2.59411 -4.67558 0
M  V30 13239 H 1204.57 2.89663 -2.99 0
M  V30 13240 H 1205.1 1.36979 -3.73472 0
M  V30 13241 H 1201.84 0.331128 -6.54663 0
M  V30 13242 H 1201.36 1.8271 -5.71294 0
M  V30 13243 H 1203.04 1.61034 -6.2664 0
M  V30 13244 N 1203.17 1.53854 0.341593 0
M  V30 13245 C 1204.42 1.7041 1.07905 0
M  V30 13246 C 1204.74 0.475039 1.89744 0
M  V30 13247 O 1205.94 0.521589 2.66443 0
M  V30 13248 C 1204.4 3.01342 1.96776 0
M  V30 13249 C 1204.01 4.31592 1.20135 0
M  V30 13250 C 1205.75 3.27264 2.70367 0
M  V30 13251 C 1203.66 5.53598 2.08047 0
M  V30 13252 H 1202.59 0.635005 0.406553 0
M  V30 13253 H 1205.24 1.80353 0.338409 0
M  V30 13254 H 1203.62 2.85261 2.74667 0
M  V30 13255 H 1204.79 4.58382 0.471404 0
M  V30 13256 H 1203.11 4.12298 0.583039 0
M  V30 13257 H 1205.71 4.15607 3.36415 0
M  V30 13258 H 1206.05 2.44357 3.37039 0
M  V30 13259 H 1206.58 3.4413 1.99548 0
M  V30 13260 H 1203.32 6.39053 1.45914 0
M  V30 13261 H 1202.84 5.31052 2.78825 0
M  V30 13262 H 1204.52 5.89314 2.67055 0
M  V30 13263 N 1204.65 -0.602709 1.4562 0
M  V30 13264 C 1205.88 -1.39299 1.53657 0
M  V30 13265 C 1206.3 -1.87315 0.171632 0
M  V30 13266 O 1205.66 -1.60423 -0.844639 0
M  V30 13267 C 1205.71 -2.57021 2.52928 0
M  V30 13268 O 1204.81 -3.57812 2.05047 0
M  V30 13269 H 1204.15 -0.41567 0.517798 0
M  V30 13270 H 1206.68 -0.73304 1.91018 0
M  V30 13271 H 1206.69 -3.04202 2.71892 0
M  V30 13272 H 1205.37 -2.21422 3.52058 0
M  V30 13273 H 1203.94 -3.17247 1.95981 0
M  V30 13274 N 1206.13 -1.32992 -0.845635 0
M  V30 13275 C 1207.04 -1.24701 -1.98713 0
M  V30 13276 C 1208.06 -0.158864 -1.73273 0
M  V30 13277 O 1209.23 -0.381209 -1.97759 0
M  V30 13278 C 1206.3 -0.979524 -3.32575 0
M  V30 13279 C 1205.36 -2.15701 -3.71176 0
M  V30 13280 C 1204.59 -1.90219 -4.98651 0
M  V30 13281 O 1204.81 -0.849171 -5.64044 0
M  V30 13282 O 1203.75 -2.76571 -5.34595 0
M  V30 13283 H 1207.57 -2.20683 -2.08645 0
M  V30 13284 H 1205.16 -1.12971 -0.97765 0
M  V30 13285 H 1207.04 -0.847219 -4.12796 0
M  V30 13286 H 1205.72 -0.0499398 -3.23661 0
M  V30 13287 H 1204.62 -2.34483 -2.91494 0
M  V30 13288 H 1205.96 -3.0697 -3.84747 0
M  V30 13289 N 1207.61 1.06304 -1.1635 0
M  V30 13290 C 1209.02 1.60566 -0.952652 0
M  V30 13291 C 1209.37 1.8963 0.503473 0
M  V30 13292 O 1208.49 1.66964 1.37666 0
M  V30 13293 C 1209.09 2.9172 -1.72292 0
M  V30 13294 C 1207.65 3.42684 -1.55707 0
M  V30 13295 C 1206.8 2.16579 -1.73172 0
M  V30 13296 H 1209.75 0.892563 -1.31221 0
M  V30 13297 H 1209.77 3.61126 -1.19868 0
M  V30 13298 H 1209.28 2.70535 -2.78267 0
M  V30 13299 H 1207.38 3.68929 -0.521726 0
M  V30 13300 H 1207.49 4.18018 -2.34088 0
M  V30 13301 H 1205.86 2.26795 -1.15914 0
M  V30 13302 H 1206.64 1.97877 -2.80535 0
M  V30 13303 N 1209.09 0.96196 1.24836 0
M  V30 13304 C 1210.33 0.628484 1.94498 0
M  V30 13305 C 1210.69 -0.820337 1.73593 0
M  V30 13306 O 1211.89 -1.26376 2.37239 0
M  V30 13307 C 1210.16 0.986119 3.43527 0
M  V30 13308 S 1211.72 0.766324 4.32057 0
M  V30 13309 H 1208.54 0.230758 0.672511 0
M  V30 13310 H 1211.14 1.23769 1.51332 0
M  V30 13311 H 1209.84 2.03756 3.56247 0
M  V30 13312 H 1209.38 0.367454 3.9168 0
M  V30 13313 H 1211.39 -0.359227 4.94898 0
M  V30 13314 N 1210.56 -1.39601 0.731392 0
M  V30 13315 C 1211.81 -2.00586 0.277756 0
M  V30 13316 C 1212.14 -1.58027 -1.13391 0
M  V30 13317 O 1211.39 -0.798691 -1.7866 0
M  V30 13318 C 1211.69 -3.55934 0.323352 0
M  V30 13319 C 1211.36 -4.18131 1.68753 0
M  V30 13320 C 1210.02 -4.34833 2.06092 0
M  V30 13321 C 1212.37 -4.5267 2.58339 0
M  V30 13322 C 1209.7 -4.83362 3.32532 0
M  V30 13323 C 1212.05 -5.02607 3.84148 0
M  V30 13324 C 1210.72 -5.17517 4.21584 0
M  V30 13325 H 1209.99 -0.733996 0.101638 0
M  V30 13326 H 1212.63 -1.66981 0.937528 0
M  V30 13327 H 1210.94 -3.89542 -0.419995 0
M  V30 13328 H 1212.64 -4.00974 -0.0457235 0
M  V30 13329 H 1209.23 -4.0553 1.38722 0
M  V30 13330 H 1213.41 -4.39388 2.30763 0
M  V30 13331 H 1208.67 -4.93091 3.61485 0
M  V30 13332 H 1212.84 -5.28306 4.53724 0
M  V30 13333 H 1210.47 -5.54882 5.19625 0
M  V30 13334 N 1212.04 -0.478751 -1.50152 0
M  V30 13335 C 1212.99 0.325375 -2.30313 0
M  V30 13336 C 1213.98 0.983372 -1.37935 0
M  V30 13337 O 1215.19 0.913601 -1.55091 0
M  V30 13338 H 1211.57 0.123775 -0.741744 0
M  V30 13339 H 1213.54 -0.371004 -2.96085 0
M  V30 13340 C 1212.29 1.39026 -3.18696 0
M  V30 13341 H 1211.61 0.893329 -3.89692 0
M  V30 13342 H 1213.05 1.92533 -3.77766 0
M  V30 13343 C 1211.51 2.39637 -2.36803 0
M  V30 13344 O 1212.04 3.45067 -2.05649 0
M  V30 13345 N 1210.24 2.11546 -1.9924 0
M  V30 13346 H 1209.79 1.25832 -2.24775 0
M  V30 13347 H 1209.75 2.79096 -1.44751 0
M  V30 13348 N 1213.52 1.56172 -0.211661 0
M  V30 13349 C 1214.75 2.02428 0.427843 0
M  V30 13350 C 1215.16 1.09162 1.54043 0
M  V30 13351 O 1214.52 0.0994249 1.82229 0
M  V30 13352 C 1214.57 3.48279 0.968728 0
M  V30 13353 O 1214.29 4.37987 -0.0994841 0
M  V30 13354 C 1215.79 4.10132 1.68246 0
M  V30 13355 H 1213.01 0.662611 0.10577 0
M  V30 13356 H 1215.56 2.01897 -0.32522 0
M  V30 13357 H 1213.71 3.49456 1.6721 0
M  V30 13358 H 1214.13 5.23609 0.305558 0
M  V30 13359 H 1215.6 5.13985 2.01304 0
M  V30 13360 H 1216.08 3.54552 2.5921 0
M  V30 13361 H 1216.68 4.12775 1.02453 0
M  V30 13362 N 1215 -0.0618163 1.57479 0
M  V30 13363 C 1215.93 -1.07252 2.07411 0
M  V30 13364 C 1216.91 -1.39756 0.969649 0
M  V30 13365 O 1218.09 -1.4921 1.24298 0
M  V30 13366 C 1215.22 -2.38313 2.52635 0
M  V30 13367 C 1214.18 -2.20136 3.67048 0
M  V30 13368 C 1213.5 -3.56668 3.98361 0
M  V30 13369 C 1214.8 -1.61437 4.96725 0
M  V30 13370 H 1216.5 -0.656983 2.92103 0
M  V30 13371 H 1214.04 -0.314579 1.40522 0
M  V30 13372 H 1216 -3.09319 2.86181 0
M  V30 13373 H 1214.72 -2.81865 1.64984 0
M  V30 13374 H 1213.38 -1.51569 3.338 0
M  V30 13375 H 1213.03 -3.97809 3.07826 0
M  V30 13376 H 1212.73 -3.45342 4.75408 0
M  V30 13377 H 1214.25 -4.2909 4.34413 0
M  V30 13378 H 1215.67 -2.2232 5.28438 0
M  V30 13379 H 1214.06 -1.60779 5.78161 0
M  V30 13380 H 1215.13 -0.576795 4.81457 0
M  V30 13381 N 1216.48 -1.54033 -0.333429 0
M  V30 13382 C 1217.89 -1.44522 -0.677166 0
M  V30 13383 C 1218.09 -0.610122 -1.92041 0
M  V30 13384 O 1217.15 -0.105058 -2.52281 0
M  V30 13385 C 1218.46 -2.88129 -0.860369 0
M  V30 13386 C 1220.01 -2.97968 -0.958342 0
M  V30 13387 C 1220.48 -4.42703 -1.17379 0
M  V30 13388 N 1221.98 -4.46273 -1.24075 0
M  V30 13389 C 1222.71 -5.55407 -1.42515 0
M  V30 13390 N 1222.21 -6.74528 -1.58062 0
M  V30 13391 N 1224 -5.43037 -1.45144 0
M  V30 13392 H 1216.15 -2.06815 0.483858 0
M  V30 13393 H 1218.41 -0.935307 0.15461 0
M  V30 13394 H 1218.12 -3.51695 -0.0182085 0
M  V30 13395 H 1217.99 -3.33668 -1.75913 0
M  V30 13396 H 1220.38 -2.34535 -1.79102 0
M  V30 13397 H 1220.46 -2.55774 -0.0362643 0
M  V30 13398 H 1220.11 -5.0672 -0.346004 0
M  V30 13399 H 1220.04 -4.82498 -2.10959 0
M  V30 13400 H 1222.53 -3.60439 -1.13545 0
M  V30 13401 H 1222.84 -7.53462 -1.71797 0
M  V30 13402 H 1221.18 -6.77454 -1.55179 0
M  V30 13403 H 1224.38 -4.4893 -1.32588 0
M  V30 13404 H 1224.55 -6.28146 -1.59173 0
M  V30 13405 N 1217.95 0.594978 -1.45938 0
M  V30 13406 C 1219.18 1.37994 -1.5416 0
M  V30 13407 C 1219.6 1.87954 -0.17848 0
M  V30 13408 O 1218.95 1.62932 0.822161 0
M  V30 13409 C 1219.01 2.57586 -2.53637 0
M  V30 13410 O 1218.73 2.09698 -3.84653 0
M  V30 13411 C 1220.23 3.50292 -2.71681 0
M  V30 13412 H 1217.45 0.421983 -0.5217 0
M  V30 13413 H 1219.99 0.724459 -1.91238 0
M  V30 13414 H 1218.15 3.19149 -2.19597 0
M  V30 13415 H 1218.56 2.87492 -4.3869 0
M  V30 13416 H 1220.03 4.30717 -3.45234 0
M  V30 13417 H 1220.51 4.01444 -1.78156 0
M  V30 13418 H 1221.12 2.94573 -3.06768 0
M  V30 13419 N 1219.43 1.33438 0.838571 0
M  V30 13420 C 1220.38 1.23717 1.94841 0
M  V30 13421 C 1221.35 0.11573 1.65696 0
M  V30 13422 O 1222.53 0.294051 1.8852 0
M  V30 13423 C 1219.67 0.982626 3.30815 0
M  V30 13424 C 1218.79 2.19036 3.72354 0
M  V30 13425 C 1217.92 1.86995 4.97199 0
M  V30 13426 C 1216.96 3.03998 5.31274 0
M  V30 13427 N 1216.1 2.71943 6.47295 0
M  V30 13428 H 1220.94 2.18639 2.02487 0
M  V30 13429 H 1218.48 1.08721 0.990861 0
M  V30 13430 H 1220.43 0.81548 4.09152 0
M  V30 13431 H 1219.06 0.0701443 3.22724 0
M  V30 13432 H 1218.12 2.46724 2.89537 0
M  V30 13433 H 1219.43 3.06505 3.93518 0
M  V30 13434 H 1218.58 1.66925 5.83285 0
M  V30 13435 H 1217.32 0.967628 4.78004 0
M  V30 13436 H 1216.33 3.24681 4.43692 0
M  V30 13437 H 1217.55 3.94985 5.52416 0
M  V30 13438 H 1215.5 1.8427 6.29588 0
M  V30 13439 H 1215.41 3.52943 6.68556 0
M  V30 13440 H 1216.68 2.55342 7.36492 0
M  V30 13441 N 1220.91 -1.05686 1.16912 0
M  V30 13442 C 1221.82 -2.16824 0.8958 0
M  V30 13443 C 1222.84 -1.73482 -0.134215 0
M  V30 13444 O 1224.01 -2.01352 0.0438776 0
M  V30 13445 C 1221.08 -3.44298 0.407427 0
M  V30 13446 C 1220.14 -4.02114 1.50342 0
M  V30 13447 C 1219.37 -5.23503 1.03826 0
M  V30 13448 O 1219.59 -5.70295 -0.109579 0
M  V30 13449 O 1218.53 -5.73432 1.8292 0
M  V30 13450 H 1222.35 -2.42725 1.82533 0
M  V30 13451 H 1219.94 -1.15339 0.949589 0
M  V30 13452 H 1221.82 -4.21159 0.142356 0
M  V30 13453 H 1220.5 -3.19908 -0.494009 0
M  V30 13454 H 1219.4 -3.26715 1.82231 0
M  V30 13455 H 1220.74 -4.30811 2.38039 0
M  V30 13456 N 1222.39 -0.968567 -1.24324 0
M  V30 13457 C 1223.32 -0.457247 -2.24593 0
M  V30 13458 C 1224.33 0.434483 -1.56895 0
M  V30 13459 O 1225.52 0.240519 -1.76872 0
M  V30 13460 C 1222.62 0.359086 -3.36992 0
M  V30 13461 C 1221.8 -0.522945 -4.34263 0
M  V30 13462 C 1220.85 0.237528 -5.25664 0
M  V30 13463 O 1219.88 -0.368835 -5.68004 0
M  V30 13464 N 1221.08 1.52686 -5.6006 0
M  V30 13465 H 1223.85 -1.31934 -2.69098 0
M  V30 13466 H 1221.41 -0.840488 -1.38374 0
M  V30 13467 H 1223.4 0.87589 -3.95108 0
M  V30 13468 H 1221.97 1.12212 -2.91766 0
M  V30 13469 H 1221.19 -1.22071 -3.74823 0
M  V30 13470 H 1222.48 -1.12447 -4.96219 0
M  V30 13471 H 1221.88 2.0412 -5.2759 0
M  V30 13472 H 1220.43 1.98934 -6.207 0
M  V30 13473 N 1223.87 1.39211 -0.738786 0
M  V30 13474 C 1224.8 2.33209 -0.11647 0
M  V30 13475 C 1225.78 1.54108 0.720056 0
M  V30 13476 O 1226.96 1.82486 0.664264 0
M  V30 13477 C 1224.09 3.38226 0.78872 0
M  V30 13478 C 1223.05 4.27963 0.0560636 0
M  V30 13479 C 1222.37 5.2371 1.07852 0
M  V30 13480 C 1223.67 5.10508 -1.1036 0
M  V30 13481 H 1225.37 2.85501 -0.901649 0
M  V30 13482 H 1222.91 1.37272 -0.435032 0
M  V30 13483 H 1224.87 4.02938 1.23364 0
M  V30 13484 H 1223.59 2.84382 1.60606 0
M  V30 13485 H 1222.25 3.64735 -0.369274 0
M  V30 13486 H 1221.9 4.66161 1.88953 0
M  V30 13487 H 1221.6 5.846 0.593048 0
M  V30 13488 H 1223.12 5.91299 1.52307 0
M  V30 13489 H 1224.53 5.68544 -0.736943 0
M  V30 13490 H 1222.93 5.80558 -1.51895 0
M  V30 13491 H 1224 4.45117 -1.92352 0
M  V30 13492 N 1225.34 0.486708 1.49896 0
M  V30 13493 C 1226.59 -0.0627279 2.02003 0
M  V30 13494 C 1226.91 -1.38799 1.36967 0
M  V30 13495 O 1226.18 -1.88868 0.520173 0
M  V30 13496 H 1224.76 -0.0261718 0.746541 0
M  V30 13497 H 1227.43 0.640692 1.84068 0
M  V30 13498 H 1226.52 -0.202856 3.1144 0
M  V30 13499 N 1226.82 -1.56058 0.219941 0
M  V30 13500 C 1228.05 -2.02358 -0.416497 0
M  V30 13501 C 1228.46 -1.09903 -1.54007 0
M  V30 13502 O 1227.8 -0.100635 -1.83424 0
M  V30 13503 C 1227.87 -3.45 -1.01072 0
M  V30 13504 C 1227.53 -4.56994 -0.0227891 0
M  V30 13505 C 1228.53 -5.14061 0.776997 0
M  V30 13506 C 1226.21 -5.02209 0.0954981 0
M  V30 13507 C 1228.21 -6.14813 1.68179 0
M  V30 13508 C 1225.89 -6.02799 1.00383 0
M  V30 13509 C 1226.89 -6.58977 1.79552 0
M  V30 13510 O 1226.58 -7.57608 2.68858 0
M  V30 13511 H 1226.31 -0.667581 -0.106355 0
M  V30 13512 H 1228.87 -2.02677 0.333348 0
M  V30 13513 H 1227.1 -3.41745 -1.80962 0
M  V30 13514 H 1228.78 -3.74958 -1.55439 0
M  V30 13515 H 1229.55 -4.79979 0.696053 0
M  V30 13516 H 1225.43 -4.58164 -0.510599 0
M  V30 13517 H 1228.97 -6.58588 2.30017 0
M  V30 13518 H 1224.87 -6.36302 1.08579 0
M  V30 13519 H 1225.64 -7.75124 2.62915 0
M  V30 13520 N 1228.3 0.053464 -1.57509 0
M  V30 13521 C 1229.55 0.748016 -1.87317 0
M  V30 13522 C 1229.86 1.77805 -0.815161 0
M  V30 13523 O 1231.07 2.52347 -1.00167 0
M  V30 13524 C 1229.53 1.38137 -3.32334 0
M  V30 13525 C 1229.13 0.388958 -4.46308 0
M  V30 13526 C 1230.88 2.05722 -3.7132 0
M  V30 13527 C 1228.78 1.02927 -5.82374 0
M  V30 13528 H 1227.71 0.283123 -0.698826 0
M  V30 13529 H 1230.37 0.00170723 -1.835 0
M  V30 13530 H 1228.75 2.17656 -3.3082 0
M  V30 13531 H 1229.92 -0.377752 -4.59249 0
M  V30 13532 H 1228.24 -0.183447 -4.15996 0
M  V30 13533 H 1230.83 2.54437 -4.70283 0
M  V30 13534 H 1231.18 2.86475 -3.02056 0
M  V30 13535 H 1231.71 1.3301 -3.74904 0
M  V30 13536 H 1228.45 0.261674 -6.54977 0
M  V30 13537 H 1227.97 1.7664 -5.732 0
M  V30 13538 H 1229.65 1.54378 -6.28312 0
M  V30 13539 N 1229.78 1.54207 0.325255 0
M  V30 13540 C 1231.03 1.72587 1.06497 0
M  V30 13541 C 1231.36 0.497228 1.87727 0
M  V30 13542 O 1230.63 -0.505804 1.87808 0
M  V30 13543 C 1230.92 3.00046 1.99109 0
M  V30 13544 C 1230.77 4.33158 1.21221 0
M  V30 13545 C 1232.09 3.23251 2.98658 0
M  V30 13546 H 1229.21 0.627974 0.38577 0
M  V30 13547 H 1231.85 1.869 0.34179 0
M  V30 13548 H 1230 2.87973 2.60775 0
M  V30 13549 H 1231.67 4.57111 0.620289 0
M  V30 13550 H 1229.91 4.30739 0.514462 0
M  V30 13551 H 1230.59 5.18558 1.89214 0
M  V30 13552 H 1233.06 3.34774 2.47114 0
M  V30 13553 H 1231.94 4.13796 3.60645 0
M  V30 13554 H 1232.2 2.40401 3.71026 0
M  V30 13555 N 1231.26 -0.58723 1.46251 0
M  V30 13556 C 1232.5 -1.3456 1.51327 0
M  V30 13557 C 1232.83 -1.93815 0.163146 0
M  V30 13558 O 1232.09 -1.76723 -0.840677 0
M  V30 13559 C 1232.39 -2.49776 2.5563 0
M  V30 13560 C 1232.05 -2.08543 3.99776 0
M  V30 13561 C 1230.71 -1.97013 4.39021 0
M  V30 13562 C 1233.07 -1.76669 4.90344 0
M  V30 13563 C 1230.39 -1.5186 5.66706 0
M  V30 13564 C 1232.75 -1.32996 6.18462 0
M  V30 13565 C 1231.41 -1.20039 6.56618 0
M  V30 13566 H 1230.68 -0.492391 0.553744 0
M  V30 13567 H 1233.33 -0.661715 1.79704 0
M  V30 13568 H 1231.63 -3.23592 2.20897 0
M  V30 13569 H 1233.33 -3.07995 2.56788 0
M  V30 13570 H 1229.92 -2.18451 3.68751 0
M  V30 13571 H 1234.1 -1.84465 4.60746 0
M  V30 13572 H 1229.36 -1.40467 5.95045 0
M  V30 13573 H 1233.53 -1.07385 6.88071 0
M  V30 13574 H 1231.16 -0.848268 7.55452 0
M  V30 13575 N 1232.74 -1.33881 -0.831482 0
M  V30 13576 C 1233.96 -1.28961 -1.62431 0
M  V30 13577 C 1234.39 0.135249 -1.87613 0
M  V30 13578 O 1233.74 1.09426 -1.44553 0
M  V30 13579 C 1233.79 -2.07767 -2.94729 0
M  V30 13580 O 1232.9 -1.44133 -3.86393 0
M  V30 13581 H 1232.24 -0.443313 -0.494337 0
M  V30 13582 H 1234.77 -1.76555 -1.0339 0
M  V30 13583 H 1234.78 -2.18806 -3.44366 0
M  V30 13584 H 1233.45 -3.11367 -2.75724 0
M  V30 13585 H 1232.03 -1.41784 -3.44894 0
M  V30 13586 N 1234.21 1.05064 -1.1747 0
M  V30 13587 C 1235.46 1.77737 -0.961979 0
M  V30 13588 C 1235.78 1.88198 0.510551 0
M  V30 13589 O 1235.05 1.39968 1.37062 0
M  V30 13590 H 1233.63 0.658366 -0.352935 0
M  V30 13591 H 1236.29 1.26851 -1.47969 0
M  V30 13592 H 1235.39 2.79368 -1.39141 0
M  V30 13593 N 1235.69 0.975146 1.23809 0
M  V30 13594 C 1237.1 0.678873 1.7392 0
M  V30 13595 C 1237.45 -0.805133 1.78919 0
M  V30 13596 O 1236.58 -1.62984 1.42356 0
M  V30 13597 C 1237.17 1.22562 3.15854 0
M  V30 13598 C 1235.73 0.979096 3.63443 0
M  V30 13599 C 1234.88 1.35649 2.41857 0
M  V30 13600 H 1237.83 1.14961 1.09406 0
M  V30 13601 H 1237.85 0.595489 3.75811 0
M  V30 13602 H 1237.36 2.30571 3.12184 0
M  V30 13603 H 1235.46 -0.0851407 3.72503 0
M  V30 13604 H 1235.58 1.62998 4.5052 0
M  V30 13605 H 1233.94 0.774916 2.42626 0
M  V30 13606 H 1234.72 2.44624 2.40861 0
M  V30 13607 N 1237.17 -1.38817 0.746158 0
M  V30 13608 C 1238.59 -1.53894 0.42294 0
M  V30 13609 C 1238.79 -1.71064 -1.06486 0
M  V30 13610 O 1237.84 -1.71744 -1.85095 0
M  V30 13611 C 1239.15 -2.75029 1.2157 0
M  V30 13612 C 1240.7 -2.88873 1.20504 0
M  V30 13613 C 1241.18 -4.1296 1.9806 0
M  V30 13614 N 1242.67 -4.20022 1.95283 0
M  V30 13615 C 1243.4 -5.15011 2.52093 0
M  V30 13616 N 1242.9 -6.1572 3.17586 0
M  V30 13617 N 1244.69 -5.07308 2.42064 0
M  V30 13618 H 1236.84 -1.25921 1.71049 0
M  V30 13619 H 1239.11 -0.611148 0.724708 0
M  V30 13620 H 1238.81 -2.68722 2.26895 0
M  V30 13621 H 1238.69 -3.68009 0.827593 0
M  V30 13622 H 1241.07 -2.94667 0.159877 0
M  V30 13623 H 1241.15 -1.96925 1.63261 0
M  V30 13624 H 1240.8 -4.07929 3.02583 0
M  V30 13625 H 1240.73 -5.03974 1.52702 0
M  V30 13626 H 1243.22 -3.47892 1.4758 0
M  V30 13627 H 1243.53 -6.84682 3.58373 0
M  V30 13628 H 1241.88 -6.16075 3.21678 0
M  V30 13629 H 1245.07 -4.27569 1.90532 0
M  V30 13630 H 1245.24 -5.81158 2.86635 0
M  V30 13631 N 1238.65 -0.49465 -1.49636 0
M  V30 13632 C 1240.06 -0.150217 -1.58892 0
M  V30 13633 C 1240.26 1.34485 -1.50053 0
M  V30 13634 O 1239.32 2.12026 -1.37118 0
M  V30 13635 C 1240.63 -0.721372 -2.91919 0
M  V30 13636 C 1242.18 -0.686908 -3.0537 0
M  V30 13637 C 1242.66 -1.23601 -4.41006 0
M  V30 13638 N 1244.15 -1.19644 -4.47481 0
M  V30 13639 C 1244.88 -1.59157 -5.50869 0
M  V30 13640 N 1244.38 -2.06232 -6.61393 0
M  V30 13641 N 1246.17 -1.50612 -5.41546 0
M  V30 13642 H 1238.32 -1.46675 -1.53624 0
M  V30 13643 H 1240.58 -0.608003 -0.727349 0
M  V30 13644 H 1240.29 -1.76964 -3.03935 0
M  V30 13645 H 1240.16 -0.178199 -3.76779 0
M  V30 13646 H 1242.55 0.352508 -2.92987 0
M  V30 13647 H 1242.63 -1.26716 -2.22209 0
M  V30 13648 H 1242.28 -2.27418 -4.5414 0
M  V30 13649 H 1242.21 -0.631765 -5.22797 0
M  V30 13650 H 1244.7 -0.851443 -3.68183 0
M  V30 13651 H 1245.01 -2.34469 -7.36372 0
M  V30 13652 H 1243.36 -2.10202 -6.6245 0
M  V30 13653 H 1246.55 -1.13659 -4.54092 0
M  V30 13654 H 1246.72 -1.8173 -6.21995 0
M  V30 13655 N 1240.13 1.55939 -0.228214 0
M  V30 13656 C 1241.09 2.1932 0.665681 0
M  V30 13657 C 1242.09 1.15699 1.11671 0
M  V30 13658 O 1243.28 1.40893 1.02444 0
M  V30 13659 C 1240.41 2.82185 1.9127 0
M  V30 13660 H 1241.6 2.99687 0.112986 0
M  V30 13661 H 1239.16 1.56285 0.0213865 0
M  V30 13662 H 1239.89 2.05706 2.5071 0
M  V30 13663 H 1239.68 3.58073 1.5977 0
M  V30 13664 H 1241.17 3.30748 2.54942 0
M  V30 13665 N 1241.6 -0.0451101 1.57535 0
M  V30 13666 C 1242.55 -1.0692 2.06569 0
M  V30 13667 C 1243.55 -1.38443 0.976218 0
M  V30 13668 O 1244.75 -1.37536 1.1612 0
M  V30 13669 H 1241.13 -0.36226 0.658993 0
M  V30 13670 H 1243.1 -0.629709 2.9168 0
M  V30 13671 C 1241.85 -2.36656 2.54733 0
M  V30 13672 H 1241.17 -2.13257 3.38174 0
M  V30 13673 H 1242.61 -3.06696 2.92769 0
M  V30 13674 C 1241.07 -3.04499 1.4416 0
M  V30 13675 O 1241.6 -3.93679 0.798721 0
M  V30 13676 N 1239.81 -2.6556 1.18009 0
M  V30 13677 H 1239.35 -1.93126 1.7047 0
M  V30 13678 H 1239.31 -3.11272 0.442363 0
M  V30 13679 N 1243.08 -1.54377 -0.317073 0
M  V30 13680 C 1244.33 -1.72551 -1.05216 0
M  V30 13681 C 1244.65 -0.5055 -1.88334 0
M  V30 13682 O 1243.92 0.480439 -1.89917 0
M  V30 13683 H 1242.5 -0.636222 -0.391447 0
M  V30 13684 H 1245.16 -1.91696 -0.35194 0
M  V30 13685 H 1244.26 -2.60791 -1.71448 0
M  V30 13686 N 1244.56 0.579466 -1.4656 0
M  V30 13687 C 1245.81 1.33379 -1.51304 0
M  V30 13688 C 1246.12 1.94855 -0.170507 0
M  V30 13689 O 1247.33 2.71331 -0.0957704 0
M  V30 13690 C 1245.78 2.41748 -2.66619 0
M  V30 13691 C 1245.39 1.8656 -4.07307 0
M  V30 13692 C 1247.14 3.18502 -2.80636 0
M  V30 13693 C 1245.04 2.92578 -5.13957 0
M  V30 13694 H 1243.97 0.501422 -0.56311 0
M  V30 13695 H 1246.62 0.618025 -1.72779 0
M  V30 13696 H 1245.01 3.16138 -2.3848 0
M  V30 13697 H 1246.18 1.18692 -4.45252 0
M  V30 13698 H 1244.5 1.22464 -3.97984 0
M  V30 13699 H 1247.09 3.9763 -3.57483 0
M  V30 13700 H 1247.44 3.71295 -1.8827 0
M  V30 13701 H 1247.97 2.51219 -3.08437 0
M  V30 13702 H 1244.71 2.44668 -6.08126 0
M  V30 13703 H 1244.23 3.58926 -4.80554 0
M  V30 13704 H 1245.91 3.56471 -5.39942 0
M  V30 13705 N 1246.04 1.3432 0.824371 0
M  V30 13706 C 1246.97 1.21619 1.94271 0
M  V30 13707 C 1247.98 0.143628 1.62165 0
M  V30 13708 O 1249.17 0.395353 1.74067 0
M  V30 13709 C 1246.27 0.846128 3.28167 0
M  V30 13710 C 1245.45 2.01337 3.88307 0
M  V30 13711 C 1244.5 1.62194 5.00579 0
M  V30 13712 O 1243.53 2.33831 5.18953 0
M  V30 13713 N 1244.73 0.535262 5.78027 0
M  V30 13714 H 1247.5 2.17963 2.05699 0
M  V30 13715 H 1245.06 1.27256 1.00088 0
M  V30 13716 H 1247.05 0.566086 4.00721 0
M  V30 13717 H 1245.62 -0.0270764 3.12588 0
M  V30 13718 H 1244.84 2.45823 3.08164 0
M  V30 13719 H 1246.13 2.79404 4.25219 0
M  V30 13720 H 1245.53 -0.0603126 5.65668 0
M  V30 13721 H 1244.08 0.314946 6.51039 0
M  V30 13722 N 1247.52 -1.0444 1.18026 0
M  V30 13723 C 1248.76 -1.77224 0.971391 0
M  V30 13724 C 1249.09 -1.88466 -0.500564 0
M  V30 13725 O 1248.36 -1.40692 -1.36317 0
M  V30 13726 H 1246.94 -0.656485 0.356422 0
M  V30 13727 H 1249.6 -1.26064 1.4864 0
M  V30 13728 H 1248.69 -2.78626 1.4062 0
M  V30 13729 N 1248.99 -0.981699 -1.2329 0
M  V30 13730 C 1249.92 -0.542441 -2.27112 0
M  V30 13731 C 1250.91 0.425034 -1.64704 0
M  V30 13732 O 1252.09 0.318114 -1.91577 0
M  V30 13733 C 1249.22 0.154668 -3.46955 0
M  V30 13734 C 1248.17 -0.73022 -4.21725 0
M  V30 13735 C 1247.5 0.0991766 -5.34608 0
M  V30 13736 C 1248.8 -2.02166 -4.81587 0
M  V30 13737 H 1250.49 -1.41024 -2.64107 0
M  V30 13738 H 1248.04 -0.679544 -1.26957 0
M  V30 13739 H 1249.99 0.473281 -4.18734 0
M  V30 13740 H 1248.72 1.05693 -3.09025 0
M  V30 13741 H 1247.38 -1.03231 -3.51765 0
M  V30 13742 H 1247.02 1.00201 -4.92919 0
M  V30 13743 H 1246.72 -0.489788 -5.85555 0
M  V30 13744 H 1248.25 0.412141 -6.09207 0
M  V30 13745 H 1249.66 -1.76773 -5.45366 0
M  V30 13746 H 1248.06 -2.55851 -5.42826 0
M  V30 13747 H 1249.13 -2.70766 -4.02261 0
M  V30 13748 N 1250.47 1.3842 -0.753509 0
M  V30 13749 C 1251.89 1.53668 -0.431095 0
M  V30 13750 C 1252.09 1.71626 1.05578 0
M  V30 13751 O 1251.14 1.72723 1.84182 0
M  V30 13752 C 1252.46 2.74381 -1.23027 0
M  V30 13753 C 1254.01 2.8823 -1.22034 0
M  V30 13754 C 1254.48 4.11904 -2.00248 0
M  V30 13755 N 1255.97 4.18981 -1.97508 0
M  V30 13756 C 1256.71 5.13667 -2.5482 0
M  V30 13757 N 1256.2 6.14027 -3.20846 0
M  V30 13758 N 1258 5.06017 -2.44751 0
M  V30 13759 H 1250.15 1.25012 -1.71714 0
M  V30 13760 H 1252.41 0.607296 -0.727939 0
M  V30 13761 H 1252.12 2.67515 -2.28317 0
M  V30 13762 H 1251.99 3.67565 -0.847098 0
M  V30 13763 H 1254.38 2.94578 -0.175502 0
M  V30 13764 H 1254.46 1.96057 -1.64303 0
M  V30 13765 H 1254.1 4.06318 -3.04742 0
M  V30 13766 H 1254.03 5.03157 -1.55373 0
M  V30 13767 H 1256.52 3.47104 -1.49423 0
M  V30 13768 H 1256.84 6.82771 -3.61999 0
M  V30 13769 H 1255.18 6.1436 -3.24941 0
M  V30 13770 H 1258.37 4.26552 -1.92797 0
M  V30 13771 H 1258.54 5.7963 -2.89713 0
M  V30 13772 N 1251.95 0.502579 1.49372 0
M  V30 13773 C 1253.2 -0.041381 2.02458 0
M  V30 13774 C 1253.53 -1.36848 1.38213 0
M  V30 13775 O 1252.78 -1.89003 0.507568 0
M  V30 13776 C 1253.08 -0.240835 3.56588 0
M  V30 13777 C 1252.75 1.00846 4.39478 0
M  V30 13778 C 1251.41 1.35091 4.61848 0
M  V30 13779 C 1253.76 1.8388 4.87686 0
M  V30 13780 C 1251.09 2.52318 5.29672 0
M  V30 13781 C 1253.44 3.00262 5.56799 0
M  V30 13782 C 1252.1 3.34885 5.77415 0
M  V30 13783 H 1251.37 -0.0151424 0.740845 0
M  V30 13784 H 1254.02 0.663056 1.79655 0
M  V30 13785 H 1252.33 -1.02781 3.78078 0
M  V30 13786 H 1254.02 -0.676194 3.95258 0
M  V30 13787 H 1250.61 0.731719 4.22308 0
M  V30 13788 H 1254.8 1.58738 4.7023 0
M  V30 13789 H 1250.05 2.79379 5.43836 0
M  V30 13790 H 1254.23 3.64927 5.93128 0
M  V30 13791 H 1251.85 4.25824 6.29744 0
M  V30 13792 N 1253.43 -1.55816 0.23648 0
M  V30 13793 C 1254.68 -1.97862 -0.391579 0
M  V30 13794 C 1254.99 -1.1276 -1.59827 0
M  V30 13795 O 1256.2 -1.44772 -2.29681 0
M  V30 13796 C 1254.65 -3.5204 -0.748065 0
M  V30 13797 C 1254.26 -4.45867 0.436643 0
M  V30 13798 C 1256 -4.02766 -1.3409 0
M  V30 13799 C 1253.91 -5.91373 0.0568909 0
M  V30 13800 H 1252.84 -0.738913 -0.150078 0
M  V30 13801 H 1255.49 -1.80415 0.335052 0
M  V30 13802 H 1253.87 -3.65143 -1.53254 0
M  V30 13803 H 1255.05 -4.44519 1.21408 0
M  V30 13804 H 1253.36 -4.05565 0.943702 0
M  V30 13805 H 1255.96 -5.08987 -1.63817 0
M  V30 13806 H 1256.3 -3.49496 -2.26182 0
M  V30 13807 H 1256.84 -3.92946 -0.619548 0
M  V30 13808 H 1253.58 -6.48657 0.944682 0
M  V30 13809 H 1253.1 -5.95881 -0.684557 0
M  V30 13810 H 1254.77 -6.45972 -0.364586 0
M  V30 13811 N 1254.91 0.036755 -1.57557 0
M  V30 13812 C 1256.16 0.728107 -1.881 0
M  V30 13813 C 1256.47 1.7693 -0.833974 0
M  V30 13814 O 1257.67 2.5127 -1.02837 0
M  V30 13815 C 1256.13 1.34604 -3.33781 0
M  V30 13816 C 1255.74 0.341599 -4.46696 0
M  V30 13817 C 1257.48 2.01772 -3.73481 0
M  V30 13818 C 1255.39 0.967444 -5.83433 0
M  V30 13819 H 1254.32 0.275695 -0.701789 0
M  V30 13820 H 1256.97 -0.0177555 -1.83491 0
M  V30 13821 H 1255.35 2.14135 -3.3311 0
M  V30 13822 H 1256.53 -0.426441 -4.58823 0
M  V30 13823 H 1254.84 -0.227558 -4.15778 0
M  V30 13824 H 1257.44 2.49435 -4.72955 0
M  V30 13825 H 1257.78 2.83255 -3.05077 0
M  V30 13826 H 1258.31 1.29026 -3.76294 0
M  V30 13827 H 1255.05 0.19219 -6.55218 0
M  V30 13828 H 1254.57 1.70551 -5.75041 0
M  V30 13829 H 1256.25 1.47705 -6.29914 0
M  V30 13830 N 1256.39 1.54543 0.308881 0
M  V30 13831 C 1257.32 1.81309 1.40212 0
M  V30 13832 C 1258.33 0.69568 1.47187 0
M  V30 13833 O 1259.52 0.973034 1.49647 0
M  V30 13834 C 1256.62 1.92901 2.78644 0
M  V30 13835 C 1255.79 3.23222 2.94697 0
M  V30 13836 C 1254.85 3.25329 4.13579 0
M  V30 13837 O 1253.88 3.989 4.06039 0
M  V30 13838 N 1255.08 2.50158 5.23833 0
M  V30 13839 H 1257.84 2.75659 1.1761 0
M  V30 13840 H 1255.41 1.54021 0.498925 0
M  V30 13841 H 1257.4 1.91721 3.56406 0
M  V30 13842 H 1255.97 1.05582 2.9423 0
M  V30 13843 H 1255.19 3.37241 2.04113 0
M  V30 13844 H 1256.48 4.09238 3.02328 0
M  V30 13845 H 1255.87 1.90002 5.32838 0
M  V30 13846 H 1254.43 2.5474 5.99959 0
M  V30 13847 N 1257.86 -0.571685 1.46866 0
M  V30 13848 C 1259.09 -1.36008 1.56578 0
M  V30 13849 C 1259.51 -1.86909 0.211326 0
M  V30 13850 O 1258.87 -1.62179 -0.810421 0
M  V30 13851 C 1258.92 -2.51598 2.58323 0
M  V30 13852 O 1258.02 -3.53383 2.1259 0
M  V30 13853 H 1257.36 -0.404593 0.526498 0
M  V30 13854 H 1259.89 -0.692357 1.92529 0
M  V30 13855 H 1259.9 -2.98366 2.78283 0
M  V30 13856 H 1258.58 -2.13904 3.56676 0
M  V30 13857 H 1257.16 -3.13019 2.02666 0
M  V30 13858 N 1259.34 -1.34755 -0.817236 0
M  V30 13859 C 1260.25 -1.28888 -1.96023 0
M  V30 13860 C 1261.27 -0.195582 -1.72897 0
M  V30 13861 O 1262.44 -0.423071 -1.96906 0
M  V30 13862 C 1259.51 -1.04985 -3.30423 0
M  V30 13863 C 1258.57 -2.23526 -3.66517 0
M  V30 13864 C 1257.8 -2.00753 -4.94504 0
M  V30 13865 O 1258.03 -0.968622 -5.62116 0
M  V30 13866 O 1256.96 -2.87848 -5.28608 0
M  V30 13867 H 1260.79 -2.25059 -2.03917 0
M  V30 13868 H 1258.37 -1.15019 -0.953467 0
M  V30 13869 H 1260.25 -0.934589 -4.10906 0
M  V30 13870 H 1258.93 -0.118582 -3.23483 0
M  V30 13871 H 1257.83 -2.40613 -2.86455 0
M  V30 13872 H 1259.17 -3.15062 -3.78149 0
M  V30 13873 N 1260.82 1.03812 -1.18578 0
M  V30 13874 C 1261.77 2.11883 -0.915115 0
M  V30 13875 C 1262.74 1.65453 0.146479 0
M  V30 13876 O 1263.92 1.90799 0.00630058 0
M  V30 13877 C 1261.06 3.42157 -0.449755 0
M  V30 13878 C 1260.17 4.02185 -1.57706 0
M  V30 13879 C 1259.31 5.20431 -1.06417 0
M  V30 13880 C 1258.35 5.72496 -2.16599 0
M  V30 13881 N 1257.49 6.82027 -1.66685 0
M  V30 13882 H 1262.33 2.34373 -1.84047 0
M  V30 13883 H 1259.86 1.14962 -0.917728 0
M  V30 13884 H 1261.82 4.16888 -0.161407 0
M  V30 13885 H 1260.45 3.19806 0.438622 0
M  V30 13886 H 1259.5 3.24757 -1.98083 0
M  V30 13887 H 1260.81 4.36851 -2.40754 0
M  V30 13888 H 1259.97 6.02286 -0.730497 0
M  V30 13889 H 1258.71 4.87276 -0.203301 0
M  V30 13890 H 1257.71 4.8926 -2.50808 0
M  V30 13891 H 1258.94 6.07694 -3.03126 0
M  V30 13892 H 1256.88 6.50742 -0.828916 0
M  V30 13893 H 1256.8 7.1577 -2.43329 0
M  V30 13894 H 1258.07 7.67499 -1.36253 0
M  V30 13895 N 1262.3 0.988223 1.22768 0
M  V30 13896 C 1263.71 0.697281 1.7319 0
M  V30 13897 C 1264.06 -0.786111 1.79763 0
M  V30 13898 O 1263.18 -1.61465 1.44077 0
M  V30 13899 C 1263.78 1.25905 3.14537 0
M  V30 13900 C 1262.34 1.01759 3.62384 0
M  V30 13901 C 1261.49 1.38207 2.40404 0
M  V30 13902 H 1264.44 1.16114 1.08181 0
M  V30 13903 H 1264.46 0.635315 3.75159 0
M  V30 13904 H 1263.97 2.33869 3.09721 0
M  V30 13905 H 1262.07 -0.045627 3.72572 0
M  V30 13906 H 1262.18 1.67767 4.48766 0
M  V30 13907 H 1260.55 0.800607 2.4179 0
M  V30 13908 H 1261.33 2.47165 2.38253 0
M  V30 13909 N 1263.78 -1.38018 0.760839 0
M  V30 13910 C 1265.19 -1.82645 0.387022 0
M  V30 13911 C 1265.54 -1.63445 -1.08536 0
M  V30 13912 O 1264.66 -1.13958 -1.83963 0
M  V30 13913 C 1265.26 -3.3158 0.69569 0
M  V30 13914 C 1263.82 -3.74527 0.375063 0
M  V30 13915 C 1262.96 -2.60696 0.94515 0
M  V30 13916 H 1265.91 -1.26644 0.956396 0
M  V30 13917 H 1265.94 -3.80493 -0.0235511 0
M  V30 13918 H 1265.45 -3.45522 1.76737 0
M  V30 13919 H 1263.55 -3.6616 -0.689741 0
M  V30 13920 H 1263.66 -4.71029 0.875685 0
M  V30 13921 H 1262.03 -2.51997 0.370065 0
M  V30 13922 H 1262.81 -2.77434 2.02201 0
M  V30 13923 N 1265.25 -0.510493 -1.49103 0
M  V30 13924 C 1266.2 0.282297 -2.26246 0
M  V30 13925 C 1267.19 0.927187 -1.31499 0
M  V30 13926 O 1268.38 0.833216 -1.56162 0
M  V30 13927 C 1265.51 1.34046 -3.16049 0
M  V30 13928 C 1264.59 0.701334 -4.18261 0
M  V30 13929 N 1264.99 -0.201593 -5.05398 0
M  V30 13930 C 1263.28 0.960822 -4.35527 0
M  V30 13931 C 1263.98 -0.568383 -5.78916 0
M  V30 13932 N 1262.96 0.0659546 -5.4356 0
M  V30 13933 H 1266.76 -0.41264 -2.90989 0
M  V30 13934 H 1264.28 -0.327201 -1.5907 0
M  V30 13935 H 1266.27 1.92195 -3.69955 0
M  V30 13936 H 1264.93 2.03697 -2.52859 0
M  V30 13937 H 1265.94 -0.573004 -5.1472 0
M  V30 13938 H 1262.62 1.64938 -3.83539 0
M  V30 13939 H 1264.01 -1.30763 -6.59053 0
M  V30 13940 N 1266.73 1.55688 -0.24474 0
M  V30 13941 C 1267.96 2.02995 0.38425 0
M  V30 13942 C 1268.37 1.12339 1.52239 0
M  V30 13943 O 1267.71 0.129803 1.83241 0
M  V30 13944 C 1267.77 3.46564 0.955701 0
M  V30 13945 C 1267.44 4.56973 -0.0499176 0
M  V30 13946 C 1268.44 5.1276 -0.858682 0
M  V30 13947 C 1266.12 5.01994 -0.175383 0
M  V30 13948 C 1268.11 6.12059 -1.77939 0
M  V30 13949 C 1265.8 6.01126 -1.0996 0
M  V30 13950 C 1266.8 6.56037 -1.90013 0
M  V30 13951 O 1266.49 7.53235 -2.80877 0
M  V30 13952 H 1266.22 0.669189 0.0957212 0
M  V30 13953 H 1268.77 2.02121 -0.36555 0
M  V30 13954 H 1267 3.44581 1.75502 0
M  V30 13955 H 1268.69 3.77383 1.49454 0
M  V30 13956 H 1269.46 4.78811 -0.772325 0
M  V30 13957 H 1265.34 4.58918 0.437644 0
M  V30 13958 H 1268.88 6.54845 -2.40465 0
M  V30 13959 H 1264.78 6.34494 -1.18689 0
M  V30 13960 H 1265.55 7.70844 -2.75214 0
M  V30 13961 N 1268.21 -0.0283989 1.57574 0
M  V30 13962 C 1269.14 -1.02828 2.09639 0
M  V30 13963 C 1270.12 -1.37668 0.999076 0
M  V30 13964 O 1271.31 -1.4654 1.27435 0
M  V30 13965 C 1268.44 -2.329 2.57633 0
M  V30 13966 C 1267.39 -2.12301 3.71635 0
M  V30 13967 C 1266.72 -3.48138 4.05837 0
M  V30 13968 C 1268.02 -1.50864 5.00037 0
M  V30 13969 H 1269.71 -0.594876 2.93431 0
M  V30 13970 H 1267.26 -0.284701 1.41158 0
M  V30 13971 H 1269.21 -3.03179 2.92678 0
M  V30 13972 H 1267.93 -2.78302 1.70926 0
M  V30 13973 H 1266.59 -1.44454 3.3694 0
M  V30 13974 H 1266.24 -3.9119 3.16195 0
M  V30 13975 H 1265.94 -3.3518 4.82626 0
M  V30 13976 H 1267.46 -4.19779 4.43417 0
M  V30 13977 H 1268.88 -2.11062 5.33035 0
M  V30 13978 H 1267.27 -1.48479 5.81441 0
M  V30 13979 H 1268.34 -0.474541 4.82572 0
M  V30 13980 N 1269.69 -1.54705 -0.300681 0
M  V30 13981 C 1270.6 -1.88736 -1.39341 0
M  V30 13982 C 1271.61 -0.78155 -1.5546 0
M  V30 13983 O 1272.79 -1.07804 -1.70118 0
M  V30 13984 C 1269.85 -2.12795 -2.73713 0
M  V30 13985 C 1268.92 -3.36504 -2.66577 0
M  V30 13986 C 1268.15 -3.59407 -3.94541 0
M  V30 13987 O 1268.37 -2.85315 -4.93914 0
M  V30 13988 O 1267.31 -4.52923 -3.96415 0
M  V30 13989 H 1271.13 -2.817 -1.13484 0
M  V30 13990 H 1268.72 -1.40899 -0.496771 0
M  V30 13991 H 1270.6 -2.29819 -3.53215 0
M  V30 13992 H 1269.27 -1.23017 -2.99414 0
M  V30 13993 H 1268.18 -3.24844 -1.85546 0
M  V30 13994 H 1269.51 -4.26414 -2.45829 0
M  V30 13995 N 1271.17 0.563888 -1.47167 0
M  V30 13996 C 1272.39 1.35176 -1.57297 0
M  V30 13997 C 1272.82 1.86794 -0.221235 0
M  V30 13998 O 1272.17 1.62606 0.801809 0
M  V30 13999 C 1272.22 2.50225 -2.59654 0
M  V30 14000 O 1271.33 3.5225 -2.14461 0
M  V30 14001 H 1270.67 0.401795 -0.528637 0
M  V30 14002 H 1273.2 0.682137 -1.92894 0
M  V30 14003 H 1273.21 2.96886 -2.79862 0
M  V30 14004 H 1271.88 2.1201 -3.57805 0
M  V30 14005 H 1270.46 3.1194 -2.04323 0
M  V30 14006 N 1272.64 1.35187 0.810078 0
M  V30 14007 C 1274.06 1.15149 1.10512 0
M  V30 14008 C 1274.26 -0.038394 2.01463 0
M  V30 14009 O 1273.32 -0.710056 2.42311 0
M  V30 14010 C 1274.63 2.45282 1.73946 0
M  V30 14011 C 1276.18 2.51457 1.86382 0
M  V30 14012 C 1276.65 3.81625 2.53232 0
M  V30 14013 N 1278.14 3.82856 2.6072 0
M  V30 14014 C 1278.88 4.80302 3.13206 0
M  V30 14015 N 1278.37 5.88134 3.66156 0
M  V30 14016 N 1280.17 4.67743 3.11726 0
M  V30 14017 H 1272.32 2.11405 0.205391 0
M  V30 14018 H 1274.58 0.935457 0.153702 0
M  V30 14019 H 1274.29 3.32512 1.14582 0
M  V30 14020 H 1274.16 2.59573 2.73682 0
M  V30 14021 H 1276.55 1.64659 2.44891 0
M  V30 14022 H 1276.63 2.41084 0.855113 0
M  V30 14023 H 1276.27 4.68819 1.95375 0
M  V30 14024 H 1276.2 3.89285 3.54633 0
M  V30 14025 H 1278.69 3.04941 2.23203 0
M  V30 14026 H 1279.01 6.58487 4.04494 0
M  V30 14027 H 1277.35 5.91831 3.64364 0
M  V30 14028 H 1280.54 3.82642 2.69635 0
M  V30 14029 H 1280.72 5.43849 3.52324 0
M  V30 14030 N 1274.12 -1.03182 1.19127 0
M  V30 14031 C 1275.37 -1.76794 0.993563 0
M  V30 14032 C 1275.7 -1.88306 -0.474809 0
M  V30 14033 O 1274.98 -1.39769 -1.35258 0
M  V30 14034 C 1275.26 -3.19573 1.65968 0
M  V30 14035 C 1275.11 -3.1595 3.2015 0
M  V30 14036 C 1276.43 -4.17897 1.38023 0
M  V30 14037 H 1273.55 -0.641768 0.362357 0
M  V30 14038 H 1276.19 -1.20472 1.46924 0
M  V30 14039 H 1274.34 -3.67663 1.25524 0
M  V30 14040 H 1276.01 -2.7578 3.69788 0
M  V30 14041 H 1274.26 -2.53743 3.51848 0
M  V30 14042 H 1274.93 -4.16811 3.61901 0
M  V30 14043 H 1277.4 -3.78394 1.73082 0
M  V30 14044 H 1276.28 -5.15997 1.87186 0
M  V30 14045 H 1276.54 -4.41048 0.304812 0
M  V30 14046 N 1275.6 -0.99472 -1.22242 0
M  V30 14047 C 1276.51 -0.555502 -2.27928 0
M  V30 14048 C 1277.53 0.396584 -1.6942 0
M  V30 14049 O 1278.7 0.262965 -1.99676 0
M  V30 14050 C 1275.77 0.121121 -3.46488 0
M  V30 14051 C 1274.83 -0.874155 -4.20306 0
M  V30 14052 C 1274.06 -0.229726 -5.33205 0
M  V30 14053 O 1274.28 0.975935 -5.61989 0
M  V30 14054 O 1273.22 -0.935501 -5.94586 0
M  V30 14055 H 1277.04 -1.4348 -2.6767 0
M  V30 14056 H 1274.63 -0.763061 -1.28444 0
M  V30 14057 H 1276.51 0.500043 -4.18423 0
M  V30 14058 H 1275.19 0.974959 -3.08668 0
M  V30 14059 H 1274.09 -1.30404 -3.50636 0
M  V30 14060 H 1275.43 -1.69725 -4.62011 0
M  V30 14061 N 1277.08 1.37613 -0.768148 0
M  V30 14062 C 1278.04 2.28653 -0.158283 0
M  V30 14063 C 1279.04 1.47862 0.631936 0
M  V30 14064 O 1280.23 1.68124 0.456055 0
M  V30 14065 C 1277.36 3.31776 0.783435 0
M  V30 14066 H 1278.56 2.84094 -0.960772 0
M  V30 14067 H 1276.11 1.46818 -0.536116 0
M  V30 14068 H 1276.84 2.81452 1.61106 0
M  V30 14069 H 1276.63 3.91488 0.219016 0
M  V30 14070 H 1278.12 3.99816 1.20568 0
M  V30 14071 N 1278.56 0.518393 1.4883 0
M  V30 14072 C 1279.8 -0.0199053 2.0249 0
M  V30 14073 C 1280.13 -1.35375 1.39657 0
M  V30 14074 O 1279.39 -1.88454 0.527586 0
M  V30 14075 C 1279.69 -0.203001 3.56823 0
M  V30 14076 C 1279.35 1.05502 4.38384 0
M  V30 14077 C 1278.01 1.39982 4.60389 0
M  V30 14078 C 1280.37 1.89042 4.85708 0
M  V30 14079 C 1277.69 2.57922 5.26966 0
M  V30 14080 C 1280.05 3.06151 5.53583 0
M  V30 14081 C 1278.71 3.40991 5.73831 0
M  V30 14082 H 1277.98 -0.00728388 0.740964 0
M  V30 14083 H 1280.63 0.682073 1.78941 0
M  V30 14084 H 1278.93 -0.987653 3.79147 0
M  V30 14085 H 1280.63 -0.634234 3.95953 0
M  V30 14086 H 1277.22 0.77647 4.21508 0
M  V30 14087 H 1281.4 1.63716 4.6852 0
M  V30 14088 H 1276.66 2.85132 5.40842 0
M  V30 14089 H 1280.83 3.71198 5.89224 0
M  V30 14090 H 1278.46 4.32479 6.25193 0
M  V30 14091 N 1280.03 -1.55556 0.252993 0
M  V30 14092 C 1280.96 -2.24613 -0.638047 0
M  V30 14093 C 1281.95 -1.22852 -1.1765 0
M  V30 14094 O 1283.13 -1.51519 -1.21472 0
M  V30 14095 C 1280.26 -2.95029 -1.83236 0
M  V30 14096 C 1279.21 -4.03531 -1.42641 0
M  V30 14097 C 1278.54 -4.61404 -2.70204 0
M  V30 14098 C 1279.84 -5.18923 -0.592958 0
M  V30 14099 H 1281.53 -2.99335 -0.0621918 0
M  V30 14100 H 1279.08 -1.43972 -0.0284722 0
M  V30 14101 H 1281.03 -3.42042 -2.46141 0
M  V30 14102 H 1279.76 -2.17805 -2.43369 0
M  V30 14103 H 1278.42 -3.57296 -0.820672 0
M  V30 14104 H 1278.06 -3.80874 -3.28548 0
M  V30 14105 H 1277.76 -5.34652 -2.43764 0
M  V30 14106 H 1279.29 -5.11154 -3.33997 0
M  V30 14107 H 1280.7 -5.62124 -1.12646 0
M  V30 14108 H 1279.1 -5.98598 -0.424358 0
M  V30 14109 H 1280.17 -4.83301 0.393434 0
M  V30 14110 N 1281.51 0.0200419 -1.57587 0
M  V30 14111 C 1282.76 0.708115 -1.88861 0
M  V30 14112 C 1283.07 1.76036 -0.852693 0
M  V30 14113 O 1284.28 2.50165 -1.05497 0
M  V30 14114 C 1282.74 1.31057 -3.3519 0
M  V30 14115 C 1282.34 0.294202 -4.47033 0
M  V30 14116 C 1284.09 1.97799 -3.756 0
M  V30 14117 C 1282 0.905508 -5.84427 0
M  V30 14118 H 1280.93 0.268236 -0.704674 0
M  V30 14119 H 1283.58 -0.0372162 -1.83462 0
M  V30 14120 H 1281.96 2.1059 -3.35362 0
M  V30 14121 H 1283.13 -0.475081 -4.58344 0
M  V30 14122 H 1281.45 -0.271644 -4.15513 0
M  V30 14123 H 1284.04 2.44404 -4.75574 0
M  V30 14124 H 1284.39 2.80004 -3.08064 0
M  V30 14125 H 1284.92 1.25028 -3.77641 0
M  V30 14126 H 1281.66 0.122685 -6.55385 0
M  V30 14127 H 1281.18 1.64442 -5.76818 0
M  V30 14128 H 1282.86 1.41016 -6.31446 0
M  V30 14129 N 1282.99 1.54862 0.292472 0
M  V30 14130 C 1284.22 1.7855 1.04534 0
M  V30 14131 C 1284.63 0.549161 1.80637 0
M  V30 14132 O 1283.99 -0.481268 1.7604 0
M  V30 14133 C 1284.04 2.99849 2.01923 0
M  V30 14134 O 1283.76 4.18706 1.28907 0
M  V30 14135 C 1285.26 3.35991 2.8918 0
M  V30 14136 H 1282.48 0.595279 0.309652 0
M  V30 14137 H 1285.03 2.01834 0.329159 0
M  V30 14138 H 1283.18 2.78749 2.69032 0
M  V30 14139 H 1283.6 4.87151 1.94383 0
M  V30 14140 H 1285.07 4.24085 3.53349 0
M  V30 14141 H 1285.55 2.54524 3.57931 0
M  V30 14142 H 1286.15 3.59281 2.27591 0
M  V30 14143 N 1284.47 -0.556076 1.47464 0
M  V30 14144 C 1285.4 -1.67872 1.54578 0
M  V30 14145 C 1286.38 -1.57658 0.397853 0
M  V30 14146 O 1287.56 -1.785 0.605811 0
M  V30 14147 C 1284.69 -3.06122 1.44937 0
M  V30 14148 C 1283.74 -3.34778 2.64246 0
M  V30 14149 S 1284.57 -3.23909 4.26431 0
M  V30 14150 C 1285.73 -4.64651 4.19345 0
M  V30 14151 H 1285.96 -1.61583 2.49556 0
M  V30 14152 H 1283.49 -0.736985 1.35676 0
M  V30 14153 H 1285.45 -3.85866 1.40062 0
M  V30 14154 H 1284.11 -3.09876 0.513412 0
M  V30 14155 H 1283.3 -4.35569 2.53567 0
M  V30 14156 H 1282.91 -2.62655 2.66248 0
M  V30 14157 H 1285.2 -5.55625 3.87669 0
M  V30 14158 H 1286.14 -4.80386 5.20225 0
M  V30 14159 H 1286.55 -4.42751 3.50189 0
M  V30 14160 N 1285.95 -1.35615 -0.802897 0
M  V30 14161 C 1286.86 -1.3096 -1.94645 0
M  V30 14162 C 1287.87 -0.213909 -1.7268 0
M  V30 14163 O 1289.05 -0.443932 -1.96446 0
M  V30 14164 C 1286.11 -1.08483 -3.2929 0
M  V30 14165 C 1285.18 -2.27401 -3.64126 0
M  V30 14166 C 1284.41 -2.05987 -4.92347 0
M  V30 14167 O 1284.63 -1.02819 -5.61057 0
M  V30 14168 O 1283.57 -2.93439 -5.25526 0
M  V30 14169 H 1287.39 -2.27209 -2.01519 0
M  V30 14170 H 1284.98 -1.16024 -0.941214 0
M  V30 14171 H 1286.86 -0.978118 -4.09891 0
M  V30 14172 H 1285.53 -0.152885 -3.23339 0
M  V30 14173 H 1284.44 -2.43638 -2.83886 0
M  V30 14174 H 1285.77 -3.19055 -3.74786 0
M  V30 14175 N 1287.43 1.02549 -1.19673 0
M  V30 14176 C 1288.37 2.109 -0.937536 0
M  V30 14177 C 1289.34 1.65599 0.128923 0
M  V30 14178 O 1290.53 1.90795 -0.0139366 0
M  V30 14179 C 1287.67 3.4166 -0.48602 0
M  V30 14180 C 1286.78 4.0049 -1.61963 0
M  V30 14181 C 1285.92 5.19273 -1.11931 0
M  V30 14182 C 1284.95 5.70166 -2.22659 0
M  V30 14183 N 1284.09 6.80221 -1.73909 0
M  V30 14184 H 1288.93 2.32408 -1.86523 0
M  V30 14185 H 1286.47 1.13982 -0.929869 0
M  V30 14186 H 1288.43 4.16693 -0.205614 0
M  V30 14187 H 1287.06 3.20253 0.404678 0
M  V30 14188 H 1286.11 3.22638 -2.01516 0
M  V30 14189 H 1287.42 4.34273 -2.45374 0
M  V30 14190 H 1286.57 6.01478 -0.794336 0
M  V30 14191 H 1285.31 4.87033 -0.254972 0
M  V30 14192 H 1284.32 4.86572 -2.55983 0
M  V30 14193 H 1285.54 6.04444 -3.09554 0
M  V30 14194 H 1283.49 6.49826 -0.897889 0
M  V30 14195 H 1283.41 7.13149 -2.50907 0
M  V30 14196 H 1284.67 7.66011 -1.44386 0
M  V30 14197 N 1288.9 1.00119 1.21713 0
M  V30 14198 C 1290.13 0.700172 1.95224 0
M  V30 14199 C 1290.55 -0.730138 1.73351 0
M  V30 14200 O 1289.91 -1.50026 1.01794 0
M  V30 14201 C 1289.96 1.02202 3.45814 0
M  V30 14202 O 1289.06 0.125188 4.1221 0
M  V30 14203 H 1288.4 0.261238 0.610451 0
M  V30 14204 H 1290.93 1.34041 1.54578 0
M  V30 14205 H 1290.94 0.967293 3.96368 0
M  V30 14206 H 1289.62 2.06422 3.61058 0
M  V30 14207 H 1288.2 0.236114 3.72152 0
M  V30 14208 N 1290.38 -1.37203 0.775435 0
M  V30 14209 C 1291.63 -1.98846 0.338093 0
M  V30 14210 C 1291.94 -1.6225 -1.09244 0
M  V30 14211 O 1293.15 -2.17024 -1.63135 0
M  V30 14212 C 1291.61 -3.55618 0.553541 0
M  V30 14213 C 1291.21 -4.01149 1.99457 0
M  V30 14214 C 1292.96 -4.24118 0.180006 0
M  V30 14215 C 1290.86 -5.50644 2.15742 0
M  V30 14216 H 1289.79 -0.743955 0.122669 0
M  V30 14217 H 1292.45 -1.56685 0.955087 0
M  V30 14218 H 1290.83 -3.95777 -0.132964 0
M  V30 14219 H 1292 -3.72226 2.71633 0
M  V30 14220 H 1290.32 -3.45443 2.32504 0
M  V30 14221 H 1292.91 -5.33966 0.280145 0
M  V30 14222 H 1293.26 -4.07104 -0.870192 0
M  V30 14223 H 1293.79 -3.89274 0.819201 0
M  V30 14224 H 1290.53 -5.7259 3.19094 0
M  V30 14225 H 1290.05 -5.8124 1.48054 0
M  V30 14226 H 1291.73 -6.16668 1.95781 0
M  V30 14227 N 1291.86 -0.526279 -1.48553 0
M  V30 14228 C 1292.77 0.24244 -2.33344 0
M  V30 14229 C 1293.79 0.942658 -1.46253 0
M  V30 14230 O 1294.96 0.91844 -1.79239 0
M  V30 14231 C 1292.03 1.27801 -3.22285 0
M  V30 14232 C 1291.09 0.588543 -4.25247 0
M  V30 14233 C 1290.32 1.57478 -5.09938 0
M  V30 14234 O 1290.54 2.80707 -4.96548 0
M  V30 14235 O 1289.48 1.11621 -5.9146 0
M  V30 14236 H 1293.3 -0.452262 -3.00314 0
M  V30 14237 H 1290.89 -0.287249 -1.46613 0
M  V30 14238 H 1292.77 1.87656 -3.7731 0
M  V30 14239 H 1291.45 1.95519 -2.57981 0
M  V30 14240 H 1290.35 -0.0504022 -3.74066 0
M  V30 14241 H 1291.69 -0.046627 -4.92178 0
M  V30 14242 N 1293.34 1.5542 -0.261239 0
M  V30 14243 C 1294.61 1.91243 0.41056 0
M  V30 14244 C 1294.99 1.1838 1.74784 0
M  V30 14245 O 1294.34 0.306013 2.26442 0
M  V30 14246 C 1294.55 3.44404 0.56453 0
M  V30 14247 C 1295.9 4.15927 0.853827 0
M  V30 14248 O 1296.92 3.50222 0.649861 0
M  V30 14249 O 1295.78 5.32175 1.24308 0
M  V30 14250 H 1292.88 0.796491 0.222555 0
M  V30 14251 H 1295.42 1.66912 -0.306367 0
M  V30 14252 H 1294.2 3.89478 -0.377134 0
M  V30 14253 H 1293.82 3.74644 1.33145 0
M  V30 14254 N 1294.82 -0.0116844 1.57596 0
M  V30 14255 C 1295.75 -1.04043 2.03102 0
M  V30 14256 C 1296.73 -1.34164 0.918622 0
M  V30 14257 O 1297.91 -1.46527 1.18584 0
M  V30 14258 C 1295.04 -2.37094 2.41876 0
M  V30 14259 C 1294.08 -2.22713 3.63732 0
M  V30 14260 S 1294.92 -1.56416 5.12147 0
M  V30 14261 C 1296.07 -2.90921 5.5418 0
M  V30 14262 H 1296.31 -0.652899 2.90042 0
M  V30 14263 H 1293.84 -0.222201 1.52793 0
M  V30 14264 H 1295.8 -3.13602 2.64885 0
M  V30 14265 H 1294.46 -2.7299 1.55356 0
M  V30 14266 H 1293.65 -3.20976 3.88575 0
M  V30 14267 H 1293.25 -1.54349 3.40665 0
M  V30 14268 H 1295.54 -3.87237 5.55926 0
M  V30 14269 H 1296.49 -2.70792 6.54276 0
M  V30 14270 H 1296.9 -2.94293 4.81717 0
M  V30 14271 N 1296.29 -1.55015 -0.284256 0
M  V30 14272 C 1297.52 -1.79102 -1.03586 0
M  V30 14273 C 1297.94 -0.558733 -1.80343 0
M  V30 14274 O 1297.29 0.471925 -1.76293 0
M  V30 14275 C 1297.34 -3.00915 -2.0033 0
M  V30 14276 O 1297.07 -4.19384 -1.26685 0
M  V30 14277 C 1298.57 -3.3752 -2.87394 0
M  V30 14278 H 1295.79 -0.596912 -0.306491 0
M  V30 14279 H 1298.33 -2.02005 -0.31845 0
M  V30 14280 H 1296.49 -2.80171 -2.67549 0
M  V30 14281 H 1296.9 -4.88175 -1.91796 0
M  V30 14282 H 1298.37 -4.25953 -3.51095 0
M  V30 14283 H 1298.85 -2.56418 -3.56576 0
M  V30 14284 H 1299.46 -3.60483 -2.25682 0
M  V30 14285 N 1297.77 0.548248 -1.47757 0
M  V30 14286 C 1298.68 1.68178 -1.63565 0
M  V30 14287 C 1299.7 1.661 -0.518351 0
M  V30 14288 O 1300.87 1.85384 -0.787061 0
M  V30 14289 C 1297.94 3.04673 -1.65454 0
M  V30 14290 C 1297 3.17749 -2.88677 0
M  V30 14291 C 1296.23 4.47733 -2.90466 0
M  V30 14292 O 1296.46 5.33736 -2.01201 0
M  V30 14293 O 1295.39 4.64789 -3.82433 0
M  V30 14294 H 1299.22 1.57781 -2.59497 0
M  V30 14295 H 1296.8 0.719277 -1.30946 0
M  V30 14296 H 1298.68 3.85885 -1.69324 0
M  V30 14297 H 1297.36 3.15433 -0.726912 0
M  V30 14298 H 1296.26 2.359 -2.90348 0
M  V30 14299 H 1297.6 3.11897 -3.80763 0
M  V30 14300 N 1299.25 1.36039 0.795694 0
M  V30 14301 C 1300.16 1.31991 1.93948 0
M  V30 14302 C 1301.18 0.223064 1.72564 0
M  V30 14303 O 1302.35 0.454344 1.96208 0
M  V30 14304 C 1299.42 1.10228 3.28711 0
M  V30 14305 C 1298.48 2.29328 3.62914 0
M  V30 14306 C 1297.71 2.08595 4.91247 0
M  V30 14307 O 1297.93 1.05793 5.60503 0
M  V30 14308 O 1296.87 2.96222 5.23962 0
M  V30 14309 H 1300.69 2.28274 2.00311 0
M  V30 14310 H 1298.28 1.16521 0.935048 0
M  V30 14311 H 1300.16 0.999842 4.09367 0
M  V30 14312 H 1298.84 0.17003 3.23253 0
M  V30 14313 H 1297.74 2.4514 2.8259 0
M  V30 14314 H 1299.08 3.21038 3.73089 0
M  V30 14315 N 1300.73 -1.01913 1.20215 0
M  V30 14316 C 1301.69 -2.08563 0.950481 0
M  V30 14317 C 1302.69 -1.60634 -0.0729659 0
M  V30 14318 O 1303.88 -1.73437 0.162826 0
M  V30 14319 C 1301.01 -3.38171 0.430453 0
M  V30 14320 H 1302.21 -2.32323 1.89647 0
M  V30 14321 H 1299.76 -1.18674 1.01716 0
M  V30 14322 H 1300.49 -3.20086 -0.521126 0
M  V30 14323 H 1300.28 -3.74284 1.1685 0
M  V30 14324 H 1301.77 -4.16702 0.273781 0
M  V30 14325 N 1302.21 -1.00763 -1.2118 0
M  V30 14326 C 1303.45 -0.691826 -1.90316 0
M  V30 14327 C 1303.78 0.777678 -1.78276 0
M  V30 14328 O 1303.04 1.57962 -1.15526 0
M  V30 14329 C 1303.34 -1.06187 -3.41261 0
M  V30 14330 C 1303 -2.52608 -3.73497 0
M  V30 14331 C 1301.66 -2.92617 -3.82006 0
M  V30 14332 C 1304.02 -3.47442 -3.88502 0
M  V30 14333 C 1301.34 -4.26419 -4.02969 0
M  V30 14334 C 1303.7 -4.8092 -4.10973 0
M  V30 14335 C 1302.36 -5.20649 -4.17709 0
M  V30 14336 H 1301.63 -0.253157 -0.696414 0
M  V30 14337 H 1304.28 -1.26655 -1.43634 0
M  V30 14338 H 1302.58 -0.405428 -3.89697 0
M  V30 14339 H 1304.28 -0.795343 -3.93033 0
M  V30 14340 H 1300.87 -2.20603 -3.67468 0
M  V30 14341 H 1305.05 -3.17695 -3.81292 0
M  V30 14342 H 1300.31 -4.56767 -4.06416 0
M  V30 14343 H 1304.48 -5.54337 -4.21525 0
M  V30 14344 H 1302.11 -6.24343 -4.33705 0
M  V30 14345 N 1303.68 1.3679 -0.7827 0
M  V30 14346 C 1304.62 2.28805 -0.13451 0
M  V30 14347 C 1305.63 1.49159 0.652338 0
M  V30 14348 O 1306.82 1.71682 0.488626 0
M  V30 14349 C 1303.92 3.28508 0.832802 0
M  V30 14350 C 1303.09 4.37291 0.0974435 0
M  V30 14351 C 1302.15 5.16999 0.979715 0
M  V30 14352 O 1301.18 5.67501 0.439439 0
M  V30 14353 N 1302.38 5.32786 2.30477 0
M  V30 14354 H 1305.14 2.85072 -0.924873 0
M  V30 14355 H 1302.7 1.48884 -0.636012 0
M  V30 14356 H 1304.7 3.78718 1.42671 0
M  V30 14357 H 1303.27 2.7293 1.52408 0
M  V30 14358 H 1302.49 3.88335 -0.677483 0
M  V30 14359 H 1303.77 5.07143 -0.410259 0
M  V30 14360 H 1303.17 4.93358 2.76793 0
M  V30 14361 H 1301.73 5.86264 2.84848 0
M  V30 14362 N 1305.16 0.53415 1.48272 0
M  V30 14363 C 1306.11 -0.226335 2.29688 0
M  V30 14364 C 1307.08 -0.929937 1.37628 0
M  V30 14365 O 1308.26 -0.930149 1.66592 0
M  V30 14366 C 1305.4 -1.26472 3.2109 0
M  V30 14367 C 1304.52 -0.569542 4.28229 0
M  V30 14368 C 1303.65 -1.59122 5.06807 0
M  V30 14369 C 1302.69 -0.879734 6.05745 0
M  V30 14370 N 1301.83 -1.84715 6.77366 0
M  V30 14371 H 1306.67 0.474111 2.94204 0
M  V30 14372 H 1304.21 0.245643 1.45034 0
M  V30 14373 H 1306.16 -1.87911 3.72485 0
M  V30 14374 H 1304.79 -1.9335 2.58487 0
M  V30 14375 H 1303.85 0.158872 3.80068 0
M  V30 14376 H 1305.16 -0.0110904 4.98799 0
M  V30 14377 H 1304.31 -2.27977 5.62238 0
M  V30 14378 H 1303.05 -2.18357 4.36086 0
M  V30 14379 H 1302.06 -0.177134 5.49515 0
M  V30 14380 H 1303.28 -0.293439 6.78466 0
M  V30 14381 H 1301.23 -2.42851 6.09393 0
M  V30 14382 H 1301.14 -1.34025 7.44025 0
M  V30 14383 H 1302.41 -2.52756 7.37384 0
M  V30 14384 N 1306.64 -1.55279 0.269478 0
M  V30 14385 C 1307.59 -2.18984 -0.634838 0
M  V30 14386 C 1308.57 -1.15269 -1.12258 0
M  V30 14387 O 1309.77 -1.41103 -1.0686 0
M  V30 14388 C 1306.9 -2.91014 -1.82114 0
M  V30 14389 C 1305.98 -4.02011 -1.35084 0
M  V30 14390 N 1306.37 -5.02273 -0.596299 0
M  V30 14391 C 1304.67 -4.14979 -1.63427 0
M  V30 14392 C 1305.37 -5.80647 -0.349781 0
M  V30 14393 N 1304.35 -5.35749 -0.92057 0
M  V30 14394 H 1308.15 -2.93857 -0.0504516 0
M  V30 14395 H 1305.66 -1.62237 0.0727843 0
M  V30 14396 H 1307.66 -3.35098 -2.48022 0
M  V30 14397 H 1306.32 -2.1765 -2.40953 0
M  V30 14398 H 1307.33 -5.17324 -0.244188 0
M  V30 14399 H 1304.01 -3.52802 -2.23242 0
M  V30 14400 H 1305.4 -6.71419 0.254139 0
M  V30 14401 N 1308.12 0.00332656 -1.576 0
M  V30 14402 C 1309.37 0.688044 -1.89602 0
M  V30 14403 C 1309.68 1.75121 -0.871316 0
M  V30 14404 O 1310.89 2.49032 -1.08144 0
M  V30 14405 C 1309.34 1.27494 -3.36561 0
M  V30 14406 C 1308.95 0.246771 -4.4732 0
M  V30 14407 C 1310.69 1.93804 -3.77677 0
M  V30 14408 C 1308.6 0.843471 -5.85354 0
M  V30 14409 H 1307.53 0.260747 -0.707479 0
M  V30 14410 H 1310.18 -0.0566727 -1.83412 0
M  V30 14411 H 1308.56 2.07022 -3.37577 0
M  V30 14412 H 1309.74 -0.523668 -4.57815 0
M  V30 14413 H 1308.05 -0.3157 -4.15202 0
M  V30 14414 H 1310.65 2.39347 -4.78139 0
M  V30 14415 H 1310.99 2.7672 -3.11017 0
M  V30 14416 H 1311.53 1.21015 -3.78946 0
M  V30 14417 H 1308.27 0.0531655 -6.55478 0
M  V30 14418 H 1307.79 1.58315 -5.7853 0
M  V30 14419 H 1309.46 1.34311 -6.32906 0
M  V30 14420 N 1309.6 1.55164 0.276031 0
M  V30 14421 C 1310.53 1.84243 1.36335 0
M  V30 14422 C 1311.54 0.726745 1.45679 0
M  V30 14423 O 1312.73 1.00456 1.4755 0
M  V30 14424 C 1309.83 1.98768 2.7449 0
M  V30 14425 C 1309 3.294 2.87775 0
M  V30 14426 C 1308.06 3.34029 4.06585 0
M  V30 14427 O 1307.09 4.07423 3.97486 0
M  V30 14428 N 1308.29 2.61213 5.18409 0
M  V30 14429 H 1311.06 2.78092 1.11736 0
M  V30 14430 H 1308.62 1.55044 0.466143 0
M  V30 14431 H 1310.61 1.99238 3.52259 0
M  V30 14432 H 1309.18 1.11799 2.91924 0
M  V30 14433 H 1308.4 3.41494 1.96914 0
M  V30 14434 H 1309.69 4.15558 2.93579 0
M  V30 14435 H 1309.08 2.01261 5.28687 0
M  V30 14436 H 1307.64 2.67409 5.9442 0
M  V30 14437 N 1311.07 -0.540404 1.48045 0
M  V30 14438 C 1312.04 -1.62813 1.61322 0
M  V30 14439 C 1313.04 -1.53243 0.487161 0
M  V30 14440 O 1314.23 -1.571 0.752684 0
M  V30 14441 C 1311.36 -3.02408 1.5736 0
M  V30 14442 H 1312.55 -1.52385 2.583 0
M  V30 14443 H 1310.11 -0.761654 1.36486 0
M  V30 14444 H 1310.84 -3.18353 0.618195 0
M  V30 14445 H 1310.63 -3.10763 2.39099 0
M  V30 14446 H 1312.12 -3.8151 1.69822 0
M  V30 14447 N 1312.55 -1.36459 -0.788468 0
M  V30 14448 C 1313.48 -1.33545 -1.91541 0
M  V30 14449 C 1314.46 -0.206762 -1.68839 0
M  V30 14450 O 1315.65 -0.404553 -1.89939 0
M  V30 14451 C 1312.78 -1.12492 -3.28577 0
M  V30 14452 C 1311.73 -2.22196 -3.65805 0
M  V30 14453 C 1311.06 -1.86285 -5.01201 0
M  V30 14454 C 1312.36 -3.64286 -3.7429 0
M  V30 14455 H 1314.05 -2.27844 -1.94236 0
M  V30 14456 H 1311.6 -1.09677 -0.933105 0
M  V30 14457 H 1313.55 -1.09089 -4.07035 0
M  V30 14458 H 1312.28 -0.146446 -3.26272 0
M  V30 14459 H 1310.93 -2.24727 -2.89644 0
M  V30 14460 H 1310.58 -0.87009 -4.95417 0
M  V30 14461 H 1310.28 -2.59734 -5.27079 0
M  V30 14462 H 1311.81 -1.84439 -5.82078 0
M  V30 14463 H 1313.22 -3.63977 -4.42937 0
M  V30 14464 H 1311.62 -4.36648 -4.11653 0
M  V30 14465 H 1312.69 -3.99123 -2.75371 0
M  V30 14466 N 1314.03 1.01274 -1.20754 0
M  V30 14467 C 1314.99 2.08056 -0.961528 0
M  V30 14468 C 1315.99 1.60671 0.0644461 0
M  V30 14469 O 1317.18 1.73349 -0.172022 0
M  V30 14470 C 1314.32 3.37938 -0.448381 0
M  V30 14471 H 1315.51 2.31314 -1.90877 0
M  V30 14472 H 1313.06 1.18133 -1.02344 0
M  V30 14473 H 1313.8 3.20357 0.504144 0
M  V30 14474 H 1313.58 3.73659 -1.18833 0
M  V30 14475 H 1315.07 4.16551 -0.295876 0
M  V30 14476 N 1315.51 1.01404 1.20644 0
M  V30 14477 C 1316.76 0.697244 1.89265 0
M  V30 14478 C 1317.07 -0.776149 1.79542 0
M  V30 14479 O 1318.28 -1.2054 2.43274 0
M  V30 14480 C 1316.73 1.19672 3.39421 0
M  V30 14481 C 1316.34 2.69683 3.57736 0
M  V30 14482 C 1318.09 0.955225 4.13613 0
M  V30 14483 C 1315.99 3.13124 5.01704 0
M  V30 14484 H 1314.92 0.257105 0.708811 0
M  V30 14485 H 1317.57 1.22639 1.36499 0
M  V30 14486 H 1315.96 0.595562 3.91496 0
M  V30 14487 H 1317.13 3.35326 3.16059 0
M  V30 14488 H 1315.44 2.91946 2.96911 0
M  V30 14489 H 1318.04 1.25524 5.19757 0
M  V30 14490 H 1318.38 -0.108362 4.16159 0
M  V30 14491 H 1318.92 1.51962 3.67631 0
M  V30 14492 H 1315.66 4.18748 5.04311 0
M  V30 14493 H 1315.18 2.522 5.44201 0
M  V30 14494 H 1316.86 3.05617 5.70269 0
M  V30 14495 N 1316.99 -1.36373 0.789944 0
M  V30 14496 C 1318.4 -1.52471 0.471686 0
M  V30 14497 C 1318.6 -1.74365 -1.0099 0
M  V30 14498 O 1317.66 -1.77546 -1.79538 0
M  V30 14499 C 1318.97 -2.71022 1.30259 0
M  V30 14500 C 1320.52 -2.84893 1.29633 0
M  V30 14501 C 1321 -4.0645 2.11098 0
M  V30 14502 N 1322.49 -4.13597 2.08547 0
M  V30 14503 C 1323.22 -5.06731 2.6835 0
M  V30 14504 N 1322.72 -6.05305 3.37013 0
M  V30 14505 N 1324.51 -4.9935 2.58081 0
M  V30 14506 H 1316.66 -1.20416 1.74968 0
M  V30 14507 H 1318.92 -0.587782 0.743785 0
M  V30 14508 H 1318.63 -2.61368 2.35329 0
M  V30 14509 H 1318.5 -3.6519 0.944254 0
M  V30 14510 H 1320.89 -2.94009 0.253542 0
M  V30 14511 H 1320.97 -1.91632 1.69443 0
M  V30 14512 H 1320.62 -3.98096 3.15408 0
M  V30 14513 H 1320.55 -4.98861 1.68659 0
M  V30 14514 H 1323.04 -3.4302 1.58573 0
M  V30 14515 H 1323.35 -6.72934 3.79974 0
M  V30 14516 H 1321.7 -6.05529 3.41116 0
M  V30 14517 H 1324.89 -4.21291 2.04039 0
M  V30 14518 H 1325.06 -5.71745 3.04979 0
M  V30 14519 N 1318.47 -0.542005 -1.47987 0
M  V30 14520 C 1319.88 -0.200691 -1.58333 0
M  V30 14521 C 1320.08 1.29643 -1.54256 0
M  V30 14522 O 1319.14 2.07556 -1.43794 0
M  V30 14523 C 1320.45 -0.813878 -2.89476 0
M  V30 14524 C 1322 -0.783711 -3.0303 0
M  V30 14525 C 1322.47 -1.37569 -4.36851 0
M  V30 14526 N 1323.96 -1.33819 -4.43449 0
M  V30 14527 C 1324.7 -1.76602 -5.45527 0
M  V30 14528 N 1324.2 -2.27169 -6.54497 0
M  V30 14529 N 1325.99 -1.67765 -5.3648 0
M  V30 14530 H 1318.14 -1.51488 -1.4888 0
M  V30 14531 H 1320.4 -0.630835 -0.707638 0
M  V30 14532 H 1320.11 -1.86544 -2.98151 0
M  V30 14533 H 1319.98 -0.297978 -3.76021 0
M  V30 14534 H 1322.37 0.259118 -2.9396 0
M  V30 14535 H 1322.45 -1.33721 -2.18065 0
M  V30 14536 H 1322.09 -2.41751 -4.46675 0
M  V30 14537 H 1322.02 -0.797769 -5.20522 0
M  V30 14538 H 1324.52 -0.968147 -3.65288 0
M  V30 14539 H 1324.83 -2.57777 -7.2854 0
M  V30 14540 H 1323.17 -2.31171 -6.55427 0
M  V30 14541 H 1326.36 -1.28048 -4.50246 0
M  V30 14542 H 1326.54 -2.01426 -6.15899 0
M  V30 14543 N 1319.94 1.55134 -0.277709 0
M  V30 14544 C 1320.87 2.256 0.602232 0
M  V30 14545 C 1321.85 1.24708 1.15681 0
M  V30 14546 O 1323.04 1.53433 1.19046 0
M  V30 14547 C 1320.17 2.97907 1.78519 0
M  V30 14548 C 1319.12 4.0575 1.36203 0
M  V30 14549 C 1318.45 4.65644 2.62829 0
M  V30 14550 C 1319.75 5.19801 0.510327 0
M  V30 14551 H 1321.44 2.99396 0.0145622 0
M  V30 14552 H 1318.99 1.43999 0.00556389 0
M  V30 14553 H 1320.94 3.45915 2.40668 0
M  V30 14554 H 1319.67 2.21649 2.39873 0
M  V30 14555 H 1318.33 3.58557 0.763726 0
M  V30 14556 H 1317.97 3.86053 3.22447 0
M  V30 14557 H 1317.67 5.38463 2.35227 0
M  V30 14558 H 1319.2 5.16403 3.25823 0
M  V30 14559 H 1320.61 5.63845 1.03689 0
M  V30 14560 H 1319.01 5.99197 0.329073 0
M  V30 14561 H 1320.08 4.82614 -0.470273 0
M  V30 14562 N 1321.42 0.00503138 1.57599 0
M  V30 14563 C 1322.7 -0.716079 1.82021 0
M  V30 14564 C 1323.08 -1.91707 0.883829 0
M  V30 14565 O 1322.43 -2.28404 -0.0662812 0
M  V30 14566 C 1322.64 -1.11706 3.3064 0
M  V30 14567 C 1323.98 -1.51881 3.96506 0
M  V30 14568 O 1325.01 -1.21071 3.34993 0
M  V30 14569 O 1323.87 -2.09191 5.04877 0
M  V30 14570 H 1320.96 -0.349112 0.7497 0
M  V30 14571 H 1323.51 0.030871 1.69672 0
M  V30 14572 H 1322.28 -0.261223 3.90427 0
M  V30 14573 H 1321.9 -1.92295 3.48006 0
M  V30 14574 N 1322.9 -1.55308 -0.267798 0
M  V30 14575 C 1323.85 -1.88544 -1.33115 0
M  V30 14576 C 1324.82 -0.737465 -1.48831 0
M  V30 14577 O 1326 -0.989215 -1.63154 0
M  V30 14578 C 1323.14 -2.1674 -2.68547 0
M  V30 14579 C 1322.25 -3.44234 -2.61011 0
M  V30 14580 C 1321.39 -3.62104 -3.88657 0
M  V30 14581 C 1320.43 -4.83272 -3.75652 0
M  V30 14582 N 1319.57 -4.97772 -4.95144 0
M  V30 14583 H 1324.41 -2.79237 -1.04071 0
M  V30 14584 H 1321.94 -1.38245 -0.502677 0
M  V30 14585 H 1323.9 -2.31088 -3.47353 0
M  V30 14586 H 1322.53 -1.29276 -2.95783 0
M  V30 14587 H 1321.58 -3.3833 -1.73887 0
M  V30 14588 H 1322.89 -4.33177 -2.47303 0
M  V30 14589 H 1322.05 -3.76298 -4.75904 0
M  V30 14590 H 1320.79 -2.71356 -4.05238 0
M  V30 14591 H 1319.79 -4.69076 -2.86788 0
M  V30 14592 H 1321.02 -5.75461 -3.60585 0
M  V30 14593 H 1318.96 -4.09956 -5.12125 0
M  V30 14594 H 1318.88 -5.80769 -4.83987 0
M  V30 14595 H 1320.15 -5.16357 -5.83949 0
M  V30 14596 N 1324.38 0.532545 -1.4833 0
M  V30 14597 C 1325.79 1.11451 -1.49785 0
M  V30 14598 C 1326.14 1.94386 -0.266207 0
M  V30 14599 O 1325.26 2.07121 0.62688 0
M  V30 14600 C 1325.86 2.0279 -2.71407 0
M  V30 14601 C 1324.42 2.56209 -2.75742 0
M  V30 14602 C 1323.57 1.33114 -2.43261 0
M  V30 14603 H 1326.52 0.317924 -1.55483 0
M  V30 14604 H 1326.54 2.87038 -2.49779 0
M  V30 14605 H 1326.05 1.42401 -3.61031 0
M  V30 14606 H 1324.15 3.20327 -1.9032 0
M  V30 14607 H 1324.26 2.95518 -3.77102 0
M  V30 14608 H 1322.63 1.64607 -1.94362 0
M  V30 14609 H 1323.41 0.744809 -3.35123 0
M  V30 14610 N 1325.86 1.36875 0.78122 0
M  V30 14611 C 1326.8 1.31869 1.89418 0
M  V30 14612 C 1327.77 0.185904 1.65056 0
M  V30 14613 O 1328.96 0.373745 1.87104 0
M  V30 14614 C 1326.1 1.12205 3.2635 0
M  V30 14615 C 1325.21 2.34631 3.62729 0
M  V30 14616 C 1324.35 2.07914 4.8882 0
M  V30 14617 C 1323.38 3.26257 5.17902 0
M  V30 14618 N 1322.52 2.99152 6.35179 0
M  V30 14619 H 1327.36 2.2703 1.93032 0
M  V30 14620 H 1324.9 1.12826 0.943857 0
M  V30 14621 H 1326.86 0.988282 4.05326 0
M  V30 14622 H 1325.49 0.206959 3.22136 0
M  V30 14623 H 1324.54 2.58782 2.78812 0
M  V30 14624 H 1325.85 3.22919 3.80164 0
M  V30 14625 H 1325 1.91514 5.7568 0
M  V30 14626 H 1323.74 1.1695 4.7347 0
M  V30 14627 H 1322.75 3.43207 4.29522 0
M  V30 14628 H 1323.97 4.1806 5.35166 0
M  V30 14629 H 1321.92 2.10807 6.21205 0
M  V30 14630 H 1321.84 3.80981 6.52985 0
M  V30 14631 H 1323.1 2.86349 7.25 0
M  V30 14632 N 1327.33 -1.00632 1.21289 0
M  V30 14633 C 1328.28 -2.09382 0.97097 0
M  V30 14634 C 1329.25 -1.65783 -0.102561 0
M  V30 14635 O 1330.44 -1.90749 0.0442886 0
M  V30 14636 C 1327.58 -3.40844 0.540314 0
M  V30 14637 C 1326.69 -3.97862 1.68314 0
M  V30 14638 C 1325.82 -5.17427 1.20178 0
M  V30 14639 C 1324.86 -5.66552 2.31702 0
M  V30 14640 N 1324 -6.77368 1.84709 0
M  V30 14641 H 1328.84 -2.29411 1.90196 0
M  V30 14642 H 1326.38 -1.12488 0.947885 0
M  V30 14643 H 1328.33 -4.16313 0.271881 0
M  V30 14644 H 1326.96 -3.20857 -0.353677 0
M  V30 14645 H 1326.02 -3.19391 2.06624 0
M  V30 14646 H 1327.33 -4.30314 2.52252 0
M  V30 14647 H 1326.48 -6.00138 0.889926 0
M  V30 14648 H 1325.22 -4.86566 0.332422 0
M  V30 14649 H 1324.23 -4.82438 2.63691 0
M  V30 14650 H 1325.45 -5.99443 3.19131 0
M  V30 14651 H 1323.4 -6.48315 1.00116 0
M  V30 14652 H 1323.31 -7.09067 2.62221 0
M  V30 14653 H 1324.58 -7.63617 1.56554 0
M  V30 14654 N 1328.81 -1.02043 -1.20104 0
M  V30 14655 C 1329.74 -0.614421 -2.25271 0
M  V30 14656 C 1330.72 0.37242 -1.65973 0
M  V30 14657 O 1331.91 0.257005 -1.92492 0
M  V30 14658 C 1329.04 0.0442085 -3.47272 0
M  V30 14659 C 1327.99 -0.864019 -4.19188 0
M  V30 14660 C 1327.32 -0.0709551 -5.34653 0
M  V30 14661 C 1328.62 -2.17385 -4.74912 0
M  V30 14662 H 1330.31 -1.49355 -2.59487 0
M  V30 14663 H 1327.86 -0.719591 -1.24731 0
M  V30 14664 H 1329.81 0.339825 -4.20028 0
M  V30 14665 H 1328.53 0.958082 -3.12231 0
M  V30 14666 H 1327.19 -1.1437 -3.48303 0
M  V30 14667 H 1326.84 0.844688 -4.95857 0
M  V30 14668 H 1326.54 -0.67583 -5.83701 0
M  V30 14669 H 1328.07 0.218118 -6.1021 0
M  V30 14670 H 1329.48 -1.94034 -5.39466 0
M  V30 14671 H 1327.88 -2.72991 -5.34412 0
M  V30 14672 H 1328.95 -2.83427 -3.93443 0
M  V30 14673 N 1330.29 1.35952 -0.797165 0
M  V30 14674 C 1331.52 2.0381 -0.38421 0
M  V30 14675 C 1331.94 1.597 0.993854 0
M  V30 14676 O 1331.3 0.769148 1.64176 0
M  V30 14677 C 1331.35 3.57589 -0.465054 0
M  V30 14678 O 1330.45 4.09043 0.525095 0
M  V30 14679 H 1329.79 0.643957 -0.161912 0
M  V30 14680 H 1332.32 1.73746 -1.08043 0
M  V30 14681 H 1332.33 4.06651 -0.331448 0
M  V30 14682 H 1331.01 3.89045 -1.47027 0
M  V30 14683 H 1329.58 3.7123 0.352509 0
M  V30 14684 N 1331.77 0.549846 1.47697 0
M  V30 14685 C 1332.73 -0.191427 2.28399 0
M  V30 14686 C 1333.73 -0.849533 1.36527 0
M  V30 14687 O 1334.92 -0.706526 1.59229 0
M  V30 14688 C 1332.05 -1.27907 3.15995 0
M  V30 14689 H 1333.25 0.517375 2.95404 0
M  V30 14690 H 1330.8 0.30651 1.53265 0
M  V30 14691 H 1331.53 -2.0205 2.53665 0
M  V30 14692 H 1331.32 -0.812066 3.83599 0
M  V30 14693 H 1332.81 -1.79992 3.76819 0
M  V30 14694 N 1333.25 -1.54984 0.285932 0
M  V30 14695 C 1334.16 -2.26621 -0.606648 0
M  V30 14696 C 1335.17 -1.29595 -1.16108 0
M  V30 14697 O 1336.35 -1.62551 -1.18908 0
M  V30 14698 C 1333.41 -2.98156 -1.76929 0
M  V30 14699 C 1332.47 -4.10685 -1.25045 0
M  V30 14700 C 1331.71 -4.788 -2.35768 0
M  V30 14701 O 1331.93 -4.46183 -3.55354 0
M  V30 14702 O 1330.86 -5.66523 -2.03312 0
M  V30 14703 H 1334.69 -3.03689 -0.0259981 0
M  V30 14704 H 1332.28 -1.49306 0.0529355 0
M  V30 14705 H 1334.16 -3.43076 -2.44697 0
M  V30 14706 H 1332.83 -2.23996 -2.33683 0
M  V30 14707 H 1331.74 -3.70198 -0.538919 0
M  V30 14708 H 1333.07 -4.86778 -0.728528 0
M  V30 14709 N 1334.72 -0.0133892 -1.57594 0
M  V30 14710 C 1335.96 0.672977 -1.93004 0
M  V30 14711 C 1336.33 1.70188 -0.888816 0
M  V30 14712 O 1337.53 2.4396 -1.12859 0
M  V30 14713 C 1335.8 1.28743 -3.33407 0
M  V30 14714 S 1337.36 1.99706 -3.90721 0
M  V30 14715 H 1334.18 0.221972 -0.675462 0
M  V30 14716 H 1336.78 -0.0732871 -1.95363 0
M  V30 14717 H 1335.48 0.525931 -4.07016 0
M  V30 14718 H 1335.01 2.07134 -3.34454 0
M  V30 14719 H 1337.03 3.27375 -3.72881 0
M  V30 14720 N 1336.2 1.55448 0.259558 0
M  V30 14721 C 1337.17 1.88459 1.30445 0
M  V30 14722 C 1338.17 0.760096 1.41701 0
M  V30 14723 O 1339.36 1.02819 1.4062 0
M  V30 14724 C 1336.49 2.10181 2.68397 0
M  V30 14725 H 1337.68 2.81877 1.02398 0
M  V30 14726 H 1335.23 1.48145 0.498262 0
M  V30 14727 H 1335.97 1.19189 3.01603 0
M  V30 14728 H 1335.75 2.92066 2.6161 0
M  V30 14729 H 1337.24 2.36947 3.43869 0
M  V30 14730 N 1337.68 -0.524672 1.4861 0
M  V30 14731 C 1338.63 -1.62872 1.63527 0
M  V30 14732 C 1339.6 -1.59097 0.477202 0
M  V30 14733 O 1340.78 -1.77443 0.701341 0
M  V30 14734 C 1337.92 -3.01116 1.68592 0
M  V30 14735 C 1337.04 -3.15085 2.95542 0
M  V30 14736 C 1336.17 -4.4392 2.91734 0
M  V30 14737 C 1335.21 -4.51436 4.13366 0
M  V30 14738 N 1334.35 -5.71667 4.07605 0
M  V30 14739 H 1339.19 -1.49462 2.57808 0
M  V30 14740 H 1336.72 -0.727578 1.27846 0
M  V30 14741 H 1338.68 -3.81212 1.6951 0
M  V30 14742 H 1337.31 -3.13285 0.777975 0
M  V30 14743 H 1336.36 -2.28207 3.04345 0
M  V30 14744 H 1337.68 -3.165 3.85524 0
M  V30 14745 H 1336.83 -5.32312 2.91083 0
M  V30 14746 H 1335.57 -4.45034 1.9949 0
M  V30 14747 H 1334.57 -3.6145 4.14287 0
M  V30 14748 H 1335.8 -4.52057 5.06776 0
M  V30 14749 H 1333.74 -5.73668 3.18184 0
M  V30 14750 H 1333.66 -5.74599 4.91297 0
M  V30 14751 H 1334.93 -6.62331 4.1102 0
M  V30 14752 N 1339.16 -1.37287 -0.77395 0
M  V30 14753 C 1340.39 -1.35366 -1.56075 0
M  V30 14754 C 1340.8 0.0634437 -1.89094 0
M  V30 14755 O 1340.14 1.03503 -1.51766 0
M  V30 14756 C 1340.2 -2.12512 -2.89964 0
M  V30 14757 C 1339.87 -3.61492 -2.79593 0
M  V30 14758 C 1340.86 -4.55421 -2.50774 0
M  V30 14759 C 1338.55 -4.04585 -2.97684 0
M  V30 14760 C 1340.54 -5.90421 -2.4017 0
M  V30 14761 C 1338.23 -5.39672 -2.86701 0
M  V30 14762 C 1339.23 -6.32403 -2.57984 0
M  V30 14763 O 1338.91 -7.65006 -2.47024 0
M  V30 14764 H 1338.65 -0.465447 -0.49024 0
M  V30 14765 H 1341.2 -1.81199 -0.967273 0
M  V30 14766 H 1339.43 -1.61366 -3.51423 0
M  V30 14767 H 1341.12 -2.03253 -3.51345 0
M  V30 14768 H 1341.89 -4.23438 -2.36485 0
M  V30 14769 H 1337.76 -3.32769 -3.19038 0
M  V30 14770 H 1341.31 -6.62769 -2.17676 0
M  V30 14771 H 1337.21 -5.71258 -3.00558 0
M  V30 14772 H 1337.97 -7.75302 -2.6239 0
M  V30 14773 N 1340.64 0.999871 -1.21821 0
M  V30 14774 C 1341.88 1.74194 -1.05014 0
M  V30 14775 C 1342.24 1.8795 0.411388 0
M  V30 14776 O 1341.53 1.4065 1.30108 0
M  V30 14777 C 1341.72 3.1509 -1.6868 0
M  V30 14778 C 1341.55 3.15073 -3.20872 0
M  V30 14779 C 1340.32 3.21361 -3.89942 0
M  V30 14780 C 1342.52 2.9978 -4.17896 0
M  V30 14781 N 1340.5 3.11024 -5.2928 0
M  V30 14782 C 1341.87 2.97396 -5.44018 0
M  V30 14783 C 1343.93 2.84119 -4.08877 0
M  V30 14784 C 1342.63 2.80956 -6.6216 0
M  V30 14785 C 1344.66 2.69038 -5.26662 0
M  V30 14786 C 1344.02 2.67335 -6.51699 0
M  V30 14787 H 1340.12 0.647385 -0.438653 0
M  V30 14788 H 1342.7 1.18801 -1.54255 0
M  V30 14789 H 1340.87 3.68742 -1.22 0
M  V30 14790 H 1342.61 3.7782 -1.45031 0
M  V30 14791 H 1339.36 3.28763 -3.40898 0
M  V30 14792 H 1339.79 3.09184 -6.02274 0
M  V30 14793 H 1344.43 2.84238 -3.12999 0
M  V30 14794 H 1342.15 2.79583 -7.58194 0
M  V30 14795 H 1345.73 2.57913 -5.21509 0
M  V30 14796 H 1344.61 2.55805 -7.41305 0
M  V30 14797 N 1342.11 1.02678 1.19562 0
M  V30 14798 C 1343.36 0.72059 1.88817 0
M  V30 14799 C 1343.68 -0.752942 1.79877 0
M  V30 14800 O 1342.95 -1.54233 1.20785 0
M  V30 14801 H 1341.53 0.26355 0.698964 0
M  V30 14802 H 1344.2 1.30056 1.4516 0
M  V30 14803 H 1343.29 1.01303 2.95202 0
M  V30 14804 N 1343.59 -1.35528 0.804364 0
M  V30 14805 C 1344.5 -2.33616 0.214663 0
M  V30 14806 C 1345.52 -1.61757 -0.64115 0
M  V30 14807 O 1346.69 -1.93647 -0.553424 0
M  V30 14808 C 1343.76 -3.40951 -0.628778 0
M  V30 14809 C 1342.82 -4.28587 0.247269 0
M  V30 14810 C 1342.05 -5.30796 -0.556012 0
M  V30 14811 O 1342.28 -5.41557 -1.79088 0
M  V30 14812 O 1341.21 -6.01878 0.0519437 0
M  V30 14813 H 1345.04 -2.85843 1.02605 0
M  V30 14814 H 1342.62 -1.38259 0.566108 0
M  V30 14815 H 1344.5 -4.06538 -1.10926 0
M  V30 14816 H 1343.18 -2.90999 -1.4178 0
M  V30 14817 H 1342.09 -3.65988 0.774835 0
M  V30 14818 H 1343.42 -4.81931 1.00017 0
M  V30 14819 N 1345.07 -0.557671 -1.47404 0
M  V30 14820 C 1346.32 -0.0316382 -2.01675 0
M  V30 14821 C 1346.63 1.32656 -1.43742 0
M  V30 14822 O 1347.84 1.94253 -1.89678 0
M  V30 14823 C 1346.3 -0.00606931 -3.59899 0
M  V30 14824 C 1345.9 -1.36106 -4.26825 0
M  V30 14825 C 1347.65 0.467332 -4.2192 0
M  V30 14826 C 1345.55 -1.29457 -5.77057 0
M  V30 14827 H 1344.48 -0.00805738 -0.753957 0
M  V30 14828 H 1347.14 -0.705592 -1.69392 0
M  V30 14829 H 1345.52 0.733541 -3.89147 0
M  V30 14830 H 1346.69 -2.11842 -4.09218 0
M  V30 14831 H 1345.01 -1.77243 -3.76794 0
M  V30 14832 H 1347.6 0.535478 -5.32012 0
M  V30 14833 H 1347.95 1.47942 -3.89126 0
M  V30 14834 H 1348.48 -0.217434 -3.97205 0
M  V30 14835 H 1345.22 -2.28267 -6.14471 0
M  V30 14836 H 1344.74 -0.579022 -5.96999 0
M  V30 14837 H 1346.42 -0.996834 -6.39275 0
M  V30 14838 N 1346.55 1.54831 -0.294147 0
M  V30 14839 C 1347.8 1.99179 0.317874 0
M  V30 14840 C 1348.11 1.18614 1.55532 0
M  V30 14841 O 1349.32 1.53197 2.24149 0
M  V30 14842 C 1347.77 3.54574 0.616893 0
M  V30 14843 C 1347.38 4.43939 -0.601822 0
M  V30 14844 C 1349.13 4.07465 1.19049 0
M  V30 14845 C 1347.03 5.90754 -0.276336 0
M  V30 14846 H 1345.96 0.743974 0.12255 0
M  V30 14847 H 1348.61 1.79047 -0.401781 0
M  V30 14848 H 1347 3.70579 1.39596 0
M  V30 14849 H 1348.17 4.39706 -1.37822 0
M  V30 14850 H 1346.48 4.01783 -1.09357 0
M  V30 14851 H 1349.08 5.14716 1.44814 0
M  V30 14852 H 1349.42 3.5765 2.13055 0
M  V30 14853 H 1349.96 3.94975 0.473282 0
M  V30 14854 H 1346.7 6.44704 -1.18478 0
M  V30 14855 H 1346.22 5.98011 0.462928 0
M  V30 14856 H 1347.9 6.4688 0.124587 0
M  V30 14857 N 1348.03 0.0217466 1.57585 0
M  V30 14858 C 1349.25 -0.67246 1.96196 0
M  V30 14859 C 1349.68 -1.6529 0.897827 0
M  V30 14860 O 1349.04 -1.80743 -0.142002 0
M  V30 14861 C 1349.08 -1.36162 3.33905 0
M  V30 14862 O 1348.19 -2.47671 3.29747 0
M  V30 14863 H 1347.53 -0.177238 0.639908 0
M  V30 14864 H 1350.06 0.0814073 2.04438 0
M  V30 14865 H 1350.07 -1.7201 3.69968 0
M  V30 14866 H 1348.74 -0.642893 4.10901 0
M  V30 14867 H 1347.32 -2.13989 3.0539 0
M  V30 14868 N 1349.51 -1.55583 -0.251311 0
M  V30 14869 C 1350.44 -1.86388 -1.33387 0
M  V30 14870 C 1351.45 -0.749829 -1.44504 0
M  V30 14871 O 1352.64 -1.0279 -1.45933 0
M  V30 14872 C 1349.74 -2.0311 -2.71293 0
M  V30 14873 C 1348.91 -3.33937 -2.82498 0
M  V30 14874 C 1347.97 -3.40455 -4.01219 0
M  V30 14875 O 1347 -4.13695 -3.90954 0
M  V30 14876 N 1348.2 -2.69427 -5.14188 0
M  V30 14877 H 1350.96 -2.79834 -1.07298 0
M  V30 14878 H 1348.53 -1.55766 -0.441418 0
M  V30 14879 H 1350.52 -2.04817 -3.49045 0
M  V30 14880 H 1349.09 -1.16429 -2.90109 0
M  V30 14881 H 1348.31 -3.44584 -1.91456 0
M  V30 14882 H 1349.6 -4.20176 -2.86931 0
M  V30 14883 H 1348.99 -2.09647 -5.25419 0
M  V30 14884 H 1347.55 -2.76832 -5.90091 0
M  V30 14885 N 1350.98 0.516783 -1.48886 0
M  V30 14886 C 1351.92 1.63632 -1.60491 0
M  V30 14887 C 1352.93 1.55301 -0.488424 0
M  V30 14888 O 1354.12 1.6152 -0.75983 0
M  V30 14889 C 1351.22 3.02351 -1.53093 0
M  V30 14890 C 1350.39 3.36028 -2.80006 0
M  V30 14891 C 1349.45 4.54087 -2.65879 0
M  V30 14892 O 1348.48 4.56652 -3.3979 0
M  V30 14893 N 1349.68 5.53058 -1.76372 0
M  V30 14894 H 1352.44 1.54109 -2.57042 0
M  V30 14895 H 1350 0.704338 -1.45776 0
M  V30 14896 H 1352 3.79225 -1.41318 0
M  V30 14897 H 1350.57 3.05881 -0.644637 0
M  V30 14898 H 1349.79 2.48204 -3.06249 0
M  V30 14899 H 1351.07 3.5532 -3.64177 0
M  V30 14900 H 1350.47 5.53773 -1.1555 0
M  V30 14901 H 1349.03 6.29097 -1.70529 0
M  V30 14902 N 1352.46 1.37696 0.766659 0
M  V30 14903 C 1353.69 1.36192 1.55355 0
M  V30 14904 C 1354.1 -0.0534148 1.89125 0
M  V30 14905 O 1353.44 -1.02697 1.52312 0
M  V30 14906 C 1353.5 2.14047 2.88833 0
M  V30 14907 C 1353.17 3.6297 2.77672 0
M  V30 14908 C 1354.17 4.56745 2.48355 0
M  V30 14909 C 1351.85 4.06158 2.95534 0
M  V30 14910 C 1353.84 5.91687 2.37035 0
M  V30 14911 C 1351.53 5.41185 2.83835 0
M  V30 14912 C 1352.53 6.33762 2.54627 0
M  V30 14913 O 1352.22 7.66305 2.42963 0
M  V30 14914 H 1351.95 0.46804 0.487765 0
M  V30 14915 H 1354.5 1.81709 0.95765 0
M  V30 14916 H 1352.73 1.63227 3.50562 0
M  V30 14917 H 1354.42 2.05113 3.50262 0
M  V30 14918 H 1355.19 4.24687 2.34236 0
M  V30 14919 H 1351.07 3.34457 3.17269 0
M  V30 14920 H 1354.61 6.63914 2.14158 0
M  V30 14921 H 1350.51 5.72844 2.97524 0
M  V30 14922 H 1351.28 7.76683 2.58274 0
M  V30 14923 N 1353.94 -0.993397 1.22349 0
M  V30 14924 C 1354.89 -2.10463 0.990358 0
M  V30 14925 C 1355.88 -1.6927 -0.0663528 0
M  V30 14926 O 1357.09 -1.79794 0.0860444 0
M  V30 14927 H 1353.46 -0.688222 0.303075 0
M  V30 14928 H 1355.43 -2.273 1.93333 0
M  V30 14929 C 1354.18 -3.42757 0.584205 0
M  V30 14930 H 1353.51 -3.74896 1.38899 0
M  V30 14931 H 1354.95 -4.21492 0.46049 0
M  V30 14932 C 1353.4 -3.29416 -0.706187 0
M  V30 14933 O 1353.93 -3.61152 -1.75875 0
M  V30 14934 N 1352.14 -2.82601 -0.677148 0
M  V30 14935 H 1351.69 -2.56972 0.179712 0
M  V30 14936 H 1351.65 -2.74056 -1.54081 0
M  V30 14937 N 1355.42 -1.03311 -1.19015 0
M  V30 14938 C 1356.66 -0.732039 -1.88805 0
M  V30 14939 C 1356.99 0.739688 -1.79886 0
M  V30 14940 O 1356.25 1.55476 -1.18851 0
M  V30 14941 C 1356.55 -1.13402 -3.38932 0
M  V30 14942 C 1356.21 -2.60473 -3.68055 0
M  V30 14943 C 1354.87 -3.00654 -3.75713 0
M  V30 14944 C 1357.23 -3.55604 -3.81045 0
M  V30 14945 C 1354.55 -4.3487 -3.93833 0
M  V30 14946 C 1356.91 -4.89529 -4.00679 0
M  V30 14947 C 1355.57 -5.29392 -4.06571 0
M  V30 14948 H 1354.84 -0.267872 -0.690888 0
M  V30 14949 H 1357.49 -1.29673 -1.40915 0
M  V30 14950 H 1355.79 -0.487997 -3.88749 0
M  V30 14951 H 1357.49 -0.878532 -3.91258 0
M  V30 14952 H 1354.08 -2.28348 -3.62706 0
M  V30 14953 H 1358.26 -3.25711 -3.74467 0
M  V30 14954 H 1353.52 -4.65285 -3.96636 0
M  V30 14955 H 1357.69 -5.63153 -4.09672 0
M  V30 14956 H 1355.32 -6.33402 -4.20364 0
M  V30 14957 N 1356.9 1.35099 -0.81154 0
M  V30 14958 C 1358.17 1.93009 -0.317289 0
M  V30 14959 C 1358.55 1.74101 1.19382 0
M  V30 14960 O 1357.9 1.11295 1.99564 0
M  V30 14961 C 1358.11 3.41191 -0.734123 0
M  V30 14962 C 1359.46 4.1834 -0.726437 0
M  V30 14963 O 1360.48 3.49727 -0.67598 0
M  V30 14964 O 1359.34 5.4077 -0.789291 0
M  V30 14965 H 1356.44 0.822707 -0.084153 0
M  V30 14966 H 1358.98 1.44145 -0.895569 0
M  V30 14967 H 1357.75 3.48705 -1.7754 0
M  V30 14968 H 1357.38 3.97384 -0.130919 0
M  V30 14969 N 1358.37 0.56548 1.47106 0
M  V30 14970 C 1359.79 0.225855 1.57994 0
M  V30 14971 C 1359.99 -1.27173 1.56299 0
M  V30 14972 O 1359.05 -2.05242 1.47078 0
M  V30 14973 C 1360.36 0.859829 2.88145 0
M  V30 14974 C 1361.91 0.831821 3.01744 0
M  V30 14975 C 1362.38 1.44502 4.34607 0
M  V30 14976 N 1363.87 1.40857 4.41263 0
M  V30 14977 C 1364.61 1.85258 5.42648 0
M  V30 14978 N 1364.1 2.37553 6.508 0
M  V30 14979 N 1365.9 1.76279 5.33744 0
M  V30 14980 H 1358.05 1.53837 1.46451 0
M  V30 14981 H 1360.31 0.642013 0.697512 0
M  V30 14982 H 1360.02 1.91264 2.95146 0
M  V30 14983 H 1359.89 0.357762 3.755 0
M  V30 14984 H 1362.28 -0.212319 2.94335 0
M  V30 14985 H 1362.36 1.37173 2.1591 0
M  V30 14986 H 1362 2.48827 4.42773 0
M  V30 14987 H 1361.93 0.880479 5.19187 0
M  V30 14988 H 1364.42 1.02614 3.63702 0
M  V30 14989 H 1364.74 2.69335 7.24347 0
M  V30 14990 H 1363.08 2.41569 6.51667 0
M  V30 14991 H 1366.27 1.35195 4.48152 0
M  V30 14992 H 1366.45 2.11199 6.12616 0
M  V30 14993 N 1359.85 -1.54672 0.302354 0
M  V30 14994 C 1361.13 -1.92264 -0.359711 0
M  V30 14995 C 1361.51 -1.22973 -1.71583 0
M  V30 14996 O 1360.86 -0.365942 -2.25551 0
M  V30 14997 C 1361.07 -3.4578 -0.473019 0
M  V30 14998 C 1362.42 -4.18044 -0.743252 0
M  V30 14999 O 1363.44 -3.51822 -0.556778 0
M  V30 15000 O 1362.3 -5.35283 -1.10155 0
M  V30 15001 H 1359.39 -0.802112 -0.201359 0
M  V30 15002 H 1361.94 -1.66041 0.350513 0
M  V30 15003 H 1360.71 -3.88342 0.480265 0
M  V30 15004 H 1360.33 -3.78042 -1.23166 0
M  V30 15005 N 1361.33 -0.0301034 -1.57571 0
M  V30 15006 C 1362.28 0.969425 -2.11435 0
M  V30 15007 C 1363.27 1.33627 -1.04116 0
M  V30 15008 O 1364.48 1.31839 -1.2255 0
M  V30 15009 H 1360.85 0.330407 -0.675526 0
M  V30 15010 H 1362.82 0.489828 -2.94352 0
M  V30 15011 C 1361.57 2.24233 -2.65734 0
M  V30 15012 H 1360.9 1.9688 -3.47963 0
M  V30 15013 H 1362.34 2.92378 -3.07068 0
M  V30 15014 C 1360.8 2.97274 -1.58524 0
M  V30 15015 O 1361.33 3.8942 -0.985641 0
M  V30 15016 N 1359.53 2.59627 -1.30545 0
M  V30 15017 H 1359.08 1.84773 -1.79491 0
M  V30 15018 H 1359.04 3.08807 -0.590372 0
M  V30 15019 N 1362.81 1.55714 0.243056 0
M  V30 15020 C 1364.04 1.81786 0.98801 0
M  V30 15021 C 1364.45 0.606352 1.78798 0
M  V30 15022 O 1363.81 -0.425018 1.77482 0
M  V30 15023 C 1363.86 3.06121 1.92281 0
M  V30 15024 O 1363.58 4.22595 1.15521 0
M  V30 15025 C 1365.08 3.45021 2.78344 0
M  V30 15026 H 1362.3 0.604829 0.290557 0
M  V30 15027 H 1364.85 2.02779 0.26478 0
M  V30 15028 H 1363 2.87167 2.60027 0
M  V30 15029 H 1363.41 4.93088 1.78786 0
M  V30 15030 H 1364.89 4.35112 3.39678 0
M  V30 15031 H 1365.37 2.65782 3.49652 0
M  V30 15032 H 1365.97 3.66339 2.16045 0
M  V30 15033 N 1364.29 -0.50888 1.49158 0
M  V30 15034 C 1365.2 -1.63782 1.67966 0
M  V30 15035 C 1366.21 -1.64667 0.562207 0
M  V30 15036 O 1367.39 -1.83232 0.835935 0
M  V30 15037 C 1364.45 -3.00179 1.73474 0
M  V30 15038 C 1363.51 -3.09983 2.97 0
M  V30 15039 C 1362.75 -4.39875 3.02235 0
M  V30 15040 O 1362.97 -5.28214 2.15282 0
M  V30 15041 O 1361.9 -4.54486 3.94621 0
M  V30 15042 H 1365.73 -1.50846 2.63589 0
M  V30 15043 H 1363.32 -0.684306 1.32807 0
M  V30 15044 H 1365.2 -3.8126 1.79495 0
M  V30 15045 H 1363.87 -3.13394 0.810287 0
M  V30 15046 H 1362.78 -2.28119 2.965 0
M  V30 15047 H 1364.11 -3.01693 3.88899 0
M  V30 15048 N 1365.76 -1.381 -0.759346 0
M  V30 15049 C 1367.01 -1.3419 -1.52055 0
M  V30 15050 C 1367.34 0.0697657 -1.94075 0
M  V30 15051 O 1366.62 1.02975 -1.65004 0
M  V30 15052 C 1366.9 -2.29236 -2.7771 0
M  V30 15053 C 1366.75 -3.79237 -2.41866 0
M  V30 15054 C 1368.07 -2.22511 -3.79706 0
M  V30 15055 H 1365.19 -0.488768 -0.551611 0
M  V30 15056 H 1367.83 -1.68902 -0.870174 0
M  V30 15057 H 1365.98 -1.99764 -3.33206 0
M  V30 15058 H 1367.66 -4.19358 -1.92189 0
M  V30 15059 H 1365.9 -3.97199 -1.74399 0
M  V30 15060 H 1366.57 -4.41193 -3.31742 0
M  V30 15061 H 1369.05 -2.48516 -3.33735 0
M  V30 15062 H 1367.92 -2.91134 -4.6533 0
M  V30 15063 H 1368.18 -1.22206 -4.24874 0
M  V30 15064 N 1367.24 0.986894 -1.22875 0
M  V30 15065 C 1368.21 2.0597 -1.00544 0
M  V30 15066 C 1369.21 1.60771 0.0303509 0
M  V30 15067 O 1370.4 1.72945 -0.208753 0
M  V30 15068 C 1367.53 3.36911 -0.519962 0
M  V30 15069 H 1368.72 2.27213 -1.9574 0
M  V30 15070 H 1366.27 1.15935 -1.04827 0
M  V30 15071 H 1367.01 3.21355 0.436078 0
M  V30 15072 H 1366.79 3.71054 -1.26732 0
M  V30 15073 H 1368.28 4.15829 -0.384166 0
M  V30 15074 N 1368.72 1.0394 1.18466 0
M  V30 15075 C 1369.95 0.760909 1.92077 0
M  V30 15076 C 1370.36 -0.685622 1.7634 0
M  V30 15077 O 1369.7 -1.47894 1.08963 0
M  V30 15078 C 1369.76 1.04583 3.43952 0
M  V30 15079 C 1369.43 2.48602 3.83466 0
M  V30 15080 C 1370.42 3.46775 3.87354 0
M  V30 15081 C 1368.11 2.8328 4.14798 0
M  V30 15082 C 1370.1 4.77678 4.22022 0
M  V30 15083 C 1367.79 4.1439 4.49138 0
M  V30 15084 C 1368.79 5.11399 4.52725 0
M  V30 15085 O 1368.48 6.40159 4.86264 0
M  V30 15086 H 1368.21 0.276991 0.616646 0
M  V30 15087 H 1370.76 1.3898 1.5124 0
M  V30 15088 H 1368.99 0.359807 3.85022 0
M  V30 15089 H 1370.68 0.755336 3.9881 0
M  V30 15090 H 1371.45 3.21323 3.63286 0
M  V30 15091 H 1367.33 2.08444 4.11184 0
M  V30 15092 H 1370.87 5.53393 4.24737 0
M  V30 15093 H 1366.77 4.39611 4.72666 0
M  V30 15094 H 1367.54 6.4479 5.04171 0
M  V30 15095 N 1370.2 -1.34667 0.818693 0
M  V30 15096 C 1371.13 -2.32134 0.252239 0
M  V30 15097 C 1372.11 -1.58044 -0.628982 0
M  V30 15098 O 1373.29 -1.86049 -0.55674 0
M  V30 15099 C 1370.42 -3.42249 -0.590183 0
M  V30 15100 C 1369.38 -4.27562 0.193547 0
M  V30 15101 C 1368.7 -5.29107 -0.771349 0
M  V30 15102 C 1370 -5.03205 1.39936 0
M  V30 15103 H 1371.7 -2.79758 1.06657 0
M  V30 15104 H 1369.24 -1.34502 0.514325 0
M  V30 15105 H 1371.2 -4.09445 -0.996616 0
M  V30 15106 H 1369.92 -2.93262 -1.43752 0
M  V30 15107 H 1368.58 -3.61962 0.581297 0
M  V30 15108 H 1368.23 -4.76384 -1.61453 0
M  V30 15109 H 1367.93 -5.87063 -0.251201 0
M  V30 15110 H 1369.45 -5.99174 -1.17573 0
M  V30 15111 H 1370.87 -5.6328 1.06717 0
M  V30 15112 H 1369.26 -5.70715 1.85485 0
M  V30 15113 H 1370.33 -4.33145 2.17976 0
M  V30 15114 N 1371.68 -0.573274 -1.46804 0
M  V30 15115 C 1372.62 0.165358 -2.30207 0
M  V30 15116 C 1373.59 0.89312 -1.40045 0
M  V30 15117 O 1374.78 0.885653 -1.68999 0
M  V30 15118 C 1371.92 1.17915 -3.2433 0
M  V30 15119 C 1371.03 0.455805 -4.29589 0
M  V30 15120 C 1370.17 1.45629 -5.10848 0
M  V30 15121 C 1369.21 0.718822 -6.07865 0
M  V30 15122 N 1368.34 1.66691 -6.82025 0
M  V30 15123 H 1373.18 -0.551947 -2.92844 0
M  V30 15124 H 1370.72 -0.28401 -1.44332 0
M  V30 15125 H 1372.68 1.77969 -3.77337 0
M  V30 15126 H 1371.31 1.86429 -2.63523 0
M  V30 15127 H 1370.36 -0.259584 -3.79513 0
M  V30 15128 H 1371.67 -0.121161 -4.98653 0
M  V30 15129 H 1370.83 2.1299 -5.68084 0
M  V30 15130 H 1369.56 2.06718 -4.41723 0
M  V30 15131 H 1368.57 0.0313773 -5.49791 0
M  V30 15132 H 1369.79 0.113452 -6.79005 0
M  V30 15133 H 1367.74 2.26608 -6.15617 0
M  V30 15134 H 1367.66 1.14251 -7.47317 0
M  V30 15135 H 1368.93 2.33117 -7.43826 0
M  V30 15136 N 1373.15 1.5451 -0.310553 0
M  V30 15137 C 1374.38 2.04739 0.29824 0
M  V30 15138 C 1374.8 1.18737 1.46788 0
M  V30 15139 O 1374.15 0.215114 1.81228 0
M  V30 15140 C 1374.21 3.53734 0.745274 0
M  V30 15141 O 1373.93 4.36468 -0.377826 0
M  V30 15142 C 1375.43 4.20001 1.41823 0
M  V30 15143 H 1372.65 0.667997 0.0634159 0
M  V30 15144 H 1375.19 1.9942 -0.452961 0
M  V30 15145 H 1373.35 3.59383 1.44648 0
M  V30 15146 H 1373.76 5.24492 -0.0280567 0
M  V30 15147 H 1375.23 5.25747 1.68209 0
M  V30 15148 H 1375.71 3.70319 2.36137 0
M  V30 15149 H 1376.32 4.18455 0.759951 0
M  V30 15150 N 1374.63 0.0384594 1.57553 0
M  V30 15151 C 1375.56 -0.938444 2.13812 0
M  V30 15152 C 1376.54 -1.33307 1.05657 0
M  V30 15153 O 1377.73 -1.41003 1.33535 0
M  V30 15154 C 1374.86 -2.21764 2.67279 0
M  V30 15155 C 1373.81 -1.96347 3.80305 0
M  V30 15156 C 1373.14 -3.30612 4.20238 0
M  V30 15157 C 1374.44 -1.2952 5.05986 0
M  V30 15158 H 1376.13 -0.469887 2.9569 0
M  V30 15159 H 1373.68 -0.224576 1.42238 0
M  V30 15160 H 1375.63 -2.90493 3.05273 0
M  V30 15161 H 1374.36 -2.70802 1.82576 0
M  V30 15162 H 1373.02 -1.30033 3.42764 0
M  V30 15163 H 1372.66 -3.77427 3.32502 0
M  V30 15164 H 1372.36 -3.14409 4.96408 0
M  V30 15165 H 1373.89 -4.00594 4.60822 0
M  V30 15166 H 1375.3 -1.88264 5.41507 0
M  V30 15167 H 1373.7 -1.23685 5.87216 0
M  V30 15168 H 1374.77 -0.269439 4.84151 0
M  V30 15169 N 1376.11 -1.55841 -0.234795 0
M  V30 15170 C 1377.34 -1.82307 -0.978355 0
M  V30 15171 C 1377.75 -0.615825 -1.78474 0
M  V30 15172 O 1377.11 0.4156 -1.77705 0
M  V30 15173 C 1377.16 -3.07136 -1.90655 0
M  V30 15174 O 1376.88 -4.23202 -1.13278 0
M  V30 15175 C 1378.38 -3.46492 -2.76511 0
M  V30 15176 H 1375.6 -0.606361 -0.287345 0
M  V30 15177 H 1378.15 -2.02916 -0.254023 0
M  V30 15178 H 1376.3 -2.88542 -2.58501 0
M  V30 15179 H 1376.72 -4.94029 -1.76168 0
M  V30 15180 H 1378.19 -4.36908 -3.37366 0
M  V30 15181 H 1378.67 -2.67633 -3.48238 0
M  V30 15182 H 1379.27 -3.6748 -2.14099 0
M  V30 15183 N 1377.59 0.500963 -1.49426 0
M  V30 15184 C 1378.54 1.6025 -1.66098 0
M  V30 15185 C 1379.51 1.58318 -0.502453 0
M  V30 15186 O 1380.69 1.76304 -0.729482 0
M  V30 15187 C 1377.83 2.98396 -1.73361 0
M  V30 15188 C 1376.94 3.10343 -3.00518 0
M  V30 15189 C 1376.08 4.39222 -2.9876 0
M  V30 15190 C 1375.12 4.44803 -4.20496 0
M  V30 15191 N 1374.26 5.6511 -4.16648 0
M  V30 15192 H 1379.1 1.45342 -2.60153 0
M  V30 15193 H 1376.63 0.707147 -1.28988 0
M  V30 15194 H 1378.59 3.78467 -1.75553 0
M  V30 15195 H 1377.22 3.12007 -0.827718 0
M  V30 15196 H 1376.27 2.23336 -3.07937 0
M  V30 15197 H 1377.58 3.10327 -3.90511 0
M  V30 15198 H 1376.74 5.27613 -2.99515 0
M  V30 15199 H 1375.48 4.41804 -2.06545 0
M  V30 15200 H 1374.48 3.54814 -4.19985 0
M  V30 15201 H 1375.71 4.43937 -5.13903 0
M  V30 15202 H 1373.65 5.68533 -3.2727 0
M  V30 15203 H 1373.57 5.6671 -5.00376 0
M  V30 15204 H 1374.84 6.55708 -4.21506 0
M  V30 15205 N 1379.07 1.38501 0.752011 0
M  V30 15206 C 1379.98 1.38094 1.8965 0
M  V30 15207 C 1380.99 0.277851 1.71767 0
M  V30 15208 O 1382.17 0.516536 1.94663 0
M  V30 15209 C 1379.23 1.2063 3.25037 0
M  V30 15210 C 1378.3 2.40758 3.55435 0
M  V30 15211 C 1377.53 2.24118 4.84362 0
M  V30 15212 O 1377.75 1.23571 5.56854 0
M  V30 15213 O 1376.69 3.12741 5.14273 0
M  V30 15214 H 1380.51 2.34532 1.92947 0
M  V30 15215 H 1378.1 1.19437 0.897504 0
M  V30 15216 H 1379.98 1.12957 4.05979 0
M  V30 15217 H 1378.65 0.272785 3.22549 0
M  V30 15218 H 1377.56 2.54006 2.74648 0
M  V30 15219 H 1378.89 3.32745 3.62686 0
M  V30 15220 N 1380.55 -0.980364 1.23396 0
M  V30 15221 C 1381.82 -1.69607 0.974319 0
M  V30 15222 C 1382.2 -2.0492 -0.507064 0
M  V30 15223 O 1381.55 -1.74239 -1.47827 0
M  V30 15224 C 1381.76 -2.93743 1.88457 0
M  V30 15225 C 1383.11 -3.66256 2.14806 0
M  V30 15226 O 1384.13 -3.03776 1.86007 0
M  V30 15227 O 1382.99 -4.78698 2.63648 0
M  V30 15228 H 1380.09 -0.740878 0.367462 0
M  V30 15229 H 1382.63 -1.03558 1.34439 0
M  V30 15230 H 1381.4 -2.64244 2.88601 0
M  V30 15231 H 1381.03 -3.67528 1.51688 0
M  V30 15232 N 1382.02 -1.04567 -1.17913 0
M  V30 15233 C 1383.27 -0.747179 -1.8735 0
M  V30 15234 C 1383.59 0.728274 -1.81537 0
M  V30 15235 O 1384.79 1.14048 -2.46385 0
M  V30 15236 C 1383.25 -1.28629 -3.36129 0
M  V30 15237 C 1382.86 -2.79073 -3.5046 0
M  V30 15238 C 1384.6 -1.06455 -4.10935 0
M  V30 15239 C 1382.51 -3.26316 -4.93226 0
M  V30 15240 H 1381.44 -0.275807 -0.701745 0
M  V30 15241 H 1384.09 -1.26215 -1.33199 0
M  V30 15242 H 1382.47 -0.699151 -3.89779 0
M  V30 15243 H 1383.64 -3.43587 -3.07057 0
M  V30 15244 H 1381.96 -2.99716 -2.89066 0
M  V30 15245 H 1384.56 -1.3926 -5.16247 0
M  V30 15246 H 1384.9 -0.00201298 -4.163 0
M  V30 15247 H 1385.43 -1.61656 -3.63472 0
M  V30 15248 H 1382.17 -4.31972 -4.93032 0
M  V30 15249 H 1381.69 -2.6654 -5.37323 0
M  V30 15250 H 1383.37 -3.2063 -5.61966 0
M  V30 15251 N 1383.5 1.34231 -0.825823 0
M  V30 15252 C 1384.75 1.97454 -0.411661 0
M  V30 15253 C 1385.06 1.66193 1.03147 0
M  V30 15254 O 1386.27 2.22929 1.54968 0
M  V30 15255 C 1384.73 3.53318 -0.685145 0
M  V30 15256 C 1384.33 3.9347 -2.14208 0
M  V30 15257 C 1386.08 4.23158 -0.337291 0
M  V30 15258 C 1383.98 5.42258 -2.3603 0
M  V30 15259 H 1382.91 0.738889 -0.150196 0
M  V30 15260 H 1385.57 1.53033 -1.01258 0
M  V30 15261 H 1383.95 3.95998 -0.0140178 0
M  V30 15262 H 1385.12 3.61888 -2.85261 0
M  V30 15263 H 1383.44 3.36575 -2.45165 0
M  V30 15264 H 1386.03 5.32558 -0.47813 0
M  V30 15265 H 1386.38 4.10053 0.718499 0
M  V30 15266 H 1386.91 3.85965 -0.963113 0
M  V30 15267 H 1383.65 5.60352 -3.40126 0
M  V30 15268 H 1383.17 5.75345 -1.69524 0
M  V30 15269 H 1384.85 6.08976 -2.18533 0
M  V30 15270 N 1384.98 0.581051 1.46498 0
M  V30 15271 C 1385.93 -0.153147 2.30291 0
M  V30 15272 C 1386.9 -0.885681 1.40517 0
M  V30 15273 O 1388.08 -0.876678 1.69467 0
M  V30 15274 C 1385.22 -1.16193 3.24951 0
M  V30 15275 C 1384.33 -0.433016 4.29824 0
M  V30 15276 C 1383.47 -1.42918 5.11613 0
M  V30 15277 C 1382.51 -0.686576 6.08237 0
M  V30 15278 N 1381.65 -1.63072 6.829 0
M  V30 15279 H 1386.49 0.56747 2.92547 0
M  V30 15280 H 1384.02 0.29166 1.4418 0
M  V30 15281 H 1385.98 -1.75965 3.78275 0
M  V30 15282 H 1384.61 -1.85028 2.64508 0
M  V30 15283 H 1383.66 0.279707 3.7937 0
M  V30 15284 H 1384.97 0.147604 4.98582 0
M  V30 15285 H 1384.13 -2.09975 5.69206 0
M  V30 15286 H 1382.87 -2.04373 4.42813 0
M  V30 15287 H 1381.87 -0.00222013 5.498 0
M  V30 15288 H 1383.1 -0.0774416 6.79056 0
M  V30 15289 H 1381.04 -2.2334 6.1681 0
M  V30 15290 H 1380.96 -1.10286 7.47912 0
M  V30 15291 H 1382.23 -2.29169 7.45052 0
M  V30 15292 N 1386.46 -1.54343 0.318742 0
M  V30 15293 C 1387.7 -2.0048 -0.285276 0
M  V30 15294 C 1388.03 -1.20698 -1.5252 0
M  V30 15295 O 1387.29 -0.275893 -1.93746 0
M  V30 15296 C 1387.59 -3.51079 -0.669181 0
M  V30 15297 C 1387.25 -4.48433 0.471017 0
M  V30 15298 C 1385.91 -4.74771 0.783985 0
M  V30 15299 C 1388.27 -5.06304 1.23715 0
M  V30 15300 C 1385.59 -5.56239 1.86589 0
M  V30 15301 C 1387.95 -5.88951 2.30911 0
M  V30 15302 C 1386.61 -6.13592 2.62794 0
M  V30 15303 H 1385.88 -0.73361 -0.10439 0
M  V30 15304 H 1388.53 -1.86341 0.441521 0
M  V30 15305 H 1386.83 -3.62921 -1.47633 0
M  V30 15306 H 1388.53 -3.84216 -1.148 0
M  V30 15307 H 1385.12 -4.2805 0.217004 0
M  V30 15308 H 1389.3 -4.85943 1.00862 0
M  V30 15309 H 1384.56 -5.73563 2.11744 0
M  V30 15310 H 1388.73 -6.32814 2.90722 0
M  V30 15311 H 1386.36 -6.76508 3.46757 0
M  V30 15312 N 1387.94 -0.0468143 -1.5753 0
M  V30 15313 C 1389.17 0.636723 -1.96544 0
M  V30 15314 C 1389.57 1.65169 -0.922814 0
M  V30 15315 O 1388.92 1.83417 0.101892 0
M  V30 15316 C 1388.98 1.38435 -3.31777 0
M  V30 15317 C 1388.64 0.525714 -4.53966 0
M  V30 15318 C 1389.64 -0.206392 -5.1949 0
M  V30 15319 C 1387.32 0.457919 -5.00208 0
M  V30 15320 C 1389.32 -0.994779 -6.29589 0
M  V30 15321 C 1387.01 -0.334159 -6.10186 0
M  V30 15322 C 1388 -1.0592 -6.74737 0
M  V30 15323 O 1387.69 -1.83826 -7.826 0
M  V30 15324 H 1387.42 0.179197 -0.651816 0
M  V30 15325 H 1389.98 -0.108214 -2.05115 0
M  V30 15326 H 1388.21 2.17482 -3.19748 0
M  V30 15327 H 1389.9 1.9577 -3.55568 0
M  V30 15328 H 1390.66 -0.163457 -4.84724 0
M  V30 15329 H 1386.54 1.01185 -4.49758 0
M  V30 15330 H 1390.09 -1.56121 -6.79906 0
M  V30 15331 H 1385.98 -0.378748 -6.44388 0
M  V30 15332 H 1386.75 -1.75991 -7.99356 0
M  V30 15333 N 1389.41 1.55964 0.226527 0
M  V30 15334 C 1390.36 1.92007 1.28069 0
M  V30 15335 C 1391.33 0.776666 1.46823 0
M  V30 15336 O 1392.52 1.03213 1.60474 0
M  V30 15337 C 1389.66 2.23784 2.62707 0
M  V30 15338 C 1388.77 3.51034 2.51792 0
M  V30 15339 C 1387.9 3.72281 3.7892 0
M  V30 15340 C 1386.94 4.93062 3.62707 0
M  V30 15341 N 1386.08 5.10725 4.81772 0
M  V30 15342 H 1390.92 2.81898 0.96631 0
M  V30 15343 H 1388.46 1.39529 0.465847 0
M  V30 15344 H 1390.42 2.40217 3.41104 0
M  V30 15345 H 1389.05 1.37073 2.92251 0
M  V30 15346 H 1388.1 3.42822 1.64856 0
M  V30 15347 H 1389.41 4.39582 2.35731 0
M  V30 15348 H 1388.56 3.88783 4.6576 0
M  V30 15349 H 1387.3 2.82004 3.97901 0
M  V30 15350 H 1386.31 4.76515 2.7425 0
M  V30 15351 H 1387.53 5.84819 3.45201 0
M  V30 15352 H 1385.48 4.2339 5.01076 0
M  V30 15353 H 1385.4 5.93397 4.68419 0
M  V30 15354 H 1386.66 5.31658 5.70053 0
M  V30 15355 N 1390.89 -0.493031 1.4969 0
M  V30 15356 C 1391.8 -1.61991 1.69694 0
M  V30 15357 C 1392.82 -1.64061 0.579641 0
M  V30 15358 O 1393.99 -1.82335 0.855323 0
M  V30 15359 C 1391.06 -2.98323 1.76648 0
M  V30 15360 C 1390.12 -3.06816 3.00271 0
M  V30 15361 C 1389.35 -4.36644 3.06883 0
M  V30 15362 O 1389.58 -5.25901 2.20872 0
M  V30 15363 O 1388.51 -4.50275 3.99419 0
M  V30 15364 H 1392.34 -1.48042 2.65174 0
M  V30 15365 H 1389.92 -0.670182 1.33525 0
M  V30 15366 H 1391.8 -3.79335 1.83529 0
M  V30 15367 H 1390.48 -3.12517 0.843482 0
M  V30 15368 H 1389.39 -2.24962 2.98903 0
M  V30 15369 H 1390.72 -2.97551 3.92077 0
M  V30 15370 N 1392.37 -1.38898 -0.744656 0
M  V30 15371 C 1393.3 -1.31228 -1.86693 0
M  V30 15372 C 1394.28 -0.187667 -1.61513 0
M  V30 15373 O 1395.47 -0.366497 -1.84903 0
M  V30 15374 C 1392.59 -1.03541 -3.22486 0
M  V30 15375 C 1391.64 -2.18061 -3.6654 0
M  V30 15376 S 1392.47 -3.80271 -3.77033 0
M  V30 15377 C 1393.63 -3.5479 -5.15631 0
M  V30 15378 H 1393.86 -2.26211 -1.92914 0
M  V30 15379 H 1391.39 -1.24839 -0.908544 0
M  V30 15380 H 1393.35 -0.882504 -4.00902 0
M  V30 15381 H 1392.01 -0.102611 -3.13932 0
M  V30 15382 H 1391.21 -1.94257 -4.65059 0
M  V30 15383 H 1390.81 -2.29505 -2.95302 0
M  V30 15384 H 1393.1 -3.11457 -6.01665 0
M  V30 15385 H 1394.04 -4.52735 -5.4446 0
M  V30 15386 H 1394.45 -2.89103 -4.8485 0
M  V30 15387 N 1393.85 0.973806 -1.23914 0
M  V30 15388 C 1394.78 2.08526 -1.05068 0
M  V30 15389 C 1395.76 1.70065 0.0344761 0
M  V30 15390 O 1396.94 1.93755 -0.131432 0
M  V30 15391 C 1394.07 3.41198 -0.648165 0
M  V30 15392 C 1393.03 3.9359 -1.6814 0
M  V30 15393 C 1392.35 5.22534 -1.13414 0
M  V30 15394 C 1393.65 4.22116 -3.07597 0
M  V30 15395 H 1395.35 2.24551 -1.98034 0
M  V30 15396 H 1392.89 1.07905 -0.953546 0
M  V30 15397 H 1394.85 4.18383 -0.50334 0
M  V30 15398 H 1393.57 3.25056 0.317182 0
M  V30 15399 H 1392.23 3.18555 -1.81434 0
M  V30 15400 H 1391.88 5.02747 -0.159578 0
M  V30 15401 H 1391.58 5.58555 -1.82456 0
M  V30 15402 H 1393.1 6.02334 -1.0013 0
M  V30 15403 H 1394.52 4.90027 -2.97567 0
M  V30 15404 H 1392.91 4.69352 -3.73937 0
M  V30 15405 H 1393.98 3.29128 -3.56094 0
M  V30 15406 N 1395.33 1.05191 1.17357 0
M  V30 15407 C 1396.29 0.65713 2.19578 0
M  V30 15408 C 1397.29 -0.29138 1.58138 0
M  V30 15409 O 1398.48 -0.075254 1.74037 0
M  V30 15410 C 1395.61 -0.0348162 3.40882 0
M  V30 15411 H 1396.8 1.56188 2.56018 0
M  V30 15412 H 1394.36 0.845795 1.31438 0
M  V30 15413 H 1395.09 -0.952835 3.09986 0
M  V30 15414 H 1394.88 0.647076 3.86724 0
M  V30 15415 H 1396.37 -0.297135 4.16542 0
M  V30 15416 N 1396.8 -1.33791 0.83293 0
M  V30 15417 C 1398.05 -1.98266 0.426412 0
M  V30 15418 C 1398.38 -1.65848 -1.01035 0
M  V30 15419 O 1397.66 -0.93528 -1.70537 0
M  V30 15420 C 1397.94 -3.54356 0.640586 0
M  V30 15421 C 1397.79 -3.96482 2.12419 0
M  V30 15422 C 1399.11 -4.40022 0.0829237 0
M  V30 15423 H 1396.23 -0.720213 0.156404 0
M  V30 15424 H 1398.87 -1.58527 1.04735 0
M  V30 15425 H 1397.02 -3.88338 0.11204 0
M  V30 15426 H 1398.7 -3.72786 2.71714 0
M  V30 15427 H 1396.94 -3.46429 2.61092 0
M  V30 15428 H 1397.61 -5.05179 2.22482 0
M  V30 15429 H 1400.09 -4.12651 0.534634 0
M  V30 15430 H 1398.96 -5.48272 0.262511 0
M  V30 15431 H 1399.22 -4.30341 -1.01287 0
M  V30 15432 N 1398.28 -0.588812 -1.46187 0
M  V30 15433 C 1399.56 -0.00958331 -1.95598 0
M  V30 15434 C 1399.94 1.45294 -1.53144 0
M  V30 15435 O 1399.29 2.14592 -0.785015 0
M  V30 15436 C 1399.5 -0.188018 -3.48493 0
M  V30 15437 C 1400.85 -0.0590152 -4.24559 0
M  V30 15438 O 1401.87 -0.117167 -3.56007 0
M  V30 15439 O 1400.73 0.0715924 -5.46453 0
M  V30 15440 H 1397.82 0.0463708 -0.825699 0
M  V30 15441 H 1400.37 -0.657558 -1.56443 0
M  V30 15442 H 1399.14 -1.20449 -3.723 0
M  V30 15443 H 1398.76 0.496103 -3.94493 0
M  V30 15444 N 1399.76 1.54172 -0.326923 0
M  V30 15445 C 1400.72 2.2311 0.524855 0
M  V30 15446 C 1401.72 1.22567 1.04087 0
M  V30 15447 O 1402.91 1.47123 0.932759 0
M  V30 15448 C 1400.05 2.93778 1.72937 0
M  V30 15449 H 1401.24 2.99799 -0.0778327 0
M  V30 15450 H 1398.79 1.56105 -0.0780484 0
M  V30 15451 H 1399.53 2.21234 2.3712 0
M  V30 15452 H 1399.31 3.67509 1.36674 0
M  V30 15453 H 1400.8 3.46292 2.33392 0
M  V30 15454 N 1401.24 0.0551678 1.57503 0
M  V30 15455 C 1402.65 -0.479948 1.80426 0
M  V30 15456 C 1403 -1.70673 0.967733 0
M  V30 15457 O 1402.13 -2.15604 0.185462 0
M  V30 15458 C 1402.72 -0.877496 3.27239 0
M  V30 15459 C 1401.28 -1.35757 3.51066 0
M  V30 15460 C 1400.43 -0.334681 2.75273 0
M  V30 15461 H 1403.38 0.281016 1.56192 0
M  V30 15462 H 1403.4 -1.74013 3.38378 0
M  V30 15463 H 1402.91 0.015571 3.88097 0
M  V30 15464 H 1401.01 -2.26969 2.95492 0
M  V30 15465 H 1401.12 -1.34697 4.59776 0
M  V30 15466 H 1399.49 -0.808421 2.4153 0
M  V30 15467 H 1400.27 0.550369 3.3886 0
M  V30 15468 N 1402.72 -1.56081 -0.218252 0
M  V30 15469 C 1404.13 -1.49147 -0.568098 0
M  V30 15470 C 1404.33 -0.750893 -1.86986 0
M  V30 15471 O 1403.39 -0.291904 -2.50807 0
M  V30 15472 C 1404.7 -2.93717 -0.644272 0
M  V30 15473 C 1406.25 -3.04256 -0.734677 0
M  V30 15474 C 1406.72 -4.50191 -0.842167 0
M  V30 15475 N 1408.22 -4.54247 -0.906302 0
M  V30 15476 C 1408.95 -5.64448 -1.00924 0
M  V30 15477 N 1408.45 -6.84394 -1.07592 0
M  V30 15478 N 1410.24 -5.52308 -1.04463 0
M  V30 15479 H 1402.39 -2.02656 0.635935 0
M  V30 15480 H 1404.65 -0.921262 0.223563 0
M  V30 15481 H 1404.36 -3.50861 0.242721 0
M  V30 15482 H 1404.23 -3.45798 -1.50678 0
M  V30 15483 H 1406.62 -2.47174 -1.61211 0
M  V30 15484 H 1406.7 -2.55339 0.153563 0
M  V30 15485 H 1406.35 -5.07891 0.0308214 0
M  V30 15486 H 1406.28 -4.96817 -1.74587 0
M  V30 15487 H 1408.77 -3.67868 -0.864954 0
M  V30 15488 H 1409.08 -7.6413 -1.15433 0
M  V30 15489 H 1407.42 -6.87099 -1.045 0
M  V30 15490 H 1410.62 -4.57528 -0.989218 0
M  V30 15491 H 1410.79 -6.38223 -1.1214 0
M  V30 15492 N 1404.2 0.485086 -1.49949 0
M  V30 15493 C 1405.61 0.817651 -1.37064 0
M  V30 15494 C 1405.81 1.9716 -0.415949 0
M  V30 15495 O 1404.87 2.52074 0.146567 0
M  V30 15496 C 1406.18 1.14288 -2.78134 0
M  V30 15497 C 1407.73 1.25016 -2.8695 0
M  V30 15498 C 1408.2 1.60859 -4.28822 0
M  V30 15499 N 1409.69 1.67878 -4.31707 0
M  V30 15500 C 1410.43 1.97089 -5.38464 0
M  V30 15501 N 1409.93 2.24415 -6.55446 0
M  V30 15502 N 1411.72 1.98474 -5.25894 0
M  V30 15503 H 1403.87 -0.275606 -2.10604 0
M  V30 15504 H 1406.13 -0.0607486 -0.946052 0
M  V30 15505 H 1405.84 0.36817 -3.49768 0
M  V30 15506 H 1405.71 2.0825 -3.14502 0
M  V30 15507 H 1408.1 2.01556 -2.15544 0
M  V30 15508 H 1408.18 0.290664 -2.54143 0
M  V30 15509 H 1407.82 0.848639 -5.0076 0
M  V30 15510 H 1407.75 2.57936 -4.59104 0
M  V30 15511 H 1410.25 1.48856 -3.47347 0
M  V30 15512 H 1410.56 2.45938 -7.32622 0
M  V30 15513 H 1408.9 2.21837 -6.58645 0
M  V30 15514 H 1412.09 1.76612 -4.33504 0
M  V30 15515 H 1412.27 2.20904 -6.09184 0
M  V30 15516 N 1405.67 1.39291 0.737279 0
M  V30 15517 C 1406.62 1.34321 1.84233 0
M  V30 15518 C 1407.61 0.224489 1.59326 0
M  V30 15519 O 1408.8 0.461832 1.70869 0
M  V30 15520 C 1405.93 1.18676 3.22135 0
M  V30 15521 C 1405.01 2.35239 3.52878 0
M  V30 15522 N 1405.41 3.6071 3.54573 0
M  V30 15523 C 1403.7 2.28147 3.83229 0
M  V30 15524 C 1404.4 4.37778 3.83047 0
M  V30 15525 N 1403.38 3.67336 4.00706 0
M  V30 15526 H 1407.18 2.29299 1.83845 0
M  V30 15527 H 1404.7 1.32755 0.935413 0
M  V30 15528 H 1406.69 1.13199 4.01238 0
M  V30 15529 H 1405.35 0.246461 3.23763 0
M  V30 15530 H 1406.36 3.94164 3.3594 0
M  V30 15531 H 1403.04 1.42366 3.92477 0
M  V30 15532 H 1404.43 5.46525 3.90845 0
M  V30 15533 N 1407.15 -0.967221 1.24429 0
M  V30 15534 C 1408.1 -2.06187 1.03709 0
M  V30 15535 C 1409.07 -1.66025 -0.0497665 0
M  V30 15536 O 1410.25 -1.90511 0.104951 0
M  V30 15537 C 1407.39 -3.38952 0.648477 0
M  V30 15538 C 1406.51 -3.92306 1.80886 0
M  V30 15539 C 1405.64 -5.13342 1.36579 0
M  V30 15540 C 1404.68 -5.58893 2.49609 0
M  V30 15541 N 1403.82 -6.71148 2.06165 0
M  V30 15542 H 1408.66 -2.23244 1.97399 0
M  V30 15543 H 1406.19 -1.09415 0.983192 0
M  V30 15544 H 1408.15 -4.15237 0.40419 0
M  V30 15545 H 1406.78 -3.21819 -0.25142 0
M  V30 15546 H 1405.83 -3.12656 2.1668 0
M  V30 15547 H 1407.15 -4.22071 2.65815 0
M  V30 15548 H 1406.3 -5.97003 1.0804 0
M  V30 15549 H 1405.04 -4.85262 0.487051 0
M  V30 15550 H 1404.04 -4.73805 2.78906 0
M  V30 15551 H 1405.27 -5.88987 3.3804 0
M  V30 15552 H 1403.22 -6.44802 1.20691 0
M  V30 15553 H 1403.13 -7.00366 2.84647 0
M  V30 15554 H 1404.4 -7.5825 1.80769 0
M  V30 15555 N 1408.63 -1.05812 -1.16797 0
M  V30 15556 C 1409.88 -0.773066 -1.87487 0
M  V30 15557 C 1410.21 0.698471 -1.81204 0
M  V30 15558 O 1409.48 1.51129 -1.22434 0
M  V30 15559 C 1409.77 -1.2621 -3.37258 0
M  V30 15560 C 1409.62 -2.79704 -3.52258 0
M  V30 15561 C 1410.94 -0.866104 -4.31494 0
M  V30 15562 H 1408.06 -0.282304 -0.680789 0
M  V30 15563 H 1410.7 -1.3132 -1.37314 0
M  V30 15564 H 1408.85 -0.802608 -3.80119 0
M  V30 15565 H 1410.52 -3.33824 -3.1837 0
M  V30 15566 H 1408.76 -3.18673 -2.94329 0
M  V30 15567 H 1409.44 -3.08985 -4.57419 0
M  V30 15568 H 1411.91 -1.26178 -3.96508 0
M  V30 15569 H 1410.79 -1.23581 -5.34807 0
M  V30 15570 H 1411.05 0.229391 -4.41504 0
M  V30 15571 N 1410.11 1.33347 -0.840014 0
M  V30 15572 C 1411.33 2.02485 -0.448856 0
M  V30 15573 C 1411.76 1.62781 0.942543 0
M  V30 15574 O 1411.12 0.82099 1.61646 0
M  V30 15575 C 1411.16 3.55928 -0.578582 0
M  V30 15576 O 1410.27 4.10507 0.394695 0
M  V30 15577 H 1409.61 0.63848 -0.182317 0
M  V30 15578 H 1412.14 1.70221 -1.13516 0
M  V30 15579 H 1412.15 4.05391 -0.460653 0
M  V30 15580 H 1410.82 3.8417 -1.5933 0
M  V30 15581 H 1409.4 3.72164 0.234227 0
M  V30 15582 N 1411.59 0.596556 1.45873 0
M  V30 15583 C 1412.83 0.0875879 2.02611 0
M  V30 15584 C 1413.16 -1.27438 1.46538 0
M  V30 15585 O 1412.44 -1.83815 0.635779 0
M  V30 15586 C 1412.72 0.0367394 3.60081 0
M  V30 15587 C 1412.58 1.42859 4.26511 0
M  V30 15588 C 1413.89 -0.656795 4.35171 0
M  V30 15589 H 1411.01 0.0333031 0.736247 0
M  V30 15590 H 1413.66 0.766413 1.73857 0
M  V30 15591 H 1411.81 -0.541345 3.8471 0
M  V30 15592 H 1413.48 2.0529 4.13102 0
M  V30 15593 H 1411.72 1.99243 3.85337 0
M  V30 15594 H 1412.39 1.34535 5.35354 0
M  V30 15595 H 1414.87 -0.165553 4.15771 0
M  V30 15596 H 1413.74 -0.661445 5.449 0
M  V30 15597 H 1414 -1.72079 4.07236 0
M  V30 15598 N 1413.06 -1.53996 0.335095 0
M  V30 15599 C 1414.01 -2.21479 -0.541388 0
M  V30 15600 C 1415 -1.19926 -1.07268 0
M  V30 15601 O 1416.19 -1.45508 -1.00779 0
M  V30 15602 C 1413.32 -2.98477 -1.69607 0
M  V30 15603 C 1412.4 -4.07379 -1.17912 0
M  V30 15604 N 1412.8 -5.0435 -0.382732 0
M  V30 15605 C 1411.09 -4.21537 -1.45679 0
M  V30 15606 C 1411.79 -5.81608 -0.103194 0
M  V30 15607 N 1410.77 -5.39171 -0.692513 0
M  V30 15608 H 1414.57 -2.93806 0.0742285 0
M  V30 15609 H 1412.09 -1.61782 0.141529 0
M  V30 15610 H 1414.08 -3.45316 -2.33587 0
M  V30 15611 H 1412.74 -2.27674 -2.31505 0
M  V30 15612 H 1413.75 -5.17894 -0.0245533 0
M  V30 15613 H 1410.43 -3.61953 -2.08078 0
M  V30 15614 H 1411.82 -6.69737 0.538682 0
M  V30 15615 N 1414.54 -0.0635198 -1.57472 0
M  V30 15616 C 1415.79 0.608384 -1.93459 0
M  V30 15617 C 1416.12 1.6976 -0.943141 0
M  V30 15618 O 1415.4 1.94478 0.0289567 0
M  V30 15619 C 1415.68 1.19302 -3.39763 0
M  V30 15620 C 1415.53 0.11102 -4.49663 0
M  V30 15621 C 1416.85 2.101 -3.86712 0
M  V30 15622 H 1413.97 0.219688 -0.703496 0
M  V30 15623 H 1416.61 -0.127803 -1.8957 0
M  V30 15624 H 1414.76 1.82044 -3.43209 0
M  V30 15625 H 1416.43 -0.521606 -4.58342 0
M  V30 15626 H 1414.68 -0.559408 -4.30178 0
M  V30 15627 H 1415.35 0.560332 -5.49149 0
M  V30 15628 H 1417.82 1.57305 -3.8522 0
M  V30 15629 H 1416.7 2.47945 -4.89708 0
M  V30 15630 H 1416.96 3.00603 -3.24177 0
M  V30 15631 N 1416.02 1.56195 0.209972 0
M  V30 15632 C 1416.95 1.96378 1.26324 0
M  V30 15633 C 1417.93 0.833606 1.48273 0
M  V30 15634 O 1419.12 1.0968 1.60262 0
M  V30 15635 C 1416.25 2.29048 2.61064 0
M  V30 15636 C 1415.2 3.44665 2.53752 0
M  V30 15637 C 1414.53 3.6297 3.92628 0
M  V30 15638 C 1415.83 4.79297 2.07536 0
M  V30 15639 H 1417.52 2.8461 0.929379 0
M  V30 15640 H 1415.07 1.36931 0.445627 0
M  V30 15641 H 1417.02 2.55752 3.34916 0
M  V30 15642 H 1415.74 1.37682 2.96161 0
M  V30 15643 H 1414.4 3.18028 1.82356 0
M  V30 15644 H 1414.05 2.68961 4.25052 0
M  V30 15645 H 1413.75 4.40741 3.88614 0
M  V30 15646 H 1415.27 3.92035 4.68125 0
M  V30 15647 H 1416.69 5.05131 2.71138 0
M  V30 15648 H 1415.08 5.60433 2.14557 0
M  V30 15649 H 1416.15 4.73877 1.02802 0
M  V30 15650 N 1417.5 -0.477127 1.50204 0
M  V30 15651 C 1418.46 -1.55824 1.68082 0
M  V30 15652 C 1419.46 -1.51039 0.551719 0
M  V30 15653 O 1420.65 -1.53766 0.818638 0
M  V30 15654 C 1417.78 -2.95462 1.70044 0
M  V30 15655 H 1418.98 -1.41292 2.64531 0
M  V30 15656 H 1416.53 -0.70308 1.39594 0
M  V30 15657 H 1417.26 -3.15445 0.752663 0
M  V30 15658 H 1417.05 -3.00343 2.52065 0
M  V30 15659 H 1418.54 -3.73964 1.85851 0
M  V30 15660 N 1418.98 -1.3968 -0.729882 0
M  V30 15661 C 1420.39 -1.21396 -1.0361 0
M  V30 15662 C 1420.59 -0.0791302 -2.01345 0
M  V30 15663 O 1419.65 0.567575 -2.46038 0
M  V30 15664 C 1420.96 -2.55006 -1.59349 0
M  V30 15665 C 1422.51 -2.61896 -1.71405 0
M  V30 15666 C 1422.98 -3.9574 -2.30552 0
M  V30 15667 N 1424.48 -3.97406 -2.37955 0
M  V30 15668 C 1425.21 -4.97745 -2.8467 0
M  V30 15669 N 1424.71 -6.08482 -3.31243 0
M  V30 15670 N 1426.5 -4.85121 -2.83925 0
M  V30 15671 H 1418.65 -2.12242 -0.081787 0
M  V30 15672 H 1420.91 -0.942827 -0.0989005 0
M  V30 15673 H 1420.62 -3.38626 -0.950005 0
M  V30 15674 H 1420.49 -2.75087 -2.58083 0
M  V30 15675 H 1422.88 -1.78656 -2.34874 0
M  V30 15676 H 1422.96 -2.45659 -0.7131 0
M  V30 15677 H 1422.61 -4.79412 -1.67709 0
M  V30 15678 H 1422.54 -4.09299 -3.31334 0
M  V30 15679 H 1425.03 -3.17435 -2.05044 0
M  V30 15680 H 1425.34 -6.8095 -3.65414 0
M  V30 15681 H 1423.68 -6.12068 -3.29239 0
M  V30 15682 H 1426.88 -3.97711 -2.46867 0
M  V30 15683 H 1427.05 -5.63465 -3.20017 0
M  V30 15684 N 1420.45 0.960609 -1.2494 0
M  V30 15685 C 1421.36 2.0902 -1.06527 0
M  V30 15686 C 1422.38 1.74 -0.00406641 0
M  V30 15687 O 1423.56 2.00367 -0.203744 0
M  V30 15688 C 1420.62 3.39971 -0.679736 0
M  V30 15689 C 1419.68 3.88895 -1.81821 0
M  V30 15690 C 1418.92 5.13597 -1.45098 0
M  V30 15691 O 1419.14 5.69362 -0.343954 0
M  V30 15692 O 1418.07 5.57083 -2.27909 0
M  V30 15693 H 1421.9 2.27453 -2.01243 0
M  V30 15694 H 1419.48 1.07429 -1.03824 0
M  V30 15695 H 1421.37 4.18696 -0.47658 0
M  V30 15696 H 1420.04 3.22822 0.238231 0
M  V30 15697 H 1418.95 3.11201 -2.07617 0
M  V30 15698 H 1420.28 4.10533 -2.7152 0
M  V30 15699 N 1421.93 1.0643 1.16234 0
M  V30 15700 C 1422.87 0.620534 2.19601 0
M  V30 15701 C 1423.84 -0.35739 1.58624 0
M  V30 15702 O 1425.03 -0.266037 1.86613 0
M  V30 15703 C 1422.15 -0.0901061 3.3858 0
M  V30 15704 C 1421.2 0.844789 4.1805 0
M  V30 15705 S 1422.03 2.34077 4.81631 0
M  V30 15706 C 1423.19 1.64167 6.03987 0
M  V30 15707 H 1423.42 1.49626 2.56903 0
M  V30 15708 H 1420.96 0.877398 1.27048 0
M  V30 15709 H 1422.91 -0.493891 4.07518 0
M  V30 15710 H 1421.57 -0.942042 2.9964 0
M  V30 15711 H 1420.77 0.294135 5.03141 0
M  V30 15712 H 1420.37 1.18852 3.54613 0
M  V30 15713 H 1422.66 0.948043 6.70834 0
M  V30 15714 H 1423.6 2.47054 6.63604 0
M  V30 15715 H 1424.01 1.12366 5.53203 0
M  V30 15716 N 1423.41 -1.329 0.847073 0
M  V30 15717 C 1424.69 -1.921 0.368351 0
M  V30 15718 C 1425.07 -1.77205 -1.14724 0
M  V30 15719 O 1424.42 -1.16547 -1.96543 0
M  V30 15720 C 1424.63 -3.39125 0.824326 0
M  V30 15721 C 1425.97 -4.16267 0.837097 0
M  V30 15722 O 1427 -3.47812 0.768466 0
M  V30 15723 O 1425.86 -5.38487 0.932389 0
M  V30 15724 H 1422.95 -0.820187 0.105936 0
M  V30 15725 H 1425.5 -1.41719 0.933471 0
M  V30 15726 H 1424.27 -3.43875 1.86723 0
M  V30 15727 H 1423.89 -3.96898 0.236233 0
M  V30 15728 N 1424.89 -0.604284 -1.45555 0
M  V30 15729 C 1426.11 -0.102634 -2.07146 0
M  V30 15730 C 1426.54 1.20239 -1.44652 0
M  V30 15731 O 1425.9 1.73133 -0.538033 0
M  V30 15732 C 1425.94 0.0270231 -3.6059 0
M  V30 15733 O 1425.05 1.0781 -3.98059 0
M  V30 15734 H 1424.39 -0.0725667 -0.660023 0
M  V30 15735 H 1426.92 -0.833355 -1.86859 0
M  V30 15736 H 1426.93 0.226299 -4.07372 0
M  V30 15737 H 1425.6 -0.925896 -4.05463 0
M  V30 15738 H 1424.18 0.855552 -3.62953 0
M  V30 15739 N 1426.37 1.53816 -0.343257 0
M  V30 15740 C 1427.61 2.0282 0.253695 0
M  V30 15741 C 1427.97 1.22564 1.47791 0
M  V30 15742 O 1429.17 1.61464 2.14902 0
M  V30 15743 C 1427.44 3.5298 0.560361 0
M  V30 15744 S 1429 4.23889 1.13416 0
M  V30 15745 H 1425.82 0.706976 0.0755344 0
M  V30 15746 H 1428.42 1.89492 -0.480951 0
M  V30 15747 H 1427.13 4.09002 -0.338451 0
M  V30 15748 H 1426.66 3.70426 1.32468 0
M  V30 15749 H 1428.67 4.33192 2.4199 0
M  V30 15750 N 1427.84 0.0718701 1.57436 0
M  V30 15751 C 1429.26 -0.460784 1.80924 0
M  V30 15752 C 1429.61 -1.69637 0.985781 0
M  V30 15753 O 1428.73 -2.15395 0.208319 0
M  V30 15754 C 1429.33 -0.842738 3.28151 0
M  V30 15755 C 1427.89 -1.32026 3.52486 0
M  V30 15756 C 1427.03 -0.305466 2.75612 0
M  V30 15757 H 1429.98 0.297566 1.55885 0
M  V30 15758 H 1430 -1.70414 3.40205 0
M  V30 15759 H 1429.52 0.056733 3.88059 0
M  V30 15760 H 1427.62 -2.23822 2.97883 0
M  V30 15761 H 1427.73 -1.29813 4.61178 0
M  V30 15762 H 1426.09 -0.782758 2.42374 0
M  V30 15763 H 1426.88 0.586279 3.38257 0
M  V30 15764 N 1429.32 -1.56304 -0.201686 0
M  V30 15765 C 1430.57 -1.80504 -0.92446 0
M  V30 15766 C 1430.9 -0.644832 -1.83182 0
M  V30 15767 O 1430.18 0.354963 -1.91234 0
M  V30 15768 C 1430.46 -3.14919 -1.74636 0
M  V30 15769 C 1430.31 -4.41421 -0.864169 0
M  V30 15770 C 1431.63 -3.45962 -2.72026 0
M  V30 15771 H 1428.75 -0.656643 -0.334648 0
M  V30 15772 H 1431.39 -1.89025 -0.192188 0
M  V30 15773 H 1429.54 -3.07785 -2.37066 0
M  V30 15774 H 1431.21 -4.60594 -0.255084 0
M  V30 15775 H 1429.46 -4.33465 -0.170548 0
M  V30 15776 H 1430.13 -5.31954 -1.47409 0
M  V30 15777 H 1432.6 -3.53353 -2.1973 0
M  V30 15778 H 1431.48 -4.41146 -3.26622 0
M  V30 15779 H 1431.74 -2.69124 -3.50749 0
M  V30 15780 N 1430.8 0.469154 -1.50455 0
M  V30 15781 C 1432.05 1.2229 -1.6178 0
M  V30 15782 C 1432.38 1.91577 -0.318073 0
M  V30 15783 O 1431.65 1.82205 0.68057 0
M  V30 15784 C 1431.94 2.26504 -2.79943 0
M  V30 15785 C 1431.79 1.61509 -4.19804 0
M  V30 15786 C 1433.11 3.27796 -2.93662 0
M  V30 15787 H 1430.23 0.443241 -0.588817 0
M  V30 15788 H 1432.87 0.516431 -1.82847 0
M  V30 15789 H 1431.02 2.86757 -2.62112 0
M  V30 15790 H 1432.69 1.04838 -4.49229 0
M  V30 15791 H 1430.94 0.918162 -4.23972 0
M  V30 15792 H 1431.61 2.37248 -4.98415 0
M  V30 15793 H 1434.08 2.77568 -3.09992 0
M  V30 15794 H 1432.96 3.98041 -3.77961 0
M  V30 15795 H 1433.22 3.92033 -2.04359 0
M  V30 15796 N 1432.28 1.40065 0.722464 0
M  V30 15797 C 1433.53 1.37698 1.47932 0
M  V30 15798 C 1433.85 -0.0222608 1.94987 0
M  V30 15799 O 1433.12 -0.975795 1.69868 0
M  V30 15800 H 1431.7 0.506766 0.548815 0
M  V30 15801 H 1434.36 1.75053 0.856884 0
M  V30 15802 H 1433.46 2.04756 2.35545 0
M  V30 15803 N 1433.76 -0.95397 1.25448 0
M  V30 15804 C 1434.67 -2.08452 1.07634 0
M  V30 15805 C 1435.68 -1.73995 0.013294 0
M  V30 15806 O 1436.86 -2.00256 0.214367 0
M  V30 15807 C 1433.92 -3.39606 0.697756 0
M  V30 15808 C 1432.99 -3.87926 1.83881 0
M  V30 15809 C 1432.22 -5.12821 1.47819 0
M  V30 15810 O 1432.44 -5.69172 0.374143 0
M  V30 15811 O 1431.38 -5.55866 2.3086 0
M  V30 15812 H 1435.2 -2.26382 2.02447 0
M  V30 15813 H 1432.79 -1.06877 1.04392 0
M  V30 15814 H 1434.67 -4.18438 0.498778 0
M  V30 15815 H 1433.34 -3.22944 -0.221108 0
M  V30 15816 H 1432.25 -3.10095 2.09265 0
M  V30 15817 H 1433.58 -4.09087 2.73694 0
M  V30 15818 N 1435.24 -1.07045 -1.15668 0
M  V30 15819 C 1436.48 -0.791735 -1.86381 0
M  V30 15820 C 1436.81 0.682084 -1.82148 0
M  V30 15821 O 1436.07 1.51617 -1.23737 0
M  V30 15822 C 1436.36 -1.24127 -3.35153 0
M  V30 15823 C 1436.03 -2.72051 -3.59582 0
M  V30 15824 C 1434.69 -3.12455 -3.65958 0
M  V30 15825 C 1437.04 -3.67547 -3.69538 0
M  V30 15826 C 1434.37 -4.4718 -3.79799 0
M  V30 15827 C 1436.72 -5.02029 -3.84902 0
M  V30 15828 C 1435.39 -5.42059 -3.89523 0
M  V30 15829 H 1434.66 -0.289717 -0.682016 0
M  V30 15830 H 1437.31 -1.34091 -1.36718 0
M  V30 15831 H 1435.61 -0.611428 -3.87 0
M  V30 15832 H 1437.31 -1.00256 -3.88265 0
M  V30 15833 H 1433.9 -2.39771 -3.55257 0
M  V30 15834 H 1438.08 -3.3746 -3.63915 0
M  V30 15835 H 1433.34 -4.77668 -3.81632 0
M  V30 15836 H 1437.51 -5.75902 -3.91548 0
M  V30 15837 H 1435.14 -6.46455 -4 0
M  V30 15838 N 1436.71 1.32449 -0.85411 0
M  V30 15839 C 1438.12 1.79545 -0.511923 0
M  V30 15840 C 1438.48 1.70534 0.970188 0
M  V30 15841 O 1437.6 1.2636 1.75676 0
M  V30 15842 C 1438.2 3.26 -0.922456 0
M  V30 15843 C 1436.75 3.71053 -0.632176 0
M  V30 15844 C 1435.9 2.53565 -1.12249 0
M  V30 15845 H 1438.85 1.19755 -1.04137 0
M  V30 15846 H 1438.87 3.79751 -0.238618 0
M  V30 15847 H 1438.39 3.32526 -2.00119 0
M  V30 15848 H 1436.49 3.70042 0.435862 0
M  V30 15849 H 1436.6 4.63878 -1.19809 0
M  V30 15850 H 1434.96 2.48849 -0.542781 0
M  V30 15851 H 1435.75 2.62846 -2.20832 0
M  V30 15852 N 1438.19 0.611994 1.45232 0
M  V30 15853 C 1439.43 0.111974 2.04093 0
M  V30 15854 C 1439.8 -1.23571 1.4695 0
M  V30 15855 O 1441 -1.82671 1.97192 0
M  V30 15856 C 1439.27 0.0779401 3.57315 0
M  V30 15857 S 1440.83 -0.360247 4.37319 0
M  V30 15858 H 1437.64 0.0517217 0.709116 0
M  V30 15859 H 1440.25 0.811087 1.77881 0
M  V30 15860 H 1438.95 1.06223 3.96415 0
M  V30 15861 H 1438.48 -0.643028 3.88109 0
M  V30 15862 H 1440.5 -1.6088 4.69396 0
M  V30 15863 N 1439.67 -1.53632 0.351409 0
M  V30 15864 C 1440.6 -2.2284 -0.536204 0
M  V30 15865 C 1441.61 -1.23765 -1.05764 0
M  V30 15866 O 1442.8 -1.50073 -0.966449 0
M  V30 15867 C 1439.9 -2.9013 -1.75151 0
M  V30 15868 C 1439.08 -4.15588 -1.36401 0
M  V30 15869 C 1438.14 -4.66217 -2.43984 0
M  V30 15870 O 1437.16 -5.3024 -2.06964 0
M  V30 15871 N 1438.36 -4.42817 -3.75358 0
M  V30 15872 H 1441.13 -2.99647 0.0565368 0
M  V30 15873 H 1438.69 -1.60942 0.175905 0
M  V30 15874 H 1440.68 -3.20913 -2.4657 0
M  V30 15875 H 1439.25 -2.16862 -2.25144 0
M  V30 15876 H 1438.47 -3.91264 -0.480258 0
M  V30 15877 H 1439.76 -4.97179 -1.08121 0
M  V30 15878 H 1439.16 -3.9163 -4.08218 0
M  V30 15879 H 1437.71 -4.78186 -4.42924 0
M  V30 15880 N 1441.15 -0.0802183 -1.57396 0
M  V30 15881 C 1442.1 0.901668 -2.14412 0
M  V30 15882 C 1443.09 1.30247 -1.08314 0
M  V30 15883 O 1444.3 1.27873 -1.26682 0
M  V30 15884 H 1440.67 0.308748 -0.685696 0
M  V30 15885 H 1442.64 0.395934 -2.95762 0
M  V30 15886 C 1441.39 2.15665 -2.72734 0
M  V30 15887 H 1440.71 1.8571 -3.54051 0
M  V30 15888 H 1442.15 2.82461 -3.16214 0
M  V30 15889 C 1440.61 2.9208 -1.67901 0
M  V30 15890 O 1441.14 3.86087 -1.10903 0
M  V30 15891 N 1439.35 2.55343 -1.38739 0
M  V30 15892 H 1438.9 1.78969 -1.85278 0
M  V30 15893 H 1438.85 3.06773 -0.688317 0
M  V30 15894 N 1442.63 1.56409 0.193394 0
M  V30 15895 C 1443.9 1.71559 0.93951 0
M  V30 15896 C 1444.28 0.635478 2.01308 0
M  V30 15897 O 1443.63 -0.353267 2.25753 0
M  V30 15898 C 1443.84 3.13948 1.52438 0
M  V30 15899 C 1445.19 3.74234 2.00585 0
M  V30 15900 O 1446.21 3.17088 1.62277 0
M  V30 15901 O 1445.07 4.74529 2.71081 0
M  V30 15902 H 1442.17 0.69979 0.440707 0
M  V30 15903 H 1444.71 1.68711 0.182957 0
M  V30 15904 H 1443.48 3.84033 0.750613 0
M  V30 15905 H 1443.11 3.21032 2.34572 0
M  V30 15906 N 1444.1 -0.461169 1.50702 0
M  V30 15907 C 1445.35 -1.20934 1.61425 0
M  V30 15908 C 1445.67 -1.92884 0.32481 0
M  V30 15909 O 1446.87 -2.69712 0.311081 0
M  V30 15910 C 1445.33 -2.19797 2.84987 0
M  V30 15911 C 1444.94 -1.53604 4.20844 0
M  V30 15912 C 1446.68 -2.95194 3.05059 0
M  V30 15913 C 1444.59 -2.50811 5.35582 0
M  V30 15914 H 1443.52 -0.455088 0.601174 0
M  V30 15915 H 1446.17 -0.478771 1.77144 0
M  V30 15916 H 1444.55 -2.96187 2.62848 0
M  V30 15917 H 1445.72 -0.829345 4.53275 0
M  V30 15918 H 1444.04 -0.904504 4.06457 0
M  V30 15919 H 1446.64 -3.67965 3.87951 0
M  V30 15920 H 1446.98 -3.5516 2.1718 0
M  V30 15921 H 1447.51 -2.25915 3.27425 0
M  V30 15922 H 1444.25 -1.9557 6.25646 0
M  V30 15923 H 1443.77 -3.19604 5.07556 0
M  V30 15924 H 1445.45 -3.12437 5.66561 0
M  V30 15925 N 1445.58 -1.40446 -0.715026 0
M  V30 15926 C 1446.53 -1.40931 -1.85044 0
M  V30 15927 C 1447.52 -0.289745 -1.66904 0
M  V30 15928 O 1448.73 -0.460809 -1.74002 0
M  V30 15929 H 1445.1 -0.440534 -0.609454 0
M  V30 15930 H 1447.08 -2.36662 -1.81752 0
M  V30 15931 C 1445.82 -1.28933 -3.22911 0
M  V30 15932 H 1445.15 -2.14359 -3.37476 0
M  V30 15933 H 1446.59 -1.33331 -4.02491 0
M  V30 15934 C 1445.05 0.000379936 -3.369 0
M  V30 15935 O 1445.58 0.963093 -3.89984 0
M  V30 15936 N 1443.78 0.0700649 -2.90516 0
M  V30 15937 H 1443.33 -0.714088 -2.47505 0
M  V30 15938 H 1443.29 0.932457 -3.00254 0
M  V30 15939 N 1447.06 0.947303 -1.25952 0
M  V30 15940 C 1447.99 2.0625 -1.09467 0
M  V30 15941 C 1448.97 1.701 -0.00160498 0
M  V30 15942 O 1450.16 1.93432 -0.172501 0
M  V30 15943 C 1447.29 3.39746 -0.720392 0
M  V30 15944 C 1446.24 3.89935 -1.76451 0
M  V30 15945 C 1445.57 5.2001 -1.24472 0
M  V30 15946 C 1446.87 4.15496 -3.16481 0
M  V30 15947 H 1448.56 2.203 -2.02752 0
M  V30 15948 H 1446.11 1.05858 -0.97622 0
M  V30 15949 H 1448.06 4.17221 -0.591972 0
M  V30 15950 H 1446.78 3.25656 0.248161 0
M  V30 15951 H 1445.44 3.14635 -1.8815 0
M  V30 15952 H 1445.09 5.02295 -0.266182 0
M  V30 15953 H 1444.79 5.54559 -1.94263 0
M  V30 15954 H 1446.31 6.00075 -1.12884 0
M  V30 15955 H 1447.73 4.83605 -3.07894 0
M  V30 15956 H 1446.12 4.61315 -3.83808 0
M  V30 15957 H 1447.19 3.21501 -3.62995 0
M  V30 15958 N 1448.54 1.07657 1.15099 0
M  V30 15959 C 1449.76 0.82291 1.90376 0
M  V30 15960 C 1450.19 -0.618415 1.77644 0
M  V30 15961 O 1449.55 -1.43248 1.11129 0
M  V30 15962 C 1449.59 1.23988 3.38614 0
M  V30 15963 O 1448.7 0.387085 4.10579 0
M  V30 15964 H 1448.04 0.299532 0.592602 0
M  V30 15965 H 1450.57 1.436 1.4574 0
M  V30 15966 H 1450.58 1.21741 3.89414 0
M  V30 15967 H 1449.25 2.28966 3.472 0
M  V30 15968 H 1447.83 0.472311 3.69897 0
M  V30 15969 N 1450.02 -1.31994 0.861122 0
M  V30 15970 C 1450.95 -2.27632 0.267681 0
M  V30 15971 C 1451.96 -1.52709 -0.564265 0
M  V30 15972 O 1453.15 -1.74239 -0.3877 0
M  V30 15973 C 1450.25 -3.32805 -0.639856 0
M  V30 15974 C 1449.42 -4.37116 0.157676 0
M  V30 15975 C 1448.48 -5.21832 -0.676624 0
M  V30 15976 O 1447.51 -5.69098 -0.107822 0
M  V30 15977 N 1448.71 -5.45317 -1.99022 0
M  V30 15978 H 1451.48 -2.79195 1.0895 0
M  V30 15979 H 1449.04 -1.44923 0.721733 0
M  V30 15980 H 1451.03 -3.86391 -1.20348 0
M  V30 15981 H 1449.6 -2.81351 -1.36236 0
M  V30 15982 H 1448.82 -3.83724 0.902741 0
M  V30 15983 H 1450.11 -5.03889 0.70524 0
M  V30 15984 H 1449.5 -5.08656 -2.47558 0
M  V30 15985 H 1448.06 -6.01874 -2.50182 0
M  V30 15986 N 1451.49 -0.619688 -1.44906 0
M  V30 15987 C 1452.46 0.0822364 -2.29052 0
M  V30 15988 C 1453.46 0.783427 -1.40425 0
M  V30 15989 O 1454.65 0.629751 -1.62419 0
M  V30 15990 C 1451.78 1.12685 -3.21737 0
M  V30 15991 H 1452.97 -0.657726 -2.92599 0
M  V30 15992 H 1450.53 -0.379286 -1.51628 0
M  V30 15993 H 1451.26 1.89717 -2.63017 0
M  V30 15994 H 1451.05 0.628122 -3.87036 0
M  V30 15995 H 1452.54 1.61808 -3.84978 0
M  V30 15996 N 1452.97 1.53444 -0.359552 0
M  V30 15997 C 1454.38 1.86308 0.120955 0
M  V30 15998 C 1454.73 1.28033 1.48667 0
M  V30 15999 O 1453.86 0.600041 2.07915 0
M  V30 16000 C 1454.45 3.38044 0.226255 0
M  V30 16001 C 1453.01 3.70727 0.65101 0
M  V30 16002 C 1452.16 2.76538 -0.205482 0
M  V30 16003 H 1455.11 1.47778 -0.578569 0
M  V30 16004 H 1455.13 3.65699 1.05092 0
M  V30 16005 H 1454.64 3.80428 -0.767874 0
M  V30 16006 H 1452.75 3.33897 1.65359 0
M  V30 16007 H 1452.86 4.77168 0.429802 0
M  V30 16008 H 1451.22 2.52622 0.3247 0
M  V30 16009 H 1452.01 3.21754 -1.19704 0
M  V30 16010 N 1454.45 0.0885642 1.57351 0
M  V30 16011 C 1455.41 -0.858178 2.12528 0
M  V30 16012 C 1456.41 -1.21522 1.05304 0
M  V30 16013 O 1457.6 -1.14573 1.3122 0
M  V30 16014 C 1454.74 -2.15619 2.64048 0
M  V30 16015 H 1455.93 -0.37918 2.97493 0
M  V30 16016 H 1453.48 -0.160354 1.55475 0
M  V30 16017 H 1454.22 -2.68018 1.82584 0
M  V30 16018 H 1454 -1.90995 3.42437 0
M  V30 16019 H 1455.49 -2.83359 3.06753 0
M  V30 16020 N 1455.93 -1.56509 -0.185096 0
M  V30 16021 C 1456.86 -1.98363 -1.23184 0
M  V30 16022 C 1457.84 -0.85709 -1.46929 0
M  V30 16023 O 1459.02 -1.12216 -1.58497 0
M  V30 16024 C 1456.15 -2.33172 -2.57387 0
M  V30 16025 C 1455.11 -3.48658 -2.48236 0
M  V30 16026 C 1454.43 -3.69171 -3.86804 0
M  V30 16027 C 1455.73 -4.82538 -1.99885 0
M  V30 16028 H 1457.43 -2.86053 -0.883982 0
M  V30 16029 H 1454.97 -1.37623 -0.423786 0
M  V30 16030 H 1456.93 -2.61048 -3.30805 0
M  V30 16031 H 1455.65 -1.42377 -2.93933 0
M  V30 16032 H 1454.31 -3.20889 -1.77273 0
M  V30 16033 H 1453.96 -2.75689 -4.20719 0
M  V30 16034 H 1453.66 -4.46868 -3.81553 0
M  V30 16035 H 1455.18 -3.99433 -4.61829 0
M  V30 16036 H 1456.6 -5.0938 -2.63068 0
M  V30 16037 H 1454.99 -5.63775 -2.05614 0
M  V30 16038 H 1456.06 -4.75453 -0.952503 0
M  V30 16039 N 1457.41 0.45317 -1.50944 0
M  V30 16040 C 1458.82 1.03354 -1.55482 0
M  V30 16041 C 1459.17 1.92701 -0.368873 0
M  V30 16042 O 1458.29 2.10153 0.516208 0
M  V30 16043 C 1458.89 1.88118 -2.81775 0
M  V30 16044 C 1457.45 2.41232 -2.88936 0
M  V30 16045 C 1456.59 1.20032 -2.49975 0
M  V30 16046 H 1459.55 0.235059 -1.5695 0
M  V30 16047 H 1459.57 2.73394 -2.64643 0
M  V30 16048 H 1459.08 1.23064 -3.68072 0
M  V30 16049 H 1457.18 3.09788 -2.07032 0
M  V30 16050 H 1457.29 2.75113 -3.92237 0
M  V30 16051 H 1455.66 1.54072 -2.02815 0
M  V30 16052 H 1456.44 0.56612 -3.386 0
M  V30 16053 N 1458.88 1.40823 0.707568 0
M  V30 16054 C 1459.82 1.37646 1.83265 0
M  V30 16055 C 1460.83 0.280547 1.60365 0
M  V30 16056 O 1462.02 0.541453 1.7009 0
M  V30 16057 C 1459.12 1.12121 3.19816 0
M  V30 16058 C 1458.29 2.33522 3.69846 0
M  V30 16059 C 1457.35 2.04035 4.85032 0
M  V30 16060 O 1456.38 2.76971 4.97268 0
M  V30 16061 N 1457.58 1.02322 5.71411 0
M  V30 16062 H 1460.34 2.34612 1.86486 0
M  V30 16063 H 1457.9 1.35281 0.889424 0
M  V30 16064 H 1459.9 0.903663 3.94482 0
M  V30 16065 H 1458.47 0.237941 3.11693 0
M  V30 16066 H 1457.69 2.71055 2.86221 0
M  V30 16067 H 1458.97 3.14436 4.00009 0
M  V30 16068 H 1458.37 0.419311 5.64144 0
M  V30 16069 H 1456.93 0.865571 6.46027 0
M  V30 16070 N 1460.36 -0.94061 1.26453 0
M  V30 16071 C 1461.77 -1.50169 1.10934 0
M  V30 16072 C 1462.12 -1.93733 -0.310167 0
M  V30 16073 O 1461.25 -1.79966 -1.20172 0
M  V30 16074 C 1461.84 -2.7291 2.00763 0
M  V30 16075 C 1460.4 -3.25283 1.89388 0
M  V30 16076 C 1459.55 -1.98061 1.9408 0
M  V30 16077 H 1462.5 -0.756038 1.39534 0
M  V30 16078 H 1462.52 -3.47237 1.55586 0
M  V30 16079 H 1462.03 -2.41172 3.04069 0
M  V30 16080 H 1460.14 -3.6181 0.890192 0
M  V30 16081 H 1460.25 -3.92351 2.7495 0
M  V30 16082 H 1458.61 -2.13985 1.3814 0
M  V30 16083 H 1459.4 -1.68654 2.99016 0
M  V30 16084 N 1461.84 -1.08266 -1.14527 0
M  V30 16085 C 1462.75 -0.723043 -2.2318 0
M  V30 16086 C 1463.77 0.269819 -1.71895 0
M  V30 16087 O 1464.94 0.114126 -2.01076 0
M  V30 16088 C 1462.01 -0.136229 -3.46432 0
M  V30 16089 C 1461.07 -1.18352 -4.12664 0
M  V30 16090 C 1460.3 -0.624612 -5.30032 0
M  V30 16091 O 1460.52 0.556377 -5.6768 0
M  V30 16092 O 1459.46 -1.37397 -5.86008 0
M  V30 16093 H 1463.28 -1.6294 -2.56289 0
M  V30 16094 H 1460.87 -0.856235 -1.22429 0
M  V30 16095 H 1462.75 0.18829 -4.20979 0
M  V30 16096 H 1461.43 0.74331 -3.1505 0
M  V30 16097 H 1460.33 -1.56054 -3.39997 0
M  V30 16098 H 1461.67 -2.03528 -4.48148 0
M  V30 16099 N 1463.32 1.31536 -0.86811 0
M  V30 16100 C 1464.57 1.97066 -0.478829 0
M  V30 16101 C 1464.9 1.68469 0.966021 0
M  V30 16102 O 1464.17 0.980166 1.67997 0
M  V30 16103 C 1464.46 3.52533 -0.734313 0
M  V30 16104 C 1464.31 3.90711 -2.22856 0
M  V30 16105 C 1465.63 4.39647 -0.199559 0
M  V30 16106 H 1462.75 0.715813 -0.175444 0
M  V30 16107 H 1465.39 1.55694 -1.08901 0
M  V30 16108 H 1463.54 3.87905 -0.214962 0
M  V30 16109 H 1465.21 3.65451 -2.81502 0
M  V30 16110 H 1463.45 3.39385 -2.70185 0
M  V30 16111 H 1464.13 4.99103 -2.35797 0
M  V30 16112 H 1466.6 4.11088 -0.643853 0
M  V30 16113 H 1465.48 5.47383 -0.407783 0
M  V30 16114 H 1465.74 4.32875 0.898414 0
M  V30 16115 N 1464.8 0.627364 1.44575 0
M  V30 16116 C 1466.05 0.127824 2.01295 0
M  V30 16117 C 1466.36 -1.25647 1.49907 0
M  V30 16118 O 1467.57 -1.84982 1.9873 0
M  V30 16119 C 1466.02 0.177775 3.59461 0
M  V30 16120 C 1465.63 1.56315 4.19845 0
M  V30 16121 C 1467.37 -0.265497 4.23669 0
M  V30 16122 C 1465.28 1.56842 5.70223 0
M  V30 16123 H 1464.21 0.0440205 0.752714 0
M  V30 16124 H 1466.86 0.785607 1.65833 0
M  V30 16125 H 1465.24 -0.547038 3.92203 0
M  V30 16126 H 1466.42 2.31125 3.98645 0
M  V30 16127 H 1464.73 1.95019 3.67909 0
M  V30 16128 H 1467.33 -0.281038 5.33961 0
M  V30 16129 H 1467.67 -1.29208 3.95741 0
M  V30 16130 H 1468.21 0.406698 3.95716 0
M  V30 16131 H 1464.94 2.57325 6.0288 0
M  V30 16132 H 1464.46 0.863198 5.93556 0
M  V30 16133 H 1466.14 1.30071 6.33791 0
M  V30 16134 N 1466.28 -1.53251 0.367684 0
M  V30 16135 C 1467.21 -2.23396 -0.512539 0
M  V30 16136 C 1468.22 -1.2488 -1.04446 0
M  V30 16137 O 1469.41 -1.5109 -0.950477 0
M  V30 16138 C 1466.51 -2.91971 -1.72064 0
M  V30 16139 C 1465.68 -4.17011 -1.31986 0
M  V30 16140 C 1464.74 -4.68779 -2.39025 0
M  V30 16141 O 1463.77 -5.32405 -2.01328 0
M  V30 16142 N 1464.97 -4.46773 -3.7064 0
M  V30 16143 H 1467.73 -2.9957 0.0883152 0
M  V30 16144 H 1465.3 -1.60746 0.192966 0
M  V30 16145 H 1467.29 -3.23511 -2.43152 0
M  V30 16146 H 1465.86 -2.19237 -2.22831 0
M  V30 16147 H 1465.08 -3.91751 -0.438732 0
M  V30 16148 H 1466.37 -4.98298 -1.02842 0
M  V30 16149 H 1465.76 -3.95938 -4.04042 0
M  V30 16150 H 1464.32 -4.82857 -4.37827 0
M  V30 16151 N 1467.75 -0.0969077 -1.57302 0
M  V30 16152 C 1468.7 0.878876 -2.15357 0
M  V30 16153 C 1469.7 1.29091 -1.0969 0
M  V30 16154 O 1470.9 1.26523 -1.28031 0
M  V30 16155 H 1467.28 0.301458 -0.688932 0
M  V30 16156 H 1469.25 0.364542 -2.96165 0
M  V30 16157 C 1468 2.12761 -2.75006 0
M  V30 16158 H 1467.32 1.81944 -3.56 0
M  V30 16159 H 1468.76 2.79092 -3.19193 0
M  V30 16160 C 1467.22 2.90283 -1.70989 0
M  V30 16161 O 1467.75 3.84889 -1.14992 0
M  V30 16162 N 1465.95 2.53857 -1.41439 0
M  V30 16163 H 1465.5 1.76993 -1.87166 0
M  V30 16164 H 1465.46 3.06025 -0.720816 0
M  V30 16165 N 1469.23 1.56605 0.176793 0
M  V30 16166 C 1470.16 1.91079 1.24756 0
M  V30 16167 C 1471.14 0.772947 1.43053 0
M  V30 16168 O 1472.33 1.02573 1.58149 0
M  V30 16169 C 1469.45 2.15695 2.61139 0
M  V30 16170 C 1468.5 3.38387 2.59609 0
M  V30 16171 S 1469.33 4.92933 2.09231 0
M  V30 16172 C 1470.49 5.20637 3.47402 0
M  V30 16173 H 1470.72 2.81602 0.953291 0
M  V30 16174 H 1468.25 1.49622 0.381117 0
M  V30 16175 H 1470.21 2.30558 3.39637 0
M  V30 16176 H 1468.87 1.25889 2.87769 0
M  V30 16177 H 1468.07 3.52794 3.59934 0
M  V30 16178 H 1467.67 3.22611 1.89203 0
M  V30 16179 H 1469.96 5.12279 4.4337 0
M  V30 16180 H 1470.9 6.22292 3.37874 0
M  V30 16181 H 1471.31 4.4822 3.4316 0
M  V30 16182 N 1470.71 -0.445159 1.51182 0
M  V30 16183 C 1471.94 -1.21787 1.67259 0
M  V30 16184 C 1472.35 -1.85206 0.366641 0
M  V30 16185 O 1471.71 -1.70376 -0.654095 0
M  V30 16186 C 1471.76 -2.30765 2.78262 0
M  V30 16187 O 1471.48 -1.69942 4.03796 0
M  V30 16188 C 1472.98 -3.21186 3.05539 0
M  V30 16189 H 1470.2 -0.367364 0.561502 0
M  V30 16190 H 1472.75 -0.528415 1.97555 0
M  V30 16191 H 1470.9 -2.9544 2.50587 0
M  V30 16192 H 1471.32 -2.41905 4.65384 0
M  V30 16193 H 1472.79 -3.93805 3.8681 0
M  V30 16194 H 1473.27 -3.81487 2.17634 0
M  V30 16195 H 1473.87 -2.62221 3.34844 0
M  V30 16196 N 1472.19 -1.41197 -0.700089 0
M  V30 16197 C 1473.1 -1.45038 -1.84394 0
M  V30 16198 C 1474.11 -0.34141 -1.70618 0
M  V30 16199 O 1475.29 -0.588428 -1.92612 0
M  V30 16200 C 1472.35 -1.32611 -3.20336 0
M  V30 16201 C 1471.42 -2.53784 -3.46254 0
M  V30 16202 C 1470.65 -2.4194 -4.75711 0
M  V30 16203 O 1470.87 -1.44153 -5.51884 0
M  V30 16204 O 1469.81 -3.31613 -5.02311 0
M  V30 16205 H 1473.63 -2.41531 -1.8411 0
M  V30 16206 H 1471.22 -1.22686 -0.852558 0
M  V30 16207 H 1473.1 -1.27947 -4.01507 0
M  V30 16208 H 1471.77 -0.392309 -3.21314 0
M  V30 16209 H 1470.68 -2.64024 -2.65032 0
M  V30 16210 H 1472.01 -3.45977 -3.50087 0
M  V30 16211 N 1473.67 0.933891 -1.2695 0
M  V30 16212 C 1474.91 1.68091 -1.12924 0
M  V30 16213 C 1475.24 1.91747 0.326088 0
M  V30 16214 O 1474.5 1.50126 1.25541 0
M  V30 16215 C 1474.79 3.05706 -1.85145 0
M  V30 16216 C 1474.46 3.01781 -3.35021 0
M  V30 16217 C 1473.12 3.00417 -3.75903 0
M  V30 16218 C 1475.47 2.93537 -4.3068 0
M  V30 16219 C 1472.8 2.88585 -5.10818 0
M  V30 16220 C 1475.15 2.83246 -5.65645 0
M  V30 16221 C 1473.82 2.80229 -6.05828 0
M  V30 16222 H 1473.09 0.615087 -0.413217 0
M  V30 16223 H 1475.74 1.08957 -1.57482 0
M  V30 16224 H 1474.04 3.68508 -1.33077 0
M  V30 16225 H 1475.74 3.62369 -1.71726 0
M  V30 16226 H 1472.33 3.03626 -3.02505 0
M  V30 16227 H 1476.51 2.93693 -4.00073 0
M  V30 16228 H 1471.77 2.84632 -5.41105 0
M  V30 16229 H 1475.94 2.75832 -6.39445 0
M  V30 16230 H 1473.57 2.70818 -7.10325 0
M  V30 16231 N 1475.14 1.08871 1.13951 0
M  V30 16232 C 1476.09 0.722966 2.19184 0
M  V30 16233 C 1477.06 -0.293108 1.63493 0
M  V30 16234 O 1478.25 -0.176036 1.89986 0
M  V30 16235 C 1475.39 0.143542 3.44801 0
M  V30 16236 C 1474.5 1.21297 4.14622 0
M  V30 16237 C 1473.63 0.596902 5.27836 0
M  V30 16238 C 1472.67 1.64803 5.89497 0
M  V30 16239 N 1471.81 1.05341 6.94152 0
M  V30 16240 H 1476.65 1.62464 2.49819 0
M  V30 16241 H 1474.19 0.811803 1.22671 0
M  V30 16242 H 1476.14 -0.210153 4.1667 0
M  V30 16243 H 1474.77 -0.721426 3.14635 0
M  V30 16244 H 1473.83 1.68403 3.41093 0
M  V30 16245 H 1475.14 2.00931 4.56539 0
M  V30 16246 H 1474.29 0.191724 6.06397 0
M  V30 16247 H 1473.03 -0.231052 4.87152 0
M  V30 16248 H 1472.04 2.06282 5.09635 0
M  V30 16249 H 1473.26 2.47855 6.32254 0
M  V30 16250 H 1471.21 0.24664 6.55536 0
M  V30 16251 H 1471.12 1.7868 7.34581 0
M  V30 16252 H 1472.39 0.674253 7.76578 0
M  V30 16253 N 1476.62 -1.31073 0.875073 0
M  V30 16254 C 1478.04 -1.49162 0.567697 0
M  V30 16255 C 1478.24 -1.80435 -0.896969 0
M  V30 16256 O 1477.29 -1.88604 -1.67883 0
M  V30 16257 C 1478.61 -2.6219 1.47231 0
M  V30 16258 C 1480.15 -2.76072 1.47489 0
M  V30 16259 C 1480.63 -3.92202 2.36519 0
M  V30 16260 N 1482.12 -3.99497 2.34428 0
M  V30 16261 C 1482.86 -4.88639 3.00033 0
M  V30 16262 N 1482.35 -5.82647 3.74826 0
M  V30 16263 N 1484.14 -4.81926 2.89315 0
M  V30 16264 H 1476.3 -1.09045 1.82272 0
M  V30 16265 H 1478.56 -0.539291 0.77966 0
M  V30 16266 H 1478.26 -2.45872 2.51475 0
M  V30 16267 H 1478.14 -3.58446 1.17459 0
M  V30 16268 H 1480.53 -2.91801 0.440008 0
M  V30 16269 H 1480.61 -1.80468 1.81287 0
M  V30 16270 H 1480.25 -3.77231 3.40087 0
M  V30 16271 H 1480.18 -4.87125 2.00043 0
M  V30 16272 H 1482.67 -3.32241 1.80067 0
M  V30 16273 H 1482.98 -6.47406 4.22001 0
M  V30 16274 H 1481.33 -5.82609 3.78934 0
M  V30 16275 H 1484.52 -4.07462 2.30418 0
M  V30 16276 H 1484.69 -5.51192 3.40722 0
M  V30 16277 N 1478.1 -0.635022 -1.4424 0
M  V30 16278 C 1479.35 -0.140788 -2.01609 0
M  V30 16279 C 1479.67 1.24317 -1.50234 0
M  V30 16280 O 1478.94 1.82677 -0.707519 0
M  V30 16281 H 1477.52 -0.0490568 -0.745387 0
M  V30 16282 H 1480.18 -0.8226 -1.7669 0
M  V30 16283 H 1479.28 -0.111456 -3.11901 0
M  V30 16284 N 1479.58 1.53054 -0.375806 0
M  V30 16285 C 1480.51 2.28973 0.45754 0
M  V30 16286 C 1481.49 1.31812 1.07516 0
M  V30 16287 O 1482.67 1.60693 1.09048 0
M  V30 16288 C 1479.8 3.08657 1.59212 0
M  V30 16289 C 1478.76 4.1359 1.10123 0
M  V30 16290 C 1478.08 4.81417 2.32684 0
M  V30 16291 C 1479.38 5.21994 0.17872 0
M  V30 16292 H 1481.08 2.98883 -0.175872 0
M  V30 16293 H 1478.62 1.43743 -0.0860253 0
M  V30 16294 H 1480.58 3.6052 2.18182 0
M  V30 16295 H 1479.3 2.36456 2.25291 0
M  V30 16296 H 1477.96 3.62688 0.534151 0
M  V30 16297 H 1477.61 4.05778 2.97243 0
M  V30 16298 H 1477.31 5.52332 2.00506 0
M  V30 16299 H 1478.83 5.36079 2.92322 0
M  V30 16300 H 1480.25 5.69298 0.676204 0
M  V30 16301 H 1478.64 6.00077 -0.0526605 0
M  V30 16302 H 1479.71 4.78646 -0.776246 0
M  V30 16303 N 1481.06 0.105248 1.57248 0
M  V30 16304 C 1482.47 -0.422304 1.81861 0
M  V30 16305 C 1482.82 -1.67508 1.02154 0
M  V30 16306 O 1481.94 -2.14905 0.253961 0
M  V30 16307 C 1482.54 -0.772943 3.29865 0
M  V30 16308 C 1481.1 -1.24519 3.55207 0
M  V30 16309 C 1480.24 -0.246936 2.76198 0
M  V30 16310 H 1483.2 0.330565 1.55219 0
M  V30 16311 H 1483.22 -1.6316 3.43743 0
M  V30 16312 H 1482.73 0.139033 3.87851 0
M  V30 16313 H 1480.83 -2.17453 3.02564 0
M  V30 16314 H 1480.94 -1.20001 4.63828 0
M  V30 16315 H 1479.31 -0.731171 2.43979 0
M  V30 16316 H 1480.09 0.657896 3.36937 0
M  V30 16317 N 1482.53 -1.56697 -0.168486 0
M  V30 16318 C 1483.46 -1.99659 -1.21073 0
M  V30 16319 C 1484.45 -0.872625 -1.46011 0
M  V30 16320 O 1485.63 -1.13891 -1.57297 0
M  V30 16321 C 1482.76 -2.35889 -2.54899 0
M  V30 16322 C 1481.71 -3.51272 -2.44524 0
M  V30 16323 C 1481.04 -3.73253 -3.82866 0
M  V30 16324 C 1482.34 -4.84631 -1.94756 0
M  V30 16325 H 1484.03 -2.86974 -0.853593 0
M  V30 16326 H 1481.58 -1.38065 -0.409165 0
M  V30 16327 H 1483.53 -2.64542 -3.28017 0
M  V30 16328 H 1482.26 -1.45486 -2.92406 0
M  V30 16329 H 1480.92 -3.22751 -1.7386 0
M  V30 16330 H 1480.56 -2.80136 -4.17772 0
M  V30 16331 H 1480.26 -4.5089 -3.76792 0
M  V30 16332 H 1481.79 -4.04309 -4.57566 0
M  V30 16333 H 1483.2 -5.12142 -2.5765 0
M  V30 16334 H 1481.6 -5.65925 -1.99623 0
M  V30 16335 H 1482.67 -4.76436 -0.902021 0
M  V30 16336 N 1484.01 0.437135 -1.51416 0
M  V30 16337 C 1485.26 1.18655 -1.64095 0
M  V30 16338 C 1485.59 1.9119 -0.35728 0
M  V30 16339 O 1484.84 1.84283 0.658644 0
M  V30 16340 C 1485.14 2.22795 -2.79458 0
M  V30 16341 C 1484.81 1.67271 -4.18726 0
M  V30 16342 C 1483.47 1.51852 -4.56612 0
M  V30 16343 C 1485.82 1.26448 -5.05629 0
M  V30 16344 C 1483.15 0.940834 -5.79107 0
M  V30 16345 C 1485.5 0.701095 -6.28703 0
M  V30 16346 C 1484.17 0.533801 -6.65362 0
M  V30 16347 H 1483.44 0.434191 -0.600466 0
M  V30 16348 H 1486.08 0.477592 -1.85449 0
M  V30 16349 H 1484.39 2.99731 -2.52327 0
M  V30 16350 H 1486.08 2.80602 -2.86467 0
M  V30 16351 H 1482.67 1.80249 -3.88855 0
M  V30 16352 H 1486.86 1.37182 -4.76964 0
M  V30 16353 H 1482.11 0.798982 -6.06157 0
M  V30 16354 H 1486.29 0.37626 -6.95383 0
M  V30 16355 H 1483.92 0.0840431 -7.60154 0
M  V30 16356 N 1485.49 1.41566 0.692592 0
M  V30 16357 C 1486.9 1.36606 1.27262 0
M  V30 16358 C 1487.25 0.0506082 1.96135 0
M  V30 16359 O 1486.38 -0.851071 1.98962 0
M  V30 16360 C 1486.97 2.47434 2.31434 0
M  V30 16361 C 1485.53 2.45863 2.85006 0
M  V30 16362 C 1484.68 2.2713 1.59083 0
M  V30 16363 H 1487.63 1.51038 0.487149 0
M  V30 16364 H 1487.65 2.16663 3.12789 0
M  V30 16365 H 1487.16 3.43161 1.81278 0
M  V30 16366 H 1485.26 1.53901 3.3933 0
M  V30 16367 H 1485.38 3.42279 3.35234 0
M  V30 16368 H 1483.74 1.75061 1.85002 0
M  V30 16369 H 1484.52 3.24887 1.10919 0
M  V30 16370 N 1486.97 -0.927146 1.27443 0
M  V30 16371 C 1487.9 -2.04483 1.12735 0
M  V30 16372 C 1488.88 -1.70076 0.0286662 0
M  V30 16373 O 1490.06 -1.93133 0.203252 0
M  V30 16374 C 1487.19 -3.38557 0.774352 0
M  V30 16375 C 1486.15 -3.87078 1.82632 0
M  V30 16376 C 1485.47 -5.17964 1.32729 0
M  V30 16377 C 1486.77 -4.10409 3.23051 0
M  V30 16378 H 1488.47 -2.17046 2.06231 0
M  V30 16379 H 1486.01 -1.04292 0.992937 0
M  V30 16380 H 1487.97 -4.16227 0.658273 0
M  V30 16381 H 1486.69 -3.26009 -0.196321 0
M  V30 16382 H 1485.35 -3.11602 1.93132 0
M  V30 16383 H 1485 -5.01808 0.346059 0
M  V30 16384 H 1484.7 -5.51398 2.03061 0
M  V30 16385 H 1486.22 -5.98203 1.22416 0
M  V30 16386 H 1487.64 -4.78646 3.15549 0
M  V30 16387 H 1486.03 -4.5515 3.91099 0
M  V30 16388 H 1487.1 -3.15685 3.68064 0
M  V30 16389 N 1488.45 -1.09474 -1.13372 0
M  V30 16390 C 1489.69 -0.832323 -1.84933 0
M  V30 16391 C 1490.03 0.640469 -1.83335 0
M  V30 16392 O 1489.3 1.47158 -1.2718 0
M  V30 16393 C 1489.58 -1.36876 -3.33072 0
M  V30 16394 C 1489.44 -2.90769 -3.43181 0
M  V30 16395 C 1490.76 -1.00294 -4.2852 0
M  V30 16396 H 1487.87 -0.30382 -0.671463 0
M  V30 16397 H 1490.52 -1.35622 -1.33066 0
M  V30 16398 H 1488.67 -0.923134 -3.77373 0
M  V30 16399 H 1490.34 -3.43784 -3.07588 0
M  V30 16400 H 1488.58 -3.27876 -2.84042 0
M  V30 16401 H 1489.25 -3.23381 -4.47358 0
M  V30 16402 H 1491.73 -1.38729 -3.92293 0
M  V30 16403 H 1490.6 -1.40533 -5.30605 0
M  V30 16404 H 1490.87 0.0888133 -4.42011 0
M  V30 16405 N 1489.92 1.30607 -0.882012 0
M  V30 16406 C 1490.87 2.2821 -0.344826 0
M  V30 16407 C 1491.84 1.56254 0.563361 0
M  V30 16408 O 1493.03 1.84336 0.492416 0
M  V30 16409 C 1490.17 3.42319 0.437216 0
M  V30 16410 C 1489.28 4.29098 -0.499851 0
M  V30 16411 C 1488.41 5.30366 0.297497 0
M  V30 16412 C 1487.45 6.08795 -0.63523 0
M  V30 16413 N 1486.59 7.01986 0.12661 0
M  V30 16414 H 1491.43 2.73543 -1.18229 0
M  V30 16415 H 1488.97 1.34556 -0.594392 0
M  V30 16416 H 1490.93 4.07232 0.906521 0
M  V30 16417 H 1489.56 2.98063 1.23928 0
M  V30 16418 H 1488.61 3.6452 -1.08764 0
M  V30 16419 H 1489.92 4.83787 -1.21454 0
M  V30 16420 H 1489.07 6.01013 0.828786 0
M  V30 16421 H 1487.81 4.76364 1.04542 0
M  V30 16422 H 1486.82 5.37028 -1.17817 0
M  V30 16423 H 1488.04 6.64885 -1.3822 0
M  V30 16424 H 1485.99 6.50376 0.857125 0
M  V30 16425 H 1485.91 7.5415 -0.528512 0
M  V30 16426 H 1487.17 7.76879 0.638738 0
M  V30 16427 N 1491.4 0.642663 1.43901 0
M  V30 16428 C 1492.81 0.232809 1.85243 0
M  V30 16429 C 1493.16 -1.21834 1.53789 0
M  V30 16430 O 1492.29 -1.92855 0.981625 0
M  V30 16431 C 1492.88 0.415749 3.36239 0
M  V30 16432 C 1491.44 0.0603055 3.76352 0
M  V30 16433 C 1490.59 0.723658 2.67691 0
M  V30 16434 H 1493.54 0.847052 1.34204 0
M  V30 16435 H 1493.56 -0.341903 3.78961 0
M  V30 16436 H 1493.07 1.472 3.59101 0
M  V30 16437 H 1491.18 -0.993761 3.59103 0
M  V30 16438 H 1491.29 0.478408 4.76705 0
M  V30 16439 H 1489.65 0.15787 2.5421 0
M  V30 16440 H 1490.44 1.78273 2.93383 0
M  V30 16441 N 1492.88 -1.52852 0.383918 0
M  V30 16442 C 1493.83 -2.23089 -0.470652 0
M  V30 16443 C 1494.82 -1.23278 -1.03399 0
M  V30 16444 O 1496.01 -1.48641 -0.960985 0
M  V30 16445 C 1493.14 -3.03721 -1.60025 0
M  V30 16446 C 1492.22 -4.10924 -1.04892 0
M  V30 16447 N 1492.61 -5.05312 -0.222083 0
M  V30 16448 C 1490.91 -4.25958 -1.32195 0
M  V30 16449 C 1491.61 -5.81642 0.0818929 0
M  V30 16450 N 1490.59 -5.41101 -0.520629 0
M  V30 16451 H 1494.39 -2.93421 0.167663 0
M  V30 16452 H 1491.9 -1.6125 0.192927 0
M  V30 16453 H 1493.9 -3.52572 -2.22482 0
M  V30 16454 H 1492.56 -2.34924 -2.24145 0
M  V30 16455 H 1493.57 -5.1771 0.140223 0
M  V30 16456 H 1490.25 -3.68389 -1.96457 0
M  V30 16457 H 1491.64 -6.67684 0.751481 0
M  V30 16458 N 1494.36 -0.113586 -1.5719 0
M  V30 16459 C 1495.61 0.545507 -1.94183 0
M  V30 16460 C 1495.92 1.68176 -0.998816 0
M  V30 16461 O 1497.13 2.40324 -1.26319 0
M  V30 16462 C 1495.58 1.02178 -3.45091 0
M  V30 16463 C 1495.19 -0.0857195 -4.47918 0
M  V30 16464 C 1496.94 1.65255 -3.91013 0
M  V30 16465 C 1494.84 0.406946 -5.89998 0
M  V30 16466 H 1493.77 0.20755 -0.724872 0
M  V30 16467 H 1496.42 -0.192567 -1.82487 0
M  V30 16468 H 1494.81 1.81411 -3.52003 0
M  V30 16469 H 1495.98 -0.861821 -4.52669 0
M  V30 16470 H 1494.29 -0.622816 -4.11716 0
M  V30 16471 H 1496.89 2.0322 -4.94576 0
M  V30 16472 H 1497.23 2.52888 -3.30687 0
M  V30 16473 H 1497.77 0.925727 -3.86879 0
M  V30 16474 H 1494.51 -0.433199 -6.54067 0
M  V30 16475 H 1494.03 1.14965 -5.88679 0
M  V30 16476 H 1495.71 0.869934 -6.41125 0
M  V30 16477 N 1495.84 1.56784 0.160173 0
M  V30 16478 C 1496.79 1.98199 1.21737 0
M  V30 16479 C 1497.78 0.872381 1.4521 0
M  V30 16480 O 1498.99 1.05753 1.45658 0
M  V30 16481 H 1495.36 0.630742 0.409474 0
M  V30 16482 H 1497.33 2.86295 0.841289 0
M  V30 16483 C 1496.08 2.36748 2.54648 0
M  V30 16484 H 1495.4 3.21676 2.37413 0
M  V30 16485 H 1496.84 2.69561 3.27281 0
M  V30 16486 C 1495.3 1.2151 3.14224 0
M  V30 16487 O 1495.83 0.508739 3.98465 0
M  V30 16488 N 1494.04 0.982766 2.73478 0
M  V30 16489 H 1493.59 1.55893 2.05073 0
M  V30 16490 H 1493.54 0.213589 3.13674 0
M  V30 16491 N 1497.32 -0.429099 1.51646 0
M  V30 16492 C 1498.56 -1.17784 1.64722 0
M  V30 16493 C 1498.89 -1.90998 0.367415 0
M  V30 16494 O 1498.15 -1.8463 -0.648862 0
M  V30 16495 C 1498.44 -2.2131 2.80636 0
M  V30 16496 C 1498.11 -1.65048 4.19607 0
M  V30 16497 C 1496.77 -1.49428 4.57411 0
M  V30 16498 C 1499.12 -1.23765 5.06292 0
M  V30 16499 C 1496.45 -0.910109 5.79598 0
M  V30 16500 C 1498.8 -0.667743 6.29066 0
M  V30 16501 C 1497.47 -0.498507 6.65636 0
M  V30 16502 H 1496.74 -0.431001 0.60276 0
M  V30 16503 H 1499.39 -0.46775 1.857 0
M  V30 16504 H 1497.69 -2.98388 2.53913 0
M  V30 16505 H 1499.39 -2.79079 2.87951 0
M  V30 16506 H 1495.98 -1.78185 3.89805 0
M  V30 16507 H 1500.16 -1.3465 4.77685 0
M  V30 16508 H 1495.42 -0.766825 6.06572 0
M  V30 16509 H 1499.59 -0.339377 6.95573 0
M  V30 16510 H 1497.22 -0.0437292 7.60187 0
M  V30 16511 N 1498.79 -1.41931 -0.685074 0
M  V30 16512 C 1499.73 -1.39028 -1.8096 0
M  V30 16513 C 1500.7 -0.256001 -1.60572 0
M  V30 16514 O 1501.89 -0.44459 -1.83182 0
M  V30 16515 C 1499.02 -1.17125 -3.17804 0
M  V30 16516 C 1498.06 -2.33411 -3.56961 0
M  V30 16517 S 1498.89 -3.9592 -3.60565 0
M  V30 16518 C 1500.05 -3.7634 -5.00119 0
M  V30 16519 H 1500.28 -2.34189 -1.83146 0
M  V30 16520 H 1497.82 -1.2858 -0.854778 0
M  V30 16521 H 1499.77 -1.05175 -3.96798 0
M  V30 16522 H 1498.44 -0.235668 -3.13215 0
M  V30 16523 H 1497.63 -2.13807 -4.56402 0
M  V30 16524 H 1497.23 -2.41823 -2.85303 0
M  V30 16525 H 1499.52 -3.36695 -5.87914 0
M  V30 16526 H 1500.47 -4.7542 -5.24768 0
M  V30 16527 H 1500.87 -3.09407 -4.72152 0
M  V30 16528 N 1500.27 0.920374 -1.27933 0
M  V30 16529 C 1501.23 2.0035 -1.11321 0
M  V30 16530 C 1502.23 1.60706 -0.0549132 0
M  V30 16531 O 1503.42 1.71595 -0.300134 0
M  V30 16532 C 1500.56 3.33681 -0.69782 0
M  V30 16533 H 1501.75 2.16518 -2.07509 0
M  V30 16534 H 1499.3 1.10216 -1.10825 0
M  V30 16535 H 1500.04 3.23214 0.265122 0
M  V30 16536 H 1499.82 3.63815 -1.46223 0
M  V30 16537 H 1501.31 4.13208 -0.604048 0
M  V30 16538 N 1501.75 1.10074 1.1279 0
M  V30 16539 C 1502.71 0.74967 2.16593 0
M  V30 16540 C 1503.71 -0.224046 1.59232 0
M  V30 16541 O 1504.9 -0.00137104 1.742 0
M  V30 16542 C 1502.03 0.109795 3.40723 0
M  V30 16543 H 1503.23 1.66906 2.49164 0
M  V30 16544 H 1500.78 0.900781 1.27733 0
M  V30 16545 H 1501.52 -0.820501 3.13749 0
M  V30 16546 H 1501.3 0.810517 3.83631 0
M  V30 16547 H 1502.79 -0.120198 4.17427 0
M  V30 16548 N 1503.23 -1.30138 0.888926 0
M  V30 16549 C 1504.17 -2.28023 0.356923 0
M  V30 16550 C 1505.14 -1.56551 -0.555066 0
M  V30 16551 O 1506.33 -1.84595 -0.482633 0
M  V30 16552 C 1503.47 -3.42546 -0.419056 0
M  V30 16553 C 1502.58 -4.28827 0.5226 0
M  V30 16554 C 1501.72 -5.30517 -0.269366 0
M  V30 16555 C 1500.76 -6.08449 0.667507 0
M  V30 16556 N 1499.89 -7.02043 -0.08938 0
M  V30 16557 H 1504.73 -2.72912 1.19678 0
M  V30 16558 H 1502.27 -1.34239 0.60152 0
M  V30 16559 H 1504.23 -4.07707 -0.884911 0
M  V30 16560 H 1502.86 -2.98716 -1.22346 0
M  V30 16561 H 1501.91 -3.63938 1.10695 0
M  V30 16562 H 1503.22 -4.83136 1.24018 0
M  V30 16563 H 1502.38 -6.01444 -0.796901 0
M  V30 16564 H 1501.12 -4.76911 -1.02014 0
M  V30 16565 H 1500.12 -5.36396 1.20664 0
M  V30 16566 H 1501.35 -6.64143 1.41744 0
M  V30 16567 H 1499.29 -6.50822 -0.822622 0
M  V30 16568 H 1499.21 -7.53859 0.568499 0
M  V30 16569 H 1500.48 -7.77206 -0.597529 0
M  V30 16570 N 1504.71 -0.650285 -1.43559 0
M  V30 16571 C 1505.64 0.0295939 -2.33481 0
M  V30 16572 C 1506.62 0.815017 -1.49303 0
M  V30 16573 O 1507.8 0.77708 -1.77975 0
M  V30 16574 C 1504.93 0.998683 -3.32631 0
M  V30 16575 C 1503.89 0.323577 -4.26775 0
M  V30 16576 C 1503.21 1.40391 -5.1594 0
M  V30 16577 C 1504.51 -0.782197 -5.1641 0
M  V30 16578 H 1506.21 -0.721349 -2.9058 0
M  V30 16579 H 1503.75 -0.348339 -1.39723 0
M  V30 16580 H 1505.7 1.4832 -3.94435 0
M  V30 16581 H 1504.43 1.78075 -2.73782 0
M  V30 16582 H 1503.09 -0.140467 -3.66331 0
M  V30 16583 H 1502.74 2.17734 -4.53432 0
M  V30 16584 H 1502.44 0.957462 -5.79747 0
M  V30 16585 H 1503.96 1.88985 -5.80618 0
M  V30 16586 H 1505.37 -0.379966 -5.72039 0
M  V30 16587 H 1503.77 -1.15293 -5.88921 0
M  V30 16588 H 1504.84 -1.6414 -4.56274 0
M  V30 16589 O 1506.22 1.52409 -0.534197 0
M  V30 16590 H 1506.91 1.93683 -0.0254165 0
M  V30 END ATOM
M  V30 BEGIN BOND
M  V30 END BOND
M  V30 END CTAB
M  END
$$$$
