drugbank_target|P0A094 Nitric oxide synthase oxygenase (DB02234)
 OpenBabel12092119553D

  0  0  0     0  0            999 V3000
M  V30 BEGIN CTAB
M  V30 COUNTS 5819 5903 0 0 0
M  V30 BEGIN ATOM
M  V30 1 H -0.908 1.98254 -0.117106 0
M  V30 2 N 0 1.576 0 0
M  V30 3 C 0.933 2.03868 1.02534 0
M  V30 4 C 1.911 0.928543 1.3348 0
M  V30 5 O 3.095 1.19667 1.45644 0
M  V30 6 C 0.222 2.43627 2.35294 0
M  V30 7 C -0.732 3.65373 2.2001 0
M  V30 8 S 0.101 5.13292 1.52614 0
M  V30 9 C 1.257 5.56322 2.86805 0
M  V30 10 H 1.49 2.90518 0.631377 0
M  V30 11 H -0.977 1.52953 0.210867 0
M  V30 12 H 0.981 2.67203 3.11629 0
M  V30 13 H -0.358 1.57376 2.7183 0
M  V30 14 H -1.165 3.90944 3.18086 0
M  V30 15 H -1.563 3.418 1.51819 0
M  V30 16 H 0.729 5.58782 3.83104 0
M  V30 17 H 1.672 6.56266 2.65933 0
M  V30 18 H 2.08 4.83886 2.90714 0
M  V30 19 N 1.4781 -0.272755 1.55222 0
M  V30 20 C 2.4081 -1.34136 1.91127 0
M  V30 21 C 3.3891 -1.51513 0.773168 0
M  V30 22 O 4.5741 -1.64552 1.03132 0
M  V30 23 C 1.7041 -2.70083 2.1834 0
M  V30 24 C 0.6581 -2.67437 3.34158 0
M  V30 25 C -0.0159 -4.06938 3.46851 0
M  V30 26 C 1.2841 -2.26686 4.70543 0
M  V30 27 H 2.9781 -1.04333 2.80633 0
M  V30 28 H 0.5241 -0.500454 1.35024 0
M  V30 29 H 2.4771 -3.44952 2.42046 0
M  V30 30 H 1.2011 -3.01469 1.25634 0
M  V30 31 H -0.1399 -1.95026 3.1042 0
M  V30 32 H -0.4919 -4.35547 2.51611 0
M  V30 33 H -0.7919 -4.06062 4.2472 0
M  V30 34 H 0.7321 -4.83545 3.72849 0
M  V30 35 H 2.1461 -2.91277 4.93792 0
M  V30 36 H 0.5431 -2.36971 5.5133 0
M  V30 37 H 1.6131 -1.21818 4.69349 0
M  V30 38 N 2.9562 -1.48159 -0.537278 0
M  V30 39 C 4.2032 -1.55804 -1.29349 0
M  V30 40 C 4.5312 -0.228802 -1.9315 0
M  V30 41 O 3.7862 0.780242 -1.79473 0
M  V30 42 C 4.0852 -2.63956 -2.40961 0
M  V30 43 C 3.7512 -4.0662 -1.94861 0
M  V30 44 C 2.4132 -4.45452 -1.82006 0
M  V30 45 C 4.7652 -4.96055 -1.59933 0
M  V30 46 C 2.0932 -5.71531 -1.32547 0
M  V30 47 C 4.4452 -6.22617 -1.11939 0
M  V30 48 C 3.1092 -6.60312 -0.976951 0
M  V30 49 H 2.3792 -0.570129 -0.473322 0
M  V30 50 H 5.0262 -1.81845 -0.600372 0
M  V30 51 H 3.3312 -2.31747 -3.15912 0
M  V30 52 H 5.0282 -2.67089 -2.99107 0
M  V30 53 H 1.6182 -3.75949 -2.05815 0
M  V30 54 H 5.8022 -4.66738 -1.68728 0
M  V30 55 H 1.0582 -5.99468 -1.202 0
M  V30 56 H 5.2322 -6.91318 -0.839811 0
M  V30 57 H 2.8592 -7.57895 -0.591501 0
M  V30 58 N 4.4343 0.785586 -1.36625 0
M  V30 59 C 5.3813 1.89838 -1.31264 0
M  V30 60 C 6.3513 1.65115 -0.180633 0
M  V30 61 O 7.5363 1.87222 -0.36777 0
M  V30 62 C 4.6763 3.26706 -1.11163 0
M  V30 63 C 3.7893 3.63476 -2.33472 0
M  V30 64 C 2.9243 4.89481 -2.06353 0
M  V30 65 C 1.9633 5.18941 -3.24602 0
M  V30 66 N 1.1003 6.36131 -2.97123 0
M  V30 67 H 5.9403 1.93756 -2.26413 0
M  V30 68 H 3.4773 0.947454 -1.12524 0
M  V30 69 H 5.4353 4.05639 -0.975337 0
M  V30 70 H 4.0653 3.222 -0.196674 0
M  V30 71 H 3.1173 2.79636 -2.57891 0
M  V30 72 H 4.4293 3.81193 -3.21704 0
M  V30 73 H 3.5833 5.76288 -1.89675 0
M  V30 74 H 2.3223 4.73841 -1.15437 0
M  V30 75 H 1.3273 4.30615 -3.41834 0
M  V30 76 H 2.5523 5.36498 -4.16349 0
M  V30 77 H 0.4983 6.21875 -2.08823 0
M  V30 78 H 0.4153 6.54198 -3.78894 0
M  V30 79 H 1.6833 7.2591 -2.84033 0
M  V30 80 N 5.9124 1.20967 1.01018 0
M  V30 81 C 6.8224 0.980157 2.13143 0
M  V30 82 C 7.8384 -0.0660665 1.73875 0
M  V30 83 O 9.0144 0.122821 2.01025 0
M  V30 84 C 6.0794 0.54216 3.42435 0
M  V30 85 C 5.1404 1.65999 3.95908 0
M  V30 86 C 4.3734 1.2428 5.19028 0
M  V30 87 O 4.5964 0.114196 5.70286 0
M  V30 88 O 3.5304 2.05271 5.65816 0
M  V30 89 H 7.3564 1.91913 2.35379 0
M  V30 90 H 4.9414 0.994099 1.11526 0
M  V30 91 H 6.8234 0.30744 4.20277 0
M  V30 92 H 5.4984 -0.36815 3.216 0
M  V30 93 H 4.4054 1.94906 3.19316 0
M  V30 94 H 5.7384 2.54753 4.21143 0
M  V30 95 N 7.3905 -1.2043 1.01659 0
M  V30 96 C 8.3535 -2.21433 0.591616 0
M  V30 97 C 9.3535 -1.57203 -0.338226 0
M  V30 98 O 10.5435 -1.73737 -0.126918 0
M  V30 99 C 7.6755 -3.40628 -0.136058 0
M  V30 100 H 8.8685 -2.60545 1.48514 0
M  V30 101 H 6.4215 -1.33893 0.806379 0
M  V30 102 H 7.1565 -3.07019 -1.04449 0
M  V30 103 H 6.9415 -3.88475 0.531917 0
M  V30 104 H 8.4315 -4.15475 -0.420735 0
M  V30 105 N 8.8686 -0.792821 -1.36206 0
M  V30 106 C 9.8006 -0.151469 -2.28699 0
M  V30 107 C 10.8136 0.641262 -1.49638 0
M  V30 108 O 12.0026 0.475885 -1.72039 0
M  V30 109 C 9.1026 0.808424 -3.29117 0
M  V30 110 C 8.2756 0.0650202 -4.37352 0
M  V30 111 C 7.3346 0.941358 -5.17711 0
M  V30 112 O 6.3606 0.397352 -5.67811 0
M  V30 113 N 7.5626 2.2652 -5.3448 0
M  V30 114 H 10.3276 -0.945982 -2.84379 0
M  V30 115 H 7.8886 -0.647032 -1.48409 0
M  V30 116 H 9.8806 1.3986 -3.79765 0
M  V30 117 H 8.4506 1.5038 -2.74052 0
M  V30 118 H 7.6706 -0.706255 -3.87822 0
M  V30 119 H 8.9586 -0.447847 -5.06825 0
M  V30 120 H 8.3566 2.73128 -4.95396 0
M  V30 121 H 6.9136 2.80493 -5.88359 0
M  V30 122 N 10.3467 1.47872 -0.545128 0
M  V30 123 C 11.3097 2.28337 0.198717 0
M  V30 124 C 12.3097 1.36255 0.853888 0
M  V30 125 O 13.4997 1.59003 0.711606 0
M  V30 126 C 10.6317 3.15585 1.28915 0
M  V30 127 H 11.8247 2.95567 -0.507941 0
M  V30 128 H 9.3777 1.53362 -0.301616 0
M  V30 129 H 10.1127 2.53019 2.02859 0
M  V30 130 H 9.8977 3.83337 0.824309 0
M  V30 131 H 11.3877 3.76243 1.81194 0
M  V30 132 N 11.8248 0.280983 1.55075 0
M  V30 133 C 13.0718 -0.334115 1.99725 0
M  V30 134 C 13.3998 -1.5542 1.1694 0
M  V30 135 O 12.6548 -1.94361 0.228531 0
M  V30 136 C 12.9538 -0.754656 3.49342 0
M  V30 137 C 12.6198 0.361445 4.49449 0
M  V30 138 C 11.2818 0.667893 4.76542 0
M  V30 139 C 13.6338 1.11322 5.09173 0
M  V30 140 C 10.9618 1.7296 5.60626 0
M  V30 141 C 13.3138 2.1647 5.9441 0
M  V30 142 C 11.9778 2.47742 6.19822 0
M  V30 143 H 11.2478 -0.122261 0.730844 0
M  V30 144 H 13.8948 0.395917 1.87363 0
M  V30 145 H 12.1998 -1.56446 3.5921 0
M  V30 146 H 13.8968 -1.24142 3.813 0
M  V30 147 H 10.4868 0.112481 4.28452 0
M  V30 148 H 14.6708 0.88973 4.8826 0
M  V30 149 H 9.9268 1.97684 5.78559 0
M  V30 150 H 14.1008 2.75193 6.3972 0
M  V30 151 H 11.7278 3.30145 6.84769 0
M  V30 152 N 13.3029 -1.57598 0.00835791 0
M  V30 153 C 14.5519 -1.90107 -0.673968 0
M  V30 154 C 14.8649 -0.884275 -1.7447 0
M  V30 155 O 16.0709 -1.09987 -2.48224 0
M  V30 156 C 14.5269 -3.37497 -1.24995 0
M  V30 157 C 14.1349 -4.47491 -0.2136 0
M  V30 158 C 15.8789 -3.79104 -1.90999 0
M  V30 159 C 13.7859 -5.85963 -0.80005 0
M  V30 160 H 12.7159 -0.709393 -0.255495 0
M  V30 161 H 15.3669 -1.83365 0.0702693 0
M  V30 162 H 13.7489 -3.39102 -2.04513 0
M  V30 163 H 14.9229 -4.57414 0.557596 0
M  V30 164 H 13.2379 -4.14956 0.346474 0
M  V30 165 H 15.8349 -4.79901 -2.35795 0
M  V30 166 H 16.1779 -3.1306 -2.74407 0
M  V30 167 H 16.7109 -3.79833 -1.18203 0
M  V30 168 H 13.4499 -6.555 -0.00456708 0
M  V30 169 H 12.9699 -5.79687 -1.54021 0
M  V30 170 H 14.6489 -6.33884 -1.29615 0
M  V30 171 N 14.781 0.264519 -1.55364 0
M  V30 172 C 15.691 1.34902 -1.91934 0
M  V30 173 C 16.707 1.53595 -0.817593 0
M  V30 174 O 17.883 1.67558 -1.11742 0
M  V30 175 C 14.948 2.68676 -2.19121 0
M  V30 176 C 14.009 2.58657 -3.4263 0
M  V30 177 C 13.242 3.86051 -3.68511 0
M  V30 178 O 13.465 4.87126 -2.96757 0
M  V30 179 O 12.399 3.85744 -4.62045 0
M  V30 180 H 16.225 1.06883 -2.8427 0
M  V30 181 H 13.81 0.463775 -1.42019 0
M  V30 182 H 15.692 3.47759 -2.37995 0
M  V30 183 H 14.367 2.96463 -1.29966 0
M  V30 184 H 13.274 1.7792 -3.29082 0
M  V30 185 H 14.607 2.35818 -4.32031 0
M  V30 186 N 16.2591 1.48442 0.529413 0
M  V30 187 C 17.2071 1.63452 1.65487 0
M  V30 188 C 18.2011 0.500955 1.61823 0
M  V30 189 O 19.4071 0.679695 1.66674 0
M  V30 190 H 15.7821 0.514905 0.548066 0
M  V30 191 H 17.7531 2.57975 1.49971 0
M  V30 192 C 16.5021 1.69196 3.03756 0
M  V30 193 H 15.8251 2.55784 3.07269 0
M  V30 194 H 17.2651 1.83743 3.82119 0
M  V30 195 C 15.7241 0.430765 3.34135 0
M  V30 196 O 16.2541 -0.4561 3.99102 0
M  V30 197 N 14.4601 0.302293 2.89023 0
M  V30 198 H 14.0071 1.02496 2.36331 0
M  V30 199 H 13.9651 -0.540546 3.09718 0
M  V30 200 N 17.7372 -0.778329 1.37039 0
M  V30 201 C 18.6702 -1.8984 1.26633 0
M  V30 202 C 19.6482 -1.61923 0.148197 0
M  V30 203 O 20.8322 -1.85742 0.321265 0
M  V30 204 C 17.9592 -3.24916 0.956403 0
M  V30 205 C 17.0052 -3.71752 2.09051 0
M  V30 206 S 17.8382 -3.86201 3.70957 0
M  V30 207 C 18.9942 -5.24135 3.42101 0
M  V30 208 H 19.2272 -1.98377 2.21436 0
M  V30 209 H 16.7602 -0.938738 1.22585 0
M  V30 210 H 18.7182 -4.02936 0.784409 0
M  V30 211 H 17.3792 -3.14089 0.0259713 0
M  V30 212 H 16.5722 -4.69661 1.8285 0
M  V30 213 H 16.1742 -3.00815 2.2223 0
M  V30 214 H 18.4662 -6.09086 2.96682 0
M  V30 215 H 19.4092 -5.55346 4.39314 0
M  V30 216 H 19.8172 -4.91761 2.77185 0
M  V30 217 N 19.2153 -1.21501 -1.00376 0
M  V30 218 C 20.4453 -1.05746 -1.77486 0
M  V30 219 C 20.8533 0.395655 -1.85017 0
M  V30 220 O 20.1963 1.28626 -1.31152 0
M  V30 221 C 20.2583 -1.58092 -3.22873 0
M  V30 222 C 19.9223 -3.06568 -3.38917 0
M  V30 223 C 20.9193 -4.04106 -3.271 0
M  V30 224 C 18.6043 -3.45799 -3.64319 0
M  V30 225 C 20.5983 -5.38862 -3.40451 0
M  V30 226 C 18.2853 -4.80707 -3.77311 0
M  V30 227 C 19.2833 -5.77047 -3.65384 0
M  V30 228 O 18.9713 -7.09507 -3.77961 0
M  V30 229 H 18.7033 -0.371778 -0.564586 0
M  V30 230 H 21.2573 -1.61319 -1.27143 0
M  V30 231 H 19.4873 -0.969163 -3.74358 0
M  V30 232 H 21.1763 -1.38162 -3.81662 0
M  V30 233 H 21.9423 -3.75141 -3.07399 0
M  V30 234 H 17.8213 -2.71344 -3.72684 0
M  V30 235 H 21.3653 -6.14041 -3.31058 0
M  V30 236 H 17.2623 -5.09357 -3.96517 0
M  V30 237 H 18.0303 -7.16935 -3.94901 0
M  V30 238 N 20.6934 1.19889 -1.02296 0
M  V30 239 C 21.6404 2.22901 -0.598651 0
M  V30 240 C 22.6104 1.61588 0.384521 0
M  V30 241 O 23.7954 1.88697 0.282522 0
M  V30 242 C 20.9354 3.45063 0.0504476 0
M  V30 243 C 20.0484 4.20783 -0.978053 0
M  V30 244 C 19.1834 5.30356 -0.299338 0
M  V30 245 C 18.2224 5.97826 -1.31416 0
M  V30 246 N 17.3594 6.98975 -0.661667 0
M  V30 247 H 22.1994 2.58554 -1.48169 0
M  V30 248 H 19.7364 1.27039 -0.741584 0
M  V30 249 H 21.6944 4.14831 0.443971 0
M  V30 250 H 20.3244 3.10084 0.897097 0
M  V30 251 H 19.3764 3.50018 -1.48969 0
M  V30 252 H 20.6884 4.67109 -1.74958 0
M  V30 253 H 19.8424 6.06516 0.149347 0
M  V30 254 H 18.5814 4.85084 0.504445 0
M  V30 255 H 17.5864 5.20422 -1.77317 0
M  V30 256 H 18.8114 6.45183 -2.11933 0
M  V30 257 H 16.7574 6.55886 0.122132 0
M  V30 258 H 16.6744 7.43461 -1.37117 0
M  V30 259 H 17.9424 7.7914 -0.236785 0
M  V30 260 N 22.1715 0.800033 1.35784 0
M  V30 261 C 23.0815 0.207204 2.33683 0
M  V30 262 C 24.0975 -0.64631 1.61551 0
M  V30 263 O 25.2735 -0.559604 1.93469 0
M  V30 264 C 22.3385 -0.639659 3.40748 0
M  V30 265 C 21.3995 0.233585 4.28664 0
M  V30 266 C 20.6325 -0.572954 5.30616 0
M  V30 267 O 20.8555 -1.80816 5.40982 0
M  V30 268 O 19.7895 0.0327285 6.01891 0
M  V30 269 H 23.6155 1.01692 2.86169 0
M  V30 270 H 21.2005 0.561691 1.38439 0
M  V30 271 H 23.0825 -1.12223 4.06182 0
M  V30 272 H 21.7575 -1.42708 2.90544 0
M  V30 273 H 20.6645 0.763147 3.66233 0
M  V30 274 H 21.9975 0.984784 4.82248 0
M  V30 275 N 23.6496 -1.47581 0.552962 0
M  V30 276 C 24.8896 -2.04379 0.0296245 0
M  V30 277 C 25.2536 -1.4185 -1.29393 0
M  V30 278 O 26.4546 -1.89669 -1.90471 0
M  V30 279 C 24.7256 -3.57339 -0.0661371 0
M  V30 280 S 26.2846 -4.35511 -0.536213 0
M  V30 281 H 23.1026 -0.710625 0.0230991 0
M  V30 282 H 25.7046 -1.81005 0.738734 0
M  V30 283 H 24.4086 -4.00374 0.901596 0
M  V30 284 H 23.9396 -3.85202 -0.798931 0
M  V30 285 H 25.9546 -4.6253 -1.79668 0
M  V30 286 N 25.1277 -0.289203 -1.54924 0
M  V30 287 C 26.0777 0.606939 -2.19773 0
M  V30 288 C 27.0617 1.10783 -1.16687 0
M  V30 289 O 28.2537 1.05057 -1.4245 0
M  V30 290 C 25.3827 1.78398 -2.93307 0
M  V30 291 C 24.4687 1.29961 -4.03697 0
M  V30 292 N 24.8597 0.532377 -5.0299 0
M  V30 293 C 23.1577 1.58136 -4.17024 0
M  V30 294 C 23.8587 0.275912 -5.81045 0
M  V30 295 N 22.8347 0.852365 -5.36876 0
M  V30 296 H 26.6367 0.0130779 -2.93897 0
M  V30 297 H 24.1507 -0.09341 -1.62131 0
M  V30 298 H 26.1477 2.43741 -3.38225 0
M  V30 299 H 24.8077 2.38166 -2.20697 0
M  V30 300 H 25.8187 0.17838 -5.17593 0
M  V30 301 H 22.4957 2.18738 -3.55612 0
M  V30 302 H 23.8857 -0.339502 -6.71042 0
M  V30 303 N 26.6058 1.57591 -0.0167156 0
M  V30 304 C 27.8358 1.95292 0.674149 0
M  V30 305 C 28.2438 0.891097 1.66901 0
M  V30 306 O 27.5868 -0.136908 1.83189 0
M  V30 307 C 27.6488 3.29072 1.44747 0
M  V30 308 C 27.3128 4.52879 0.612331 0
M  V30 309 C 28.3098 5.1979 -0.107126 0
M  V30 310 C 25.9948 4.99242 0.553381 0
M  V30 311 C 27.9888 6.31375 -0.874339 0
M  V30 312 C 25.6758 6.10713 -0.217546 0
M  V30 313 C 26.6738 6.76637 -0.930123 0
M  V30 314 O 26.3618 7.85969 -1.68844 0
M  V30 315 H 26.0938 0.648275 0.191615 0
M  V30 316 H 28.6478 2.05284 -0.0690148 0
M  V30 317 H 26.8778 3.15535 2.2355 0
M  V30 318 H 28.5668 3.51764 2.02526 0
M  V30 319 H 29.3328 4.84948 -0.0708392 0
M  V30 320 H 25.2118 4.47744 1.09757 0
M  V30 321 H 28.7558 6.82764 -1.43106 0
M  V30 322 H 24.6528 6.44994 -0.255593 0
M  V30 323 H 25.4208 8.02571 -1.6069 0
M  V30 324 N 28.0839 -0.256276 1.55502 0
M  V30 325 C 28.9939 -1.33882 1.92647 0
M  V30 326 C 30.0099 -1.53159 0.825727 0
M  V30 327 O 31.1859 -1.66963 1.12629 0
M  V30 328 C 28.2509 -2.6751 2.20543 0
M  V30 329 C 27.3119 -2.56836 3.43997 0
M  V30 330 C 26.5449 -3.84092 3.70553 0
M  V30 331 O 26.7679 -4.85545 2.99336 0
M  V30 332 O 25.7019 -3.83288 4.64084 0
M  V30 333 H 29.5279 -1.05374 2.84833 0
M  V30 334 H 27.1129 -0.456237 1.42263 0
M  V30 335 H 28.9949 -3.46492 2.39835 0
M  V30 336 H 27.6699 -2.9577 1.31536 0
M  V30 337 H 26.5769 -1.76172 3.30021 0
M  V30 338 H 27.9099 -2.33523 4.33275 0
M  V30 339 N 29.562 -1.4872 -0.521534 0
M  V30 340 C 30.79 -1.60843 -1.30142 0
M  V30 341 C 31.205 -0.271897 -1.86832 0
M  V30 342 O 30.562 0.739969 -1.66825 0
M  V30 343 C 30.613 -2.66155 -2.4463 0
M  V30 344 O 30.334 -3.94623 -1.90275 0
M  V30 345 C 31.835 -2.88795 -3.36322 0
M  V30 346 H 29.055 -0.542075 -0.395468 0
M  V30 347 H 31.599 -1.94609 -0.628285 0
M  V30 348 H 29.754 -2.35224 -3.07812 0
M  V30 349 H 30.168 -4.52468 -2.65279 0
M  V30 350 H 31.642 -3.66264 -4.12983 0
M  V30 351 H 32.119 -1.97934 -3.9207 0
M  V30 352 H 32.725 -3.21063 -2.78924 0
M  V30 353 N 31.0401 0.771051 -1.3745 0
M  V30 354 C 31.9721 1.89352 -1.29146 0
M  V30 355 C 32.9851 1.61477 -0.207124 0
M  V30 356 O 34.1741 1.72382 -0.463324 0
M  V30 357 C 31.2741 3.24596 -0.974195 0
M  V30 358 C 30.4471 3.80111 -2.16413 0
M  V30 359 C 29.5061 4.93832 -1.81703 0
M  V30 360 O 28.5321 5.09382 -2.54006 0
M  V30 361 N 29.7341 5.75483 -0.761573 0
M  V30 362 H 32.4991 1.96991 -2.25864 0
M  V30 363 H 30.0601 0.950191 -1.31084 0
M  V30 364 H 32.0521 3.98193 -0.722828 0
M  V30 365 H 30.6221 3.12454 -0.0955527 0
M  V30 366 H 29.8421 2.98284 -2.57721 0
M  V30 367 H 31.1301 4.13932 -2.95867 0
M  V30 368 H 30.5281 5.65469 -0.161609 0
M  V30 369 H 29.0851 6.49302 -0.570064 0
M  V30 370 N 32.5182 1.22032 0.997298 0
M  V30 371 C 33.7672 1.03637 1.73038 0
M  V30 372 C 34.0802 -0.429475 1.90827 0
M  V30 373 O 35.2862 -0.732995 2.61418 0
M  V30 374 C 33.7422 1.80582 3.11317 0
M  V30 375 C 33.3502 3.31387 3.01474 0
M  V30 376 C 35.0942 1.70621 3.88701 0
M  V30 377 C 33.0012 4.00791 4.3488 0
M  V30 378 H 31.9312 0.384179 0.648785 0
M  V30 379 H 34.5822 1.4584 1.11368 0
M  V30 380 H 32.9642 1.31175 3.73643 0
M  V30 381 H 34.1382 3.88155 2.4834 0
M  V30 382 H 32.4532 3.41976 2.37575 0
M  V30 383 H 35.0502 2.19799 4.87434 0
M  V30 384 H 35.3932 0.665823 4.10941 0
M  V30 385 H 35.9262 2.17547 3.33044 0
M  V30 386 H 32.6652 5.05064 4.1784 0
M  V30 387 H 32.1852 3.48811 4.87945 0
M  V30 388 H 33.8642 4.06139 5.03647 0
M  V30 389 N 33.9963 -1.19345 1.0293 0
M  V30 390 C 35.2453 -1.88363 0.721256 0
M  V30 391 C 35.5583 -1.80514 -0.753254 0
M  V30 392 O 36.7643 -2.44788 -1.17436 0
M  V30 393 C 35.2203 -3.37872 1.23978 0
M  V30 394 C 34.8283 -3.54278 2.74211 0
M  V30 395 C 36.5723 -4.12365 1.00775 0
M  V30 396 C 34.4793 -4.97682 3.19479 0
M  V30 397 H 33.4093 -0.705484 0.266098 0
M  V30 398 H 36.0603 -1.34928 1.24365 0
M  V30 399 H 34.4423 -3.90707 0.6453 0
M  V30 400 H 35.6163 -3.11769 3.39318 0
M  V30 401 H 33.9313 -2.93174 2.95699 0
M  V30 402 H 36.5283 -5.18119 1.32123 0
M  V30 403 H 36.8713 -4.16263 -0.0554308 0
M  V30 404 H 37.4043 -3.65668 1.56625 0
M  V30 405 H 34.1433 -4.98945 4.25128 0
M  V30 406 H 33.6633 -5.4095 2.591 0
M  V30 407 H 35.3423 -5.66337 3.12845 0
M  V30 408 N 35.4744 -0.807222 -1.35358 0
M  V30 409 C 36.4224 -0.20614 -2.31685 0
M  V30 410 C 37.4164 0.644445 -1.56663 0
M  V30 411 O 38.6224 0.537538 -1.71786 0
M  V30 412 H 34.9974 -0.0479006 -0.750473 0
M  V30 413 H 36.9684 -1.03369 -2.79924 0
M  V30 414 C 35.7174 0.630212 -3.41941 0
M  V30 415 H 35.0404 -0.0149558 -3.99797 0
M  V30 416 H 36.4804 1.01716 -4.11619 0
M  V30 417 C 34.9394 1.79601 -2.85035 0
M  V30 418 O 35.4694 2.89351 -2.78637 0
M  V30 419 N 33.6754 1.60774 -2.42074 0
M  V30 420 H 33.2224 0.715009 -2.47478 0
M  V30 421 H 33.1804 2.38933 -2.04349 0
M  V30 422 N 36.9525 1.47285 -0.560781 0
M  V30 423 C 37.8995 2.30058 0.18491 0
M  V30 424 C 38.8695 1.39281 0.904986 0
M  V30 425 O 40.0545 1.68241 0.899979 0
M  V30 426 C 37.1945 3.23317 1.20666 0
M  V30 427 C 36.3075 4.29186 0.492285 0
M  V30 428 C 35.4425 5.09592 1.49964 0
M  V30 429 C 34.4815 6.07232 0.770439 0
M  V30 430 N 33.6185 6.80584 1.72479 0
M  V30 431 H 38.4585 2.93302 -0.527048 0
M  V30 432 H 35.9955 1.44568 -0.271738 0
M  V30 433 H 37.9535 3.75811 1.81168 0
M  V30 434 H 36.5835 2.61929 1.88661 0
M  V30 435 H 35.6355 3.7972 -0.227333 0
M  V30 436 H 36.9475 4.98738 -0.0787929 0
M  V30 437 H 36.1015 5.66254 2.17809 0
M  V30 438 H 34.8405 4.3995 2.10464 0
M  V30 439 H 33.8455 5.49745 0.0780846 0
M  V30 440 H 35.0705 6.78884 0.171134 0
M  V30 441 H 33.0165 6.1367 2.3183 0
M  V30 442 H 32.9335 7.46319 1.20596 0
M  V30 443 H 34.2015 7.41818 2.39428 0
M  V30 444 N 38.4306 0.297415 1.54768 0
M  V30 445 C 39.8466 -0.0560823 1.59501 0
M  V30 446 C 40.0466 -1.52725 1.31444 0
M  V30 447 O 39.1026 -2.27947 1.08611 0
M  V30 448 C 40.4156 0.338631 2.98787 0
M  V30 449 C 41.9636 0.287097 3.11681 0
M  V30 450 C 42.4386 0.656579 4.53269 0
M  V30 451 N 43.9296 0.608977 4.59179 0
M  V30 452 C 44.6646 0.867385 5.66802 0
M  V30 453 N 44.1606 1.19157 6.82476 0
M  V30 454 N 45.9536 0.794687 5.56454 0
M  V30 455 H 38.1046 1.25624 1.71267 0
M  V30 456 H 40.3676 0.509057 0.799728 0
M  V30 457 H 40.0736 1.36263 3.2423 0
M  V30 458 H 39.9476 -0.309508 3.75928 0
M  V30 459 H 42.3346 -0.727649 2.85988 0
M  V30 460 H 42.4156 0.969809 2.36703 0
M  V30 461 H 42.0596 1.66912 4.7969 0
M  V30 462 H 41.9896 -0.0481649 5.26578 0
M  V30 463 H 44.4806 0.369198 3.76092 0
M  V30 464 H 44.7936 1.37482 7.60473 0
M  V30 465 H 43.1386 1.22958 6.84037 0
M  V30 466 H 46.3296 0.541098 4.64962 0
M  V30 467 H 46.5026 0.999445 6.40246 0
M  V30 468 N 39.9087 -1.5758 0.0250728 0
M  V30 469 C 40.8387 -2.13007 -0.956575 0
M  V30 470 C 41.8197 -1.0452 -1.342 0
M  V30 471 O 43.0047 -1.32332 -1.42133 0
M  V30 472 C 40.1347 -2.65386 -2.24026 0
M  V30 473 C 39.0887 -3.78623 -1.99571 0
M  V30 474 C 38.4147 -4.17414 -3.3417 0
M  V30 475 C 39.7147 -5.04867 -1.33814 0
M  V30 476 H 41.4087 -2.9528 -0.494991 0
M  V30 477 H 38.9547 -1.42042 -0.236651 0
M  V30 478 H 40.9077 -3.02794 -2.93076 0
M  V30 479 H 39.6317 -1.80268 -2.72343 0
M  V30 480 H 38.2907 -3.41646 -1.32941 0
M  V30 481 H 37.9387 -3.29284 -3.80238 0
M  V30 482 H 37.6387 -4.93719 -3.18615 0
M  V30 483 H 39.1627 -4.57402 -4.04495 0
M  V30 484 H 40.5767 -5.39888 -1.92857 0
M  V30 485 H 38.9737 -5.86144 -1.28669 0
M  V30 486 H 40.0437 -4.83904 -0.310561 0
M  V30 487 N 41.3868 0.248026 -1.55636 0
M  V30 488 C 42.3368 1.30994 -1.86614 0
M  V30 489 C 43.3208 1.43543 -0.726918 0
M  V30 490 O 44.5128 1.46804 -0.988818 0
M  V30 491 C 41.6418 2.6656 -2.16335 0
M  V30 492 C 40.7278 2.58019 -3.36581 0
M  V30 493 N 41.1188 2.1911 -4.55878 0
M  V30 494 C 39.4168 2.89035 -3.39669 0
M  V30 495 C 40.1178 2.21174 -5.38012 0
M  V30 496 N 39.0938 2.60632 -4.77045 0
M  V30 497 H 42.8958 0.999583 -2.76379 0
M  V30 498 H 40.4098 0.456652 -1.55848 0
M  V30 499 H 42.4068 3.43194 -2.36692 0
M  V30 500 H 41.0668 2.98463 -1.27867 0
M  V30 501 H 42.0778 1.90672 -4.81523 0
M  V30 502 H 38.7548 3.25485 -2.61469 0
M  V30 503 H 40.1448 1.9344 -6.43452 0
M  V30 504 N 42.8649 1.48995 0.513639 0
M  V30 505 C 44.1419 1.48338 1.27495 0
M  V30 506 C 44.5219 0.204065 2.10111 0
M  V30 507 O 43.8699 -0.813881 2.13514 0
M  V30 508 C 44.0799 2.75498 2.14247 0
M  V30 509 C 45.4279 3.24484 2.73852 0
M  V30 510 O 46.4519 2.76528 2.24523 0
M  V30 511 O 45.3109 4.07974 3.6362 0
M  V30 512 H 42.4049 0.593149 0.576284 0
M  V30 513 H 44.9509 1.61246 0.528948 0
M  V30 514 H 43.7229 3.60109 1.53092 0
M  V30 515 H 43.3459 2.6539 2.96064 0
M  V30 516 N 44.343 -0.763751 1.37857 0
M  V30 517 C 45.592 -1.51789 1.32827 0
M  V30 518 C 45.905 -1.95426 -0.0823719 0
M  V30 519 O 47.111 -2.70298 -0.255172 0
M  V30 520 C 45.567 -2.74133 2.33193 0
M  V30 521 C 45.175 -2.37562 3.79827 0
M  V30 522 C 46.919 -3.52054 2.37188 0
M  V30 523 C 44.826 -3.56456 4.71904 0
M  V30 524 H 43.756 -0.569896 0.493695 0
M  V30 525 H 46.407 -0.835822 1.63359 0
M  V30 526 H 44.789 -3.4427 1.9569 0
M  V30 527 H 45.963 -1.75157 4.26212 0
M  V30 528 H 44.278 -1.72798 3.78853 0
M  V30 529 H 46.875 -4.40437 3.03182 0
M  V30 530 H 47.218 -3.92486 1.38782 0
M  V30 531 H 47.751 -2.88921 2.7344 0
M  V30 532 H 44.49 -3.21099 5.71468 0
M  V30 533 H 44.01 -4.17938 4.30218 0
M  V30 534 H 45.689 -4.23168 4.89426 0
M  V30 535 N 45.8211 -1.22559 -0.990812 0
M  V30 536 C 46.7311 -1.01394 -2.11557 0
M  V30 537 C 47.7471 0.0383962 -1.73958 0
M  V30 538 O 48.9231 -0.154787 -2.00804 0
M  V30 539 C 45.9881 -0.596569 -3.41529 0
M  V30 540 C 45.0491 -1.72276 -3.93217 0
M  V30 541 C 44.2821 -1.32521 -5.16985 0
M  V30 542 O 44.5051 -0.204909 -5.70032 0
M  V30 543 O 43.4391 -2.14247 -5.62478 0
M  V30 544 H 47.2651 -1.95633 -2.32296 0
M  V30 545 H 44.8501 -1.01172 -1.0993 0
M  V30 546 H 46.7321 -0.374263 -4.19735 0
M  V30 547 H 45.4071 0.316939 -3.22145 0
M  V30 548 H 44.3141 -1.99961 -3.16174 0
M  V30 549 H 45.6471 -2.61421 -4.17037 0
M  V30 550 N 47.2992 1.18797 -1.03562 0
M  V30 551 C 48.2292 2.24472 -0.643019 0
M  V30 552 C 49.2102 1.66433 0.351283 0
M  V30 553 O 50.3952 1.92803 0.232505 0
M  V30 554 C 47.5252 3.473 4.24935e-05 0
M  V30 555 C 46.4792 4.18055 -0.917257 0
M  V30 556 C 45.8052 5.34519 -0.138941 0
M  V30 557 C 47.1052 4.72109 -2.23407 0
M  V30 558 H 48.7992 2.57566 -1.52643 0
M  V30 559 H 46.3452 1.23806 -0.735394 0
M  V30 560 H 48.2982 4.20426 0.286383 0
M  V30 561 H 47.0222 3.13424 0.918299 0
M  V30 562 H 45.6812 3.46821 -1.1879 0
M  V30 563 H 45.3292 4.96891 0.781562 0
M  V30 564 H 45.0292 5.82794 -0.750005 0
M  V30 565 H 46.5532 6.10438 0.1405 0
M  V30 566 H 47.9672 5.36955 -2.00879 0
M  V30 567 H 46.3642 5.30897 -2.79765 0
M  V30 568 H 47.4342 3.89807 -2.88407 0
M  V30 569 N 48.7773 0.814389 1.34928 0
M  V30 570 C 49.6873 0.231978 2.3345 0
M  V30 571 C 50.7033 -0.629139 1.62228 0
M  V30 572 O 51.8793 -0.539052 1.94052 0
M  V30 573 C 48.9443 -0.603482 3.41407 0
M  V30 574 C 48.0053 0.279037 4.28392 0
M  V30 575 C 47.2383 -0.516643 5.31193 0
M  V30 576 O 47.4613 -1.75068 5.4287 0
M  V30 577 O 46.3953 0.0965652 6.01823 0
M  V30 578 H 50.2213 1.04721 2.85074 0
M  V30 579 H 47.8063 0.576343 1.37836 0
M  V30 580 H 49.6883 -1.07908 4.0735 0
M  V30 581 H 48.3633 -1.39618 2.92042 0
M  V30 582 H 47.2703 0.801948 3.65403 0
M  V30 583 H 48.6033 1.03588 4.81176 0
M  V30 584 N 50.2554 -1.46986 0.568584 0
M  V30 585 C 51.5044 -2.01646 0.0465894 0
M  V30 586 C 51.8174 -1.44721 -1.31587 0
M  V30 587 O 53.0234 -1.91113 -1.92842 0
M  V30 588 C 51.4794 -3.59885 0.032752 0
M  V30 589 C 51.0874 -4.25804 1.39266 0
M  V30 590 C 52.8314 -4.22255 -0.436038 0
M  V30 591 C 50.7384 -5.76081 1.33732 0
M  V30 592 H 49.6684 -0.753876 0.013647 0
M  V30 593 H 52.3194 -1.68864 0.718131 0
M  V30 594 H 50.7014 -3.8968 -0.704669 0
M  V30 595 H 51.8754 -4.07637 2.1487 0
M  V30 596 H 50.1904 -3.7547 1.80032 0
M  V30 597 H 52.7874 -5.32394 -0.49602 0
M  V30 598 H 53.1304 -3.90212 -1.45053 0
M  V30 599 H 53.6634 -3.97033 0.246877 0
M  V30 600 H 50.4024 -6.12761 2.32817 0
M  V30 601 H 49.9224 -5.96553 0.623267 0
M  V30 602 H 51.6014 -6.38518 1.0442 0
M  V30 603 N 51.7335 -0.305618 -1.54608 0
M  V30 604 C 52.6805 0.568421 -2.23691 0
M  V30 605 C 53.6505 1.12592 -1.22116 0
M  V30 606 O 54.8355 1.16959 -1.50749 0
M  V30 607 C 51.9755 1.7322 -2.98477 0
M  V30 608 C 51.0885 1.20566 -4.14835 0
M  V30 609 C 50.2235 2.33368 -4.77193 0
M  V30 610 C 49.2625 1.7787 -5.85686 0
M  V30 611 N 48.3995 2.84263 -6.4198 0
M  V30 612 H 53.2395 -0.0272867 -2.97988 0
M  V30 613 H 50.7765 -0.0252363 -1.47078 0
M  V30 614 H 52.7345 2.41675 -3.40072 0
M  V30 615 H 51.3645 2.29947 -2.26548 0
M  V30 616 H 50.4165 0.413223 -3.78149 0
M  V30 617 H 51.7285 0.759417 -4.92985 0
M  V30 618 H 50.8825 3.09761 -5.21664 0
M  V30 619 H 49.6215 2.8132 -3.98385 0
M  V30 620 H 48.6265 0.99968 -5.40635 0
M  V30 621 H 49.8515 1.30816 -6.66381 0
M  V30 622 H 47.7975 3.31541 -5.66053 0
M  V30 623 H 47.7145 2.44149 -7.15491 0
M  V30 624 H 48.9825 3.6054 -6.91109 0
M  V30 625 N 53.2116 1.57565 -0.0334293 0
M  V30 626 C 54.1216 2.13943 0.962572 0
M  V30 627 C 55.1376 1.09276 1.35406 0
M  V30 628 O 56.3136 1.41355 1.4346 0
M  V30 629 C 53.3786 2.65887 2.22497 0
M  V30 630 C 52.4396 3.85286 1.8935 0
M  V30 631 C 51.6726 4.34743 3.09571 0
M  V30 632 O 51.8956 3.83352 4.22371 0
M  V30 633 O 50.8296 5.26538 2.91618 0
M  V30 634 H 54.6556 2.99333 0.513169 0
M  V30 635 H 52.2406 1.4822 0.18743 0
M  V30 636 H 54.1226 2.99346 2.96598 0
M  V30 637 H 52.7976 1.83578 2.6661 0
M  V30 638 H 51.7046 3.56746 1.1262 0
M  V30 639 H 53.0376 4.68771 1.5005 0
M  V30 640 N 54.6897 -0.239769 1.55765 0
M  V30 641 C 55.9177 -0.98417 1.81994 0
M  V30 642 C 56.3327 -1.7867 0.610124 0
M  V30 643 O 55.6897 -1.77571 -0.421271 0
M  V30 644 C 55.7407 -1.91635 3.06526 0
M  V30 645 O 55.4617 -1.14629 4.22838 0
M  V30 646 C 56.9627 -2.77616 3.45607 0
M  V30 647 H 54.1827 -0.28928 0.605441 0
M  V30 648 H 56.7267 -0.260499 2.02834 0
M  V30 649 H 54.8817 -2.5942 2.87715 0
M  V30 650 H 55.2957 -1.77745 4.93464 0
M  V30 651 H 56.7697 -3.38759 4.35828 0
M  V30 652 H 57.2467 -3.4909 2.6652 0
M  V30 653 H 57.8527 -2.15271 3.66795 0
M  V30 654 N 56.1678 -1.49265 -0.50573 0
M  V30 655 C 57.4158 -1.582 -1.25766 0
M  V30 656 C 57.7368 -0.268482 -1.93143 0
M  V30 657 O 57.0068 0.711833 -1.8251 0
M  V30 658 H 55.5868 -0.582873 -0.467191 0
M  V30 659 H 58.2488 -1.85865 -0.586525 0
M  V30 660 H 57.3448 -2.37563 -2.02412 0
M  V30 661 N 57.6459 0.756429 -1.3826 0
M  V30 662 C 58.8739 1.54565 -1.3754 0
M  V30 663 C 59.2889 1.88767 0.0355331 0
M  V30 664 O 58.6459 1.52572 1.0014 0
M  V30 665 C 58.6969 2.84654 -2.22833 0
M  V30 666 O 58.4179 2.51912 -3.5843 0
M  V30 667 C 59.9189 3.78807 -2.30261 0
M  V30 668 H 57.1389 0.478353 -0.470553 0
M  V30 669 H 59.6829 0.936381 -1.81803 0
M  V30 670 H 57.8379 3.41965 -1.8204 0
M  V30 671 H 58.2519 3.35325 -4.03308 0
M  V30 672 H 59.7259 4.67045 -2.94233 0
M  V30 673 H 60.2029 4.19038 -1.31545 0
M  V30 674 H 60.8089 3.2742 -2.71433 0
M  V30 675 N 59.124 1.23083 0.984299 0
M  V30 676 C 60.354 1.08556 1.75781 0
M  V30 677 C 60.762 -0.366171 1.85623 0
M  V30 678 O 60.105 -1.26524 1.33182 0
M  V30 679 C 60.167 1.63208 3.20318 0
M  V30 680 C 59.831 3.11922 3.33997 0
M  V30 681 C 60.828 4.09259 3.2063 0
M  V30 682 C 58.513 3.51552 3.58771 0
M  V30 683 C 60.507 5.4421 3.31835 0
M  V30 684 C 58.194 4.86649 3.69616 0
M  V30 685 C 59.192 5.82787 3.56157 0
M  V30 686 O 58.88 7.15431 3.66626 0
M  V30 687 H 58.612 0.380713 0.5586 0
M  V30 688 H 61.166 1.63321 1.2456 0
M  V30 689 H 59.396 1.0286 3.72769 0
M  V30 690 H 61.085 1.44216 3.79416 0
M  V30 691 H 61.851 3.79984 3.01392 0
M  V30 692 H 57.73 2.77239 3.6832 0
M  V30 693 H 61.274 6.1923 3.21247 0
M  V30 694 H 57.171 5.15601 3.88363 0
M  V30 695 H 57.939 7.23127 3.83445 0
M  V30 696 N 60.6021 -1.18246 1.0419 0
M  V30 697 C 61.8301 -1.92195 0.766072 0
M  V30 698 C 62.2451 -1.76247 -0.676933 0
M  V30 699 O 61.6021 -1.09293 -1.46155 0
M  V30 700 C 61.6531 -3.43568 1.12442 0
M  V30 701 O 61.3741 -3.59015 2.51078 0
M  V30 702 C 62.8751 -4.34613 0.873275 0
M  V30 703 H 60.0951 -0.610114 0.279288 0
M  V30 704 H 62.6391 -1.50007 1.38989 0
M  V30 705 H 60.7941 -3.8354 0.545542 0
M  V30 706 H 61.2081 -4.5273 2.64831 0
M  V30 707 H 62.6821 -5.39374 1.17385 0
M  V30 708 H 63.1591 -4.38781 -0.191909 0
M  V30 709 H 63.7651 -4.00341 1.43551 0
M  V30 710 N 62.0802 -0.821533 -1.34494 0
M  V30 711 C 63.0302 -0.214793 -2.26986 0
M  V30 712 C 64.0142 0.620125 -1.4847 0
M  V30 713 O 65.2062 0.474933 -1.70509 0
M  V30 714 C 62.3352 0.623566 -3.37589 0
M  V30 715 C 61.4212 -0.221904 -4.23519 0
M  V30 716 N 61.8122 -1.29223 -4.89014 0
M  V30 717 C 60.1102 -0.00600922 -4.46 0
M  V30 718 C 60.8112 -1.80965 -5.52835 0
M  V30 719 N 59.7872 -1.11376 -5.32068 0
M  V30 720 H 63.5892 -1.03354 -2.75128 0
M  V30 721 H 61.1032 -0.6642 -1.48196 0
M  V30 722 H 63.1002 1.0744 -4.02818 0
M  V30 723 H 61.7602 1.44049 -2.90998 0
M  V30 724 H 62.7712 -1.67502 -4.90065 0
M  V30 725 H 59.4482 0.77886 -4.10171 0
M  V30 726 H 60.8382 -2.70502 -6.15043 0
M  V30 727 N 63.5583 1.46682 -0.576371 0
M  V30 728 C 64.7863 2.06798 -0.0649635 0
M  V30 729 C 65.2013 1.42612 1.23723 0
M  V30 730 O 64.5583 0.529203 1.74659 0
M  V30 731 C 64.6093 3.6132 0.114202 0
M  V30 732 O 64.3303 4.23104 -1.13644 0
M  V30 733 C 65.8313 4.38349 0.66069 0
M  V30 734 H 63.0513 0.668778 -0.0545616 0
M  V30 735 H 65.5953 1.88404 -0.795237 0
M  V30 736 H 63.7503 3.79162 0.794673 0
M  V30 737 H 64.1643 5.15894 -0.946253 0
M  V30 738 H 65.6383 5.47081 0.73526 0
M  V30 739 H 66.1153 4.05953 1.67627 0
M  V30 740 H 66.7213 4.25297 0.0152951 0
M  V30 741 N 65.0364 0.313813 1.54444 0
M  V30 742 C 65.9464 -0.565714 2.27677 0
M  V30 743 C 66.9624 -1.13754 1.31666 0
M  V30 744 O 68.1384 -1.15959 1.64668 0
M  V30 745 C 65.2034 -1.71528 3.01296 0
M  V30 746 C 64.2644 -1.17624 4.12872 0
M  V30 747 C 63.4974 -2.27102 4.8297 0
M  V30 748 O 63.7204 -3.47256 4.52514 0
M  V30 749 O 62.6544 -1.9307 5.70094 0
M  V30 750 H 66.4804 0.0287296 3.03686 0
M  V30 751 H 64.0654 0.0798312 1.49187 0
M  V30 752 H 65.9474 -2.38476 3.4743 0
M  V30 753 H 64.6224 -2.29608 2.2817 0
M  V30 754 H 63.5294 -0.472124 3.71109 0
M  V30 755 H 64.8624 -0.640695 4.88012 0
M  V30 756 N 66.5145 -1.57545 0.0417849 0
M  V30 757 C 67.4245 -2.14451 -0.951213 0
M  V30 758 C 68.4405 -1.09992 -1.34825 0
M  V30 759 O 69.6165 -1.42114 -1.42708 0
M  V30 760 C 66.6815 -2.67063 -2.21084 0
M  V30 761 C 65.7425 -3.86284 -1.87304 0
M  V30 762 C 64.9755 -4.36378 -3.07261 0
M  V30 763 O 65.1985 -3.85587 -4.20332 0
M  V30 764 O 64.1325 -5.28077 -2.88822 0
M  V30 765 H 67.9585 -2.99601 -0.497287 0
M  V30 766 H 65.5435 -1.48317 -0.179567 0
M  V30 767 H 67.4255 -3.00914 -2.95006 0
M  V30 768 H 66.1005 -1.84989 -2.65633 0
M  V30 769 H 65.0075 -3.57338 -1.10727 0
M  V30 770 H 66.3405 -4.6956 -1.47562 0
M  V30 771 N 67.9926 0.231505 -1.5589 0
M  V30 772 C 68.9026 1.308 -1.94752 0
M  V30 773 C 69.9186 1.51826 -0.849989 0
M  V30 774 O 71.0946 1.6515 -1.15271 0
M  V30 775 C 68.1596 2.63968 -2.24771 0
M  V30 776 C 67.2206 2.51331 -3.48039 0
M  V30 777 C 66.4536 3.78148 -3.76616 0
M  V30 778 O 66.6766 4.80722 -3.07022 0
M  V30 779 O 65.6106 3.75857 -4.70123 0
M  V30 780 H 69.4366 1.0083 -2.86474 0
M  V30 781 H 67.0216 0.433547 -1.42971 0
M  V30 782 H 68.9036 3.42633 -2.45318 0
M  V30 783 H 67.5786 2.9364 -1.36225 0
M  V30 784 H 66.4856 1.709 -3.32782 0
M  V30 785 H 67.8186 2.26601 -4.36936 0
M  V30 786 N 69.4707 1.49531 0.497807 0
M  V30 787 C 70.4007 1.6935 1.60757 0
M  V30 788 C 71.3817 0.542218 1.61227 0
M  V30 789 O 72.5667 0.778417 1.77917 0
M  V30 790 C 69.6967 1.76298 2.99226 0
M  V30 791 C 68.6507 2.91248 3.13622 0
M  V30 792 C 67.9767 2.83312 4.53474 0
M  V30 793 C 69.2767 4.3214 2.93346 0
M  V30 794 H 70.9707 2.62263 1.44425 0
M  V30 795 H 68.5167 1.26208 0.693367 0
M  V30 796 H 70.4697 1.88749 3.76765 0
M  V30 797 H 69.1937 0.799871 3.16654 0
M  V30 798 H 67.8527 2.78404 2.38509 0
M  V30 799 H 67.5007 1.84902 4.67782 0
M  V30 800 H 67.2007 3.60465 4.64046 0
M  V30 801 H 68.7247 2.97775 5.33069 0
M  V30 802 H 70.1387 4.45649 3.60652 0
M  V30 803 H 68.5357 5.1054 3.15387 0
M  V30 804 H 69.6057 4.46363 1.89441 0
M  V30 805 N 70.9488 -0.749086 1.3866 0
M  V30 806 C 72.1978 -1.50371 1.3443 0
M  V30 807 C 72.5108 -1.95503 -0.0616397 0
M  V30 808 O 73.7168 -2.70554 -0.226489 0
M  V30 809 C 72.1728 -2.71644 2.36088 0
M  V30 810 C 71.7808 -2.3352 3.82325 0
M  V30 811 C 73.5248 -3.49518 2.40909 0
M  V30 812 C 71.4318 -3.51431 4.75658 0
M  V30 813 H 70.3618 -0.564628 0.499712 0
M  V30 814 H 73.0128 -0.818449 1.64237 0
M  V30 815 H 71.3948 -3.42175 1.9933 0
M  V30 816 H 72.5688 -1.70627 4.28046 0
M  V30 817 H 70.8838 -1.6877 3.80665 0
M  V30 818 H 73.4808 -4.37197 3.07836 0
M  V30 819 H 73.8238 -3.90992 1.42937 0
M  V30 820 H 74.3568 -2.86005 2.76489 0
M  V30 821 H 71.0958 -3.15019 5.74842 0
M  V30 822 H 70.6158 -4.13352 4.34627 0
M  V30 823 H 72.2948 -4.17953 4.93887 0
M  V30 824 N 72.4269 -1.23603 -0.977757 0
M  V30 825 C 73.6569 -1.09487 -1.75203 0
M  V30 826 C 74.0649 0.356321 -1.85814 0
M  V30 827 O 73.4079 1.25816 -1.33851 0
M  V30 828 C 73.4699 -1.64905 -3.19447 0
M  V30 829 C 73.1339 -3.13688 -3.32338 0
M  V30 830 C 74.1309 -4.10953 -3.18455 0
M  V30 831 C 71.8159 -3.53449 -3.56902 0
M  V30 832 C 73.8099 -5.45962 -3.28944 0
M  V30 833 C 71.4969 -4.88602 -3.6703 0
M  V30 834 C 72.4949 -5.84668 -3.53062 0
M  V30 835 O 72.1829 -7.17365 -3.62826 0
M  V30 836 H 71.9149 -0.38367 -0.556573 0
M  V30 837 H 74.4689 -1.6398 -1.23693 0
M  V30 838 H 72.6989 -1.04835 -3.72218 0
M  V30 839 H 74.3879 -1.46226 -3.78646 0
M  V30 840 H 75.1539 -3.81577 -2.99372 0
M  V30 841 H 71.0329 -2.79188 -3.66844 0
M  V30 842 H 74.5769 -6.20925 -3.17958 0
M  V30 843 H 70.4739 -5.17653 -3.85623 0
M  V30 844 H 71.2419 -7.2515 -3.79605 0
M  V30 845 N 73.905 1.17692 -1.04816 0
M  V30 846 C 75.153 1.87488 -0.754497 0
M  V30 847 C 75.474 1.81205 0.720407 0
M  V30 848 O 74.744 1.23544 1.52032 0
M  V30 849 H 73.324 0.694101 -0.276102 0
M  V30 850 H 75.986 1.42793 -1.32651 0
M  V30 851 H 75.082 2.93328 -1.06606 0
M  V30 852 N 75.3831 0.828654 1.34056 0
M  V30 853 C 76.3461 0.259927 2.27721 0
M  V30 854 C 77.3461 -0.565478 1.50529 0
M  V30 855 O 78.5361 -0.38075 1.69988 0
M  V30 856 C 75.6681 -0.634944 3.34935 0
M  V30 857 H 76.8611 1.0863 2.79534 0
M  V30 858 H 74.4141 0.600951 1.44285 0
M  V30 859 H 75.1491 -1.48416 2.88346 0
M  V30 860 H 74.9341 -0.0444999 3.92075 0
M  V30 861 H 76.4241 -1.02648 4.04788 0
M  V30 862 N 76.8612 -1.46375 0.584142 0
M  V30 863 C 77.8082 -2.30323 -0.148286 0
M  V30 864 C 78.7782 -1.40703 -0.882713 0
M  V30 865 O 79.9632 -1.69651 -0.873099 0
M  V30 866 C 77.1032 -3.25196 -1.15507 0
M  V30 867 C 76.2162 -4.29915 -0.423943 0
M  V30 868 C 75.3512 -5.11914 -1.41838 0
M  V30 869 C 74.3902 -6.08381 -0.673736 0
M  V30 870 N 73.5272 -6.83242 -1.6163 0
M  V30 871 H 78.3672 -2.92427 0.573644 0
M  V30 872 H 75.9042 -1.44118 0.294703 0
M  V30 873 H 77.8622 -3.78646 -1.75166 0
M  V30 874 H 76.4922 -2.64898 -1.8447 0
M  V30 875 H 75.5442 -3.7931 0.287714 0
M  V30 876 H 76.8562 -4.98549 0.158128 0
M  V30 877 H 76.0102 -5.69648 -2.08773 0
M  V30 878 H 74.7492 -4.43243 -2.03438 0
M  V30 879 H 73.7542 -5.49799 0.00938483 0
M  V30 880 H 74.9792 -6.79071 -0.0631082 0
M  V30 881 H 72.9252 -6.1728 -2.22038 0
M  V30 882 H 72.8422 -7.48144 -1.08707 0
M  V30 883 H 74.1102 -7.45534 -2.27596 0
M  V30 884 N 78.3393 -0.321999 -1.54275 0
M  V30 885 C 79.2723 0.58718 -2.20516 0
M  V30 886 C 80.2503 1.11693 -1.18167 0
M  V30 887 O 81.4343 1.18122 -1.46899 0
M  V30 888 C 78.5613 1.80554 -2.86562 0
M  V30 889 C 77.6073 1.40718 -4.02617 0
M  V30 890 S 78.4403 0.445218 -5.33646 0
M  V30 891 C 79.5963 1.6709 -6.03185 0
M  V30 892 H 79.8293 0.0244875 -2.9729 0
M  V30 893 H 77.3623 -0.106087 -1.54035 0
M  V30 894 H 79.3203 2.50462 -3.25237 0
M  V30 895 H 77.9813 2.33942 -2.09595 0
M  V30 896 H 77.1743 2.31501 -4.47687 0
M  V30 897 H 76.7763 0.78782 -3.65608 0
M  V30 898 H 79.0683 2.60856 -6.25268 0
M  V30 899 H 80.0113 1.26239 -6.96756 0
M  V30 900 H 80.4193 1.85716 -5.33076 0
M  V30 901 N 79.8174 1.5752 -0.0501392 0
M  V30 902 C 80.7804 2.1037 0.909786 0
M  V30 903 C 81.7804 1.02308 1.24056 0
M  V30 904 O 82.9704 1.28385 1.17741 0
M  V30 905 C 80.1024 2.58708 2.21998 0
M  V30 906 H 81.2954 2.96479 0.451665 0
M  V30 907 H 78.8484 1.55038 0.198248 0
M  V30 908 H 79.5834 1.75989 2.72394 0
M  V30 909 H 79.3684 3.37675 1.99295 0
M  V30 910 H 80.8584 2.99747 2.9076 0
M  V30 911 N 81.2955 -0.223234 1.56011 0
M  V30 912 C 82.5415 -0.944891 1.8012 0
M  V30 913 C 82.8965 -1.82039 0.622862 0
M  V30 914 O 82.1895 -1.8773 -0.383143 0
M  V30 915 C 82.3835 -1.81948 3.0762 0
M  V30 916 C 82.2125 -1.03014 4.37742 0
M  V30 917 C 80.9825 -0.72574 5.00061 0
M  V30 918 C 83.1805 -0.396256 5.12771 0
M  V30 919 N 81.1625 0.0851816 6.13841 0
M  V30 920 C 82.5335 0.278137 6.19376 0
M  V30 921 C 84.5885 -0.309117 4.9694 0
M  V30 922 C 83.2915 1.03133 7.11868 0
M  V30 923 C 85.3175 0.430607 5.8983 0
M  V30 924 C 84.6795 1.09355 6.9586 0
M  V30 925 H 80.7785 -0.326081 0.710771 0
M  V30 926 H 83.3625 -0.215914 1.93499 0
M  V30 927 H 81.5335 -2.52029 2.95527 0
M  V30 928 H 83.2655 -2.47848 3.19927 0
M  V30 929 H 80.0205 -1.04335 4.61964 0
M  V30 930 H 80.4445 0.479428 6.753 0
M  V30 931 H 85.0865 -0.807313 4.15021 0
M  V30 932 H 82.8045 1.54105 7.9327 0
M  V30 933 H 86.3905 0.499012 5.79656 0
M  V30 934 H 85.2705 1.65679 7.66499 0
M  V30 935 N 82.7736 -1.49793 -0.48987 0
M  V30 936 C 84.1896 -1.36803 -0.822022 0
M  V30 937 C 84.3896 -0.409652 -1.97292 0
M  V30 938 O 83.4456 0.154614 -2.52026 0
M  V30 939 C 84.7586 -2.77768 -1.15175 0
M  V30 940 C 86.3066 -2.86549 -1.25931 0
M  V30 941 C 86.7816 -4.28306 -1.62228 0
M  V30 942 N 88.2726 -4.31169 -1.69256 0
M  V30 943 C 89.0076 -5.37832 -1.98807 0
M  V30 944 N 88.5036 -6.54726 -2.26507 0
M  V30 945 N 90.2966 -5.25258 -2.00152 0
M  V30 946 H 82.4476 -2.10691 0.268881 0
M  V30 947 H 84.7106 -0.946241 0.057728 0
M  V30 948 H 84.4166 -3.49648 -0.379335 0
M  V30 949 H 84.2906 -3.13836 -2.09253 0
M  V30 950 H 86.6776 -2.14899 -2.02243 0
M  V30 951 H 86.7586 -2.54049 -0.298776 0
M  V30 952 H 86.4026 -5.00486 -0.864622 0
M  V30 953 H 86.3326 -4.58279 -2.594 0
M  V30 954 H 88.8236 -3.4687 -1.49965 0
M  V30 955 H 89.1366 -7.31833 -2.48276 0
M  V30 956 H 87.4816 -6.57933 -2.23939 0
M  V30 957 H 90.6726 -4.32938 -1.77996 0
M  V30 958 H 90.8456 -6.08476 -2.22848 0
M  V30 959 N 84.2517 0.741722 -1.39055 0
M  V30 960 C 85.1997 1.87702 -1.3737 0
M  V30 961 C 86.1937 1.67427 -0.257812 0
M  V30 962 O 87.3997 1.7485 -0.427489 0
M  V30 963 H 83.7747 0.617757 -0.428812 0
M  V30 964 H 85.7457 1.86239 -2.33147 0
M  V30 965 C 84.4947 3.25315 -1.22741 0
M  V30 966 H 83.8177 3.41509 -2.07873 0
M  V30 967 H 85.2577 4.04964 -1.25618 0
M  V30 968 C 83.7167 3.36838 0.0647316 0
M  V30 969 O 84.2467 3.88073 1.03741 0
M  V30 970 N 82.4527 2.90329 0.125544 0
M  V30 971 H 81.9997 2.48823 -0.666682 0
M  V30 972 H 81.9577 2.98418 0.989639 0
M  V30 973 N 85.7298 1.2412 0.971189 0
M  V30 974 C 86.9548 1.10667 1.75407 0
M  V30 975 C 87.3798 -0.337048 1.85056 0
M  V30 976 O 86.7378 -1.24396 1.31892 0
M  V30 977 C 86.7858 1.74726 3.15441 0
M  V30 978 O 85.8898 1.01566 3.99697 0
M  V30 979 H 85.2308 0.387341 0.539317 0
M  V30 980 H 87.7608 1.64358 1.2185 0
M  V30 981 H 87.7708 1.80341 3.6598 0
M  V30 982 H 86.4458 2.79773 3.07734 0
M  V30 983 H 85.0228 1.03713 3.58187 0
M  V30 984 N 87.2079 -1.17134 1.05439 0
M  V30 985 C 88.1559 -2.23289 0.651511 0
M  V30 986 C 89.1499 -1.66186 -0.328411 0
M  V30 987 O 90.3559 -1.78949 -0.194206 0
M  V30 988 H 86.7309 -0.726938 0.192523 0
M  V30 989 H 88.7019 -2.54565 1.55689 0
M  V30 990 C 87.4509 -3.47671 0.0448436 0
M  V30 991 H 86.7739 -3.91918 0.78996 0
M  V30 992 H 88.2139 -4.2353 -0.19964 0
M  V30 993 C 86.6729 -3.14453 -1.20918 0
M  V30 994 O 87.2029 -3.29459 -2.29825 0
M  V30 995 N 85.4089 -2.68657 -1.10779 0
M  V30 996 H 84.9559 -2.56646 -0.221526 0
M  V30 997 H 84.9139 -2.46804 -1.9477 0
M  V30 998 N 88.686 -0.835752 -1.33615 0
M  V30 999 C 90.102 -0.523139 -1.50783 0
M  V30 1000 C 90.302 0.950171 -1.77691 0
M  V30 1001 O 89.358 1.73411 -1.83534 0
M  V30 1002 C 90.671 -1.39378 -2.66448 0
M  V30 1003 C 92.219 -1.39223 -2.80332 0
M  V30 1004 C 92.694 -2.24765 -3.99055 0
M  V30 1005 N 94.185 -2.22458 -4.06284 0
M  V30 1006 C 94.92 -2.85386 -4.97336 0
M  V30 1007 N 94.416 -3.57354 -5.93523 0
M  V30 1008 N 96.209 -2.74872 -4.90308 0
M  V30 1009 H 88.36 -1.78952 -1.14411 0
M  V30 1010 H 90.623 -0.763297 -0.562212 0
M  V30 1011 H 90.329 -2.44061 -2.53234 0
M  V30 1012 H 90.203 -1.0676 -3.61776 0
M  V30 1013 H 92.59 -0.353136 -2.92979 0
M  V30 1014 H 92.671 -1.75846 -1.85773 0
M  V30 1015 H 92.315 -3.28732 -3.87167 0
M  V30 1016 H 92.245 -1.85485 -4.92852 0
M  V30 1017 H 94.736 -1.70119 -3.37443 0
M  V30 1018 H 95.049 -4.02584 -6.59656 0
M  V30 1019 H 93.394 -3.61461 -5.93608 0
M  V30 1020 H 96.585 -2.18213 -4.14126 0
M  V30 1021 H 96.758 -3.24199 -5.61069 0
M  V30 1022 N 90.1641 1.46063 -0.591896 0
M  V30 1023 C 91.4041 2.04228 -0.0838014 0
M  V30 1024 C 91.7681 1.45231 1.25587 0
M  V30 1025 O 92.9691 1.94653 1.85375 0
M  V30 1026 C 91.2401 3.57389 -0.0286282 0
M  V30 1027 S 92.7991 4.3678 0.420557 0
M  V30 1028 H 89.6171 0.709762 -0.0419319 0
M  V30 1029 H 92.2191 1.78983 -0.786465 0
M  V30 1030 H 90.9231 3.97843 -1.00743 0
M  V30 1031 H 90.4541 3.87185 0.69652 0
M  V30 1032 H 92.4691 4.67131 1.67341 0
M  V30 1033 N 91.6422 0.330177 1.54103 0
M  V30 1034 C 92.8912 -0.271336 1.99867 0
M  V30 1035 C 93.2042 -1.52723 1.22209 0
M  V30 1036 O 94.4102 -2.20515 1.58383 0
M  V30 1037 C 92.8662 -0.534032 3.55916 0
M  V30 1038 C 92.4742 0.705193 4.42415 0
M  V30 1039 C 94.2182 -1.09514 4.1013 0
M  V30 1040 C 92.1252 0.414035 5.89949 0
M  V30 1041 H 91.0552 -0.105166 0.74663 0
M  V30 1042 H 93.7062 0.443429 1.78062 0
M  V30 1043 H 92.0882 -1.30915 3.73734 0
M  V30 1044 H 93.2622 1.4804 4.36372 0
M  V30 1045 H 91.5772 1.18698 3.99124 0
M  V30 1046 H 94.1742 -1.3277 5.17954 0
M  V30 1047 H 94.5172 -2.04656 3.62521 0
M  V30 1048 H 95.0502 -0.381038 3.95971 0
M  V30 1049 H 91.7892 1.33481 6.41766 0
M  V30 1050 H 91.3092 -0.323336 5.98928 0
M  V30 1051 H 92.9882 0.0263105 6.46995 0
M  V30 1052 N 93.1203 -1.57491 0.0584922 0
M  V30 1053 C 94.3683 -1.92597 -0.612436 0
M  V30 1054 C 94.6893 -0.938162 -1.70949 0
M  V30 1055 O 93.9593 0.0158301 -1.95894 0
M  V30 1056 H 92.5393 -0.710964 -0.229214 0
M  V30 1057 H 95.2013 -1.94571 0.113218 0
M  V30 1058 H 94.2973 -2.94038 -1.04633 0
M  V30 1059 N 94.5984 0.214957 -1.56127 0
M  V30 1060 C 96.0144 0.564948 -1.49267 0
M  V30 1061 C 96.2144 1.86827 -0.754838 0
M  V30 1062 O 95.2704 2.50745 -0.297198 0
M  V30 1063 C 96.5834 0.638071 -2.93852 0
M  V30 1064 C 98.1314 0.728253 -3.0441 0
M  V30 1065 C 98.6064 0.832663 -4.50367 0
M  V30 1066 N 100.097 0.896712 -4.54437 0
M  V30 1067 C 100.832 0.997324 -5.6466 0
M  V30 1068 N 100.328 1.06147 -6.8462 0
M  V30 1069 N 102.121 1.03297 -5.52527 0
M  V30 1070 H 94.2724 -0.640211 -2.02522 0
M  V30 1071 H 96.5354 -0.225507 -0.920788 0
M  V30 1072 H 96.2414 -0.250126 -3.50809 0
M  V30 1073 H 96.1154 1.49947 -3.46115 0
M  V30 1074 H 98.5024 1.60689 -2.47514 0
M  V30 1075 H 98.5834 -0.158952 -2.55306 0
M  V30 1076 H 98.2274 -0.0415417 -5.07883 0
M  V30 1077 H 98.1574 1.73538 -4.97184 0
M  V30 1078 H 100.648 0.857188 -3.6805 0
M  V30 1079 H 100.961 1.1382 -7.64372 0
M  V30 1080 H 99.3064 1.03049 -6.87318 0
M  V30 1081 H 102.497 0.979558 -4.57736 0
M  V30 1082 H 102.67 1.10793 -6.38458 0
M  V30 1083 N 96.0765 1.50051 0.48192 0
M  V30 1084 C 97.0065 1.71046 1.58951 0
M  V30 1085 C 97.9875 0.559288 1.60642 0
M  V30 1086 O 99.1725 0.797243 1.77081 0
M  V30 1087 C 96.3025 1.79462 2.97339 0
M  V30 1088 C 95.2565 2.94558 3.10515 0
M  V30 1089 C 94.5825 2.88105 4.50444 0
M  V30 1090 C 95.8825 4.35227 2.88747 0
M  V30 1091 H 97.5765 2.6378 1.41635 0
M  V30 1092 H 95.1225 1.26936 0.679942 0
M  V30 1093 H 97.0755 1.92734 3.74742 0
M  V30 1094 H 95.7995 0.833412 3.15788 0
M  V30 1095 H 94.4585 2.80918 2.35543 0
M  V30 1096 H 94.1065 1.89853 4.65795 0
M  V30 1097 H 93.8065 3.65366 4.60197 0
M  V30 1098 H 95.3305 3.03412 5.29881 0
M  V30 1099 H 96.7445 4.49449 3.55905 0
M  V30 1100 H 95.1415 5.13856 3.09955 0
M  V30 1101 H 96.2115 4.48347 1.84696 0
M  V30 1102 N 97.5546 -0.734337 1.39446 0
M  V30 1103 C 98.8016 -1.49391 1.36706 0
M  V30 1104 C 99.1296 -1.94465 -0.0367813 0
M  V30 1105 O 98.3846 -1.67154 -1.01774 0
M  V30 1106 C 98.6836 -2.74711 2.28623 0
M  V30 1107 C 98.3496 -2.48501 3.76242 0
M  V30 1108 C 97.0116 -2.41062 4.16464 0
M  V30 1109 C 99.3636 -2.26098 4.69606 0
M  V30 1110 C 96.6916 -2.09262 5.48112 0
M  V30 1111 C 99.0436 -1.95814 6.01531 0
M  V30 1112 C 97.7076 -1.86845 6.40816 0
M  V30 1113 H 96.9776 -0.546661 0.500243 0
M  V30 1114 H 99.6246 -0.842788 1.71957 0
M  V30 1115 H 97.9296 -3.44569 1.86492 0
M  V30 1116 H 99.6266 -3.32741 2.23796 0
M  V30 1117 H 96.2166 -2.55169 3.44364 0
M  V30 1118 H 100.401 -2.30812 4.39363 0
M  V30 1119 H 95.6566 -2.00841 5.77471 0
M  V30 1120 H 99.8306 -1.77488 6.73403 0
M  V30 1121 H 97.4576 -1.6197 7.42745 0
M  V30 1122 N 99.0327 -1.24633 -0.964593 0
M  V30 1123 C 100.279 -1.09957 -1.71117 0
M  V30 1124 C 100.634 0.357422 -1.89051 0
M  V30 1125 O 99.9267 1.26029 -1.44317 0
M  V30 1126 C 100.121 -1.7763 -3.10133 0
M  V30 1127 C 99.9497 -3.29759 -3.05759 0
M  V30 1128 C 98.7197 -3.98981 -3.10068 0
M  V30 1129 C 100.918 -4.26305 -2.87695 0
M  V30 1130 N 98.8997 -5.37966 -2.95747 0
M  V30 1131 C 100.271 -5.52308 -2.81702 0
M  V30 1132 C 102.326 -4.16842 -2.72299 0
M  V30 1133 C 101.029 -6.69931 -2.61887 0
M  V30 1134 C 103.055 -5.34147 -2.53853 0
M  V30 1135 C 102.417 -6.59084 -2.48572 0
M  V30 1136 H 98.5157 -0.457003 -0.634564 0
M  V30 1137 H 101.1 -1.57592 -1.14337 0
M  V30 1138 H 99.2707 -1.32504 -3.65099 0
M  V30 1139 H 101.003 -1.55786 -3.73514 0
M  V30 1140 H 97.7577 -3.50169 -3.18871 0
M  V30 1141 H 98.1817 -6.10877 -2.91818 0
M  V30 1142 H 102.824 -3.21007 -2.75163 0
M  V30 1143 H 100.542 -7.65886 -2.57767 0
M  V30 1144 H 104.128 -5.28678 -2.4288 0
M  V30 1145 H 103.008 -7.48324 -2.34481 0
M  V30 1146 N 100.511 1.16574 -1.06058 0
M  V30 1147 C 101.788 1.83048 -0.689416 0
M  V30 1148 C 102.168 1.94122 0.829443 0
M  V30 1149 O 101.516 1.48249 1.7388 0
M  V30 1150 C 101.726 3.20186 -1.38859 0
M  V30 1151 C 103.074 3.95989 -1.53226 0
M  V30 1152 O 104.098 3.29696 -1.3483 0
M  V30 1153 O 102.957 5.14813 -1.83384 0
M  V30 1154 H 100.051 0.790258 -0.243764 0
M  V30 1155 H 102.597 1.23797 -1.16071 0
M  V30 1156 H 101.369 3.07146 -2.4244 0
M  V30 1157 H 100.992 3.87112 -0.907216 0
M  V30 1158 N 101.989 0.842826 1.3317 0
M  V30 1159 C 103.214 0.453129 2.02389 0
M  V30 1160 C 103.639 -0.939105 1.6298 0
M  V30 1161 O 102.997 -1.61472 0.8244 0
M  V30 1162 C 103.045 0.586094 3.55805 0
M  V30 1163 O 102.149 -0.386029 4.10589 0
M  V30 1164 H 101.49 0.183664 0.638094 0
M  V30 1165 H 104.02 1.13875 1.69981 0
M  V30 1166 H 104.03 0.469209 4.05293 0
M  V30 1167 H 102.705 1.6014 3.83833 0
M  V30 1168 H 101.282 -0.226371 3.72212 0
M  V30 1169 N 103.467 -1.45747 0.599634 0
M  V30 1170 C 104.397 -2.33235 -0.111306 0
M  V30 1171 C 105.378 -1.46359 -0.866781 0
M  V30 1172 O 106.563 -1.75146 -0.838904 0
M  V30 1173 C 103.693 -3.28932 -1.11451 0
M  V30 1174 C 102.647 -4.25381 -0.472772 0
M  V30 1175 C 101.973 -5.1071 -1.58365 0
M  V30 1176 C 103.273 -5.18831 0.600948 0
M  V30 1177 H 104.967 -2.92927 0.61919 0
M  V30 1178 H 102.513 -1.40857 0.299215 0
M  V30 1179 H 104.466 -3.89002 -1.62036 0
M  V30 1180 H 103.19 -2.67381 -1.8755 0
M  V30 1181 H 101.849 -3.66598 0.0121472 0
M  V30 1182 H 101.497 -4.45533 -2.33473 0
M  V30 1183 H 101.197 -5.7604 -1.15982 0
M  V30 1184 H 102.721 -5.73647 -2.09194 0
M  V30 1185 H 104.135 -5.73019 0.179491 0
M  V30 1186 H 102.532 -5.92595 0.946076 0
M  V30 1187 H 103.602 -4.6174 1.48068 0
M  V30 1188 N 104.945 -0.338344 -1.53925 0
M  V30 1189 C 105.893 0.536231 -2.26335 0
M  V30 1190 C 106.887 1.1063 -1.28286 0
M  V30 1191 O 108.093 1.05264 -1.46012 0
M  V30 1192 H 104.468 0.191602 -0.727181 0
M  V30 1193 H 106.439 -0.0965747 -2.98244 0
M  V30 1194 C 105.188 1.67803 -3.04528 0
M  V30 1195 H 104.511 1.24864 -3.79801 0
M  V30 1196 H 105.951 2.26526 -3.58416 0
M  V30 1197 C 104.41 2.60439 -2.13712 0
M  V30 1198 O 104.94 3.6255 -1.72975 0
M  V30 1199 N 103.146 2.29006 -1.78898 0
M  V30 1200 H 102.693 1.46011 -2.12223 0
M  V30 1201 H 102.651 2.91248 -1.18416 0
M  V30 1202 N 106.423 1.57458 -0.0668435 0
M  V30 1203 C 107.669 1.93587 0.6043 0
M  V30 1204 C 108.002 0.946722 1.69561 0
M  V30 1205 O 107.277 -0.0248516 1.94484 0
M  V30 1206 C 107.56 3.40014 1.18585 0
M  V30 1207 C 107.413 4.49685 0.101529 0
M  V30 1208 C 108.732 3.87154 2.09284 0
M  V30 1209 H 105.851 0.703958 0.218202 0
M  V30 1210 H 108.493 1.89542 -0.131804 0
M  V30 1211 H 106.643 3.43592 1.81319 0
M  V30 1212 H 108.315 4.5823 -0.531279 0
M  V30 1213 H 106.558 4.30059 -0.568487 0
M  V30 1214 H 107.229 5.49266 0.54874 0
M  V30 1215 H 109.705 3.85551 1.56491 0
M  V30 1216 H 108.581 4.90231 2.46911 0
M  V30 1217 H 108.842 3.2481 2.99918 0
M  V30 1218 N 107.901 -0.206675 1.56239 0
M  V30 1219 C 109.15 -0.926964 1.79138 0
M  V30 1220 C 109.463 -1.84901 0.638043 0
M  V30 1221 O 110.669 -2.60906 0.751033 0
M  V30 1222 C 109.125 -1.6986 3.17294 0
M  V30 1223 C 108.733 -0.821956 4.40395 0
M  V30 1224 C 110.477 -2.40922 3.4951 0
M  V30 1225 C 108.384 -1.59179 5.69575 0
M  V30 1226 H 107.314 -0.349864 0.667915 0
M  V30 1227 H 109.965 -0.180487 1.8261 0
M  V30 1228 H 108.347 -2.48853 3.08039 0
M  V30 1229 H 109.521 -0.0715019 4.60745 0
M  V30 1230 H 107.836 -0.222741 4.15804 0
M  V30 1231 H 110.433 -2.99047 4.43255 0
M  V30 1232 H 110.776 -3.14542 2.72707 0
M  V30 1233 H 111.309 -1.68905 3.60161 0
M  V30 1234 H 108.048 -0.898589 6.49312 0
M  V30 1235 H 107.568 -2.31648 5.53262 0
M  V30 1236 H 109.247 -2.14862 6.10281 0
M  V30 1237 N 109.379 -1.50304 -0.473955 0
M  V30 1238 C 110.656 -1.51667 -1.23518 0
M  V30 1239 C 111.036 -0.259701 -2.09496 0
M  V30 1240 O 110.384 0.756986 -2.15597 0
M  V30 1241 C 110.594 -2.81082 -2.06868 0
M  V30 1242 C 111.942 -3.31631 -2.65153 0
M  V30 1243 O 112.966 -2.82384 -2.17113 0
M  V30 1244 O 111.825 -4.17471 -3.52675 0
M  V30 1245 H 108.919 -0.60822 -0.560355 0
M  V30 1246 H 111.465 -1.62592 -0.486011 0
M  V30 1247 H 110.237 -3.64041 -1.4349 0
M  V30 1248 H 109.86 -2.73146 -2.88924 0
M  V30 1249 N 110.857 0.726932 -1.39834 0
M  V30 1250 C 111.82 1.82269 -1.38962 0
M  V30 1251 C 112.82 1.58248 -0.285334 0
M  V30 1252 O 114.01 1.65499 -0.54366 0
M  V30 1253 C 111.142 3.20186 -1.17019 0
M  V30 1254 H 112.335 1.84443 -2.36476 0
M  V30 1255 H 109.888 0.931416 -1.25516 0
M  V30 1256 H 110.623 3.23669 -0.202204 0
M  V30 1257 H 110.408 3.3902 -1.96998 0
M  V30 1258 H 111.898 4.00235 -1.1917 0
M  V30 1259 N 112.336 1.25143 0.95797 0
M  V30 1260 C 113.752 1.01892 1.22842 0
M  V30 1261 C 113.952 -0.266311 1.99732 0
M  V30 1262 O 113.008 -0.979913 2.3271 0
M  V30 1263 C 114.321 2.24004 2.00606 0
M  V30 1264 C 115.869 2.28731 2.13662 0
M  V30 1265 C 116.344 3.5049 2.94823 0
M  V30 1266 N 117.835 3.50866 3.02403 0
M  V30 1267 C 118.57 4.4174 3.65586 0
M  V30 1268 N 118.066 5.42882 4.30408 0
M  V30 1269 N 119.859 4.29429 3.62694 0
M  V30 1270 H 112.01 2.07718 0.443493 0
M  V30 1271 H 114.273 0.912031 0.258657 0
M  V30 1272 H 113.979 3.17395 1.51503 0
M  V30 1273 H 113.853 2.26907 3.01319 0
M  V30 1274 H 116.24 1.35865 2.61963 0
M  V30 1275 H 116.321 2.29848 1.12265 0
M  V30 1276 H 115.965 4.43676 2.47213 0
M  V30 1277 H 115.895 3.46617 3.96439 0
M  V30 1278 H 118.386 2.777 2.56302 0
M  V30 1279 H 118.699 6.0844 4.76467 0
M  V30 1280 H 117.044 5.46758 4.29047 0
M  V30 1281 H 120.235 3.49643 3.11236 0
M  V30 1282 H 120.408 5.00448 4.1165 0
M  V30 1283 N 113.814 -1.1601 1.06675 0
M  V30 1284 C 115.091 -1.82679 0.699114 0
M  V30 1285 C 115.471 -1.94559 -0.819137 0
M  V30 1286 O 114.819 -1.49169 -1.73092 0
M  V30 1287 C 115.029 -3.19445 1.40555 0
M  V30 1288 C 116.377 -3.95171 1.55323 0
M  V30 1289 O 117.401 -3.28976 1.36577 0
M  V30 1290 O 116.26 -5.13833 1.86112 0
M  V30 1291 H 113.354 -0.788954 0.247951 0
M  V30 1292 H 115.9 -1.23179 1.16726 0
M  V30 1293 H 114.672 -3.05856 2.44065 0
M  V30 1294 H 114.295 -3.86625 0.927733 0
M  V30 1295 N 115.292 -0.849877 -1.32721 0
M  V30 1296 C 116.538 -0.451591 -1.97708 0
M  V30 1297 C 116.871 0.989175 -1.6712 0
M  V30 1298 O 116.146 1.69334 -0.956891 0
M  V30 1299 C 116.429 -0.685598 -3.53513 0
M  V30 1300 C 116.282 -2.17444 -3.93749 0
M  V30 1301 C 117.601 -0.138874 -4.39881 0
M  V30 1302 H 114.72 -0.16555 -0.718166 0
M  V30 1303 H 117.362 -1.06742 -1.57182 0
M  V30 1304 H 115.512 -0.161416 -3.88165 0
M  V30 1305 H 117.184 -2.76433 -3.693 0
M  V30 1306 H 115.427 -2.65476 -3.43081 0
M  V30 1307 H 116.098 -2.28888 -5.02309 0
M  V30 1308 H 118.574 -0.587068 -4.11938 0
M  V30 1309 H 117.45 -0.332213 -5.47894 0
M  V30 1310 H 117.711 0.95806 -4.31594 0
M  V30 1311 N 116.77 1.45427 -0.607355 0
M  V30 1312 C 117.998 2.06614 -0.108814 0
M  V30 1313 C 118.413 1.45204 1.2067 0
M  V30 1314 O 117.77 0.566132 1.73497 0
M  V30 1315 C 117.821 3.61481 0.0375347 0
M  V30 1316 O 117.542 4.20598 -1.22593 0
M  V30 1317 C 119.043 4.39652 0.567561 0
M  V30 1318 H 116.263 0.66747 -0.0687351 0
M  V30 1319 H 118.807 1.86675 -0.835022 0
M  V30 1320 H 116.962 3.80762 0.714068 0
M  V30 1321 H 117.376 5.1377 -1.05547 0
M  V30 1322 H 118.85 5.48518 0.61905 0
M  V30 1323 H 119.327 4.09417 1.58978 0
M  V30 1324 H 119.933 4.25234 -0.0749202 0
M  V30 1325 N 118.248 0.346503 1.53744 0
M  V30 1326 C 119.525 -0.304532 1.93215 0
M  V30 1327 C 119.905 -1.67993 1.27834 0
M  V30 1328 O 119.253 -2.24411 0.430352 0
M  V30 1329 C 119.463 -0.373852 3.46992 0
M  V30 1330 C 120.811 -0.62329 4.2 0
M  V30 1331 O 121.835 -0.455847 3.53271 0
M  V30 1332 O 120.694 -0.947879 5.38217 0
M  V30 1333 H 117.788 -0.178318 0.807547 0
M  V30 1334 H 120.334 0.397895 1.64969 0
M  V30 1335 H 119.106 0.591224 3.86808 0
M  V30 1336 H 118.729 -1.12294 3.81413 0
M  V30 1337 N 119.726 -1.57421 0.075193 0
M  V30 1338 C 120.636 -2.1642 -0.905511 0
M  V30 1339 C 121.652 -1.12828 -1.32461 0
M  V30 1340 O 122.828 -1.45109 -1.39661 0
M  V30 1341 C 119.893 -2.71693 -2.15369 0
M  V30 1342 C 118.954 -3.90171 -1.79068 0
M  V30 1343 C 118.187 -4.42798 -2.97936 0
M  V30 1344 O 118.41 -3.94416 -4.12058 0
M  V30 1345 O 117.344 -5.34085 -2.77555 0
M  V30 1346 H 121.17 -3.00588 -0.433626 0
M  V30 1347 H 118.755 -1.48664 -0.148067 0
M  V30 1348 H 120.637 -3.07104 -2.88557 0
M  V30 1349 H 119.312 -1.90582 -2.61649 0
M  V30 1350 H 118.219 -3.59606 -1.03122 0
M  V30 1351 H 119.552 -4.72584 -1.37569 0
M  V30 1352 N 121.204 0.198386 -1.56346 0
M  V30 1353 C 122.167 1.22952 -1.93431 0
M  V30 1354 C 123.167 1.38611 -0.815092 0
M  V30 1355 O 124.357 1.36479 -1.08255 0
M  V30 1356 C 121.489 2.59946 -2.20546 0
M  V30 1357 H 122.682 0.912626 -2.85677 0
M  V30 1358 H 120.235 0.43977 -1.49986 0
M  V30 1359 H 120.97 2.96696 -1.30927 0
M  V30 1360 H 120.755 2.49953 -3.02102 0
M  V30 1361 H 122.245 3.3431 -2.50253 0
M  V30 1362 N 122.682 1.50554 0.465978 0
M  V30 1363 C 123.907 1.65838 1.24549 0
M  V30 1364 C 124.332 0.343486 1.84937 0
M  V30 1365 O 123.69 -0.69324 1.67523 0
M  V30 1366 C 123.738 2.75533 2.32624 0
M  V30 1367 O 122.842 2.37142 3.37398 0
M  V30 1368 H 122.183 0.553893 0.366194 0
M  V30 1369 H 124.713 1.96959 0.553927 0
M  V30 1370 H 124.723 2.98763 2.77857 0
M  V30 1371 H 123.398 3.70962 1.88043 0
M  V30 1372 H 121.975 2.24377 2.97841 0
M  V30 1373 N 124.16 -0.719506 1.40217 0
M  V30 1374 C 125.407 -1.47933 1.38283 0
M  V30 1375 C 125.735 -1.94493 -0.0161536 0
M  V30 1376 O 124.99 -1.68224 -0.999956 0
M  V30 1377 C 125.289 -2.72271 2.31524 0
M  V30 1378 C 124.955 -2.44496 3.78857 0
M  V30 1379 C 123.617 -2.36631 4.18998 0
M  V30 1380 C 125.969 -2.21104 4.71977 0
M  V30 1381 C 123.297 -2.03437 5.503 0
M  V30 1382 C 125.649 -1.89423 6.03574 0
M  V30 1383 C 124.313 -1.80038 6.42762 0
M  V30 1384 H 123.583 -0.541325 0.506012 0
M  V30 1385 H 126.23 -0.824502 1.72842 0
M  V30 1386 H 124.535 -3.42572 1.90137 0
M  V30 1387 H 126.232 -3.30348 2.27313 0
M  V30 1388 H 122.822 -2.51503 3.47051 0
M  V30 1389 H 127.006 -2.26139 4.41786 0
M  V30 1390 H 122.262 -1.94705 5.79569 0
M  V30 1391 H 126.436 -1.70336 6.75247 0
M  V30 1392 H 124.063 -1.54083 7.44421 0
M  V30 1393 N 125.638 -1.25649 -0.95132 0
M  V30 1394 C 126.568 -1.08808 -2.06599 0
M  V30 1395 C 127.549 0.00382547 -1.701 0
M  V30 1396 O 128.734 -0.166325 -1.93486 0
M  V30 1397 C 125.864 -0.709542 -3.39975 0
M  V30 1398 C 124.818 -1.75206 -3.90496 0
M  V30 1399 C 124.144 -1.22811 -5.20405 0
M  V30 1400 C 125.444 -3.15153 -4.16504 0
M  V30 1401 H 127.138 -2.02048 -2.20946 0
M  V30 1402 H 124.684 -0.972835 -1.06169 0
M  V30 1403 H 126.637 -0.578649 -4.17408 0
M  V30 1404 H 125.361 0.258556 -3.25575 0
M  V30 1405 H 124.02 -1.87145 -3.15234 0
M  V30 1406 H 123.668 -0.250145 -5.02378 0
M  V30 1407 H 123.368 -1.92492 -5.55176 0
M  V30 1408 H 124.892 -1.10968 -6.00432 0
M  V30 1409 H 126.306 -3.06349 -4.84586 0
M  V30 1410 H 124.703 -3.82333 -4.62538 0
M  V30 1411 H 125.773 -3.61966 -3.22658 0
M  V30 1412 N 127.117 1.15442 -1.07289 0
M  V30 1413 C 128.342 1.90638 -0.816828 0
M  V30 1414 C 128.767 1.77445 0.624083 0
M  V30 1415 O 128.125 1.10671 1.43602 0
M  V30 1416 C 128.173 3.39008 -1.22906 0
M  V30 1417 O 127.277 4.10701 -0.373975 0
M  V30 1418 H 126.618 0.593555 -0.297638 0
M  V30 1419 H 129.148 1.46198 -1.43134 0
M  V30 1420 H 129.158 3.89801 -1.20497 0
M  V30 1421 H 127.833 3.47929 -2.27856 0
M  V30 1422 H 126.41 3.70046 -0.460499 0
M  V30 1423 N 128.595 0.856903 1.32268 0
M  V30 1424 C 129.82 0.474569 2.01897 0
M  V30 1425 C 130.245 -0.921766 1.63967 0
M  V30 1426 O 129.603 -1.60589 0.84148 0
M  V30 1427 C 129.651 0.623799 3.55164 0
M  V30 1428 O 128.755 -0.342459 4.10976 0
M  V30 1429 H 128.096 0.190422 0.63611 0
M  V30 1430 H 130.626 1.15672 1.68764 0
M  V30 1431 H 130.636 0.512169 4.04773 0
M  V30 1432 H 129.311 1.64202 3.82113 0
M  V30 1433 H 127.888 -0.18688 3.72431 0
M  V30 1434 N 130.073 -1.45103 0.615059 0
M  V30 1435 C 131.322 -2.01396 0.110718 0
M  V30 1436 C 131.635 -1.48834 -1.26916 0
M  V30 1437 O 132.841 -1.97152 -1.86664 0
M  V30 1438 C 131.297 -3.59599 0.14723 0
M  V30 1439 C 130.905 -4.21158 1.52743 0
M  V30 1440 C 132.649 -4.23428 -0.30148 0
M  V30 1441 C 130.556 -5.71535 1.51992 0
M  V30 1442 H 129.486 -0.753061 0.0376241 0
M  V30 1443 H 132.137 -1.66494 0.77149 0
M  V30 1444 H 130.519 -3.91724 -0.580339 0
M  V30 1445 H 131.693 -4.00594 2.2773 0
M  V30 1446 H 130.008 -3.69552 1.91886 0
M  V30 1447 H 132.605 -5.33703 -0.326392 0
M  V30 1448 H 132.948 -3.94629 -1.32565 0
M  V30 1449 H 133.481 -3.96047 0.373065 0
M  V30 1450 H 130.22 -6.05044 2.52193 0
M  V30 1451 H 129.74 -5.94268 0.81274 0
M  V30 1452 H 131.419 -6.34873 1.24681 0
M  V30 1453 N 131.551 -0.354651 -1.53558 0
M  V30 1454 C 132.779 0.239515 -2.05509 0
M  V30 1455 C 133.194 1.4333 -1.2289 0
M  V30 1456 O 132.551 1.80538 -0.266899 0
M  V30 1457 C 132.602 0.643719 -3.55723 0
M  V30 1458 O 132.323 -0.502602 -4.35207 0
M  V30 1459 C 133.824 1.29743 -4.23889 0
M  V30 1460 H 131.044 0.0442697 -0.669538 0
M  V30 1461 H 133.588 -0.509856 -1.98042 0
M  V30 1462 H 131.743 1.34302 -3.63376 0
M  V30 1463 H 132.157 -0.178172 -5.24197 0
M  V30 1464 H 133.631 1.53091 -5.30346 0
M  V30 1465 H 134.108 2.25441 -3.76926 0
M  V30 1466 H 134.714 0.639865 -4.20459 0
M  V30 1467 N 133.029 1.57378 -0.0835403 0
M  V30 1468 C 134.259 1.97975 0.590713 0
M  V30 1469 C 134.667 0.961083 1.62972 0
M  V30 1470 O 134.01 -0.0590879 1.83605 0
M  V30 1471 C 134.072 3.34915 1.3066 0
M  V30 1472 C 133.736 4.55069 0.419698 0
M  V30 1473 C 134.733 5.18868 -0.32749 0
M  V30 1474 C 132.418 5.0114 0.341137 0
M  V30 1475 C 134.412 6.27098 -1.14134 0
M  V30 1476 C 132.099 6.0924 -0.476374 0
M  V30 1477 C 133.097 6.72083 -1.21627 0
M  V30 1478 O 132.785 7.781 -2.02028 0
M  V30 1479 H 132.517 0.655818 0.163947 0
M  V30 1480 H 135.071 2.04807 -0.156021 0
M  V30 1481 H 133.301 3.24733 2.09966 0
M  V30 1482 H 134.99 3.60037 1.87424 0
M  V30 1483 H 135.756 4.84211 -0.276459 0
M  V30 1484 H 131.635 4.51996 0.90668 0
M  V30 1485 H 135.179 6.7608 -1.71935 0
M  V30 1486 H 131.076 6.43329 -0.528927 0
M  V30 1487 H 131.844 7.95034 -1.94586 0
M  V30 1488 N 134.507 -0.190092 1.56449 0
M  V30 1489 C 135.457 -1.23977 1.91347 0
M  V30 1490 C 136.441 -1.40747 0.779693 0
M  V30 1491 O 137.633 -1.43033 1.04262 0
M  V30 1492 C 134.762 -2.58347 2.26079 0
M  V30 1493 C 133.848 -2.4535 3.45925 0
M  V30 1494 N 134.239 -2.02039 4.63696 0
M  V30 1495 C 132.537 -2.76229 3.50162 0
M  V30 1496 C 133.238 -2.01053 5.4585 0
M  V30 1497 N 132.214 -2.42747 4.8639 0
M  V30 1498 H 136.016 -0.896318 2.79899 0
M  V30 1499 H 133.53 -0.398496 1.57435 0
M  V30 1500 H 135.527 -3.34173 2.49267 0
M  V30 1501 H 134.187 -2.93512 1.38856 0
M  V30 1502 H 135.198 -1.7267 4.88268 0
M  V30 1503 H 131.875 -3.15556 2.73369 0
M  V30 1504 H 133.265 -1.69426 6.50188 0
M  V30 1505 N 135.985 -1.50799 -0.457987 0
M  V30 1506 C 137.234 -1.6168 -1.20593 0
M  V30 1507 C 137.547 -0.32888 -1.92815 0
M  V30 1508 O 138.753 -0.316773 -2.69646 0
M  V30 1509 C 137.209 -2.8545 -2.19195 0
M  V30 1510 C 136.817 -4.21168 -1.52715 0
M  V30 1511 C 138.561 -3.05681 -2.94549 0
M  V30 1512 C 136.468 -5.3611 -2.4968 0
M  V30 1513 H 135.398 -0.602134 -0.453818 0
M  V30 1514 H 138.049 -1.77245 -0.475031 0
M  V30 1515 H 136.431 -2.63472 -2.95632 0
M  V30 1516 H 137.605 -4.53449 -0.819775 0
M  V30 1517 H 135.92 -4.06648 -0.895922 0
M  V30 1518 H 138.517 -3.88727 -3.67145 0
M  V30 1519 H 138.86 -2.17929 -3.54701 0
M  V30 1520 H 139.393 -3.27901 -2.25223 0
M  V30 1521 H 136.132 -6.26057 -1.94249 0
M  V30 1522 H 135.652 -5.0823 -3.18532 0
M  V30 1523 H 137.331 -5.6722 -3.11241 0
M  V30 1524 N 137.463 0.71206 -1.40597 0
M  V30 1525 C 138.691 1.50111 -1.42388 0
M  V30 1526 C 139.106 1.88784 -0.0245395 0
M  V30 1527 O 138.463 1.55681 0.952351 0
M  V30 1528 C 138.514 2.7742 -2.31776 0
M  V30 1529 O 138.235 2.40382 -3.66262 0
M  V30 1530 C 139.736 3.7129 -2.42196 0
M  V30 1531 H 136.956 0.46314 -0.485533 0
M  V30 1532 H 139.5 0.878068 -1.8469 0
M  V30 1533 H 137.655 3.36001 -1.92827 0
M  V30 1534 H 138.069 3.22324 -4.13772 0
M  V30 1535 H 139.543 4.57448 -3.08943 0
M  V30 1536 H 140.02 4.14641 -1.44809 0
M  V30 1537 H 140.626 3.18619 -2.81712 0
M  V30 1538 N 138.941 1.26152 0.944643 0
M  V30 1539 C 139.873 1.03199 2.04652 0
M  V30 1540 C 140.886 -0.00642356 1.62799 0
M  V30 1541 O 142.075 0.233263 1.76969 0
M  V30 1542 C 139.175 0.540111 3.34568 0
M  V30 1543 C 138.348 1.64697 4.05208 0
M  V30 1544 C 137.407 1.15374 5.13396 0
M  V30 1545 O 136.433 1.85013 5.38293 0
M  V30 1546 N 137.635 0.00031529 5.805 0
M  V30 1547 H 140.4 1.9808 2.2491 0
M  V30 1548 H 137.961 1.17491 1.11389 0
M  V30 1549 H 139.953 0.194401 4.04233 0
M  V30 1550 H 138.523 -0.315021 3.11009 0
M  V30 1551 H 137.743 2.16379 3.29506 0
M  V30 1552 H 139.031 2.3903 4.49157 0
M  V30 1553 H 138.429 -0.581336 5.62705 0
M  V30 1554 H 136.986 -0.286346 6.51171 0
M  V30 1555 N 140.419 -1.14872 1.07899 0
M  V30 1556 C 141.382 -2.17986 0.708161 0
M  V30 1557 C 142.382 -1.58775 -0.25442 0
M  V30 1558 O 143.572 -1.74166 -0.034645 0
M  V30 1559 C 140.704 -3.40871 0.0446929 0
M  V30 1560 H 141.897 -2.52306 1.62116 0
M  V30 1561 H 139.45 -1.2943 0.876218 0
M  V30 1562 H 140.185 -3.12124 -0.880281 0
M  V30 1563 H 139.97 -3.8511 0.737091 0
M  V30 1564 H 141.46 -4.17121 -0.19991 0
M  V30 1565 N 141.898 -0.863906 -1.31812 0
M  V30 1566 C 143.126 -0.486111 -2.01108 0
M  V30 1567 C 143.541 0.919755 -1.64882 0
M  V30 1568 O 142.898 1.60162 -0.874893 0
M  V30 1569 C 142.949 -0.626435 -3.56031 0
M  V30 1570 O 142.67 -1.97693 -3.90959 0
M  V30 1571 C 144.171 -0.248857 -4.42601 0
M  V30 1572 H 141.391 -0.190052 -0.643523 0
M  V30 1573 H 143.935 -1.1634 -1.68182 0
M  V30 1574 H 142.09 0.00322717 -3.874 0
M  V30 1575 H 142.504 -1.98034 -4.85678 0
M  V30 1576 H 143.978 -0.398016 -5.50563 0
M  V30 1577 H 144.455 0.811489 -4.31638 0
M  V30 1578 H 145.061 -0.853971 -4.16638 0
M  V30 1579 N 143.376 1.44774 -0.622745 0
M  V30 1580 C 144.324 2.32387 0.0994683 0
M  V30 1581 C 145.318 1.46859 0.844326 0
M  V30 1582 O 146.524 1.63254 0.758174 0
M  V30 1583 H 142.899 0.750273 0.0509291 0
M  V30 1584 H 144.87 2.91062 -0.65767 0
M  V30 1585 C 143.619 3.30723 1.07319 0
M  V30 1586 H 142.942 3.96541 0.509462 0
M  V30 1587 H 144.382 3.94725 1.54817 0
M  V30 1588 C 142.841 2.59021 2.15429 0
M  V30 1589 O 143.371 2.38286 3.23393 0
M  V30 1590 N 141.577 2.189 1.91131 0
M  V30 1591 H 141.124 2.35964 1.03337 0
M  V30 1592 H 141.082 1.71251 2.63668 0
M  V30 1593 N 144.854 0.36279 1.53368 0
M  V30 1594 C 145.764 -0.492994 2.29362 0
M  V30 1595 C 146.78 -1.09507 1.35219 0
M  V30 1596 O 147.956 -1.10662 1.68273 0
M  V30 1597 C 145.021 -1.61855 3.066 0
M  V30 1598 C 144.082 -1.04429 4.16405 0
M  V30 1599 C 143.315 -2.11621 4.89951 0
M  V30 1600 O 143.538 -3.32684 4.63333 0
M  V30 1601 O 142.472 -1.74835 5.75948 0
M  V30 1602 H 146.298 0.125331 3.03441 0
M  V30 1603 H 143.883 0.127253 1.48857 0
M  V30 1604 H 145.765 -2.27302 3.54841 0
M  V30 1605 H 144.44 -2.22233 2.3536 0
M  V30 1606 H 143.347 -0.353819 3.72423 0
M  V30 1607 H 144.68 -0.485113 4.89804 0
M  V30 1608 N 146.332 -1.57332 0.0918853 0
M  V30 1609 C 147.58 -1.93853 -0.571446 0
M  V30 1610 C 147.901 -0.974212 -1.6892 0
M  V30 1611 O 147.171 -0.0257254 -1.95883 0
M  V30 1612 H 145.751 -0.715666 -0.214082 0
M  V30 1613 H 148.413 -1.94287 0.154464 0
M  V30 1614 H 147.509 -2.96191 -0.983729 0
M  V30 1615 N 147.81 0.181792 -1.56548 0
M  V30 1616 C 148.757 1.22521 -1.95595 0
M  V30 1617 C 149.727 1.4454 -0.818373 0
M  V30 1618 O 150.912 1.57454 -1.07763 0
M  V30 1619 C 148.052 2.56193 -2.31212 0
M  V30 1620 C 147.165 2.41641 -3.58097 0
M  V30 1621 C 146.3 3.68108 -3.82975 0
M  V30 1622 C 145.339 3.48445 -5.03242 0
M  V30 1623 N 144.476 4.66956 -5.24306 0
M  V30 1624 H 149.316 0.885226 -2.84548 0
M  V30 1625 H 146.853 0.425718 -1.40805 0
M  V30 1626 H 148.811 3.34088 -2.49882 0
M  V30 1627 H 147.441 2.88208 -1.45382 0
M  V30 1628 H 146.493 1.54976 -3.474 0
M  V30 1629 H 147.805 2.23052 -4.46149 0
M  V30 1630 H 146.959 4.54441 -4.01956 0
M  V30 1631 H 145.698 3.89666 -2.93278 0
M  V30 1632 H 144.703 2.60499 -4.8417 0
M  V30 1633 H 145.928 3.2832 -5.9446 0
M  V30 1634 H 143.874 4.88752 -4.37559 0
M  V30 1635 H 143.791 4.51242 -6.06561 0
M  V30 1636 H 145.059 5.54602 -5.47756 0
M  V30 1637 N 149.288 1.51039 0.449983 0
M  V30 1638 C 150.218 1.74379 1.55288 0
M  V30 1639 C 151.199 0.593236 1.5942 0
M  V30 1640 O 152.384 0.834625 1.7535 0
M  V30 1641 C 149.514 1.85728 2.93466 0
M  V30 1642 C 148.468 3.01078 3.04197 0
M  V30 1643 C 147.794 2.97595 4.44231 0
M  V30 1644 C 149.094 4.41254 2.7945 0
M  V30 1645 H 150.788 2.66725 1.36008 0
M  V30 1646 H 148.334 1.2835 0.652864 0
M  V30 1647 H 150.287 2.0064 3.70569 0
M  V30 1648 H 149.011 0.900207 3.13949 0
M  V30 1649 H 147.67 2.85851 2.29531 0
M  V30 1650 H 147.318 1.99691 4.61663 0
M  V30 1651 H 147.018 3.75046 4.52343 0
M  V30 1652 H 148.542 3.14583 5.23326 0
M  V30 1653 H 149.956 4.56897 3.46292 0
M  V30 1654 H 148.353 5.20315 2.98985 0
M  V30 1655 H 149.423 4.52164 1.75144 0
M  V30 1656 N 150.766 -0.704594 1.40972 0
M  V30 1657 C 151.713 -1.81862 1.42109 0
M  V30 1658 C 152.683 -1.63781 0.276593 0
M  V30 1659 O 153.868 -1.84759 0.4763 0
M  V30 1660 C 151.008 -3.19669 1.30022 0
M  V30 1661 C 150.121 -3.49246 2.54267 0
M  V30 1662 C 149.256 -4.76618 2.3454 0
M  V30 1663 C 148.295 -4.99133 3.54306 0
M  V30 1664 N 147.432 -6.17726 3.33706 0
M  V30 1665 H 152.272 -1.80226 2.37324 0
M  V30 1666 H 149.809 -0.880238 1.17857 0
M  V30 1667 H 151.767 -3.99263 1.21018 0
M  V30 1668 H 150.397 -3.20506 0.384192 0
M  V30 1669 H 149.449 -2.64125 2.73756 0
M  V30 1670 H 150.761 -3.61788 3.43381 0
M  V30 1671 H 149.915 -5.64249 2.22952 0
M  V30 1672 H 148.654 -4.66305 1.42867 0
M  V30 1673 H 147.659 -4.09953 3.66359 0
M  V30 1674 H 148.884 -5.11311 4.4692 0
M  V30 1675 H 146.83 -6.08642 2.44725 0
M  V30 1676 H 146.747 -6.30995 4.16391 0
M  V30 1677 H 148.015 -7.08115 3.25873 0
M  V30 1678 N 152.244 -1.26651 -0.937939 0
M  V30 1679 C 153.655 -1.1125 -1.49934 0
M  V30 1680 C 154.006 0.306077 -1.93798 0
M  V30 1681 O 153.131 1.19792 -1.80219 0
M  V30 1682 C 153.726 -2.01339 -2.72485 0
M  V30 1683 C 152.285 -1.90074 -3.24883 0
M  V30 1684 C 151.432 -1.94498 -1.97651 0
M  V30 1685 H 154.383 -1.39693 -0.753091 0
M  V30 1686 H 154.404 -1.56319 -3.46907 0
M  V30 1687 H 153.916 -3.04577 -2.40529 0
M  V30 1688 H 152.017 -0.897827 -3.61621 0
M  V30 1689 H 152.13 -2.75778 -3.9177 0
M  V30 1690 H 150.494 -1.38591 -2.13693 0
M  V30 1691 H 151.277 -2.99372 -1.68022 0
M  V30 1692 N 153.722 1.14298 -1.08507 0
M  V30 1693 C 154.952 1.88945 -0.835663 0
M  V30 1694 C 155.36 1.78894 0.615928 0
M  V30 1695 O 154.703 1.1468 1.43506 0
M  V30 1696 C 154.765 3.39585 -1.17994 0
M  V30 1697 C 154.429 3.7342 -2.63451 0
M  V30 1698 C 155.426 3.73454 -3.61702 0
M  V30 1699 C 153.111 4.03368 -2.99332 0
M  V30 1700 C 155.105 4.02961 -4.93864 0
M  V30 1701 C 152.792 4.32538 -4.31687 0
M  V30 1702 C 153.79 4.32318 -5.28763 0
M  V30 1703 O 153.478 4.6078 -6.58739 0
M  V30 1704 H 153.21 0.605307 -0.300965 0
M  V30 1705 H 155.764 1.45673 -1.44806 0
M  V30 1706 H 153.994 3.83315 -0.51055 0
M  V30 1707 H 155.683 3.9554 -0.911182 0
M  V30 1708 H 156.449 3.50403 -3.35325 0
M  V30 1709 H 152.328 4.02692 -2.24411 0
M  V30 1710 H 155.872 4.02704 -5.69627 0
M  V30 1711 H 151.769 4.55059 -4.57812 0
M  V30 1712 H 152.537 4.78492 -6.64069 0
M  V30 1713 N 155.201 0.870884 1.31352 0
M  V30 1714 C 156.45 0.478408 1.95944 0
M  V30 1715 C 156.763 -0.974493 1.69597 0
M  V30 1716 O 157.969 -1.47316 2.28058 0
M  V30 1717 C 156.425 0.804609 3.50791 0
M  V30 1718 C 156.033 2.27433 3.85977 0
M  V30 1719 C 157.777 0.480648 4.2177 0
M  V30 1720 C 155.684 2.5429 5.33939 0
M  V30 1721 H 154.614 0.175175 0.733369 0
M  V30 1722 H 157.265 1.06391 1.4951 0
M  V30 1723 H 155.647 0.148347 3.95722 0
M  V30 1724 H 156.821 2.97373 3.52002 0
M  V30 1725 H 155.136 2.56442 3.28065 0
M  V30 1726 H 157.733 0.658519 5.30629 0
M  V30 1727 H 158.076 -0.578979 4.12254 0
M  V30 1728 H 158.609 1.09349 3.82476 0
M  V30 1729 H 155.348 3.58939 5.48491 0
M  V30 1730 H 154.868 1.88945 5.69263 0
M  V30 1731 H 156.547 2.39066 6.01212 0
M  V30 1732 N 156.679 -1.44442 0.630414 0
M  V30 1733 C 157.907 -2.06414 0.141671 0
M  V30 1734 C 158.322 -1.47105 -1.18345 0
M  V30 1735 O 157.679 -0.593662 -1.72574 0
M  V30 1736 C 157.73 -3.61494 0.0199784 0
M  V30 1737 O 157.451 -4.18594 1.29269 0
M  V30 1738 C 158.952 -4.40499 -0.497544 0
M  V30 1739 H 156.172 -0.666292 0.0793452 0
M  V30 1740 H 158.716 -1.85323 0.864614 0
M  V30 1741 H 156.871 -3.8185 -0.653402 0
M  V30 1742 H 157.285 -5.12026 1.13707 0
M  V30 1743 H 158.759 -5.49433 -0.531708 0
M  V30 1744 H 159.236 -4.11895 -1.52445 0
M  V30 1745 H 159.842 -4.25061 0.142562 0
M  V30 1746 N 158.157 -0.370918 -1.53173 0
M  V30 1747 C 159.406 0.218249 -2.00516 0
M  V30 1748 C 159.719 1.49429 -1.26215 0
M  V30 1749 O 160.925 2.16239 -1.64174 0
M  V30 1750 C 159.381 0.43948 -3.57207 0
M  V30 1751 C 158.989 -0.822244 -4.4039 0
M  V30 1752 C 160.733 0.986012 -4.1289 0
M  V30 1753 C 158.64 -0.570304 -5.88644 0
M  V30 1754 H 157.57 0.0853333 -0.749156 0
M  V30 1755 H 160.221 -0.490483 -1.76823 0
M  V30 1756 H 158.603 1.20961 -3.77074 0
M  V30 1757 H 159.777 -1.59557 -4.32294 0
M  V30 1758 H 158.092 -1.29238 -3.95836 0
M  V30 1759 H 160.689 1.18991 -5.21292 0
M  V30 1760 H 161.032 1.94972 -3.6782 0
M  V30 1761 H 161.565 0.27592 -3.96842 0
M  V30 1762 H 158.304 -1.50449 -6.38001 0
M  V30 1763 H 157.824 0.164427 -5.99575 0
M  V30 1764 H 159.503 -0.19784 -6.46697 0
M  V30 1765 N 159.635 1.57281 -0.100228 0
M  V30 1766 C 160.865 1.98591 0.569681 0
M  V30 1767 C 161.273 0.978315 1.61943 0
M  V30 1768 O 160.616 -0.0396108 1.83657 0
M  V30 1769 C 160.678 3.36282 1.271 0
M  V30 1770 C 160.342 4.55488 0.371409 0
M  V30 1771 C 161.339 5.18491 -0.382504 0
M  V30 1772 C 159.024 5.01474 0.287965 0
M  V30 1773 C 161.018 6.25852 -1.20779 0
M  V30 1774 C 158.705 6.08701 -0.540965 0
M  V30 1775 C 159.703 6.70755 -1.28749 0
M  V30 1776 O 159.391 7.75914 -2.10269 0
M  V30 1777 H 159.123 0.65752 0.156982 0
M  V30 1778 H 161.677 2.0463 -0.177734 0
M  V30 1779 H 159.907 3.26941 2.0651 0
M  V30 1780 H 161.596 3.62005 1.83595 0
M  V30 1781 H 162.362 4.83891 -0.3278 0
M  V30 1782 H 158.241 4.52932 0.858689 0
M  V30 1783 H 161.785 6.74218 -1.79096 0
M  V30 1784 H 157.682 6.42732 -0.597131 0
M  V30 1785 H 158.45 7.92925 -2.03007 0
M  V30 1786 N 161.113 -0.173488 1.56642 0
M  V30 1787 C 162.076 -1.19859 1.95362 0
M  V30 1788 C 163.076 -1.37296 0.83704 0
M  V30 1789 O 164.266 -1.34739 1.10413 0
M  V30 1790 C 161.398 -2.56405 2.24654 0
M  V30 1791 H 162.591 -0.867062 2.87092 0
M  V30 1792 H 160.144 -0.415853 1.50666 0
M  V30 1793 H 160.879 -2.94576 1.35631 0
M  V30 1794 H 160.664 -2.45115 3.06041 0
M  V30 1795 H 162.154 -3.30287 2.5554 0
M  V30 1796 N 162.591 -1.51276 -0.441967 0
M  V30 1797 C 164.002 -1.56244 -1.02199 0
M  V30 1798 C 164.353 -0.383149 -1.92422 0
M  V30 1799 O 163.478 0.500613 -2.1053 0
M  V30 1800 C 164.073 -2.83162 -1.86024 0
M  V30 1801 C 162.632 -2.90716 -2.39084 0
M  V30 1802 C 161.779 -2.50858 -1.18175 0
M  V30 1803 H 164.73 -1.5712 -0.223416 0
M  V30 1804 H 164.751 -2.66663 -2.71425 0
M  V30 1805 H 164.263 -3.68974 -1.20331 0
M  V30 1806 H 162.364 -2.09323 -3.08244 0
M  V30 1807 H 162.477 -3.94266 -2.72198 0
M  V30 1808 H 160.841 -2.03951 -1.52565 0
M  V30 1809 H 161.624 -3.3901 -0.541001 0
M  V30 1810 N 164.069 0.697108 -1.41344 0
M  V30 1811 C 165.016 1.81106 -1.43071 0
M  V30 1812 C 165.986 1.63632 -0.285275 0
M  V30 1813 O 167.171 1.84504 -0.486091 0
M  V30 1814 C 164.311 3.18975 -1.31715 0
M  V30 1815 C 163.424 3.47892 -2.56115 0
M  V30 1816 C 162.559 4.75367 -2.37064 0
M  V30 1817 C 161.598 4.97247 -3.56948 0
M  V30 1818 N 160.735 6.15947 -3.36977 0
M  V30 1819 H 165.575 1.78965 -2.38276 0
M  V30 1820 H 163.112 0.873975 -1.18322 0
M  V30 1821 H 165.07 3.98615 -1.23133 0
M  V30 1822 H 163.7 3.20297 -0.401183 0
M  V30 1823 H 162.752 2.62669 -2.75153 0
M  V30 1824 H 164.064 3.59962 -3.45295 0
M  V30 1825 H 163.218 5.63059 -2.25941 0
M  V30 1826 H 161.957 4.65541 -1.45338 0
M  V30 1827 H 160.962 4.08004 -3.68527 0
M  V30 1828 H 162.187 5.08934 -4.49626 0
M  V30 1829 H 160.133 6.07336 -2.47949 0
M  V30 1830 H 160.05 6.28777 -4.19732 0
M  V30 1831 H 161.318 7.06377 -3.29623 0
M  V30 1832 N 165.547 1.27147 0.931209 0
M  V30 1833 C 166.824 1.0401 1.65654 0
M  V30 1834 C 167.204 -0.426297 2.06751 0
M  V30 1835 O 166.552 -1.40879 1.79904 0
M  V30 1836 C 166.762 1.99834 2.86125 0
M  V30 1837 C 168.11 2.29007 3.57549 0
M  V30 1838 O 169.134 1.97779 2.96246 0
M  V30 1839 O 167.993 2.82222 4.67989 0
M  V30 1840 H 165.087 0.396239 0.725895 0
M  V30 1841 H 167.633 1.38397 0.982056 0
M  V30 1842 H 166.405 2.98744 2.52721 0
M  V30 1843 H 166.028 1.65987 3.61295 0
M  V30 1844 N 167.025 -1.13721 1.09112 0
M  V30 1845 C 168.273 -1.84559 0.823562 0
M  V30 1846 C 168.594 -1.83754 -0.652658 0
M  V30 1847 O 167.864 -1.29102 -1.47342 0
M  V30 1848 H 166.444 -0.683376 0.301673 0
M  V30 1849 H 169.106 -1.37771 1.37859 0
M  V30 1850 H 168.202 -2.8917 1.17419 0
M  V30 1851 N 168.503 -0.877838 -1.30888 0
M  V30 1852 C 169.914 -0.544193 -1.78593 0
M  V30 1853 C 170.265 0.939301 -1.72254 0
M  V30 1854 O 169.39 1.7337 -1.29505 0
M  V30 1855 C 169.985 -0.98105 -3.24285 0
M  V30 1856 C 168.544 -0.698935 -3.69854 0
M  V30 1857 C 167.691 -1.168 -2.51502 0
M  V30 1858 H 170.642 -1.06278 -1.17859 0
M  V30 1859 H 170.663 -0.307009 -3.79259 0
M  V30 1860 H 170.175 -2.06079 -3.28866 0
M  V30 1861 H 168.276 0.369112 -3.70767 0
M  V30 1862 H 168.389 -1.28148 -4.61644 0
M  V30 1863 H 166.753 -0.587535 -2.47831 0
M  V30 1864 H 167.536 -2.25533 -2.58824 0
M  V30 1865 N 169.982 1.44106 -0.638065 0
M  V30 1866 C 170.929 2.30715 0.062701 0
M  V30 1867 C 171.899 1.43882 0.829883 0
M  V30 1868 O 173.084 1.72775 0.809532 0
M  V30 1869 C 170.224 3.29258 1.03358 0
M  V30 1870 C 169.337 4.31192 0.26409 0
M  V30 1871 C 168.472 5.16825 1.22741 0
M  V30 1872 C 167.511 6.10462 0.447475 0
M  V30 1873 N 166.648 6.8877 1.36161 0
M  V30 1874 H 171.488 2.90096 -0.681781 0
M  V30 1875 H 169.025 1.42925 -0.347988 0
M  V30 1876 H 170.983 3.84886 1.60992 0
M  V30 1877 H 169.613 2.71562 1.74511 0
M  V30 1878 H 168.665 3.77981 -0.428295 0
M  V30 1879 H 169.977 4.97619 -0.343052 0
M  V30 1880 H 169.131 5.77004 1.87487 0
M  V30 1881 H 167.87 4.50488 1.86847 0
M  V30 1882 H 166.875 5.49386 -0.213433 0
M  V30 1883 H 168.1 6.78837 -0.188968 0
M  V30 1884 H 166.046 6.25096 1.98975 0
M  V30 1885 H 165.963 7.51663 0.808656 0
M  V30 1886 H 167.231 7.53467 1.99769 0
M  V30 1887 N 171.46 0.379036 1.52974 0
M  V30 1888 C 172.709 -0.207612 2.00629 0
M  V30 1889 C 173.022 -1.48758 1.27006 0
M  V30 1890 O 174.228 -2.15365 1.65318 0
M  V30 1891 C 172.684 -0.42053 3.57435 0
M  V30 1892 C 172.292 0.845587 4.39948 0
M  V30 1893 C 174.036 -0.964102 4.13407 0
M  V30 1894 C 171.943 0.601513 5.88333 0
M  V30 1895 H 170.873 -0.0813591 0.749598 0
M  V30 1896 H 173.524 0.499853 1.76561 0
M  V30 1897 H 171.906 -1.18959 3.7771 0
M  V30 1898 H 173.08 1.61848 4.31442 0
M  V30 1899 H 171.395 1.31336 3.95145 0
M  V30 1900 H 173.992 -1.16225 5.21916 0
M  V30 1901 H 174.335 -1.93019 3.68849 0
M  V30 1902 H 174.868 -0.25487 3.96983 0
M  V30 1903 H 171.607 1.53831 6.37194 0
M  V30 1904 H 171.127 -0.132628 5.99653 0
M  V30 1905 H 172.806 0.232134 6.46583 0
M  V30 1906 N 172.938 -1.57226 0.108567 0
M  V30 1907 C 174.185 -1.94833 -0.551943 0
M  V30 1908 C 174.513 -0.991204 -1.67348 0
M  V30 1909 O 173.768 -0.0131878 -1.95696 0
M  V30 1910 C 174.067 -3.38911 -1.13463 0
M  V30 1911 C 173.733 -4.50696 -0.135509 0
M  V30 1912 C 172.395 -4.80998 0.139252 0
M  V30 1913 C 174.747 -5.18333 0.545957 0
M  V30 1914 C 172.075 -5.76259 1.10194 0
M  V30 1915 C 174.427 -6.14627 1.49721 0
M  V30 1916 C 173.091 -6.43327 1.78006 0
M  V30 1917 H 172.361 -0.712944 -0.20197 0
M  V30 1918 H 175.008 -1.90582 0.18726 0
M  V30 1919 H 173.313 -3.39805 -1.95037 0
M  V30 1920 H 175.01 -3.65317 -1.65362 0
M  V30 1921 H 171.6 -4.27087 -0.359846 0
M  V30 1922 H 175.784 -4.95087 0.346842 0
M  V30 1923 H 171.04 -5.96804 1.32795 0
M  V30 1924 H 175.214 -6.66126 2.03099 0
M  V30 1925 H 172.841 -7.1695 2.52759 0
M  V30 1926 N 174.416 0.165178 -1.56732 0
M  V30 1927 C 175.364 1.22369 -1.97809 0
M  V30 1928 C 176.358 1.45488 -0.867741 0
M  V30 1929 O 177.564 1.45995 -1.05288 0
M  V30 1930 H 173.939 0.411486 -0.629431 0
M  V30 1931 H 175.91 0.850425 -2.86025 0
M  V30 1932 C 174.659 2.55403 -2.35934 0
M  V30 1933 H 173.982 2.38438 -3.20916 0
M  V30 1934 H 175.422 3.2814 -2.68514 0
M  V30 1935 C 173.881 3.14611 -1.20506 0
M  V30 1936 O 174.411 3.98626 -0.496016 0
M  V30 1937 N 172.617 2.7379 -0.97403 0
M  V30 1938 H 172.164 2.0557 -1.55238 0
M  V30 1939 H 172.122 3.1374 -0.203573 0
M  V30 1940 N 175.894 1.51508 0.433938 0
M  V30 1941 C 176.842 1.73646 1.54757 0
M  V30 1942 C 177.836 0.602854 1.5831 0
M  V30 1943 O 179.042 0.784318 1.62014 0
M  V30 1944 H 175.417 0.548718 0.51421 0
M  V30 1945 H 177.388 2.66991 1.33261 0
M  V30 1946 C 176.137 1.88172 2.92381 0
M  V30 1947 H 175.46 2.74808 2.90381 0
M  V30 1948 H 176.9 2.07672 3.6966 0
M  V30 1949 C 175.359 0.64239 3.30719 0
M  V30 1950 O 175.889 -0.201362 4.01195 0
M  V30 1951 N 174.095 0.485489 2.86516 0
M  V30 1952 H 173.642 1.17318 2.29334 0
M  V30 1953 H 173.6 -0.342482 3.12529 0
M  V30 1954 N 177.372 -0.689602 1.41712 0
M  V30 1955 C 178.304 -1.815 1.39966 0
M  V30 1956 C 179.317 -1.59995 0.300917 0
M  V30 1957 O 180.506 -1.69387 0.563039 0
M  V30 1958 C 177.606 -3.18364 1.16179 0
M  V30 1959 C 176.779 -3.66847 2.38206 0
M  V30 1960 C 175.838 -4.82398 2.10186 0
M  V30 1961 O 174.864 -4.93706 2.83272 0
M  V30 1962 N 176.066 -5.70064 1.0958 0
M  V30 1963 H 178.831 -1.83488 2.36965 0
M  V30 1964 H 176.392 -0.872149 1.36401 0
M  V30 1965 H 178.384 -3.93301 0.953756 0
M  V30 1966 H 176.954 -3.11365 0.27756 0
M  V30 1967 H 176.174 -2.82751 2.74673 0
M  V30 1968 H 177.462 -3.95978 3.19498 0
M  V30 1969 H 176.86 -5.63565 0.491019 0
M  V30 1970 H 175.417 -6.44874 0.947656 0
M  V30 1971 N 178.85 -1.27639 -0.924453 0
M  V30 1972 C 179.78 -1.13166 -2.04244 0
M  V30 1973 C 180.761 -0.032256 -1.70069 0
M  V30 1974 O 181.946 -0.207328 -1.9309 0
M  V30 1975 C 179.076 -0.781496 -3.38393 0
M  V30 1976 C 178.03 -1.83449 -3.86692 0
M  V30 1977 C 177.356 -1.33822 -5.17683 0
M  V30 1978 C 178.656 -3.23917 -4.09726 0
M  V30 1979 H 180.35 -2.06689 -2.1661 0
M  V30 1980 H 177.896 -0.995136 -1.04082 0
M  V30 1981 H 179.849 -0.667057 -4.16087 0
M  V30 1982 H 178.573 0.189439 -3.2605 0
M  V30 1983 H 177.232 -1.93789 -3.11193 0
M  V30 1984 H 176.88 -0.35665 -5.01734 0
M  V30 1985 H 176.58 -2.04224 -5.50968 0
M  V30 1986 H 178.104 -1.23679 -5.97943 0
M  V30 1987 H 179.518 -3.16559 -4.77978 0
M  V30 1988 H 177.915 -3.92059 -4.54324 0
M  V30 1989 H 178.985 -3.68729 -3.14908 0
M  V30 1990 N 180.328 1.1314 -1.09713 0
M  V30 1991 C 181.577 1.83838 -0.829851 0
M  V30 1992 C 181.89 1.84599 0.646728 0
M  V30 1993 O 183.096 2.51218 1.02965 0
M  V30 1994 C 181.552 3.30069 -1.43466 0
M  V30 1995 C 181.16 3.37688 -2.94399 0
M  V30 1996 C 182.904 4.05788 -1.24645 0
M  V30 1997 C 180.811 4.78209 -3.47952 0
M  V30 1998 H 179.741 0.68877 -0.306777 0
M  V30 1999 H 182.392 1.27448 -1.3202 0
M  V30 2000 H 180.774 3.8628 -0.871996 0
M  V30 2001 H 181.948 2.91456 -3.56918 0
M  V30 2002 H 180.263 2.75436 -3.12289 0
M  V30 2003 H 182.86 5.09535 -1.62107 0
M  V30 2004 H 183.203 4.15878 -0.187357 0
M  V30 2005 H 183.736 3.55915 -1.77678 0
M  V30 2006 H 180.475 4.73311 -4.53495 0
M  V30 2007 H 179.995 5.24924 -2.90198 0
M  V30 2008 H 181.674 5.47133 -3.45332 0
M  V30 2009 N 181.806 0.884767 1.30421 0
M  V30 2010 C 183.222 0.57874 1.48737 0
M  V30 2011 C 183.422 -0.883567 1.81095 0
M  V30 2012 O 182.478 -1.6648 1.89844 0
M  V30 2013 C 183.791 1.49171 2.61091 0
M  V30 2014 C 185.339 1.49532 2.74971 0
M  V30 2015 C 185.814 2.39421 3.90438 0
M  V30 2016 N 187.305 2.37383 3.97748 0
M  V30 2017 C 188.04 3.03647 4.86401 0
M  V30 2018 N 187.536 3.79136 5.79852 0
M  V30 2019 N 189.329 2.9288 4.79768 0
M  V30 2020 H 181.48 1.83075 1.0769 0
M  V30 2021 H 183.743 0.783637 0.533495 0
M  V30 2022 H 183.449 2.53291 2.44001 0
M  V30 2023 H 183.323 1.20113 3.57565 0
M  V30 2024 H 185.71 0.46163 2.91467 0
M  V30 2025 H 185.791 1.8262 1.79119 0
M  V30 2026 H 185.435 3.42874 3.74699 0
M  V30 2027 H 185.365 2.03649 4.85628 0
M  V30 2028 H 187.856 1.82525 3.30897 0
M  V30 2029 H 188.169 4.26789 6.4426 0
M  V30 2030 H 186.514 3.83243 5.79784 0
M  V30 2031 H 189.705 2.33433 4.05742 0
M  V30 2032 H 189.878 3.448 5.4865 0
M  V30 2033 N 183.284 -1.43765 0.645699 0
M  V30 2034 C 184.514 -2.05953 0.163318 0
M  V30 2035 C 184.922 -1.48432 -1.17322 0
M  V30 2036 O 184.265 -0.607295 -1.73371 0
M  V30 2037 C 184.327 -3.59499 -0.0103065 0
M  V30 2038 C 183.991 -4.39563 1.25035 0
M  V30 2039 C 184.988 -4.72108 2.17739 0
M  V30 2040 C 182.673 -4.79697 1.48983 0
M  V30 2041 C 184.667 -5.43688 3.3269 0
M  V30 2042 C 182.354 -5.51023 2.64229 0
M  V30 2043 C 183.352 -5.8294 3.55908 0
M  V30 2044 O 183.04 -6.5281 4.69142 0
M  V30 2045 H 182.772 -0.670798 0.0836986 0
M  V30 2046 H 185.326 -1.85384 0.884407 0
M  V30 2047 H 183.556 -3.78613 -0.78669 0
M  V30 2048 H 185.245 -4.03408 -0.449087 0
M  V30 2049 H 186.011 -4.41627 2.00476 0
M  V30 2050 H 181.89 -4.54266 0.785078 0
M  V30 2051 H 185.434 -5.68517 4.04269 0
M  V30 2052 H 181.331 -5.8092 2.81429 0
M  V30 2053 H 182.099 -6.71288 4.6831 0
M  V30 2054 N 184.763 -0.387143 -1.52771 0
M  V30 2055 C 185.726 0.436939 -2.24997 0
M  V30 2056 C 186.726 0.991991 -1.26555 0
M  V30 2057 O 187.916 0.874335 -1.50669 0
M  V30 2058 C 185.048 1.61281 -3.00335 0
M  V30 2059 H 186.241 -0.195365 -2.99263 0
M  V30 2060 H 183.794 -0.139218 -1.55679 0
M  V30 2061 H 184.529 2.2826 -2.30364 0
M  V30 2062 H 184.314 1.22154 -3.72587 0
M  V30 2063 H 185.804 2.19629 -3.5518 0
M  V30 2064 N 186.241 1.57166 -0.116904 0
M  V30 2065 C 187.489 1.94737 0.540533 0
M  V30 2066 C 187.81 1.00096 1.67349 0
M  V30 2067 O 187.08 0.0568854 1.95817 0
M  V30 2068 H 185.66 0.718981 0.202669 0
M  V30 2069 H 188.322 1.94017 -0.185353 0
M  V30 2070 H 187.418 2.97719 0.936483 0
M  V30 2071 N 187.719 -0.156864 1.56817 0
M  V30 2072 C 188.949 -0.885031 1.86684 0
M  V30 2073 C 189.357 -1.75696 0.701954 0
M  V30 2074 O 188.7 -1.80569 -0.337732 0
M  V30 2075 C 188.762 -1.80092 3.11138 0
M  V30 2076 C 188.426 -1.10714 4.43386 0
M  V30 2077 C 189.423 -0.465714 5.1781 0
M  V30 2078 C 187.108 -1.09959 4.90117 0
M  V30 2079 C 189.102 0.174002 6.37162 0
M  V30 2080 C 186.789 -0.456055 6.09396 0
M  V30 2081 C 187.787 0.179622 6.82764 0
M  V30 2082 O 187.475 0.812975 7.99779 0
M  V30 2083 H 187.207 -0.261813 0.623242 0
M  V30 2084 H 189.761 -0.157383 2.04796 0
M  V30 2085 H 187.991 -2.56926 2.89009 0
M  V30 2086 H 189.68 -2.40018 3.27332 0
M  V30 2087 H 190.446 -0.463427 4.82781 0
M  V30 2088 H 186.325 -1.58378 4.3294 0
M  V30 2089 H 189.869 0.670765 6.94368 0
M  V30 2090 H 185.766 -0.455975 6.43888 0
M  V30 2091 H 186.534 0.71366 8.15383 0
M  V30 2092 N 189.197 -1.51736 -0.425897 0
M  V30 2093 C 190.474 -1.55519 -1.1863 0
M  V30 2094 C 190.854 -0.326219 -2.08564 0
M  V30 2095 O 190.202 0.688012 -2.17896 0
M  V30 2096 C 190.412 -2.87521 -1.9782 0
M  V30 2097 C 191.76 -3.39899 -2.54468 0
M  V30 2098 O 192.784 -2.89148 -2.08019 0
M  V30 2099 O 191.643 -4.2848 -3.39215 0
M  V30 2100 H 188.737 -0.625739 -0.540721 0
M  V30 2101 H 191.283 -1.64055 -0.434038 0
M  V30 2102 H 190.055 -3.68422 -1.31836 0
M  V30 2103 H 189.678 -2.822 -2.80088 0
M  V30 2104 N 190.675 0.682077 -1.42076 0
M  V30 2105 C 191.623 1.81707 -1.45208 0
M  V30 2106 C 192.617 1.66183 -0.328591 0
M  V30 2107 O 193.823 1.7288 -0.501264 0
M  V30 2108 H 190.198 0.599014 -0.454628 0
M  V30 2109 H 192.169 1.76183 -2.40836 0
M  V30 2110 C 190.918 3.19816 -1.36428 0
M  V30 2111 H 190.241 3.32385 -2.22171 0
M  V30 2112 H 191.681 3.99272 -1.42681 0
M  V30 2113 C 190.14 3.36809 -0.078191 0
M  V30 2114 O 190.67 3.92124 0.87188 0
M  V30 2115 N 188.876 2.906 0.00229266 0
M  V30 2116 H 188.423 2.45772 -0.771616 0
M  V30 2117 H 188.381 3.02347 0.862179 0
M  V30 2118 N 192.153 1.28127 0.917671 0
M  V30 2119 C 193.393 1.163 1.68088 0
M  V30 2120 C 193.757 -0.284515 1.8988 0
M  V30 2121 O 194.958 -0.525413 2.63615 0
M  V30 2122 C 193.229 1.93546 3.00457 0
M  V30 2123 S 194.788 1.98048 3.91564 0
M  V30 2124 H 191.606 0.415005 0.577315 0
M  V30 2125 H 194.208 1.62173 1.09179 0
M  V30 2126 H 192.912 2.97888 2.82295 0
M  V30 2127 H 192.443 1.48207 3.64415 0
M  V30 2128 H 194.458 1.08415 4.84211 0
M  V30 2129 N 193.631 -1.12557 1.10312 0
M  V30 2130 C 194.879 -1.83675 0.843091 0
M  V30 2131 C 195.2 -1.84435 -0.633131 0
M  V30 2132 O 194.47 -1.30657 -1.45964 0
M  V30 2133 H 193.05 -0.680138 0.308904 0
M  V30 2134 H 195.712 -1.36301 1.39313 0
M  V30 2135 H 194.808 -2.87908 1.2048 0
M  V30 2136 N 195.109 -0.891671 -1.2995 0
M  V30 2137 C 196.386 -0.433307 -1.9074 0
M  V30 2138 C 196.766 1.08646 -1.80995 0
M  V30 2139 O 196.114 1.92476 -1.23147 0
M  V30 2140 C 196.324 -0.938895 -3.36134 0
M  V30 2141 C 197.672 -0.977829 -4.13187 0
M  V30 2142 O 198.696 -0.886015 -3.45005 0
M  V30 2143 O 197.555 -1.11453 -5.35015 0
M  V30 2144 H 194.649 -0.133699 -0.816121 0
M  V30 2145 H 197.195 -0.981011 -1.38471 0
M  V30 2146 H 195.967 -1.98281 -3.37343 0
M  V30 2147 H 195.59 -0.37074 -3.95868 0
M  V30 2148 N 196.587 1.43421 -0.653314 0
M  V30 2149 C 197.998 1.85065 -0.246537 0
M  V30 2150 C 198.349 1.54688 1.2069 0
M  V30 2151 O 197.474 0.995896 1.92122 0
M  V30 2152 C 198.069 3.35922 -0.440666 0
M  V30 2153 C 196.628 3.76297 -0.0882064 0
M  V30 2154 C 195.775 2.67147 -0.743484 0
M  V30 2155 H 198.726 1.33572 -0.856979 0
M  V30 2156 H 198.747 3.79204 0.313798 0
M  V30 2157 H 198.259 3.58 -1.49858 0
M  V30 2158 H 196.36 3.5983 0.96711 0
M  V30 2159 H 196.473 4.76338 -0.513738 0
M  V30 2160 H 194.837 2.54086 -0.176712 0
M  V30 2161 H 195.62 2.92053 -1.80443 0
M  V30 2162 N 198.065 0.39524 1.52563 0
M  V30 2163 C 199.028 -0.425001 2.25225 0
M  V30 2164 C 200.028 -0.985266 1.27079 0
M  V30 2165 O 201.218 -0.866332 1.5113 0
M  V30 2166 C 198.35 -1.59686 3.01186 0
M  V30 2167 H 199.543 0.211233 2.99155 0
M  V30 2168 H 197.096 0.147472 1.55603 0
M  V30 2169 H 197.831 -2.27035 2.31572 0
M  V30 2170 H 197.616 -1.20176 3.73229 0
M  V30 2171 H 199.106 -2.17743 3.5634 0
M  V30 2172 N 199.544 -1.57102 0.125237 0
M  V30 2173 C 200.454 -2.19191 -0.8362 0
M  V30 2174 C 201.47 -1.16985 -1.28805 0
M  V30 2175 O 202.646 -1.49479 -1.34974 0
M  V30 2176 C 199.711 -2.78407 -2.06617 0
M  V30 2177 C 198.772 -3.9567 -1.66565 0
M  V30 2178 C 198.005 -4.52052 -2.83698 0
M  V30 2179 O 198.228 -4.07326 -3.99302 0
M  V30 2180 O 197.162 -5.42645 -2.60423 0
M  V30 2181 H 200.988 -3.01816 -0.337776 0
M  V30 2182 H 198.573 -1.4906 -0.100695 0
M  V30 2183 H 200.455 -3.16129 -2.7864 0
M  V30 2184 H 199.13 -1.9881 -2.55453 0
M  V30 2185 H 198.037 -3.62705 -0.916296 0
M  V30 2186 H 199.37 -4.76722 -1.22464 0
M  V30 2187 N 201.022 0.148545 -1.56898 0
M  V30 2188 C 201.969 1.18345 -1.98149 0
M  V30 2189 C 202.939 1.42772 -0.848848 0
M  V30 2190 O 204.124 1.55132 -1.11079 0
M  V30 2191 C 201.264 2.51231 -2.36594 0
M  V30 2192 C 200.377 2.33991 -3.63142 0
M  V30 2193 C 199.512 3.59902 -3.90697 0
M  V30 2194 C 198.551 3.37692 -5.1052 0
M  V30 2195 N 197.688 4.5573 -5.34092 0
M  V30 2196 H 202.528 0.82467 -2.86362 0
M  V30 2197 H 200.065 0.395756 -1.41676 0
M  V30 2198 H 202.023 3.28713 -2.56912 0
M  V30 2199 H 200.653 2.85059 -1.51463 0
M  V30 2200 H 199.705 1.47572 -3.50609 0
M  V30 2201 H 201.017 2.13539 -4.5078 0
M  V30 2202 H 200.171 4.45813 -4.11505 0
M  V30 2203 H 198.91 3.83357 -3.01477 0
M  V30 2204 H 197.915 2.5017 -4.89587 0
M  V30 2205 H 199.14 3.15637 -6.0129 0
M  V30 2206 H 197.086 4.79361 -4.47827 0
M  V30 2207 H 197.003 4.38274 -6.15996 0
M  V30 2208 H 198.271 5.42858 -5.59397 0
M  V30 2209 N 202.5 1.5196 0.417844 0
M  V30 2210 C 203.41 1.77554 1.53336 0
M  V30 2211 C 204.426 0.660655 1.6097 0
M  V30 2212 O 205.602 0.945099 1.77848 0
M  V30 2213 C 202.667 1.91291 2.89152 0
M  V30 2214 C 201.728 3.15183 2.91475 0
M  V30 2215 C 200.961 3.28256 4.20813 0
M  V30 2216 O 201.184 2.46798 5.14244 0
M  V30 2217 O 200.118 4.21356 4.29817 0
M  V30 2218 H 203.944 2.7222 1.34647 0
M  V30 2219 H 201.529 1.36698 0.602828 0
M  V30 2220 H 203.411 2.02199 3.69721 0
M  V30 2221 H 202.086 0.998129 3.07927 0
M  V30 2222 H 200.993 3.09739 2.09791 0
M  V30 2223 H 202.326 4.06414 2.77648 0
M  V30 2224 N 203.978 -0.674533 1.42435 0
M  V30 2225 C 205.224 -1.43671 1.43131 0
M  V30 2226 C 205.557 -1.94142 0.0476021 0
M  V30 2227 O 204.832 -1.70924 -0.928188 0
M  V30 2228 C 205.115 -2.63355 2.45594 0
M  V30 2229 C 204.968 -2.18514 3.93156 0
M  V30 2230 C 206.287 -3.65571 2.45043 0
M  V30 2231 H 203.406 -0.521077 0.521198 0
M  V30 2232 H 206.048 -0.766551 1.7385 0
M  V30 2233 H 204.198 -3.2053 2.19528 0
M  V30 2234 H 205.87 -1.66504 4.30202 0
M  V30 2235 H 204.113 -1.50086 4.07009 0
M  V30 2236 H 204.784 -3.04484 4.60428 0
M  V30 2237 H 207.26 -3.18113 2.68223 0
M  V30 2238 H 206.136 -4.46893 3.18713 0
M  V30 2239 H 206.397 -4.16716 1.47649 0
M  V30 2240 N 205.456 -1.28612 -0.910864 0
M  V30 2241 C 206.684 -1.18792 -1.69399 0
M  V30 2242 C 207.099 0.253039 -1.87097 0
M  V30 2243 O 206.456 1.17071 -1.40003 0
M  V30 2244 C 206.507 -1.88511 -3.08457 0
M  V30 2245 O 206.228 -3.26979 -2.91576 0
M  V30 2246 C 207.729 -1.85029 -4.02839 0
M  V30 2247 H 204.949 -0.412233 -0.529438 0
M  V30 2248 H 207.493 -1.69788 -1.13984 0
M  V30 2249 H 205.648 -1.41379 -3.60681 0
M  V30 2250 H 206.062 -3.61936 -3.79608 0
M  V30 2251 H 207.536 -2.38395 -4.97867 0
M  V30 2252 H 208.013 -0.823303 -4.31414 0
M  V30 2253 H 208.619 -2.31853 -3.56545 0
M  V30 2254 N 206.934 1.1197 -1.10907 0
M  V30 2255 C 208.35 1.35591 -0.841852 0
M  V30 2256 C 208.55 1.94233 0.536246 0
M  V30 2257 O 207.606 2.1717 1.28816 0
M  V30 2258 C 208.919 2.29284 -1.94549 0
M  V30 2259 C 210.467 2.42862 -1.97451 0
M  V30 2260 C 210.942 3.39873 -3.07002 0
M  V30 2261 N 212.433 3.47433 -3.06341 0
M  V30 2262 C 213.168 4.22421 -3.87748 0
M  V30 2263 N 212.664 5.00432 -4.79103 0
M  V30 2264 N 214.457 4.17876 -3.75946 0
M  V30 2265 H 206.608 0.722664 -1.99728 0
M  V30 2266 H 208.871 0.380635 -0.868229 0
M  V30 2267 H 208.577 1.93378 -2.93765 0
M  V30 2268 H 208.451 3.29452 -1.83688 0
M  V30 2269 H 210.838 2.78046 -0.988645 0
M  V30 2270 H 210.919 1.42566 -2.12388 0
M  V30 2271 H 210.563 3.05417 -4.05811 0
M  V30 2272 H 210.493 4.40011 -2.89306 0
M  V30 2273 H 212.984 2.91784 -2.40147 0
M  V30 2274 H 213.297 5.55002 -5.37766 0
M  V30 2275 H 211.642 4.99612 -4.83128 0
M  V30 2276 H 214.833 3.56016 -3.03924 0
M  V30 2277 H 215.006 4.76061 -4.39624 0
M  V30 2278 N 208.412 0.89855 1.29475 0
M  V30 2279 C 209.342 0.39201 2.30186 0
M  V30 2280 C 210.323 -0.532359 1.61555 0
M  V30 2281 O 211.508 -0.443331 1.89072 0
M  V30 2282 C 208.638 -0.382353 3.45189 0
M  V30 2283 C 207.592 0.451483 4.25612 0
M  V30 2284 C 206.918 -0.450307 5.328 0
M  V30 2285 C 208.218 1.70079 4.93832 0
M  V30 2286 H 209.912 1.23362 2.72804 0
M  V30 2287 H 207.458 0.594638 1.31149 0
M  V30 2288 H 209.411 -0.747451 4.14718 0
M  V30 2289 H 208.135 -1.25774 3.01411 0
M  V30 2290 H 206.794 0.798897 3.57789 0
M  V30 2291 H 206.442 -1.32379 4.85268 0
M  V30 2292 H 206.142 0.103902 5.87508 0
M  V30 2293 H 207.666 -0.811623 6.05182 0
M  V30 2294 H 209.08 1.40549 5.55805 0
M  V30 2295 H 207.477 2.19623 5.58467 0
M  V30 2296 H 208.547 2.43744 4.19186 0
M  V30 2297 N 209.89 -1.43072 0.660911 0
M  V30 2298 C 210.853 -2.29194 -0.0166406 0
M  V30 2299 C 211.853 -1.42609 -0.742912 0
M  V30 2300 O 213.043 -1.64155 -0.583004 0
M  V30 2301 C 210.175 -3.24831 -1.0343 0
M  V30 2302 H 211.368 -2.90596 0.741208 0
M  V30 2303 H 208.921 -1.5048 0.422532 0
M  V30 2304 H 209.656 -2.68339 -1.82111 0
M  V30 2305 H 209.441 -3.88676 -0.517082 0
M  V30 2306 H 210.931 -3.89451 -1.50723 0
M  V30 2307 N 211.368 -0.403325 -1.52352 0
M  V30 2308 C 212.316 0.439752 -2.28405 0
M  V30 2309 C 213.31 1.05089 -1.32863 0
M  V30 2310 O 214.516 0.989759 -1.50345 0
M  V30 2311 H 210.891 0.160587 -0.734653 0
M  V30 2312 H 212.862 -0.222983 -2.97566 0
M  V30 2313 C 211.611 1.54736 -3.11371 0
M  V30 2314 H 210.934 1.08643 -3.84755 0
M  V30 2315 H 212.374 2.1112 -3.67701 0
M  V30 2316 C 210.833 2.51141 -2.24566 0
M  V30 2317 O 211.363 3.54887 -1.88196 0
M  V30 2318 N 209.569 2.21213 -1.8845 0
M  V30 2319 H 209.116 1.36878 -2.18225 0
M  V30 2320 H 209.074 2.85963 -1.30662 0
M  V30 2321 N 212.846 1.57033 -0.133567 0
M  V30 2322 C 213.796 2.12641 0.822671 0
M  V30 2323 C 214.78 1.05081 1.21847 0
M  V30 2324 O 215.972 1.31287 1.18713 0
M  V30 2325 C 213.101 2.74094 2.06706 0
M  V30 2326 C 212.187 3.88757 1.69497 0
M  V30 2327 N 212.578 4.95194 1.03037 0
M  V30 2328 C 210.876 3.99213 1.98859 0
M  V30 2329 C 211.577 5.75414 0.852873 0
M  V30 2330 N 210.553 5.25726 1.3825 0
M  V30 2331 H 214.355 2.92308 0.305537 0
M  V30 2332 H 211.869 1.62256 0.0684276 0
M  V30 2333 H 213.866 3.12285 2.76195 0
M  V30 2334 H 212.526 1.95896 2.5895 0
M  V30 2335 H 213.537 5.13247 0.692669 0
M  V30 2336 H 210.214 3.32075 2.53047 0
M  V30 2337 H 211.604 6.71089 0.330091 0
M  V30 2338 N 214.325 -0.140222 1.56975 0
M  V30 2339 C 215.255 -1.17456 2.01808 0
M  V30 2340 C 216.236 -1.44415 0.898794 0
M  V30 2341 O 217.421 -1.5522 1.16707 0
M  V30 2342 C 214.551 -2.50607 2.40444 0
M  V30 2343 C 213.505 -2.38155 3.55621 0
M  V30 2344 C 212.831 -3.76078 3.80091 0
M  V30 2345 C 214.131 -1.85991 4.88062 0
M  V30 2346 H 215.825 -0.801743 2.88466 0
M  V30 2347 H 213.371 -0.38422 1.38779 0
M  V30 2348 H 215.324 -3.23197 2.7041 0
M  V30 2349 H 214.048 -2.89737 1.50732 0
M  V30 2350 H 212.707 -1.68016 3.25832 0
M  V30 2351 H 212.355 -4.12656 2.87618 0
M  V30 2352 H 212.055 -3.68606 4.57606 0
M  V30 2353 H 213.579 -4.50206 4.12488 0
M  V30 2354 H 214.993 -2.4838 5.16701 0
M  V30 2355 H 213.39 -1.89393 5.6943 0
M  V30 2356 H 214.46 -0.816023 4.77984 0
M  V30 2357 N 215.803 -1.52179 -0.40978 0
M  V30 2358 C 217.051 -1.65878 -1.15451 0
M  V30 2359 C 217.372 -0.390771 -1.91044 0
M  V30 2360 O 216.642 0.594323 -1.86667 0
M  V30 2361 H 215.222 -0.611405 -0.429177 0
M  V30 2362 H 217.884 -1.89219 -0.467134 0
M  V30 2363 H 216.98 -2.49954 -1.86894 0
M  V30 2364 N 217.281 0.66697 -1.42791 0
M  V30 2365 C 218.527 1.42754 -1.44889 0
M  V30 2366 C 218.882 1.92283 -0.0669755 0
M  V30 2367 O 218.175 1.68494 0.912154 0
M  V30 2368 C 218.369 2.6349 -2.4147 0
M  V30 2369 C 218.198 2.25776 -3.88915 0
M  V30 2370 C 216.968 2.1476 -4.57391 0
M  V30 2371 C 219.166 1.86927 -4.79127 0
M  V30 2372 N 217.148 1.70232 -5.89826 0
M  V30 2373 C 218.519 1.53378 -6.00729 0
M  V30 2374 C 220.574 1.73989 -4.66511 0
M  V30 2375 C 219.277 1.08187 -7.11117 0
M  V30 2376 C 221.303 1.30203 -5.76889 0
M  V30 2377 C 220.665 0.975818 -6.97608 0
M  V30 2378 H 216.764 0.518559 -0.585338 0
M  V30 2379 H 219.348 0.768906 -1.78874 0
M  V30 2380 H 217.519 3.27033 -2.09533 0
M  V30 2381 H 219.251 3.30123 -2.34096 0
M  V30 2382 H 216.006 2.3408 -4.11708 0
M  V30 2383 H 216.43 1.50369 -6.6009 0
M  V30 2384 H 221.072 1.97853 -3.7365 0
M  V30 2385 H 218.79 0.830701 -8.03819 0
M  V30 2386 H 222.376 1.20701 -5.69142 0
M  V30 2387 H 221.256 0.642157 -7.81566 0
M  V30 2388 N 218.759 1.29093 0.90403 0
M  V30 2389 C 219.706 1.13853 2.00764 0
M  V30 2390 C 220.676 0.0330084 1.66067 0
M  V30 2391 O 221.861 0.199733 1.89752 0
M  V30 2392 C 219.001 0.816537 3.35301 0
M  V30 2393 C 218.114 2.00206 3.82807 0
M  V30 2394 C 217.249 1.61983 5.059 0
M  V30 2395 C 216.288 2.77143 5.45764 0
M  V30 2396 N 215.425 2.39346 6.60044 0
M  V30 2397 H 220.265 2.08276 2.13132 0
M  V30 2398 H 217.802 1.03648 1.04381 0
M  V30 2399 H 219.76 0.610557 4.12708 0
M  V30 2400 H 218.39 -0.090779 3.22672 0
M  V30 2401 H 217.442 2.31988 3.01473 0
M  V30 2402 H 218.754 2.86512 4.08304 0
M  V30 2403 H 217.908 1.37649 5.90879 0
M  V30 2404 H 216.647 0.728202 4.82233 0
M  V30 2405 H 215.652 3.02165 4.59322 0
M  V30 2406 H 216.877 3.66964 5.71414 0
M  V30 2407 H 214.823 1.52665 6.37989 0
M  V30 2408 H 214.74 3.19185 6.85315 0
M  V30 2409 H 216.008 2.1832 7.48303 0
M  V30 2410 N 220.237 -1.11381 1.11499 0
M  V30 2411 C 221.485 -1.8277 0.862524 0
M  V30 2412 C 221.806 -1.85097 -0.613534 0
M  V30 2413 O 221.076 -1.32198 -1.4457 0
M  V30 2414 H 219.656 -0.676823 0.316101 0
M  V30 2415 H 222.318 -1.34816 1.4075 0
M  V30 2416 H 221.414 -2.86614 1.23527 0
M  V30 2417 N 221.715 -0.905404 -1.28997 0
M  V30 2418 C 222.662 -0.385892 -2.27551 0
M  V30 2419 C 223.632 0.535113 -1.57244 0
M  V30 2420 O 224.817 0.459119 -1.85194 0
M  V30 2421 C 221.957 0.375461 -3.43051 0
M  V30 2422 C 221.07 -0.577092 -4.28128 0
M  V30 2423 C 220.205 0.201879 -5.30816 0
M  V30 2424 C 219.244 -0.744829 -6.07551 0
M  V30 2425 N 218.381 9.42587e-05 -7.021 0
M  V30 2426 H 223.221 -1.23139 -2.71368 0
M  V30 2427 H 220.758 -0.618542 -1.33463 0
M  V30 2428 H 222.716 0.832992 -4.088 0
M  V30 2429 H 221.346 1.18537 -3.00248 0
M  V30 2430 H 220.398 -1.15315 -3.62501 0
M  V30 2431 H 221.71 -1.30152 -4.8152 0
M  V30 2432 H 220.864 0.720351 -6.02408 0
M  V30 2433 H 219.603 0.959413 -4.7817 0
M  V30 2434 H 218.608 -1.27475 -5.34818 0
M  V30 2435 H 219.833 -1.50178 -6.62286 0
M  V30 2436 H 217.779 0.739791 -6.51815 0
M  V30 2437 H 217.696 -0.664321 -7.53076 0
M  V30 2438 H 218.964 0.498644 -7.77903 0
M  V30 2439 N 223.193 1.4272 -0.668489 0
M  V30 2440 C 224.441 2.01226 -0.187769 0
M  V30 2441 C 224.762 1.53092 1.2078 0
M  V30 2442 O 224.032 0.74993 1.80977 0
M  V30 2443 H 222.612 0.744041 -0.0664272 0
M  V30 2444 H 225.274 1.74723 -0.863583 0
M  V30 2445 H 224.37 3.11556 -0.184166 0
M  V30 2446 N 224.671 0.411399 1.52136 0
M  V30 2447 C 225.899 -0.163076 2.06256 0
M  V30 2448 C 226.314 -1.3867 1.28125 0
M  V30 2449 O 225.671 -1.79423 0.333721 0
M  V30 2450 C 225.722 -0.511252 3.57867 0
M  V30 2451 O 225.443 0.66378 4.33042 0
M  V30 2452 C 226.944 -1.13921 4.28412 0
M  V30 2453 H 224.164 -0.0193897 0.67072 0
M  V30 2454 H 226.708 0.583007 1.96013 0
M  V30 2455 H 224.863 -1.20723 3.6811 0
M  V30 2456 H 225.277 0.372601 5.23175 0
M  V30 2457 H 226.751 -1.33302 5.35663 0
M  V30 2458 H 227.228 -2.11296 3.85033 0
M  V30 2459 H 227.834 -0.483373 4.22544 0
M  V30 2460 N 226.149 -1.5696 0.141893 0
M  V30 2461 C 227.097 -2.17784 -0.816874 0
M  V30 2462 C 228.091 -1.1334 -1.25899 0
M  V30 2463 O 229.297 -1.316 -1.22806 0
M  V30 2464 H 225.672 -0.697278 -0.281615 0
M  V30 2465 H 227.643 -2.97087 -0.279621 0
M  V30 2466 C 226.392 -2.80983 -2.04802 0
M  V30 2467 H 225.715 -3.61062 -1.7168 0
M  V30 2468 H 227.155 -3.2705 -2.69841 0
M  V30 2469 C 225.614 -1.79228 -2.8527 0
M  V30 2470 O 226.144 -1.25962 -3.8144 0
M  V30 2471 N 224.35 -1.48647 -2.49704 0
M  V30 2472 H 223.897 -1.92155 -1.71564 0
M  V30 2473 H 223.855 -0.808115 -3.03837 0
M  V30 2474 N 227.627 0.131896 -1.57047 0
M  V30 2475 C 228.874 0.841932 -1.84168 0
M  V30 2476 C 229.202 1.8048 -0.725066 0
M  V30 2477 O 228.457 1.93618 0.284692 0
M  V30 2478 C 228.756 1.63703 -3.17704 0
M  V30 2479 C 228.422 0.81961 -4.43388 0
M  V30 2480 C 227.084 0.594148 -4.77518 0
M  V30 2481 C 229.436 0.248977 -5.20605 0
M  V30 2482 C 226.764 -0.212409 -5.86315 0
M  V30 2483 C 229.116 -0.544701 -6.30251 0
M  V30 2484 C 227.78 -0.780599 -6.6292 0
M  V30 2485 H 227.05 0.308085 -0.673917 0
M  V30 2486 H 229.697 0.104867 -1.91213 0
M  V30 2487 H 228.002 2.44464 -3.06177 0
M  V30 2488 H 229.699 2.19015 -3.35907 0
M  V30 2489 H 226.289 1.00542 -4.16641 0
M  V30 2490 H 230.473 0.410408 -4.946 0
M  V30 2491 H 225.729 -0.404524 -6.1006 0
M  V30 2492 H 229.903 -0.993922 -6.89271 0
M  V30 2493 H 227.53 -1.40742 -7.47058 0
M  V30 2494 N 229.106 1.52395 0.401703 0
M  V30 2495 C 230.383 1.57387 1.16141 0
M  V30 2496 C 230.763 0.359359 2.08019 0
M  V30 2497 O 230.111 -0.65326 2.18963 0
M  V30 2498 C 230.321 2.90631 1.93221 0
M  V30 2499 C 231.669 3.43904 2.49028 0
M  V30 2500 O 232.693 2.92421 2.03393 0
M  V30 2501 O 231.552 4.33823 3.32356 0
M  V30 2502 H 228.646 0.634262 0.530698 0
M  V30 2503 H 231.192 1.64725 0.407883 0
M  V30 2504 H 229.964 3.70473 1.25958 0
M  V30 2505 H 229.587 2.8662 2.75563 0
M  V30 2506 N 230.584 -0.659388 1.43143 0
M  V30 2507 C 231.83 -1.42145 1.44647 0
M  V30 2508 C 232.163 -1.9408 0.0681907 0
M  V30 2509 O 231.438 -1.71899 -0.910007 0
M  V30 2510 C 231.721 -2.60735 2.48373 0
M  V30 2511 C 231.574 -2.14332 3.95451 0
M  V30 2512 C 232.893 -3.62951 2.48906 0
M  V30 2513 H 230.012 -0.51552 0.526696 0
M  V30 2514 H 232.654 -0.748069 1.74654 0
M  V30 2515 H 230.804 -3.18184 2.22916 0
M  V30 2516 H 232.476 -1.61932 4.31944 0
M  V30 2517 H 230.719 -1.4576 4.08578 0
M  V30 2518 H 231.39 -2.99583 4.63631 0
M  V30 2519 H 233.866 -3.1525 2.71582 0
M  V30 2520 H 232.742 -4.43487 3.23435 0
M  V30 2521 H 233.003 -4.15126 1.52061 0
M  V30 2522 N 232.062 -1.29571 -0.897171 0
M  V30 2523 C 232.992 -1.17473 -2.01798 0
M  V30 2524 C 233.973 -0.068323 -1.69963 0
M  V30 2525 O 235.158 -0.248239 -1.92607 0
M  V30 2526 C 232.288 -0.853099 -3.36659 0
M  V30 2527 C 231.242 -1.9161 -3.82713 0
M  V30 2528 C 230.568 -1.44773 -5.14728 0
M  V30 2529 C 231.868 -3.32535 -4.02763 0
M  V30 2530 H 233.562 -2.11237 -2.12177 0
M  V30 2531 H 231.108 -1.01699 -1.01948 0
M  V30 2532 H 233.061 -0.755165 -4.14578 0
M  V30 2533 H 231.785 0.120236 -3.26379 0
M  V30 2534 H 230.444 -2.00346 -3.07013 0
M  V30 2535 H 230.092 -0.462995 -5.00865 0
M  V30 2536 H 229.792 -2.15865 -5.46513 0
M  V30 2537 H 231.316 -1.36334 -5.95185 0
M  V30 2538 H 232.73 -3.26626 -4.71156 0
M  V30 2539 H 231.127 -4.01607 -4.45905 0
M  V30 2540 H 232.197 -3.75326 -3.07016 0
M  V30 2541 N 233.54 1.10788 -1.12088 0
M  V30 2542 C 234.951 1.64181 -0.88891 0
M  V30 2543 C 235.302 1.87508 0.577498 0
M  V30 2544 O 234.427 1.61434 1.44112 0
M  V30 2545 C 235.022 2.98257 -1.60712 0
M  V30 2546 C 233.581 3.4853 -1.42139 0
M  V30 2547 C 232.728 2.23208 -1.6454 0
M  V30 2548 H 235.679 0.943368 -1.27618 0
M  V30 2549 H 235.7 3.65552 -1.05604 0
M  V30 2550 H 235.212 2.81246 -2.67436 0
M  V30 2551 H 233.313 3.70692 -0.376552 0
M  V30 2552 H 233.426 4.26882 -2.17505 0
M  V30 2553 H 231.79 2.31169 -1.06925 0
M  V30 2554 H 232.573 2.08733 -2.72554 0
M  V30 2555 N 235.018 0.912232 1.28515 0
M  V30 2556 C 235.948 0.416403 2.29757 0
M  V30 2557 C 236.929 -0.515194 1.6211 0
M  V30 2558 O 238.114 -0.423253 1.89532 0
M  V30 2559 C 235.244 -0.34572 3.45575 0
M  V30 2560 C 234.198 0.496599 4.25109 0
M  V30 2561 C 233.524 -0.393771 5.33248 0
M  V30 2562 C 234.824 1.75307 4.92001 0
M  V30 2563 H 236.518 1.26249 2.7148 0
M  V30 2564 H 234.064 0.608515 1.30511 0
M  V30 2565 H 236.017 -0.703422 4.15488 0
M  V30 2566 H 234.741 -1.2257 3.02728 0
M  V30 2567 H 233.4 0.8368 3.56922 0
M  V30 2568 H 233.048 -1.27225 4.86644 0
M  V30 2569 H 232.748 0.166209 5.87365 0
M  V30 2570 H 234.272 -0.747389 6.06009 0
M  V30 2571 H 235.686 1.46437 5.54283 0
M  V30 2572 H 234.083 2.25534 5.56106 0
M  V30 2573 H 235.153 2.48176 4.16577 0
M  V30 2574 N 236.496 -1.42363 0.676048 0
M  V30 2575 C 237.745 -2.00745 0.196037 0
M  V30 2576 C 238.058 -1.54083 -1.20489 0
M  V30 2577 O 239.264 -2.04891 -1.78134 0
M  V30 2578 C 237.72 -3.58651 0.299616 0
M  V30 2579 C 237.328 -4.143 1.70468 0
M  V30 2580 C 239.072 -4.24326 -0.121619 0
M  V30 2581 C 236.979 -5.64574 1.76096 0
M  V30 2582 H 235.909 -0.750787 0.0695301 0
M  V30 2583 H 238.56 -1.63072 0.841412 0
M  V30 2584 H 236.942 -3.93833 -0.413673 0
M  V30 2585 H 238.116 -3.90575 2.44515 0
M  V30 2586 H 236.431 -3.61081 2.07387 0
M  V30 2587 H 239.028 -5.34607 -0.0997362 0
M  V30 2588 H 239.371 -3.99897 -1.15708 0
M  V30 2589 H 239.904 -3.94108 0.540706 0
M  V30 2590 H 236.643 -5.93804 2.77628 0
M  V30 2591 H 236.163 -5.90286 1.06406 0
M  V30 2592 H 237.842 -6.29013 1.51496 0
M  V30 2593 N 237.974 -0.419461 -1.51915 0
M  V30 2594 C 239.204 0.151915 -2.06041 0
M  V30 2595 C 239.612 1.38539 -1.28855 0
M  V30 2596 O 238.955 1.80592 -0.336463 0
M  V30 2597 C 239.017 0.557119 -3.55157 0
M  V30 2598 C 238.681 -0.567054 -4.53468 0
M  V30 2599 C 239.678 -1.43379 -4.99738 0
M  V30 2600 C 237.363 -0.742693 -4.96779 0
M  V30 2601 C 239.357 -2.46102 -5.87973 0
M  V30 2602 C 237.044 -1.77322 -5.84808 0
M  V30 2603 C 238.042 -2.63078 -6.30301 0
M  V30 2604 O 237.73 -3.64364 -7.16585 0
M  V30 2605 H 237.462 0.0193293 -0.675724 0
M  V30 2606 H 240.016 -0.592073 -1.96682 0
M  V30 2607 H 238.246 1.35355 -3.62238 0
M  V30 2608 H 239.935 1.05759 -3.9188 0
M  V30 2609 H 240.701 -1.30954 -4.66986 0
M  V30 2610 H 236.58 -0.0848307 -4.60922 0
M  V30 2611 H 240.124 -3.13071 -6.23404 0
M  V30 2612 H 236.021 -1.89773 -6.16974 0
M  V30 2613 H 236.789 -3.60731 -7.34721 0
M  V30 2614 N 239.452 1.56882 -0.150215 0
M  V30 2615 C 240.384 2.14057 0.819286 0
M  V30 2616 C 241.397 1.09082 1.20851 0
M  V30 2617 O 242.586 1.36347 1.15203 0
M  V30 2618 C 239.686 2.65102 2.11127 0
M  V30 2619 C 238.859 3.94511 1.88891 0
M  V30 2620 C 237.918 4.30834 3.02107 0
M  V30 2621 O 236.944 4.99099 2.73659 0
M  V30 2622 N 238.146 3.90676 4.29363 0
M  V30 2623 H 240.911 2.97871 0.330618 0
M  V30 2624 H 238.472 1.61866 0.0332538 0
M  V30 2625 H 240.464 2.86411 2.85921 0
M  V30 2626 H 239.034 1.85994 2.51247 0
M  V30 2627 H 238.254 3.81795 0.981152 0
M  V30 2628 H 239.542 4.7907 1.71376 0
M  V30 2629 H 238.94 3.35677 4.55343 0
M  V30 2630 H 237.497 4.1703 5.00928 0
M  V30 2631 N 240.93 -0.123565 1.57115 0
M  V30 2632 C 241.86 -1.15309 2.03042 0
M  V30 2633 C 242.841 -1.43454 0.914061 0
M  V30 2634 O 244.026 -1.53973 1.18347 0
M  V30 2635 C 241.156 -2.48043 2.43089 0
M  V30 2636 C 240.11 -2.3437 3.58127 0
M  V30 2637 C 239.436 -3.72026 3.84059 0
M  V30 2638 C 240.736 -1.80804 4.90007 0
M  V30 2639 H 242.43 -0.771102 2.893 0
M  V30 2640 H 239.976 -0.369479 1.39179 0
M  V30 2641 H 241.929 -3.20311 2.73823 0
M  V30 2642 H 240.653 -2.88122 1.53796 0
M  V30 2643 H 239.312 -1.64551 3.27595 0
M  V30 2644 H 238.96 -4.09582 2.91979 0
M  V30 2645 H 238.66 -3.63732 4.6149 0
M  V30 2646 H 240.184 -4.45806 4.1724 0
M  V30 2647 H 241.598 -2.42886 5.19307 0
M  V30 2648 H 239.995 -1.83343 5.71407 0
M  V30 2649 H 241.065 -0.76528 4.78823 0
M  V30 2650 N 242.408 -1.52605 -0.393616 0
M  V30 2651 C 243.819 -1.59417 -0.971761 0
M  V30 2652 C 244.17 -0.444173 -1.91106 0
M  V30 2653 O 243.295 0.433382 -2.12016 0
M  V30 2654 C 243.89 -2.88936 -1.76921 0
M  V30 2655 C 242.449 -2.98175 -2.29714 0
M  V30 2656 C 241.596 -2.54491 -1.10135 0
M  V30 2657 H 244.547 -1.57751 -0.173317 0
M  V30 2658 H 244.568 -2.75163 -2.62804 0
M  V30 2659 H 244.08 -3.72616 -1.08532 0
M  V30 2660 H 242.181 -2.19024 -3.01429 0
M  V30 2661 H 242.294 -4.02726 -2.59517 0
M  V30 2662 H 240.658 -2.08702 -1.45999 0
M  V30 2663 H 241.441 -3.4056 -0.432874 0
M  V30 2664 N 243.887 0.651787 -1.4349 0
M  V30 2665 C 244.835 1.78586 -1.49029 0
M  V30 2666 C 245.829 1.65448 -0.363767 0
M  V30 2667 O 247.035 1.71777 -0.537821 0
M  V30 2668 H 243.41 0.589236 -0.467231 0
M  V30 2669 H 245.381 1.71035 -2.44519 0
M  V30 2670 C 244.13 3.16851 -1.43181 0
M  V30 2671 H 243.453 3.27598 -2.29171 0
M  V30 2672 H 244.893 3.96156 -1.51118 0
M  V30 2673 C 243.352 3.36568 -0.149616 0
M  V30 2674 O 243.882 3.93885 0.788509 0
M  V30 2675 N 242.088 2.90539 -0.0593484 0
M  V30 2676 H 241.635 2.4408 -0.823575 0
M  V30 2677 H 241.593 3.04108 0.797853 0
M  V30 2678 N 245.365 1.30045 0.890287 0
M  V30 2679 C 246.275 1.17885 2.02831 0
M  V30 2680 C 247.291 0.0999609 1.73713 0
M  V30 2681 O 248.467 0.313867 1.98939 0
M  V30 2682 C 245.532 0.866079 3.35708 0
M  V30 2683 C 244.593 2.02979 3.78283 0
M  V30 2684 C 243.826 1.73184 5.0482 0
M  V30 2685 O 244.049 0.657237 5.66601 0
M  V30 2686 O 242.983 2.58267 5.43674 0
M  V30 2687 H 246.809 2.13474 2.16015 0
M  V30 2688 H 244.394 1.09587 1.01543 0
M  V30 2689 H 246.276 0.706623 4.15433 0
M  V30 2690 H 244.951 -0.0599443 3.23644 0
M  V30 2691 H 243.858 2.24454 2.99285 0
M  V30 2692 H 245.191 2.93734 3.94944 0
M  V30 2693 N 246.843 -1.10192 1.12674 0
M  V30 2694 C 248.068 -1.86523 0.906853 0
M  V30 2695 C 248.493 -1.80221 -0.538711 0
M  V30 2696 O 247.851 -1.17396 -1.38158 0
M  V30 2697 C 247.899 -3.32758 1.3894 0
M  V30 2698 O 247.003 -4.08449 0.5695 0
M  V30 2699 H 246.344 -0.578678 0.325619 0
M  V30 2700 H 248.874 -1.39203 1.49946 0
M  V30 2701 H 248.884 -3.83608 1.38958 0
M  V30 2702 H 247.559 -3.36661 2.44197 0
M  V30 2703 H 246.136 -3.67427 0.636528 0
M  V30 2704 N 248.321 -0.919034 -1.28029 0
M  V30 2705 C 249.567 -0.555757 -1.95036 0
M  V30 2706 C 249.9 0.899198 -1.72128 0
M  V30 2707 O 249.175 1.64023 -1.04531 0
M  V30 2708 C 249.458 -0.872024 -3.49382 0
M  V30 2709 C 249.311 -2.3801 -3.81669 0
M  V30 2710 C 250.63 -0.37185 -4.38526 0
M  V30 2711 H 247.749 -0.203386 -0.708381 0
M  V30 2712 H 250.391 -1.14924 -1.51303 0
M  V30 2713 H 248.541 -0.366946 -3.86763 0
M  V30 2714 H 250.213 -2.9562 -3.54128 0
M  V30 2715 H 248.456 -2.83289 -3.28526 0
M  V30 2716 H 249.127 -2.55192 -4.8947 0
M  V30 2717 H 251.603 -0.804602 -4.08247 0
M  V30 2718 H 250.479 -0.622173 -5.45362 0
M  V30 2719 H 250.74 0.727934 -4.36066 0
M  V30 2720 N 249.799 1.42003 -0.683588 0
M  V30 2721 C 250.746 2.30798 -0.0107309 0
M  V30 2722 C 251.716 1.4645 0.783688 0
M  V30 2723 O 252.901 1.75263 0.754156 0
M  V30 2724 C 250.041 3.3238 0.928306 0
M  V30 2725 C 249.154 4.31814 0.126776 0
M  V30 2726 C 248.289 5.20468 1.06236 0
M  V30 2727 C 247.328 6.11577 0.253035 0
M  V30 2728 N 246.465 6.92754 1.14179 0
M  V30 2729 H 251.305 2.8778 -0.773727 0
M  V30 2730 H 248.842 1.41745 -0.393283 0
M  V30 2731 H 250.8 3.89813 1.48666 0
M  V30 2732 H 249.43 2.76976 1.65783 0
M  V30 2733 H 248.482 3.76427 -0.54833 0
M  V30 2734 H 249.794 4.96276 -0.501192 0
M  V30 2735 H 248.948 5.82677 1.69035 0
M  V30 2736 H 247.687 4.56204 1.7242 0
M  V30 2737 H 246.692 5.48428 -0.388108 0
M  V30 2738 H 247.917 6.77892 -0.404839 0
M  V30 2739 H 245.863 6.3111 1.78987 0
M  V30 2740 H 245.78 7.53855 0.569111 0
M  V30 2741 H 247.048 7.59441 1.75697 0
M  V30 2742 N 251.277 0.427512 1.51691 0
M  V30 2743 C 252.524 -0.142229 2.02 0
M  V30 2744 C 252.852 -1.43566 1.31221 0
M  V30 2745 O 252.107 -1.91298 0.412744 0
M  V30 2746 C 252.406 -0.418249 3.54944 0
M  V30 2747 C 252.072 0.788187 4.43958 0
M  V30 2748 C 250.734 1.11906 4.68007 0
M  V30 2749 C 253.086 1.59347 4.96244 0
M  V30 2750 C 250.414 2.25608 5.41588 0
M  V30 2751 C 252.766 2.7214 5.71072 0
M  V30 2752 C 251.43 3.05692 5.93387 0
M  V30 2753 H 250.7 -0.0520451 0.73917 0
M  V30 2754 H 253.347 0.572697 1.82736 0
M  V30 2755 H 251.652 -1.21496 3.72486 0
M  V30 2756 H 253.349 -0.872339 3.91397 0
M  V30 2757 H 249.939 0.520344 4.2543 0
M  V30 2758 H 254.123 1.35106 4.77556 0
M  V30 2759 H 249.379 2.51929 5.57083 0
M  V30 2760 H 253.553 3.34914 6.10578 0
M  V30 2761 H 251.18 3.9391 6.50184 0
M  V30 2762 N 252.755 -1.56801 0.158532 0
M  V30 2763 C 253.985 -2.00568 -0.495583 0
M  V30 2764 C 254.393 -1.03774 -1.58201 0
M  V30 2765 O 253.736 -0.0285797 -1.83678 0
M  V30 2766 C 253.798 -3.40768 -1.14532 0
M  V30 2767 C 253.462 -4.56553 -0.202101 0
M  V30 2768 C 254.459 -5.16714 0.574675 0
M  V30 2769 C 252.144 -5.02197 -0.101648 0
M  V30 2770 C 254.138 -6.20939 1.43924 0
M  V30 2771 C 251.825 -6.06274 0.766508 0
M  V30 2772 C 252.823 -6.65515 1.53555 0
M  V30 2773 O 252.511 -7.67575 2.38922 0
M  V30 2774 H 252.243 -0.662893 -0.13247 0
M  V30 2775 H 254.797 -2.03829 0.253559 0
M  V30 2776 H 253.027 -3.34381 -1.94233 0
M  V30 2777 H 254.716 -3.6857 -1.70033 0
M  V30 2778 H 255.482 -4.82341 0.507167 0
M  V30 2779 H 251.361 -4.55807 -0.689994 0
M  V30 2780 H 254.905 -6.67107 2.03996 0
M  V30 2781 H 250.802 -6.40073 0.835266 0
M  V30 2782 H 251.57 -7.84844 2.32296 0
M  V30 2783 N 254.233 0.115231 -1.57178 0
M  V30 2784 C 255.143 1.15994 -2.03918 0
M  V30 2785 C 256.159 1.45103 -0.960268 0
M  V30 2786 O 257.335 1.56144 -1.27204 0
M  V30 2787 C 254.4 2.46568 -2.43732 0
M  V30 2788 C 253.461 2.24822 -3.65723 0
M  V30 2789 C 252.694 3.4917 -4.03629 0
M  V30 2790 O 252.917 4.56623 -3.41835 0
M  V30 2791 O 251.851 3.39949 -4.96708 0
M  V30 2792 H 255.677 0.793019 -2.93164 0
M  V30 2793 H 253.262 0.3263 -1.45793 0
M  V30 2794 H 255.144 3.23492 -2.70057 0
M  V30 2795 H 253.819 2.82726 -1.57631 0
M  V30 2796 H 252.726 1.45744 -3.44542 0
M  V30 2797 H 254.059 1.93566 -4.52541 0
M  V30 2798 N 255.711 1.52812 0.385517 0
M  V30 2799 C 256.941 1.71658 1.14966 0
M  V30 2800 C 257.349 0.436253 1.84102 0
M  V30 2801 O 256.692 -0.599313 1.73649 0
M  V30 2802 C 256.754 2.81309 2.23843 0
M  V30 2803 C 256.418 4.22313 1.74644 0
M  V30 2804 C 257.415 5.05352 1.22129 0
M  V30 2805 C 255.1 4.68648 1.80761 0
M  V30 2806 C 257.094 6.32807 0.763838 0
M  V30 2807 C 254.781 5.96086 1.34627 0
M  V30 2808 C 255.779 6.77996 0.825264 0
M  V30 2809 O 255.467 8.03045 0.370669 0
M  V30 2810 H 255.199 0.578022 0.350523 0
M  V30 2811 H 257.753 2.00263 0.456509 0
M  V30 2812 H 255.983 2.48133 2.96592 0
M  V30 2813 H 257.672 2.88524 2.85497 0
M  V30 2814 H 258.438 4.70736 1.16758 0
M  V30 2815 H 254.317 4.04979 2.20256 0
M  V30 2816 H 257.861 6.96689 0.356494 0
M  V30 2817 H 253.758 6.30205 1.39686 0
M  V30 2818 H 254.526 8.17021 0.491829 0
M  V30 2819 N 257.189 -0.644168 1.43834 0
M  V30 2820 C 258.6 -1.22554 1.40845 0
M  V30 2821 C 258.951 -1.9585 0.117115 0
M  V30 2822 O 258.076 -2.01734 -0.783086 0
M  V30 2823 C 258.671 -2.22907 2.55143 0
M  V30 2824 C 257.23 -2.76501 2.5539 0
M  V30 2825 C 256.377 -1.51287 2.32396 0
M  V30 2826 H 259.328 -0.43563 1.52604 0
M  V30 2827 H 259.349 -3.05259 2.2715 0
M  V30 2828 H 258.861 -1.69533 3.49114 0
M  V30 2829 H 256.962 -3.33914 1.65324 0
M  V30 2830 H 257.075 -3.23429 3.53455 0
M  V30 2831 H 255.439 -1.78957 1.81236 0
M  V30 2832 H 256.222 -0.998336 3.28463 0
M  V30 2833 N 258.668 -1.30515 -0.883378 0
M  V30 2834 C 259.896 -1.22359 -1.66841 0
M  V30 2835 C 260.311 0.213296 -1.87591 0
M  V30 2836 O 259.668 1.14075 -1.42454 0
M  V30 2837 C 259.719 -1.95011 -3.04389 0
M  V30 2838 O 259.44 -3.3309 -2.84575 0
M  V30 2839 C 260.941 -1.93532 -3.98824 0
M  V30 2840 H 258.161 -0.423371 -0.520575 0
M  V30 2841 H 260.705 -1.72167 -1.10357 0
M  V30 2842 H 258.86 -1.48997 -3.57601 0
M  V30 2843 H 259.274 -3.69907 -3.71846 0
M  V30 2844 H 260.748 -2.48902 -4.92699 0
M  V30 2845 H 261.225 -0.914627 -4.29571 0
M  V30 2846 H 261.831 -2.39364 -3.51547 0
M  V30 2847 N 260.146 1.09593 -1.13257 0
M  V30 2848 C 261.371 1.8604 -0.916732 0
M  V30 2849 C 261.796 1.80504 0.529146 0
M  V30 2850 O 261.154 1.18127 1.37534 0
M  V30 2851 C 261.202 3.32017 -1.40703 0
M  V30 2852 O 260.306 4.08141 -0.591153 0
M  V30 2853 H 259.647 0.576943 -0.328683 0
M  V30 2854 H 262.177 1.38405 -1.50682 0
M  V30 2855 H 262.187 3.82865 -1.4099 0
M  V30 2856 H 260.862 3.35361 -2.45979 0
M  V30 2857 H 259.439 3.67084 -0.656005 0
M  V30 2858 N 261.624 0.925811 1.2754 0
M  V30 2859 C 262.554 0.440748 2.29303 0
M  V30 2860 C 263.535 -0.497971 1.62648 0
M  V30 2861 O 264.72 -0.403126 1.8997 0
M  V30 2862 C 261.85 -0.309048 3.45922 0
M  V30 2863 C 260.804 0.54166 4.24559 0
M  V30 2864 C 260.13 -0.337191 5.33636 0
M  V30 2865 C 261.43 1.80516 4.90114 0
M  V30 2866 H 263.124 1.29121 2.70126 0
M  V30 2867 H 260.67 0.622323 1.29858 0
M  V30 2868 H 262.623 -0.659315 4.1621 0
M  V30 2869 H 261.347 -1.19352 3.04011 0
M  V30 2870 H 260.006 0.874609 3.56014 0
M  V30 2871 H 259.654 -1.22056 4.87966 0
M  V30 2872 H 259.354 0.228497 5.87156 0
M  V30 2873 H 260.878 -0.683072 6.06767 0
M  V30 2874 H 262.292 1.52307 5.52698 0
M  V30 2875 H 260.689 2.3142 5.53683 0
M  V30 2876 H 261.759 2.52581 4.13921 0
M  V30 2877 N 263.102 -1.41638 0.69111 0
M  V30 2878 C 264.351 -2.00526 0.217318 0
M  V30 2879 C 264.664 -1.55353 -1.18848 0
M  V30 2880 O 265.87 -2.06769 -1.75951 0
M  V30 2881 C 264.326 -3.58313 0.337639 0
M  V30 2882 C 263.934 -4.12469 1.74852 0
M  V30 2883 C 265.678 -4.24431 -0.0766066 0
M  V30 2884 C 263.585 -5.62675 1.82074 0
M  V30 2885 H 262.515 -0.750008 0.0774893 0
M  V30 2886 H 265.166 -1.6217 0.858661 0
M  V30 2887 H 263.548 -3.9425 -0.371879 0
M  V30 2888 H 264.722 -3.8796 2.48644 0
M  V30 2889 H 263.037 -3.58861 2.11205 0
M  V30 2890 H 265.634 -5.34683 -0.0430284 0
M  V30 2891 H 265.977 -4.01101 -1.1146 0
M  V30 2892 H 266.51 -3.93512 0.582476 0
M  V30 2893 H 263.249 -5.90826 2.83911 0
M  V30 2894 H 262.769 -5.89124 1.12661 0
M  V30 2895 H 264.448 -6.27371 1.58159 0
M  V30 2896 N 264.58 -0.43555 -1.51462 0
M  V30 2897 C 265.527 0.376797 -2.27703 0
M  V30 2898 C 266.497 1.01838 -1.31219 0
M  V30 2899 O 267.682 1.03762 -1.60119 0
M  V30 2900 C 264.822 1.47301 -3.12084 0
M  V30 2901 C 263.935 0.849744 -4.2356 0
M  V30 2902 C 263.07 1.92086 -4.95254 0
M  V30 2903 C 262.109 1.27593 -5.98654 0
M  V30 2904 N 261.246 2.28833 -6.63762 0
M  V30 2905 H 266.086 -0.279734 -2.96684 0
M  V30 2906 H 263.623 -0.149795 -1.46335 0
M  V30 2907 H 265.581 2.11984 -3.59331 0
M  V30 2908 H 264.211 2.0992 -2.45221 0
M  V30 2909 H 263.263 0.0912529 -3.80291 0
M  V30 2910 H 264.575 0.338878 -4.97648 0
M  V30 2911 H 263.729 2.64435 -5.46039 0
M  V30 2912 H 262.468 2.46545 -4.20793 0
M  V30 2913 H 261.473 0.537893 -5.47162 0
M  V30 2914 H 262.698 0.738693 -6.7507 0
M  V30 2915 H 260.644 2.82375 -5.92115 0
M  V30 2916 H 260.561 1.82632 -7.33608 0
M  V30 2917 H 261.829 3.00671 -7.19178 0
M  V30 2918 N 266.058 1.56714 -0.166846 0
M  V30 2919 C 266.968 2.21331 0.777791 0
M  V30 2920 C 267.984 1.20358 1.25658 0
M  V30 2921 O 269.16 1.53005 1.30964 0
M  V30 2922 C 266.225 2.83787 1.99163 0
M  V30 2923 C 265.286 3.99947 1.56016 0
M  V30 2924 C 264.519 4.59415 2.71613 0
M  V30 2925 O 264.742 4.17769 3.88362 0
M  V30 2926 O 263.676 5.49359 2.45945 0
M  V30 2927 H 267.502 3.02605 0.257636 0
M  V30 2928 H 265.087 1.49275 0.0611393 0
M  V30 2929 H 266.969 3.23405 2.70161 0
M  V30 2930 H 265.644 2.05513 2.50092 0
M  V30 2931 H 264.551 3.65007 0.819809 0
M  V30 2932 H 265.884 4.79801 1.09782 0
M  V30 2933 N 267.536 -0.106894 1.57237 0
M  V30 2934 C 268.782 -0.81373 1.85759 0
M  V30 2935 C 269.115 -1.78952 0.754315 0
M  V30 2936 O 268.39 -1.93029 -0.23879 0
M  V30 2937 C 268.673 -1.55293 3.24894 0
M  V30 2938 C 268.526 -0.595929 4.45835 0
M  V30 2939 C 269.845 -2.5063 3.61763 0
M  V30 2940 H 266.964 -0.294369 0.67566 0
M  V30 2941 H 269.606 -0.0776472 1.89841 0
M  V30 2942 H 267.756 -2.1804 3.21544 0
M  V30 2943 H 269.428 0.0236262 4.61294 0
M  V30 2944 H 267.671 0.0916191 4.33703 0
M  V30 2945 H 268.342 -1.15004 5.39887 0
M  V30 2946 H 270.818 -1.97982 3.65981 0
M  V30 2947 H 269.694 -2.99376 4.60071 0
M  V30 2948 H 269.955 -3.3385 2.89821 0
M  V30 2949 N 269.014 -1.53014 -0.377408 0
M  V30 2950 C 270.425 -1.60438 -0.954798 0
M  V30 2951 C 270.776 -0.464418 -1.90624 0
M  V30 2952 O 269.901 0.41087 -2.12464 0
M  V30 2953 C 270.496 -2.90797 -1.73847 0
M  V30 2954 C 269.055 -3.00595 -2.26538 0
M  V30 2955 C 268.202 -2.55645 -1.07429 0
M  V30 2956 H 271.153 -1.57926 -0.156575 0
M  V30 2957 H 271.174 -2.77935 -2.5987 0
M  V30 2958 H 270.686 -3.73746 -1.04574 0
M  V30 2959 H 268.787 -2.22208 -2.99089 0
M  V30 2960 H 268.9 -4.05456 -2.5523 0
M  V30 2961 H 267.264 -2.10239 -1.43777 0
M  V30 2962 H 268.047 -3.41 -0.396728 0
M  V30 2963 N 270.492 0.636531 -1.44174 0
M  V30 2964 C 271.741 1.39213 -1.45954 0
M  V30 2965 C 272.054 1.95374 -0.0939119 0
M  V30 2966 O 273.26 2.71498 0.0107767 0
M  V30 2967 C 271.716 2.52025 -2.56927 0
M  V30 2968 C 271.324 2.024 -3.99673 0
M  V30 2969 C 273.068 3.29269 -2.67922 0
M  V30 2970 C 270.975 3.12521 -5.0208 0
M  V30 2971 H 269.905 0.523132 -0.542999 0
M  V30 2972 H 272.556 0.685349 -1.70221 0
M  V30 2973 H 270.938 3.25253 -2.25891 0
M  V30 2974 H 272.112 1.36073 -4.40251 0
M  V30 2975 H 270.427 1.37987 -3.92872 0
M  V30 2976 H 273.024 4.11352 -3.41605 0
M  V30 2977 H 273.367 3.78397 -1.73555 0
M  V30 2978 H 273.9 2.63129 -2.98342 0
M  V30 2979 H 270.639 2.68343 -5.98057 0
M  V30 2980 H 270.159 3.77507 -4.66099 0
M  V30 2981 H 271.838 3.77385 -5.25538 0
M  V30 2982 N 271.97 1.30982 0.876444 0
M  V30 2983 C 272.88 1.2003 2.01569 0
M  V30 2984 C 273.896 0.11838 1.73597 0
M  V30 2985 O 275.072 0.33495 1.98595 0
M  V30 2986 C 272.137 0.901637 3.34771 0
M  V30 2987 C 271.198 2.06979 3.76109 0
M  V30 2988 C 270.431 1.78529 5.02954 0
M  V30 2989 O 270.654 0.717296 5.65872 0
M  V30 2990 O 269.588 2.64019 5.40905 0
M  V30 2991 H 273.414 2.15753 2.13739 0
M  V30 2992 H 270.999 1.10658 1.00375 0
M  V30 2993 H 272.881 0.750645 4.1466 0
M  V30 2994 H 271.556 -0.0256141 3.2369 0
M  V30 2995 H 270.463 2.27616 2.96887 0
M  V30 2996 H 271.796 2.97907 3.91807 0
M  V30 2997 N 273.449 -1.08991 1.13837 0
M  V30 2998 C 274.399 -2.1393 0.788535 0
M  V30 2999 C 275.383 -1.59396 -0.219516 0
M  V30 3000 O 276.575 -1.76985 -0.0227557 0
M  V30 3001 C 273.704 -3.42305 0.261147 0
M  V30 3002 C 272.79 -4.03736 1.29837 0
M  V30 3003 N 273.181 -4.39659 2.50067 0
M  V30 3004 C 271.479 -4.30993 1.1472 0
M  V30 3005 C 272.18 -4.88113 3.16419 0
M  V30 3006 N 271.156 -4.85846 2.43832 0
M  V30 3007 H 274.958 -2.39516 1.70322 0
M  V30 3008 H 272.472 -1.26263 1.02134 0
M  V30 3009 H 274.469 -4.16899 -0.0077405 0
M  V30 3010 H 273.129 -3.18172 -0.647805 0
M  V30 3011 H 274.14 -4.30878 2.8734 0
M  V30 3012 H 270.817 -4.16444 0.296773 0
M  V30 3013 H 272.207 -5.25336 4.18894 0
M  V30 3014 N 274.927 -0.932562 -1.27047 0
M  V30 3015 C 275.875 -0.42603 -2.28665 0
M  V30 3016 C 276.869 0.49219 -1.62092 0
M  V30 3017 O 278.075 0.371355 -1.76128 0
M  V30 3018 H 274.45 -0.119213 -0.742491 0
M  V30 3019 H 276.421 -1.29579 -2.68797 0
M  V30 3020 C 275.17 0.301426 -3.46391 0
M  V30 3021 H 274.493 -0.39595 -3.97834 0
M  V30 3022 H 275.933 0.6202 -4.1944 0
M  V30 3023 C 274.392 1.51616 -3.00856 0
M  V30 3024 O 274.922 2.61476 -3.04948 0
M  V30 3025 N 273.128 1.36969 -2.56296 0
M  V30 3026 H 272.675 0.475873 -2.53166 0
M  V30 3027 H 272.633 2.18368 -2.26192 0
M  V30 3028 N 276.405 1.4127 -0.698611 0
M  V30 3029 C 277.355 2.27997 -0.0119836 0
M  V30 3030 C 278.339 1.42363 0.749765 0
M  V30 3031 O 279.531 1.65607 0.624758 0
M  V30 3032 C 276.66 3.30702 0.921458 0
M  V30 3033 C 275.746 4.23814 0.155796 0
M  V30 3034 N 276.137 4.98572 -0.852015 0
M  V30 3035 C 274.435 4.44284 0.390836 0
M  V30 3036 C 275.136 5.66744 -1.3106 0
M  V30 3037 N 274.112 5.39867 -0.635944 0
M  V30 3038 H 277.914 2.83232 -0.784649 0
M  V30 3039 H 275.428 1.53518 -0.529711 0
M  V30 3040 H 277.425 3.91661 1.42854 0
M  V30 3041 H 276.085 2.77028 1.69369 0
M  V30 3042 H 277.096 5.03024 -1.23235 0
M  V30 3043 H 273.773 4.01614 1.14071 0
M  V30 3044 H 275.163 6.36672 -2.14707 0
M  V30 3045 N 277.883 0.443576 1.51229 0
M  V30 3046 C 279.113 -0.119117 2.06256 0
M  V30 3047 C 279.521 -1.36471 1.31043 0
M  V30 3048 O 278.864 -1.80034 0.365151 0
M  V30 3049 C 278.926 -0.500546 3.55998 0
M  V30 3050 C 278.59 0.639125 4.52509 0
M  V30 3051 C 279.587 1.51311 4.97394 0
M  V30 3052 C 277.272 0.821632 4.95535 0
M  V30 3053 C 279.266 2.55425 5.83984 0
M  V30 3054 C 276.953 1.86603 5.81913 0
M  V30 3055 C 277.951 2.73072 6.26036 0
M  V30 3056 O 277.639 3.75718 7.10698 0
M  V30 3057 H 277.371 -0.00857665 0.675946 0
M  V30 3058 H 279.925 0.623288 1.95715 0
M  V30 3059 H 278.155 -1.29575 3.64345 0
M  V30 3060 H 279.844 -0.995116 3.93513 0
M  V30 3061 H 280.61 1.38367 4.64844 0
M  V30 3062 H 276.489 0.158149 4.60729 0
M  V30 3063 H 280.033 3.22949 6.18344 0
M  V30 3064 H 275.93 1.99564 6.13876 0
M  V30 3065 H 276.698 3.72374 7.2889 0
M  V30 3066 N 279.361 -1.56624 0.175154 0
M  V30 3067 C 280.772 -1.83561 -0.340916 0
M  V30 3068 C 281.123 -1.09511 -1.62794 0
M  V30 3069 O 280.248 -0.349389 -2.13561 0
M  V30 3070 C 280.843 -3.32979 -0.625313 0
M  V30 3071 C 279.402 -3.60399 -1.08581 0
M  V30 3072 C 278.549 -2.77024 -0.123722 0
M  V30 3073 H 281.5 -1.53593 0.399344 0
M  V30 3074 H 281.521 -3.50666 -1.47694 0
M  V30 3075 H 281.033 -3.86847 0.311575 0
M  V30 3076 H 279.134 -3.11945 -2.03767 0
M  V30 3077 H 279.247 -4.68711 -0.992317 0
M  V30 3078 H 277.611 -2.46993 -0.621821 0
M  V30 3079 H 278.394 -3.33674 0.807256 0
M  V30 3080 N 280.839 0.0985539 -1.57292 0
M  V30 3081 C 281.786 1.11981 -2.01814 0
M  V30 3082 C 282.756 1.39999 -0.89384 0
M  V30 3083 O 283.941 1.5152 -1.15958 0
M  V30 3084 C 281.081 2.43577 -2.44467 0
M  V30 3085 C 280.194 2.2232 -3.70402 0
M  V30 3086 C 279.329 3.4729 -4.01949 0
M  V30 3087 C 278.368 3.2128 -5.21005 0
M  V30 3088 N 277.505 4.38507 -5.48321 0
M  V30 3089 H 282.345 0.733149 -2.88841 0
M  V30 3090 H 279.882 0.350482 -1.42864 0
M  V30 3091 H 281.84 3.20373 -2.6724 0
M  V30 3092 H 280.47 2.80097 -1.60455 0
M  V30 3093 H 279.522 1.36343 -3.55126 0
M  V30 3094 H 280.834 1.99089 -4.57345 0
M  V30 3095 H 279.988 4.32495 -4.25479 0
M  V30 3096 H 278.727 3.73572 -3.13521 0
M  V30 3097 H 277.732 2.34468 -4.97298 0
M  V30 3098 H 278.957 2.96348 -6.11028 0
M  V30 3099 H 276.903 4.64871 -4.62851 0
M  V30 3100 H 276.82 4.18455 -6.29628 0
M  V30 3101 H 278.088 5.24787 -5.76385 0
M  V30 3102 N 282.317 1.53212 0.369288 0
M  V30 3103 C 283.247 1.82365 1.45826 0
M  V30 3104 C 284.228 0.676907 1.56051 0
M  V30 3105 O 285.413 0.926401 1.70679 0
M  V30 3106 C 282.543 2.01023 2.83208 0
M  V30 3107 C 281.497 3.1678 2.8781 0
M  V30 3108 C 280.823 3.20724 4.27832 0
M  V30 3109 C 282.123 4.55447 2.55667 0
M  V30 3110 H 283.817 2.73559 1.21678 0
M  V30 3111 H 281.363 1.3163 0.583911 0
M  V30 3112 H 283.316 2.20001 3.59413 0
M  V30 3113 H 282.04 1.06536 3.08736 0
M  V30 3114 H 280.699 2.97616 2.14056 0
M  V30 3115 H 280.347 2.23882 4.50429 0
M  V30 3116 H 280.047 3.98496 4.31827 0
M  V30 3117 H 281.571 3.41881 5.05915 0
M  V30 3118 H 282.985 4.74611 3.21586 0
M  V30 3119 H 281.382 5.35432 2.70984 0
M  V30 3120 H 282.452 4.60812 1.5093 0
M  V30 3121 N 283.795 -0.628877 1.44509 0
M  V30 3122 C 285.211 -0.947305 1.28446 0
M  V30 3123 C 285.411 -2.00275 0.221872 0
M  V30 3124 O 284.467 -2.49447 -0.391471 0
M  V30 3125 C 285.78 -1.40843 2.65676 0
M  V30 3126 C 287.328 -1.52379 2.73404 0
M  V30 3127 C 287.803 -2.01875 4.11109 0
M  V30 3128 N 289.294 -2.09142 4.13296 0
M  V30 3129 C 290.029 -2.48615 5.16699 0
M  V30 3130 N 289.525 -2.87209 6.30462 0
M  V30 3131 N 291.318 -2.48768 5.04054 0
M  V30 3132 H 283.469 0.0690977 2.12288 0
M  V30 3133 H 285.732 -0.0317164 0.947469 0
M  V30 3134 H 285.438 -0.707206 3.44516 0
M  V30 3135 H 285.312 -2.37902 2.92716 0
M  V30 3136 H 287.699 -2.21598 1.9488 0
M  V30 3137 H 287.78 -0.536898 2.50102 0
M  V30 3138 H 287.424 -1.3325 4.90109 0
M  V30 3139 H 287.354 -3.0144 4.31789 0
M  V30 3140 H 289.845 -1.81991 3.31191 0
M  V30 3141 H 290.158 -3.16149 7.05174 0
M  V30 3142 H 288.503 -2.84955 6.33897 0
M  V30 3143 H 291.694 -2.18009 4.14234 0
M  V30 3144 H 291.867 -2.79207 5.84763 0
M  V30 3145 N 285.273 -1.31445 -0.869486 0
M  V30 3146 C 286.22 -1.19135 -1.97675 0
M  V30 3147 C 287.19 -0.0770266 -1.65921 0
M  V30 3148 O 288.375 -0.249972 -1.89155 0
M  V30 3149 C 285.515 -0.905149 -3.33018 0
M  V30 3150 C 284.628 -2.10285 -3.77365 0
M  V30 3151 C 283.763 -1.75339 -5.01427 0
M  V30 3152 C 282.802 -2.91515 -5.38224 0
M  V30 3153 N 281.939 -2.56762 -6.53466 0
M  V30 3154 H 286.779 -2.13853 -2.07535 0
M  V30 3155 H 284.316 -1.06379 -1.01597 0
M  V30 3156 H 286.274 -0.719765 -4.10944 0
M  V30 3157 H 284.904 0.00519624 -3.228 0
M  V30 3158 H 283.956 -2.39899 -2.95216 0
M  V30 3159 H 285.268 -2.97237 -4.00564 0
M  V30 3160 H 284.422 -1.53266 -5.87022 0
M  V30 3161 H 283.161 -0.855801 -4.80133 0
M  V30 3162 H 282.166 -3.14237 -4.51149 0
M  V30 3163 H 283.391 -3.81985 -5.61484 0
M  V30 3164 H 281.337 -1.69526 -6.33717 0
M  V30 3165 H 281.254 -3.37243 -6.76612 0
M  V30 3166 H 282.522 -2.38083 -7.42251 0
M  V30 3167 N 286.751 1.08385 -1.14413 0
M  V30 3168 C 287.681 2.17321 -0.854044 0
M  V30 3169 C 288.662 1.69024 0.191049 0
M  V30 3170 O 289.847 1.94141 0.0476779 0
M  V30 3171 C 286.977 3.45719 -0.330983 0
M  V30 3172 C 285.931 4.07409 -1.31155 0
M  V30 3173 C 285.257 5.30762 -0.64778 0
M  V30 3174 C 286.557 4.48665 -2.67388 0
M  V30 3175 H 288.251 2.41845 -1.76498 0
M  V30 3176 H 285.797 1.16233 -0.850051 0
M  V30 3177 H 287.75 4.21241 -0.115645 0
M  V30 3178 H 286.474 3.2075 0.615381 0
M  V30 3179 H 285.133 3.33919 -1.51306 0
M  V30 3180 H 284.781 5.02078 0.304398 0
M  V30 3181 H 284.481 5.72992 -1.30207 0
M  V30 3182 H 286.005 6.08998 -0.441972 0
M  V30 3183 H 287.419 5.15364 -2.51143 0
M  V30 3184 H 285.816 5.01814 -3.29093 0
M  V30 3185 H 286.886 3.60543 -3.24248 0
M  V30 3186 N 288.23 0.939286 1.26551 0
M  V30 3187 C 289.178 0.43815 2.28436 0
M  V30 3188 C 290.172 -0.483587 1.62351 0
M  V30 3189 O 291.378 -0.362009 1.76322 0
M  V30 3190 H 287.753 0.123149 0.741848 0
M  V30 3191 H 289.724 1.31002 2.68106 0
M  V30 3192 C 288.473 -0.283052 3.46546 0
M  V30 3193 H 287.796 0.417043 3.97619 0
M  V30 3194 H 289.236 -0.597948 4.19763 0
M  V30 3195 C 287.695 -1.50018 3.01656 0
M  V30 3196 O 288.225 -2.59855 3.0633 0
M  V30 3197 N 286.431 -1.35608 2.57019 0
M  V30 3198 H 285.978 -0.46244 2.53415 0
M  V30 3199 H 285.936 -2.17165 2.27347 0
M  V30 3200 N 289.708 -1.40897 0.706093 0
M  V30 3201 C 290.638 -2.33418 0.0620085 0
M  V30 3202 C 291.619 -1.52385 -0.755827 0
M  V30 3203 O 292.804 -1.80886 -0.706674 0
M  V30 3204 C 289.934 -3.36293 -0.867445 0
M  V30 3205 C 288.888 -4.27716 -0.155932 0
M  V30 3206 C 288.214 -5.2105 -1.20046 0
M  V30 3207 C 289.514 -5.12944 0.984149 0
M  V30 3208 H 291.208 -2.87527 0.83477 0
M  V30 3209 H 288.754 -1.38249 0.402875 0
M  V30 3210 H 290.707 -3.99949 -1.32735 0
M  V30 3211 H 289.431 -2.80556 -1.67199 0
M  V30 3212 H 288.09 -3.65498 0.284047 0
M  V30 3213 H 287.738 -4.61624 -1.99781 0
M  V30 3214 H 287.438 -5.83056 -0.729328 0
M  V30 3215 H 288.962 -5.87584 -1.66066 0
M  V30 3216 H 290.376 -5.70109 0.604048 0
M  V30 3217 H 288.773 -5.83945 1.38304 0
M  V30 3218 H 289.843 -4.49485 1.81911 0
M  V30 3219 N 291.186 -0.45159 -1.50991 0
M  V30 3220 C 292.133 0.352625 -2.2809 0
M  V30 3221 C 293.103 1.0044 -1.32291 0
M  V30 3222 O 294.288 1.02058 -1.6121 0
M  V30 3223 C 291.428 1.43983 -3.13629 0
M  V30 3224 C 290.541 0.804772 -4.24438 0
M  V30 3225 C 289.676 1.86822 -4.97263 0
M  V30 3226 C 288.715 1.21236 -5.99973 0
M  V30 3227 N 287.852 2.2178 -6.66152 0
M  V30 3228 H 292.692 -0.311186 -2.96371 0
M  V30 3229 H 290.229 -0.165308 -1.46168 0
M  V30 3230 H 292.187 2.08161 -3.61559 0
M  V30 3231 H 290.817 2.07307 -2.47434 0
M  V30 3232 H 289.869 0.0509129 -3.80366 0
M  V30 3233 H 291.181 0.286076 -4.97979 0
M  V30 3234 H 290.335 2.58628 -5.48813 0
M  V30 3235 H 289.074 2.42068 -4.23385 0
M  V30 3236 H 288.079 0.479828 -5.47702 0
M  V30 3237 H 289.304 0.667051 -6.75816 0
M  V30 3238 H 287.25 2.76079 -5.95077 0
M  V30 3239 H 287.167 1.74841 -7.35504 0
M  V30 3240 H 288.435 2.93026 -7.22327 0
M  V30 3241 N 292.664 1.56529 -0.183458 0
M  V30 3242 C 293.91 1.98304 0.452466 0
M  V30 3243 C 294.265 1.06799 1.60037 0
M  V30 3244 O 293.558 0.110049 1.91284 0
M  V30 3245 C 293.752 3.43939 0.971637 0
M  V30 3246 C 293.581 4.49528 -0.124425 0
M  V30 3247 C 292.351 5.01981 -0.578168 0
M  V30 3248 C 294.549 5.05836 -0.929207 0
M  V30 3249 N 292.531 5.91219 -1.65327 0
M  V30 3250 C 293.902 5.91632 -1.85396 0
M  V30 3251 C 295.957 4.88302 -0.972929 0
M  V30 3252 C 294.66 6.61768 -2.81878 0
M  V30 3253 C 296.686 5.59168 -1.92574 0
M  V30 3254 C 296.048 6.44701 -2.83795 0
M  V30 3255 H 292.147 0.770551 0.133324 0
M  V30 3256 H 294.731 1.92581 -0.286473 0
M  V30 3257 H 292.902 3.50184 1.68006 0
M  V30 3258 H 294.634 3.72702 1.5772 0
M  V30 3259 H 291.389 4.73282 -0.173639 0
M  V30 3260 H 291.813 6.40543 -2.19167 0
M  V30 3261 H 296.455 4.21861 -0.28168 0
M  V30 3262 H 294.173 7.27415 -3.51984 0
M  V30 3263 H 297.759 5.47582 -1.96583 0
M  V30 3264 H 296.639 6.98573 -3.56322 0
M  V30 3265 N 294.142 -0.090211 1.57342 0
M  V30 3266 C 295.372 -0.805055 1.90269 0
M  V30 3267 C 295.78 -1.72561 0.775842 0
M  V30 3268 O 295.123 -1.81839 -0.260843 0
M  V30 3269 C 295.185 -1.66734 3.18497 0
M  V30 3270 C 294.849 -0.918092 4.47683 0
M  V30 3271 C 295.846 -0.245674 5.19319 0
M  V30 3272 C 293.531 -0.890724 4.94339 0
M  V30 3273 C 295.525 0.444088 6.35851 0
M  V30 3274 C 293.212 -0.197179 6.10782 0
M  V30 3275 C 294.21 0.469044 6.81388 0
M  V30 3276 O 293.898 1.15146 7.95611 0
M  V30 3277 H 293.63 -0.235143 0.633785 0
M  V30 3278 H 296.184 -0.0703805 2.05279 0
M  V30 3279 H 294.414 -2.44437 2.99646 0
M  V30 3280 H 296.103 -2.25919 3.37217 0
M  V30 3281 H 296.869 -0.258246 4.84312 0
M  V30 3282 H 292.748 -1.39873 4.39268 0
M  V30 3283 H 296.292 0.964667 6.90898 0
M  V30 3284 H 292.189 -0.18247 6.45242 0
M  V30 3285 H 292.957 1.05885 8.11622 0
M  V30 3286 N 295.62 -1.53406 -0.361157 0
M  V30 3287 C 296.583 -1.79479 -1.42548 0
M  V30 3288 C 297.583 -0.665327 -1.4639 0
M  V30 3289 O 298.773 -0.933549 -1.47073 0
M  V30 3290 C 295.905 -1.92087 -2.8163 0
M  V30 3291 H 297.098 -2.74538 -1.20701 0
M  V30 3292 H 294.651 -1.4455 -0.594546 0
M  V30 3293 H 295.386 -0.991099 -3.08784 0
M  V30 3294 H 295.171 -2.74241 -2.80239 0
M  V30 3295 H 296.661 -2.13836 -3.58697 0
M  V30 3296 N 297.098 0.621204 -1.44841 0
M  V30 3297 C 298.344 1.3826 -1.48365 0
M  V30 3298 C 298.677 1.93831 -0.119624 0
M  V30 3299 O 297.952 1.74251 0.864111 0
M  V30 3300 C 298.235 2.54058 -2.55199 0
M  V30 3301 C 298.088 2.03772 -4.00995 0
M  V30 3302 C 299.407 3.56225 -2.58442 0
M  V30 3303 H 296.526 0.501374 -0.540179 0
M  V30 3304 H 299.168 0.7015 -1.76576 0
M  V30 3305 H 297.318 3.12162 -2.31274 0
M  V30 3306 H 298.99 1.50423 -4.36086 0
M  V30 3307 H 297.233 1.34876 -4.12299 0
M  V30 3308 H 297.904 2.87185 -4.71411 0
M  V30 3309 H 300.38 3.07939 -2.79844 0
M  V30 3310 H 299.256 4.34756 -3.3508 0
M  V30 3311 H 299.517 4.10949 -1.63013 0
M  V30 3312 N 298.576 1.31904 0.862503 0
M  V30 3313 C 299.987 1.19803 1.43193 0
M  V30 3314 C 300.338 -0.192567 1.95253 0
M  V30 3315 O 299.463 -1.09081 1.86896 0
M  V30 3316 C 300.058 2.16883 2.60283 0
M  V30 3317 C 298.617 2.08692 3.13248 0
M  V30 3318 C 297.764 2.05691 1.85975 0
M  V30 3319 H 300.715 1.43846 0.670365 0
M  V30 3320 H 300.736 1.76278 3.37204 0
M  V30 3321 H 300.248 3.18083 2.22363 0
M  V30 3322 H 298.349 1.10713 3.55771 0
M  V30 3323 H 298.462 2.9815 3.75025 0
M  V30 3324 H 296.826 1.50814 2.05249 0
M  V30 3325 H 297.609 3.08659 1.50282 0
M  V30 3326 N 300.054 -1.07777 1.14986 0
M  V30 3327 C 301.303 -1.79669 0.916617 0
M  V30 3328 C 301.616 -1.87474 -0.557917 0
M  V30 3329 O 302.822 -2.55845 -0.908617 0
M  V30 3330 C 301.278 -3.22848 1.59051 0
M  V30 3331 C 300.886 -3.23257 3.10176 0
M  V30 3332 C 302.63 -3.99379 1.43864 0
M  V30 3333 C 300.537 -4.61063 3.70372 0
M  V30 3334 H 299.467 -0.673349 0.33929 0
M  V30 3335 H 302.118 -1.21003 1.37951 0
M  V30 3336 H 300.5 -3.8168 1.0553 0
M  V30 3337 H 301.674 -2.74095 3.70417 0
M  V30 3338 H 299.989 -2.60222 3.25074 0
M  V30 3339 H 302.586 -5.0122 1.86232 0
M  V30 3340 H 302.929 -4.14511 0.385564 0
M  V30 3341 H 303.462 -3.47032 1.94457 0
M  V30 3342 H 300.201 -4.51135 4.7556 0
M  V30 3343 H 299.721 -5.1048 3.14913 0
M  V30 3344 H 301.4 -5.30034 3.71043 0
M  V30 3345 N 301.532 -0.945985 -1.26051 0
M  V30 3346 C 302.781 -0.591836 -1.92822 0
M  V30 3347 C 303.094 0.873956 -1.7499 0
M  V30 3348 O 304.3 1.33769 -2.36259 0
M  V30 3349 C 302.756 -1.00776 -3.45503 0
M  V30 3350 C 302.364 -2.4955 -3.7206 0
M  V30 3351 C 304.108 -0.725735 -4.1825 0
M  V30 3352 C 302.015 -2.84988 -5.18205 0
M  V30 3353 H 300.945 -0.217635 -0.721908 0
M  V30 3354 H 303.596 -1.14927 -1.43052 0
M  V30 3355 H 301.978 -0.378812 -3.94184 0
M  V30 3356 H 303.152 -3.1739 -3.34066 0
M  V30 3357 H 301.467 -2.75133 -3.12555 0
M  V30 3358 H 304.064 -0.966771 -5.25887 0
M  V30 3359 H 304.407 0.337639 -4.14929 0
M  V30 3360 H 304.94 -1.31463 -3.7545 0
M  V30 3361 H 301.679 -3.90307 -5.26631 0
M  V30 3362 H 301.199 -2.21813 -5.57278 0
M  V30 3363 H 302.878 -2.73712 -5.86252 0
M  V30 3364 N 303.011 1.40521 -0.713556 0
M  V30 3365 C 304.236 2.05759 -0.26035 0
M  V30 3366 C 304.661 1.53403 1.08854 0
M  V30 3367 O 304.019 0.668535 1.68524 0
M  V30 3368 C 304.067 3.59745 -0.248122 0
M  V30 3369 O 303.171 4.05123 0.77131 0
M  V30 3370 H 302.512 0.652564 -0.122703 0
M  V30 3371 H 305.042 1.79958 -0.973467 0
M  V30 3372 H 305.052 4.07911 -0.0851129 0
M  V30 3373 H 303.727 3.97218 -1.2325 0
M  V30 3374 H 302.304 3.68422 0.57619 0
M  V30 3375 N 304.489 0.459591 1.5075 0
M  V30 3376 C 305.437 -0.354678 2.2988 0
M  V30 3377 C 306.431 -1.00086 1.36672 0
M  V30 3378 O 307.637 -0.933277 1.53915 0
M  V30 3379 H 304.012 -0.13321 0.740107 0
M  V30 3380 H 305.983 0.333269 2.96533 0
M  V30 3381 C 304.732 -1.43073 3.169 0
M  V30 3382 H 304.055 -0.942882 3.88523 0
M  V30 3383 H 305.495 -1.97328 3.75284 0
M  V30 3384 C 303.954 -2.42633 2.33732 0
M  V30 3385 O 304.484 -3.47658 2.01238 0
M  V30 3386 N 302.69 -2.14066 1.9653 0
M  V30 3387 H 302.237 -1.28685 2.23155 0
M  V30 3388 H 302.195 -2.80917 1.41185 0
M  V30 3389 N 305.967 -1.56429 0.191757 0
M  V30 3390 C 306.9 -2.14829 -0.76967 0
M  V30 3391 C 307.878 -1.08405 -1.2119 0
M  V30 3392 O 309.062 -1.36498 -1.30002 0
M  V30 3393 C 306.189 -2.70446 -2.03903 0
M  V30 3394 C 305.235 -3.89428 -1.7392 0
M  V30 3395 S 306.068 -5.28048 -0.890265 0
M  V30 3396 C 307.224 -5.87085 -2.16984 0
M  V30 3397 H 307.457 -2.96042 -0.273204 0
M  V30 3398 H 304.99 -1.54383 -0.0231975 0
M  V30 3399 H 306.948 -3.03134 -2.76803 0
M  V30 3400 H 305.609 -1.89281 -2.50662 0
M  V30 3401 H 304.802 -4.26742 -2.68155 0
M  V30 3402 H 304.404 -3.57732 -1.09103 0
M  V30 3403 H 306.696 -6.01244 -3.12269 0
M  V30 3404 H 307.639 -6.83747 -1.84108 0
M  V30 3405 H 308.047 -5.15663 -2.29678 0
M  V30 3406 N 307.445 0.0818655 -1.57387 0
M  V30 3407 C 308.722 0.815343 -1.77796 0
M  V30 3408 C 309.102 1.96289 -0.77679 0
M  V30 3409 O 308.45 2.27691 0.192106 0
M  V30 3410 C 308.66 1.29765 -3.23978 0
M  V30 3411 C 310.008 1.7351 -3.8753 0
M  V30 3412 O 311.032 1.39356 -3.27808 0
M  V30 3413 O 309.891 2.36708 -4.92576 0
M  V30 3414 H 306.985 0.389914 -0.729312 0
M  V30 3415 H 309.531 0.0627213 -1.69584 0
M  V30 3416 H 308.303 0.47608 -3.88393 0
M  V30 3417 H 307.926 2.11189 -3.36875 0
M  V30 3418 N 308.923 1.53595 0.353017 0
M  V30 3419 C 309.853 1.83902 1.43883 0
M  V30 3420 C 310.834 0.693421 1.55324 0
M  V30 3421 O 312.019 0.944452 1.69687 0
M  V30 3422 C 309.149 2.04016 2.8106 0
M  V30 3423 C 308.103 3.19814 2.84434 0
M  V30 3424 C 307.429 3.25244 4.24406 0
M  V30 3425 C 308.729 4.58133 2.50822 0
M  V30 3426 H 310.423 2.74835 1.1877 0
M  V30 3427 H 307.969 1.32242 0.569917 0
M  V30 3428 H 309.922 2.238 3.57059 0
M  V30 3429 H 308.646 1.09804 3.07588 0
M  V30 3430 H 307.305 2.9987 2.10887 0
M  V30 3431 H 306.953 2.28646 4.48029 0
M  V30 3432 H 306.653 4.03054 4.27576 0
M  V30 3433 H 308.177 3.47228 5.0226 0
M  V30 3434 H 309.591 4.77995 3.16534 0
M  V30 3435 H 307.988 5.38276 2.6529 0
M  V30 3436 H 309.058 4.62387 1.46034 0
M  V30 3437 N 310.401 -0.613514 1.45168 0
M  V30 3438 C 311.348 -1.72456 1.53387 0
M  V30 3439 C 312.318 -1.6169 0.380191 0
M  V30 3440 O 313.503 -1.81356 0.592836 0
M  V30 3441 C 310.643 -3.10753 1.50088 0
M  V30 3442 C 309.756 -3.32368 2.75963 0
M  V30 3443 C 308.891 -4.60737 2.64376 0
M  V30 3444 C 307.93 -4.7559 3.85332 0
M  V30 3445 N 307.067 -5.95253 3.72315 0
M  V30 3446 H 311.907 -1.64768 2.48305 0
M  V30 3447 H 309.444 -0.803503 1.23216 0
M  V30 3448 H 311.402 -3.90758 1.46164 0
M  V30 3449 H 310.032 -3.17413 0.587243 0
M  V30 3450 H 309.084 -2.4618 2.89999 0
M  V30 3451 H 310.396 -3.39218 3.65695 0
M  V30 3452 H 309.55 -5.48928 2.58385 0
M  V30 3453 H 308.289 -4.56275 1.72233 0
M  V30 3454 H 307.294 -3.85824 3.91688 0
M  V30 3455 H 308.519 -4.81854 4.78533 0
M  V30 3456 H 306.465 -5.91847 2.82937 0
M  V30 3457 H 306.382 -6.03236 4.55677 0
M  V30 3458 H 307.65 -6.85958 3.70246 0
M  V30 3459 N 311.879 -1.3236 -0.855495 0
M  V30 3460 C 313.128 -1.22226 -1.60448 0
M  V30 3461 C 313.441 0.214733 -1.94418 0
M  V30 3462 O 314.647 0.437917 -2.67945 0
M  V30 3463 C 313.103 -2.14063 -2.89318 0
M  V30 3464 C 312.711 -3.62839 -2.62777 0
M  V30 3465 C 314.455 -2.12764 -3.67331 0
M  V30 3466 C 312.362 -4.4664 -3.87643 0
M  V30 3467 H 311.292 -0.453904 -0.602069 0
M  V30 3468 H 313.943 -1.57314 -0.944698 0
M  V30 3469 H 312.325 -1.71889 -3.5675 0
M  V30 3470 H 313.499 -4.1335 -2.03662 0
M  V30 3471 H 311.814 -3.66261 -1.98096 0
M  V30 3472 H 314.411 -2.72611 -4.59987 0
M  V30 3473 H 314.754 -1.11841 -4.00995 0
M  V30 3474 H 315.287 -2.53214 -3.06802 0
M  V30 3475 H 312.026 -5.48373 -3.5912 0
M  V30 3476 H 311.546 -4.0088 -4.46156 0
M  V30 3477 H 313.225 -4.59597 -4.55389 0
M  V30 3478 N 313.357 1.07166 -1.15556 0
M  V30 3479 C 314.605 1.79443 -0.929764 0
M  V30 3480 C 314.926 1.87246 0.544414 0
M  V30 3481 O 314.196 1.37473 1.39564 0
M  V30 3482 H 312.776 0.664625 -0.341003 0
M  V30 3483 H 315.438 1.29499 -1.45657 0
M  V30 3484 H 314.534 2.81832 -1.34079 0
M  V30 3485 N 314.835 0.952656 1.25548 0
M  V30 3486 C 316.083 0.605176 1.92826 0
M  V30 3487 C 316.404 -0.860261 1.74999 0
M  V30 3488 O 315.674 -1.6125 1.11244 0
M  V30 3489 H 314.254 0.220832 0.713612 0
M  V30 3490 H 316.916 1.21047 1.52754 0
M  V30 3491 H 316.012 0.832798 3.00784 0
M  V30 3492 N 316.313 -1.40141 0.720998 0
M  V30 3493 C 317.562 -2.0002 0.259804 0
M  V30 3494 C 317.875 -1.57839 -1.15526 0
M  V30 3495 O 319.081 -2.10455 -1.71525 0
M  V30 3496 C 317.537 -3.57516 0.413566 0
M  V30 3497 C 317.145 -4.08667 1.83562 0
M  V30 3498 C 318.889 -4.24498 0.0134387 0
M  V30 3499 C 316.796 -5.58686 1.93968 0
M  V30 3500 H 315.726 -0.748195 0.0933806 0
M  V30 3501 H 318.377 -1.60313 0.892866 0
M  V30 3502 H 316.759 -3.9495 -0.288169 0
M  V30 3503 H 317.933 -3.82598 2.56817 0
M  V30 3504 H 316.248 -3.543 2.1877 0
M  V30 3505 H 318.845 -5.34654 0.0703954 0
M  V30 3506 H 319.188 -4.03375 -1.02927 0
M  V30 3507 H 319.721 -3.92188 0.665815 0
M  V30 3508 H 316.46 -5.8467 2.96379 0
M  V30 3509 H 315.98 -5.86602 1.25131 0
M  V30 3510 H 317.659 -6.23875 1.71431 0
M  V30 3511 N 317.792 -0.46758 -1.50504 0
M  V30 3512 C 319.038 0.0887532 -2.02606 0
M  V30 3513 C 319.371 1.39686 -1.34913 0
M  V30 3514 O 318.646 1.88644 -0.473694 0
M  V30 3515 C 318.929 0.276206 -3.59039 0
M  V30 3516 C 318.782 -1.05267 -4.37309 0
M  V30 3517 C 320.101 1.03235 -4.27821 0
M  V30 3518 H 317.22 0.0307814 -0.736357 0
M  V30 3519 H 319.862 -0.612485 -1.79857 0
M  V30 3520 H 318.012 0.8735 -3.78553 0
M  V30 3521 H 319.684 -1.68628 -4.29374 0
M  V30 3522 H 317.927 -1.65015 -4.01189 0
M  V30 3523 H 318.598 -0.875197 -5.45018 0
M  V30 3524 H 321.074 0.526111 -4.12761 0
M  V30 3525 H 319.95 1.1323 -5.37094 0
M  V30 3526 H 320.211 2.06806 -3.90748 0
M  V30 3527 N 319.27 1.56325 -0.20005 0
M  V30 3528 C 320.5 2.01811 0.442232 0
M  V30 3529 C 320.908 1.07932 1.55394 0
M  V30 3530 O 320.251 0.0772685 1.83537 0
M  V30 3531 C 320.313 3.43685 1.05457 0
M  V30 3532 C 319.977 4.56928 0.0809833 0
M  V30 3533 C 320.974 5.15009 -0.711471 0
M  V30 3534 C 318.659 5.0229 -0.0315364 0
M  V30 3535 C 320.653 6.16904 -1.60336 0
M  V30 3536 C 318.34 6.04028 -0.926981 0
M  V30 3537 C 319.338 6.6121 -1.71146 0
M  V30 3538 O 319.026 7.60971 -2.59189 0
M  V30 3539 H 318.758 0.666173 0.114848 0
M  V30 3540 H 321.312 2.03085 -0.307511 0
M  V30 3541 H 319.542 3.39413 1.85299 0
M  V30 3542 H 321.231 3.72948 1.60201 0
M  V30 3543 H 321.997 4.80827 -0.634873 0
M  V30 3544 H 317.876 4.57476 0.568902 0
M  V30 3545 H 321.42 6.61464 -2.21611 0
M  V30 3546 H 317.317 6.37634 -1.00468 0
M  V30 3547 H 318.085 7.7841 -2.53023 0
M  V30 3548 N 320.748 -0.0735177 1.57428 0
M  V30 3549 C 322.159 -0.625551 1.75908 0
M  V30 3550 C 322.51 -1.78 0.825261 0
M  V30 3551 O 321.635 -2.16398 0.00893964 0
M  V30 3552 C 322.23 -1.14155 3.18989 0
M  V30 3553 C 320.789 -1.63946 3.38819 0
M  V30 3554 C 319.936 -0.558151 2.71625 0
M  V30 3555 H 322.887 0.152647 1.57964 0
M  V30 3556 H 322.908 -2.0104 3.23053 0
M  V30 3557 H 322.42 -0.301116 3.8693 0
M  V30 3558 H 320.521 -2.50321 2.7599 0
M  V30 3559 H 320.634 -1.71759 4.47253 0
M  V30 3560 H 318.998 -1.00278 2.34129 0
M  V30 3561 H 319.781 0.272071 3.4222 0
M  V30 3562 N 322.226 -1.5378 -0.344866 0
M  V30 3563 C 323.454 -1.74899 -1.10534 0
M  V30 3564 C 323.869 -0.487534 -1.82397 0
M  V30 3565 O 323.226 0.540741 -1.74305 0
M  V30 3566 C 323.277 -2.92822 -2.11984 0
M  V30 3567 O 322.998 -4.14089 -1.43044 0
M  V30 3568 C 324.499 -3.25982 -3.00417 0
M  V30 3569 H 321.719 -0.584426 -0.329678 0
M  V30 3570 H 324.263 -2.006 -0.397474 0
M  V30 3571 H 322.418 -2.69457 -2.78338 0
M  V30 3572 H 322.832 -4.80272 -2.10805 0
M  V30 3573 H 324.306 -4.11848 -3.67539 0
M  V30 3574 H 324.783 -2.42228 -3.66363 0
M  V30 3575 H 325.389 -3.51349 -2.39654 0
M  V30 3576 N 323.704 0.605807 -1.45491 0
M  V30 3577 C 324.667 1.69836 -1.5391 0
M  V30 3578 C 325.667 1.55261 -0.418424 0
M  V30 3579 O 326.857 1.60296 -0.681965 0
M  V30 3580 C 323.989 3.09117 -1.43734 0
M  V30 3581 H 325.182 1.63738 -2.51257 0
M  V30 3582 H 322.735 0.821689 -1.32959 0
M  V30 3583 H 323.47 3.20791 -0.475788 0
M  V30 3584 H 323.255 3.21104 -2.25021 0
M  V30 3585 H 324.745 3.88696 -1.52661 0
M  V30 3586 N 325.182 1.32811 0.848464 0
M  V30 3587 C 326.593 1.21315 1.41914 0
M  V30 3588 C 326.944 -0.171847 1.95446 0
M  V30 3589 O 326.069 -1.07093 1.88043 0
M  V30 3590 C 326.664 2.19631 2.57968 0
M  V30 3591 C 325.223 2.12003 3.11017 0
M  V30 3592 C 324.37 2.07651 1.83783 0
M  V30 3593 H 327.321 1.44549 0.655071 0
M  V30 3594 H 327.342 1.79845 3.35315 0
M  V30 3595 H 326.854 3.20423 2.18976 0
M  V30 3596 H 324.955 1.14481 3.54577 0
M  V30 3597 H 325.068 3.02111 3.71841 0
M  V30 3598 H 323.432 1.52983 2.03638 0
M  V30 3599 H 324.215 3.10235 1.47 0
M  V30 3600 N 326.66 -1.06551 1.16123 0
M  V30 3601 C 327.907 -1.79302 0.941126 0
M  V30 3602 C 328.235 -1.87105 -0.531235 0
M  V30 3603 O 327.49 -1.35692 -1.41018 0
M  V30 3604 C 327.789 -3.23911 1.51052 0
M  V30 3605 C 327.455 -3.36193 3.00475 0
M  V30 3606 C 326.117 -3.39252 3.41265 0
M  V30 3607 C 328.469 -3.38326 3.96465 0
M  V30 3608 C 325.797 -3.42057 4.76669 0
M  V30 3609 C 328.149 -3.4267 5.31752 0
M  V30 3610 C 326.813 -3.4401 5.72026 0
M  V30 3611 H 326.083 -0.656111 0.344382 0
M  V30 3612 H 328.73 -1.25325 1.44796 0
M  V30 3613 H 327.035 -3.80723 0.925063 0
M  V30 3614 H 328.732 -3.78793 1.31593 0
M  V30 3615 H 325.322 -3.34516 2.6795 0
M  V30 3616 H 329.506 -3.35176 3.6602 0
M  V30 3617 H 324.762 -3.41398 5.07206 0
M  V30 3618 H 328.936 -3.43268 6.05921 0
M  V30 3619 H 326.563 -3.45937 6.76928 0
M  V30 3620 N 328.138 -0.959301 -1.25041 0
M  V30 3621 C 329.086 -0.474437 -2.2771 0
M  V30 3622 C 330.08 0.457697 -1.631 0
M  V30 3623 O 331.286 0.333912 -1.76876 0
M  V30 3624 H 327.661 -0.134936 -0.739795 0
M  V30 3625 H 329.632 -1.35251 -2.65988 0
M  V30 3626 C 328.381 0.227884 -3.46952 0
M  V30 3627 H 327.704 -0.480248 -3.96905 0
M  V30 3628 H 329.144 0.531091 -4.20661 0
M  V30 3629 C 327.603 1.452 -3.04004 0
M  V30 3630 O 328.133 2.54949 -3.10426 0
M  V30 3631 N 326.339 1.31502 -2.59144 0
M  V30 3632 H 325.886 0.422065 -2.54119 0
M  V30 3633 H 325.844 2.13521 -2.30773 0
M  V30 3634 N 329.616 1.39756 -0.72842 0
M  V30 3635 C 330.864 2.00248 -0.272946 0
M  V30 3636 C 331.185 1.58077 1.14178 0
M  V30 3637 O 330.455 0.826014 1.77634 0
M  V30 3638 H 329.035 0.740554 -0.0979247 0
M  V30 3639 H 331.697 1.70903 -0.936912 0
M  V30 3640 H 330.793 3.10495 -0.316142 0
M  V30 3641 N 331.094 0.475555 1.50254 0
M  V30 3642 C 332.34 -0.0701075 2.03279 0
M  V30 3643 C 332.695 -1.37007 1.35081 0
M  V30 3644 O 331.988 -1.8577 0.469052 0
M  V30 3645 C 332.182 -0.305114 3.56095 0
M  V30 3646 C 332.011 0.970515 4.39103 0
M  V30 3647 C 330.781 1.51509 4.82051 0
M  V30 3648 C 332.979 1.8671 4.79212 0
M  V30 3649 N 330.961 2.73928 5.49397 0
M  V30 3650 C 332.332 2.93715 5.46014 0
M  V30 3651 C 334.387 1.87695 4.61167 0
M  V30 3652 C 333.09 4.01699 5.96683 0
M  V30 3653 C 335.116 2.94637 5.12779 0
M  V30 3654 C 334.478 4.00361 5.79561 0
M  V30 3655 H 330.577 0.014486 0.781866 0
M  V30 3656 H 333.161 0.644755 1.83714 0
M  V30 3657 H 331.332 -0.989019 3.75597 0
M  V30 3658 H 333.064 -0.845516 3.95769 0
M  V30 3659 H 329.819 1.06367 4.61501 0
M  V30 3660 H 330.243 3.36109 5.87673 0
M  V30 3661 H 334.885 1.07273 4.08965 0
M  V30 3662 H 332.603 4.82934 6.4792 0
M  V30 3663 H 336.189 2.96388 5.00645 0
M  V30 3664 H 335.069 4.81751 6.18778 0
M  V30 3665 N 332.573 -1.56217 0.208337 0
M  V30 3666 C 333.803 -2.02043 -0.431523 0
M  V30 3667 C 334.211 -1.08755 -1.54819 0
M  V30 3668 O 333.554 -0.0870009 -1.83494 0
M  V30 3669 C 333.616 -3.44239 -1.03633 0
M  V30 3670 C 333.28 -4.56965 -0.0567502 0
M  V30 3671 C 334.277 -5.14624 0.738773 0
M  V30 3672 C 331.962 -5.02266 0.0581736 0
M  V30 3673 C 333.956 -6.16045 1.63605 0
M  V30 3674 C 331.643 -6.03528 0.959001 0
M  V30 3675 C 332.641 -6.60293 1.7465 0
M  V30 3676 O 332.329 -7.59586 2.6322 0
M  V30 3677 H 332.061 -0.666772 -0.111313 0
M  V30 3678 H 334.615 -2.02919 0.318277 0
M  V30 3679 H 332.845 -3.40391 -1.83497 0
M  V30 3680 H 334.534 -3.73793 -1.58221 0
M  V30 3681 H 335.3 -4.80483 0.660364 0
M  V30 3682 H 331.179 -4.57771 -0.544633 0
M  V30 3683 H 334.723 -6.60279 2.25116 0
M  V30 3684 H 330.62 -6.37092 1.03848 0
M  V30 3685 H 331.388 -7.77057 2.57148 0
M  V30 3686 N 334.051 0.0651679 -1.57465 0
M  V30 3687 C 334.984 1.10876 -1.99453 0
M  V30 3688 C 335.962 1.37205 -0.872555 0
M  V30 3689 O 337.146 1.50468 -1.13542 0
M  V30 3690 C 334.273 2.45167 -2.3369 0
M  V30 3691 C 333.319 2.3493 -3.55964 0
M  V30 3692 S 334.152 1.73708 -5.06543 0
M  V30 3693 C 335.308 3.09563 -5.43987 0
M  V30 3694 H 335.541 0.750967 -2.87659 0
M  V30 3695 H 333.074 0.273933 -1.51951 0
M  V30 3696 H 335.032 3.22412 -2.54088 0
M  V30 3697 H 333.693 2.78105 -1.46001 0
M  V30 3698 H 332.886 3.3398 -3.77457 0
M  V30 3699 H 332.488 1.65823 -3.3523 0
M  V30 3700 H 334.78 4.05882 -5.42463 0
M  V30 3701 H 335.723 2.92843 -6.44708 0
M  V30 3702 H 336.131 3.10474 -4.71451 0
M  V30 3703 N 335.529 1.53961 0.336706 0
M  V30 3704 C 336.775 1.7179 1.07777 0
M  V30 3705 C 337.108 0.483263 1.88091 0
M  V30 3706 O 336.383 -0.519747 1.87427 0
M  V30 3707 C 336.666 2.98558 2.01334 0
M  V30 3708 C 336.519 4.32245 1.24437 0
M  V30 3709 C 337.838 3.21023 3.01052 0
M  V30 3710 H 334.957 0.625089 0.390426 0
M  V30 3711 H 337.599 1.86641 0.35567 0
M  V30 3712 H 335.749 2.86028 2.62908 0
M  V30 3713 H 337.421 4.56637 0.654243 0
M  V30 3714 H 335.664 4.30344 0.546458 0
M  V30 3715 H 336.335 5.17137 1.93063 0
M  V30 3716 H 338.811 3.32929 2.49595 0
M  V30 3717 H 337.687 4.11104 3.6371 0
M  V30 3718 H 337.948 2.37637 3.72802 0
M  V30 3719 N 337.007 -0.598083 1.45811 0
M  V30 3720 C 338.235 -1.38322 1.53866 0
M  V30 3721 C 338.65 -1.87992 0.174479 0
M  V30 3722 O 338.007 -1.62756 -0.825627 0
M  V30 3723 C 338.058 -2.58125 2.53089 0
M  V30 3724 O 337.779 -2.10516 3.84206 0
M  V30 3725 C 339.28 -3.50869 2.70935 0
M  V30 3726 H 336.5 -0.423093 0.520801 0
M  V30 3727 H 339.044 -0.728527 1.91083 0
M  V30 3728 H 337.199 -3.19615 2.18917 0
M  V30 3729 H 337.613 -2.88425 4.38077 0
M  V30 3730 H 339.087 -4.31451 3.44317 0
M  V30 3731 H 339.564 -4.01822 1.77301 0
M  V30 3732 H 340.17 -2.95225 3.06141 0
M  V30 3733 N 338.485 -1.33259 -0.841409 0
M  V30 3734 C 339.395 -1.25332 -1.98316 0
M  V30 3735 C 340.411 -0.164364 -1.73222 0
M  V30 3736 O 341.587 -0.387486 -1.97637 0
M  V30 3737 C 338.652 -0.990078 -3.32262 0
M  V30 3738 C 337.713 -2.16879 -3.70489 0
M  V30 3739 C 336.946 -1.91801 -4.98044 0
M  V30 3740 O 337.169 -0.867075 -5.63771 0
M  V30 3741 O 336.103 -2.78267 -5.33714 0
M  V30 3742 H 339.929 -2.21344 -2.07944 0
M  V30 3743 H 337.514 -1.1328 -0.974058 0
M  V30 3744 H 339.396 -0.860321 -4.12524 0
M  V30 3745 H 338.071 -0.0602155 -3.23644 0
M  V30 3746 H 336.978 -2.35407 -2.90748 0
M  V30 3747 H 338.311 -3.0819 -3.8377 0
M  V30 3748 N 339.963 1.05934 -1.16686 0
M  V30 3749 C 341.212 1.78188 -0.945085 0
M  V30 3750 C 341.525 1.88338 0.528021 0
M  V30 3751 O 342.731 2.57258 0.867799 0
M  V30 3752 C 341.187 3.20277 -1.64167 0
M  V30 3753 C 340.795 3.18281 -3.15279 0
M  V30 3754 C 342.539 3.97039 -1.502 0
M  V30 3755 C 340.446 4.55112 -3.7766 0
M  V30 3756 H 339.376 0.667866 -0.349959 0
M  V30 3757 H 342.027 1.18794 -1.39858 0
M  V30 3758 H 340.409 3.79952 -1.11589 0
M  V30 3759 H 341.583 2.68167 -3.74731 0
M  V30 3760 H 339.898 2.55018 -3.29173 0
M  V30 3761 H 342.495 4.98194 -1.94183 0
M  V30 3762 H 342.838 4.13845 -0.451461 0
M  V30 3763 H 343.371 3.43894 -1.99954 0
M  V30 3764 H 340.11 4.43512 -4.82677 0
M  V30 3765 H 339.63 5.05406 -3.22994 0
M  V30 3766 H 341.309 5.24064 -3.79428 0
M  V30 3767 N 341.441 0.965919 1.2453 0
M  V30 3768 C 342.689 0.625593 1.92174 0
M  V30 3769 C 343.01 -0.841652 1.75901 0
M  V30 3770 O 342.28 -1.60061 1.12948 0
M  V30 3771 H 340.86 0.228388 0.71123 0
M  V30 3772 H 343.522 1.2266 1.51461 0
M  V30 3773 H 342.618 0.864653 2.99884 0
M  V30 3774 N 342.919 -1.39368 0.735821 0
M  V30 3775 C 344.165 -2.00794 0.284544 0
M  V30 3776 C 344.498 -1.58255 -1.12557 0
M  V30 3777 O 343.773 -0.811819 -1.76748 0
M  V30 3778 C 344.056 -3.58011 0.387337 0
M  V30 3779 C 343.909 -4.10566 1.83728 0
M  V30 3780 C 345.228 -4.395 -0.22975 0
M  V30 3781 H 342.347 -0.729501 0.104866 0
M  V30 3782 H 344.989 -1.65564 0.93213 0
M  V30 3783 H 343.139 -3.88154 -0.164006 0
M  V30 3784 H 344.811 -3.91139 2.44556 0
M  V30 3785 H 343.054 -3.64095 2.35833 0
M  V30 3786 H 343.725 -5.19702 1.86047 0
M  V30 3787 H 346.201 -4.15406 0.240257 0
M  V30 3788 H 345.077 -5.48752 -0.127485 0
M  V30 3789 H 345.338 -4.22062 -1.3159 0
M  V30 3790 N 344.397 -0.483516 -1.5 0
M  V30 3791 C 345.813 -0.138404 -1.58999 0
M  V30 3792 C 346.013 1.35597 -1.4905 0
M  V30 3793 O 345.069 2.13039 -1.35539 0
M  V30 3794 C 346.382 -0.699658 -2.92447 0
M  V30 3795 C 347.93 -0.664195 -3.05872 0
M  V30 3796 C 348.405 -1.20321 -4.41913 0
M  V30 3797 N 349.896 -1.16315 -4.48358 0
M  V30 3798 C 350.631 -1.55058 -5.52037 0
M  V30 3799 N 350.127 -2.01311 -6.62907 0
M  V30 3800 N 351.92 -1.46584 -5.42651 0
M  V30 3801 H 344.071 -1.45529 -1.5471 0
M  V30 3802 H 346.334 -0.60258 -0.731848 0
M  V30 3803 H 346.04 -1.747 -3.05242 0
M  V30 3804 H 345.914 -0.150194 -3.76901 0
M  V30 3805 H 348.301 0.374272 -2.92717 0
M  V30 3806 H 348.382 -1.25061 -2.23144 0
M  V30 3807 H 348.026 -2.24037 -4.55818 0
M  V30 3808 H 347.956 -0.592896 -5.23252 0
M  V30 3809 H 350.447 -0.824058 -3.68806 0
M  V30 3810 H 350.76 -2.2899 -7.38095 0
M  V30 3811 H 349.105 -2.05273 -6.63994 0
M  V30 3812 H 352.296 -1.10281 -4.54924 0
M  V30 3813 H 352.469 -1.77103 -6.23329 0
M  V30 3814 N 345.875 1.56104 -0.216619 0
M  V30 3815 C 346.823 2.21434 0.712036 0
M  V30 3816 C 347.817 1.19218 1.20348 0
M  V30 3817 O 349.023 1.3731 1.16387 0
M  V30 3818 H 345.398 0.70992 0.248026 0
M  V30 3819 H 347.369 2.98083 0.137558 0
M  V30 3820 C 346.118 2.90434 1.91163 0
M  V30 3821 H 345.441 3.68842 1.54258 0
M  V30 3822 H 346.881 3.39552 2.5393 0
M  V30 3823 C 345.34 1.92635 2.76394 0
M  V30 3824 O 345.87 1.44017 3.74996 0
M  V30 3825 N 344.076 1.60392 2.42328 0
M  V30 3826 H 343.623 2.00122 1.622 0
M  V30 3827 H 343.581 0.952159 2.99635 0
M  V30 3828 N 347.353 -0.0568162 1.57498 0
M  V30 3829 C 348.6 -0.753104 1.87975 0
M  V30 3830 C 348.928 -1.76815 0.81035 0
M  V30 3831 O 348.183 -1.94756 -0.19199 0
M  V30 3832 C 348.482 -1.48359 3.25153 0
M  V30 3833 C 348.148 -0.60713 4.46794 0
M  V30 3834 C 346.81 -0.365642 4.79809 0
M  V30 3835 C 349.162 -0.000305978 5.212 0
M  V30 3836 C 346.49 0.491905 5.84634 0
M  V30 3837 C 348.842 0.844781 6.26934 0
M  V30 3838 C 347.506 1.096 6.58441 0
M  V30 3839 H 346.776 -0.27558 0.687849 0
M  V30 3840 H 349.423 -0.0135173 1.91495 0
M  V30 3841 H 347.728 -2.29577 3.17492 0
M  V30 3842 H 349.425 -2.02739 3.45974 0
M  V30 3843 H 346.015 -0.805487 4.20963 0
M  V30 3844 H 350.199 -0.173961 4.95995 0
M  V30 3845 H 345.455 0.695131 6.07436 0
M  V30 3846 H 349.629 1.32165 6.83744 0
M  V30 3847 H 347.256 1.76224 7.39492 0
M  V30 3848 N 348.832 -1.54138 -0.328536 0
M  V30 3849 C 350.081 -1.71318 -1.06456 0
M  V30 3850 C 350.394 -0.491109 -1.89334 0
M  V30 3851 O 351.6 -0.54416 -2.65991 0
M  V30 3852 C 350.056 -3.03 -1.94214 0
M  V30 3853 C 349.664 -4.32595 -1.16471 0
M  V30 3854 C 351.408 -3.29544 -2.67583 0
M  V30 3855 C 349.315 -5.55341 -2.03347 0
M  V30 3856 H 348.245 -0.638429 -0.401155 0
M  V30 3857 H 350.896 -1.80633 -0.323106 0
M  V30 3858 H 349.278 -2.87579 -2.72239 0
M  V30 3859 H 350.452 -4.58766 -0.432525 0
M  V30 3860 H 348.767 -4.12777 -0.548063 0
M  V30 3861 H 351.364 -4.18444 -3.3288 0
M  V30 3862 H 351.707 -2.47206 -3.34955 0
M  V30 3863 H 352.24 -3.45809 -1.96623 0
M  V30 3864 H 348.979 -6.40268 -1.40491 0
M  V30 3865 H 348.499 -5.33397 -2.74313 0
M  V30 3866 H 350.178 -5.91557 -2.62049 0
M  V30 3867 N 350.31 0.590341 -1.46126 0
M  V30 3868 C 351.587 1.35029 -1.41515 0
M  V30 3869 C 351.967 2.10888 -0.0946472 0
M  V30 3870 O 351.315 2.08998 0.923693 0
M  V30 3871 C 351.525 2.28269 -2.63997 0
M  V30 3872 C 352.873 2.90338 -3.09821 0
M  V30 3873 O 353.897 2.38585 -2.64492 0
M  V30 3874 O 352.756 3.84321 -3.88535 0
M  V30 3875 H 349.85 0.606317 -0.562413 0
M  V30 3876 H 352.396 0.611994 -1.58281 0
M  V30 3877 H 351.168 1.71591 -3.51671 0
M  V30 3878 H 350.791 3.0945 -2.49652 0
M  V30 3879 N 351.788 1.33704 0.83433 0
M  V30 3880 C 353.065 1.16011 1.57483 0
M  V30 3881 C 353.445 -0.27176 2.09343 0
M  V30 3882 O 352.793 -1.27146 1.89858 0
M  V30 3883 C 353.003 2.20507 2.70514 0
M  V30 3884 C 354.351 2.54898 3.39577 0
M  V30 3885 O 355.375 2.19209 2.80759 0
M  V30 3886 O 354.234 3.16158 4.45765 0
M  V30 3887 H 351.328 0.448992 0.694503 0
M  V30 3888 H 353.874 1.453 0.876691 0
M  V30 3889 H 352.646 3.16667 2.29865 0
M  V30 3890 H 352.269 1.92329 3.47987 0
M  V30 3891 N 353.266 -1.05314 1.17247 0
M  V30 3892 C 354.496 -1.81707 0.983166 0
M  V30 3893 C 354.904 -1.83222 -0.471822 0
M  V30 3894 O 354.247 -1.25721 -1.3394 0
M  V30 3895 C 354.309 -3.29134 1.44606 0
M  V30 3896 C 353.973 -3.51304 2.92292 0
M  V30 3897 C 354.97 -3.4353 3.90235 0
M  V30 3898 C 352.655 -3.78306 3.30439 0
M  V30 3899 C 354.649 -3.62442 5.24323 0
M  V30 3900 C 352.336 -3.96866 4.64694 0
M  V30 3901 C 353.334 -3.88933 5.61445 0
M  V30 3902 O 353.022 -4.06976 6.93272 0
M  V30 3903 H 352.754 -0.579476 0.348114 0
M  V30 3904 H 355.308 -1.33705 1.55924 0
M  V30 3905 H 353.538 -3.78046 0.813537 0
M  V30 3906 H 355.227 -3.87049 1.22262 0
M  V30 3907 H 355.993 -3.22648 3.62109 0
M  V30 3908 H 351.872 -3.83585 2.55702 0
M  V30 3909 H 355.416 -3.56165 5.99827 0
M  V30 3910 H 351.313 -4.1724 4.92525 0
M  V30 3911 H 352.081 -4.24209 6.99992 0
M  V30 3912 N 354.744 -0.972509 -1.24016 0
M  V30 3913 C 356.16 -0.679827 -1.44397 0
M  V30 3914 C 356.36 0.756716 -1.86751 0
M  V30 3915 O 355.416 1.53007 -2.00861 0
M  V30 3916 C 356.729 -1.66803 -2.50195 0
M  V30 3917 C 358.277 -1.68119 -2.64017 0
M  V30 3918 C 358.752 -2.65748 -3.73017 0
M  V30 3919 N 360.243 -2.64219 -3.8045 0
M  V30 3920 C 360.978 -3.36433 -4.64328 0
M  V30 3921 N 360.474 -4.1818 -5.52356 0
M  V30 3922 N 362.267 -3.25235 -4.58453 0
M  V30 3923 H 354.418 -1.90059 -0.948228 0
M  V30 3924 H 356.681 -0.818527 -0.478245 0
M  V30 3925 H 356.387 -2.69498 -2.25973 0
M  V30 3926 H 356.261 -1.4446 -3.48441 0
M  V30 3927 H 358.648 -0.661319 -2.87594 0
M  V30 3928 H 358.729 -1.94525 -1.66113 0
M  V30 3929 H 358.373 -3.67872 -3.50189 0
M  V30 3930 H 358.303 -2.36619 -4.70446 0
M  V30 3931 H 360.794 -2.04887 -3.17537 0
M  V30 3932 H 361.107 -4.70157 -6.13329 0
M  V30 3933 H 359.452 -4.22273 -5.52006 0
M  V30 3934 H 362.643 -2.60829 -3.88698 0
M  V30 3935 H 362.816 -3.81776 -5.23594 0
M  V30 3936 N 356.222 1.38976 -0.743202 0
M  V30 3937 C 357.452 2.04339 -0.304807 0
M  V30 3938 C 357.86 1.56162 1.06819 0
M  V30 3939 O 357.203 0.725284 1.68776 0
M  V30 3940 C 357.265 3.58716 -0.237369 0
M  V30 3941 C 356.929 4.29905 -1.55018 0
M  V30 3942 C 357.926 4.55987 -2.49744 0
M  V30 3943 C 355.611 4.68294 -1.81675 0
M  V30 3944 C 357.605 5.19478 -3.69353 0
M  V30 3945 C 355.292 5.31512 -3.0156 0
M  V30 3946 C 356.29 5.57037 -3.9522 0
M  V30 3947 O 355.978 6.18941 -5.12998 0
M  V30 3948 H 355.71 0.663439 -0.12971 0
M  V30 3949 H 358.264 1.78852 -1.01001 0
M  V30 3950 H 356.494 3.83133 0.524003 0
M  V30 3951 H 358.183 4.05543 0.170121 0
M  V30 3952 H 358.949 4.26767 -2.30423 0
M  V30 3953 H 354.828 4.47779 -1.09615 0
M  V30 3954 H 358.372 5.39318 -4.42473 0
M  V30 3955 H 354.269 5.60153 -3.20778 0
M  V30 3956 H 355.037 6.37433 -5.13441 0
M  V30 3957 N 357.7 0.491464 1.49741 0
M  V30 3958 C 358.648 -0.305837 2.30581 0
M  V30 3959 C 359.642 -0.971642 1.38764 0
M  V30 3960 O 360.848 -0.90042 1.5586 0
M  V30 3961 H 357.223 -0.117482 0.742767 0
M  V30 3962 H 359.194 0.396093 2.95759 0
M  V30 3963 C 357.943 -1.36319 3.19863 0
M  V30 3964 H 357.266 -0.860258 3.90435 0
M  V30 3965 H 358.706 -1.89323 3.79385 0
M  V30 3966 C 357.165 -2.37621 2.38826 0
M  V30 3967 O 357.695 -3.43311 2.08567 0
M  V30 3968 N 355.901 -2.09849 2.01026 0
M  V30 3969 H 355.448 -1.23922 2.25834 0
M  V30 3970 H 355.406 -2.77859 1.47112 0
M  V30 3971 N 359.178 -1.55987 0.224894 0
M  V30 3972 C 360.108 -2.23426 -0.678457 0
M  V30 3973 C 361.089 -1.20709 -1.19847 0
M  V30 3974 O 362.274 -1.49304 -1.24186 0
M  V30 3975 C 359.404 -2.91676 -1.88527 0
M  V30 3976 C 358.358 -4.00893 -1.49896 0
M  V30 3977 C 357.684 -4.56455 -2.78483 0
M  V30 3978 C 358.984 -5.17769 -0.686461 0
M  V30 3979 H 360.678 -2.99175 -0.116173 0
M  V30 3980 H 358.224 -1.43897 -0.054436 0
M  V30 3981 H 360.177 -3.37547 -2.5227 0
M  V30 3982 H 358.901 -2.1338 -2.47258 0
M  V30 3983 H 357.56 -3.55758 -0.884985 0
M  V30 3984 H 357.208 -3.74886 -3.35365 0
M  V30 3985 H 356.908 -5.30169 -2.53368 0
M  V30 3986 H 358.432 -5.05047 -3.43162 0
M  V30 3987 H 359.846 -5.60001 -1.22767 0
M  V30 3988 H 358.243 -5.97735 -0.532259 0
M  V30 3989 H 359.313 -4.83932 0.306196 0
M  V30 3990 N 360.656 0.0484629 -1.57525 0
M  V30 3991 C 361.586 1.0549 -2.08313 0
M  V30 3992 C 362.567 1.38929 -0.981463 0
M  V30 3993 O 363.752 1.48151 -1.25558 0
M  V30 3994 C 360.882 2.36162 -2.54646 0
M  V30 3995 C 359.836 2.17016 -3.68901 0
M  V30 3996 C 359.162 3.53278 -4.01371 0
M  V30 3997 C 360.462 1.57219 -4.98076 0
M  V30 3998 H 362.156 0.632195 -2.92649 0
M  V30 3999 H 359.702 0.302654 -1.40784 0
M  V30 4000 H 361.655 3.06882 -2.88793 0
M  V30 4001 H 360.379 2.80456 -1.67368 0
M  V30 4002 H 359.038 1.48733 -3.35073 0
M  V30 4003 H 358.686 3.95185 -3.11188 0
M  V30 4004 H 358.386 3.41299 -4.78318 0
M  V30 4005 H 359.91 4.25391 -4.38035 0
M  V30 4006 H 361.324 2.17832 -5.30304 0
M  V30 4007 H 359.721 1.55871 -5.79503 0
M  V30 4008 H 360.791 0.535956 -4.81929 0
M  V30 4009 N 362.134 1.5431 0.320358 0
M  V30 4010 C 363.044 1.86946 1.41734 0
M  V30 4011 C 364.06 0.761689 1.56443 0
M  V30 4012 O 365.236 1.05629 1.71477 0
M  V30 4013 C 362.301 2.09293 2.76401 0
M  V30 4014 C 361.362 3.33082 2.70841 0
M  V30 4015 C 360.595 3.54353 3.99086 0
M  V30 4016 O 360.818 2.79002 4.97508 0
M  V30 4017 O 359.752 4.47838 4.0215 0
M  V30 4018 H 363.578 2.80232 1.17062 0
M  V30 4019 H 361.163 1.40255 0.514673 0
M  V30 4020 H 363.045 2.25303 3.56113 0
M  V30 4021 H 361.72 1.19194 3.00956 0
M  V30 4022 H 360.627 3.22454 1.89668 0
M  V30 4023 H 361.96 4.23249 2.5124 0
M  V30 4024 N 363.613 -0.582584 1.46437 0
M  V30 4025 C 364.56 -1.69164 1.5701 0
M  V30 4026 C 365.53 -1.60847 0.414403 0
M  V30 4027 O 366.715 -1.80058 0.631171 0
M  V30 4028 C 363.855 -3.075 1.56646 0
M  V30 4029 C 362.968 -3.2644 2.82951 0
M  V30 4030 C 362.103 -4.55026 2.7409 0
M  V30 4031 C 361.142 -4.6731 3.95333 0
M  V30 4032 N 360.279 -5.87221 3.84858 0
M  V30 4033 H 365.119 -1.59464 2.51744 0
M  V30 4034 H 362.656 -0.777186 1.24893 0
M  V30 4035 H 364.614 -3.8757 1.5442 0
M  V30 4036 H 363.244 -3.16096 0.654439 0
M  V30 4037 H 362.296 -2.39974 2.95155 0
M  V30 4038 H 363.608 -3.31385 3.72808 0
M  V30 4039 H 362.762 -5.43324 2.6997 0
M  V30 4040 H 361.501 -4.52519 1.81873 0
M  V30 4041 H 360.506 -3.77429 3.99784 0
M  V30 4042 H 361.731 -4.71595 4.88646 0
M  V30 4043 H 359.677 -5.85712 2.95427 0
M  V30 4044 H 359.594 -5.93435 4.6837 0
M  V30 4045 H 360.862 -6.7795 3.84713 0
M  V30 4046 N 365.091 -1.34144 -0.827227 0
M  V30 4047 C 366.337 -1.26446 -1.58554 0
M  V30 4048 C 366.67 0.1664 -1.93486 0
M  V30 4049 O 365.945 1.1107 -1.59667 0
M  V30 4050 C 366.228 -2.15111 -2.8879 0
M  V30 4051 C 366.081 -3.66712 -2.60465 0
M  V30 4052 C 367.4 -2.03311 -3.90324 0
M  V30 4053 H 364.519 -0.46067 -0.575284 0
M  V30 4054 H 367.161 -1.64356 -0.953269 0
M  V30 4055 H 365.311 -1.8291 -3.42748 0
M  V30 4056 H 366.983 -4.09259 -2.1285 0
M  V30 4057 H 365.226 -3.88014 -1.93978 0
M  V30 4058 H 365.897 -4.24112 -3.53317 0
M  V30 4059 H 368.373 -2.31574 -3.45706 0
M  V30 4060 H 367.249 -2.67582 -4.79261 0
M  V30 4061 H 367.51 -1.00879 -4.30437 0
M  V30 4062 N 366.569 1.04691 -1.17803 0
M  V30 4063 C 367.532 2.10724 -0.901545 0
M  V30 4064 C 368.532 1.6042 0.110437 0
M  V30 4065 O 369.722 1.7377 -0.122303 0
M  V30 4066 C 366.854 3.39084 -0.351409 0
M  V30 4067 H 368.047 2.36686 -1.84174 0
M  V30 4068 H 365.6 1.21015 -0.98919 0
M  V30 4069 H 366.335 3.18782 0.59569 0
M  V30 4070 H 366.12 3.76909 -1.08083 0
M  V30 4071 H 367.61 4.17227 -0.176451 0
M  V30 4072 N 368.047 0.979072 1.23499 0
M  V30 4073 C 369.324 0.563674 1.87302 0
M  V30 4074 C 369.704 -0.959199 1.88049 0
M  V30 4075 O 369.052 -1.83535 1.36114 0
M  V30 4076 C 369.262 1.16822 3.28867 0
M  V30 4077 C 370.61 1.26014 4.0547 0
M  V30 4078 O 371.634 1.12158 3.38082 0
M  V30 4079 O 370.493 1.48044 5.26066 0
M  V30 4080 H 367.587 0.189602 0.804972 0
M  V30 4081 H 370.133 1.07407 1.31384 0
M  V30 4082 H 368.905 2.21049 3.22883 0
M  V30 4083 H 368.528 0.642564 3.92373 0
M  V30 4084 N 369.525 -1.3858 0.750561 0
M  V30 4085 C 370.488 -2.28836 0.129152 0
M  V30 4086 C 371.488 -1.47045 -0.650714 0
M  V30 4087 O 372.678 -1.6753 -0.477428 0
M  V30 4088 C 369.81 -3.30751 -0.825622 0
M  V30 4089 H 371.003 -2.85294 0.924516 0
M  V30 4090 H 368.556 -1.47489 0.517376 0
M  V30 4091 H 369.291 -2.79378 -1.64677 0
M  V30 4092 H 369.076 -3.91177 -0.268852 0
M  V30 4093 H 370.566 -3.98249 -1.2565 0
M  V30 4094 N 371.003 -0.499398 -1.49478 0
M  V30 4095 C 372.25 0.0456899 -2.02448 0
M  V30 4096 C 372.578 1.37142 -1.37921 0
M  V30 4097 O 371.833 1.89111 -0.503544 0
M  V30 4098 C 372.132 0.248424 -3.56536 0
M  V30 4099 C 371.798 -0.999107 -4.39692 0
M  V30 4100 C 370.46 -1.34108 -4.62135 0
M  V30 4101 C 372.812 -1.82842 -4.88076 0
M  V30 4102 C 370.14 -2.51191 -5.30208 0
M  V30 4103 C 372.492 -2.99076 -5.57437 0
M  V30 4104 C 371.156 -3.33655 -5.78127 0
M  V30 4105 H 370.426 0.0167191 -0.740811 0
M  V30 4106 H 373.073 -0.65923 -1.79795 0
M  V30 4107 H 371.378 1.03586 -3.77859 0
M  V30 4108 H 373.075 0.684605 -3.95113 0
M  V30 4109 H 369.665 -0.722729 -4.22463 0
M  V30 4110 H 373.849 -1.57737 -4.70566 0
M  V30 4111 H 369.105 -2.78221 -5.44429 0
M  V30 4112 H 373.279 -3.63664 -5.93904 0
M  V30 4113 H 370.906 -4.24483 -6.30649 0
M  V30 4114 N 372.481 1.55866 -0.233164 0
M  V30 4115 C 373.391 2.24431 0.683217 0
M  V30 4116 C 374.407 1.2558 1.2044 0
M  V30 4117 O 375.583 1.58422 1.24356 0
M  V30 4118 C 372.648 2.91979 1.86947 0
M  V30 4119 C 371.709 4.06204 1.38912 0
M  V30 4120 C 370.942 4.70522 2.51883 0
M  V30 4121 O 371.165 4.33865 3.70293 0
M  V30 4122 O 370.099 5.59296 2.22423 0
M  V30 4123 H 373.925 3.03426 0.129059 0
M  V30 4124 H 371.51 1.494 -0.0022283 0
M  V30 4125 H 373.392 3.34573 2.56201 0
M  V30 4126 H 372.067 2.15935 2.41151 0
M  V30 4127 H 370.974 3.68155 0.664259 0
M  V30 4128 H 372.307 4.84025 0.893328 0
M  V30 4129 N 373.959 -0.0401083 1.57549 0
M  V30 4130 C 375.206 -0.733125 1.88763 0
M  V30 4131 C 375.534 -1.75946 0.829058 0
M  V30 4132 O 374.789 -1.94949 -0.171323 0
M  V30 4133 C 375.088 -1.44902 3.26708 0
M  V30 4134 C 374.754 -0.559707 4.47413 0
M  V30 4135 C 373.416 -0.314731 4.8017 0
M  V30 4136 C 375.768 0.0549743 5.21171 0
M  V30 4137 C 373.096 0.553886 5.8408 0
M  V30 4138 C 375.448 0.911229 6.26003 0
M  V30 4139 C 374.112 1.16577 6.57241 0
M  V30 4140 H 373.382 -0.268269 0.690733 0
M  V30 4141 H 376.029 0.00679408 1.91499 0
M  V30 4142 H 374.334 -2.26197 3.1991 0
M  V30 4143 H 376.031 -1.99058 3.48105 0
M  V30 4144 H 372.621 -0.760793 4.21794 0
M  V30 4145 H 376.805 -0.121344 4.96152 0
M  V30 4146 H 372.061 0.759518 6.06664 0
M  V30 4147 H 376.235 1.3941 6.82303 0
M  V30 4148 H 373.862 1.84058 7.37582 0
M  V30 4149 N 375.437 -1.54477 -0.31217 0
M  V30 4150 C 376.714 -1.63891 -1.06767 0
M  V30 4151 C 377.094 -0.480028 -2.0557 0
M  V30 4152 O 376.442 0.524487 -2.22399 0
M  V30 4153 C 376.652 -3.01402 -1.75948 0
M  V30 4154 C 378 -3.57838 -2.28554 0
M  V30 4155 O 379.024 -3.03782 -1.85998 0
M  V30 4156 O 377.883 -4.52462 -3.06497 0
M  V30 4157 H 374.977 -0.664125 -0.492816 0
M  V30 4158 H 377.523 -1.66823 -0.311149 0
M  V30 4159 H 376.295 -3.77187 -1.04144 0
M  V30 4160 H 375.918 -3.02199 -2.58383 0
M  V30 4161 N 376.915 0.57481 -1.46744 0
M  V30 4162 C 378.143 1.35856 -1.56047 0
M  V30 4163 C 378.558 1.87691 -0.204365 0
M  V30 4164 O 377.915 1.64049 0.79963 0
M  V30 4165 C 377.966 2.54066 -2.57163 0
M  V30 4166 O 377.687 2.04377 -3.87507 0
M  V30 4167 C 379.188 3.46514 -2.76483 0
M  V30 4168 H 376.408 0.414754 -0.527466 0
M  V30 4169 H 378.952 0.698035 -1.92218 0
M  V30 4170 H 377.107 3.16092 -2.23974 0
M  V30 4171 H 377.521 2.81419 -4.4261 0
M  V30 4172 H 378.995 4.25919 -3.51137 0
M  V30 4173 H 379.472 3.98951 -1.83671 0
M  V30 4174 H 380.078 2.90318 -3.10799 0
M  V30 4175 N 378.394 1.34581 0.820102 0
M  V30 4176 C 379.324 1.29038 1.94606 0
M  V30 4177 C 380.305 0.1673 1.69275 0
M  V30 4178 O 381.49 0.360112 1.90832 0
M  V30 4179 C 378.62 1.04793 3.31113 0
M  V30 4180 C 377.574 2.13597 3.70891 0
M  V30 4181 C 376.9 1.74537 5.05412 0
M  V30 4182 C 378.2 3.55451 3.8269 0
M  V30 4183 H 379.894 2.23248 1.99501 0
M  V30 4184 H 377.44 1.0747 0.958449 0
M  V30 4185 H 379.393 0.995592 4.0947 0
M  V30 4186 H 378.117 0.0702565 3.26524 0
M  V30 4187 H 376.776 2.17905 2.9481 0
M  V30 4188 H 376.424 0.754226 4.97313 0
M  V30 4189 H 376.124 2.47361 5.32997 0
M  V30 4190 H 377.648 1.70803 5.86224 0
M  V30 4191 H 379.062 3.5354 4.51312 0
M  V30 4192 H 377.459 4.26922 4.21732 0
M  V30 4193 H 378.529 3.92587 2.84611 0
M  V30 4194 N 379.872 -1.04064 1.18357 0
M  V30 4195 C 380.819 -2.12077 0.910603 0
M  V30 4196 C 381.789 -1.65421 -0.15 0
M  V30 4197 O 382.974 -1.90797 -0.0103614 0
M  V30 4198 C 380.114 -3.42252 0.442472 0
M  V30 4199 C 379.227 -4.0252 1.5685 0
M  V30 4200 C 378.362 -5.20657 1.05309 0
M  V30 4201 C 377.401 -5.72955 2.1538 0
M  V30 4202 N 376.538 -6.8238 1.65233 0
M  V30 4203 H 381.378 -2.34764 1.83548 0
M  V30 4204 H 378.915 -1.15157 0.915279 0
M  V30 4205 H 380.873 -4.16921 0.152534 0
M  V30 4206 H 379.503 -3.19712 -0.445428 0
M  V30 4207 H 378.555 -3.25178 1.97391 0
M  V30 4208 H 379.867 -4.37362 2.39824 0
M  V30 4209 H 379.021 -6.0244 0.717677 0
M  V30 4210 H 377.76 -4.87318 0.19293 0
M  V30 4211 H 376.765 -4.89793 2.49766 0
M  V30 4212 H 377.99 -6.08337 3.01832 0
M  V30 4213 H 375.936 -6.50917 0.815064 0
M  V30 4214 H 375.853 -7.16286 2.41805 0
M  V30 4215 H 377.121 -7.67788 1.34619 0
M  V30 4216 N 381.35 -0.985608 -1.22978 0
M  V30 4217 C 382.298 -0.522631 -2.26652 0
M  V30 4218 C 383.292 0.422998 -1.64034 0
M  V30 4219 O 384.498 0.296319 -1.77544 0
M  V30 4220 H 380.873 -0.150597 -0.736766 0
M  V30 4221 H 382.844 -1.40863 -2.63059 0
M  V30 4222 C 381.593 0.154238 -3.47358 0
M  V30 4223 H 380.916 -0.564329 -3.95797 0
M  V30 4224 H 382.356 0.441744 -4.21693 0
M  V30 4225 C 380.815 1.38719 -3.07016 0
M  V30 4226 O 381.345 2.48307 -3.15764 0
M  V30 4227 N 379.551 1.25975 -2.61875 0
M  V30 4228 H 379.098 0.368068 -2.54957 0
M  V30 4229 H 379.056 2.08578 -2.3525 0
M  V30 4230 N 382.828 1.3818 -0.7579 0
M  V30 4231 C 383.776 2.32277 -0.122482 0
M  V30 4232 C 384.77 1.54238 0.700505 0
M  V30 4233 O 385.976 1.69737 0.599119 0
M  V30 4234 H 382.351 0.751712 -0.0208143 0
M  V30 4235 H 384.322 2.83469 -0.932099 0
M  V30 4236 C 383.071 3.39447 0.753076 0
M  V30 4237 H 382.394 3.99591 0.129184 0
M  V30 4238 H 383.834 4.07684 1.16489 0
M  V30 4239 C 382.293 2.78375 1.8976 0
M  V30 4240 O 382.823 2.68025 2.99208 0
M  V30 4241 N 381.029 2.36121 1.69397 0
M  V30 4242 H 380.576 2.4474 0.803762 0
M  V30 4243 H 380.534 1.95602 2.46145 0
M  V30 4244 N 384.306 0.507319 1.49211 0
M  V30 4245 C 385.531 -0.033725 2.07373 0
M  V30 4246 C 385.956 -1.29485 1.36437 0
M  V30 4247 O 385.314 -1.76294 0.423087 0
M  V30 4248 C 385.362 -0.263945 3.59633 0
M  V30 4249 O 384.466 -1.33737 3.90113 0
M  V30 4250 H 383.807 0.0290331 0.663365 0
M  V30 4251 H 386.337 0.708749 1.91932 0
M  V30 4252 H 386.347 -0.493536 4.05004 0
M  V30 4253 H 385.022 0.657424 4.10671 0
M  V30 4254 H 383.599 -1.09224 3.56545 0
M  V30 4255 N 385.784 -1.5574 0.241426 0
M  V30 4256 C 387.031 -1.9881 -0.384836 0
M  V30 4257 C 387.359 -1.12947 -1.58346 0
M  V30 4258 O 386.614 -0.178993 -1.9488 0
M  V30 4259 C 386.913 -3.47308 -0.843317 0
M  V30 4260 C 386.579 -4.50223 0.246946 0
M  V30 4261 C 385.241 -4.78088 0.546399 0
M  V30 4262 C 387.593 -5.11841 0.983282 0
M  V30 4263 C 384.921 -5.64846 1.58636 0
M  V30 4264 C 387.273 -5.99727 2.01272 0
M  V30 4265 C 385.937 -6.25927 2.31888 0
M  V30 4266 H 385.207 -0.727496 -0.140821 0
M  V30 4267 H 387.854 -1.8831 0.348106 0
M  V30 4268 H 386.159 -3.55112 -1.65537 0
M  V30 4269 H 387.856 -3.78017 -1.33806 0
M  V30 4270 H 384.446 -4.286 0.00340639 0
M  V30 4271 H 388.63 -4.90366 0.765182 0
M  V30 4272 H 383.886 -5.83403 1.82896 0
M  V30 4273 H 388.06 -6.46517 2.58823 0
M  V30 4274 H 385.687 -6.92949 3.12611 0
M  V30 4275 N 387.262 0.0317525 -1.57568 0
M  V30 4276 C 388.21 1.05165 -2.07468 0
M  V30 4277 C 389.204 1.3761 -0.98792 0
M  V30 4278 O 390.41 1.36546 -1.17282 0
M  V30 4279 H 386.785 0.35666 -0.66204 0
M  V30 4280 H 388.756 0.604958 -2.92203 0
M  V30 4281 C 387.505 2.34488 -2.56731 0
M  V30 4282 H 386.828 2.10383 -3.39969 0
M  V30 4283 H 388.268 3.04203 -2.95358 0
M  V30 4284 C 386.727 3.03266 -1.46736 0
M  V30 4285 O 387.257 3.92988 -0.832069 0
M  V30 4286 N 385.463 2.6455 -1.20256 0
M  V30 4287 H 385.01 1.91674 -1.72102 0
M  V30 4288 H 384.968 3.10886 -0.468737 0
M  V30 4289 N 388.74 1.54641 0.303973 0
M  V30 4290 C 389.687 1.85386 1.37479 0
M  V30 4291 C 390.657 0.702528 1.50512 0
M  V30 4292 O 391.842 0.950867 1.65418 0
M  V30 4293 C 388.982 2.10413 2.73533 0
M  V30 4294 C 388.095 3.38049 2.68974 0
M  V30 4295 C 387.23 3.52934 3.97002 0
M  V30 4296 C 386.269 4.74373 3.86829 0
M  V30 4297 N 385.406 4.8608 5.06627 0
M  V30 4298 H 390.246 2.76732 1.1056 0
M  V30 4299 H 387.783 1.37034 0.534805 0
M  V30 4300 H 389.741 2.22919 3.52652 0
M  V30 4301 H 388.371 1.22338 2.98719 0
M  V30 4302 H 387.423 3.3418 1.81736 0
M  V30 4303 H 388.735 4.27288 2.57346 0
M  V30 4304 H 387.889 3.65088 4.84557 0
M  V30 4305 H 386.628 2.61824 4.1146 0
M  V30 4306 H 385.633 4.62255 2.97658 0
M  V30 4307 H 386.858 5.66888 3.73918 0
M  V30 4308 H 384.804 3.97891 5.21554 0
M  V30 4309 H 384.721 5.69315 4.9741 0
M  V30 4310 H 385.989 5.02587 5.95841 0
M  V30 4311 N 390.218 -0.567019 1.47046 0
M  V30 4312 C 391.495 -1.3276 1.43646 0
M  V30 4313 C 391.875 -2.1071 0.128186 0
M  V30 4314 O 391.223 -2.10441 -0.890326 0
M  V30 4315 C 391.433 -2.2404 2.67595 0
M  V30 4316 C 392.781 -2.85372 3.14401 0
M  V30 4317 O 393.805 -2.34346 2.68254 0
M  V30 4318 O 392.664 -3.78091 3.946 0
M  V30 4319 H 389.758 -0.597293 0.571988 0
M  V30 4320 H 392.304 -0.586735 1.59234 0
M  V30 4321 H 391.076 -1.65975 3.54356 0
M  V30 4322 H 390.699 -3.05439 2.54544 0
M  V30 4323 N 391.696 -1.35014 -0.812953 0
M  V30 4324 C 393.112 -1.14914 -1.10757 0
M  V30 4325 C 393.312 0.0426818 -2.01455 0
M  V30 4326 O 392.368 0.715212 -2.42159 0
M  V30 4327 C 393.681 -2.44911 -1.74468 0
M  V30 4328 C 395.229 -2.5106 -1.86917 0
M  V30 4329 C 395.704 -3.81085 -2.54044 0
M  V30 4330 N 397.195 -3.82301 -2.61535 0
M  V30 4331 C 397.93 -4.79634 -3.14227 0
M  V30 4332 N 397.426 -5.87353 -3.67407 0
M  V30 4333 N 399.219 -4.67078 -3.12721 0
M  V30 4334 H 391.37 -2.1136 -0.20989 0
M  V30 4335 H 393.633 -0.935128 -0.155692 0
M  V30 4336 H 393.339 -3.32267 -1.15289 0
M  V30 4337 H 393.213 -2.58989 -2.74234 0
M  V30 4338 H 395.6 -1.64137 -2.45241 0
M  V30 4339 H 395.681 -2.40901 -0.860242 0
M  V30 4340 H 395.325 -4.68402 -1.96372 0
M  V30 4341 H 395.255 -3.88529 -3.55461 0
M  V30 4342 H 397.746 -3.04465 -2.23851 0
M  V30 4343 H 398.059 -6.57624 -4.05894 0
M  V30 4344 H 396.404 -5.91054 -3.65623 0
M  V30 4345 H 399.595 -3.82067 -2.70449 0
M  V30 4346 H 399.768 -5.43098 -3.53481 0
M  V30 4347 N 393.175 1.03435 -1.18907 0
M  V30 4348 C 394.138 2.09756 -0.923844 0
M  V30 4349 C 395.138 1.60528 0.093416 0
M  V30 4350 O 396.328 1.73631 -0.140727 0
M  V30 4351 C 393.46 3.38692 -0.387354 0
M  V30 4352 H 394.653 2.34719 -1.86674 0
M  V30 4353 H 392.206 1.19959 -1.00197 0
M  V30 4354 H 392.941 3.19396 0.561845 0
M  V30 4355 H 392.726 3.75742 -1.12074 0
M  V30 4356 H 394.216 4.17016 -0.220694 0
M  V30 4357 N 394.653 0.992116 1.22453 0
M  V30 4358 C 395.583 0.561677 2.26644 0
M  V30 4359 C 396.564 -0.411055 1.65059 0
M  V30 4360 O 397.749 -0.301861 1.9184 0
M  V30 4361 C 394.879 -0.125247 3.47074 0
M  V30 4362 C 393.833 0.765948 4.21091 0
M  V30 4363 C 393.159 -0.0538484 5.34673 0
M  V30 4364 C 394.459 2.06242 4.79856 0
M  V30 4365 H 396.153 1.43259 2.62902 0
M  V30 4366 H 393.699 0.690283 1.26377 0
M  V30 4367 H 395.652 -0.437764 4.1912 0
M  V30 4368 H 394.376 -1.03069 3.0991 0
M  V30 4369 H 393.035 1.0621 3.50878 0
M  V30 4370 H 392.683 -0.960188 4.9375 0
M  V30 4371 H 392.383 0.539415 5.85119 0
M  V30 4372 H 393.907 -0.360477 6.09535 0
M  V30 4373 H 395.321 1.8139 5.43848 0
M  V30 4374 H 393.718 2.60444 5.40638 0
M  V30 4375 H 394.788 2.74167 3.99951 0
M  V30 4376 N 396.131 -1.37776 0.765217 0
M  V30 4377 C 397.377 -2.00145 0.327072 0
M  V30 4378 C 397.71 -1.60607 -1.09175 0
M  V30 4379 O 396.985 -0.849127 -1.74986 0
M  V30 4380 C 397.268 -3.57109 0.46319 0
M  V30 4381 C 397.121 -4.06576 1.92395 0
M  V30 4382 C 398.44 -4.39888 -0.136473 0
M  V30 4383 H 395.559 -0.727113 0.120316 0
M  V30 4384 H 398.201 -1.63549 0.967039 0
M  V30 4385 H 396.351 -3.88414 -0.0816358 0
M  V30 4386 H 398.023 -3.85864 2.52798 0
M  V30 4387 H 396.266 -3.59011 2.43503 0
M  V30 4388 H 396.937 -5.15639 1.97028 0
M  V30 4389 H 399.413 -4.14803 0.328317 0
M  V30 4390 H 398.289 -5.48899 -0.0110582 0
M  V30 4391 H 398.55 -4.24758 -1.22608 0
M  V30 4392 N 397.609 -0.515225 -1.4894 0
M  V30 4393 C 398.519 0.259774 -2.33157 0
M  V30 4394 C 399.535 0.953501 -1.45548 0
M  V30 4395 O 400.711 0.931735 -1.78552 0
M  V30 4396 C 397.776 1.30193 -3.21326 0
M  V30 4397 C 396.837 0.620129 -4.24797 0
M  V30 4398 C 396.07 1.61263 -5.08753 0
M  V30 4399 O 396.293 2.84389 -4.94448 0
M  V30 4400 O 395.227 1.16013 -5.90614 0
M  V30 4401 H 399.053 -0.429932 -3.00641 0
M  V30 4402 H 396.638 -0.276346 -1.46822 0
M  V30 4403 H 398.52 1.90455 -3.75905 0
M  V30 4404 H 397.195 1.97431 -2.56521 0
M  V30 4405 H 396.102 -0.0226019 -3.74093 0
M  V30 4406 H 397.435 -0.0100493 -4.92199 0
M  V30 4407 N 399.087 1.5561 -0.249682 0
M  V30 4408 C 400.017 2.24477 0.642826 0
M  V30 4409 C 400.998 1.22601 1.17911 0
M  V30 4410 O 402.183 1.5126 1.21795 0
M  V30 4411 C 399.313 2.94638 1.83863 0
M  V30 4412 C 398.267 4.03227 1.435 0
M  V30 4413 C 397.593 4.60828 2.71186 0
M  V30 4414 C 398.893 5.18796 0.604002 0
M  V30 4415 H 400.587 2.99321 0.0685625 0
M  V30 4416 H 398.133 1.43965 0.0315363 0
M  V30 4417 H 400.086 3.41517 2.46868 0
M  V30 4418 H 398.81 2.17287 2.43832 0
M  V30 4419 H 397.469 3.57121 0.828275 0
M  V30 4420 H 397.117 3.80174 3.29358 0
M  V30 4421 H 396.817 5.34132 2.44901 0
M  V30 4422 H 398.341 5.10442 3.35084 0
M  V30 4423 H 399.755 5.61883 1.13842 0
M  V30 4424 H 398.152 5.98506 0.437097 0
M  V30 4425 H 399.222 4.83384 -0.383147 0
M  V30 4426 N 400.565 -0.0233959 1.57583 0
M  V30 4427 C 401.513 -1.04063 2.08023 0
M  V30 4428 C 402.507 -1.37084 0.995204 0
M  V30 4429 O 403.713 -1.35923 1.18004 0
M  V30 4430 H 400.088 -0.353144 0.663922 0
M  V30 4431 H 402.059 -0.589453 2.9252 0
M  V30 4432 C 400.808 -2.33123 2.57971 0
M  V30 4433 H 400.131 -2.08577 3.4108 0
M  V30 4434 H 401.571 -3.02632 2.96967 0
M  V30 4435 C 400.03 -3.02483 1.48342 0
M  V30 4436 O 400.56 -3.92541 0.852898 0
M  V30 4437 N 398.766 -2.63909 1.21658 0
M  V30 4438 H 398.313 -1.90758 1.73116 0
M  V30 4439 H 398.271 -3.10633 0.485218 0
M  V30 4440 N 402.043 -1.548 -0.295768 0
M  V30 4441 C 403.273 -1.78069 -1.04762 0
M  V30 4442 C 403.681 -0.542847 -1.81245 0
M  V30 4443 O 403.024 0.497051 -1.76848 0
M  V30 4444 C 403.086 -2.93881 -2.07061 0
M  V30 4445 C 402.75 -4.31777 -1.49725 0
M  V30 4446 C 403.747 -5.11613 -0.924581 0
M  V30 4447 C 401.432 -4.78389 -1.5313 0
M  V30 4448 C 403.426 -6.36184 -0.393594 0
M  V30 4449 C 401.113 -6.02921 -0.996447 0
M  V30 4450 C 402.111 -6.81654 -0.428569 0
M  V30 4451 O 401.799 -8.0384 0.0981593 0
M  V30 4452 H 401.531 -0.597475 -0.316226 0
M  V30 4453 H 404.085 -2.02584 -0.338973 0
M  V30 4454 H 402.315 -2.65003 -2.81621 0
M  V30 4455 H 404.004 -3.04679 -2.6819 0
M  V30 4456 H 404.77 -4.76743 -0.891136 0
M  V30 4457 H 400.649 -4.17132 -1.9627 0
M  V30 4458 H 404.193 -6.97582 0.0503014 0
M  V30 4459 H 400.09 -6.37277 -1.02706 0
M  V30 4460 H 400.858 -8.18499 -0.0146455 0
M  V30 4461 N 403.521 0.559213 -1.47345 0
M  V30 4462 C 404.484 1.64854 -1.59235 0
M  V30 4463 C 405.484 1.53851 -0.467607 0
M  V30 4464 O 406.674 1.58045 -0.732617 0
M  V30 4465 C 403.806 3.04388 -1.53496 0
M  V30 4466 H 404.999 1.55662 -2.56339 0
M  V30 4467 H 402.552 0.778973 -1.35505 0
M  V30 4468 H 403.287 3.19115 -0.577604 0
M  V30 4469 H 403.072 3.13783 -2.35123 0
M  V30 4470 H 404.562 3.83642 -1.6495 0
M  V30 4471 N 404.999 1.35443 0.805782 0
M  V30 4472 C 406.245 1.28952 1.56522 0
M  V30 4473 C 406.578 -0.135597 1.93726 0
M  V30 4474 O 405.853 -1.08516 1.61414 0
M  V30 4475 C 406.136 2.19678 2.85331 0
M  V30 4476 C 405.989 3.7081 2.54598 0
M  V30 4477 C 407.308 2.09495 3.8704 0
M  V30 4478 H 404.427 0.469764 0.567883 0
M  V30 4479 H 407.069 1.65851 0.927001 0
M  V30 4480 H 405.219 1.8834 3.39795 0
M  V30 4481 H 406.891 4.12593 2.06312 0
M  V30 4482 H 405.134 3.91051 1.8778 0
M  V30 4483 H 405.805 4.29679 3.46525 0
M  V30 4484 H 408.281 2.37045 3.41978 0
M  V30 4485 H 407.157 2.75173 4.74943 0
M  V30 4486 H 407.418 1.07714 4.28777 0
M  V30 4487 N 406.477 -1.02803 1.19454 0
M  V30 4488 C 407.707 -1.79581 1.02149 0
M  V30 4489 C 408.115 -1.84182 -0.432851 0
M  V30 4490 O 407.458 -1.28534 -1.31243 0
M  V30 4491 C 407.52 -3.25993 1.51554 0
M  V30 4492 C 407.184 -3.45025 2.99678 0
M  V30 4493 C 408.181 -3.35175 3.97434 0
M  V30 4494 C 405.866 -3.71212 3.38389 0
M  V30 4495 C 407.86 -3.51238 5.31893 0
M  V30 4496 C 405.547 -3.8692 4.73008 0
M  V30 4497 C 406.545 -3.76936 5.69569 0
M  V30 4498 O 406.233 -3.92179 7.01748 0
M  V30 4499 H 405.965 -0.571962 0.360327 0
M  V30 4500 H 408.519 -1.30367 1.58725 0
M  V30 4501 H 406.749 -3.76235 0.893543 0
M  V30 4502 H 408.438 -3.84368 1.30444 0
M  V30 4503 H 409.204 -3.14895 3.68872 0
M  V30 4504 H 405.083 -3.78075 2.6378 0
M  V30 4505 H 408.627 -3.43362 6.07247 0
M  V30 4506 H 404.524 -4.06699 5.01265 0
M  V30 4507 H 405.292 -4.09265 7.08833 0
M  V30 4508 N 407.956 -0.998596 -1.21925 0
M  V30 4509 C 408.906 -0.524743 -2.21879 0
M  V30 4510 C 409.89 0.41017 -1.55584 0
M  V30 4511 O 411.082 0.236063 -1.75419 0
M  V30 4512 C 408.211 0.153636 -3.42956 0
M  V30 4513 C 407.297 -0.801918 -4.16449 0
M  V30 4514 N 407.688 -1.95211 -4.66611 0
M  V30 4515 C 405.986 -0.618972 -4.41684 0
M  V30 4516 C 406.687 -2.55234 -5.22715 0
M  V30 4517 N 405.663 -1.83451 -5.1171 0
M  V30 4518 H 409.465 -1.40189 -2.58311 0
M  V30 4519 H 406.979 -0.86159 -1.3766 0
M  V30 4520 H 408.976 0.510534 -4.13762 0
M  V30 4521 H 407.636 1.02684 -3.08036 0
M  V30 4522 H 408.647 -2.33271 -4.62391 0
M  V30 4523 H 405.324 0.207694 -4.16983 0
M  V30 4524 H 406.714 -3.52471 -5.72026 0
M  V30 4525 N 409.434 1.37368 -0.772513 0
M  V30 4526 C 410.659 2.0447 -0.347386 0
M  V30 4527 C 411.084 1.57882 1.0225 0
M  V30 4528 O 410.442 0.73941 1.65537 0
M  V30 4529 C 410.49 3.58369 -0.400479 0
M  V30 4530 O 409.594 4.0803 0.598789 0
M  V30 4531 H 408.935 0.646773 -0.15027 0
M  V30 4532 H 411.465 1.75667 -1.04892 0
M  V30 4533 H 411.475 4.07183 -0.258045 0
M  V30 4534 H 410.15 3.91633 -1.39986 0
M  V30 4535 H 408.727 3.70534 0.419411 0
M  V30 4536 N 410.912 0.523116 1.48665 0
M  V30 4537 C 412.159 -0.0134763 2.02496 0
M  V30 4538 C 412.487 -1.3493 1.40086 0
M  V30 4539 O 411.742 -1.88286 0.533567 0
M  V30 4540 C 412.041 -0.191671 3.56886 0
M  V30 4541 C 411.707 1.06893 4.38046 0
M  V30 4542 C 410.369 1.41443 4.59943 0
M  V30 4543 C 412.721 1.90584 4.85106 0
M  V30 4544 C 410.049 2.59594 5.26144 0
M  V30 4545 C 412.401 3.07907 5.52609 0
M  V30 4546 C 411.065 3.42811 5.72745 0
M  V30 4547 H 410.335 -0.00493133 0.740984 0
M  V30 4548 H 412.982 0.687751 1.78724 0
M  V30 4549 H 411.287 -0.97561 3.79459 0
M  V30 4550 H 412.984 -0.621659 3.96152 0
M  V30 4551 H 409.574 0.789848 4.21259 0
M  V30 4552 H 413.758 1.65203 4.67997 0
M  V30 4553 H 409.014 2.86847 5.39934 0
M  V30 4554 H 413.188 3.73066 5.88043 0
M  V30 4555 H 410.815 4.34462 6.23816 0
M  V30 4556 N 412.39 -1.55475 0.257931 0
M  V30 4557 C 413.337 -2.21837 -0.636939 0
M  V30 4558 C 414.307 -1.18596 -1.16294 0
M  V30 4559 O 415.492 -1.47081 -1.21539 0
M  V30 4560 C 412.632 -2.9301 -1.82317 0
M  V30 4561 C 411.745 -4.10931 -1.33265 0
M  V30 4562 C 410.88 -4.69791 -2.47931 0
M  V30 4563 C 409.919 -5.7994 -1.95796 0
M  V30 4564 N 409.056 -6.32935 -3.0387 0
M  V30 4565 H 413.896 -2.9793 -0.0643591 0
M  V30 4566 H 411.433 -1.47086 -0.0200031 0
M  V30 4567 H 413.391 -3.3248 -2.52018 0
M  V30 4568 H 412.021 -2.1937 -2.36805 0
M  V30 4569 H 411.073 -3.76699 -0.52931 0
M  V30 4570 H 412.385 -4.90417 -0.910654 0
M  V30 4571 H 411.539 -5.11892 -3.25656 0
M  V30 4572 H 410.278 -3.89545 -2.93438 0
M  V30 4573 H 409.283 -5.37305 -1.16546 0
M  V30 4574 H 410.508 -6.62043 -1.51246 0
M  V30 4575 H 408.454 -5.55591 -3.48791 0
M  V30 4576 H 408.371 -7.07645 -2.66035 0
M  V30 4577 H 409.639 -6.79695 -3.81621 0
M  V30 4578 N 413.868 0.0150385 -1.57593 0
M  V30 4579 C 414.815 1.01126 -2.07466 0
M  V30 4580 C 415.785 1.35064 -0.966794 0
M  V30 4581 O 416.97 1.4516 -1.23827 0
M  V30 4582 C 414.11 2.30276 -2.57035 0
M  V30 4583 C 413.223 2.02373 -3.81666 0
M  V30 4584 C 412.358 3.25496 -4.19793 0
M  V30 4585 C 411.397 2.93211 -5.37303 0
M  V30 4586 N 410.534 4.08826 -5.70794 0
M  V30 4587 H 415.374 0.57901 -2.92321 0
M  V30 4588 H 412.911 0.27426 -1.44521 0
M  V30 4589 H 414.869 3.05757 -2.83846 0
M  V30 4590 H 413.499 2.71197 -1.75077 0
M  V30 4591 H 412.551 1.17327 -3.61854 0
M  V30 4592 H 413.863 1.74567 -4.67256 0
M  V30 4593 H 413.017 4.09333 -4.47807 0
M  V30 4594 H 411.756 3.56428 -3.32882 0
M  V30 4595 H 410.761 2.07777 -5.09027 0
M  V30 4596 H 411.986 2.63542 -6.25877 0
M  V30 4597 H 409.932 4.39682 -4.86842 0
M  V30 4598 H 409.849 3.84491 -6.50924 0
M  V30 4599 H 411.117 4.93496 -6.03392 0
M  V30 4600 N 415.346 1.54954 0.287554 0
M  V30 4601 C 416.256 1.8991 1.37736 0
M  V30 4602 C 417.272 0.794701 1.54792 0
M  V30 4603 O 418.448 1.09243 1.69198 0
M  V30 4604 C 415.513 2.15108 2.71899 0
M  V30 4605 C 414.574 3.38752 2.63715 0
M  V30 4606 C 413.807 3.62739 3.91479 0
M  V30 4607 O 414.03 2.89492 4.91478 0
M  V30 4608 O 412.964 4.56267 3.92561 0
M  V30 4609 H 416.79 2.82652 1.11092 0
M  V30 4610 H 414.375 1.41315 0.484807 0
M  V30 4611 H 416.257 2.32806 3.51254 0
M  V30 4612 H 414.932 1.25551 2.9836 0
M  V30 4613 H 413.839 3.26405 1.82786 0
M  V30 4614 H 415.172 4.28483 2.42205 0
M  V30 4615 N 416.824 -0.551391 1.4764 0
M  V30 4616 C 418.072 -1.30572 1.54258 0
M  V30 4617 C 418.393 -1.93877 0.208963 0
M  V30 4618 O 417.663 -1.80234 -0.767619 0
M  V30 4619 H 416.243 -0.484894 0.568231 0
M  V30 4620 H 418.905 -0.643402 1.83974 0
M  V30 4621 H 418.001 -2.09621 2.31226 0
M  V30 4622 N 418.302 -1.35869 -0.798587 0
M  V30 4623 C 419.548 -1.2978 -1.55836 0
M  V30 4624 C 419.881 0.125322 -1.93795 0
M  V30 4625 O 419.156 1.07658 -1.61987 0
M  V30 4626 C 419.439 -2.21188 -2.84162 0
M  V30 4627 C 419.292 -3.72155 -2.52628 0
M  V30 4628 C 420.611 -2.11545 -3.85923 0
M  V30 4629 H 417.73 -0.472769 -0.565383 0
M  V30 4630 H 420.372 -1.66341 -0.918192 0
M  V30 4631 H 418.522 -1.90139 -3.38791 0
M  V30 4632 H 420.194 -4.13682 -2.04121 0
M  V30 4633 H 418.437 -3.92042 -1.85704 0
M  V30 4634 H 419.108 -4.31511 -3.44242 0
M  V30 4635 H 421.584 -2.38855 -3.40716 0
M  V30 4636 H 420.46 -2.77688 -4.73477 0
M  V30 4637 H 420.721 -1.09987 -4.282 0
M  V30 4638 N 419.78 1.02168 -1.19998 0
M  V30 4639 C 421.005 1.79833 -1.03319 0
M  V30 4640 C 421.43 1.83504 0.413281 0
M  V30 4641 O 420.788 1.26635 1.29743 0
M  V30 4642 C 420.836 3.22396 -1.61533 0
M  V30 4643 O 419.94 4.03555 -0.849519 0
M  V30 4644 H 419.281 0.554872 -0.364709 0
M  V30 4645 H 421.811 1.28542 -1.59179 0
M  V30 4646 H 421.821 3.73124 -1.65054 0
M  V30 4647 H 420.496 3.19039 -2.66809 0
M  V30 4648 H 419.073 3.62169 -0.888129 0
M  V30 4649 N 421.258 1.00505 1.21394 0
M  V30 4650 C 422.507 0.683159 1.89778 0
M  V30 4651 C 422.82 -0.789471 1.7896 0
M  V30 4652 O 424.026 -1.22344 2.42372 0
M  V30 4653 C 422.482 1.17146 3.40301 0
M  V30 4654 C 422.09 2.67017 3.5973 0
M  V30 4655 C 423.834 0.924461 4.14311 0
M  V30 4656 C 421.741 3.09387 5.04017 0
M  V30 4657 H 420.671 0.25183 0.710702 0
M  V30 4658 H 423.322 1.21622 1.37406 0
M  V30 4659 H 421.704 0.566451 3.91928 0
M  V30 4660 H 422.878 3.32968 3.18542 0
M  V30 4661 H 421.193 2.89732 2.99073 0
M  V30 4662 H 423.79 1.21658 5.20676 0
M  V30 4663 H 424.133 -0.139286 4.16067 0
M  V30 4664 H 424.666 1.49226 3.6875 0
M  V30 4665 H 421.405 4.14989 5.07409 0
M  V30 4666 H 420.925 2.48149 5.46061 0
M  V30 4667 H 422.604 3.01371 5.72525 0
M  V30 4668 N 422.737 -1.36956 0.779787 0
M  V30 4669 C 423.983 -1.99787 0.348281 0
M  V30 4670 C 424.316 -1.61756 -1.07465 0
M  V30 4671 O 423.591 -0.867639 -1.74075 0
M  V30 4672 C 423.874 -3.56597 0.50104 0
M  V30 4673 C 423.727 -4.04513 1.96697 0
M  V30 4674 C 425.046 -4.40008 -0.0898097 0
M  V30 4675 H 422.165 -0.725796 0.128022 0
M  V30 4676 H 424.807 -1.62514 0.984331 0
M  V30 4677 H 422.957 -3.88479 -0.0404347 0
M  V30 4678 H 424.629 -3.83161 2.56876 0
M  V30 4679 H 422.872 -3.56408 2.47297 0
M  V30 4680 H 423.543 -5.1352 2.02486 0
M  V30 4681 H 426.019 -4.14431 0.372293 0
M  V30 4682 H 424.895 -5.4888 0.0471605 0
M  V30 4683 H 425.156 -4.26035 -1.18096 0
M  V30 4684 N 424.215 -0.530993 -1.48385 0
M  V30 4685 C 425.492 0.0671788 -1.95485 0
M  V30 4686 C 425.872 1.51191 -1.47324 0
M  V30 4687 O 425.22 2.17507 -0.700202 0
M  V30 4688 C 425.43 -0.0511206 -3.48963 0
M  V30 4689 C 426.778 0.107632 -4.24464 0
M  V30 4690 O 427.802 0.0226248 -3.56193 0
M  V30 4691 O 426.661 0.285972 -5.45751 0
M  V30 4692 H 423.755 0.0787365 -0.823243 0
M  V30 4693 H 426.301 -0.595662 -1.58902 0
M  V30 4694 H 425.073 -1.05747 -3.7674 0
M  V30 4695 H 424.696 0.650525 -3.92242 0
M  V30 4696 N 425.693 1.55336 -0.266172 0
M  V30 4697 C 426.643 2.18848 0.639497 0
M  V30 4698 C 427.627 1.1503 1.12503 0
M  V30 4699 O 428.819 1.40875 1.0716 0
M  V30 4700 C 425.948 2.90626 1.82733 0
M  V30 4701 C 425.034 4.01723 1.35939 0
M  V30 4702 N 425.425 5.02145 0.606988 0
M  V30 4703 C 423.723 4.1463 1.6431 0
M  V30 4704 C 424.424 5.80572 0.362138 0
M  V30 4705 N 423.4 5.35551 0.931971 0
M  V30 4706 H 427.202 2.93845 0.0567057 0
M  V30 4707 H 424.716 1.62252 -0.0693312 0
M  V30 4708 H 426.713 3.34569 2.48735 0
M  V30 4709 H 425.373 2.17137 2.41416 0
M  V30 4710 H 426.384 5.17271 0.255198 0
M  V30 4711 H 423.061 3.52326 2.23993 0
M  V30 4712 H 424.451 6.71472 -0.239848 0
M  V30 4713 N 427.171 -0.0066808 1.57599 0
M  V30 4714 C 428.101 -0.999296 2.11036 0
M  V30 4715 C 429.082 -1.36278 1.01795 0
M  V30 4716 O 430.267 -1.4477 1.29442 0
M  V30 4717 C 427.397 -2.29328 2.60818 0
M  V30 4718 C 426.351 -2.07159 3.74525 0
M  V30 4719 C 425.677 -3.42512 4.10596 0
M  V30 4720 C 426.977 -1.43959 5.02069 0
M  V30 4721 H 428.671 -0.554382 2.94223 0
M  V30 4722 H 426.217 -0.265221 1.41536 0
M  V30 4723 H 428.17 -2.99117 2.96828 0
M  V30 4724 H 426.894 -2.7592 1.74745 0
M  V30 4725 H 425.553 -1.39797 3.38899 0
M  V30 4726 H 425.201 -3.86795 3.21556 0
M  V30 4727 H 424.901 -3.28498 4.87199 0
M  V30 4728 H 426.425 -4.13628 4.4916 0
M  V30 4729 H 427.839 -2.03696 5.35893 0
M  V30 4730 H 426.236 -1.40452 5.83432 0
M  V30 4731 H 427.306 -0.407992 4.83181 0
M  V30 4732 N 428.649 -1.55105 -0.279332 0
M  V30 4733 C 429.877 -1.7943 -1.03017 0
M  V30 4734 C 430.292 -0.564456 -1.80165 0
M  V30 4735 O 429.649 0.466326 -1.76442 0
M  V30 4736 C 429.7 -3.0155 -1.99374 0
M  V30 4737 O 429.421 -4.19784 -1.25352 0
M  V30 4738 C 430.922 -3.3843 -2.86321 0
M  V30 4739 H 428.142 -0.597882 -0.304594 0
M  V30 4740 H 430.686 -2.02105 -0.312035 0
M  V30 4741 H 428.841 -2.81019 -2.66659 0
M  V30 4742 H 429.255 -4.88781 -1.90246 0
M  V30 4743 H 430.729 -4.27066 -3.49741 0
M  V30 4744 H 431.206 -2.57549 -3.5576 0
M  V30 4745 H 431.812 -3.61197 -2.24536 0
M  V30 4746 N 430.127 0.543554 -1.4793 0
M  V30 4747 C 431.09 1.63156 -1.60975 0
M  V30 4748 C 432.09 1.53346 -0.483899 0
M  V30 4749 O 433.28 1.5726 -0.749339 0
M  V30 4750 C 430.412 3.02743 -1.56716 0
M  V30 4751 H 431.605 1.52934 -2.57975 0
M  V30 4752 H 429.158 0.764557 -1.36324 0
M  V30 4753 H 429.893 3.18484 -0.611418 0
M  V30 4754 H 429.678 3.11272 -2.38438 0
M  V30 4755 H 431.168 3.81871 -1.6901 0
M  V30 4756 N 431.605 1.3629 0.791371 0
M  V30 4757 C 432.568 1.30309 1.88553 0
M  V30 4758 C 433.568 0.211204 1.59407 0
M  V30 4759 O 434.758 0.465865 1.67855 0
M  V30 4760 C 431.89 1.01956 3.25297 0
M  V30 4761 H 433.083 2.27614 1.95273 0
M  V30 4762 H 430.636 1.21035 0.988953 0
M  V30 4763 H 431.371 0.050998 3.2426 0
M  V30 4764 H 431.156 1.80968 3.4784 0
M  V30 4765 H 432.646 1.0037 4.05359 0
M  V30 4766 N 433.083 -1.0153 1.20538 0
M  V30 4767 C 434.03 -2.10098 0.955383 0
M  V30 4768 C 435 -1.65702 -0.114878 0
M  V30 4769 O 436.185 -1.90776 0.0301118 0
M  V30 4770 C 433.325 -3.41236 0.514969 0
M  V30 4771 C 432.438 -3.99102 1.65353 0
M  V30 4772 C 431.573 -5.18306 1.16329 0
M  V30 4773 C 430.612 -5.68258 2.27485 0
M  V30 4774 N 429.749 -6.78722 1.7967 0
M  V30 4775 H 434.589 -2.30818 1.88486 0
M  V30 4776 H 432.126 -1.13189 0.939499 0
M  V30 4777 H 434.084 -4.16504 0.240935 0
M  V30 4778 H 432.714 -3.20585 -0.377512 0
M  V30 4779 H 431.766 -3.20918 2.04245 0
M  V30 4780 H 433.078 -4.32177 2.49047 0
M  V30 4781 H 432.232 -6.00782 0.845302 0
M  V30 4782 H 430.971 -4.86799 0.296254 0
M  V30 4783 H 429.976 -4.84385 2.60099 0
M  V30 4784 H 431.201 -6.01798 3.14667 0
M  V30 4785 H 429.147 -6.49042 0.95295 0
M  V30 4786 H 429.064 -7.10996 2.56944 0
M  V30 4787 H 430.332 -7.64759 1.50875 0
M  V30 4788 N 434.561 -1.01147 -1.20859 0
M  V30 4789 C 435.493 -0.535546 -2.22855 0
M  V30 4790 C 436.506 0.379323 -1.58319 0
M  V30 4791 O 437.695 0.178489 -1.77605 0
M  V30 4792 C 434.795 0.240962 -3.38042 0
M  V30 4793 C 433.968 -0.674562 -4.32167 0
M  V30 4794 C 433.027 0.053467 -5.26173 0
M  V30 4795 O 432.053 -0.567339 -5.66366 0
M  V30 4796 N 433.255 1.32997 -5.65059 0
M  V30 4797 H 436.02 -1.41268 -2.64317 0
M  V30 4798 H 433.581 -0.888386 -1.35349 0
M  V30 4799 H 435.573 0.737115 -3.97931 0
M  V30 4800 H 434.143 1.01935 -2.95513 0
M  V30 4801 H 433.363 -1.35111 -3.70322 0
M  V30 4802 H 434.651 -1.2974 -4.91981 0
M  V30 4803 H 434.049 1.85536 -5.34409 0
M  V30 4804 H 432.606 1.77095 -6.2728 0
M  V30 4805 N 436.039 1.36541 -0.78704 0
M  V30 4806 C 437.286 1.99304 -0.358341 0
M  V30 4807 C 437.614 1.62467 1.06933 0
M  V30 4808 O 436.869 0.870019 1.75297 0
M  V30 4809 C 437.168 3.54343 -0.466485 0
M  V30 4810 C 436.834 4.10993 -1.85461 0
M  V30 4811 C 435.496 4.26177 -2.23443 0
M  V30 4812 C 437.848 4.41895 -2.76366 0
M  V30 4813 C 435.176 4.69573 -3.51736 0
M  V30 4814 C 437.528 4.86722 -4.04084 0
M  V30 4815 C 436.192 5.00112 -4.42091 0
M  V30 4816 H 435.462 0.729306 -0.131126 0
M  V30 4817 H 438.109 1.63068 -1.00404 0
M  V30 4818 H 436.414 3.90918 0.262719 0
M  V30 4819 H 438.111 4.00833 -0.115854 0
M  V30 4820 H 434.701 3.99612 -1.54946 0
M  V30 4821 H 438.885 4.29735 -2.48277 0
M  V30 4822 H 434.141 4.78127 -3.81057 0
M  V30 4823 H 438.315 5.09598 -4.7464 0
M  V30 4824 H 435.942 5.33498 -5.41557 0
M  V30 4825 N 437.518 0.538854 1.48102 0
M  V30 4826 C 438.428 -0.222648 2.33541 0
M  V30 4827 C 439.444 -0.930225 1.47047 0
M  V30 4828 O 440.62 -0.903211 1.80011 0
M  V30 4829 C 437.685 -1.25064 3.23357 0
M  V30 4830 C 436.746 -0.552469 4.2573 0
M  V30 4831 C 435.979 -1.53149 5.11254 0
M  V30 4832 O 436.202 -2.76487 4.9891 0
M  V30 4833 O 435.136 -1.06602 5.92385 0
M  V30 4834 H 438.962 0.477707 2.99919 0
M  V30 4835 H 436.547 0.299669 1.46364 0
M  V30 4836 H 438.429 -1.8445 3.78888 0
M  V30 4837 H 437.104 -1.93325 2.59629 0
M  V30 4838 H 436.011 0.082114 3.7401 0
M  V30 4839 H 437.344 0.0883526 4.92121 0
M  V30 4840 N 438.996 -1.55193 0.274407 0
M  V30 4841 C 439.926 -2.25471 -0.607032 0
M  V30 4842 C 440.907 -1.24461 -1.15946 0
M  V30 4843 O 442.092 -1.53179 -1.19373 0
M  V30 4844 C 439.222 -2.97526 -1.79153 0
M  V30 4845 C 438.176 -4.05459 -1.37067 0
M  V30 4846 C 437.502 -4.65084 -2.6382 0
M  V30 4847 C 438.802 -5.19691 -0.521389 0
M  V30 4848 H 440.496 -2.99393 -0.0209343 0
M  V30 4849 H 438.042 -1.43997 -0.00862866 0
M  V30 4850 H 439.995 -3.45402 -2.41404 0
M  V30 4851 H 438.719 -2.21138 -2.40344 0
M  V30 4852 H 437.378 -3.58393 -0.771355 0
M  V30 4853 H 437.026 -3.85365 -3.23268 0
M  V30 4854 H 436.726 -5.37961 -2.36372 0
M  V30 4855 H 438.25 -5.15708 -3.26921 0
M  V30 4856 H 439.664 -5.63623 -1.04889 0
M  V30 4857 H 438.061 -5.99126 -0.341825 0
M  V30 4858 H 439.131 -4.82713 0.46 0
M  V30 4859 N 440.474 -0.00167713 -1.576 0
M  V30 4860 C 441.721 0.68282 -1.90641 0
M  V30 4861 C 442.049 1.73686 -0.875415 0
M  V30 4862 O 441.304 1.95334 0.119575 0
M  V30 4863 C 441.603 1.36189 -3.30435 0
M  V30 4864 C 441.269 0.440887 -4.48739 0
M  V30 4865 C 439.931 0.187312 -4.80835 0
M  V30 4866 C 442.283 -0.193134 -5.20842 0
M  V30 4867 C 439.611 -0.70855 -5.82406 0
M  V30 4868 C 441.963 -1.07688 -6.23367 0
M  V30 4869 C 440.627 -1.33962 -6.53919 0
M  V30 4870 H 439.897 0.249862 -0.697603 0
M  V30 4871 H 442.544 -0.0575642 -1.91413 0
M  V30 4872 H 440.849 2.17636 -3.25794 0
M  V30 4873 H 442.546 1.89759 -3.5326 0
M  V30 4874 H 439.136 0.648694 -4.23663 0
M  V30 4875 H 443.32 -0.0102445 -4.96299 0
M  V30 4876 H 438.576 -0.920097 -6.04437 0
M  V30 4877 H 442.75 -1.57451 -6.78367 0
M  V30 4878 H 440.377 -2.03549 -7.32442 0
M  V30 4879 N 441.952 1.55251 0.271103 0
M  V30 4880 C 442.862 1.9136 1.35714 0
M  V30 4881 C 443.878 0.811075 1.5394 0
M  V30 4882 O 445.054 1.11031 1.6803 0
M  V30 4883 C 442.119 2.1798 2.69603 0
M  V30 4884 C 441.18 3.4153 2.60107 0
M  V30 4885 C 440.413 3.66871 3.8761 0
M  V30 4886 O 440.636 2.94689 4.8838 0
M  V30 4887 O 439.57 4.60405 3.87699 0
M  V30 4888 H 443.396 2.83815 1.08088 0
M  V30 4889 H 440.981 1.41821 0.469792 0
M  V30 4890 H 442.863 2.36518 3.48765 0
M  V30 4891 H 441.538 1.28708 2.97012 0
M  V30 4892 H 440.445 3.28325 1.79314 0
M  V30 4893 H 441.778 4.31027 2.37647 0
M  V30 4894 N 443.43 -0.535701 1.48216 0
M  V30 4895 C 444.846 -0.863701 1.3421 0
M  V30 4896 C 445.046 -1.98458 0.34879 0
M  V30 4897 O 444.102 -2.51432 -0.23204 0
M  V30 4898 C 445.415 -1.23662 2.74095 0
M  V30 4899 C 446.963 -1.34683 2.82541 0
M  V30 4900 C 447.438 -1.75322 4.23115 0
M  V30 4901 N 448.929 -1.82434 4.2576 0
M  V30 4902 C 449.664 -2.15252 5.31464 0
M  V30 4903 N 449.16 -2.46533 6.47452 0
M  V30 4904 N 450.953 -2.16209 5.18855 0
M  V30 4905 H 443.104 0.203965 2.11418 0
M  V30 4906 H 445.367 0.0286033 0.947568 0
M  V30 4907 H 445.073 -0.486674 3.48316 0
M  V30 4908 H 444.947 -2.18805 3.07253 0
M  V30 4909 H 447.334 -2.08756 2.08579 0
M  V30 4910 H 447.415 -0.376756 2.5301 0
M  V30 4911 H 447.059 -1.01812 4.97591 0
M  V30 4912 H 446.989 -2.7337 4.50085 0
M  V30 4913 H 449.48 -1.6056 3.42095 0
M  V30 4914 H 449.793 -2.70662 7.23852 0
M  V30 4915 H 448.138 -2.44065 6.50736 0
M  V30 4916 H 451.329 -1.91224 4.2726 0
M  V30 4917 H 451.502 -2.41453 6.01335 0
M  V30 4918 N 444.908 -1.36708 -0.784132 0
M  V30 4919 C 445.856 -1.31533 -1.91838 0
M  V30 4920 C 446.85 -0.206205 -1.6814 0
M  V30 4921 O 448.056 -0.373519 -1.76082 0
M  V30 4922 H 444.431 -0.409613 -0.630651 0
M  V30 4923 H 446.402 -2.2731 -1.9332 0
M  V30 4924 C 445.151 -1.12679 -3.28936 0
M  V30 4925 H 444.474 -1.97274 -3.4774 0
M  V30 4926 H 445.914 -1.13106 -4.08636 0
M  V30 4927 C 444.373 0.168281 -3.36479 0
M  V30 4928 O 444.903 1.15625 -3.84699 0
M  V30 4929 N 443.109 0.214762 -2.89805 0
M  V30 4930 H 442.656 -0.589852 -2.50756 0
M  V30 4931 H 442.614 1.08094 -2.95234 0
M  V30 4932 N 446.386 1.0089 -1.21074 0
M  V30 4933 C 447.296 2.13039 -0.982425 0
M  V30 4934 C 448.312 1.73881 0.0642161 0
M  V30 4935 O 449.488 2.01012 -0.12496 0
M  V30 4936 C 446.553 3.42377 -0.545803 0
M  V30 4937 C 445.614 3.95731 -1.6642 0
M  V30 4938 C 444.847 5.18896 -1.24832 0
M  V30 4939 O 445.07 5.70273 -0.120265 0
M  V30 4940 O 444.004 5.65597 -2.05873 0
M  V30 4941 H 447.83 2.35175 -1.92163 0
M  V30 4942 H 445.415 1.1142 -0.995285 0
M  V30 4943 H 447.297 4.20244 -0.311912 0
M  V30 4944 H 445.972 3.21639 0.364727 0
M  V30 4945 H 444.879 3.19108 -1.95246 0
M  V30 4946 H 446.212 4.20872 -2.55201 0
M  V30 4947 N 447.864 1.01787 1.20321 0
M  V30 4948 C 448.827 0.593972 2.2137 0
M  V30 4949 C 449.827 -0.336553 1.57239 0
M  V30 4950 O 451.017 -0.125069 1.7375 0
M  V30 4951 C 448.149 -0.132433 3.40643 0
M  V30 4952 H 449.342 1.48791 2.60387 0
M  V30 4953 H 446.895 0.807803 1.33807 0
M  V30 4954 H 447.63 -1.04123 3.0713 0
M  V30 4955 H 447.415 0.53605 3.88418 0
M  V30 4956 H 448.905 -0.416314 4.1552 0
M  V30 4957 N 449.342 -1.36122 0.79427 0
M  V30 4958 C 450.274 -2.28683 0.153903 0
M  V30 4959 C 451.287 -1.49707 -0.639669 0
M  V30 4960 O 452.476 -1.7209 -0.474054 0
M  V30 4961 C 449.576 -3.29202 -0.804921 0
M  V30 4962 C 448.749 -4.37358 -0.060366 0
M  V30 4963 C 447.808 -5.17811 -0.935849 0
M  V30 4964 O 446.834 -5.67853 -0.391309 0
M  V30 4965 N 448.036 -5.34721 -2.25951 0
M  V30 4966 H 450.801 -2.84278 0.949008 0
M  V30 4967 H 448.362 -1.4834 0.648611 0
M  V30 4968 H 450.354 -3.79914 -1.39455 0
M  V30 4969 H 448.924 -2.74212 -1.50088 0
M  V30 4970 H 448.144 -3.87746 0.710382 0
M  V30 4971 H 449.432 -5.06777 0.45324 0
M  V30 4972 H 448.83 -4.95687 -2.72601 0
M  V30 4973 H 447.387 -5.88657 -2.79867 0
M  V30 4974 N 450.82 -0.546701 -1.47814 0
M  V30 4975 C 451.752 0.244196 -2.27895 0
M  V30 4976 C 452.765 0.88911 -1.36377 0
M  V30 4977 O 453.954 0.764733 -1.61289 0
M  V30 4978 C 451.054 1.36252 -3.10304 0
M  V30 4979 C 450.227 0.816382 -4.29714 0
M  V30 4980 C 449.286 1.81789 -4.93801 0
M  V30 4981 O 448.312 1.36818 -5.52512 0
M  V30 4982 N 449.514 3.15085 -4.87547 0
M  V30 4983 H 452.279 -0.442694 -2.96412 0
M  V30 4984 H 449.84 -0.382095 -1.57327 0
M  V30 4985 H 451.832 2.03102 -3.50045 0
M  V30 4986 H 450.402 1.95281 -2.44099 0
M  V30 4987 H 449.622 -0.0285981 -3.9419 0
M  V30 4988 H 450.91 0.430668 -5.06974 0
M  V30 4989 H 450.308 3.54275 -4.41028 0
M  V30 4990 H 448.865 3.77522 -5.31339 0
M  V30 4991 N 452.299 1.55045 -0.282633 0
M  V30 4992 C 453.547 1.99365 0.331334 0
M  V30 4993 C 453.868 1.1725 1.55812 0
M  V30 4994 O 453.138 0.263871 1.94115 0
M  V30 4995 H 451.718 0.736397 0.125414 0
M  V30 4996 H 454.38 1.90964 -0.389711 0
M  V30 4997 H 453.476 3.0596 0.616036 0
M  V30 4998 N 453.777 0.010035 1.57597 0
M  V30 4999 C 455.193 -0.346164 1.55801 0
M  V30 5000 C 455.393 -1.74144 1.01371 0
M  V30 5001 O 454.449 -2.43938 0.651968 0
M  V30 5002 C 455.762 -0.212216 2.9995 0
M  V30 5003 C 457.31 -0.286409 3.11687 0
M  V30 5004 C 457.785 -0.18147 4.5764 0
M  V30 5005 N 459.276 -0.239056 4.62583 0
M  V30 5006 C 460.011 -0.181351 5.73113 0
M  V30 5007 N 459.507 -0.073661 6.92761 0
M  V30 5008 N 461.3 -0.233949 5.61613 0
M  V30 5009 H 453.451 0.922657 1.91313 0
M  V30 5010 H 455.714 0.354595 0.879185 0
M  V30 5011 H 455.42 0.748169 3.4365 0
M  V30 5012 H 455.294 -0.990224 3.6397 0
M  V30 5013 H 457.681 -1.23724 2.67911 0
M  V30 5014 H 457.762 0.521645 2.50425 0
M  V30 5015 H 457.406 0.765863 5.02093 0
M  V30 5016 H 457.336 -1.00814 5.1686 0
M  V30 5017 H 459.827 -0.32321 3.76515 0
M  V30 5018 H 460.14 -0.0358003 7.72792 0
M  V30 5019 H 458.485 -0.0391461 6.94989 0
M  V30 5020 H 461.676 -0.316347 4.6703 0
M  V30 5021 H 461.849 -0.185514 6.47734 0
M  V30 5022 N 455.255 -1.55392 -0.262866 0
M  V30 5023 C 456.187 -1.85392 -1.34768 0
M  V30 5024 C 457.2 -0.739069 -1.45057 0
M  V30 5025 O 458.389 -1.01703 -1.46693 0
M  V30 5026 C 455.489 -2.01088 -2.72795 0
M  V30 5027 C 454.662 -3.31828 -2.84972 0
M  V30 5028 C 453.721 -3.37464 -4.03738 0
M  V30 5029 O 452.747 -4.10778 -3.94018 0
M  V30 5030 N 453.949 -2.65599 -5.16176 0
M  V30 5031 H 456.714 -2.79029 -1.09375 0
M  V30 5032 H 454.275 -1.55434 -0.452981 0
M  V30 5033 H 456.267 -2.02217 -3.50557 0
M  V30 5034 H 454.837 -1.1427 -2.90966 0
M  V30 5035 H 454.057 -3.43152 -1.94012 0
M  V30 5036 H 455.345 -4.18032 -2.90045 0
M  V30 5037 H 454.743 -2.05736 -5.26962 0
M  V30 5038 H 453.3 -2.72439 -5.92132 0
M  V30 5039 N 456.733 0.527833 -1.48498 0
M  V30 5040 C 457.979 1.28545 -1.56857 0
M  V30 5041 C 458.312 1.92678 -0.242651 0
M  V30 5042 O 457.587 1.79394 0.751545 0
M  V30 5043 C 457.87 2.37314 -2.70839 0
M  V30 5044 C 457.723 1.77858 -4.13142 0
M  V30 5045 C 459.042 3.39068 -2.80573 0
M  V30 5046 H 456.161 0.466006 -0.570971 0
M  V30 5047 H 458.803 0.587784 -1.8068 0
M  V30 5048 H 456.953 2.96821 -2.50658 0
M  V30 5049 H 458.625 1.22385 -4.44769 0
M  V30 5050 H 456.868 1.08383 -4.20042 0
M  V30 5051 H 457.539 2.56624 -4.88721 0
M  V30 5052 H 460.015 2.89518 -2.98862 0
M  V30 5053 H 458.891 4.12566 -3.6205 0
M  V30 5054 H 459.152 3.9975 -1.88818 0
M  V30 5055 N 458.211 1.37122 0.776871 0
M  V30 5056 C 459.439 1.3523 1.5659 0
M  V30 5057 C 459.854 -0.0635518 1.88693 0
M  V30 5058 O 459.211 -1.02394 1.51069 0
M  V30 5059 C 459.262 2.18583 2.8793 0
M  V30 5060 O 458.983 3.5465 2.57206 0
M  V30 5061 C 460.484 2.24612 3.82183 0
M  V30 5062 H 457.704 0.4634 0.485285 0
M  V30 5063 H 460.248 1.80392 0.963266 0
M  V30 5064 H 458.403 1.76943 3.4463 0
M  V30 5065 H 458.817 3.98286 3.41275 0
M  V30 5066 H 460.291 2.87267 4.71361 0
M  V30 5067 H 460.768 1.25309 4.20944 0
M  V30 5068 H 461.374 2.66543 3.31414 0
M  V30 5069 N 459.689 -1.00246 1.21608 0
M  V30 5070 C 460.937 -1.73717 1.0328 0
M  V30 5071 C 461.258 -1.90102 -0.434318 0
M  V30 5072 O 460.528 -1.45376 -1.31311 0
M  V30 5073 H 459.108 -0.643613 0.379172 0
M  V30 5074 H 461.77 -1.20787 1.52959 0
M  V30 5075 H 460.866 -2.73535 1.50283 0
M  V30 5076 N 461.167 -1.02423 -1.1978 0
M  V30 5077 C 462.114 -0.601023 -2.22837 0
M  V30 5078 C 463.084 0.382801 -1.61629 0
M  V30 5079 O 464.269 0.280514 -1.88727 0
M  V30 5080 C 461.409 0.0467755 -3.45068 0
M  V30 5081 C 460.522 -0.98253 -4.20678 0
M  V30 5082 C 459.657 -0.304982 -5.30324 0
M  V30 5083 C 458.696 -1.32052 -5.97686 0
M  V30 5084 N 457.833 -0.669105 -6.98904 0
M  V30 5085 H 462.673 -1.48444 -2.58396 0
M  V30 5086 H 460.21 -0.742936 -1.2696 0
M  V30 5087 H 462.168 0.439556 -4.14878 0
M  V30 5088 H 460.798 0.893796 -3.10179 0
M  V30 5089 H 459.85 -1.49341 -3.49859 0
M  V30 5090 H 461.162 -1.75455 -4.66923 0
M  V30 5091 H 460.316 0.142893 -6.06532 0
M  V30 5092 H 459.055 0.499283 -4.85138 0
M  V30 5093 H 458.06 -1.7787 -5.20233 0
M  V30 5094 H 459.285 -2.1262 -6.44957 0
M  V30 5095 H 457.231 0.115152 -6.55899 0
M  V30 5096 H 457.148 -1.37908 -7.43315 0
M  V30 5097 H 458.416 -0.245076 -7.79115 0
M  V30 5098 N 462.645 1.35699 -0.801477 0
M  V30 5099 C 463.891 1.99643 -0.389135 0
M  V30 5100 C 464.246 1.62447 1.03095 0
M  V30 5101 O 463.539 0.875064 1.7045 0
M  V30 5102 C 463.733 3.53828 -0.504041 0
M  V30 5103 C 463.562 4.06 -1.93375 0
M  V30 5104 C 462.332 4.35592 -2.561 0
M  V30 5105 C 464.53 4.24905 -2.89759 0
M  V30 5106 N 462.512 4.73663 -3.90534 0
M  V30 5107 C 463.883 4.65914 -4.09052 0
M  V30 5108 C 465.938 4.07101 -2.86658 0
M  V30 5109 C 464.641 4.90984 -5.25669 0
M  V30 5110 C 466.667 4.33324 -4.02472 0
M  V30 5111 C 466.029 4.74601 -5.20512 0
M  V30 5112 H 462.128 0.758552 -0.19006 0
M  V30 5113 H 464.712 1.64493 -1.04164 0
M  V30 5114 H 462.883 3.88219 0.118437 0
M  V30 5115 H 464.615 4.04645 -0.0667794 0
M  V30 5116 H 461.37 4.25728 -2.07492 0
M  V30 5117 H 461.794 4.96965 -4.59734 0
M  V30 5118 H 466.436 3.74335 -1.96552 0
M  V30 5119 H 464.154 5.22626 -6.1635 0
M  V30 5120 H 467.74 4.21107 -4.01447 0
M  V30 5121 H 466.62 4.94497 -6.08639 0
M  V30 5122 N 464.123 0.554532 1.47522 0
M  V30 5123 C 465.348 0.0322661 2.07375 0
M  V30 5124 C 465.773 -1.25079 1.40488 0
M  V30 5125 O 465.131 -1.74859 0.47896 0
M  V30 5126 C 465.179 -0.149397 3.6029 0
M  V30 5127 O 464.283 -1.21259 3.9417 0
M  V30 5128 H 463.624 0.0501228 0.662106 0
M  V30 5129 H 466.154 0.769452 1.8958 0
M  V30 5130 H 466.164 -0.364437 4.06369 0
M  V30 5131 H 464.839 0.787743 4.08372 0
M  V30 5132 H 463.416 -0.97825 3.5984 0
M  V30 5133 N 465.601 -1.54893 0.290851 0
M  V30 5134 C 466.847 -2.00949 -0.314784 0
M  V30 5135 C 467.202 -1.1757 -1.52299 0
M  V30 5136 O 466.495 -0.241558 -1.90071 0
M  V30 5137 C 466.689 -3.49815 -0.732397 0
M  V30 5138 C 466.518 -4.47603 0.433799 0
M  V30 5139 C 465.288 -4.96806 0.922599 0
M  V30 5140 C 467.486 -4.98233 1.27546 0
M  V30 5141 N 465.468 -5.78426 2.05662 0
M  V30 5142 C 466.839 -5.77455 2.25712 0
M  V30 5143 C 468.894 -4.80439 1.307 0
M  V30 5144 C 467.597 -6.40778 3.26796 0
M  V30 5145 C 469.623 -5.44574 2.30637 0
M  V30 5146 C 468.985 -6.23619 3.27533 0
M  V30 5147 H 465.084 -0.777905 -0.0799257 0
M  V30 5148 H 467.668 -1.9015 0.418458 0
M  V30 5149 H 465.839 -3.60925 -1.43483 0
M  V30 5150 H 467.571 -3.82681 -1.31671 0
M  V30 5151 H 464.326 -4.70961 0.49926 0
M  V30 5152 H 464.75 -6.23923 2.62772 0
M  V30 5153 H 469.392 -4.18918 0.571622 0
M  V30 5154 H 467.11 -7.01439 4.01258 0
M  V30 5155 H 470.696 -5.32739 2.33838 0
M  V30 5156 H 469.576 -6.72367 4.03599 0
M  V30 5157 N 467.08 -0.0183926 -1.57589 0
M  V30 5158 C 468.01 0.965596 -2.12599 0
M  V30 5159 C 468.991 1.34641 -1.0395 0
M  V30 5160 O 470.176 1.42693 -1.31729 0
M  V30 5161 C 467.306 2.25149 -2.64434 0
M  V30 5162 C 466.26 2.01175 -3.77773 0
M  V30 5163 C 465.586 3.35937 -4.15994 0
M  V30 5164 C 466.886 1.35953 -5.04296 0
M  V30 5165 H 468.58 0.507504 -2.95067 0
M  V30 5166 H 466.126 0.242671 -1.41941 0
M  V30 5167 H 468.079 2.94357 -3.01549 0
M  V30 5168 H 466.803 2.73105 -1.79112 0
M  V30 5169 H 465.462 1.34388 -3.4108 0
M  V30 5170 H 465.11 3.81631 -3.27669 0
M  V30 5171 H 464.81 3.20705 -4.92364 0
M  V30 5172 H 466.334 4.0643 -4.55683 0
M  V30 5173 H 467.748 1.95144 -5.39065 0
M  V30 5174 H 466.145 1.31152 -5.85593 0
M  V30 5175 H 467.215 0.331071 -4.83768 0
M  V30 5176 N 468.558 1.5553 0.254621 0
M  V30 5177 C 469.521 1.88872 1.29846 0
M  V30 5178 C 470.521 0.764591 1.41459 0
M  V30 5179 O 471.711 1.03265 1.40293 0
M  V30 5180 C 468.843 2.11032 2.67728 0
M  V30 5181 H 470.036 2.82201 1.01502 0
M  V30 5182 H 467.589 1.48303 0.493556 0
M  V30 5183 H 468.324 1.20146 3.01223 0
M  V30 5184 H 468.109 2.92895 2.60682 0
M  V30 5185 H 469.599 2.38038 3.43115 0
M  V30 5186 N 470.036 -0.519951 1.48776 0
M  V30 5187 C 471.447 -1.10177 1.50725 0
M  V30 5188 C 471.798 -1.94153 0.282678 0
M  V30 5189 O 470.923 -2.07645 -0.609298 0
M  V30 5190 C 471.518 -2.00482 2.73116 0
M  V30 5191 C 470.077 -2.53862 2.77905 0
M  V30 5192 C 469.224 -1.31047 2.44381 0
M  V30 5193 H 472.175 -0.30473 1.55747 0
M  V30 5194 H 472.196 -2.8491 2.52203 0
M  V30 5195 H 471.708 -1.39335 3.62225 0
M  V30 5196 H 469.809 -3.18702 1.93029 0
M  V30 5197 H 469.922 -2.9231 3.79594 0
M  V30 5198 H 468.286 -1.62953 1.95751 0
M  V30 5199 H 469.069 -0.71637 3.35743 0
M  V30 5200 N 471.514 -1.37532 -0.769588 0
M  V30 5201 C 472.925 -1.29382 -1.346 0
M  V30 5202 C 473.276 0.0576039 -1.96115 0
M  V30 5203 O 472.401 0.95947 -1.93967 0
M  V30 5204 C 472.996 -2.34298 -2.44724 0
M  V30 5205 C 471.555 -2.29776 -2.98128 0
M  V30 5206 C 470.702 -2.18013 -1.71364 0
M  V30 5207 H 473.653 -1.48123 -0.56968 0
M  V30 5208 H 473.674 -1.99089 -3.24259 0
M  V30 5209 H 473.186 -3.32645 -1.99922 0
M  V30 5210 H 471.287 -1.34959 -3.47299 0
M  V30 5211 H 471.4 -3.23276 -3.53595 0
M  V30 5212 H 469.764 -1.64595 -1.94372 0
M  V30 5213 H 470.547 -3.18278 -1.28662 0
M  V30 5214 N 472.992 0.995999 -1.22138 0
M  V30 5215 C 473.922 2.10387 -1.01289 0
M  V30 5216 C 474.903 1.69975 0.0651454 0
M  V30 5217 O 476.088 1.9396 -0.0964628 0
M  V30 5218 C 473.218 3.42312 -0.586517 0
M  V30 5219 C 472.172 3.96558 -1.61014 0
M  V30 5220 C 471.498 5.24494 -1.0397 0
M  V30 5221 C 472.798 4.27595 -2.99933 0
M  V30 5222 H 474.492 2.28086 -1.93951 0
M  V30 5223 H 472.038 1.09607 -0.933928 0
M  V30 5224 H 473.991 4.19223 -0.427793 0
M  V30 5225 H 472.715 3.24431 0.375761 0
M  V30 5226 H 471.374 3.21776 -1.75658 0
M  V30 5227 H 471.022 5.02953 -0.0688703 0
M  V30 5228 H 470.722 5.61755 -1.72352 0
M  V30 5229 H 472.246 6.04042 -0.892494 0
M  V30 5230 H 473.66 4.95315 -2.8868 0
M  V30 5231 H 472.057 4.76021 -3.6541 0
M  V30 5232 H 473.127 3.35498 -3.50099 0
M  V30 5233 N 474.47 1.03057 1.19235 0
M  V30 5234 C 475.695 0.74757 1.93458 0
M  V30 5235 C 476.12 -0.687648 1.7508 0
M  V30 5236 O 475.478 -1.47499 1.05422 0
M  V30 5237 C 475.526 1.10604 3.43219 0
M  V30 5238 O 474.63 0.225671 4.11782 0
M  V30 5239 H 473.971 0.276047 0.603899 0
M  V30 5240 H 476.501 1.3777 1.51263 0
M  V30 5241 H 476.511 1.06366 3.93891 0
M  V30 5242 H 475.186 2.15165 3.55917 0
M  V30 5243 H 473.763 0.326795 3.71465 0
M  V30 5244 N 475.948 -1.35272 0.808662 0
M  V30 5245 C 477.359 -1.81179 0.450688 0
M  V30 5246 C 477.71 -1.67143 -1.02751 0
M  V30 5247 O 476.835 -1.20325 -1.79864 0
M  V30 5248 C 477.43 -3.28943 0.811275 0
M  V30 5249 C 475.989 -3.72985 0.505871 0
M  V30 5250 C 475.136 -2.57229 1.03578 0
M  V30 5251 H 478.087 -1.2322 1.00012 0
M  V30 5252 H 478.108 -3.80342 0.109588 0
M  V30 5253 H 477.62 -3.39127 1.88718 0
M  V30 5254 H 475.721 -3.68349 -0.561209 0
M  V30 5255 H 475.834 -4.67677 1.03995 0
M  V30 5256 H 474.198 -2.50548 0.458005 0
M  V30 5257 H 474.981 -2.7019 2.11784 0
M  V30 5258 N 477.426 -0.562348 -1.47226 0
M  V30 5259 C 478.654 -0.0452275 -2.06851 0
M  V30 5260 C 479.069 1.25078 -1.41424 0
M  V30 5261 O 478.426 1.75156 -0.512513 0
M  V30 5262 C 478.477 0.148674 -3.61194 0
M  V30 5263 O 478.198 -1.09602 -4.24169 0
M  V30 5264 C 479.699 0.702488 -4.37699 0
M  V30 5265 H 476.919 -0.0481775 -0.669268 0
M  V30 5266 H 479.463 -0.777223 -1.89155 0
M  V30 5267 H 477.618 0.830817 -3.78386 0
M  V30 5268 H 478.032 -0.896982 -5.16773 0
M  V30 5269 H 479.506 0.78743 -5.46355 0
M  V30 5270 H 479.983 1.71493 -4.04335 0
M  V30 5271 H 480.589 0.0558772 -4.25263 0
M  V30 5272 N 478.904 1.54736 -0.299062 0
M  V30 5273 C 479.834 2.26409 0.571085 0
M  V30 5274 C 480.815 1.2629 1.13951 0
M  V30 5275 O 482 1.55059 1.16921 0
M  V30 5276 C 479.13 3.00338 1.74396 0
M  V30 5277 C 478.084 4.07588 1.30599 0
M  V30 5278 C 477.41 4.69222 2.56387 0
M  V30 5279 C 478.71 5.20455 0.438645 0
M  V30 5280 H 480.404 2.99388 -0.0266991 0
M  V30 5281 H 477.95 1.43993 -0.0142812 0
M  V30 5282 H 479.903 3.49198 2.35878 0
M  V30 5283 H 478.627 2.24934 2.36796 0
M  V30 5284 H 477.286 3.59575 0.71424 0
M  V30 5285 H 476.934 3.9046 3.17097 0
M  V30 5286 H 476.634 5.41653 2.27784 0
M  V30 5287 H 478.158 5.20844 3.18675 0
M  V30 5288 H 479.572 5.65221 0.959085 0
M  V30 5289 H 477.969 5.99594 0.246466 0
M  V30 5290 H 479.039 4.8192 -0.536738 0
M  V30 5291 N 480.382 0.0267497 1.57577 0
M  V30 5292 C 481.61 -0.662661 1.96001 0
M  V30 5293 C 482.025 -1.65799 0.903117 0
M  V30 5294 O 481.382 -1.82135 -0.115317 0
M  V30 5295 C 481.433 -1.37112 3.34488 0
M  V30 5296 O 481.154 -0.415683 4.36123 0
M  V30 5297 C 482.655 -2.15257 3.8753 0
M  V30 5298 H 479.875 -0.18287 0.6456 0
M  V30 5299 H 482.419 0.0858116 2.0432 0
M  V30 5300 H 480.574 -2.07101 3.27395 0
M  V30 5301 H 480.988 -0.918496 5.16395 0
M  V30 5302 H 482.462 -2.60285 4.86781 0
M  V30 5303 H 482.939 -2.99063 3.21649 0
M  V30 5304 H 483.545 -1.50231 3.97883 0
M  V30 5305 N 481.861 -1.55662 -0.24637 0
M  V30 5306 C 483.086 -1.81914 -0.996093 0
M  V30 5307 C 483.511 -0.603875 -1.78143 0
M  V30 5308 O 482.869 0.447091 -1.75701 0
M  V30 5309 C 482.917 -3.05908 -1.90925 0
M  V30 5310 O 482.021 -2.82861 -3.00105 0
M  V30 5311 H 481.362 -0.600481 -0.283406 0
M  V30 5312 H 483.892 -2.02848 -0.267199 0
M  V30 5313 H 483.902 -3.35356 -2.3238 0
M  V30 5314 H 482.577 -3.93999 -1.33183 0
M  V30 5315 H 481.154 -2.64583 -2.62775 0
M  V30 5316 N 483.339 0.512053 -1.4905 0
M  V30 5317 C 484.287 1.63568 -1.65373 0
M  V30 5318 C 485.281 1.61228 -0.519806 0
M  V30 5319 O 486.487 1.65869 -0.699101 0
M  V30 5320 H 482.862 0.542019 -0.521267 0
M  V30 5321 H 484.833 1.4695 -2.59708 0
M  V30 5322 C 483.582 3.01761 -1.7273 0
M  V30 5323 H 482.905 3.04263 -2.59353 0
M  V30 5324 H 484.345 3.79948 -1.8819 0
M  V30 5325 C 482.804 3.33609 -0.46973 0
M  V30 5326 O 483.334 3.99607 0.409492 0
M  V30 5327 N 481.54 2.88651 -0.336003 0
M  V30 5328 H 481.087 2.35119 -1.05247 0
M  V30 5329 H 481.045 3.10328 0.504363 0
M  V30 5330 N 484.817 1.37938 0.762283 0
M  V30 5331 C 486.047 1.36685 1.54922 0
M  V30 5332 C 486.455 -0.0474099 1.89141 0
M  V30 5333 O 485.798 -1.02213 1.52638 0
M  V30 5334 C 485.86 2.14963 2.88152 0
M  V30 5335 C 485.524 3.6385 2.76518 0
M  V30 5336 C 486.521 4.57531 2.46904 0
M  V30 5337 C 484.206 4.07095 2.94243 0
M  V30 5338 C 486.2 5.92436 2.35156 0
M  V30 5339 C 483.887 5.42083 2.82116 0
M  V30 5340 C 484.885 6.34567 2.52614 0
M  V30 5341 O 484.573 7.67073 2.40529 0
M  V30 5342 H 484.305 0.469586 0.486276 0
M  V30 5343 H 486.859 1.82012 0.951876 0
M  V30 5344 H 485.089 1.6434 3.50042 0
M  V30 5345 H 486.778 2.06224 3.49609 0
M  V30 5346 H 487.544 4.25428 2.32886 0
M  V30 5347 H 483.423 3.35462 3.16206 0
M  V30 5348 H 486.967 6.64591 2.12049 0
M  V30 5349 H 482.864 5.73785 2.95704 0
M  V30 5350 H 483.632 7.77499 2.55807 0
M  V30 5351 N 486.295 -0.989507 1.22664 0
M  V30 5352 C 487.245 -2.06478 0.967005 0
M  V30 5353 C 488.229 -1.60682 -0.0836374 0
M  V30 5354 O 489.421 -1.76541 0.127322 0
M  V30 5355 C 486.55 -3.38861 0.550313 0
M  V30 5356 C 485.636 -3.9128 1.63587 0
M  V30 5357 N 486.027 -4.16884 2.86429 0
M  V30 5358 C 484.325 -4.1972 1.50834 0
M  V30 5359 C 485.026 -4.5954 3.56648 0
M  V30 5360 N 484.002 -4.63434 2.84131 0
M  V30 5361 H 487.804 -2.24219 1.90008 0
M  V30 5362 H 485.318 -1.17153 1.12467 0
M  V30 5363 H 487.315 -4.15465 0.345612 0
M  V30 5364 H 485.975 -3.22518 -0.375822 0
M  V30 5365 H 486.986 -4.04976 3.22823 0
M  V30 5366 H 483.663 -4.1243 0.648643 0
M  V30 5367 H 485.053 -4.87944 4.61909 0
M  V30 5368 N 487.773 -1.03688 -1.18687 0
M  V30 5369 C 488.723 -0.595067 -2.20098 0
M  V30 5370 C 489.707 0.360465 -1.5681 0
M  V30 5371 O 490.899 0.180136 -1.76081 0
M  V30 5372 C 488.028 0.0444495 -3.43271 0
M  V30 5373 C 487.114 -0.934002 -4.13687 0
M  V30 5374 N 487.505 -2.09957 -4.60165 0
M  V30 5375 C 485.803 -0.759177 -4.39491 0
M  V30 5376 C 486.504 -2.71735 -5.1433 0
M  V30 5377 N 485.48 -1.99638 -5.05614 0
M  V30 5378 H 489.282 -1.48336 -2.5372 0
M  V30 5379 H 486.796 -0.904949 -1.3485 0
M  V30 5380 H 488.793 0.37864 -4.15177 0
M  V30 5381 H 487.453 0.928325 -3.11147 0
M  V30 5382 H 488.464 -2.47863 -4.54735 0
M  V30 5383 H 485.141 0.0749292 -4.17433 0
M  V30 5384 H 486.531 -3.70492 -5.60523 0
M  V30 5385 N 489.251 1.34841 -0.815825 0
M  V30 5386 C 490.499 1.98107 -0.399744 0
M  V30 5387 C 490.82 1.65019 1.03894 0
M  V30 5388 O 490.09 0.937311 1.72021 0
M  V30 5389 H 488.67 0.732827 -0.144823 0
M  V30 5390 H 491.332 1.64599 -1.0437 0
M  V30 5391 H 490.428 3.07856 -0.512965 0
M  V30 5392 N 490.729 0.570148 1.46925 0
M  V30 5393 C 491.959 0.0561151 2.06524 0
M  V30 5394 C 492.367 -1.24874 1.42137 0
M  V30 5395 O 491.71 -1.76292 0.516417 0
M  V30 5396 C 491.772 -0.197035 3.5896 0
M  V30 5397 C 491.436 1.02033 4.45464 0
M  V30 5398 C 492.433 1.92921 4.82781 0
M  V30 5399 C 490.118 1.23864 4.86788 0
M  V30 5400 C 492.112 3.03999 5.60235 0
M  V30 5401 C 489.799 2.35249 5.64004 0
M  V30 5402 C 490.797 3.25146 6.0064 0
M  V30 5403 O 490.485 4.34598 6.76299 0
M  V30 5404 H 490.217 0.0487409 0.674241 0
M  V30 5405 H 492.771 0.786915 1.89728 0
M  V30 5406 H 491.001 -0.982299 3.74016 0
M  V30 5407 H 492.69 -0.658032 4.00531 0
M  V30 5408 H 493.456 1.77265 4.51444 0
M  V30 5409 H 489.335 0.54805 4.57731 0
M  V30 5410 H 492.879 3.74192 5.8875 0
M  V30 5411 H 488.776 2.50873 5.94755 0
M  V30 5412 H 489.544 4.32808 6.94708 0
M  V30 5413 N 492.207 -1.54576 0.307264 0
M  V30 5414 C 493.484 -1.92377 -0.353605 0
M  V30 5415 C 493.864 -1.23517 -1.71192 0
M  V30 5416 O 493.212 -0.373101 -2.25433 0
M  V30 5417 C 493.422 -3.45928 -0.462039 0
M  V30 5418 C 494.77 -4.18278 -0.729975 0
M  V30 5419 O 495.794 -3.51997 -0.545605 0
M  V30 5420 O 494.653 -5.3563 -1.08454 0
M  V30 5421 H 491.747 -0.802747 -0.198812 0
M  V30 5422 H 494.293 -1.65929 0.355783 0
M  V30 5423 H 493.065 -3.88187 0.492592 0
M  V30 5424 H 492.688 -3.78431 -1.21965 0
M  V30 5425 N 493.685 -0.035106 -1.57561 0
M  V30 5426 C 494.633 0.962707 -2.11742 0
M  V30 5427 C 495.627 1.33296 -1.0454 0
M  V30 5428 O 496.833 1.31449 -1.22968 0
M  V30 5429 H 493.208 0.32826 -0.676572 0
M  V30 5430 H 495.179 0.48048 -2.94506 0
M  V30 5431 C 493.928 2.23388 -2.66445 0
M  V30 5432 H 493.251 1.95774 -3.48587 0
M  V30 5433 H 494.691 2.91402 -3.07995 0
M  V30 5434 C 493.15 2.96769 -1.59467 0
M  V30 5435 O 493.68 3.89105 -0.998 0
M  V30 5436 N 491.886 2.59212 -1.31369 0
M  V30 5437 H 491.433 1.84202 -1.80076 0
M  V30 5438 H 491.391 3.08618 -0.600173 0
M  V30 5439 N 495.163 1.55791 0.238111 0
M  V30 5440 C 496.391 1.82098 0.982233 0
M  V30 5441 C 496.806 0.612025 1.78605 0
M  V30 5442 O 496.163 -0.419381 1.77616 0
M  V30 5443 C 496.214 3.0673 1.91309 0
M  V30 5444 O 495.935 4.2296 1.14179 0
M  V30 5445 C 497.436 3.45903 2.77248 0
M  V30 5446 H 494.656 0.605748 0.288635 0
M  V30 5447 H 497.2 2.02862 0.258341 0
M  V30 5448 H 495.355 2.87991 2.59114 0
M  V30 5449 H 495.769 4.93653 1.7722 0
M  V30 5450 H 497.243 4.36189 3.38295 0
M  V30 5451 H 497.72 2.66891 3.48806 0
M  V30 5452 H 498.326 3.67024 2.14881 0
M  V30 5453 N 496.642 -0.504142 1.49319 0
M  V30 5454 C 497.888 -1.26033 1.58882 0
M  V30 5455 C 498.221 -1.92268 0.273274 0
M  V30 5456 O 497.496 -1.80567 -0.72291 0
M  V30 5457 C 497.779 -2.32976 2.7458 0
M  V30 5458 C 497.632 -1.71263 4.1592 0
M  V30 5459 C 498.951 -3.34561 2.85932 0
M  V30 5460 H 496.07 -0.456863 0.578312 0
M  V30 5461 H 498.712 -0.558965 1.81592 0
M  V30 5462 H 496.862 -2.92796 2.55348 0
M  V30 5463 H 498.534 -1.15294 4.4666 0
M  V30 5464 H 496.777 -1.01686 4.21714 0
M  V30 5465 H 497.448 -2.48816 4.92742 0
M  V30 5466 H 499.924 -2.84727 3.0343 0
M  V30 5467 H 498.8 -4.06754 3.68568 0
M  V30 5468 H 499.061 -3.96695 1.95154 0
M  V30 5469 N 498.12 -1.38341 -0.754957 0
M  V30 5470 C 499.067 -1.3546 -1.86867 0
M  V30 5471 C 500.037 -0.217369 -1.64672 0
M  V30 5472 O 501.222 -0.409383 -1.86356 0
M  V30 5473 C 498.362 -1.18413 -3.24149 0
M  V30 5474 C 497.475 -2.41511 -3.58185 0
M  V30 5475 C 496.61 -2.17205 -4.84763 0
M  V30 5476 C 495.649 -3.36081 -5.11582 0
M  V30 5477 N 494.786 -3.11219 -6.29354 0
M  V30 5478 H 499.626 -2.30672 -1.88664 0
M  V30 5479 H 497.163 -1.14607 -0.922154 0
M  V30 5480 H 499.121 -1.06545 -4.03366 0
M  V30 5481 H 497.751 -0.268397 -3.21682 0
M  V30 5482 H 496.803 -2.64056 -2.73822 0
M  V30 5483 H 498.115 -3.30115 -3.73932 0
M  V30 5484 H 497.269 -2.02465 -5.7192 0
M  V30 5485 H 496.008 -1.25964 -4.71152 0
M  V30 5486 H 495.013 -3.51341 -4.22894 0
M  V30 5487 H 496.238 -4.28196 -5.27091 0
M  V30 5488 H 494.184 -2.22624 -6.17069 0
M  V30 5489 H 494.101 -3.93373 -6.45596 0
M  V30 5490 H 495.369 -3.00132 -7.19403 0
M  V30 5491 N 499.598 0.982988 -1.23187 0
M  V30 5492 C 500.875 1.69814 -0.970707 0
M  V30 5493 C 501.255 2.04811 0.511424 0
M  V30 5494 O 500.603 1.73924 1.48198 0
M  V30 5495 C 500.813 2.94143 -1.87831 0
M  V30 5496 C 502.161 3.66712 -2.14026 0
M  V30 5497 O 503.185 3.04171 -1.8536 0
M  V30 5498 O 502.044 4.79258 -2.62629 0
M  V30 5499 H 499.138 0.741659 -0.365884 0
M  V30 5500 H 501.684 1.03844 -1.34218 0
M  V30 5501 H 500.456 2.64858 -2.88038 0
M  V30 5502 H 500.079 3.6785 -1.50905 0
M  V30 5503 N 501.076 1.04316 1.18135 0
M  V30 5504 C 502.487 0.775505 1.69832 0
M  V30 5505 C 502.838 -0.703348 1.8316 0
M  V30 5506 O 501.963 -1.54729 1.51287 0
M  V30 5507 C 502.558 1.40112 3.0847 0
M  V30 5508 C 501.117 1.18172 3.57368 0
M  V30 5509 C 500.264 1.49022 2.33854 0
M  V30 5510 H 503.215 1.20925 1.02775 0
M  V30 5511 H 503.236 0.805672 3.71873 0
M  V30 5512 H 502.748 2.47744 2.98738 0
M  V30 5513 H 500.849 0.124258 3.72393 0
M  V30 5514 H 500.962 1.8805 4.40652 0
M  V30 5515 H 499.326 0.909995 2.37889 0
M  V30 5516 H 500.109 2.57768 2.26738 0
M  V30 5517 N 502.554 -1.34406 0.822964 0
M  V30 5518 C 503.502 -2.31428 0.233165 0
M  V30 5519 C 504.496 -1.57404 -0.626118 0
M  V30 5520 O 505.702 -1.72402 -0.517453 0
M  V30 5521 H 502.077 -0.749863 0.0566557 0
M  V30 5522 H 504.048 -2.78699 1.06628 0
M  V30 5523 C 502.797 -3.42653 -0.590264 0
M  V30 5524 H 502.12 -3.99753 0.0616129 0
M  V30 5525 H 503.56 -4.12778 -0.969054 0
M  V30 5526 C 502.019 -2.87112 -1.76262 0
M  V30 5527 O 502.549 -2.81995 -2.8608 0
M  V30 5528 N 500.755 -2.43934 -1.57938 0
M  V30 5529 H 500.302 -2.48296 -0.686078 0
M  V30 5530 H 500.26 -2.07123 -2.36532 0
M  V30 5531 N 504.032 -0.577932 -1.46621 0
M  V30 5532 C 505.279 -0.0616879 -2.02406 0
M  V30 5533 C 505.607 1.29638 -1.44997 0
M  V30 5534 O 504.862 1.86176 -0.60308 0
M  V30 5535 C 505.161 0.0590832 -3.57351 0
M  V30 5536 C 504.827 -1.23077 -4.33777 0
M  V30 5537 C 503.489 -1.58416 -4.54376 0
M  V30 5538 C 505.841 -2.08457 -4.77698 0
M  V30 5539 C 503.169 -2.78943 -5.16147 0
M  V30 5540 C 505.521 -3.28204 -5.408 0
M  V30 5541 C 504.185 -3.63832 -5.59627 0
M  V30 5542 H 503.455 -0.0225732 -0.740656 0
M  V30 5543 H 506.102 -0.753609 -1.76048 0
M  V30 5544 H 504.407 0.834104 -3.82818 0
M  V30 5545 H 506.104 0.474202 -3.98186 0
M  V30 5546 H 502.694 -0.945652 -4.18038 0
M  V30 5547 H 506.878 -1.82459 -4.61544 0
M  V30 5548 H 502.134 -3.06689 -5.28916 0
M  V30 5549 H 506.308 -3.94634 -5.73792 0
M  V30 5550 H 503.935 -4.57315 -6.07262 0
M  V30 5551 N 505.51 1.54411 -0.315457 0
M  V30 5552 C 506.757 2.00419 0.289543 0
M  V30 5553 C 507.085 1.20373 1.52776 0
M  V30 5554 O 506.34 0.271769 1.93804 0
M  V30 5555 C 506.639 3.50936 0.676652 0
M  V30 5556 C 506.305 4.48532 -0.461472 0
M  V30 5557 C 504.967 4.74936 -0.773879 0
M  V30 5558 C 507.319 5.06567 -1.22637 0
M  V30 5559 C 504.647 5.56634 -1.85405 0
M  V30 5560 C 506.999 5.89441 -2.29657 0
M  V30 5561 C 505.663 6.1415 -2.61488 0
M  V30 5562 H 504.933 0.733386 0.105951 0
M  V30 5563 H 507.58 1.86434 -0.437554 0
M  V30 5564 H 505.885 3.62606 1.48405 0
M  V30 5565 H 507.582 3.83971 1.15618 0
M  V30 5566 H 504.172 4.28096 -0.207893 0
M  V30 5567 H 508.356 4.86157 -0.998271 0
M  V30 5568 H 503.612 5.74012 -2.10523 0
M  V30 5569 H 507.786 6.33432 -2.89374 0
M  V30 5570 H 505.413 6.77245 -3.45317 0
M  V30 5571 N 506.988 0.0434614 1.5754 0
M  V30 5572 C 508.218 -0.640905 1.96408 0
M  V30 5573 C 508.626 -1.65365 0.919297 0
M  V30 5574 O 507.969 -1.83395 -0.105795 0
M  V30 5575 C 508.031 -1.39141 3.31482 0
M  V30 5576 C 507.695 -0.535375 4.53853 0
M  V30 5577 C 508.692 0.195335 5.19533 0
M  V30 5578 C 506.377 -0.468564 5.0011 0
M  V30 5579 C 508.371 0.981377 6.298 0
M  V30 5580 C 506.058 0.321171 6.10255 0
M  V30 5581 C 507.056 1.04484 6.74961 0
M  V30 5582 O 506.744 1.8216 7.8299 0
M  V30 5583 H 506.476 -0.180584 0.651433 0
M  V30 5584 H 509.03 0.103848 2.05137 0
M  V30 5585 H 507.26 -2.18162 3.19284 0
M  V30 5586 H 508.949 -1.96526 3.55151 0
M  V30 5587 H 509.715 0.15314 4.84758 0
M  V30 5588 H 505.594 -1.02142 4.49542 0
M  V30 5589 H 509.138 1.54674 6.80237 0
M  V30 5590 H 505.035 0.365032 6.44467 0
M  V30 5591 H 505.803 1.74289 7.99728 0
M  V30 5592 N 508.466 -1.55915 -0.229846 0
M  V30 5593 C 509.413 -1.91734 -1.28478 0
M  V30 5594 C 510.383 -0.773539 -1.46988 0
M  V30 5595 O 511.568 -1.02871 -1.60693 0
M  V30 5596 C 508.708 -2.23224 -2.63182 0
M  V30 5597 C 507.821 -3.50497 -2.52539 0
M  V30 5598 C 506.956 -3.71474 -3.79711 0
M  V30 5599 C 505.995 -4.92289 -3.63755 0
M  V30 5600 N 505.132 -5.09698 -4.82858 0
M  V30 5601 H 509.972 -2.81692 -0.972308 0
M  V30 5602 H 507.509 -1.39429 -0.468815 0
M  V30 5603 H 509.467 -2.3949 -3.41614 0
M  V30 5604 H 508.097 -1.36451 -2.92542 0
M  V30 5605 H 507.149 -3.4247 -1.65585 0
M  V30 5606 H 508.461 -4.39079 -2.36666 0
M  V30 5607 H 507.615 -3.87791 -4.66586 0
M  V30 5608 H 506.354 -2.81157 -3.985 0
M  V30 5609 H 505.359 -4.7593 -2.75264 0
M  V30 5610 H 506.584 -5.84083 -3.46445 0
M  V30 5611 H 504.53 -4.22322 -5.01976 0
M  V30 5612 H 504.447 -5.92399 -4.69681 0
M  V30 5613 H 505.715 -5.30443 -5.71183 0
M  V30 5614 N 509.944 0.496216 -1.49584 0
M  V30 5615 C 510.891 1.59722 -1.66606 0
M  V30 5616 C 511.861 1.58158 -0.507477 0
M  V30 5617 O 513.046 1.76072 -0.735076 0
M  V30 5618 C 510.186 2.97844 -1.74308 0
M  V30 5619 C 509.299 3.09388 -3.01502 0
M  V30 5620 C 508.434 4.38271 -3.00153 0
M  V30 5621 C 507.473 4.43466 -4.21906 0
M  V30 5622 N 506.61 5.63784 -4.1844 0
M  V30 5623 H 511.45 1.44515 -2.60613 0
M  V30 5624 H 508.987 0.703048 -1.29212 0
M  V30 5625 H 510.945 3.77907 -1.76754 0
M  V30 5626 H 509.575 3.11743 -0.837619 0
M  V30 5627 H 508.627 2.22357 -3.08645 0
M  V30 5628 H 509.939 3.09085 -3.91494 0
M  V30 5629 H 509.093 5.2666 -3.01188 0
M  V30 5630 H 507.832 4.41146 -2.07947 0
M  V30 5631 H 506.837 3.53478 -4.21109 0
M  V30 5632 H 508.062 4.42303 -5.1531 0
M  V30 5633 H 506.008 5.67491 -3.29074 0
M  V30 5634 H 505.925 5.65118 -5.02173 0
M  V30 5635 H 507.193 6.54367 -4.23585 0
M  V30 5636 N 511.423 1.38739 0.74761 0
M  V30 5637 C 512.37 1.36449 1.86146 0
M  V30 5638 C 513.34 0.226098 1.64554 0
M  V30 5639 O 514.525 0.41926 1.86137 0
M  V30 5640 C 511.665 1.2013 3.23516 0
M  V30 5641 C 510.778 2.43407 3.56899 0
M  V30 5642 C 509.913 2.19773 4.83605 0
M  V30 5643 C 508.952 3.3879 5.09792 0
M  V30 5644 N 508.089 3.14553 6.27695 0
M  V30 5645 H 512.929 2.3167 1.87438 0
M  V30 5646 H 510.466 1.15094 0.916063 0
M  V30 5647 H 512.424 1.08683 4.02795 0
M  V30 5648 H 511.054 0.285453 3.21535 0
M  V30 5649 H 510.106 2.65504 2.72418 0
M  V30 5650 H 511.418 3.32094 3.72176 0
M  V30 5651 H 510.572 2.05496 5.70838 0
M  V30 5652 H 509.311 1.28461 4.70478 0
M  V30 5653 H 508.316 3.53579 4.21025 0
M  V30 5654 H 509.541 4.30986 5.24812 0
M  V30 5655 H 507.487 2.25893 6.1588 0
M  V30 5656 H 507.404 3.96791 6.435 0
M  V30 5657 H 508.672 3.03943 7.17801 0
M  V30 5658 N 512.901 -0.976442 1.23707 0
M  V30 5659 C 513.811 -2.10359 1.03856 0
M  V30 5660 C 514.827 -1.73991 -0.0180919 0
M  V30 5661 O 516.003 -2.0061 0.178211 0
M  V30 5662 C 513.068 -3.40809 0.636387 0
M  V30 5663 C 512.129 -3.91179 1.76854 0
M  V30 5664 C 511.362 -5.15404 1.38546 0
M  V30 5665 O 511.585 -5.69754 0.27142 0
M  V30 5666 O 510.519 -5.5994 2.20797 0
M  V30 5667 H 514.345 -2.29997 1.98331 0
M  V30 5668 H 511.93 -1.08742 1.02448 0
M  V30 5669 H 513.812 -4.19269 0.423223 0
M  V30 5670 H 512.487 -3.22493 -0.279322 0
M  V30 5671 H 511.394 -3.13819 2.03638 0
M  V30 5672 H 512.727 -4.13958 2.6627 0
M  V30 5673 N 514.379 -1.04941 -1.1758 0
M  V30 5674 C 515.604 -0.778253 -1.92245 0
M  V30 5675 C 516.029 0.659707 -1.76152 0
M  V30 5676 O 515.387 1.45803 -1.07755 0
M  V30 5677 C 515.435 -1.16051 -3.41416 0
M  V30 5678 O 514.539 -0.291153 -4.11371 0
M  V30 5679 H 513.88 -0.285619 -0.599431 0
M  V30 5680 H 516.41 -1.40159 -1.49052 0
M  V30 5681 H 516.42 -1.12619 -3.92149 0
M  V30 5682 H 515.095 -2.208 -3.52449 0
M  V30 5683 H 513.672 -0.385851 -3.70898 0
M  V30 5684 N 515.857 1.33968 -0.830081 0
M  V30 5685 C 516.805 2.31301 -0.245435 0
M  V30 5686 C 517.799 1.57734 0.617762 0
M  V30 5687 O 519.005 1.72674 0.508303 0
M  V30 5688 H 515.38 0.749552 -0.0606316 0
M  V30 5689 H 517.351 2.78129 -1.08105 0
M  V30 5690 C 516.1 3.42961 0.572084 0
M  V30 5691 H 515.423 3.99714 -0.0828118 0
M  V30 5692 H 516.863 4.13286 0.94715 0
M  V30 5693 C 515.322 2.88043 1.74737 0
M  V30 5694 O 515.852 2.83508 2.8458 0
M  V30 5695 N 514.058 2.44768 1.56642 0
M  V30 5696 H 513.605 2.48656 0.672901 0
M  V30 5697 H 513.563 2.08375 2.3543 0
M  V30 5698 N 517.335 0.585699 1.46312 0
M  V30 5699 C 518.298 -0.135673 2.28798 0
M  V30 5700 C 519.298 -0.815988 1.38558 0
M  V30 5701 O 520.488 -0.667487 1.60904 0
M  V30 5702 C 517.62 -1.20163 3.1902 0
M  V30 5703 H 518.813 0.589257 2.94054 0
M  V30 5704 H 516.366 0.343794 1.52472 0
M  V30 5705 H 517.101 -1.95804 2.58517 0
M  V30 5706 H 516.886 -0.718282 3.85465 0
M  V30 5707 H 518.376 -1.70749 3.81096 0
M  V30 5708 N 518.813 -1.54241 0.323641 0
M  V30 5709 C 519.761 -2.25813 -0.557804 0
M  V30 5710 C 520.755 -1.27225 -1.11849 0
M  V30 5711 O 521.961 -1.45001 -1.06652 0
M  V30 5712 H 518.336 -0.72532 -0.198532 0
M  V30 5713 H 520.307 -2.98322 0.0681112 0
M  V30 5714 C 519.056 -3.02913 -1.70701 0
M  V30 5715 H 518.379 -3.78593 -1.28482 0
M  V30 5716 H 519.819 -3.56238 -2.29935 0
M  V30 5717 C 518.278 -2.11217 -2.62467 0
M  V30 5718 O 518.808 -1.69508 -3.64184 0
M  V30 5719 N 517.014 -1.76704 -2.30703 0
M  V30 5720 H 516.561 -2.1082 -1.48029 0
M  V30 5721 H 516.519 -1.15631 -2.92364 0
M  V30 5722 N 520.291 -0.0518155 -1.57515 0
M  V30 5723 C 521.223 0.951542 -2.08515 0
M  V30 5724 C 522.236 1.27436 -1.01311 0
M  V30 5725 O 523.425 1.23504 -1.28876 0
M  V30 5726 C 520.525 2.27291 -2.5138 0
M  V30 5727 C 519.698 2.13191 -3.81927 0
M  V30 5728 C 518.757 3.28458 -4.11098 0
M  V30 5729 O 517.783 3.04334 -4.81009 0
M  V30 5730 N 518.985 4.52954 -3.63061 0
M  V30 5731 H 521.75 0.516242 -2.9522 0
M  V30 5732 H 519.311 0.13441 -1.61341 0
M  V30 5733 H 521.303 3.03272 -2.67971 0
M  V30 5734 H 519.873 2.62386 -1.69919 0
M  V30 5735 H 519.093 1.21798 -3.74912 0
M  V30 5736 H 520.381 2.00999 -4.67415 0
M  V30 5737 H 519.779 4.75444 -3.06545 0
M  V30 5738 H 518.336 5.26026 -3.84889 0
M  V30 5739 N 521.769 1.56035 0.221574 0
M  V30 5740 C 523.009 1.80822 0.953038 0
M  V30 5741 C 523.373 0.625316 1.81532 0
M  V30 5742 O 524.574 0.752491 2.58052 0
M  V30 5743 C 522.845 3.10503 1.76983 0
M  V30 5744 S 524.404 3.56604 2.55693 0
M  V30 5745 H 521.222 0.634849 0.320137 0
M  V30 5746 H 523.824 1.94274 0.218619 0
M  V30 5747 H 522.528 3.94636 1.12651 0
M  V30 5748 H 522.059 2.99858 2.54655 0
M  V30 5749 H 524.074 3.1994 3.79279 0
M  V30 5750 N 523.247 -0.488276 1.49845 0
M  V30 5751 C 524.658 -1.06955 1.53028 0
M  V30 5752 C 525.009 -1.9351 0.323797 0
M  V30 5753 O 524.134 -2.08891 -0.565116 0
M  V30 5754 C 524.729 -1.94643 2.77307 0
M  V30 5755 C 523.288 -2.4791 2.83227 0
M  V30 5756 C 522.435 -1.25833 2.47106 0
M  V30 5757 H 525.386 -0.271626 1.56358 0
M  V30 5758 H 525.407 -2.79496 2.5819 0
M  V30 5759 H 524.919 -1.31621 3.65099 0
M  V30 5760 H 523.02 -3.14535 1.99745 0
M  V30 5761 H 523.133 -2.84193 3.85709 0
M  V30 5762 H 521.497 -1.58764 1.99163 0
M  V30 5763 H 522.28 -0.644993 3.37186 0
M  V30 5764 N 524.725 -1.39134 -0.740242 0
M  V30 5765 C 525.972 -1.36071 -1.49969 0
M  V30 5766 C 526.3 0.0450245 -1.94448 0
M  V30 5767 O 525.555 1.02482 -1.66721 0
M  V30 5768 C 525.854 -2.27457 -2.75678 0
M  V30 5769 C 525.52 -3.75185 -2.50094 0
M  V30 5770 C 524.182 -4.15439 -2.42825 0
M  V30 5771 C 526.534 -4.68643 -2.28086 0
M  V30 5772 C 523.862 -5.4722 -2.11584 0
M  V30 5773 C 526.214 -6.00695 -1.98363 0
M  V30 5774 C 524.878 -6.40018 -1.8956 0
M  V30 5775 H 524.148 -0.497921 -0.548777 0
M  V30 5776 H 526.795 -1.71599 -0.85007 0
M  V30 5777 H 525.1 -1.8503 -3.45356 0
M  V30 5778 H 526.797 -2.22384 -3.33686 0
M  V30 5779 H 523.387 -3.43279 -2.56627 0
M  V30 5780 H 527.571 -4.3838 -2.32672 0
M  V30 5781 H 522.827 -5.76615 -2.03287 0
M  V30 5782 H 527.001 -6.72644 -1.80341 0
M  V30 5783 H 524.628 -7.42051 -1.65117 0
M  V30 5784 N 526.204 0.969867 -1.24223 0
M  V30 5785 C 527.154 2.04913 -0.999732 0
M  V30 5786 C 528.138 1.60795 0.0580636 0
M  V30 5787 O 529.33 1.76317 -0.155392 0
M  V30 5788 C 526.459 3.37942 -0.604154 0
M  V30 5789 C 525.545 3.88628 -1.69791 0
M  V30 5790 N 525.936 4.12274 -2.93025 0
M  V30 5791 C 524.234 4.17268 -1.57492 0
M  V30 5792 C 524.935 4.53808 -3.63914 0
M  V30 5793 N 523.911 4.58855 -2.91468 0
M  V30 5794 H 527.713 2.21168 -1.93551 0
M  V30 5795 H 525.227 1.15349 -1.14317 0
M  V30 5796 H 527.224 4.14863 -0.411665 0
M  V30 5797 H 525.884 3.23075 0.324465 0
M  V30 5798 H 526.895 3.99789 -3.29225 0
M  V30 5799 H 523.572 4.11346 -0.714175 0
M  V30 5800 H 524.962 4.80534 -4.69614 0
M  V30 5801 N 527.682 1.05563 1.17022 0
M  V30 5802 C 528.632 0.630007 2.19123 0
M  V30 5803 C 529.616 -0.335472 1.57364 0
M  V30 5804 O 530.808 -0.1521 1.76345 0
M  V30 5805 C 527.937 0.0101676 3.43298 0
M  V30 5806 C 527.023 0.999698 4.12149 0
M  V30 5807 N 527.414 2.17251 4.56766 0
M  V30 5808 C 525.712 0.829 4.38228 0
M  V30 5809 C 526.413 2.79883 5.09942 0
M  V30 5810 N 525.389 2.07656 5.02374 0
M  V30 5811 H 529.191 1.52353 2.51328 0
M  V30 5812 H 526.705 0.926288 1.33393 0
M  V30 5813 H 528.702 -0.312541 4.15727 0
M  V30 5814 H 527.362 -0.878707 3.12584 0
M  V30 5815 H 528.373 2.55067 4.50734 0
M  V30 5816 H 525.05 -0.00850974 4.17499 0
M  V30 5817 H 526.44 3.79362 5.54558 0
M  V30 5818 O 529.199 -1.28981 0.971914 0
M  V30 5819 H 529.89 -1.83759 0.612547 0
M  V30 END ATOM
M  V30 BEGIN BOND
M  V30 END BOND
M  V30 END CTAB
M  END
$$$$
